data_PCOD9482992
_publ_section_title
;
Structure prediction by ZEFSAII (Michael W. Deem and Ramdas Pophale) SiO2 
 PCOD9482992
Probable space group: C M M M
;
_chemical_formula_sum "Si O2"
_cell_formula_units_Z 92
_cell_length_a 21.636537
_cell_length_b 25.050438
_cell_length_c 8.077587
_cell_angle_alpha 90.000000
_cell_angle_beta 90.000000
_cell_angle_gamma 90.000000
_cell_volume 4378.090350
_symmetry_space_group_name_H-M "C M M M"
_symmetry_group_IT_number 65
_symmetry_cell_setting 'orthorhombic'
loop_
_space_group_symop_operation_xyz
x,y,z
-x,-y,z
x,-y,-z
-x,y,-z
-x,-y,-z
x,y,-z
-x,y,z
x,-y,z
1/2+x,1/2+y,z
1/2-x,1/2-y,z
1/2+x,1/2-y,-z
1/2-x,1/2+y,-z
1/2-x,1/2-y,-z
1/2+x,1/2+y,-z
1/2-x,1/2+y,z
1/2+x,1/2-y,z
loop_
_atom_site_type_symbol
_atom_site_label
_atom_site_fract_x
_atom_site_fract_y
_atom_site_fract_z
Si Si1 0.402649 0.884291 0.808529
Si Si2 0.931274 0.268334 0.799275
Si Si3 0.747542 0.000000 0.746298
Si Si4 0.639161 0.329875 0.693346
Si Si5 0.769907 0.378562 0.317460
Si Si6 0.141262 0.000000 0.000000
Si Si7 0.398076 0.000000 0.190103
Si Si8 0.573545 0.612059 0.000000
O O1 0.429297 0.829523 0.739866
O O2 0.328615 0.876358 0.800671
O O3 0.416196 0.942842 0.732761
O O4 0.422256 0.887140 0.000000
O O5 0.879646 0.231659 0.717037
O O6 0.000000 0.246320 0.765557
O O7 0.922734 0.268039 0.000000
O O8 0.749180 0.940871 0.670001
O O9 0.809702 0.000000 0.851845
O O10 0.677116 0.000000 0.817090
O O11 0.628321 0.345278 0.500000
O O12 0.710388 0.344313 0.730813
O O13 0.599308 0.359894 0.833545
O O14 0.790774 0.361125 0.500000
O O15 0.099687 0.052269 0.000000
O O16 0.419969 0.000000 0.000000
O O17 0.500000 0.613964 0.000000
#
# Coordination Sequence:
#
# PCOD9482992 Si02
#       8
#    16  16   8  16  16   4   8   8
#     4   9  19  33  57  87 117 154 197 242 297 362
#     4  10  21  39  59  82 115 158 205 251 299 358
#     4  10  17  31  57  82 112 154 191 234 288 356
#     4  11  24  40  63  90 118 158 205 253 304 358
#     4  10  21  35  55  85 120 151 190 246 301 354
#     4  12  21  36  62  86 118 158 201 248 300 360
#     4   8  14  27  51  84 114 142 186 232 289 355
#     4  12  25  42  62  88 123 162 210 256 298 354
#
# _framework density 21.013726999999999
#
# number of rings (size 3 to 8) (size 9 to 14) (size 15 to 20)
#    0.000    1.913    3.043    0.913    2.435    2.783 
#    0.000    4.348    0.000    3.652    0.000    0.000 
#    0.000    5.565    0.000    0.000    0.000    0.000 
#
# Total GULP energy -256322.936987 kJ/mol
# GULP energy per Si atom -5572.237761 kJ/mol
# Density = 2.096590 g / cm^3
# Si number density = 21.013727 Si / 1000 Ang^3
#
#
#
# Elastic Constant Matrix: (Units=GPa)
#
#
# Indices 1 2 3 4 5 6 
#
# 1 73.3882 31.8709 19.9746 0.0000 0.0000 0.0000
# 2 31.8709 131.9329 7.1144 0.0000 0.0000 0.0000
# 3 19.9746 7.1144 50.5128 0.0000 0.0000 0.0000
# 4 0.0000 0.0000 0.0000 26.7958 0.0000 0.0000
# 5 0.0000 0.0000 0.0000 0.0000 -7.9804 0.0000
# 6 0.0000 0.0000 0.0000 0.0000 0.0000 15.0192
#
#
#
# Elastic Compliance Matrix: (Units=1/GPa)
#
#
# Indices 1 2 3 4 5 6 
#
# 1 0.016937 -0.003759 -0.006168 0.000000 0.000000 0.000000
# 2 -0.003759 0.008472 0.000293 0.000000 0.000000 0.000000
# 3 -0.006168 0.000293 0.022195 0.000000 0.000000 0.000000
# 4 0.000000 0.000000 0.000000 0.037319 0.000000 0.000000
# 5 0.000000 0.000000 0.000000 0.000000 -0.125308 0.000000
# 6 0.000000 0.000000 0.000000 0.000000 0.000000 0.066582
#
#
# Mechanical properties :
#
#
# Convention : Reuss Voigt Hill
#
# Bulk Modulus (GPa) = 35.29062 41.52819 38.40940
# Shear Modulus (GPa) = 91.05695 19.89187 55.47441
#
# Velocity S-wave (km/s) = 6.58986 3.08005 5.14358
# Velocity P-wave (km/s) = 8.64477 5.69686 7.32074
#
# Compressibility (1/GPa) = 0.02833614
#
# Stress axis : x y z
#
# Youngs Moduli (GPa) = 59.04075 118.03812 45.05553
#
# Poissons Ratio (x) = 0.44370 0.27791
# Poissons Ratio (y) = 0.22193 -0.01321
# Poissons Ratio (z) = 0.36418 -0.03461
#
# Static dielectric constant tensor:
#      x y z
#    x 1.715940 0.000000 0.000000 
#    y 0.000000 1.794860 0.000000 
#    z 0.000000 0.000000 1.757330 
# 
# From -- ./inp_files/14448.got.cif
#   From: 2010.05.17/outbox.cif.g08.bks.cpg/sg65_8_cif.got.tgz:14448.got - 2010.06.03 17:01:31.
