data_PCOD9482107
_publ_section_title
;
Structure prediction by ZEFSAII (Michael W. Deem and Ramdas Pophale) SiO2 
 PCOD9482107
Probable space group: C M C A
;
_chemical_formula_sum "Si O2"
_cell_formula_units_Z 104
_cell_length_a 23.294369
_cell_length_b 21.272364
_cell_length_c 9.421812
_cell_angle_alpha 90.000000
_cell_angle_beta 90.000000
_cell_angle_gamma 90.000000
_cell_volume 4668.755607
_symmetry_space_group_name_H-M "C M C A"
_symmetry_group_IT_number 64
_symmetry_cell_setting 'orthorhombic'
loop_
_space_group_symop_operation_xyz
x,y,z
-x,1/2-y,1/2+z
x,-y,-z
-x,1/2+y,1/2-z
-x,-y,-z
x,1/2+y,1/2-z
-x,y,z
x,1/2-y,1/2+z
1/2+x,1/2+y,z
1/2-x,-y,1/2+z
1/2+x,1/2-y,-z
1/2-x,y,1/2-z
1/2-x,1/2-y,-z
1/2+x,y,1/2-z
1/2-x,1/2+y,z
1/2+x,-y,1/2+z
loop_
_atom_site_type_symbol
_atom_site_label
_atom_site_fract_x
_atom_site_fract_y
_atom_site_fract_z
Si Si1 0.334465 0.070462 0.005521
Si Si2 0.221275 0.305061 0.904800
Si Si3 0.814537 0.908304 0.205035
Si Si4 0.064886 0.711643 0.402873
Si Si5 0.629290 0.782138 0.321263
Si Si6 0.878626 0.000000 0.000000
Si Si7 0.433365 0.422091 0.745215
O O1 0.286949 0.124468 0.036471
O O2 0.386098 0.071995 0.119834
O O3 0.354228 0.081388 0.844001
O O4 0.309635 0.000000 0.000000
O O5 0.250000 0.307573 0.750000
O O6 0.157216 0.281102 0.879477
O O7 0.250000 0.250000 0.000000
O O8 0.750000 0.925047 0.250000
O O9 0.821454 0.834343 0.179369
O O10 0.838804 0.947862 0.075248
O O11 0.082954 0.697294 0.563354
O O12 0.103949 0.764482 0.329915
O O13 0.069649 0.648112 0.311203
O O14 0.000000 0.734028 0.399441
O O15 0.915564 0.968031 0.874872
O O16 0.500000 0.433094 0.701656
#
# Coordination Sequence:
#
# PCOD9482107 Si02
#       7
#    16  16  16  16  16   8  16
#     4  12  26  47  72 110 150 187 246 306 364 439
#     4  12  26  46  74 104 144 197 244 297 367 434
#     4  12  28  46  72 107 146 195 250 301 367 438
#     4  11  24  43  71 106 143 188 239 297 368 430
#     4  12  23  45  70 101 146 186 242 301 357 437
#     4  12  25  50  76 100 148 190 245 308 354 440
#     4  11  25  49  75 105 144 193 241 298 371 441
#
# _framework density 22.275742999999999
#
# number of rings (size 3 to 8) (size 9 to 14) (size 15 to 20)
#    0.000    0.308    4.615    4.846    1.077    2.154 
#    0.000    0.769    0.000    0.000    0.000    0.000 
#    0.000    0.000    0.000    0.000    0.000    0.000 
#
# Total GULP energy -290671.433676 kJ/mol
# GULP energy per Si atom -5589.835263 kJ/mol
# Density = 2.222504 g / cm^3
# Si number density = 22.275743 Si / 1000 Ang^3
#
#
#
# Elastic Constant Matrix: (Units=GPa)
#
#
# Indices 1 2 3 4 5 6 
#
# 1 92.7804 33.4403 39.4304 0.0000 0.0000 0.0000
# 2 33.4403 122.6821 27.8803 0.0000 0.0000 0.0000
# 3 39.4304 27.8803 134.9638 0.0000 0.0000 0.0000
# 4 0.0000 0.0000 0.0000 44.3704 0.0000 0.0000
# 5 0.0000 0.0000 0.0000 0.0000 27.6318 0.0000
# 6 0.0000 0.0000 0.0000 0.0000 0.0000 0.1764
#
#
#
# Elastic Compliance Matrix: (Units=1/GPa)
#
#
# Indices 1 2 3 4 5 6 
#
# 1 0.013195 -0.002855 -0.003265 0.000000 0.000000 0.000000
# 2 -0.002855 0.009170 -0.001060 0.000000 0.000000 0.000000
# 3 -0.003265 -0.001060 0.008582 0.000000 0.000000 0.000000
# 4 0.000000 0.000000 0.000000 0.022538 0.000000 0.000000
# 5 0.000000 0.000000 0.000000 0.000000 0.036190 0.000000
# 6 0.000000 0.000000 0.000000 0.000000 0.000000 5.669021
#
#
# Mechanical properties :
#
#
# Convention : Reuss Voigt Hill
#
# Bulk Modulus (GPa) = 60.28809 61.32536 60.80673
# Shear Modulus (GPa) = 0.86526 31.08074 15.97300
#
# Velocity S-wave (km/s) = 0.62392 3.73939 2.68070
# Velocity P-wave (km/s) = 5.25759 6.79955 6.07767
#
# Compressibility (1/GPa) = 0.01658702
#
# Stress axis : x y z
#
# Youngs Moduli (GPa) = 75.78838 109.04887 116.51767
#
# Poissons Ratio (x) = 0.31128 0.38045
# Poissons Ratio (y) = 0.21634 0.12355
# Poissons Ratio (z) = 0.24746 0.11563
#
# Static dielectric constant tensor:
#      x y z
#    x 1.760510 0.000000 0.000000 
#    y 0.000000 1.871400 0.000000 
#    z 0.000000 0.000000 1.822290 
# 
# From -- ./inp_files/10421.got.cif
#   From: 2010.05.17/outbox.cif.g08.bks.cpg/sg64_6_cif.got.tgz:10421.got - 2010.06.03 16:29:19.
