data_PCOD9482043
_publ_section_title
;
Structure prediction by ZEFSAII (Michael W. Deem and Ramdas Pophale) SiO2 
 PCOD9482043
Probable space group: C M C A
;
_chemical_formula_sum "Si O2"
_cell_formula_units_Z 56
_cell_length_a 9.972080
_cell_length_b 16.453792
_cell_length_c 17.101300
_cell_angle_alpha 90.000000
_cell_angle_beta 90.000000
_cell_angle_gamma 90.000000
_cell_volume 2805.956167
_symmetry_space_group_name_H-M "C M C A"
_symmetry_group_IT_number 64
_symmetry_cell_setting 'orthorhombic'
loop_
_space_group_symop_operation_xyz
x,y,z
-x,1/2-y,1/2+z
x,-y,-z
-x,1/2+y,1/2-z
-x,-y,-z
x,1/2+y,1/2-z
-x,y,z
x,1/2-y,1/2+z
1/2+x,1/2+y,z
1/2-x,-y,1/2+z
1/2+x,1/2-y,-z
1/2-x,y,1/2-z
1/2-x,1/2-y,-z
1/2+x,y,1/2-z
1/2-x,1/2+y,z
1/2+x,-y,1/2+z
loop_
_atom_site_type_symbol
_atom_site_label
_atom_site_fract_x
_atom_site_fract_y
_atom_site_fract_z
Si Si1 0.750000 0.748178 0.750000
Si Si2 0.000000 0.173856 0.833181
Si Si3 0.500000 0.093232 0.030442
Si Si4 0.785945 0.635952 0.396543
Si Si5 0.000000 0.496443 0.594523
Si Si6 0.500000 0.265828 0.994070
O O1 0.628654 0.694341 0.781535
O O2 0.788599 0.806695 0.821488
O O3 0.000000 0.083613 0.866744
O O4 0.000000 0.228737 0.911937
O O5 0.362136 0.109494 0.077396
O O6 0.500000 0.170684 0.970362
O O7 0.500000 0.000000 0.000000
O O8 0.870757 0.555063 0.381393
O O9 0.869739 0.686298 0.462162
O O10 0.000000 0.500000 0.500000
#
# Coordination Sequence:
#
# PCOD9482043 Si02
#       6
#     8   8   8  16   8   8
#     4  12  26  46  68 102 142 188 220 284 368 430
#     4  12  25  46  73 101 136 186 238 280 354 431
#     4  12  25  38  70 110 135 177 243 299 330 415
#     4  11  24  45  70  98 146 183 225 291 362 414
#     4  11  23  44  72 100 132 182 236 294 341 407
#     4  11  23  45  72  96 135 195 240 286 343 424
#
# _framework density 19.957546000000001
#
# number of rings (size 3 to 8) (size 9 to 14) (size 15 to 20)
#    0.000    0.571    5.714    3.429    0.000    1.143 
#    0.000    4.286    0.000    0.000    0.000    0.000 
#    0.000    0.000    0.000    0.000    0.000    0.000 
#
# Total GULP energy -156491.538339 kJ/mol
# GULP energy per Si atom -5588.983512 kJ/mol
# Density = 1.991212 g / cm^3
# Si number density = 19.957546 Si / 1000 Ang^3
#
#
#
# Elastic Constant Matrix: (Units=GPa)
#
#
# Indices 1 2 3 4 5 6 
#
# 1 183.9459 92.9648 85.3898 0.0000 0.0000 0.0000
# 2 92.9648 208.2154 58.7474 0.0000 0.0000 0.0000
# 3 85.3898 58.7474 104.8378 0.0000 0.0000 0.0000
# 4 0.0000 0.0000 0.0000 42.2075 0.0000 0.0000
# 5 0.0000 0.0000 0.0000 0.0000 12.6054 0.0000
# 6 0.0000 0.0000 0.0000 0.0000 0.0000 17.1280
#
#
#
# Elastic Compliance Matrix: (Units=1/GPa)
#
#
# Indices 1 2 3 4 5 6 
#
# 1 0.009729 -0.002504 -0.006521 0.000000 0.000000 0.000000
# 2 -0.002504 0.006349 -0.001518 0.000000 0.000000 0.000000
# 3 -0.006521 -0.001518 0.015701 0.000000 0.000000 0.000000
# 4 0.000000 0.000000 0.000000 0.023692 0.000000 0.000000
# 5 0.000000 0.000000 0.000000 0.000000 0.079331 0.000000
# 6 0.000000 0.000000 0.000000 0.000000 0.000000 0.058384
#
#
# Mechanical properties :
#
#
# Convention : Reuss Voigt Hill
#
# Bulk Modulus (GPa) = 93.52722 107.91145 100.71933
# Shear Modulus (GPa) = 22.95291 31.71465 27.33378
#
# Velocity S-wave (km/s) = 3.39497 3.99068 3.70482
# Velocity P-wave (km/s) = 7.89510 8.68458 8.29923
#
# Compressibility (1/GPa) = 0.01069207
#
# Stress axis : x y z
#
# Youngs Moduli (GPa) = 102.78511 157.50290 63.69095
#
# Poissons Ratio (x) = 0.39438 0.41534
# Poissons Ratio (y) = 0.25737 0.09671
# Poissons Ratio (z) = 0.67028 0.23915
#
# Static dielectric constant tensor:
#      x y z
#    x 1.719980 0.000000 0.000000 
#    y 0.000000 1.723240 0.000000 
#    z 0.000000 0.000000 1.718610 
# 
# From -- ./inp_files/29143.got.cif
#   From: 2010.05.17/outbox.cif.g08.bks.cpg/sg64_15_cif.got.tgz:29143.got - 2010.06.03 16:29:19.
