data_PCOD9482175
_publ_section_title
;
Structure prediction by ZEFSAII (Michael W. Deem and Ramdas Pophale) SiO2 
 PCOD9482175
Probable space group: C M C A
;
_chemical_formula_sum "Si O2"
_cell_formula_units_Z 60
_cell_length_a 21.421727
_cell_length_b 20.942090
_cell_length_c 5.021175
_cell_angle_alpha 90.000000
_cell_angle_beta 90.000000
_cell_angle_gamma 90.000000
_cell_volume 2252.578112
_symmetry_space_group_name_H-M "C M C A"
_symmetry_group_IT_number 64
_symmetry_cell_setting 'orthorhombic'
loop_
_space_group_symop_operation_xyz
x,y,z
-x,1/2-y,1/2+z
x,-y,-z
-x,1/2+y,1/2-z
-x,-y,-z
x,1/2+y,1/2-z
-x,y,z
x,1/2-y,1/2+z
1/2+x,1/2+y,z
1/2-x,-y,1/2+z
1/2+x,1/2-y,-z
1/2-x,y,1/2-z
1/2-x,1/2-y,-z
1/2+x,y,1/2-z
1/2-x,1/2+y,z
1/2+x,-y,1/2+z
loop_
_atom_site_type_symbol
_atom_site_label
_atom_site_fract_x
_atom_site_fract_y
_atom_site_fract_z
Si Si1 0.065679 0.080044 0.433782
Si Si2 0.000000 0.500000 0.500000
Si Si3 0.323903 0.789603 0.331124
Si Si4 0.500000 0.705139 0.387495
Si Si5 0.177059 0.435510 0.327778
O O1 0.128325 0.063536 0.582486
O O2 0.000000 0.062946 0.608212
O O3 0.056307 0.154278 0.390446
O O4 0.053466 0.955927 0.840259
O O5 0.347271 0.741981 0.558608
O O6 0.250000 0.788434 0.250000
O O7 0.336079 0.862428 0.427377
O O8 0.500000 0.749013 0.641263
O O9 0.173188 0.500000 0.500000
O O10 0.250000 0.433734 0.250000
#
# Coordination Sequence:
#
# PCOD9482175 Si02
#       5
#    16   4  16   8  16
#     4   8  20  45  89 123 161 234 286 360 437 535
#     4   6  16  44  88 118 152 214 306 350 428 524
#     4   9  20  42  77 109 156 225 294 356 435 531
#     4   9  20  43  84 131 167 209 289 383 448 523
#     4  11  25  46  82 127 184 235 300 370 447 531
#
# _framework density 26.636147000000001
#
# number of rings (size 3 to 8) (size 9 to 14) (size 15 to 20)
#    1.600    1.067    0.000    0.000    0.000    8.000 
#    0.000    2.667   61.600    7.200    0.000    0.000 
#    0.000    0.000    0.000    0.000    0.000    0.000 
#
# Total GULP energy -167174.672670 kJ/mol
# GULP energy per Si atom -5572.489089 kJ/mol
# Density = 2.657552 g / cm^3
# Si number density = 26.636147 Si / 1000 Ang^3
#
#
#
# Elastic Constant Matrix: (Units=GPa)
#
#
# Indices 1 2 3 4 5 6 
#
# 1 188.3775 86.9074 78.4920 0.0000 0.0000 0.0000
# 2 86.9074 325.4535 135.3068 0.0000 0.0000 0.0000
# 3 78.4920 135.3068 182.4638 0.0000 0.0000 0.0000
# 4 0.0000 0.0000 0.0000 67.5557 0.0000 0.0000
# 5 0.0000 0.0000 0.0000 0.0000 25.1820 0.0000
# 6 0.0000 0.0000 0.0000 0.0000 0.0000 28.2115
#
#
#
# Elastic Compliance Matrix: (Units=1/GPa)
#
#
# Indices 1 2 3 4 5 6 
#
# 1 0.006625 -0.000845 -0.002223 0.000000 0.000000 0.000000
# 2 -0.000845 0.004550 -0.003011 0.000000 0.000000 0.000000
# 3 -0.002223 -0.003011 0.008670 0.000000 0.000000 0.000000
# 4 0.000000 0.000000 0.000000 0.014803 0.000000 0.000000
# 5 0.000000 0.000000 0.000000 0.000000 0.039711 0.000000
# 6 0.000000 0.000000 0.000000 0.000000 0.000000 0.035446
#
#
# Mechanical properties :
#
#
# Convention : Reuss Voigt Hill
#
# Bulk Modulus (GPa) = 130.09555 144.18969 137.14262
# Shear Modulus (GPa) = 40.15304 50.56241 45.35772
#
# Velocity S-wave (km/s) = 3.88682 4.36163 4.13105
# Velocity P-wave (km/s) = 8.31209 8.92276 8.62284
#
# Compressibility (1/GPa) = 0.00768666
#
# Stress axis : x y z
#
# Youngs Moduli (GPa) = 150.95258 219.78822 115.34629
#
# Poissons Ratio (x) = 0.18564 0.25647
# Poissons Ratio (y) = 0.12750 0.34726
# Poissons Ratio (z) = 0.33563 0.66170
#
# Static dielectric constant tensor:
#      x y z
#    x 2.282050 0.000000 0.000000 
#    y 0.000000 2.000760 0.000000 
#    z 0.000000 0.000000 1.739390 
# 
# From -- ./inp_files/2665.got.cif
#   From: 2010.05.17/outbox.cif.g08.bks.cpg/sg64_2_cif.got.tgz:2665.got - 2010.06.03 16:29:19.
