data_PCOD9482584
_publ_section_title
;
Structure prediction by ZEFSAII (Michael W. Deem and Ramdas Pophale) SiO2 
 PCOD9482584
Probable space group: C M M M
;
_chemical_formula_sum "Si O2"
_cell_formula_units_Z 72
_cell_length_a 8.721858
_cell_length_b 23.887851
_cell_length_c 21.430932
_cell_angle_alpha 90.000000
_cell_angle_beta 90.000000
_cell_angle_gamma 90.000000
_cell_volume 4465.058481
_symmetry_space_group_name_H-M "C M M M"
_symmetry_group_IT_number 65
_symmetry_cell_setting 'orthorhombic'
loop_
_space_group_symop_operation_xyz
x,y,z
-x,-y,z
x,-y,-z
-x,y,-z
-x,-y,-z
x,y,-z
-x,y,z
x,-y,z
1/2+x,1/2+y,z
1/2-x,1/2-y,z
1/2+x,1/2-y,-z
1/2-x,1/2+y,-z
1/2-x,1/2-y,-z
1/2+x,1/2+y,-z
1/2-x,1/2+y,z
1/2+x,1/2-y,z
loop_
_atom_site_type_symbol
_atom_site_label
_atom_site_fract_x
_atom_site_fract_y
_atom_site_fract_z
Si Si1 0.816274 0.313157 0.233877
Si Si2 0.316898 0.812877 0.626373
Si Si3 0.184137 0.188209 0.000000
Si Si4 0.815609 0.116219 0.879455
Si Si5 0.315861 0.000000 0.926466
Si Si6 0.182670 0.813587 0.500000
O O1 0.750000 0.250000 0.227129
O O2 0.782776 0.335045 0.304263
O O3 0.746540 0.353890 0.182340
O O4 0.000000 0.309804 0.227202
O O5 0.500000 0.810614 0.618260
O O6 0.250000 0.750000 0.628673
O O7 0.243040 0.839848 0.564692
O O8 0.250000 0.250000 0.000000
O O9 0.231413 0.154600 0.061605
O O10 0.000000 0.191271 0.000000
O O11 0.748497 0.055118 0.892983
O O12 0.000000 0.113457 0.877468
O O13 0.500000 0.000000 0.924319
O O14 0.269076 0.000000 0.000000
O O15 0.250000 0.750000 0.500000
O O16 0.000000 0.810840 0.500000
#
# Coordination Sequence:
#
# PCOD9482584 Si02
#       6
#    16  16   8  16   8   8
#     4  10  20  33  49  72 101 134 170 206 249 300
#     4   9  16  26  40  59  89 126 163 201 240 285
#     4  10  22  35  50  73  99 128 160 196 239 290
#     4  11  22  37  55  74  99 130 164 205 250 299
#     4  11  23  39  59  79  97 124 161 206 253 299
#     4  10  16  22  36  58  86 121 164 203 236 282
#
# _framework density 16.125208000000001
#
# number of rings (size 3 to 8) (size 9 to 14) (size 15 to 20)
#    0.000    1.889    1.111    5.333    0.000    6.667 
#    0.000    0.000    0.000    0.000    0.000    0.000 
#    0.000    0.889    0.000    9.333    0.000    5.111 
#
# Total GULP energy -200767.224938 kJ/mol
# GULP energy per Si atom -5576.867359 kJ/mol
# Density = 1.608851 g / cm^3
# Si number density = 16.125208 Si / 1000 Ang^3
#
#
#
# Elastic Constant Matrix: (Units=GPa)
#
#
# Indices 1 2 3 4 5 6 
#
# 1 79.8991 35.9357 70.3626 0.0000 0.0000 0.0000
# 2 35.9357 95.2666 66.8337 0.0000 0.0000 0.0000
# 3 70.3626 66.8337 184.9559 0.0000 0.0000 0.0000
# 4 0.0000 0.0000 0.0000 -0.4599 0.0000 0.0000
# 5 0.0000 0.0000 0.0000 0.0000 28.9689 0.0000
# 6 0.0000 0.0000 0.0000 0.0000 0.0000 23.6710
#
#
#
# Elastic Compliance Matrix: (Units=1/GPa)
#
#
# Indices 1 2 3 4 5 6 
#
# 1 0.019388 -0.002865 -0.006340 0.000000 0.000000 0.000000
# 2 -0.002865 0.014485 -0.004144 0.000000 0.000000 0.000000
# 3 -0.006340 -0.004144 0.009316 0.000000 0.000000 0.000000
# 4 0.000000 0.000000 0.000000 -2.174301 0.000000 0.000000
# 5 0.000000 0.000000 0.000000 0.000000 0.034520 0.000000
# 6 0.000000 0.000000 0.000000 0.000000 0.000000 0.042246
#
#
# Mechanical properties :
#
#
# Convention : Reuss Voigt Hill
#
# Bulk Modulus (GPa) = 60.64406 78.48727 69.56566
# Shear Modulus (GPa) = -2.47262 22.90197 10.21467
#
# Velocity S-wave (km/s) = -1.23964 3.77272 2.51959
# Velocity P-wave (km/s) = 5.97000 8.23148 7.19021
#
# Compressibility (1/GPa) = 0.01648966
#
# Stress axis : x y z
#
# Youngs Moduli (GPa) = 51.57782 69.03722 107.33950
#
# Poissons Ratio (x) = 0.19782 0.68058
# Poissons Ratio (y) = 0.14779 0.44482
# Poissons Ratio (z) = 0.32703 0.28609
#
# Static dielectric constant tensor:
#      x y z
#    x 1.540390 0.000000 0.000000 
#    y 0.000000 1.495680 0.000000 
#    z 0.000000 0.000000 1.596990 
# 
# From -- ./inp_files/59426.got.cif
#   From: 2010.05.17/outbox.cif.g08.bks.cpg/sg65_30_cif.got.tgz:59426.got - 2010.06.03 17:01:31.
