data_PCOD9482929
_publ_section_title
;
Structure prediction by ZEFSAII (Michael W. Deem and Ramdas Pophale) SiO2 
 PCOD9482929
Probable space group: C M M M
;
_chemical_formula_sum "Si O2"
_cell_formula_units_Z 56
_cell_length_a 14.097125
_cell_length_b 23.157704
_cell_length_c 7.412282
_cell_angle_alpha 90.000000
_cell_angle_beta 90.000000
_cell_angle_gamma 90.000000
_cell_volume 2419.791701
_symmetry_space_group_name_H-M "C M M M"
_symmetry_group_IT_number 65
_symmetry_cell_setting 'orthorhombic'
loop_
_space_group_symop_operation_xyz
x,y,z
-x,-y,z
x,-y,-z
-x,y,-z
-x,-y,-z
x,y,-z
-x,y,z
x,-y,z
1/2+x,1/2+y,z
1/2-x,1/2-y,z
1/2+x,1/2-y,-z
1/2-x,1/2+y,-z
1/2-x,1/2-y,-z
1/2+x,1/2+y,-z
1/2-x,1/2+y,z
1/2+x,1/2-y,z
loop_
_atom_site_type_symbol
_atom_site_label
_atom_site_fract_x
_atom_site_fract_y
_atom_site_fract_z
Si Si1 0.396514 0.378658 0.780780
Si Si2 0.394008 0.243575 0.781329
Si Si3 0.695900 0.870210 0.786267
Si Si4 0.500000 0.064895 0.285334
O O1 0.500000 0.400208 0.716265
O O2 0.389732 0.310539 0.731058
O O3 0.292823 0.400461 0.719806
O O4 0.400888 0.383568 0.000000
O O5 0.500000 0.223072 0.733667
O O6 0.322108 0.194888 0.714493
O O7 0.387174 0.244323 0.000000
O O8 0.597835 0.903922 0.765469
O O9 0.710453 0.863164 0.000000
O O10 0.500000 0.062655 0.500000
O O11 0.500000 0.000000 0.212215
#
# Coordination Sequence:
#
# PCOD9482929 Si02
#       4
#    16  16  16   8
#     4   8  14  23  41  76 114 137 154 185 232 288
#     4   8  12  20  38  71 108 133 156 188 227 277
#     4  10  17  29  52  77  99 126 165 206 241 285
#     4  11  25  41  53  67  91 125 167 217 270 307
#
# _framework density 23.142486000000002
#
# number of rings (size 3 to 8) (size 9 to 14) (size 15 to 20)
#    0.000    3.000    1.429    3.000    0.000    4.571 
#    0.000    0.000    0.000    5.143    0.000    6.000 
#    0.000    0.000    0.000    0.000    0.000    0.000 
#
# Total GULP energy -155985.134444 kJ/mol
# GULP energy per Si atom -5570.897659 kJ/mol
# Density = 2.308981 g / cm^3
# Si number density = 23.142486 Si / 1000 Ang^3
#
#
#
# Elastic Constant Matrix: (Units=GPa)
#
#
# Indices 1 2 3 4 5 6 
#
# 1 229.4271 11.3039 -3.5385 0.0000 0.0000 0.0000
# 2 11.3039 19.1353 -12.8823 0.0000 0.0000 0.0000
# 3 -3.5385 -12.8823 70.3306 0.0000 0.0000 0.0000
# 4 0.0000 0.0000 0.0000 8.9206 0.0000 0.0000
# 5 0.0000 0.0000 0.0000 0.0000 -62.7898 0.0000
# 6 0.0000 0.0000 0.0000 0.0000 0.0000 10.2237
#
#
#
# Elastic Compliance Matrix: (Units=1/GPa)
#
#
# Indices 1 2 3 4 5 6 
#
# 1 0.004495 -0.002855 -0.000297 0.000000 0.000000 0.000000
# 2 -0.002855 0.061423 0.011107 0.000000 0.000000 0.000000
# 3 -0.000297 0.011107 0.016238 0.000000 0.000000 0.000000
# 4 0.000000 0.000000 0.000000 0.112100 0.000000 0.000000
# 5 0.000000 0.000000 0.000000 0.000000 -0.015926 0.000000
# 6 0.000000 0.000000 0.000000 0.000000 0.000000 0.097812
#
#
# Mechanical properties :
#
#
# Convention : Reuss Voigt Hill
#
# Bulk Modulus (GPa) = 10.19712 34.29546 22.24629
# Shear Modulus (GPa) = 17.06951 12.87157 14.97054
#
# Velocity S-wave (km/s) = 2.71879 2.36092 2.54615
# Velocity P-wave (km/s) = 3.77778 4.72053 4.27522
#
# Compressibility (1/GPa) = 0.09806695
#
# Stress axis : x y z
#
# Youngs Moduli (GPa) = 222.48066 16.28042 61.58354
#
# Poissons Ratio (x) = 0.04648 0.01828
# Poissons Ratio (y) = 0.63519 -0.68402
# Poissons Ratio (z) = 0.06603 -0.18083
#
# Static dielectric constant tensor:
#      x y z
#    x 2.060860 0.000000 0.000000 
#    y 0.000000 1.826960 0.000000 
#    z 0.000000 0.000000 1.908860 
# 
# From -- ./inp_files/6565.got.cif
#   From: 2010.05.17/outbox.cif.g08.bks.cpg/sg65_4_cif.got.tgz:6565.got - 2010.06.03 17:01:31.
