data_PCOD9482395
_publ_section_title
;
Structure prediction by ZEFSAII (Michael W. Deem and Ramdas Pophale) SiO2 
 PCOD9482395
Probable space group: C M C A
;
_chemical_formula_sum "Si O2"
_cell_formula_units_Z 48
_cell_length_a 24.000000
_cell_length_b 18.000000
_cell_length_c 12.000000
_cell_angle_alpha 90.000000
_cell_angle_beta 90.000000
_cell_angle_gamma 90.000000
_cell_volume 5184.000000
_symmetry_space_group_name_H-M "C M C A"
_symmetry_group_IT_number 64
_symmetry_cell_setting 'orthorhombic'
loop_
_space_group_symop_operation_xyz
x,y,z
-x,1/2-y,1/2+z
x,-y,-z
-x,1/2+y,1/2-z
-x,-y,-z
x,1/2+y,1/2-z
-x,y,z
x,1/2-y,1/2+z
1/2+x,1/2+y,z
1/2-x,-y,1/2+z
1/2+x,1/2-y,-z
1/2-x,y,1/2-z
1/2-x,1/2-y,-z
1/2+x,y,1/2-z
1/2-x,1/2+y,z
1/2+x,-y,1/2+z
loop_
_atom_site_type_symbol
_atom_site_label
_atom_site_fract_x
_atom_site_fract_y
_atom_site_fract_z
Si Si1 0.566353 0.081196 0.451430
Si Si2 0.124970 0.704523 0.603202
Si Si3 0.788369 0.198229 0.099105
Si Si4 0.802161 0.646084 0.803413
Si Si5 0.123999 0.860468 0.724917
Si Si6 0.692514 0.081788 0.030414
O O1 0.500000 0.077522 0.447741
O O2 0.584016 0.147287 0.538027
O O3 0.586627 0.103127 0.324611
O O4 0.586744 0.000000 0.500000
O O5 0.171610 0.714982 0.506539
O O6 0.153547 0.664085 0.708353
O O7 0.105407 0.784602 0.656345
O O8 0.773463 0.279199 0.146016
O O9 0.823342 0.164298 0.200710
O O10 0.741001 0.139338 0.067154
O O11 0.750000 0.601969 0.750000
O O12 0.829904 0.609685 0.911025
O O13 0.146512 0.915116 0.628142
O O14 0.714504 0.000000 0.000000
#
# Coordination Sequence:
#
# PCOD9482395 Si02
#       6
#    16  16  16  16  16  16
#     4  10  24  45  69  91 119 157 201 264 334 383
#     4  10  20  38  65  88 116 159 210 250 301 366
#     4  10  19  37  55  81 121 166 202 241 290 350
#     4  11  20  33  56  80 119 164 201 239 284 354
#     4  10  22  39  62  88 120 156 208 259 302 364
#     4  12  24  34  53  86 128 168 206 244 301 358
#
# _framework density 9.2592590000000001
#
# number of rings (size 3 to 8) (size 9 to 14) (size 15 to 20)
#    0.000    1.500    3.333    3.000    2.333    4.667 
#    0.000    0.000    0.000    0.500    0.000    0.000 
#    0.000    0.000    0.000    0.000    0.000    0.000 
#
# Total GULP energy -267238.525945 kJ/mol
# GULP energy per Si atom -5567.469291 kJ/mol
# Density = 0.923818 g / cm^3
# Si number density = 9.259259 Si / 1000 Ang^3
#
#
#
# Elastic Constant Matrix: (Units=GPa)
#
#
# Indices 1 2 3 4 5 6 
#
# 1 48.2509 26.1223 33.6288 0.0000 0.0000 0.0000
# 2 26.1223 90.7020 50.0069 0.0000 0.0000 0.0000
# 3 33.6288 50.0069 164.0333 0.0000 0.0000 0.0000
# 4 0.0000 0.0000 0.0000 26.6070 0.0000 0.0000
# 5 0.0000 0.0000 0.0000 0.0000 26.0195 0.0000
# 6 0.0000 0.0000 0.0000 0.0000 0.0000 22.3447
#
#
#
# Elastic Compliance Matrix: (Units=1/GPa)
#
#
# Indices 1 2 3 4 5 6 
#
# 1 0.026303 -0.005532 -0.003706 0.000000 0.000000 0.000000
# 2 -0.005532 0.014416 -0.003261 0.000000 0.000000 0.000000
# 3 -0.003706 -0.003261 0.007850 0.000000 0.000000 0.000000
# 4 0.000000 0.000000 0.000000 0.037584 0.000000 0.000000
# 5 0.000000 0.000000 0.000000 0.000000 0.038433 0.000000
# 6 0.000000 0.000000 0.000000 0.000000 0.000000 0.044753
#
#
# Mechanical properties :
#
#
# Convention : Reuss Voigt Hill
#
# Bulk Modulus (GPa) = 42.42378 58.05579 50.23979
# Shear Modulus (GPa) = 24.72873 27.87611 26.30242
#
# Velocity S-wave (km/s) = 3.65821 3.88404 3.77282
# Velocity P-wave (km/s) = 6.38764 7.17862 6.79465
#
# Compressibility (1/GPa) = 0.02357168
#
# Stress axis : x y z
#
# Youngs Moduli (GPa) = 38.01866 69.36685 127.38635
#
# Poissons Ratio (x) = 0.38374 0.47208
# Poissons Ratio (y) = 0.21032 0.41537
# Poissons Ratio (z) = 0.14089 0.22619
#
# Static dielectric constant tensor:
#      x y z
#    x 1.643430 0.000000 0.000000 
#    y 0.000000 1.700410 0.000000 
#    z 0.000000 0.000000 1.665410 
# 
# From -- ./inp_files/18364.got.cif
#   From: 2010.05.17/outbox.ucp.g08.bks.cvg/sg64_10_cif.got.tgz:18364.got - 2010.06.11 16:36:46.
