data_PCOD9482772
_publ_section_title
;
Structure prediction by ZEFSAII (Michael W. Deem and Ramdas Pophale) SiO2 
 PCOD9482772
Probable space group: C M M M
;
_chemical_formula_sum "Si O2"
_cell_formula_units_Z 104
_cell_length_a 23.021704
_cell_length_b 24.137384
_cell_length_c 13.679415
_cell_angle_alpha 90.000000
_cell_angle_beta 90.000000
_cell_angle_gamma 90.000000
_cell_volume 7601.428075
_symmetry_space_group_name_H-M "C M M M"
_symmetry_group_IT_number 65
_symmetry_cell_setting 'orthorhombic'
loop_
_space_group_symop_operation_xyz
x,y,z
-x,-y,z
x,-y,-z
-x,y,-z
-x,-y,-z
x,y,-z
-x,y,z
x,-y,z
1/2+x,1/2+y,z
1/2-x,1/2-y,z
1/2+x,1/2-y,-z
1/2-x,1/2+y,-z
1/2-x,1/2-y,-z
1/2+x,1/2+y,-z
1/2-x,1/2+y,z
1/2+x,1/2-y,z
loop_
_atom_site_type_symbol
_atom_site_label
_atom_site_fract_x
_atom_site_fract_y
_atom_site_fract_z
Si Si1 0.844830 0.265474 0.616170
Si Si2 0.064783 0.500000 0.117349
Si Si3 0.141776 0.392492 0.883757
Si Si4 0.601718 0.062587 0.616684
Si Si5 0.566838 0.831132 0.262658
Si Si6 0.275848 0.064096 0.728334
Si Si7 0.230623 0.159976 0.383813
O O1 0.855754 0.267578 0.500000
O O2 0.900968 0.283891 0.675442
O O3 0.818530 0.205268 0.639851
O O4 0.792588 0.309436 0.635755
O O5 0.101509 0.554096 0.140241
O O6 0.000000 0.500000 0.158401
O O7 0.059637 0.500000 0.000000
O O8 0.106787 0.343128 0.832090
O O9 0.201046 0.406803 0.827334
O O10 0.147758 0.386889 0.000000
O O11 0.600132 0.070558 0.500000
O O12 0.570288 0.112910 0.671059
O O13 0.668082 0.064220 0.655623
O O14 0.579691 0.000000 0.637832
O O15 0.500000 0.820046 0.238729
O O16 0.229364 0.103746 0.677186
O O17 0.259663 0.000000 0.744141
O O18 0.228428 0.149265 0.500000
#
# Coordination Sequence:
#
# PCOD9482772 Si02
#       7
#    16   8  16  16  16  16  16
#     4   9  17  29  44  61  80 106 137 168 207 250
#     4   9  16  26  38  48  65 101 145 181 207 232
#     4  10  19  30  40  55  79 109 146 182 212 239
#     4   9  17  27  36  51  79 107 130 160 199 240
#     4  11  21  29  41  58  78 106 143 180 210 242
#     4  10  17  26  43  63  81 103 134 172 211 247
#     4   9  16  28  46  62  80 106 134 166 205 254
#
# _framework density 13.68164
#
# number of rings (size 3 to 8) (size 9 to 14) (size 15 to 20)
#    0.000    2.385    3.846    2.308    1.077    3.385 
#    0.000    0.769    0.000    1.846    0.000    0.000 
#    0.000    0.615    0.000    3.385    0.000    0.000 
#
# Total GULP energy -289776.013841 kJ/mol
# GULP energy per Si atom -5572.615651 kJ/mol
# Density = 1.365050 g / cm^3
# Si number density = 13.681640 Si / 1000 Ang^3
#
#
#
# Elastic Constant Matrix: (Units=GPa)
#
#
# Indices 1 2 3 4 5 6 
#
# 1 26.0230 33.5698 19.9718 0.0000 0.0000 0.0000
# 2 33.5698 65.2674 36.0271 0.0000 0.0000 0.0000
# 3 19.9718 36.0271 75.1546 0.0000 0.0000 0.0000
# 4 0.0000 0.0000 0.0000 14.6014 0.0000 0.0000
# 5 0.0000 0.0000 0.0000 0.0000 9.7020 0.0000
# 6 0.0000 0.0000 0.0000 0.0000 0.0000 11.5214
#
#
#
# Elastic Compliance Matrix: (Units=1/GPa)
#
#
# Indices 1 2 3 4 5 6 
#
# 1 0.114691 -0.057339 -0.002992 0.000000 0.000000 0.000000
# 2 -0.057339 0.049501 -0.008492 0.000000 0.000000 0.000000
# 3 -0.002992 -0.008492 0.018172 0.000000 0.000000 0.000000
# 4 0.000000 0.000000 0.000000 0.068486 0.000000 0.000000
# 5 0.000000 0.000000 0.000000 0.000000 0.103071 0.000000
# 6 0.000000 0.000000 0.000000 0.000000 0.000000 0.086795
#
#
# Mechanical properties :
#
#
# Convention : Reuss Voigt Hill
#
# Bulk Modulus (GPa) = 22.36211 38.39805 30.38008
# Shear Modulus (GPa) = 8.42790 12.29006 10.35898
#
# Velocity S-wave (km/s) = 2.48463 3.00040 2.75461
# Velocity P-wave (km/s) = 4.96097 6.33478 5.68950
#
# Compressibility (1/GPa) = 0.04471850
#
# Stress axis : x y z
#
# Youngs Moduli (GPa) = 8.71909 20.20164 55.03059
#
# Poissons Ratio (x) = 1.15834 0.16463
# Poissons Ratio (y) = 0.49994 0.46732
# Poissons Ratio (z) = 0.02608 0.17155
#
# Static dielectric constant tensor:
#      x y z
#    x 1.437180 0.000000 0.000000 
#    y 0.000000 1.471000 0.000000 
#    z 0.000000 0.000000 1.465970 
# 
# From -- ./inp_files/44733.got.cif
#   From: 2010.05.17/outbox.cif.g08.bks.cpg/sg65_23_cif.got.tgz:44733.got - 2010.06.03 17:01:31.
