data_PCOD9482090
_publ_section_title
;
Structure prediction by ZEFSAII (Michael W. Deem and Ramdas Pophale) SiO2 
 PCOD9482090
Probable space group: C M C A
;
_chemical_formula_sum "Si O2"
_cell_formula_units_Z 56
_cell_length_a 7.449895
_cell_length_b 19.439772
_cell_length_c 14.737510
_cell_angle_alpha 90.000000
_cell_angle_beta 90.000000
_cell_angle_gamma 90.000000
_cell_volume 2134.348983
_symmetry_space_group_name_H-M "C M C A"
_symmetry_group_IT_number 64
_symmetry_cell_setting 'orthorhombic'
loop_
_space_group_symop_operation_xyz
x,y,z
-x,1/2-y,1/2+z
x,-y,-z
-x,1/2+y,1/2-z
-x,-y,-z
x,1/2+y,1/2-z
-x,y,z
x,1/2-y,1/2+z
1/2+x,1/2+y,z
1/2-x,-y,1/2+z
1/2+x,1/2-y,-z
1/2-x,y,1/2-z
1/2-x,1/2-y,-z
1/2+x,y,1/2-z
1/2-x,1/2+y,z
1/2+x,-y,1/2+z
loop_
_atom_site_type_symbol
_atom_site_label
_atom_site_fract_x
_atom_site_fract_y
_atom_site_fract_z
Si Si1 0.500000 0.773127 0.173573
Si Si2 0.788160 0.339091 0.887484
Si Si3 0.201018 0.140294 0.907147
Si Si4 0.211643 0.995985 0.645581
O O1 0.658035 0.713929 0.160974
O O2 0.344780 0.832962 0.163293
O O3 0.729894 0.417484 0.868174
O O4 0.000000 0.330566 0.864801
O O5 0.763488 0.330528 0.995700
O O6 0.000000 0.164585 0.886141
O O7 0.204409 0.057669 0.911510
O O8 0.250000 0.012916 0.750000
O O9 0.000000 0.996801 0.626112
#
# Coordination Sequence:
#
# PCOD9482090 Si02
#       4
#     8  16  16  16
#     4  12  24  42  66 104 138 176 206 290 324 408
#     4  11  24  41  70 101 135 171 223 274 335 393
#     4  12  24  40  71 101 135 173 223 271 333 393
#     4  11  25  46  70  97 132 177 228 275 325 395
#
# _framework density 26.237508999999999
#
# number of rings (size 3 to 8) (size 9 to 14) (size 15 to 20)
#    0.000    0.571    4.286    3.429    4.000    3.429 
#    0.000    1.429    0.000    0.000    0.000    0.000 
#    0.000    0.000    0.000    0.000    0.000    0.000 
#
# Total GULP energy -156161.763716 kJ/mol
# GULP energy per Si atom -5577.205847 kJ/mol
# Density = 2.617779 g / cm^3
# Si number density = 26.237509 Si / 1000 Ang^3
#
#
#
# Elastic Constant Matrix: (Units=GPa)
#
#
# Indices 1 2 3 4 5 6 
#
# 1 225.5071 53.1352 19.0991 0.0000 0.0000 0.0000
# 2 53.1352 211.5697 -7.5443 0.0000 0.0000 0.0000
# 3 19.0991 -7.5443 79.1447 0.0000 0.0000 0.0000
# 4 0.0000 0.0000 0.0000 -45.2263 0.0000 0.0000
# 5 0.0000 0.0000 0.0000 0.0000 23.0169 0.0000
# 6 0.0000 0.0000 0.0000 0.0000 0.0000 59.9400
#
#
#
# Elastic Compliance Matrix: (Units=1/GPa)
#
#
# Indices 1 2 3 4 5 6 
#
# 1 0.004841 -0.001262 -0.001288 0.000000 0.000000 0.000000
# 2 -0.001262 0.005072 0.000788 0.000000 0.000000 0.000000
# 3 -0.001288 0.000788 0.013021 0.000000 0.000000 0.000000
# 4 0.000000 0.000000 0.000000 -0.022111 0.000000 0.000000
# 5 0.000000 0.000000 0.000000 0.000000 0.043446 0.000000
# 6 0.000000 0.000000 0.000000 0.000000 0.000000 0.016683
#
#
# Mechanical properties :
#
#
# Convention : Reuss Voigt Hill
#
# Bulk Modulus (GPa) = 51.52248 71.73350 61.62799
# Shear Modulus (GPa) = 70.47572 37.64821 54.06197
#
# Velocity S-wave (km/s) = 5.18835 3.79212 4.54418
# Velocity P-wave (km/s) = 7.45463 6.82444 7.14649
#
# Compressibility (1/GPa) = 0.01940900
#
# Stress axis : x y z
#
# Youngs Moduli (GPa) = 206.57457 197.17843 76.79829
#
# Poissons Ratio (x) = 0.24878 0.09895
# Poissons Ratio (y) = 0.26064 -0.06051
# Poissons Ratio (z) = 0.26616 -0.15536
#
# Static dielectric constant tensor:
#      x y z
#    x 1.976870 0.000000 0.000000 
#    y 0.000000 1.999160 0.000000 
#    z 0.000000 0.000000 2.168960 
# 
# From -- ./inp_files/36245.got.cif
#   From: 2010.05.17/outbox.cif.g08.bks.cpg/sg64_19_cif.got.tgz:36245.got - 2010.06.03 16:29:19.
