data_PCOD9482282
_publ_section_title
;
Structure prediction by ZEFSAII (Michael W. Deem and Ramdas Pophale) SiO2 
 PCOD9482282
Probable space group: C M C A
;
_chemical_formula_sum "Si O2"
_cell_formula_units_Z 56
_cell_length_a 14.884406
_cell_length_b 17.850879
_cell_length_c 9.000152
_cell_angle_alpha 90.000000
_cell_angle_beta 90.000000
_cell_angle_gamma 90.000000
_cell_volume 2391.337961
_symmetry_space_group_name_H-M "C M C A"
_symmetry_group_IT_number 64
_symmetry_cell_setting 'orthorhombic'
loop_
_space_group_symop_operation_xyz
x,y,z
-x,1/2-y,1/2+z
x,-y,-z
-x,1/2+y,1/2-z
-x,-y,-z
x,1/2+y,1/2-z
-x,y,z
x,1/2-y,1/2+z
1/2+x,1/2+y,z
1/2-x,-y,1/2+z
1/2+x,1/2-y,-z
1/2-x,y,1/2-z
1/2-x,1/2-y,-z
1/2+x,y,1/2-z
1/2-x,1/2+y,z
1/2+x,-y,1/2+z
loop_
_atom_site_type_symbol
_atom_site_label
_atom_site_fract_x
_atom_site_fract_y
_atom_site_fract_z
Si Si1 0.358098 0.586691 0.958648
Si Si2 0.396049 0.201509 0.284075
Si Si3 0.000000 0.592842 0.813019
Si Si4 0.163084 0.346599 0.033600
O O1 0.421845 0.594922 0.817497
O O2 0.258366 0.617667 0.931375
O O3 0.354074 0.500000 0.000000
O O4 0.394514 0.634225 0.098201
O O5 0.500000 0.219772 0.243556
O O6 0.356953 0.273753 0.366595
O O7 0.342135 0.180341 0.137131
O O8 0.079670 0.598442 0.939552
#
# Coordination Sequence:
#
# PCOD9482282 Si02
#       4
#    16  16   8  16
#     4  12  29  53  76 112 159 207 255 319 393 464
#     4  12  24  49  81 111 154 199 263 322 389 452
#     4  12  25  48  77 108 151 200 248 314 379 460
#     4  12  27  49  78 115 152 201 261 323 382 461
#
# _framework density 23.417853999999998
#
# number of rings (size 3 to 8) (size 9 to 14) (size 15 to 20)
#    0.000    0.000    4.286    4.714    0.000    6.857 
#    0.000    2.143    0.000    0.000    0.000    0.000 
#    0.000    0.000    0.000    0.000    0.000    0.000 
#
# Total GULP energy -156124.691112 kJ/mol
# GULP energy per Si atom -5575.881825 kJ/mol
# Density = 2.336455 g / cm^3
# Si number density = 23.417854 Si / 1000 Ang^3
#
#
#
# Elastic Constant Matrix: (Units=GPa)
#
#
# Indices 1 2 3 4 5 6 
#
# 1 190.4199 18.3310 -13.6719 0.0000 0.0000 0.0000
# 2 18.3310 106.5557 -8.2494 0.0000 0.0000 0.0000
# 3 -13.6719 -8.2494 31.9828 0.0000 0.0000 0.0000
# 4 0.0000 0.0000 0.0000 639.4314 0.0000 0.0000
# 5 0.0000 0.0000 0.0000 0.0000 -338.3292 0.0000
# 6 0.0000 0.0000 0.0000 0.0000 0.0000 0.0707
#
#
#
# Elastic Compliance Matrix: (Units=1/GPa)
#
#
# Indices 1 2 3 4 5 6 
#
# 1 0.005480 -0.000777 0.002142 0.000000 0.000000 0.000000
# 2 -0.000777 0.009686 0.002166 0.000000 0.000000 0.000000
# 3 0.002142 0.002166 0.032741 0.000000 0.000000 0.000000
# 4 0.000000 0.000000 0.000000 0.001564 0.000000 0.000000
# 5 0.000000 0.000000 0.000000 0.000000 -0.002956 0.000000
# 6 0.000000 0.000000 0.000000 0.000000 0.000000 14.153852
#
#
# Mechanical properties :
#
#
# Convention : Reuss Voigt Hill
#
# Bulk Modulus (GPa) = 18.19148 35.75310 26.97229
# Shear Modulus (GPa) = 0.35182 82.40448 41.37815
#
# Velocity S-wave (km/s) = 0.38803 5.93845 4.20807
# Velocity P-wave (km/s) = 2.82592 7.89435 5.92902
#
# Compressibility (1/GPa) = 0.05497079
#
# Stress axis : x y z
#
# Youngs Moduli (GPa) = 182.47673 103.24049 30.54243
#
# Poissons Ratio (x) = 0.08021 -0.06543
# Poissons Ratio (y) = 0.14177 -0.06616
# Poissons Ratio (z) = -0.39091 -0.22365
#
# Static dielectric constant tensor:
#      x y z
#    x 1.868530 0.000000 0.000000 
#    y 0.000000 1.930430 0.000000 
#    z 0.000000 0.000000 1.924490 
# 
# From -- ./inp_files/5360.got.cif
#   From: 2010.05.17/outbox.cif.g08.bks.cpg/sg64_3_cif.got.tgz:5360.got - 2010.06.03 16:29:19.
