data_PCOD9482298
_publ_section_title
;
Structure prediction by ZEFSAII (Michael W. Deem and Ramdas Pophale) SiO2 
 PCOD9482298
Probable space group: C M C A
;
_chemical_formula_sum "Si O2"
_cell_formula_units_Z 64
_cell_length_a 22.044453
_cell_length_b 13.958563
_cell_length_c 10.041403
_cell_angle_alpha 90.000000
_cell_angle_beta 90.000000
_cell_angle_gamma 90.000000
_cell_volume 3089.828931
_symmetry_space_group_name_H-M "C M C A"
_symmetry_group_IT_number 64
_symmetry_cell_setting 'orthorhombic'
loop_
_space_group_symop_operation_xyz
x,y,z
-x,1/2-y,1/2+z
x,-y,-z
-x,1/2+y,1/2-z
-x,-y,-z
x,1/2+y,1/2-z
-x,y,z
x,1/2-y,1/2+z
1/2+x,1/2+y,z
1/2-x,-y,1/2+z
1/2+x,1/2-y,-z
1/2-x,y,1/2-z
1/2-x,1/2-y,-z
1/2+x,y,1/2-z
1/2-x,1/2+y,z
1/2+x,-y,1/2+z
loop_
_atom_site_type_symbol
_atom_site_label
_atom_site_fract_x
_atom_site_fract_y
_atom_site_fract_z
Si Si1 0.000000 0.354000 0.567331
Si Si2 0.883234 0.941762 0.366892
Si Si3 0.000000 0.834645 0.249662
Si Si4 0.132712 0.068406 0.120228
Si Si5 0.206460 0.734993 0.876873
O O1 0.000000 0.323243 0.410977
O O2 0.938894 0.412845 0.596160
O O3 0.000000 0.264678 0.668980
O O4 0.835403 0.857902 0.394862
O O5 0.941183 0.892831 0.297496
O O6 0.899307 0.000000 0.500000
O O7 0.857000 0.014536 0.258327
O O8 0.164326 0.171132 0.128407
O O9 0.154706 0.000000 0.000000
O O10 0.250000 0.725246 0.750000
O O11 0.250000 0.750000 0.000000
#
# Coordination Sequence:
#
# PCOD9482298 Si02
#       5
#     8  16   8  16  16
#     4  12  26  45  78 108 147 188 228 303 374 433
#     4  12  27  46  74 108 144 191 241 296 366 428
#     4  12  26  46  76 110 147 183 238 296 374 435
#     4  12  25  47  76 102 146 190 238 298 367 430
#     4  12  28  47  71 104 144 190 249 299 348 422
#
# _framework density 20.71312
#
# number of rings (size 3 to 8) (size 9 to 14) (size 15 to 20)
#    0.000    0.000    5.000    4.500    3.500    6.000 
#    0.000    0.000    0.000    0.000    0.000    0.000 
#    0.000    0.000    0.000    0.000    0.000    0.000 
#
# Total GULP energy -179230.576732 kJ/mol
# GULP energy per Si atom -5600.955523 kJ/mol
# Density = 2.066598 g / cm^3
# Si number density = 20.713120 Si / 1000 Ang^3
#
#
#
# Elastic Constant Matrix: (Units=GPa)
#
#
# Indices 1 2 3 4 5 6 
#
# 1 85.2323 24.9835 -8.5936 0.0000 0.0000 0.0000
# 2 24.9835 130.0139 27.9530 0.0000 0.0000 0.0000
# 3 -8.5936 27.9530 110.5445 0.0000 0.0000 0.0000
# 4 0.0000 0.0000 0.0000 39.4467 0.0000 0.0000
# 5 0.0000 0.0000 0.0000 0.0000 15.5785 0.0000
# 6 0.0000 0.0000 0.0000 0.0000 0.0000 -46.2169
#
#
#
# Elastic Compliance Matrix: (Units=1/GPa)
#
#
# Indices 1 2 3 4 5 6 
#
# 1 0.012728 -0.002811 0.001700 0.000000 0.000000 0.000000
# 2 -0.002811 0.008755 -0.002432 0.000000 0.000000 0.000000
# 3 0.001700 -0.002432 0.009793 0.000000 0.000000 0.000000
# 4 0.000000 0.000000 0.000000 0.025351 0.000000 0.000000
# 5 0.000000 0.000000 0.000000 0.000000 0.064191 0.000000
# 6 0.000000 0.000000 0.000000 0.000000 0.000000 -0.021637
#
#
# Mechanical properties :
#
#
# Convention : Reuss Voigt Hill
#
# Bulk Modulus (GPa) = 41.34027 46.05296 43.69662
# Shear Modulus (GPa) = 43.73271 20.52484 32.12878
#
# Velocity S-wave (km/s) = 4.59993 3.15129 3.94271
# Velocity P-wave (km/s) = 6.94365 5.96010 6.47059
#
# Compressibility (1/GPa) = 0.02418949
#
# Stress axis : x y z
#
# Youngs Moduli (GPa) = 78.56588 114.22461 102.10987
#
# Poissons Ratio (x) = 0.32113 -0.17363
# Poissons Ratio (y) = 0.22088 0.24836
# Poissons Ratio (z) = -0.13359 0.27783
#
# Static dielectric constant tensor:
#      x y z
#    x 1.688620 0.000000 0.000000 
#    y 0.000000 1.825570 0.000000 
#    z 0.000000 0.000000 1.706680 
# 
# From -- ./inp_files/9003.got.cif
#   From: 2010.05.17/outbox.cif.g08.bks.cpg/sg64_5_cif.got.tgz:9003.got - 2010.06.03 16:29:19.
