data_PCOD9482240
_publ_section_title
;
Structure prediction by ZEFSAII (Michael W. Deem and Ramdas Pophale) SiO2 
 PCOD9482240
Probable space group: C M C A
;
_chemical_formula_sum "Si O2"
_cell_formula_units_Z 80
_cell_length_a 15.695240
_cell_length_b 10.401670
_cell_length_c 22.489278
_cell_angle_alpha 90.000000
_cell_angle_beta 90.000000
_cell_angle_gamma 90.000000
_cell_volume 3671.525470
_symmetry_space_group_name_H-M "C M C A"
_symmetry_group_IT_number 64
_symmetry_cell_setting 'orthorhombic'
loop_
_space_group_symop_operation_xyz
x,y,z
-x,1/2-y,1/2+z
x,-y,-z
-x,1/2+y,1/2-z
-x,-y,-z
x,1/2+y,1/2-z
-x,y,z
x,1/2-y,1/2+z
1/2+x,1/2+y,z
1/2-x,-y,1/2+z
1/2+x,1/2-y,-z
1/2-x,y,1/2-z
1/2-x,1/2-y,-z
1/2+x,y,1/2-z
1/2-x,1/2+y,z
1/2+x,-y,1/2+z
loop_
_atom_site_type_symbol
_atom_site_label
_atom_site_fract_x
_atom_site_fract_y
_atom_site_fract_z
Si Si1 0.095593 0.134739 0.190270
Si Si2 0.672388 0.368216 0.022185
Si Si3 0.402643 0.782328 0.875170
Si Si4 0.757370 0.074330 0.097037
Si Si5 0.851566 0.118741 0.760578
O O1 0.168163 0.103347 0.142829
O O2 0.110167 0.276723 0.215699
O O3 0.000000 0.121474 0.166681
O O4 0.109994 0.024271 0.240109
O O5 0.610331 0.277991 0.058832
O O6 0.736642 0.431668 0.070593
O O7 0.624189 0.500000 0.000000
O O8 0.722830 0.337666 0.961252
O O9 0.500000 0.819034 0.865354
O O10 0.332735 0.894305 0.874556
O O11 0.375214 0.678904 0.825198
O O12 0.750000 0.112841 0.750000
#
# Coordination Sequence:
#
# PCOD9482240 Si02
#       5
#    16  16  16  16  16
#     4  12  24  43  67  97 131 170 223 272 326 392
#     4   8  20  38  66  88 127 162 216 258 330 384
#     4  12  22  39  65  95 127 168 220 268 321 388
#     4   9  21  40  62  94 125 169 208 267 323 386
#     4  12  25  42  66  94 133 173 214 269 327 390
#
# _framework density 21.789308999999999
#
# number of rings (size 3 to 8) (size 9 to 14) (size 15 to 20)
#    1.200    0.000    4.000    3.000    0.000    1.200 
#    0.000    2.000    0.000    0.000    0.000    0.000 
#    0.000    0.000    0.000    0.000    0.000    0.000 
#
# Total GULP energy -223111.403204 kJ/mol
# GULP energy per Si atom -5577.785080 kJ/mol
# Density = 2.173972 g / cm^3
# Si number density = 21.789309 Si / 1000 Ang^3
#
#
#
# Elastic Constant Matrix: (Units=GPa)
#
#
# Indices 1 2 3 4 5 6 
#
# 1 188.1227 21.1044 34.2682 0.0000 0.0000 0.0000
# 2 21.1044 17.8752 -18.2082 0.0000 0.0000 0.0000
# 3 34.2682 -18.2082 70.8735 0.0000 0.0000 0.0000
# 4 0.0000 0.0000 0.0000 29.7040 0.0000 0.0000
# 5 0.0000 0.0000 0.0000 0.0000 24.9652 0.0000
# 6 0.0000 0.0000 0.0000 0.0000 0.0000 12.4225
#
#
#
# Elastic Compliance Matrix: (Units=1/GPa)
#
#
# Indices 1 2 3 4 5 6 
#
# 1 0.009636 -0.021838 -0.010270 0.000000 0.000000 0.000000
# 2 -0.021838 0.125263 0.042741 0.000000 0.000000 0.000000
# 3 -0.010270 0.042741 0.030056 0.000000 0.000000 0.000000
# 4 0.000000 0.000000 0.000000 0.033665 0.000000 0.000000
# 5 0.000000 0.000000 0.000000 0.000000 0.040056 0.000000
# 6 0.000000 0.000000 0.000000 0.000000 0.000000 0.080499
#
#
# Mechanical properties :
#
#
# Convention : Reuss Voigt Hill
#
# Bulk Modulus (GPa) = 5.36997 39.02225 22.19611
# Shear Modulus (GPa) = 13.88951 29.39880 21.64415
#
# Velocity S-wave (km/s) = 2.52751 3.67717 3.15515
# Velocity P-wave (km/s) = 3.31475 5.99805 4.84583
#
# Compressibility (1/GPa) = 0.18622080
#
# Stress axis : x y z
#
# Youngs Moduli (GPa) = 103.77428 7.98318 33.27151
#
# Poissons Ratio (x) = 0.17434 0.34169
# Poissons Ratio (y) = 2.26624 -1.42204
# Poissons Ratio (z) = 1.06573 -0.34121
#
# Static dielectric constant tensor:
#      x y z
#    x 1.768680 0.000000 0.000000 
#    y 0.000000 1.924320 0.000000 
#    z 0.000000 0.000000 1.829680 
# 
# From -- ./inp_files/32054.got.cif
#   From: 2010.05.17/outbox.cif.g08.bks.cpg/sg64_17_cif.got.tgz:32054.got - 2010.06.03 16:29:19.
