data_PCOD9482017
_publ_section_title
;
Structure prediction by ZEFSAII (Michael W. Deem and Ramdas Pophale) SiO2 
 PCOD9482017
Probable space group: C M C A
;
_chemical_formula_sum "Si O2"
_cell_formula_units_Z 52
_cell_length_a 13.383709
_cell_length_b 6.767841
_cell_length_c 22.810202
_cell_angle_alpha 90.000000
_cell_angle_beta 90.000000
_cell_angle_gamma 90.000000
_cell_volume 2066.121056
_symmetry_space_group_name_H-M "C M C A"
_symmetry_group_IT_number 64
_symmetry_cell_setting 'orthorhombic'
loop_
_space_group_symop_operation_xyz
x,y,z
-x,1/2-y,1/2+z
x,-y,-z
-x,1/2+y,1/2-z
-x,-y,-z
x,1/2+y,1/2-z
-x,y,z
x,1/2-y,1/2+z
1/2+x,1/2+y,z
1/2-x,-y,1/2+z
1/2+x,1/2-y,-z
1/2-x,y,1/2-z
1/2-x,1/2-y,-z
1/2+x,y,1/2-z
1/2-x,1/2+y,z
1/2+x,-y,1/2+z
loop_
_atom_site_type_symbol
_atom_site_label
_atom_site_fract_x
_atom_site_fract_y
_atom_site_fract_z
Si Si1 0.000000 0.500000 0.000000
Si Si2 0.890702 0.061313 0.700089
Si Si3 0.389115 0.868202 0.449549
Si Si4 0.670312 0.488380 0.827759
O O1 0.914168 0.350128 0.971856
O O2 0.881270 0.274354 0.669473
O O3 0.000000 0.977002 0.685688
O O4 0.787590 0.954950 0.684529
O O5 0.879939 0.087377 0.770458
O O6 0.500000 0.963980 0.440132
O O7 0.339298 0.000000 0.500000
O O8 0.338613 0.892431 0.387408
#
# Coordination Sequence:
#
# PCOD9482017 Si02
#       4
#     4  16  16  16
#     4   8  18  40  72 110 138 188 246 308 378 428
#     4  11  23  42  68 105 144 194 239 306 367 443
#     4   9  19  41  69 110 145 186 250 310 366 439
#     4  11  23  44  69 105 146 191 249 296 377 451
#
# _framework density 25.167936000000001
#
# number of rings (size 3 to 8) (size 9 to 14) (size 15 to 20)
#    0.923    0.923    0.000    6.462    0.000    0.000 
#   11.077    4.615    0.000    0.923    0.000    0.000 
#    0.000    0.000    0.000    0.000    0.000    0.000 
#
# Total GULP energy -144839.925138 kJ/mol
# GULP energy per Si atom -5570.766351 kJ/mol
# Density = 2.511065 g / cm^3
# Si number density = 25.167936 Si / 1000 Ang^3
#
#
#
# Elastic Constant Matrix: (Units=GPa)
#
#
# Indices 1 2 3 4 5 6 
#
# 1 174.9510 10.8315 27.1605 0.0000 0.0000 0.0000
# 2 10.8315 36.4282 25.5801 0.0000 0.0000 0.0000
# 3 27.1605 25.5801 131.7920 0.0000 0.0000 0.0000
# 4 0.0000 0.0000 0.0000 45.0872 0.0000 0.0000
# 5 0.0000 0.0000 0.0000 0.0000 28.8176 0.0000
# 6 0.0000 0.0000 0.0000 0.0000 0.0000 25.0859
#
#
#
# Elastic Compliance Matrix: (Units=1/GPa)
#
#
# Indices 1 2 3 4 5 6 
#
# 1 0.005939 -0.001050 -0.001020 0.000000 0.000000 0.000000
# 2 -0.001050 0.031969 -0.005989 0.000000 0.000000 0.000000
# 3 -0.001020 -0.005989 0.008960 0.000000 0.000000 0.000000
# 4 0.000000 0.000000 0.000000 0.022179 0.000000 0.000000
# 5 0.000000 0.000000 0.000000 0.000000 0.034701 0.000000
# 6 0.000000 0.000000 0.000000 0.000000 0.000000 0.039863
#
#
# Mechanical properties :
#
#
# Convention : Reuss Voigt Hill
#
# Bulk Modulus (GPa) = 32.51897 52.25727 42.38812
# Shear Modulus (GPa) = 29.41543 38.43807 33.92675
#
# Velocity S-wave (km/s) = 3.42243 3.91226 3.67552
# Velocity P-wave (km/s) = 5.34474 6.41999 5.90688
#
# Compressibility (1/GPa) = 0.03075128
#
# Stress axis : x y z
#
# Youngs Moduli (GPa) = 168.37109 31.28074 111.60294
#
# Poissons Ratio (x) = 0.03283 0.11387
# Poissons Ratio (y) = 0.17671 0.66835
# Poissons Ratio (z) = 0.17179 0.18733
#
# Static dielectric constant tensor:
#      x y z
#    x 1.972160 0.000000 0.000000 
#    y 0.000000 1.908420 0.000000 
#    z 0.000000 0.000000 1.800010 
# 
# From -- ./inp_files/44741.got.cif
#   From: 2010.05.17/outbox.cif.g08.bks.cpg/sg64_23_cif.got.tgz:44741.got - 2010.06.03 16:29:19.
