data_PCOD9482648
_publ_section_title
;
Structure prediction by ZEFSAII (Michael W. Deem and Ramdas Pophale) SiO2 
 PCOD9482648
Probable space group: C M M M
;
_chemical_formula_sum "Si O2"
_cell_formula_units_Z 80
_cell_length_a 34.373762
_cell_length_b 20.113192
_cell_length_c 7.432454
_cell_angle_alpha 90.000000
_cell_angle_beta 90.000000
_cell_angle_gamma 90.000000
_cell_volume 5138.546549
_symmetry_space_group_name_H-M "C M M M"
_symmetry_group_IT_number 65
_symmetry_cell_setting 'orthorhombic'
loop_
_space_group_symop_operation_xyz
x,y,z
-x,-y,z
x,-y,-z
-x,y,-z
-x,-y,-z
x,y,-z
-x,y,z
x,-y,z
1/2+x,1/2+y,z
1/2-x,1/2-y,z
1/2+x,1/2-y,-z
1/2-x,1/2+y,-z
1/2-x,1/2-y,-z
1/2+x,1/2+y,-z
1/2-x,1/2+y,z
1/2+x,1/2-y,z
loop_
_atom_site_type_symbol
_atom_site_label
_atom_site_fract_x
_atom_site_fract_y
_atom_site_fract_z
Si Si1 0.956742 0.077714 0.280992
Si Si2 0.624311 0.627007 0.713892
Si Si3 0.735508 0.000000 0.207089
Si Si4 0.326264 0.500000 0.719148
Si Si5 0.691012 0.277572 0.785286
Si Si6 0.232209 0.645821 0.779495
O O1 0.957599 0.080020 0.500000
O O2 0.919726 0.119925 0.217842
O O3 0.000000 0.097328 0.219304
O O4 0.950415 0.000000 0.233891
O O5 0.621811 0.617970 0.500000
O O6 0.650394 0.565263 0.780165
O O7 0.648813 0.693522 0.744535
O O8 0.782487 0.000000 0.211422
O O9 0.723798 0.928541 0.285693
O O10 0.722168 0.000000 0.000000
O O11 0.324416 0.500000 0.500000
O O12 0.724997 0.328105 0.721536
O O13 0.702416 0.203699 0.723185
O O14 0.694776 0.276076 0.000000
O O15 0.232712 0.643338 0.000000
#
# Coordination Sequence:
#
# PCOD9482648 Si02
#       6
#    16  16   8   8  16  16
#     4   8  13  22  36  52  70  93 120 149 179 207
#     4  10  17  25  37  54  73  93 120 153 181 209
#     4  10  16  26  42  53  63  91 129 155 172 205
#     4  10  18  24  31  52  78  92 112 153 189 206
#     4   9  16  27  38  51  71  94 117 147 182 214
#     4   8  15  25  38  53  69  89 120 153 177 205
#
# _framework density 15.568605
#
# number of rings (size 3 to 8) (size 9 to 14) (size 15 to 20)
#    0.000    3.000    3.000    1.800    0.000    0.000 
#    0.000    3.000    0.000    0.600    0.000    1.400 
#    0.000    0.000    0.000    0.900    0.000   20.200 
#
# Total GULP energy -222874.634408 kJ/mol
# GULP energy per Si atom -5571.865860 kJ/mol
# Density = 1.553317 g / cm^3
# Si number density = 15.568605 Si / 1000 Ang^3
#
#
#
# Elastic Constant Matrix: (Units=GPa)
#
#
# Indices 1 2 3 4 5 6 
#
# 1 110.3695 59.1678 -3.1212 0.0000 0.0000 0.0000
# 2 59.1678 121.1421 1.3222 0.0000 0.0000 0.0000
# 3 -3.1212 1.3222 46.3958 0.0000 0.0000 0.0000
# 4 0.0000 0.0000 0.0000 6.9842 0.0000 0.0000
# 5 0.0000 0.0000 0.0000 0.0000 14.8626 0.0000
# 6 0.0000 0.0000 0.0000 0.0000 0.0000 25.7878
#
#
#
# Elastic Compliance Matrix: (Units=1/GPa)
#
#
# Indices 1 2 3 4 5 6 
#
# 1 0.012321 -0.006028 0.001001 0.000000 0.000000 0.000000
# 2 -0.006028 0.011207 -0.000725 0.000000 0.000000 0.000000
# 3 0.001001 -0.000725 0.021642 0.000000 0.000000 0.000000
# 4 0.000000 0.000000 0.000000 0.143181 0.000000 0.000000
# 5 0.000000 0.000000 0.000000 0.000000 0.067283 0.000000
# 6 0.000000 0.000000 0.000000 0.000000 0.000000 0.038778
#
#
# Mechanical properties :
#
#
# Convention : Reuss Voigt Hill
#
# Bulk Modulus (GPa) = 29.70555 43.62722 36.66639
# Shear Modulus (GPa) = 15.76598 24.22947 19.99773
#
# Velocity S-wave (km/s) = 3.18571 3.94928 3.58787
# Velocity P-wave (km/s) = 5.71433 6.99136 6.38485
#
# Compressibility (1/GPa) = 0.03366374
#
# Stress axis : x y z
#
# Youngs Moduli (GPa) = 81.16508 89.22924 46.20720
#
# Poissons Ratio (x) = 0.53792 -0.04624
# Poissons Ratio (y) = 0.48930 0.03350
# Poissons Ratio (z) = -0.08122 0.06469
#
# Static dielectric constant tensor:
#      x y z
#    x 1.526240 0.000000 0.000000 
#    y 0.000000 1.537620 0.000000 
#    z 0.000000 0.000000 1.594740 
# 
# From -- ./inp_files/18446.got.cif
#   From: 2010.05.17/outbox.cif.g08.bks.cpg/sg65_10_cif.got.tgz:18446.got - 2010.06.03 17:01:31.
