data_PCOD9482899
_publ_section_title
;
Structure prediction by ZEFSAII (Michael W. Deem and Ramdas Pophale) SiO2 
 PCOD9482899
Probable space group: C M M M
;
_chemical_formula_sum "Si O2"
_cell_formula_units_Z 112
_cell_length_a 20.688772
_cell_length_b 20.969583
_cell_length_c 17.455949
_cell_angle_alpha 90.000000
_cell_angle_beta 90.000000
_cell_angle_gamma 90.000000
_cell_volume 7573.000266
_symmetry_space_group_name_H-M "C M M M"
_symmetry_group_IT_number 65
_symmetry_cell_setting 'orthorhombic'
loop_
_space_group_symop_operation_xyz
x,y,z
-x,-y,z
x,-y,-z
-x,y,-z
-x,-y,-z
x,y,-z
-x,y,z
x,-y,z
1/2+x,1/2+y,z
1/2-x,1/2-y,z
1/2+x,1/2-y,-z
1/2-x,1/2+y,-z
1/2-x,1/2-y,-z
1/2+x,1/2+y,-z
1/2-x,1/2+y,z
1/2+x,1/2-y,z
loop_
_atom_site_type_symbol
_atom_site_label
_atom_site_fract_x
_atom_site_fract_y
_atom_site_fract_z
Si Si1 0.245870 0.679905 0.295219
Si Si2 0.210734 0.424840 0.588596
Si Si3 0.288220 0.072151 0.086998
Si Si4 0.380026 0.862236 0.203279
Si Si5 0.926891 0.255529 0.911742
Si Si6 0.069634 0.576390 0.646543
Si Si7 0.701984 0.689236 0.134111
O O1 0.250000 0.750000 0.331797
O O2 0.248503 0.622130 0.354611
O O3 0.177790 0.672795 0.249770
O O4 0.297088 0.678353 0.225815
O O5 0.228438 0.416672 0.500000
O O6 0.218439 0.500000 0.608624
O O7 0.134571 0.408061 0.599808
O O8 0.343555 0.087542 0.148638
O O9 0.234222 0.126556 0.098109
O O10 0.264011 0.000000 0.098546
O O11 0.312992 0.077038 0.000000
O O12 0.415587 0.812697 0.148177
O O13 0.422198 0.894966 0.268615
O O14 0.868603 0.206529 0.896067
O O15 0.000000 0.230400 0.902519
O O16 0.920435 0.277769 0.000000
O O17 0.069278 0.500000 0.651931
O O18 0.000000 0.596665 0.613882
O O19 0.750000 0.750000 0.118686
#
# Coordination Sequence:
#
# PCOD9482899 Si02
#       7
#    16  16  16  16  16  16  16
#     4   9  16  29  47  67  86 116 155 185 228 272
#     4   9  18  30  45  68  96 120 145 185 232 274
#     4  10  19  28  44  68  90 117 157 201 245 285
#     4  10  17  29  44  62  92 120 153 199 236 272
#     4  11  21  30  45  70  95 125 162 201 244 284
#     4   9  17  28  42  59  84 124 164 188 216 265
#     4  10  18  33  50  68  91 124 160 203 236 279
#
# _framework density 14.789383000000001
#
# number of rings (size 3 to 8) (size 9 to 14) (size 15 to 20)
#    0.000    2.286    4.286    1.714    0.000    4.571 
#    0.000    1.429    0.000    0.429    0.000    8.000 
#    0.000    0.571    0.000    1.571    0.000    0.000 
#
# Total GULP energy -311745.100843 kJ/mol
# GULP energy per Si atom -5566.876801 kJ/mol
# Density = 1.475572 g / cm^3
# Si number density = 14.789383 Si / 1000 Ang^3
#
#
#
# Elastic Constant Matrix: (Units=GPa)
#
#
# Indices 1 2 3 4 5 6 
#
# 1 51.9362 19.8740 14.2236 0.0000 0.0000 0.0000
# 2 19.8740 79.8316 33.0830 0.0000 0.0000 0.0000
# 3 14.2236 33.0830 63.8112 0.0000 0.0000 0.0000
# 4 0.0000 0.0000 0.0000 25.2786 0.0000 0.0000
# 5 0.0000 0.0000 0.0000 0.0000 9.3575 0.0000
# 6 0.0000 0.0000 0.0000 0.0000 0.0000 15.1024
#
#
#
# Elastic Compliance Matrix: (Units=1/GPa)
#
#
# Indices 1 2 3 4 5 6 
#
# 1 0.021611 -0.004310 -0.002583 0.000000 0.000000 0.000000
# 2 -0.004310 0.016814 -0.007756 0.000000 0.000000 0.000000
# 3 -0.002583 -0.007756 0.020268 0.000000 0.000000 0.000000
# 4 0.000000 0.000000 0.000000 0.039559 0.000000 0.000000
# 5 0.000000 0.000000 0.000000 0.000000 0.106866 0.000000
# 6 0.000000 0.000000 0.000000 0.000000 0.000000 0.066215
#
#
# Mechanical properties :
#
#
# Convention : Reuss Voigt Hill
#
# Bulk Modulus (GPa) = 34.01931 36.66003 35.33967
# Shear Modulus (GPa) = 16.10676 18.50760 17.30718
#
# Velocity S-wave (km/s) = 3.30369 3.54137 3.42459
# Velocity P-wave (km/s) = 6.13229 6.44698 6.29160
#
# Compressibility (1/GPa) = 0.02939507
#
# Stress axis : x y z
#
# Youngs Moduli (GPa) = 46.27300 59.47568 49.33830
#
# Poissons Ratio (x) = 0.25632 0.12743
# Poissons Ratio (y) = 0.19942 0.38269
# Poissons Ratio (z) = 0.11951 0.46132
#
# Static dielectric constant tensor:
#      x y z
#    x 1.497570 0.000000 0.000000 
#    y 0.000000 1.491840 0.000000 
#    z 0.000000 0.000000 1.502820 
# 
# From -- ./inp_files/56160.got.cif
#   From: 2010.05.17/outbox.cif.g08.bks.cpg/sg65_29_cif.got.tgz:56160.got - 2010.06.03 17:01:31.
