data_PCOD9482145
_publ_section_title
;
Structure prediction by ZEFSAII (Michael W. Deem and Ramdas Pophale) SiO2 
 PCOD9482145
Probable space group: C M C A
;
_chemical_formula_sum "Si O2"
_cell_formula_units_Z 72
_cell_length_a 15.463582
_cell_length_b 17.580715
_cell_length_c 12.924135
_cell_angle_alpha 90.000000
_cell_angle_beta 90.000000
_cell_angle_gamma 90.000000
_cell_volume 3513.566043
_symmetry_space_group_name_H-M "C M C A"
_symmetry_group_IT_number 64
_symmetry_cell_setting 'orthorhombic'
loop_
_space_group_symop_operation_xyz
x,y,z
-x,1/2-y,1/2+z
x,-y,-z
-x,1/2+y,1/2-z
-x,-y,-z
x,1/2+y,1/2-z
-x,y,z
x,1/2-y,1/2+z
1/2+x,1/2+y,z
1/2-x,-y,1/2+z
1/2+x,1/2-y,-z
1/2-x,y,1/2-z
1/2-x,1/2-y,-z
1/2+x,y,1/2-z
1/2-x,1/2+y,z
1/2+x,-y,1/2+z
loop_
_atom_site_type_symbol
_atom_site_label
_atom_site_fract_x
_atom_site_fract_y
_atom_site_fract_z
Si Si1 0.839027 0.048489 0.409435
Si Si2 0.097248 0.170027 0.247703
Si Si3 0.598377 0.837161 0.343132
Si Si4 0.704182 0.173103 0.460112
Si Si5 0.750000 0.937417 0.250000
O O1 0.890474 0.099726 0.326471
O O2 0.775730 0.107945 0.465434
O O3 0.885229 0.000000 0.500000
O O4 0.780509 0.991446 0.342580
O O5 0.104873 0.248924 0.310180
O O6 0.167440 0.173509 0.156302
O O7 0.000000 0.166602 0.203880
O O8 0.500000 0.862478 0.324601
O O9 0.625596 0.843152 0.462407
O O10 0.668851 0.885347 0.280852
O O11 0.750000 0.250000 0.500000
#
# Coordination Sequence:
#
# PCOD9482145 Si02
#       5
#    16  16  16  16   8
#     4  12  25  43  68 102 134 185 235 285 367 430
#     4  11  25  44  67 100 142 183 235 293 352 429
#     4  11  25  43  69 104 137 184 239 285 350 431
#     4  12  22  42  72  98 137 184 235 290 350 433
#     4  12  24  44  68 100 146 182 226 292 362 424
#
# _framework density 20.492000999999998
#
# number of rings (size 3 to 8) (size 9 to 14) (size 15 to 20)
#    0.000    0.444    6.667    2.000    0.000    1.333 
#    0.000    1.111    0.000    0.000    0.000    0.000 
#    0.000    0.000    0.000    0.000    0.000    0.000 
#
# Total GULP energy -201198.525269 kJ/mol
# GULP energy per Si atom -5588.847924 kJ/mol
# Density = 2.044536 g / cm^3
# Si number density = 20.492001 Si / 1000 Ang^3
#
#
#
# Elastic Constant Matrix: (Units=GPa)
#
#
# Indices 1 2 3 4 5 6 
#
# 1 108.5508 52.9854 25.5079 0.0000 0.0000 0.0000
# 2 52.9854 108.3648 47.9920 0.0000 0.0000 0.0000
# 3 25.5079 47.9920 93.4974 0.0000 0.0000 0.0000
# 4 0.0000 0.0000 0.0000 41.2307 0.0000 0.0000
# 5 0.0000 0.0000 0.0000 0.0000 36.8642 0.0000
# 6 0.0000 0.0000 0.0000 0.0000 0.0000 -4.1172
#
#
#
# Elastic Compliance Matrix: (Units=1/GPa)
#
#
# Indices 1 2 3 4 5 6 
#
# 1 0.012109 -0.005769 -0.000342 0.000000 0.000000 0.000000
# 2 -0.005769 0.014692 -0.005967 0.000000 0.000000 0.000000
# 3 -0.000342 -0.005967 0.013852 0.000000 0.000000 0.000000
# 4 0.000000 0.000000 0.000000 0.024254 0.000000 0.000000
# 5 0.000000 0.000000 0.000000 0.000000 0.027127 0.000000
# 6 0.000000 0.000000 0.000000 0.000000 0.000000 -0.242883
#
#
# Mechanical properties :
#
#
# Convention : Reuss Voigt Hill
#
# Bulk Modulus (GPa) = 60.62428 62.59819 61.61124
# Shear Modulus (GPa) = -41.25567 27.05738 -7.09914
#
# Velocity S-wave (km/s) = -4.49180 3.63766 -1.86330
# Velocity P-wave (km/s) = 1.65737 6.94675 5.04996
#
# Compressibility (1/GPa) = 0.01649504
#
# Stress axis : x y z
#
# Youngs Moduli (GPa) = 82.58561 68.06598 72.19248
#
# Poissons Ratio (x) = 0.39267 0.02471
# Poissons Ratio (y) = 0.47644 0.43079
# Poissons Ratio (z) = 0.02827 0.40617
#
# Static dielectric constant tensor:
#      x y z
#    x 1.742810 0.000000 0.000000 
#    y 0.000000 1.715500 0.000000 
#    z 0.000000 0.000000 1.746350 
# 
# From -- ./inp_files/23496.got.cif
#   From: 2010.05.17/outbox.cif.g08.bks.cpg/sg64_12_cif.got.tgz:23496.got - 2010.06.03 16:29:19.
