data_PCOD9482391
_publ_section_title
;
Structure prediction by ZEFSAII (Michael W. Deem and Ramdas Pophale) SiO2 
 PCOD9482391
Probable space group: C M C A
;
_chemical_formula_sum "Si O2"
_cell_formula_units_Z 44
_cell_length_a 24.000000
_cell_length_b 15.000000
_cell_length_c 12.000000
_cell_angle_alpha 90.000000
_cell_angle_beta 90.000000
_cell_angle_gamma 90.000000
_cell_volume 4320.000000
_symmetry_space_group_name_H-M "C M C A"
_symmetry_group_IT_number 64
_symmetry_cell_setting 'orthorhombic'
loop_
_space_group_symop_operation_xyz
x,y,z
-x,1/2-y,1/2+z
x,-y,-z
-x,1/2+y,1/2-z
-x,-y,-z
x,1/2+y,1/2-z
-x,y,z
x,1/2-y,1/2+z
1/2+x,1/2+y,z
1/2-x,-y,1/2+z
1/2+x,1/2-y,-z
1/2-x,y,1/2-z
1/2-x,1/2-y,-z
1/2+x,y,1/2-z
1/2-x,1/2+y,z
1/2+x,-y,1/2+z
loop_
_atom_site_type_symbol
_atom_site_label
_atom_site_fract_x
_atom_site_fract_y
_atom_site_fract_z
Si Si1 0.822213 0.514889 0.371059
Si Si2 0.750000 0.666742 0.250000
Si Si3 0.936965 0.716840 0.090930
Si Si4 0.842206 0.314837 0.308501
Si Si5 0.437550 0.941758 0.736608
Si Si6 0.063035 0.870484 0.355300
O O1 0.812313 0.500000 0.500000
O O2 0.783004 0.595611 0.328140
O O3 0.816117 0.414152 0.320022
O O4 0.885905 0.543836 0.345142
O O5 0.796619 0.735798 0.201136
O O6 0.886867 0.788007 0.094945
O O7 0.931911 0.650409 0.196301
O O8 0.000000 0.755304 0.088102
O O9 0.932161 0.653173 0.984094
O O10 0.885514 0.322816 0.205546
O O11 0.500000 0.944469 0.686685
O O12 0.434087 0.025292 0.822833
O O13 0.000000 0.841014 0.320665
#
# Coordination Sequence:
#
# PCOD9482391 Si02
#       6
#    16   8  16  16  16  16
#     4  11  26  47  67  97 132 167 220 279 335 393
#     4  12  26  50  64  90 126 178 228 272 318 398
#     4  10  19  35  65  98 129 171 215 264 330 399
#     4  11  24  42  67  92 130 171 221 272 330 388
#     4   9  18  38  65  96 133 168 209 269 330 398
#     4   9  19  36  62  96 132 166 211 267 329 393
#
# _framework density 10.185185000000001
#
# number of rings (size 3 to 8) (size 9 to 14) (size 15 to 20)
#    0.000    1.818    1.818    1.636    2.545    4.000 
#    6.545    0.000    0.000    0.000    0.000    0.000 
#    0.000    0.000    0.000    0.000    0.000    0.000 
#
# Total GULP energy -245411.177443 kJ/mol
# GULP energy per Si atom -5577.526760 kJ/mol
# Density = 1.016200 g / cm^3
# Si number density = 10.185185 Si / 1000 Ang^3
#
#
#
# Elastic Constant Matrix: (Units=GPa)
#
#
# Indices 1 2 3 4 5 6 
#
# 1 129.6360 58.9335 34.4438 0.0000 0.0000 0.0000
# 2 58.9335 118.6049 25.8112 0.0000 0.0000 0.0000
# 3 34.4438 25.8112 51.0258 0.0000 0.0000 0.0000
# 4 0.0000 0.0000 0.0000 11.3075 0.0000 0.0000
# 5 0.0000 0.0000 0.0000 0.0000 9.3345 0.0000
# 6 0.0000 0.0000 0.0000 0.0000 0.0000 33.3218
#
#
#
# Elastic Compliance Matrix: (Units=1/GPa)
#
#
# Indices 1 2 3 4 5 6 
#
# 1 0.011104 -0.004367 -0.005286 0.000000 0.000000 0.000000
# 2 -0.004367 0.011192 -0.002714 0.000000 0.000000 0.000000
# 3 -0.005286 -0.002714 0.024539 0.000000 0.000000 0.000000
# 4 0.000000 0.000000 0.000000 0.088437 0.000000 0.000000
# 5 0.000000 0.000000 0.000000 0.000000 0.107129 0.000000
# 6 0.000000 0.000000 0.000000 0.000000 0.000000 0.030010
#
#
# Mechanical properties :
#
#
# Convention : Reuss Voigt Hill
#
# Bulk Modulus (GPa) = 45.24695 59.73818 52.49257
# Shear Modulus (GPa) = 16.41975 22.79798 19.60887
#
# Velocity S-wave (km/s) = 2.84220 3.34903 3.10597
# Velocity P-wave (km/s) = 5.74727 6.65916 6.21995
#
# Compressibility (1/GPa) = 0.02210094
#
# Stress axis : x y z
#
# Youngs Moduli (GPa) = 90.06035 89.35169 40.75146
#
# Poissons Ratio (x) = 0.39019 0.21543
# Poissons Ratio (y) = 0.39328 0.11058
# Poissons Ratio (z) = 0.47609 0.24246
#
# Static dielectric constant tensor:
#      x y z
#    x 1.735070 0.000000 0.000000 
#    y 0.000000 1.728500 0.000000 
#    z 0.000000 0.000000 1.735210 
# 
# From -- ./inp_files/18205.got.cif
#   From: 2010.05.17/outbox.ucp.g08.bks.cvg/sg64_10_cif.got.tgz:18205.got - 2010.06.11 16:36:46.
