data_PCOD9482153
_publ_section_title
;
Structure prediction by ZEFSAII (Michael W. Deem and Ramdas Pophale) SiO2 
 PCOD9482153
Probable space group: C M C A
;
_chemical_formula_sum "Si O2"
_cell_formula_units_Z 68
_cell_length_a 19.527276
_cell_length_b 12.586403
_cell_length_c 13.072145
_cell_angle_alpha 90.000000
_cell_angle_beta 90.000000
_cell_angle_gamma 90.000000
_cell_volume 3212.847814
_symmetry_space_group_name_H-M "C M C A"
_symmetry_group_IT_number 64
_symmetry_cell_setting 'orthorhombic'
loop_
_space_group_symop_operation_xyz
x,y,z
-x,1/2-y,1/2+z
x,-y,-z
-x,1/2+y,1/2-z
-x,-y,-z
x,1/2+y,1/2-z
-x,y,z
x,1/2-y,1/2+z
1/2+x,1/2+y,z
1/2-x,-y,1/2+z
1/2+x,1/2-y,-z
1/2-x,y,1/2-z
1/2-x,1/2-y,-z
1/2+x,y,1/2-z
1/2-x,1/2+y,z
1/2+x,-y,1/2+z
loop_
_atom_site_type_symbol
_atom_site_label
_atom_site_fract_x
_atom_site_fract_y
_atom_site_fract_z
Si Si1 0.825144 0.605782 0.229891
Si Si2 0.000000 0.000000 0.000000
Si Si3 0.576952 0.231877 0.841581
Si Si4 0.826380 0.280657 0.965640
Si Si5 0.112527 0.915307 0.162894
O O1 0.750000 0.653740 0.250000
O O2 0.885434 0.673718 0.281279
O O3 0.831205 0.616570 0.107947
O O4 0.831678 0.494410 0.287817
O O5 0.060135 0.970968 0.085678
O O6 0.500000 0.262523 0.873879
O O7 0.575816 0.135739 0.761498
O O8 0.623688 0.206886 0.938517
O O9 0.852879 0.180933 0.898938
O O10 0.750000 0.250000 0.000000
#
# Coordination Sequence:
#
# PCOD9482153 Si02
#       5
#    16   4  16  16  16
#     4  11  25  44  72 105 143 189 240 301 355 436
#     4  12  24  48  72 110 132 196 238 294 368 436
#     4  11  25  47  70 105 146 186 237 302 363 430
#     4  11  25  46  72 103 143 192 236 299 372 428
#     4  11  27  44  73 104 146 184 248 293 360 439
#
# _framework density 21.165023000000001
#
# number of rings (size 3 to 8) (size 9 to 14) (size 15 to 20)
#    0.000    0.941    3.529    1.412    9.882    1.882 
#    0.000    1.176    0.000    0.000    0.000    0.000 
#    0.000    0.000    0.000    0.000    0.000    0.000 
#
# Total GULP energy -189436.056796 kJ/mol
# GULP energy per Si atom -5571.648729 kJ/mol
# Density = 2.111685 g / cm^3
# Si number density = 21.165023 Si / 1000 Ang^3
#
#
#
# Elastic Constant Matrix: (Units=GPa)
#
#
# Indices 1 2 3 4 5 6 
#
# 1 164.8233 9.6176 70.1108 0.0000 0.0000 0.0000
# 2 9.6176 33.5903 48.5424 0.0000 0.0000 0.0000
# 3 70.1108 48.5424 170.3416 0.0000 0.0000 0.0000
# 4 0.0000 0.0000 0.0000 26.6758 0.0000 0.0000
# 5 0.0000 0.0000 0.0000 0.0000 36.8454 0.0000
# 6 0.0000 0.0000 0.0000 0.0000 0.0000 11.5382
#
#
#
# Elastic Compliance Matrix: (Units=1/GPa)
#
#
# Indices 1 2 3 4 5 6 
#
# 1 0.007661 0.004018 -0.004298 0.000000 0.000000 0.000000
# 2 0.004018 0.052722 -0.016678 0.000000 0.000000 0.000000
# 3 -0.004298 -0.016678 0.012392 0.000000 0.000000 0.000000
# 4 0.000000 0.000000 0.000000 0.037487 0.000000 0.000000
# 5 0.000000 0.000000 0.000000 0.000000 0.027140 0.000000
# 6 0.000000 0.000000 0.000000 0.000000 0.000000 0.086668
#
#
# Mechanical properties :
#
#
# Convention : Reuss Voigt Hill
#
# Bulk Modulus (GPa) = 25.73410 69.47743 47.60576
# Shear Modulus (GPa) = 18.45421 31.04416 24.74918
#
# Velocity S-wave (km/s) = 2.95603 3.83399 3.42328
# Velocity P-wave (km/s) = 4.88221 7.24549 6.17791
#
# Compressibility (1/GPa) = 0.03885895
#
# Stress axis : x y z
#
# Youngs Moduli (GPa) = 130.53185 18.96738 80.69465
#
# Poissons Ratio (x) = -0.07621 0.34684
# Poissons Ratio (y) = -0.52447 1.34583
# Poissons Ratio (z) = 0.56105 0.31634
#
# Static dielectric constant tensor:
#      x y z
#    x 1.767390 0.000000 0.000000 
#    y 0.000000 1.832500 0.000000 
#    z 0.000000 0.000000 1.767420 
# 
# From -- ./inp_files/16927.got.cif
#   From: 2010.05.17/outbox.cif.g08.bks.cpg/sg64_9_cif.got.tgz:16927.got - 2010.06.03 16:29:19.
