data_PCOD9482779
_publ_section_title
;
Structure prediction by ZEFSAII (Michael W. Deem and Ramdas Pophale) SiO2 
 PCOD9482779
Probable space group: C M M M
;
_chemical_formula_sum "Si O2"
_cell_formula_units_Z 104
_cell_length_a 27.817206
_cell_length_b 7.707074
_cell_length_c 25.473456
_cell_angle_alpha 90.000000
_cell_angle_beta 90.000000
_cell_angle_gamma 90.000000
_cell_volume 5461.235512
_symmetry_space_group_name_H-M "C M M M"
_symmetry_group_IT_number 65
_symmetry_cell_setting 'orthorhombic'
loop_
_space_group_symop_operation_xyz
x,y,z
-x,-y,z
x,-y,-z
-x,y,-z
-x,-y,-z
x,y,-z
-x,y,z
x,-y,z
1/2+x,1/2+y,z
1/2-x,1/2-y,z
1/2+x,1/2-y,-z
1/2-x,1/2+y,-z
1/2-x,1/2-y,-z
1/2+x,1/2+y,-z
1/2-x,1/2+y,z
1/2+x,1/2-y,z
loop_
_atom_site_type_symbol
_atom_site_label
_atom_site_fract_x
_atom_site_fract_y
_atom_site_fract_z
Si Si1 0.695586 0.706310 0.227741
Si Si2 0.555788 0.788336 0.058932
Si Si3 0.594349 0.792270 0.624653
Si Si4 0.000000 0.287485 0.439361
Si Si5 0.555085 0.788261 0.266319
Si Si6 0.105160 0.294993 0.837224
Si Si7 0.695484 0.294595 0.347193
O O1 0.689360 0.500000 0.229781
O O2 0.750000 0.750000 0.213550
O O3 0.658803 0.774756 0.184475
O O4 0.688379 0.778326 0.287408
O O5 0.500000 0.742627 0.069835
O O6 0.589844 0.725712 0.106021
O O7 0.557516 0.000000 0.057442
O O8 0.568094 0.728420 0.000000
O O9 0.549858 0.729946 0.588631
O O10 0.584344 0.725025 0.683539
O O11 0.650795 0.756682 0.615778
O O12 0.589543 0.000000 0.624941
O O13 0.000000 0.500000 0.437475
O O14 0.000000 0.235502 0.500000
O O15 0.500000 0.744308 0.274682
O O16 0.573567 0.722039 0.210729
O O17 0.558656 0.000000 0.265532
O O18 0.094706 0.500000 0.839870
O O19 0.693906 0.500000 0.342791
O O20 0.750000 0.250000 0.363921
#
# Coordination Sequence:
#
# PCOD9482779 Si02
#       7
#    16  16  16   8  16  16  16
#     4  10  20  32  46  66  95 126 156 194 241 295
#     4   8  14  25  42  67  96 124 157 196 234 274
#     4  10  17  29  50  74 103 136 168 206 244 287
#     4   9  18  32  53  81 109 141 178 210 243 286
#     4   9  15  23  39  67  97 125 158 193 233 280
#     4  10  17  26  45  69  94 124 158 196 238 286
#     4  10  20  33  50  73 102 134 168 206 254 307
#
# _framework density 19.043310000000002
#
# number of rings (size 3 to 8) (size 9 to 14) (size 15 to 20)
#    0.000    2.538    2.308    1.846    0.000    3.077 
#    0.000    0.385    0.000    5.077    0.000    1.077 
#    0.000    0.000    0.000    0.000    0.000    0.000 
#
# Total GULP energy -289747.822684 kJ/mol
# GULP energy per Si atom -5572.073513 kJ/mol
# Density = 1.899997 g / cm^3
# Si number density = 19.043310 Si / 1000 Ang^3
#
#
#
# Elastic Constant Matrix: (Units=GPa)
#
#
# Indices 1 2 3 4 5 6 
#
# 1 150.0097 -5.9778 70.2472 0.0000 0.0000 0.0000
# 2 -5.9778 32.9334 11.1535 0.0000 0.0000 0.0000
# 3 70.2472 11.1535 82.5198 0.0000 0.0000 0.0000
# 4 0.0000 0.0000 0.0000 0.4024 0.0000 0.0000
# 5 0.0000 0.0000 0.0000 0.0000 16.7736 0.0000
# 6 0.0000 0.0000 0.0000 0.0000 0.0000 13.2468
#
#
#
# Elastic Compliance Matrix: (Units=1/GPa)
#
#
# Indices 1 2 3 4 5 6 
#
# 1 0.012108 0.005961 -0.011113 0.000000 0.000000 0.000000
# 2 0.005961 0.034756 -0.009772 0.000000 0.000000 0.000000
# 3 -0.011113 -0.009772 0.022899 0.000000 0.000000 0.000000
# 4 0.000000 0.000000 0.000000 2.484792 0.000000 0.000000
# 5 0.000000 0.000000 0.000000 0.000000 0.059618 0.000000
# 6 0.000000 0.000000 0.000000 0.000000 0.000000 0.075490
#
#
# Mechanical properties :
#
#
# Convention : Reuss Voigt Hill
#
# Bulk Modulus (GPa) = 25.05320 46.25655 35.65487
# Shear Modulus (GPa) = 1.82962 18.75390 10.29176
#
# Velocity S-wave (km/s) = 0.98125 3.14156 2.32726
# Velocity P-wave (km/s) = 3.80372 6.12390 5.09757
#
# Compressibility (1/GPa) = 0.03991507
#
# Stress axis : x y z
#
# Youngs Moduli (GPa) = 82.59196 28.77211 43.66966
#
# Poissons Ratio (x) = -0.17152 0.48529
# Poissons Ratio (y) = -0.49235 0.42675
# Poissons Ratio (z) = 0.91782 0.28117
#
# Static dielectric constant tensor:
#      x y z
#    x 1.686310 0.000000 0.000000 
#    y 0.000000 1.713180 0.000000 
#    z 0.000000 0.000000 1.669370 
# 
# From -- ./inp_files/68273.got.cif
#   From: 2010.05.17/outbox.cif.g08.bks.cpg/sg65_35_cif.got.tgz:68273.got - 2010.06.03 17:01:31.
