data_PCOD9482776
_publ_section_title
;
Structure prediction by ZEFSAII (Michael W. Deem and Ramdas Pophale) SiO2 
 PCOD9482776
Probable space group: C M M M
;
_chemical_formula_sum "Si O2"
_cell_formula_units_Z 116
_cell_length_a 30.520431
_cell_length_b 25.752500
_cell_length_c 7.346187
_cell_angle_alpha 90.000000
_cell_angle_beta 90.000000
_cell_angle_gamma 90.000000
_cell_volume 5773.936953
_symmetry_space_group_name_H-M "C M M M"
_symmetry_group_IT_number 65
_symmetry_cell_setting 'orthorhombic'
loop_
_space_group_symop_operation_xyz
x,y,z
-x,-y,z
x,-y,-z
-x,y,-z
-x,-y,-z
x,y,-z
-x,y,z
x,-y,z
1/2+x,1/2+y,z
1/2-x,1/2-y,z
1/2+x,1/2-y,-z
1/2-x,1/2+y,-z
1/2-x,1/2-y,-z
1/2+x,1/2+y,-z
1/2-x,1/2+y,z
1/2+x,1/2-y,z
loop_
_atom_site_type_symbol
_atom_site_label
_atom_site_fract_x
_atom_site_fract_y
_atom_site_fract_z
Si Si1 0.049844 0.763167 0.219762
Si Si2 0.799794 0.685927 0.719882
Si Si3 0.158089 0.500000 0.500000
Si Si4 0.951124 0.940301 0.277907
Si Si5 0.049558 0.644145 0.778906
Si Si6 0.885261 0.144232 0.290229
Si Si7 0.199949 0.195702 0.722264
Si Si8 0.862184 0.589577 0.210020
O O1 0.058306 0.703775 0.277724
O O2 0.084898 0.804215 0.287458
O O3 0.000000 0.776778 0.274996
O O4 0.051193 0.764150 0.000000
O O5 0.801471 0.684546 0.500000
O O6 0.810556 0.744971 0.777226
O O7 0.748890 0.679391 0.775214
O O8 0.832017 0.641312 0.786286
O O9 0.156264 0.454271 0.341275
O O10 0.951150 0.938711 0.500000
O O11 0.914207 0.901649 0.209372
O O12 0.000000 0.924144 0.220629
O O13 0.944251 0.000000 0.225696
O O14 0.089129 0.606962 0.724912
O O15 0.000000 0.630066 0.721325
O O16 0.049431 0.644520 0.000000
O O17 0.877219 0.129732 0.500000
O O18 0.838293 0.158389 0.211044
O O19 0.199601 0.196221 0.500000
O O20 0.865285 0.572215 0.000000
#
# Coordination Sequence:
#
# PCOD9482776 Si02
#       8
#    16  16   4  16  16  16  16  16
#     4   9  17  29  45  69 105 144 175 210 270 339
#     4   9  16  33  55  77 112 147 177 214 276 340
#     4  12  26  44  61  86 116 144 188 244 283 318
#     4   8  14  24  38  56  84 124 166 213 261 300
#     4   8  16  33  55  79 110 145 177 215 270 334
#     4  10  17  26  43  69  99 126 174 223 265 313
#     4   8  16  28  50  80 111 144 167 210 278 341
#     4  11  22  39  64  86 110 149 193 233 280 336
#
# _framework density 20.090278000000001
#
# number of rings (size 3 to 8) (size 9 to 14) (size 15 to 20)
#    0.000    2.897    0.690    3.517    0.000    0.828 
#    1.241    3.103    1.517    2.069    0.000    1.931 
#    0.000    0.000    0.000    0.000    0.000    0.000 
#
# Total GULP energy -323201.152132 kJ/mol
# GULP energy per Si atom -5572.433657 kJ/mol
# Density = 2.004455 g / cm^3
# Si number density = 20.090278 Si / 1000 Ang^3
#
#
#
# Elastic Constant Matrix: (Units=GPa)
#
#
# Indices 1 2 3 4 5 6 
#
# 1 101.8633 56.6579 11.5262 0.0000 0.0000 0.0000
# 2 56.6579 69.4419 15.3538 0.0000 0.0000 0.0000
# 3 11.5262 15.3538 92.5308 0.0000 0.0000 0.0000
# 4 0.0000 0.0000 0.0000 70.6336 0.0000 0.0000
# 5 0.0000 0.0000 0.0000 0.0000 2.1873 0.0000
# 6 0.0000 0.0000 0.0000 0.0000 0.0000 20.4458
#
#
#
# Elastic Compliance Matrix: (Units=1/GPa)
#
#
# Indices 1 2 3 4 5 6 
#
# 1 0.017978 -0.014713 0.000202 0.000000 0.000000 0.000000
# 2 -0.014713 0.026990 -0.002646 0.000000 0.000000 0.000000
# 3 0.000202 -0.002646 0.011221 0.000000 0.000000 0.000000
# 4 0.000000 0.000000 0.000000 0.014158 0.000000 0.000000
# 5 0.000000 0.000000 0.000000 0.000000 0.457187 0.000000
# 6 0.000000 0.000000 0.000000 0.000000 0.000000 0.048910
#
#
# Mechanical properties :
#
#
# Convention : Reuss Voigt Hill
#
# Bulk Modulus (GPa) = 45.71359 47.87909 46.79634
# Shear Modulus (GPa) = 8.09000 30.67321 19.38160
#
# Velocity S-wave (km/s) = 2.00887 3.91163 3.10937
# Velocity P-wave (km/s) = 5.30888 6.65468 6.01951
#
# Compressibility (1/GPa) = 0.02187533
#
# Stress axis : x y z
#
# Youngs Moduli (GPa) = 55.62460 37.05123 89.11805
#
# Poissons Ratio (x) = 0.54512 -0.01799
# Poissons Ratio (y) = 0.81839 0.23578
# Poissons Ratio (z) = -0.01123 0.09803
#
# Static dielectric constant tensor:
#      x y z
#    x 1.712020 0.000000 0.000000 
#    y 0.000000 1.668890 0.000000 
#    z 0.000000 0.000000 1.752900 
# 
# From -- ./inp_files/17061.got.cif
#   From: 2010.05.17/outbox.cif.g08.bks.cpg/sg65_9_cif.got.tgz:17061.got - 2010.06.03 17:01:31.
