data_PCOD9482488
_publ_section_title
;
Structure prediction by ZEFSAII (Michael W. Deem and Ramdas Pophale) SiO2 
 PCOD9482488
Probable space group: C M C A
;
_chemical_formula_sum "Si O2"
_cell_formula_units_Z 56
_cell_length_a 15.000000
_cell_length_b 24.000000
_cell_length_c 15.000000
_cell_angle_alpha 90.000000
_cell_angle_beta 90.000000
_cell_angle_gamma 90.000000
_cell_volume 5400.000000
_symmetry_space_group_name_H-M "C M C A"
_symmetry_group_IT_number 64
_symmetry_cell_setting 'orthorhombic'
loop_
_space_group_symop_operation_xyz
x,y,z
-x,1/2-y,1/2+z
x,-y,-z
-x,1/2+y,1/2-z
-x,-y,-z
x,1/2+y,1/2-z
-x,y,z
x,1/2-y,1/2+z
1/2+x,1/2+y,z
1/2-x,-y,1/2+z
1/2+x,1/2-y,-z
1/2-x,y,1/2-z
1/2-x,1/2-y,-z
1/2+x,y,1/2-z
1/2-x,1/2+y,z
1/2+x,-y,1/2+z
loop_
_atom_site_type_symbol
_atom_site_label
_atom_site_fract_x
_atom_site_fract_y
_atom_site_fract_z
Si Si1 0.396059 0.279186 0.655108
Si Si2 0.690702 0.161874 0.661678
Si Si3 0.101694 0.042714 0.869782
Si Si4 0.733202 0.035446 0.072650
Si Si5 0.603730 0.158449 0.339201
Si Si6 0.900898 0.452218 0.767939
Si Si7 0.755372 0.836471 0.527086
O O1 0.500000 0.287858 0.636326
O O2 0.374585 0.214406 0.668289
O O3 0.374256 0.308697 0.749000
O O4 0.335834 0.307921 0.579678
O O5 0.750000 0.154768 0.750000
O O6 0.637119 0.105340 0.638968
O O7 0.751824 0.177016 0.576556
O O8 0.000000 0.040770 0.908903
O O9 0.179368 0.003344 0.911250
O O10 0.094217 0.013272 0.773989
O O11 0.677073 0.046124 0.161351
O O12 0.746242 0.096679 0.034169
O O13 0.678432 0.000000 0.000000
O O14 0.500000 0.165409 0.361294
O O15 0.617008 0.093784 0.309369
O O16 0.665323 0.178465 0.419256
O O17 0.000000 0.437217 0.803648
#
# Coordination Sequence:
#
# PCOD9482488 Si02
#       7
#    16  16  16  16  16  16  16
#     4  11  25  46  71 102 135 172 221 281 340 406
#     4  12  26  47  68  93 136 188 229 273 335 405
#     4  11  24  41  63  96 135 179 222 270 334 406
#     4  12  23  38  62  99 137 176 220 278 338 398
#     4  10  21  39  68 103 130 163 219 285 342 390
#     4  10  21  39  65  94 131 174 220 278 339 394
#     4  12  24  41  70 101 131 177 226 281 337 395
#
# _framework density 10.370369999999999
#
# number of rings (size 3 to 8) (size 9 to 14) (size 15 to 20)
#    0.000    0.857    4.286    3.429    0.000    1.714 
#    0.000    2.857    0.000    0.000    0.000    0.000 
#    0.000    0.000    0.000    0.000    0.000    0.000 
#
# Total GULP energy -312682.643879 kJ/mol
# GULP energy per Si atom -5583.618641 kJ/mol
# Density = 1.034677 g / cm^3
# Si number density = 10.370370 Si / 1000 Ang^3
#
#
#
# Elastic Constant Matrix: (Units=GPa)
#
#
# Indices 1 2 3 4 5 6 
#
# 1 85.3711 15.0847 52.2015 0.0000 0.0000 0.0000
# 2 15.0847 117.5297 7.4737 0.0000 0.0000 0.0000
# 3 52.2015 7.4737 102.2988 0.0000 0.0000 0.0000
# 4 0.0000 0.0000 0.0000 -4.1337 0.0000 0.0000
# 5 0.0000 0.0000 0.0000 0.0000 -64.2920 0.0000
# 6 0.0000 0.0000 0.0000 0.0000 0.0000 16.5824
#
#
#
# Elastic Compliance Matrix: (Units=1/GPa)
#
#
# Indices 1 2 3 4 5 6 
#
# 1 0.017347 -0.001671 -0.008730 0.000000 0.000000 0.000000
# 2 -0.001671 0.008709 0.000217 0.000000 0.000000 0.000000
# 3 -0.008730 0.000217 0.014214 0.000000 0.000000 0.000000
# 4 0.000000 0.000000 0.000000 -0.241913 0.000000 0.000000
# 5 0.000000 0.000000 0.000000 0.000000 -0.015554 0.000000
# 6 0.000000 0.000000 0.000000 0.000000 0.000000 0.060305
#
#
# Mechanical properties :
#
#
# Convention : Reuss Voigt Hill
#
# Bulk Modulus (GPa) = 50.24815 50.52439 50.38627
# Shear Modulus (GPa) = -38.49439 4.99399 -16.75020
#
# Velocity S-wave (km/s) = -4.31278 1.55340 -2.84491
# Velocity P-wave (km/s) = 0.72162 5.25645 3.68168
#
# Compressibility (1/GPa) = 0.01990123
#
# Stress axis : x y z
#
# Youngs Moduli (GPa) = 57.64759 114.82080 70.35276
#
# Poissons Ratio (x) = 0.19190 0.61416
# Poissons Ratio (y) = 0.09635 -0.01524
# Poissons Ratio (z) = 0.50325 -0.02487
#
# Static dielectric constant tensor:
#      x y z
#    x 1.769990 0.000000 0.000000 
#    y 0.000000 1.750820 0.000000 
#    z 0.000000 0.000000 1.781340 
# 
# From -- ./inp_files/24206.got.cif
#   From: 2010.05.17/outbox.ucp.g08.bks.cvg/sg64_13_cif.got.tgz:24206.got - 2010.06.11 16:36:46.
