data_PCOD9482242
_publ_section_title
;
Structure prediction by ZEFSAII (Michael W. Deem and Ramdas Pophale) SiO2 
 PCOD9482242
Probable space group: C M C A
;
_chemical_formula_sum "Si O2"
_cell_formula_units_Z 68
_cell_length_a 21.301229
_cell_length_b 25.057031
_cell_length_c 5.195268
_cell_angle_alpha 90.000000
_cell_angle_beta 90.000000
_cell_angle_gamma 90.000000
_cell_volume 2772.951204
_symmetry_space_group_name_H-M "C M C A"
_symmetry_group_IT_number 64
_symmetry_cell_setting 'orthorhombic'
loop_
_space_group_symop_operation_xyz
x,y,z
-x,1/2-y,1/2+z
x,-y,-z
-x,1/2+y,1/2-z
-x,-y,-z
x,1/2+y,1/2-z
-x,y,z
x,1/2-y,1/2+z
1/2+x,1/2+y,z
1/2-x,-y,1/2+z
1/2+x,1/2-y,-z
1/2-x,y,1/2-z
1/2-x,1/2-y,-z
1/2+x,y,1/2-z
1/2-x,1/2+y,z
1/2+x,-y,1/2+z
loop_
_atom_site_type_symbol
_atom_site_label
_atom_site_fract_x
_atom_site_fract_y
_atom_site_fract_z
Si Si1 0.928921 0.610179 0.298253
Si Si2 0.372619 0.285241 0.687866
Si Si3 0.613657 0.445391 0.283346
Si Si4 0.750000 0.434906 0.250000
Si Si5 0.250000 0.640843 0.250000
Si Si6 0.000000 0.000000 0.000000
O O1 0.928034 0.672316 0.232930
O O2 0.893817 0.600168 0.564748
O O3 0.000000 0.587786 0.338427
O O4 0.897061 0.580908 0.059476
O O5 0.374151 0.259825 0.406259
O O6 0.310105 0.320605 0.727659
O O7 0.684444 0.466673 0.258838
O O8 0.556992 0.483680 0.207783
O O9 0.751055 0.396717 0.499636
#
# Coordination Sequence:
#
# PCOD9482242 Si02
#       6
#    16  16  16   8   8   4
#     4  12  24  46  71 100 144 198 238 299 367 442
#     4  12  24  39  64 104 142 191 250 303 349 417
#     4  12  25  46  76 108 144 185 244 298 380 442
#     4  12  22  45  73 106 142 198 234 300 369 455
#     4  12  22  41  69  98 144 194 248 288 369 421
#     4  12  28  50  84 114 140 188 240 314 360 470
#
# _framework density 24.522608999999999
#
# number of rings (size 3 to 8) (size 9 to 14) (size 15 to 20)
#    0.000    0.000    7.059    3.529    0.000    2.824 
#    0.000    3.529    0.000    0.000    0.000    0.000 
#    0.000    0.000    0.000    0.000    0.000    0.000 
#
# Total GULP energy -190217.412308 kJ/mol
# GULP energy per Si atom -5594.629774 kJ/mol
# Density = 2.446679 g / cm^3
# Si number density = 24.522609 Si / 1000 Ang^3
#
#
#
# Elastic Constant Matrix: (Units=GPa)
#
#
# Indices 1 2 3 4 5 6 
#
# 1 215.5950 24.6584 -2.6630 0.0000 0.0000 0.0000
# 2 24.6584 72.2788 21.1593 0.0000 0.0000 0.0000
# 3 -2.6630 21.1593 119.6413 0.0000 0.0000 0.0000
# 4 0.0000 0.0000 0.0000 118.2515 0.0000 0.0000
# 5 0.0000 0.0000 0.0000 0.0000 10.6811 0.0000
# 6 0.0000 0.0000 0.0000 0.0000 0.0000 109.8091
#
#
#
# Elastic Compliance Matrix: (Units=1/GPa)
#
#
# Indices 1 2 3 4 5 6 
#
# 1 0.004847 -0.001777 0.000422 0.000000 0.000000 0.000000
# 2 -0.001777 0.015242 -0.002735 0.000000 0.000000 0.000000
# 3 0.000422 -0.002735 0.008851 0.000000 0.000000 0.000000
# 4 0.000000 0.000000 0.000000 0.008457 0.000000 0.000000
# 5 0.000000 0.000000 0.000000 0.000000 0.093623 0.000000
# 6 0.000000 0.000000 0.000000 0.000000 0.000000 0.009107
#
#
# Mechanical properties :
#
#
# Convention : Reuss Voigt Hill
#
# Bulk Modulus (GPa) = 48.16906 54.86936 51.51921
# Shear Modulus (GPa) = 32.21084 72.03904 52.12494
#
# Velocity S-wave (km/s) = 3.62818 5.42590 4.61541
# Velocity P-wave (km/s) = 6.10221 7.85350 7.03258
#
# Compressibility (1/GPa) = 0.02076022
#
# Stress axis : x y z
#
# Youngs Moduli (GPa) = 206.32186 65.60678 112.97567
#
# Poissons Ratio (x) = 0.11659 -0.04770
# Poissons Ratio (y) = 0.36666 0.30902
# Poissons Ratio (z) = -0.08710 0.17945
#
# Static dielectric constant tensor:
#      x y z
#    x 1.947340 0.000000 0.000000 
#    y 0.000000 1.615150 0.000000 
#    z 0.000000 0.000000 1.862690 
# 
# From -- ./inp_files/1882.got.cif
#   From: 2010.05.17/outbox.cif.g08.bks.cpg/sg64_1_cif.got.tgz:1882.got - 2010.06.03 16:29:19.
