data_PCOD9482453
_publ_section_title
;
Structure prediction by ZEFSAII (Michael W. Deem and Ramdas Pophale) SiO2 
 PCOD9482453
Probable space group: C M C A
;
_chemical_formula_sum "Si O2"
_cell_formula_units_Z 58
_cell_length_a 15.000000
_cell_length_b 24.000000
_cell_length_c 18.000000
_cell_angle_alpha 90.000000
_cell_angle_beta 90.000000
_cell_angle_gamma 90.000000
_cell_volume 6480.000000
_symmetry_space_group_name_H-M "C M C A"
_symmetry_group_IT_number 64
_symmetry_cell_setting 'orthorhombic'
loop_
_space_group_symop_operation_xyz
x,y,z
-x,1/2-y,1/2+z
x,-y,-z
-x,1/2+y,1/2-z
-x,-y,-z
x,1/2+y,1/2-z
-x,y,z
x,1/2-y,1/2+z
1/2+x,1/2+y,z
1/2-x,-y,1/2+z
1/2+x,1/2-y,-z
1/2-x,y,1/2-z
1/2-x,1/2-y,-z
1/2+x,y,1/2-z
1/2-x,1/2+y,z
1/2+x,-y,1/2+z
loop_
_atom_site_type_symbol
_atom_site_label
_atom_site_fract_x
_atom_site_fract_y
_atom_site_fract_z
Si Si1 0.255574 0.728903 0.584629
Si Si2 0.261492 0.500665 0.662516
Si Si3 0.893945 0.202623 0.340249
Si Si4 0.217860 0.101863 0.549095
Si Si5 0.398699 0.805201 0.665490
Si Si6 0.395200 0.916202 0.913572
Si Si7 0.500000 0.000000 0.500000
Si Si8 0.639373 0.581701 0.078783
O O1 0.250000 0.750000 0.500000
O O2 0.164454 0.747183 0.626281
O O3 0.279400 0.663616 0.583049
O O4 0.332015 0.763446 0.625753
O O5 0.250000 0.511943 0.750000
O O6 0.262406 0.556129 0.612055
O O7 0.345410 0.463221 0.634973
O O8 0.181070 0.460707 0.638025
O O9 0.876216 0.192166 0.253008
O O10 0.869958 0.145330 0.382779
O O11 0.000000 0.212415 0.349682
O O12 0.131528 0.083772 0.500717
O O13 0.289606 0.101675 0.482337
O O14 0.500000 0.784770 0.659655
O O15 0.393674 0.864803 0.624297
O O16 0.500000 0.922737 0.904743
O O17 0.425417 0.956223 0.531031
#
# Coordination Sequence:
#
# PCOD9482453 Si02
#       8
#    16  16  16  16  16  16   4  16
#     4  12  22  39  61  87 119 164 204 246 302 361
#     4  11  23  39  57  85 124 161 194 239 306 368
#     4  10  22  40  61  92 119 151 201 259 306 353
#     4  11  23  39  59  87 121 159 202 243 303 358
#     4  11  23  37  62  91 120 155 201 254 306 357
#     4  10  20  39  67  91 116 153 204 255 299 363
#     4  12  20  36  68  96 118 148 190 260 306 376
#     4  11  20  39  63  90 119 153 196 249 307 364
#
# _framework density 8.9506169999999994
#
# number of rings (size 3 to 8) (size 9 to 14) (size 15 to 20)
#    0.000    1.103    4.828    3.310    0.000    3.310 
#    2.483    0.000    0.000    0.000    0.000    0.000 
#    0.000    0.000    0.000    0.000    0.000    0.000 
#
# Total GULP energy -323036.813632 kJ/mol
# GULP energy per Si atom -5569.600235 kJ/mol
# Density = 0.893025 g / cm^3
# Si number density = 8.950617 Si / 1000 Ang^3
#
#
#
# Elastic Constant Matrix: (Units=GPa)
#
#
# Indices 1 2 3 4 5 6 
#
# 1 63.8418 36.7546 25.9370 0.0000 0.0000 0.0000
# 2 36.7546 100.7370 61.8761 0.0000 0.0000 0.0000
# 3 25.9370 61.8761 112.3715 0.0000 0.0000 0.0000
# 4 0.0000 0.0000 0.0000 28.5510 0.0000 0.0000
# 5 0.0000 0.0000 0.0000 0.0000 18.0747 0.0000
# 6 0.0000 0.0000 0.0000 0.0000 0.0000 17.4784
#
#
#
# Elastic Compliance Matrix: (Units=1/GPa)
#
#
# Indices 1 2 3 4 5 6 
#
# 1 0.019889 -0.006704 -0.000899 0.000000 0.000000 0.000000
# 2 -0.006704 0.017260 -0.007957 0.000000 0.000000 0.000000
# 3 -0.000899 -0.007957 0.013488 0.000000 0.000000 0.000000
# 4 0.000000 0.000000 0.000000 0.035025 0.000000 0.000000
# 5 0.000000 0.000000 0.000000 0.000000 0.055326 0.000000
# 6 0.000000 0.000000 0.000000 0.000000 0.000000 0.057213
#
#
# Mechanical properties :
#
#
# Convention : Reuss Voigt Hill
#
# Bulk Modulus (GPa) = 51.23796 58.45397 54.84597
# Shear Modulus (GPa) = 21.20202 22.97967 22.09085
#
# Velocity S-wave (km/s) = 3.44523 3.58675 3.51670
# Velocity P-wave (km/s) = 6.67165 7.06240 6.86980
#
# Compressibility (1/GPa) = 0.01951678
#
# Stress axis : x y z
#
# Youngs Moduli (GPa) = 50.27970 57.93662 74.14114
#
# Poissons Ratio (x) = 0.38843 0.06665
# Poissons Ratio (y) = 0.33710 0.58992
# Poissons Ratio (z) = 0.04520 0.46098
#
# Static dielectric constant tensor:
#      x y z
#    x 1.662250 0.000000 0.000000 
#    y 0.000000 1.598210 0.000000 
#    z 0.000000 0.000000 1.607390 
# 
# From -- ./inp_files/32516.got.cif
#   From: 2010.05.17/outbox.ucp.g08.bks.cvg/sg64_17_cif.got.tgz:32516.got - 2010.06.11 16:36:46.
