data_PCOD9482710
_publ_section_title
;
Structure prediction by ZEFSAII (Michael W. Deem and Ramdas Pophale) SiO2 
 PCOD9482710
Probable space group: C M M M
;
_chemical_formula_sum "Si O2"
_cell_formula_units_Z 88
_cell_length_a 14.714577
_cell_length_b 8.142845
_cell_length_c 32.552954
_cell_angle_alpha 90.000000
_cell_angle_beta 90.000000
_cell_angle_gamma 90.000000
_cell_volume 3900.446762
_symmetry_space_group_name_H-M "C M M M"
_symmetry_group_IT_number 65
_symmetry_cell_setting 'orthorhombic'
loop_
_space_group_symop_operation_xyz
x,y,z
-x,-y,z
x,-y,-z
-x,y,-z
-x,-y,-z
x,y,-z
-x,y,z
x,-y,z
1/2+x,1/2+y,z
1/2-x,1/2-y,z
1/2+x,1/2-y,-z
1/2-x,1/2+y,-z
1/2-x,1/2-y,-z
1/2+x,1/2+y,-z
1/2-x,1/2+y,z
1/2+x,1/2-y,z
loop_
_atom_site_type_symbol
_atom_site_label
_atom_site_fract_x
_atom_site_fract_y
_atom_site_fract_z
Si Si1 0.353597 0.804495 0.218031
Si Si2 0.611014 0.807343 0.602112
Si Si3 0.355713 0.306661 0.868561
Si Si4 0.355941 0.196209 0.955747
Si Si5 0.111342 0.000000 0.547359
Si Si6 0.391937 0.814245 0.307496
O O1 0.250000 0.750000 0.213905
O O2 0.396591 0.753728 0.174591
O O3 0.378647 0.733730 0.262939
O O4 0.365220 0.000000 0.220365
O O5 0.500000 0.809485 0.600309
O O6 0.641173 0.667263 0.570381
O O7 0.638443 0.748836 0.648278
O O8 0.638285 0.000000 0.595972
O O9 0.356475 0.500000 0.867104
O O10 0.250000 0.250000 0.869685
O O11 0.395691 0.253258 0.912348
O O12 0.250000 0.250000 0.955723
O O13 0.360002 0.000000 0.955561
O O14 0.393301 0.254648 0.000000
O O15 0.139870 0.000000 0.500000
O O16 0.000000 0.000000 0.548283
O O17 0.500000 0.827465 0.311206
O O18 0.353293 0.000000 0.305297
#
# Coordination Sequence:
#
# PCOD9482710 Si02
#       6
#    16  16  16  16   8  16
#     4  10  18  29  44  62  88 116 143 182 222 262
#     4   8  14  26  41  58  83 115 149 182 220 264
#     4  10  17  25  36  51  76 107 139 169 210 260
#     4   9  15  22  33  49  69  96 132 170 207 252
#     4   9  16  24  36  60  90 118 148 178 218 270
#     4   8  15  29  48  65  83 116 155 184 216 260
#
# _framework density 22.561519000000001
#
# number of rings (size 3 to 8) (size 9 to 14) (size 15 to 20)
#    0.000    3.000    0.000    6.000    0.000    1.455 
#    3.273    1.818    0.000    0.000    0.000    0.000 
#    0.000    1.455    0.364    8.364    0.000    6.545 
#
# Total GULP energy -245018.663972 kJ/mol
# GULP energy per Si atom -5568.605999 kJ/mol
# Density = 2.251017 g / cm^3
# Si number density = 22.561519 Si / 1000 Ang^3
#
#
#
# Elastic Constant Matrix: (Units=GPa)
#
#
# Indices 1 2 3 4 5 6 
#
# 1 52.4608 1.1618 15.3347 0.0000 0.0000 0.0000
# 2 1.1618 107.7055 95.4702 0.0000 0.0000 0.0000
# 3 15.3347 95.4702 299.1795 0.0000 0.0000 0.0000
# 4 0.0000 0.0000 0.0000 38.6304 0.0000 0.0000
# 5 0.0000 0.0000 0.0000 0.0000 12.9273 0.0000
# 6 0.0000 0.0000 0.0000 0.0000 0.0000 -3.9797
#
#
#
# Elastic Compliance Matrix: (Units=1/GPa)
#
#
# Indices 1 2 3 4 5 6 
#
# 1 0.019420 0.000938 -0.001295 0.000000 0.000000 0.000000
# 2 0.000938 0.012992 -0.004194 0.000000 0.000000 0.000000
# 3 -0.001295 -0.004194 0.004747 0.000000 0.000000 0.000000
# 4 0.000000 0.000000 0.000000 0.025886 0.000000 0.000000
# 5 0.000000 0.000000 0.000000 0.000000 0.077356 0.000000
# 6 0.000000 0.000000 0.000000 0.000000 0.000000 -0.251274
#
#
# Mechanical properties :
#
#
# Convention : Reuss Voigt Hill
#
# Bulk Modulus (GPa) = 35.64084 75.91991 55.78038
# Shear Modulus (GPa) = -54.10077 32.67420 -10.71329
#
# Velocity S-wave (km/s) = -4.90217 3.80969 -2.18146
# Velocity P-wave (km/s) = 4.02619 7.28525 4.29329
#
# Compressibility (1/GPa) = 0.02805770
#
# Stress axis : x y z
#
# Youngs Moduli (GPa) = 51.49450 76.97087 210.65312
#
# Poissons Ratio (x) = -0.07221 0.27274
# Poissons Ratio (y) = -0.04831 0.88346
# Poissons Ratio (z) = 0.06667 0.32281
#
# Static dielectric constant tensor:
#      x y z
#    x 1.938690 0.000000 0.000000 
#    y 0.000000 1.801260 0.000000 
#    z 0.000000 0.000000 1.937070 
# 
# From -- ./inp_files/78134.got.cif
#   From: 2010.05.17/outbox.cif.g08.bks.cpg/sg65_40_cif.got.tgz:78134.got - 2010.06.03 17:01:31.
