data_PCOD9482483
_publ_section_title
;
Structure prediction by ZEFSAII (Michael W. Deem and Ramdas Pophale) SiO2 
 PCOD9482483
Probable space group: C M C A
;
_chemical_formula_sum "Si O2"
_cell_formula_units_Z 48
_cell_length_a 9.000000
_cell_length_b 24.000000
_cell_length_c 24.000000
_cell_angle_alpha 90.000000
_cell_angle_beta 90.000000
_cell_angle_gamma 90.000000
_cell_volume 5184.000000
_symmetry_space_group_name_H-M "C M C A"
_symmetry_group_IT_number 64
_symmetry_cell_setting 'orthorhombic'
loop_
_space_group_symop_operation_xyz
x,y,z
-x,1/2-y,1/2+z
x,-y,-z
-x,1/2+y,1/2-z
-x,-y,-z
x,1/2+y,1/2-z
-x,y,z
x,1/2-y,1/2+z
1/2+x,1/2+y,z
1/2-x,-y,1/2+z
1/2+x,1/2-y,-z
1/2-x,y,1/2-z
1/2-x,1/2-y,-z
1/2+x,y,1/2-z
1/2-x,1/2+y,z
1/2+x,-y,1/2+z
loop_
_atom_site_type_symbol
_atom_site_label
_atom_site_fract_x
_atom_site_fract_y
_atom_site_fract_z
Si Si1 0.819863 0.559884 0.812265
Si Si2 0.320891 0.273361 0.905174
Si Si3 0.322368 0.856784 0.089572
Si Si4 0.819847 0.051022 0.133930
Si Si5 0.322108 0.158074 0.191512
Si Si6 0.823116 0.617951 0.476880
O O1 0.750000 0.563237 0.750000
O O2 0.783950 0.613164 0.851924
O O3 0.752546 0.506322 0.844953
O O4 0.000000 0.554968 0.807975
O O5 0.500000 0.276483 0.895186
O O6 0.281345 0.208796 0.914564
O O7 0.229625 0.296208 0.852954
O O8 0.288780 0.319766 0.952786
O O9 0.500000 0.859555 0.084659
O O10 0.252901 0.888098 0.036522
O O11 0.752785 0.100045 0.172235
O O12 0.783447 0.072562 0.070930
O O13 0.000000 0.048934 0.138716
O O14 0.500000 0.152973 0.194063
O O15 0.250000 0.173276 0.250000
O O16 0.000000 0.614760 0.483959
#
# Coordination Sequence:
#
# PCOD9482483 Si02
#       6
#    16  16  16  16  16  16
#     4  11  24  41  59  82 111 150 192 233 279 331
#     4   9  19  37  56  81 116 152 189 232 279 332
#     4  10  22  38  58  83 116 152 188 230 277 330
#     4  10  21  39  60  84 113 146 184 233 284 335
#     4  11  21  34  55  83 112 146 187 236 287 338
#     4   9  19  35  59  87 114 144 184 231 282 333
#
# _framework density 9.2592590000000001
#
# number of rings (size 3 to 8) (size 9 to 14) (size 15 to 20)
#    0.000    2.000    0.000    4.500    0.000    6.667 
#    0.000    5.000    0.000    0.000    0.000    0.000 
#    0.000    0.000    0.000    0.000    0.000    0.000 
#
# Total GULP energy -267902.859537 kJ/mol
# GULP energy per Si atom -5581.309574 kJ/mol
# Density = 0.923818 g / cm^3
# Si number density = 9.259259 Si / 1000 Ang^3
#
#
#
# Elastic Constant Matrix: (Units=GPa)
#
#
# Indices 1 2 3 4 5 6 
#
# 1 63.3370 23.3894 45.1877 0.0000 0.0000 0.0000
# 2 23.3894 71.7463 46.5190 0.0000 0.0000 0.0000
# 3 45.1877 46.5190 136.0634 0.0000 0.0000 0.0000
# 4 0.0000 0.0000 0.0000 14.9552 0.0000 0.0000
# 5 0.0000 0.0000 0.0000 0.0000 36.4815 0.0000
# 6 0.0000 0.0000 0.0000 0.0000 0.0000 23.9761
#
#
#
# Elastic Compliance Matrix: (Units=1/GPa)
#
#
# Indices 1 2 3 4 5 6 
#
# 1 0.021186 -0.003012 -0.006006 0.000000 0.000000 0.000000
# 2 -0.003012 0.018336 -0.005268 0.000000 0.000000 0.000000
# 3 -0.006006 -0.005268 0.011145 0.000000 0.000000 0.000000
# 4 0.000000 0.000000 0.000000 0.066866 0.000000 0.000000
# 5 0.000000 0.000000 0.000000 0.000000 0.027411 0.000000
# 6 0.000000 0.000000 0.000000 0.000000 0.000000 0.041708
#
#
# Mechanical properties :
#
#
# Convention : Reuss Voigt Hill
#
# Bulk Modulus (GPa) = 45.26226 55.70431 50.48329
# Shear Modulus (GPa) = 22.46266 25.48595 23.97430
#
# Velocity S-wave (km/s) = 3.48657 3.71380 3.60198
# Velocity P-wave (km/s) = 6.37988 6.96673 6.67976
#
# Compressibility (1/GPa) = 0.02209346
#
# Stress axis : x y z
#
# Youngs Moduli (GPa) = 47.20083 54.53736 89.72265
#
# Poissons Ratio (x) = 0.16429 0.53889
# Poissons Ratio (y) = 0.14219 0.47270
# Poissons Ratio (z) = 0.28349 0.28733
#
# Static dielectric constant tensor:
#      x y z
#    x 1.614210 0.000000 0.000000 
#    y 0.000000 1.643400 0.000000 
#    z 0.000000 0.000000 1.655400 
# 
# From -- ./inp_files/43003.got.cif
#   From: 2010.05.17/outbox.ucp.g08.bks.cvg/sg64_22_cif.got.tgz:43003.got - 2010.06.11 16:36:46.
