data_PCOD9482734
_publ_section_title
;
Structure prediction by ZEFSAII (Michael W. Deem and Ramdas Pophale) SiO2 
 PCOD9482734
Probable space group: C M M M
;
_chemical_formula_sum "Si O2"
_cell_formula_units_Z 120
_cell_length_a 17.391746
_cell_length_b 18.456848
_cell_length_c 19.271411
_cell_angle_alpha 90.000000
_cell_angle_beta 90.000000
_cell_angle_gamma 90.000000
_cell_volume 6186.061501
_symmetry_space_group_name_H-M "C M M M"
_symmetry_group_IT_number 65
_symmetry_cell_setting 'orthorhombic'
loop_
_space_group_symop_operation_xyz
x,y,z
-x,-y,z
x,-y,-z
-x,y,-z
-x,-y,-z
x,y,-z
-x,y,z
x,-y,z
1/2+x,1/2+y,z
1/2-x,1/2-y,z
1/2+x,1/2-y,-z
1/2-x,1/2+y,-z
1/2-x,1/2-y,-z
1/2+x,1/2+y,-z
1/2-x,1/2+y,z
1/2+x,1/2-y,z
loop_
_atom_site_type_symbol
_atom_site_label
_atom_site_fract_x
_atom_site_fract_y
_atom_site_fract_z
Si Si1 0.418948 0.083811 0.379824
Si Si2 0.161306 0.227804 0.210215
Si Si3 0.088262 0.000000 0.084259
Si Si4 0.676220 0.646483 0.920437
Si Si5 0.303400 0.415788 0.725615
Si Si6 0.245873 0.412168 0.575551
Si Si7 0.372390 0.884378 0.771259
Si Si8 0.653748 0.084874 0.922783
O O1 0.500000 0.117785 0.400627
O O2 0.340509 0.116055 0.409760
O O3 0.412701 0.083171 0.296055
O O4 0.419912 0.000000 0.402628
O O5 0.250000 0.250000 0.224712
O O6 0.154466 0.212587 0.128525
O O7 0.146876 0.149494 0.243475
O O8 0.116258 0.297936 0.234065
O O9 0.133669 0.072816 0.103451
O O10 0.000000 0.000000 0.108511
O O11 0.087337 0.000000 0.000000
O O12 0.767341 0.630464 0.916485
O O13 0.656028 0.660272 0.000000
O O14 0.326997 0.500000 0.734428
O O15 0.294286 0.397536 0.644187
O O16 0.217679 0.407485 0.759610
O O17 0.273248 0.387637 0.500000
O O18 0.241595 0.500000 0.574196
O O19 0.391944 0.904438 0.850736
O O20 0.675900 0.000000 0.924010
O O21 0.619808 0.100376 0.000000
#
# Coordination Sequence:
#
# PCOD9482734 Si02
#       8
#    16  16   8  16  16  16  16  16
#     4   9  17  29  47  66  83 112 149 180 212 259
#     4  10  19  27  40  64  90 117 145 180 220 271
#     4   9  18  32  46  60  82 112 144 182 223 266
#     4  10  18  27  42  63  84 109 144 183 222 264
#     4   9  16  26  42  61  86 117 143 171 211 262
#     4   8  14  25  42  66  92 113 139 176 217 252
#     4  10  18  29  41  61  88 117 141 180 226 268
#     4  10  17  25  42  66  88 110 143 186 227 266
#
# _framework density 19.398448999999999
#
# number of rings (size 3 to 8) (size 9 to 14) (size 15 to 20)
#    0.000    2.600    3.333    2.000    0.933    1.067 
#    0.000    2.000    0.000   10.400    0.000    1.867 
#    0.000    0.000    0.000    0.000    0.000    0.667 
#
# Total GULP energy -334053.037390 kJ/mol
# GULP energy per Si atom -5567.550623 kJ/mol
# Density = 1.935430 g / cm^3
# Si number density = 19.398449 Si / 1000 Ang^3
#
#
#
# Elastic Constant Matrix: (Units=GPa)
#
#
# Indices 1 2 3 4 5 6 
#
# 1 4.8768 4.4302 -5.5860 0.0000 0.0000 0.0000
# 2 4.4302 84.8891 16.1303 0.0000 0.0000 0.0000
# 3 -5.5860 16.1303 115.5512 0.0000 0.0000 0.0000
# 4 0.0000 0.0000 0.0000 6.6187 0.0000 0.0000
# 5 0.0000 0.0000 0.0000 0.0000 -1.4146 0.0000
# 6 0.0000 0.0000 0.0000 0.0000 0.0000 2.1995
#
#
#
# Elastic Compliance Matrix: (Units=1/GPa)
#
#
# Indices 1 2 3 4 5 6 
#
# 1 0.233736 -0.014736 0.013356 0.000000 0.000000 0.000000
# 2 -0.014736 0.013030 -0.002531 0.000000 0.000000 0.000000
# 3 0.013356 -0.002531 0.009653 0.000000 0.000000 0.000000
# 4 0.000000 0.000000 0.000000 0.151087 0.000000 0.000000
# 5 0.000000 0.000000 0.000000 0.000000 -0.706908 0.000000
# 6 0.000000 0.000000 0.000000 0.000000 0.000000 0.454645
#
#
# Mechanical properties :
#
#
# Convention : Reuss Voigt Hill
#
# Bulk Modulus (GPa) = 4.02257 26.14069 15.08163
# Shear Modulus (GPa) = 20.33087 14.17023 17.25055
#
# Velocity S-wave (km/s) = 3.24090 2.70568 2.98531
# Velocity P-wave (km/s) = 4.01033 4.82347 4.43557
#
# Compressibility (1/GPa) = 0.24859709
#
# Stress axis : x y z
#
# Youngs Moduli (GPa) = 4.27833 76.74527 103.59242
#
# Poissons Ratio (x) = 1.13093 -1.38363
# Poissons Ratio (y) = 0.06305 0.26223
# Poissons Ratio (z) = -0.05714 0.19427
#
# Static dielectric constant tensor:
#      x y z
#    x 1.707860 0.000000 0.000000 
#    y 0.000000 1.694260 0.000000 
#    z 0.000000 0.000000 1.742440 
# 
# From -- ./inp_files/64021.got.cif
#   From: 2010.05.17/outbox.cif.g08.bks.cpg/sg65_33_cif.got.tgz:64021.got - 2010.06.03 17:01:31.
