data_PCOD9482045
_publ_section_title
;
Structure prediction by ZEFSAII (Michael W. Deem and Ramdas Pophale) SiO2 
 PCOD9482045
Probable space group: C M C A
;
_chemical_formula_sum "Si O2"
_cell_formula_units_Z 88
_cell_length_a 20.471136
_cell_length_b 22.671854
_cell_length_c 8.770010
_cell_angle_alpha 90.000000
_cell_angle_beta 90.000000
_cell_angle_gamma 90.000000
_cell_volume 4070.324821
_symmetry_space_group_name_H-M "C M C A"
_symmetry_group_IT_number 64
_symmetry_cell_setting 'orthorhombic'
loop_
_space_group_symop_operation_xyz
x,y,z
-x,1/2-y,1/2+z
x,-y,-z
-x,1/2+y,1/2-z
-x,-y,-z
x,1/2+y,1/2-z
-x,y,z
x,1/2-y,1/2+z
1/2+x,1/2+y,z
1/2-x,-y,1/2+z
1/2+x,1/2-y,-z
1/2-x,y,1/2-z
1/2-x,1/2-y,-z
1/2+x,y,1/2-z
1/2-x,1/2+y,z
1/2+x,-y,1/2+z
loop_
_atom_site_type_symbol
_atom_site_label
_atom_site_fract_x
_atom_site_fract_y
_atom_site_fract_z
Si Si1 0.500000 0.932087 0.443156
Si Si2 0.678101 0.807006 0.820203
Si Si3 0.500000 0.634881 0.643027
Si Si4 0.887847 0.582653 0.339225
Si Si5 0.715986 0.000000 0.500000
Si Si6 0.750000 0.911749 0.250000
Si Si7 0.355489 0.682341 0.676154
Si Si8 0.500000 0.949811 0.877556
O O1 0.500000 0.918629 0.265524
O O2 0.435176 0.904272 0.517700
O O3 0.500000 0.000000 0.500000
O O4 0.750000 0.814734 0.750000
O O5 0.636345 0.858549 0.741735
O O6 0.655400 0.742513 0.767479
O O7 0.672858 0.811998 0.003311
O O8 0.432335 0.668859 0.668207
O O9 0.500000 0.610920 0.471706
O O10 0.830074 0.540115 0.392860
O O11 0.935204 0.548826 0.222943
O O12 0.755171 0.045636 0.604038
O O13 0.686576 0.869849 0.254485
O O14 0.500000 0.000000 0.000000
#
# Coordination Sequence:
#
# PCOD9482045 Si02
#       8
#     8  16   8  16   8   8  16   8
#     4  11  23  44  72 104 151 197 244 306 383 458
#     4  12  27  50  79 104 148 199 253 317 373 456
#     4  12  26  46  73 111 148 190 254 320 369 457
#     4  11  25  45  71 107 145 196 250 302 386 448
#     4  12  28  45  76 109 152 196 254 316 380 456
#     4  12  30  50  74 114 152 204 254 316 382 466
#     4  12  29  50  77 110 153 196 259 310 387 446
#     4  11  25  43  70 102 154 196 241 308 382 455
#
# _framework density 21.619897000000002
#
# number of rings (size 3 to 8) (size 9 to 14) (size 15 to 20)
#    0.000    0.364    3.636    3.818   11.455    2.182 
#    0.000    0.000    0.000    0.000    0.000    0.000 
#    0.000    0.000    0.000    0.000    0.000    0.000 
#
# Total GULP energy -246359.613283 kJ/mol
# GULP energy per Si atom -5599.082120 kJ/mol
# Density = 2.157069 g / cm^3
# Si number density = 21.619897 Si / 1000 Ang^3
#
#
#
# Elastic Constant Matrix: (Units=GPa)
#
#
# Indices 1 2 3 4 5 6 
#
# 1 95.1317 23.8914 2.1571 0.0000 0.0000 0.0000
# 2 23.8914 114.4185 28.1391 0.0000 0.0000 0.0000
# 3 2.1571 28.1391 88.9973 0.0000 0.0000 0.0000
# 4 0.0000 0.0000 0.0000 44.7305 0.0000 0.0000
# 5 0.0000 0.0000 0.0000 0.0000 23.7877 0.0000
# 6 0.0000 0.0000 0.0000 0.0000 0.0000 -10.6431
#
#
#
# Elastic Compliance Matrix: (Units=1/GPa)
#
#
# Indices 1 2 3 4 5 6 
#
# 1 0.011114 -0.002445 0.000504 0.000000 0.000000 0.000000
# 2 -0.002445 0.010014 -0.003107 0.000000 0.000000 0.000000
# 3 0.000504 -0.003107 0.012206 0.000000 0.000000 0.000000
# 4 0.000000 0.000000 0.000000 0.022356 0.000000 0.000000
# 5 0.000000 0.000000 0.000000 0.000000 0.042039 0.000000
# 6 0.000000 0.000000 0.000000 0.000000 0.000000 -0.093957
#
#
# Mechanical properties :
#
#
# Convention : Reuss Voigt Hill
#
# Bulk Modulus (GPa) = 43.03128 45.21362 44.12245
# Shear Modulus (GPa) = 231.31776 27.86566 129.59171
#
# Velocity S-wave (km/s) = 10.35496 3.59401 7.75055
# Velocity P-wave (km/s) = 12.76377 6.17907 10.02733
#
# Compressibility (1/GPa) = 0.02323891
#
# Stress axis : x y z
#
# Youngs Moduli (GPa) = 89.97451 99.85603 81.92360
#
# Poissons Ratio (x) = 0.24411 -0.04125
# Poissons Ratio (y) = 0.21995 0.25454
# Poissons Ratio (z) = -0.04531 0.31026
#
# Static dielectric constant tensor:
#      x y z
#    x 1.780230 0.000000 0.000000 
#    y 0.000000 1.767240 0.000000 
#    z 0.000000 0.000000 1.812330 
# 
# From -- ./inp_files/8311.got.cif
#   From: 2010.05.17/outbox.cif.g08.bks.cpg/sg64_5_cif.got.tgz:8311.got - 2010.06.03 16:29:19.
