data_PCOD9482607
_publ_section_title
;
Structure prediction by ZEFSAII (Michael W. Deem and Ramdas Pophale) SiO2 
 PCOD9482607
Probable space group: C M M M
;
_chemical_formula_sum "Si O2"
_cell_formula_units_Z 88
_cell_length_a 37.052100
_cell_length_b 8.265982
_cell_length_c 21.377653
_cell_angle_alpha 90.000000
_cell_angle_beta 90.000000
_cell_angle_gamma 90.000000
_cell_volume 6547.376361
_symmetry_space_group_name_H-M "C M M M"
_symmetry_group_IT_number 65
_symmetry_cell_setting 'orthorhombic'
loop_
_space_group_symop_operation_xyz
x,y,z
-x,-y,z
x,-y,-z
-x,y,-z
-x,-y,-z
x,y,-z
-x,y,z
x,-y,z
1/2+x,1/2+y,z
1/2-x,1/2-y,z
1/2+x,1/2-y,-z
1/2-x,1/2+y,-z
1/2-x,1/2-y,-z
1/2+x,1/2+y,-z
1/2-x,1/2+y,z
1/2+x,1/2-y,z
loop_
_atom_site_type_symbol
_atom_site_label
_atom_site_fract_x
_atom_site_fract_y
_atom_site_fract_z
Si Si1 0.791668 0.307662 0.632129
Si Si2 0.087627 0.183620 0.924600
Si Si3 0.208277 0.808648 0.233642
Si Si4 0.291169 0.693671 0.000000
Si Si5 0.837281 0.310562 0.117609
Si Si6 0.791856 0.192355 0.500000
Si Si7 0.958637 0.500000 0.924136
O O1 0.792419 0.500000 0.637166
O O2 0.750000 0.250000 0.630014
O O3 0.805713 0.231832 0.696499
O O4 0.807999 0.255035 0.565468
O O5 0.125921 0.211121 0.891215
O O6 0.061794 0.333537 0.906331
O O7 0.074218 0.000000 0.912510
O O8 0.093527 0.195847 0.000000
O O9 0.250000 0.750000 0.228956
O O10 0.183706 0.725336 0.181567
O O11 0.208006 0.000000 0.223682
O O12 0.250000 0.750000 0.000000
O O13 0.311082 0.761309 0.060982
O O14 0.293214 0.500000 0.000000
O O15 0.846051 0.500000 0.112531
O O16 0.750000 0.250000 0.500000
O O17 0.792025 0.000000 0.500000
O O18 0.000000 0.500000 0.902218
O O19 0.959156 0.500000 0.000000
#
# Coordination Sequence:
#
# PCOD9482607 Si02
#       7
#    16  16  16   8  16   8   8
#     4  10  17  27  40  56  75  98 127 166 212 260
#     4  10  19  32  49  69  89 113 141 170 211 257
#     4  11  21  33  44  58  79 106 139 181 226 264
#     4  12  24  36  46  62  78 103 142 186 229 266
#     4  12  22  34  48  62  81 110 141 181 220 263
#     4  10  16  24  38  56  74  96 124 160 206 257
#     4   9  18  32  50  72  94 112 134 167 209 261
#
# _framework density 13.440499000000001
#
# number of rings (size 3 to 8) (size 9 to 14) (size 15 to 20)
#    0.000    1.364    1.818    9.273    0.000    0.364 
#    0.000    1.818    0.000    0.000    0.000    0.000 
#    0.000    0.000    0.000    0.000    0.000    0.000 
#
# Total GULP energy -245446.244100 kJ/mol
# GULP energy per Si atom -5578.323730 kJ/mol
# Density = 1.340991 g / cm^3
# Si number density = 13.440499 Si / 1000 Ang^3
#
#
#
# Elastic Constant Matrix: (Units=GPa)
#
#
# Indices 1 2 3 4 5 6 
#
# 1 57.3391 16.8392 17.9475 0.0000 0.0000 0.0000
# 2 16.8392 95.2884 5.3165 0.0000 0.0000 0.0000
# 3 17.9475 5.3165 77.3941 0.0000 0.0000 0.0000
# 4 0.0000 0.0000 0.0000 21.1082 0.0000 0.0000
# 5 0.0000 0.0000 0.0000 0.0000 -2.3536 0.0000
# 6 0.0000 0.0000 0.0000 0.0000 0.0000 12.3952
#
#
#
# Elastic Compliance Matrix: (Units=1/GPa)
#
#
# Indices 1 2 3 4 5 6 
#
# 1 0.019758 -0.003248 -0.004359 0.000000 0.000000 0.000000
# 2 -0.003248 0.011069 -0.000007 0.000000 0.000000 0.000000
# 3 -0.004359 -0.000007 0.013932 0.000000 0.000000 0.000000
# 4 0.000000 0.000000 0.000000 0.047375 0.000000 0.000000
# 5 0.000000 0.000000 0.000000 0.000000 -0.424889 0.000000
# 6 0.000000 0.000000 0.000000 0.000000 0.000000 0.080676
#
#
# Mechanical properties :
#
#
# Convention : Reuss Voigt Hill
#
# Bulk Modulus (GPa) = 33.86283 34.46975 34.16629
# Shear Modulus (GPa) = -22.02588 18.89120 -1.56734
#
# Velocity S-wave (km/s) = -4.05256 3.75312 -1.08105
# Velocity P-wave (km/s) = 1.83074 6.66957 4.89054
#
# Compressibility (1/GPa) = 0.02953090
#
# Stress axis : x y z
#
# Youngs Moduli (GPa) = 50.61131 90.34306 71.77640
#
# Poissons Ratio (x) = 0.29348 0.31286
# Poissons Ratio (y) = 0.16441 0.00051
# Poissons Ratio (z) = 0.22060 0.00064
#
# Static dielectric constant tensor:
#      x y z
#    x 1.406230 0.000000 0.000000 
#    y 0.000000 1.463360 0.000000 
#    z 0.000000 0.000000 1.460620 
# 
# From -- ./inp_files/66280.got.cif
#   From: 2010.05.17/outbox.cif.g08.bks.cpg/sg65_34_cif.got.tgz:66280.got - 2010.06.03 17:01:31.
