data_PCOD9482887
_publ_section_title
;
Structure prediction by ZEFSAII (Michael W. Deem and Ramdas Pophale) SiO2 
 PCOD9482887
Probable space group: C M M M
;
_chemical_formula_sum "Si O2"
_cell_formula_units_Z 104
_cell_length_a 8.410057
_cell_length_b 29.324615
_cell_length_c 23.841462
_cell_angle_alpha 90.000000
_cell_angle_beta 90.000000
_cell_angle_gamma 90.000000
_cell_volume 5879.821499
_symmetry_space_group_name_H-M "C M M M"
_symmetry_group_IT_number 65
_symmetry_cell_setting 'orthorhombic'
loop_
_space_group_symop_operation_xyz
x,y,z
-x,-y,z
x,-y,-z
-x,y,-z
-x,-y,-z
x,y,-z
-x,y,z
x,-y,z
1/2+x,1/2+y,z
1/2-x,1/2-y,z
1/2+x,1/2-y,-z
1/2-x,1/2+y,-z
1/2-x,1/2-y,-z
1/2+x,1/2+y,-z
1/2-x,1/2+y,z
1/2+x,1/2-y,z
loop_
_atom_site_type_symbol
_atom_site_label
_atom_site_fract_x
_atom_site_fract_y
_atom_site_fract_z
Si Si1 0.309734 0.299941 0.850779
Si Si2 0.690443 0.893983 0.891182
Si Si3 0.190030 0.799790 0.278876
Si Si4 0.806078 0.552548 0.436604
Si Si5 0.309606 0.552558 0.000000
Si Si6 0.305981 0.947536 0.779841
Si Si7 0.692186 0.108549 0.329606
O O1 0.500000 0.300078 0.851224
O O2 0.250000 0.250000 0.868386
O O3 0.247348 0.341894 0.887163
O O4 0.254542 0.307068 0.785891
O O5 0.500000 0.894600 0.891572
O O6 0.746518 0.919858 0.834679
O O7 0.751527 0.920850 0.945093
O O8 0.250000 0.750000 0.296302
O O9 0.252170 0.840452 0.317247
O O10 0.000000 0.800070 0.278620
O O11 0.755182 0.564207 0.500000
O O12 0.760053 0.500000 0.424872
O O13 0.751689 0.586237 0.387733
O O14 0.000000 0.553207 0.436406
O O15 0.251927 0.500000 0.000000
O O16 0.500000 0.551875 0.000000
O O17 0.500000 0.947546 0.779911
O O18 0.254742 0.922432 0.723049
O O19 0.254080 0.000000 0.781697
O O20 0.500000 0.108073 0.330005
#
# Coordination Sequence:
#
# PCOD9482887 Si02
#       7
#    16  16  16  16   8  16  16
#     4  10  20  35  56  81 110 141 175 215 267 323
#     4  11  21  36  58  82 109 140 179 222 265 316
#     4  10  20  33  51  75 106 138 173 214 263 320
#     4   8  14  25  44  73 107 142 180 219 257 303
#     4  11  25  43  60  79 108 147 187 223 263 313
#     4   9  17  28  46  75 106 134 168 213 260 306
#     4  10  17  28  49  76 106 137 174 217 264 311
#
# _framework density 17.687612000000001
#
# number of rings (size 3 to 8) (size 9 to 14) (size 15 to 20)
#    0.000    2.231    1.538    3.000    0.000    4.308 
#    0.000    0.385    0.000    3.692    0.000    1.077 
#    0.000    0.000    0.000    0.000    0.000    0.000 
#
# Total GULP energy -290219.889373 kJ/mol
# GULP energy per Si atom -5581.151719 kJ/mol
# Density = 1.764735 g / cm^3
# Si number density = 17.687612 Si / 1000 Ang^3
#
#
#
# Elastic Constant Matrix: (Units=GPa)
#
#
# Indices 1 2 3 4 5 6 
#
# 1 25.3271 26.9661 25.2416 0.0000 0.0000 0.0000
# 2 26.9661 182.5868 101.5031 0.0000 0.0000 0.0000
# 3 25.2416 101.5031 132.6310 0.0000 0.0000 0.0000
# 4 0.0000 0.0000 0.0000 31.6053 0.0000 0.0000
# 5 0.0000 0.0000 0.0000 0.0000 8.3471 0.0000
# 6 0.0000 0.0000 0.0000 0.0000 0.0000 20.0229
#
#
#
# Elastic Compliance Matrix: (Units=1/GPa)
#
#
# Indices 1 2 3 4 5 6 
#
# 1 0.050086 -0.003652 -0.006737 0.000000 0.000000 0.000000
# 2 -0.003652 0.009799 -0.006804 0.000000 0.000000 0.000000
# 3 -0.006737 -0.006804 0.014029 0.000000 0.000000 0.000000
# 4 0.000000 0.000000 0.000000 0.031640 0.000000 0.000000
# 5 0.000000 0.000000 0.000000 0.000000 0.119802 0.000000
# 6 0.000000 0.000000 0.000000 0.000000 0.000000 0.049943
#
#
# Mechanical properties :
#
#
# Convention : Reuss Voigt Hill
#
# Bulk Modulus (GPa) = 25.29876 71.99628 48.64752
# Shear Modulus (GPa) = 15.48652 24.45065 19.96858
#
# Velocity S-wave (km/s) = 2.96219 3.72204 3.36364
# Velocity P-wave (km/s) = 5.10231 7.69832 6.53061
#
# Compressibility (1/GPa) = 0.03952762
#
# Stress axis : x y z
#
# Youngs Moduli (GPa) = 19.96558 102.05543 71.28083
#
# Poissons Ratio (x) = 0.37268 0.48025
# Poissons Ratio (y) = 0.07291 0.48499
# Poissons Ratio (z) = 0.13452 0.69438
#
# Static dielectric constant tensor:
#      x y z
#    x 1.604900 0.000000 0.000000 
#    y 0.000000 1.584780 0.000000 
#    z 0.000000 0.000000 1.595410 
# 
# From -- ./inp_files/60849.got.cif
#   From: 2010.05.17/outbox.cif.g08.bks.cpg/sg65_31_cif.got.tgz:60849.got - 2010.06.03 17:01:31.
