data_PCOD9482704
_publ_section_title
;
Structure prediction by ZEFSAII (Michael W. Deem and Ramdas Pophale) SiO2 
 PCOD9482704
Probable space group: C M M M
;
_chemical_formula_sum "Si O2"
_cell_formula_units_Z 120
_cell_length_a 14.333086
_cell_length_b 30.317470
_cell_length_c 14.932548
_cell_angle_alpha 90.000000
_cell_angle_beta 90.000000
_cell_angle_gamma 90.000000
_cell_volume 6488.832784
_symmetry_space_group_name_H-M "C M M M"
_symmetry_group_IT_number 65
_symmetry_cell_setting 'orthorhombic'
loop_
_space_group_symop_operation_xyz
x,y,z
-x,-y,z
x,-y,-z
-x,y,-z
-x,-y,-z
x,y,-z
-x,y,z
x,-y,z
1/2+x,1/2+y,z
1/2-x,1/2-y,z
1/2+x,1/2-y,-z
1/2-x,1/2+y,-z
1/2-x,1/2-y,-z
1/2+x,1/2+y,-z
1/2-x,1/2+y,z
1/2+x,1/2-y,z
loop_
_atom_site_type_symbol
_atom_site_label
_atom_site_fract_x
_atom_site_fract_y
_atom_site_fract_z
Si Si1 0.614349 0.000000 0.604269
Si Si2 0.885557 0.326001 0.395403
Si Si3 0.392814 0.550084 0.293065
Si Si4 0.113973 0.866380 0.395060
Si Si5 0.635812 0.551136 0.905220
Si Si6 0.140319 0.448968 0.899453
Si Si7 0.889317 0.770837 0.391623
Si Si8 0.109708 0.587513 0.706544
O O1 0.646594 0.956216 0.656588
O O2 0.500000 0.000000 0.605665
O O3 0.642560 0.000000 0.500000
O O4 0.859466 0.332939 0.500000
O O5 0.852280 0.277306 0.364920
O O6 0.853947 0.366631 0.334043
O O7 0.000000 0.324430 0.394298
O O8 0.500000 0.545744 0.323388
O O9 0.353030 0.500000 0.295225
O O10 0.348947 0.589408 0.349322
O O11 0.394807 0.567416 0.190937
O O12 0.134111 0.868784 0.500000
O O13 0.147170 0.818479 0.360286
O O14 0.000000 0.866082 0.385916
O O15 0.605724 0.500000 0.906764
O O16 0.747636 0.551015 0.903358
O O17 0.606447 0.571686 0.000000
O O18 0.110585 0.500000 0.883729
O O19 0.116365 0.419845 0.813339
O O20 0.108135 0.436124 0.000000
O O21 0.881583 0.771278 0.500000
O O22 0.000000 0.770648 0.370813
O O23 0.000000 0.588236 0.684999
#
# Coordination Sequence:
#
# PCOD9482704 Si02
#       8
#     8  16  16  16  16  16  16  16
#     4   9  16  24  33  49  77 107 127 146 182 234
#     4   8  13  21  34  53  77 102 129 162 195 227
#     4   9  16  24  37  61  86 104 123 151 187 224
#     4   8  13  21  34  54  81 110 134 152 176 217
#     4   8  15  28  43  56  72  99 130 158 191 229
#     4   9  17  29  42  54  71 100 135 164 193 231
#     4   7  10  18  32  50  73 101 131 161 188 213
#     4  10  17  24  36  57  79 101 129 161 197 230
#
# _framework density 18.493310999999999
#
# number of rings (size 3 to 8) (size 9 to 14) (size 15 to 20)
#    0.000    3.533    0.667    2.800    0.000    2.400 
#    0.000    3.333    0.000    1.600    0.000    1.867 
#    0.000   10.667    0.000    0.000    0.000    0.000 
#
# Total GULP energy -334020.685047 kJ/mol
# GULP energy per Si atom -5567.011417 kJ/mol
# Density = 1.845122 g / cm^3
# Si number density = 18.493311 Si / 1000 Ang^3
#
#
#
# Elastic Constant Matrix: (Units=GPa)
#
#
# Indices 1 2 3 4 5 6 
#
# 1 54.9529 18.9943 -4.1557 0.0000 0.0000 0.0000
# 2 18.9943 174.3058 89.6206 0.0000 0.0000 0.0000
# 3 -4.1557 89.6206 90.0809 0.0000 0.0000 0.0000
# 4 0.0000 0.0000 0.0000 3.7756 0.0000 0.0000
# 5 0.0000 0.0000 0.0000 0.0000 17.0376 0.0000
# 6 0.0000 0.0000 0.0000 0.0000 0.0000 13.3376
#
#
#
# Elastic Compliance Matrix: (Units=1/GPa)
#
#
# Indices 1 2 3 4 5 6 
#
# 1 0.020628 -0.005603 0.006526 0.000000 0.000000 0.000000
# 2 -0.005603 0.013267 -0.013458 0.000000 0.000000 0.000000
# 3 0.006526 -0.013458 0.024791 0.000000 0.000000 0.000000
# 4 0.000000 0.000000 0.000000 0.264859 0.000000 0.000000
# 5 0.000000 0.000000 0.000000 0.000000 0.058694 0.000000
# 6 0.000000 0.000000 0.000000 0.000000 0.000000 0.074976
#
#
# Mechanical properties :
#
#
# Convention : Reuss Voigt Hill
#
# Bulk Modulus (GPa) = 29.74731 58.69533 44.22132
# Shear Modulus (GPa) = 10.13192 21.15552 15.64372
#
# Velocity S-wave (km/s) = 2.34320 3.38591 2.91161
# Velocity P-wave (km/s) = 4.84161 6.86247 5.93863
#
# Compressibility (1/GPa) = 0.03361649
#
# Stress axis : x y z
#
# Youngs Moduli (GPa) = 48.47833 75.37454 40.33682
#
# Poissons Ratio (x) = 0.42236 -0.26326
# Poissons Ratio (y) = 0.27165 0.54284
# Poissons Ratio (z) = -0.31639 1.01437
#
# Static dielectric constant tensor:
#      x y z
#    x 1.730370 0.000000 0.000000 
#    y 0.000000 1.664550 0.000000 
#    z 0.000000 0.000000 1.642070 
# 
# From -- ./inp_files/44830.got.cif
#   From: 2010.05.17/outbox.cif.g08.bks.cpg/sg65_23_cif.got.tgz:44830.got - 2010.06.03 17:01:31.
