data_PCOD9482388
_publ_section_title
;
Structure prediction by ZEFSAII (Michael W. Deem and Ramdas Pophale) SiO2 
 PCOD9482388
Probable space group: C M C A
;
_chemical_formula_sum "Si O2"
_cell_formula_units_Z 48
_cell_length_a 9.000000
_cell_length_b 21.000000
_cell_length_c 27.000000
_cell_angle_alpha 90.000000
_cell_angle_beta 90.000000
_cell_angle_gamma 90.000000
_cell_volume 5103.000000
_symmetry_space_group_name_H-M "C M C A"
_symmetry_group_IT_number 64
_symmetry_cell_setting 'orthorhombic'
loop_
_space_group_symop_operation_xyz
x,y,z
-x,1/2-y,1/2+z
x,-y,-z
-x,1/2+y,1/2-z
-x,-y,-z
x,1/2+y,1/2-z
-x,y,z
x,1/2-y,1/2+z
1/2+x,1/2+y,z
1/2-x,-y,1/2+z
1/2+x,1/2-y,-z
1/2-x,y,1/2-z
1/2-x,1/2-y,-z
1/2+x,y,1/2-z
1/2-x,1/2+y,z
1/2+x,-y,1/2+z
loop_
_atom_site_type_symbol
_atom_site_label
_atom_site_fract_x
_atom_site_fract_y
_atom_site_fract_z
Si Si1 0.323391 0.325894 0.200377
Si Si2 0.823090 0.403423 0.398833
Si Si3 0.176501 0.777287 0.048407
Si Si4 0.175972 0.148884 0.393246
Si Si5 0.175685 0.187105 0.199959
Si Si6 0.678519 0.978759 0.946001
O O1 0.500000 0.314917 0.205919
O O2 0.250000 0.352350 0.250000
O O3 0.300667 0.373332 0.155096
O O4 0.245224 0.257670 0.192106
O O5 0.767573 0.346503 0.435011
O O6 0.743104 0.469610 0.408273
O O7 0.000000 0.411372 0.406370
O O8 0.199994 0.720459 0.087388
O O9 0.000000 0.783145 0.041852
O O10 0.250000 0.750000 0.000000
O O11 0.274579 0.142887 0.344848
O O12 0.216256 0.093748 0.432069
O O13 0.000000 0.142837 0.382146
O O14 0.250000 0.162849 0.250000
O O15 0.000000 0.192237 0.204300
O O16 0.500000 0.983132 0.945771
O O17 0.733414 0.000000 0.000000
#
# Coordination Sequence:
#
# PCOD9482388 Si02
#       6
#    16  16  16  16  16  16
#     4  10  19  35  57  84 116 149 185 229 286 338
#     4  10  21  37  57  81 114 151 185 233 286 335
#     4  10  20  35  55  80 110 144 186 238 286 332
#     4  10  20  38  58  80 115 152 189 234 283 336
#     4  11  21  34  57  87 116 148 187 233 285 340
#     4  10  22  39  60  83 112 153 193 234 282 336
#
# _framework density 9.4062319999999993
#
# number of rings (size 3 to 8) (size 9 to 14) (size 15 to 20)
#    0.000    1.833    1.667    4.000    0.000    5.000 
#    0.000    0.833    0.000    2.000    0.000    0.000 
#    0.000    0.000    0.000    0.000    0.000    0.000 
#
# Total GULP energy -267738.843958 kJ/mol
# GULP energy per Si atom -5577.892582 kJ/mol
# Density = 0.938482 g / cm^3
# Si number density = 9.406232 Si / 1000 Ang^3
#
#
#
# Elastic Constant Matrix: (Units=GPa)
#
#
# Indices 1 2 3 4 5 6 
#
# 1 27.7490 6.1510 41.5410 0.0000 0.0000 0.0000
# 2 6.1510 12.2538 -26.0840 0.0000 0.0000 0.0000
# 3 41.5410 -26.0840 58.7554 0.0000 0.0000 0.0000
# 4 0.0000 0.0000 0.0000 20.9442 0.0000 0.0000
# 5 0.0000 0.0000 0.0000 0.0000 28.5294 0.0000
# 6 0.0000 0.0000 0.0000 0.0000 0.0000 21.7129
#
#
#
# Elastic Compliance Matrix: (Units=1/GPa)
#
#
# Indices 1 2 3 4 5 6 
#
# 1 -0.001112 0.040589 0.018806 0.000000 0.000000 0.000000
# 2 0.040589 0.002675 -0.027509 0.000000 0.000000 0.000000
# 3 0.018806 -0.027509 -0.008489 0.000000 0.000000 0.000000
# 4 0.000000 0.000000 0.000000 0.047746 0.000000 0.000000
# 5 0.000000 0.000000 0.000000 0.000000 0.035052 0.000000
# 6 0.000000 0.000000 0.000000 0.000000 0.000000 0.046056
#
#
# Mechanical properties :
#
#
# Convention : Reuss Voigt Hill
#
# Bulk Modulus (GPa) = 17.59165 15.77489 16.68327
# Shear Modulus (GPa) = 64.84666 19.38065 42.11365
#
# Velocity S-wave (km/s) = 5.87749 3.21316 4.73652
# Velocity P-wave (km/s) = 7.44521 4.70844 6.22899
#
# Compressibility (1/GPa) = 0.05684514
#
# Stress axis : x y z
#
# Youngs Moduli (GPa) = -898.92511 373.76291 -117.80290
#
# Poissons Ratio (x) = -15.17066 2.21537
# Poissons Ratio (y) = 36.48647 -3.24067
# Poissons Ratio (z) = 16.90492 10.28195
#
# Static dielectric constant tensor:
#      x y z
#    x 1.627590 0.000000 0.000000 
#    y 0.000000 1.627890 0.000000 
#    z 0.000000 0.000000 1.673740 
# 
# From -- ./inp_files/48135.got.cif
#   From: 2010.05.17/outbox.ucp.g08.bks.cvg/sg64_25_cif.got.tgz:48135.got - 2010.06.11 16:36:46.
