data_PCOD9482411
_publ_section_title
;
Structure prediction by ZEFSAII (Michael W. Deem and Ramdas Pophale) SiO2 
 PCOD9482411
Probable space group: C M C A
;
_chemical_formula_sum "Si O2"
_cell_formula_units_Z 40
_cell_length_a 9.000000
_cell_length_b 27.000000
_cell_length_c 18.000000
_cell_angle_alpha 90.000000
_cell_angle_beta 90.000000
_cell_angle_gamma 90.000000
_cell_volume 4374.000000
_symmetry_space_group_name_H-M "C M C A"
_symmetry_group_IT_number 64
_symmetry_cell_setting 'orthorhombic'
loop_
_space_group_symop_operation_xyz
x,y,z
-x,1/2-y,1/2+z
x,-y,-z
-x,1/2+y,1/2-z
-x,-y,-z
x,1/2+y,1/2-z
-x,y,z
x,1/2-y,1/2+z
1/2+x,1/2+y,z
1/2-x,-y,1/2+z
1/2+x,1/2-y,-z
1/2-x,y,1/2-z
1/2-x,1/2-y,-z
1/2+x,y,1/2-z
1/2-x,1/2+y,z
1/2+x,-y,1/2+z
loop_
_atom_site_type_symbol
_atom_site_label
_atom_site_fract_x
_atom_site_fract_y
_atom_site_fract_z
Si Si1 0.674956 0.918839 0.822289
Si Si2 0.167554 0.945784 0.966869
Si Si3 0.676363 0.791225 0.175060
Si Si4 0.676889 0.354226 0.468642
Si Si5 0.176919 0.690109 0.127554
O O1 0.500000 0.920144 0.815733
O O2 0.750000 0.940153 0.750000
O O3 0.728430 0.945639 0.895580
O O4 0.719754 0.861336 0.833442
O O5 0.000000 0.931336 0.945172
O O6 0.232787 0.904484 0.021491
O O7 0.165239 0.000000 0.000000
O O8 0.500000 0.789810 0.182782
O O9 0.750000 0.810023 0.250000
O O10 0.715237 0.825388 0.105469
O O11 0.735951 0.736406 0.158541
O O12 0.500000 0.364947 0.470285
O O13 0.706550 0.319808 0.540455
O O14 0.000000 0.697797 0.137123
#
# Coordination Sequence:
#
# PCOD9482411 Si02
#       5
#    16  16  16  16  16
#     4  10  20  34  54  81 111 140 173 215 262 311
#     4  10  21  37  58  82 105 133 173 218 266 319
#     4  11  22  34  50  75 107 142 178 213 254 305
#     4   9  20  37  55  76 102 136 177 217 260 311
#     4   9  18  33  53  77 104 136 174 213 256 306
#
# _framework density 9.1449470000000002
#
# number of rings (size 3 to 8) (size 9 to 14) (size 15 to 20)
#    0.000    2.200    0.000    4.200    0.000    8.800 
#    0.000    1.000    0.000    2.400    0.000    0.000 
#    0.000    0.000    0.000    0.000    0.000    0.000 
#
# Total GULP energy -223178.292982 kJ/mol
# GULP energy per Si atom -5579.457325 kJ/mol
# Density = 0.912413 g / cm^3
# Si number density = 9.144947 Si / 1000 Ang^3
#
#
#
# Elastic Constant Matrix: (Units=GPa)
#
#
# Indices 1 2 3 4 5 6 
#
# 1 -1.0635 18.9883 23.1437 0.0000 0.0000 0.0000
# 2 18.9883 27.2313 21.7694 0.0000 0.0000 0.0000
# 3 23.1437 21.7694 81.2319 0.0000 0.0000 0.0000
# 4 0.0000 0.0000 0.0000 2.6246 0.0000 0.0000
# 5 0.0000 0.0000 0.0000 0.0000 28.4170 0.0000
# 6 0.0000 0.0000 0.0000 0.0000 0.0000 38.5279
#
#
#
# Elastic Compliance Matrix: (Units=1/GPa)
#
#
# Indices 1 2 3 4 5 6 
#
# 1 -0.065369 0.039062 0.008156 0.000000 0.000000 0.000000
# 2 0.039062 0.023393 -0.017398 0.000000 0.000000 0.000000
# 3 0.008156 -0.017398 0.014649 0.000000 0.000000 0.000000
# 4 0.000000 0.000000 0.000000 0.381010 0.000000 0.000000
# 5 0.000000 0.000000 0.000000 0.000000 0.035190 0.000000
# 6 0.000000 0.000000 0.000000 0.000000 0.000000 0.025955
#
#
# Mechanical properties :
#
#
# Convention : Reuss Voigt Hill
#
# Bulk Modulus (GPa) = 30.94783 26.13363 28.54073
# Shear Modulus (GPa) = 13.66266 16.81378 15.23822
#
# Velocity S-wave (km/s) = 2.73611 3.03527 2.88956
# Velocity P-wave (km/s) = 5.19030 5.15785 5.17410
#
# Compressibility (1/GPa) = 0.03231244
#
# Stress axis : x y z
#
# Youngs Moduli (GPa) = -15.29772 42.74699 68.26304
#
# Poissons Ratio (x) = -1.66976 -0.55677
# Poissons Ratio (y) = 0.59755 1.18766
# Poissons Ratio (z) = 0.12477 0.74372
#
# Static dielectric constant tensor:
#      x y z
#    x 1.627520 0.000000 0.000000 
#    y 0.000000 1.589800 0.000000 
#    z 0.000000 0.000000 1.629320 
# 
# From -- ./inp_files/29709.got.cif
#   From: 2010.05.17/outbox.ucp.g08.bks.cvg/sg64_15_cif.got.tgz:29709.got - 2010.06.11 16:36:46.
