data_PCOD9482328
_publ_section_title
;
Structure prediction by ZEFSAII (Michael W. Deem and Ramdas Pophale) SiO2 
 PCOD9482328
Probable space group: C M C A
;
_chemical_formula_sum "Si O2"
_cell_formula_units_Z 80
_cell_length_a 14.642892
_cell_length_b 10.881694
_cell_length_c 18.495037
_cell_angle_alpha 90.000000
_cell_angle_beta 90.000000
_cell_angle_gamma 90.000000
_cell_volume 2946.989394
_symmetry_space_group_name_H-M "C M C A"
_symmetry_group_IT_number 64
_symmetry_cell_setting 'orthorhombic'
loop_
_space_group_symop_operation_xyz
x,y,z
-x,1/2-y,1/2+z
x,-y,-z
-x,1/2+y,1/2-z
-x,-y,-z
x,1/2+y,1/2-z
-x,y,z
x,1/2-y,1/2+z
1/2+x,1/2+y,z
1/2-x,-y,1/2+z
1/2+x,1/2-y,-z
1/2-x,y,1/2-z
1/2-x,1/2-y,-z
1/2+x,y,1/2-z
1/2-x,1/2+y,z
1/2+x,-y,1/2+z
loop_
_atom_site_type_symbol
_atom_site_label
_atom_site_fract_x
_atom_site_fract_y
_atom_site_fract_z
Si Si1 0.604106 0.677211 0.127764
Si Si2 0.102150 0.058535 0.430383
Si Si3 0.609435 0.374384 0.716905
Si Si4 0.233977 0.358443 0.326741
Si Si5 0.840437 0.180179 0.972343
O O1 0.500000 0.723214 0.132810
O O2 0.616637 0.591430 0.198716
O O3 0.676807 0.784782 0.143359
O O4 0.617137 0.629202 0.046235
O O5 0.143350 0.042536 0.350794
O O6 0.099869 0.203848 0.445089
O O7 0.000000 0.005457 0.428159
O O8 0.149988 0.000000 0.500000
O O9 0.500000 0.359715 0.704420
O O10 0.664348 0.249249 0.703051
O O11 0.250000 0.426076 0.250000
O O12 0.185463 0.398631 0.401848
O O13 0.750000 0.250000 0.000000
#
# Coordination Sequence:
#
# PCOD9482328 Si02
#       5
#    16  16  16  16  16
#     4   9  15  23  37  59  87 116 150 193 236 280
#     4   9  16  26  41  63  92 121 149 190 248 307
#     4   8  14  24  38  58  84 117 152 188 239 294
#     4   8  14  24  37  56  81 113 150 190 235 280
#     4   9  16  25  39  62  88 118 155 194 238 286
#
# _framework density 27.146349000000001
#
# number of rings (size 3 to 8) (size 9 to 14) (size 15 to 20)
#    0.000    3.400    0.000    0.600    0.000    0.800 
#    0.000    0.000    0.000    0.000    0.000  140.000 
#    0.000   89.600    0.000    3.600    0.000   31.800 
#
# Total GULP energy -223135.837624 kJ/mol
# GULP energy per Si atom -5578.395941 kJ/mol
# Density = 2.708456 g / cm^3
# Si number density = 27.146349 Si / 1000 Ang^3
#
#
#
# Elastic Constant Matrix: (Units=GPa)
#
#
# Indices 1 2 3 4 5 6 
#
# 1 101.1893 26.8876 60.1338 0.0000 0.0000 0.0000
# 2 26.8876 55.9115 59.0374 0.0000 0.0000 0.0000
# 3 60.1338 59.0374 377.5406 0.0000 0.0000 0.0000
# 4 0.0000 0.0000 0.0000 54.3540 0.0000 0.0000
# 5 0.0000 0.0000 0.0000 0.0000 50.9089 0.0000
# 6 0.0000 0.0000 0.0000 0.0000 0.0000 -9.7660
#
#
#
# Elastic Compliance Matrix: (Units=1/GPa)
#
#
# Indices 1 2 3 4 5 6 
#
# 1 0.011756 -0.004403 -0.001184 0.000000 0.000000 0.000000
# 2 -0.004403 0.023072 -0.002906 0.000000 0.000000 0.000000
# 3 -0.001184 -0.002906 0.003292 0.000000 0.000000 0.000000
# 4 0.000000 0.000000 0.000000 0.018398 0.000000 0.000000
# 5 0.000000 0.000000 0.000000 0.000000 0.019643 0.000000
# 6 0.000000 0.000000 0.000000 0.000000 0.000000 -0.102396
#
#
# Mechanical properties :
#
#
# Convention : Reuss Voigt Hill
#
# Bulk Modulus (GPa) = 47.32086 91.86209 69.59147
# Shear Modulus (GPa) = -2269.13214 45.00488 -1112.06363
#
# Velocity S-wave (km/s) = -28.94310 4.07610 -20.26189
# Velocity P-wave (km/s) = 33.15823 7.48771 22.84078
#
# Compressibility (1/GPa) = 0.02113233
#
# Stress axis : x y z
#
# Youngs Moduli (GPa) = 85.06244 43.34268 303.78601
#
# Poissons Ratio (x) = 0.19085 0.35966
# Poissons Ratio (y) = 0.37456 0.88295
# Poissons Ratio (z) = 0.10071 0.12598
#
# Static dielectric constant tensor:
#      x y z
#    x 2.073350 0.000000 0.000000 
#    y 0.000000 2.112170 0.000000 
#    z 0.000000 0.000000 2.207470 
# 
# From -- ./inp_files/32255.got.cif
#   From: 2010.05.17/outbox.cif.g08.bks.cpg/sg64_17_cif.got.tgz:32255.got - 2010.06.03 16:29:19.
