data_PCOD9482750
_publ_section_title
;
Structure prediction by ZEFSAII (Michael W. Deem and Ramdas Pophale) SiO2 
 PCOD9482750
Probable space group: C M M M
;
_chemical_formula_sum "Si O2"
_cell_formula_units_Z 88
_cell_length_a 14.772700
_cell_length_b 8.852023
_cell_length_c 30.010950
_cell_angle_alpha 90.000000
_cell_angle_beta 90.000000
_cell_angle_gamma 90.000000
_cell_volume 3924.480318
_symmetry_space_group_name_H-M "C M M M"
_symmetry_group_IT_number 65
_symmetry_cell_setting 'orthorhombic'
loop_
_space_group_symop_operation_xyz
x,y,z
-x,-y,z
x,-y,-z
-x,y,-z
-x,-y,-z
x,y,-z
-x,y,z
x,-y,z
1/2+x,1/2+y,z
1/2-x,1/2-y,z
1/2+x,1/2-y,-z
1/2-x,1/2+y,-z
1/2-x,1/2-y,-z
1/2+x,1/2+y,-z
1/2-x,1/2+y,z
1/2+x,1/2-y,z
loop_
_atom_site_type_symbol
_atom_site_label
_atom_site_fract_x
_atom_site_fract_y
_atom_site_fract_z
Si Si1 0.351531 0.681170 0.049113
Si Si2 0.611017 0.327339 0.592005
Si Si3 0.393519 0.166840 0.681030
Si Si4 0.147549 0.318869 0.138842
Si Si5 0.650144 0.679387 0.228245
Si Si6 0.610652 0.827332 0.500000
O O1 0.347045 0.500000 0.055354
O O2 0.250000 0.750000 0.046901
O O3 0.393869 0.757495 0.092755
O O4 0.392188 0.709788 0.000000
O O5 0.500000 0.327041 0.592268
O O6 0.640578 0.500000 0.594832
O O7 0.642994 0.236849 0.635436
O O8 0.638910 0.254429 0.545317
O O9 0.500000 0.149301 0.673053
O O10 0.387048 0.273523 0.723840
O O11 0.354324 0.000000 0.690765
O O12 0.150448 0.500000 0.139221
O O13 0.250000 0.250000 0.138596
O O14 0.105881 0.256067 0.184678
O O15 0.651045 0.500000 0.222505
O O16 0.750000 0.750000 0.229513
O O17 0.500000 0.827268 0.500000
O O18 0.641006 0.000000 0.500000
#
# Coordination Sequence:
#
# PCOD9482750 Si02
#       6
#    16  16  16  16  16   8
#     4   9  15  22  33  51  77 109 144 181 224 274
#     4   9  16  26  41  63  91 122 155 191 233 280
#     4  10  20  34  51  72  99 128 159 197 241 286
#     4  10  17  26  40  58  83 114 150 189 231 277
#     4  11  21  34  51  70  95 126 163 201 239 284
#     4   9  15  23  37  59  88 121 154 189 232 279
#
# _framework density 22.423352999999999
#
# number of rings (size 3 to 8) (size 9 to 14) (size 15 to 20)
#    0.000    2.273    0.000    7.364    0.000    5.455 
#    0.000    0.000    0.000    0.000    0.000    0.636 
#    0.000    0.727    0.000    7.636    0.000    6.364 
#
# Total GULP energy -245677.589023 kJ/mol
# GULP energy per Si atom -5583.581569 kJ/mol
# Density = 2.237232 g / cm^3
# Si number density = 22.423353 Si / 1000 Ang^3
#
#
#
# Elastic Constant Matrix: (Units=GPa)
#
#
# Indices 1 2 3 4 5 6 
#
# 1 54.8801 11.7220 12.8185 0.0000 0.0000 0.0000
# 2 11.7220 207.5019 103.0217 0.0000 0.0000 0.0000
# 3 12.8185 103.0217 232.3204 0.0000 0.0000 0.0000
# 4 0.0000 0.0000 0.0000 22.6228 0.0000 0.0000
# 5 0.0000 0.0000 0.0000 0.0000 0.7902 0.0000
# 6 0.0000 0.0000 0.0000 0.0000 0.0000 3.1819
#
#
#
# Elastic Compliance Matrix: (Units=1/GPa)
#
#
# Indices 1 2 3 4 5 6 
#
# 1 0.018537 -0.000692 -0.000716 0.000000 0.000000 0.000000
# 2 -0.000692 0.006206 -0.002714 0.000000 0.000000 0.000000
# 3 -0.000716 -0.002714 0.005547 0.000000 0.000000 0.000000
# 4 0.000000 0.000000 0.000000 0.044203 0.000000 0.000000
# 5 0.000000 0.000000 0.000000 0.000000 1.265493 0.000000
# 6 0.000000 0.000000 0.000000 0.000000 0.000000 0.314277
#
#
# Mechanical properties :
#
#
# Convention : Reuss Voigt Hill
#
# Bulk Modulus (GPa) = 45.35839 83.31410 64.33624
# Shear Modulus (GPa) = 2.99427 29.79499 16.39463
#
# Velocity S-wave (km/s) = 1.15682 3.64915 2.70690
# Velocity P-wave (km/s) = 4.69643 7.41558 6.20674
#
# Compressibility (1/GPa) = 0.02204664
#
# Stress axis : x y z
#
# Youngs Moduli (GPa) = 53.94754 161.14430 180.26815
#
# Poissons Ratio (x) = 0.11145 0.12908
# Poissons Ratio (y) = 0.03731 0.48919
# Poissons Ratio (z) = 0.03863 0.43730
#
# Static dielectric constant tensor:
#      x y z
#    x 1.953320 0.000000 0.000000 
#    y 0.000000 1.776560 0.000000 
#    z 0.000000 0.000000 1.879200 
# 
# From -- ./inp_files/78103.got.cif
#   From: 2010.05.17/outbox.cif.g08.bks.cpg/sg65_40_cif.got.tgz:78103.got - 2010.06.03 17:01:31.
