data_PCOD9482289
_publ_section_title
;
Structure prediction by ZEFSAII (Michael W. Deem and Ramdas Pophale) SiO2 
 PCOD9482289
Probable space group: C M C A
;
_chemical_formula_sum "Si O2"
_cell_formula_units_Z 72
_cell_length_a 14.218658
_cell_length_b 9.647890
_cell_length_c 24.076202
_cell_angle_alpha 90.000000
_cell_angle_beta 90.000000
_cell_angle_gamma 90.000000
_cell_volume 3302.774554
_symmetry_space_group_name_H-M "C M C A"
_symmetry_group_IT_number 64
_symmetry_cell_setting 'orthorhombic'
loop_
_space_group_symop_operation_xyz
x,y,z
-x,1/2-y,1/2+z
x,-y,-z
-x,1/2+y,1/2-z
-x,-y,-z
x,1/2+y,1/2-z
-x,y,z
x,1/2-y,1/2+z
1/2+x,1/2+y,z
1/2-x,-y,1/2+z
1/2+x,1/2-y,-z
1/2-x,y,1/2-z
1/2-x,1/2-y,-z
1/2+x,y,1/2-z
1/2-x,1/2+y,z
1/2+x,-y,1/2+z
loop_
_atom_site_type_symbol
_atom_site_label
_atom_site_fract_x
_atom_site_fract_y
_atom_site_fract_z
Si Si1 0.500000 0.720755 0.606184
Si Si2 0.295640 0.116392 0.194594
Si Si3 0.500000 0.473842 0.161256
Si Si4 0.201566 0.620821 0.634423
Si Si5 0.682365 0.361857 0.467484
Si Si6 0.500000 0.494144 0.706879
O O1 0.592676 0.701633 0.566659
O O2 0.500000 0.607616 0.656942
O O3 0.500000 0.867675 0.638855
O O4 0.250000 0.175950 0.250000
O O5 0.274255 0.220167 0.144985
O O6 0.247116 0.970997 0.182601
O O7 0.405908 0.094941 0.200469
O O8 0.408162 0.401874 0.137483
O O9 0.500000 0.458341 0.228462
O O10 0.247145 0.575008 0.577896
O O11 0.648476 0.500000 0.500000
O O12 0.750000 0.250000 0.500000
#
# Coordination Sequence:
#
# PCOD9482289 Si02
#       6
#     8  16   8  16  16   8
#     4  12  27  49  74 109 145 191 253 301 365 443
#     4  12  25  43  69 104 145 190 231 282 357 443
#     4  12  27  42  72 111 148 189 234 291 360 452
#     4  12  26  46  70 105 146 185 242 298 358 428
#     4  12  27  50  76 101 140 192 253 314 370 417
#     4  12  27  41  72 104 152 186 231 278 370 439
#
# _framework density 21.799854
#
# number of rings (size 3 to 8) (size 9 to 14) (size 15 to 20)
#    0.000    0.000    4.444    5.667    3.111    0.889 
#    0.000    2.222    0.000    0.000    0.000    0.000 
#    0.000    0.000    0.000    0.000    0.000    0.000 
#
# Total GULP energy -201179.084051 kJ/mol
# GULP energy per Si atom -5588.307890 kJ/mol
# Density = 2.175024 g / cm^3
# Si number density = 21.799854 Si / 1000 Ang^3
#
#
#
# Elastic Constant Matrix: (Units=GPa)
#
#
# Indices 1 2 3 4 5 6 
#
# 1 152.9347 26.6610 37.0460 0.0000 0.0000 0.0000
# 2 26.6610 100.2169 31.4191 0.0000 0.0000 0.0000
# 3 37.0460 31.4191 100.3549 0.0000 0.0000 0.0000
# 4 0.0000 0.0000 0.0000 47.1617 0.0000 0.0000
# 5 0.0000 0.0000 0.0000 0.0000 41.1043 0.0000
# 6 0.0000 0.0000 0.0000 0.0000 0.0000 11.6933
#
#
#
# Elastic Compliance Matrix: (Units=1/GPa)
#
#
# Indices 1 2 3 4 5 6 
#
# 1 0.007313 -0.001219 -0.002318 0.000000 0.000000 0.000000
# 2 -0.001219 0.011267 -0.003078 0.000000 0.000000 0.000000
# 3 -0.002318 -0.003078 0.011784 0.000000 0.000000 0.000000
# 4 0.000000 0.000000 0.000000 0.021204 0.000000 0.000000
# 5 0.000000 0.000000 0.000000 0.000000 0.024328 0.000000
# 6 0.000000 0.000000 0.000000 0.000000 0.000000 0.085519
#
#
# Mechanical properties :
#
#
# Convention : Reuss Voigt Hill
#
# Bulk Modulus (GPa) = 58.35909 60.41762 59.38835
# Shear Modulus (GPa) = 27.72298 37.21721 32.47010
#
# Velocity S-wave (km/s) = 3.56997 4.13634 3.86354
# Velocity P-wave (km/s) = 6.61977 7.11247 6.87054
#
# Compressibility (1/GPa) = 0.01713529
#
# Stress axis : x y z
#
# Youngs Moduli (GPa) = 136.74888 88.75102 84.86172
#
# Poissons Ratio (x) = 0.10816 0.19670
# Poissons Ratio (y) = 0.16666 0.26118
# Poissons Ratio (z) = 0.31697 0.27315
#
# Static dielectric constant tensor:
#      x y z
#    x 1.758240 0.000000 0.000000 
#    y 0.000000 1.795590 0.000000 
#    z 0.000000 0.000000 1.827960 
# 
# From -- ./inp_files/49852.got.cif
#   From: 2010.05.17/outbox.cif.g08.bks.cpg/sg64_25_cif.got.tgz:49852.got - 2010.06.03 16:29:19.
