data_PCOD9482244
_publ_section_title
;
Structure prediction by ZEFSAII (Michael W. Deem and Ramdas Pophale) SiO2 
 PCOD9482244
Probable space group: C M C A
;
_chemical_formula_sum "Si O2"
_cell_formula_units_Z 72
_cell_length_a 21.309439
_cell_length_b 8.146515
_cell_length_c 17.139217
_cell_angle_alpha 90.000000
_cell_angle_beta 90.000000
_cell_angle_gamma 90.000000
_cell_volume 2975.328042
_symmetry_space_group_name_H-M "C M C A"
_symmetry_group_IT_number 64
_symmetry_cell_setting 'orthorhombic'
loop_
_space_group_symop_operation_xyz
x,y,z
-x,1/2-y,1/2+z
x,-y,-z
-x,1/2+y,1/2-z
-x,-y,-z
x,1/2+y,1/2-z
-x,y,z
x,1/2-y,1/2+z
1/2+x,1/2+y,z
1/2-x,-y,1/2+z
1/2+x,1/2-y,-z
1/2-x,y,1/2-z
1/2-x,1/2-y,-z
1/2+x,y,1/2-z
1/2-x,1/2+y,z
1/2+x,-y,1/2+z
loop_
_atom_site_type_symbol
_atom_site_label
_atom_site_fract_x
_atom_site_fract_y
_atom_site_fract_z
Si Si1 0.000000 0.587020 0.658263
Si Si2 0.186121 0.483368 0.700240
Si Si3 0.841986 0.000000 0.500000
Si Si4 0.000000 0.194518 0.661967
Si Si5 0.861313 0.127764 0.650889
Si Si6 0.874899 0.646988 0.563292
O O1 0.000000 0.650442 0.746475
O O2 0.060876 0.643735 0.611242
O O3 0.000000 0.390238 0.656330
O O4 0.250000 0.483957 0.750000
O O5 0.137559 0.530951 0.768152
O O6 0.166196 0.306848 0.667988
O O7 0.177939 0.610939 0.629265
O O8 0.817145 0.956599 0.413781
O O9 0.869849 0.821011 0.521156
O O10 0.934494 0.132218 0.625626
O O11 0.873069 0.500000 0.500000
#
# Coordination Sequence:
#
# PCOD9482244 Si02
#       6
#     8  16   8   8  16  16
#     4  12  25  41  76 115 161 211 258 330 408 485
#     4  12  26  51  79 108 158 214 267 326 392 479
#     4  12  28  47  80 120 164 204 266 335 406 484
#     4  12  22  43  74 113 161 204 264 333 392 486
#     4  12  25  47  75 116 153 210 268 327 409 475
#     4  12  25  50  77 121 163 205 268 334 409 482
#
# _framework density 24.199013000000001
#
# number of rings (size 3 to 8) (size 9 to 14) (size 15 to 20)
#    0.000    0.000    6.667    2.333    3.111    1.778 
#    2.000    3.333    0.000    0.000    0.000    0.000 
#    0.000    0.000    0.000    0.000    0.000    0.000 
#
# Total GULP energy -201247.242867 kJ/mol
# GULP energy per Si atom -5590.201191 kJ/mol
# Density = 2.414393 g / cm^3
# Si number density = 24.199013 Si / 1000 Ang^3
#
#
#
# Elastic Constant Matrix: (Units=GPa)
#
#
# Indices 1 2 3 4 5 6 
#
# 1 143.1359 17.2704 31.9083 0.0000 0.0000 0.0000
# 2 17.2704 138.8740 46.9054 0.0000 0.0000 0.0000
# 3 31.9083 46.9054 169.0617 0.0000 0.0000 0.0000
# 4 0.0000 0.0000 0.0000 32.6786 0.0000 0.0000
# 5 0.0000 0.0000 0.0000 0.0000 -448.2086 0.0000
# 6 0.0000 0.0000 0.0000 0.0000 0.0000 1.9758
#
#
#
# Elastic Compliance Matrix: (Units=1/GPa)
#
#
# Indices 1 2 3 4 5 6 
#
# 1 0.007323 -0.000490 -0.001246 0.000000 0.000000 0.000000
# 2 -0.000490 0.007978 -0.002121 0.000000 0.000000 0.000000
# 3 -0.001246 -0.002121 0.006739 0.000000 0.000000 0.000000
# 4 0.000000 0.000000 0.000000 0.030601 0.000000 0.000000
# 5 0.000000 0.000000 0.000000 0.000000 -0.002231 0.000000
# 6 0.000000 0.000000 0.000000 0.000000 0.000000 0.506114
#
#
# Mechanical properties :
#
#
# Convention : Reuss Voigt Hill
#
# Bulk Modulus (GPa) = 69.80399 71.47108 70.63754
# Shear Modulus (GPa) = 8.78714 -59.04499 -25.12892
#
# Velocity S-wave (km/s) = 1.90764 -4.94497 -3.22596
# Velocity P-wave (km/s) = 5.81038 1.73344 3.92146
#
# Compressibility (1/GPa) = 0.01432583
#
# Stress axis : x y z
#
# Youngs Moduli (GPa) = 136.55065 125.34354 148.39668
#
# Poissons Ratio (x) = 0.06139 0.18495
# Poissons Ratio (y) = 0.06688 0.31475
# Poissons Ratio (z) = 0.17018 0.26586
#
# Static dielectric constant tensor:
#      x y z
#    x 1.988340 0.000000 0.000000 
#    y 0.000000 1.879890 0.000000 
#    z 0.000000 0.000000 1.949200 
# 
# From -- ./inp_files/34865.got.cif
#   From: 2010.05.17/outbox.cif.g08.bks.cpg/sg64_18_cif.got.tgz:34865.got - 2010.06.03 16:29:19.
