data_PCOD9482594
_publ_section_title
;
Structure prediction by ZEFSAII (Michael W. Deem and Ramdas Pophale) SiO2 
 PCOD9482594
Probable space group: C M M M
;
_chemical_formula_sum "Si O2"
_cell_formula_units_Z 80
_cell_length_a 18.360266
_cell_length_b 8.685273
_cell_length_c 26.928533
_cell_angle_alpha 90.000000
_cell_angle_beta 90.000000
_cell_angle_gamma 90.000000
_cell_volume 4294.129501
_symmetry_space_group_name_H-M "C M M M"
_symmetry_group_IT_number 65
_symmetry_cell_setting 'orthorhombic'
loop_
_space_group_symop_operation_xyz
x,y,z
-x,-y,z
x,-y,-z
-x,y,-z
-x,-y,-z
x,y,-z
-x,y,z
x,-y,z
1/2+x,1/2+y,z
1/2-x,1/2-y,z
1/2+x,1/2-y,-z
1/2-x,1/2+y,-z
1/2-x,1/2-y,-z
1/2+x,1/2+y,-z
1/2-x,1/2+y,z
1/2+x,1/2-y,z
loop_
_atom_site_type_symbol
_atom_site_label
_atom_site_fract_x
_atom_site_fract_y
_atom_site_fract_z
Si Si1 0.914890 0.315658 0.194397
Si Si2 0.916434 0.812518 0.000000
Si Si3 0.332962 0.816681 0.500000
Si Si4 0.167724 0.184157 0.600943
Si Si5 0.167854 0.184617 0.288851
Si Si6 0.168689 0.185074 0.900775
O O1 0.907954 0.500000 0.192786
O O2 0.880174 0.254156 0.245221
O O3 0.872461 0.244195 0.147938
O O4 0.000000 0.274655 0.191605
O O5 0.874448 0.764489 0.049719
O O6 0.000000 0.759610 0.000000
O O7 0.917410 0.000000 0.000000
O O8 0.250000 0.750000 0.500000
O O9 0.367021 0.756395 0.448493
O O10 0.329575 0.000000 0.500000
O O11 0.250000 0.250000 0.602814
O O12 0.137618 0.220670 0.655745
O O13 0.170475 0.000000 0.595209
O O14 0.250000 0.250000 0.284972
O O15 0.171279 0.000000 0.284301
O O16 0.250000 0.250000 0.901803
O O17 0.171026 0.000000 0.899940
#
# Coordination Sequence:
#
# PCOD9482594 Si02
#       6
#    16   8   8  16  16  16
#     4  11  24  40  57  79 108 141 179 224 273 325
#     4   9  19  36  59  87 116 149 188 227 268 314
#     4  10  16  22  36  60  93 132 169 208 257 311
#     4   9  16  26  41  64  95 130 168 211 259 311
#     4  10  20  34  54  78 105 139 178 221 269 322
#     4  11  22  38  61  86 115 148 184 226 269 319
#
# _framework density 18.630085000000001
#
# number of rings (size 3 to 8) (size 9 to 14) (size 15 to 20)
#    0.000    1.900    0.000    6.000    0.000    4.800 
#    0.000    1.500    0.000    3.600    0.000    0.700 
#    0.000    5.600    0.000    0.000    0.000    0.000 
#
# Total GULP energy -223287.026702 kJ/mol
# GULP energy per Si atom -5582.175668 kJ/mol
# Density = 1.858768 g / cm^3
# Si number density = 18.630085 Si / 1000 Ang^3
#
#
#
# Elastic Constant Matrix: (Units=GPa)
#
#
# Indices 1 2 3 4 5 6 
#
# 1 111.4391 45.6029 92.9532 0.0000 0.0000 0.0000
# 2 45.6029 78.1047 69.7256 0.0000 0.0000 0.0000
# 3 92.9532 69.7256 227.4280 0.0000 0.0000 0.0000
# 4 0.0000 0.0000 0.0000 -224.0543 0.0000 0.0000
# 5 0.0000 0.0000 0.0000 0.0000 -10.5766 0.0000
# 6 0.0000 0.0000 0.0000 0.0000 0.0000 11.4543
#
#
#
# Elastic Compliance Matrix: (Units=1/GPa)
#
#
# Indices 1 2 3 4 5 6 
#
# 1 0.014643 -0.004415 -0.004631 0.000000 0.000000 0.000000
# 2 -0.004415 0.018959 -0.004008 0.000000 0.000000 0.000000
# 3 -0.004631 -0.004008 0.007519 0.000000 0.000000 0.000000
# 4 0.000000 0.000000 0.000000 -0.004463 0.000000 0.000000
# 5 0.000000 0.000000 0.000000 0.000000 -0.094549 0.000000
# 6 0.000000 0.000000 0.000000 0.000000 0.000000 0.087304
#
#
# Mechanical properties :
#
#
# Convention : Reuss Voigt Hill
#
# Bulk Modulus (GPa) = 66.61300 92.61503 79.61401
# Shear Modulus (GPa) = 82.60844 -30.72265 25.94290
#
# Velocity S-wave (km/s) = 6.66616 -4.06530 3.73571
# Velocity P-wave (km/s) = 9.75108 5.27114 7.83800
#
# Compressibility (1/GPa) = 0.01501209
#
# Stress axis : x y z
#
# Youngs Moduli (GPa) = 68.29015 52.74448 133.00242
#
# Poissons Ratio (x) = 0.23289 0.61597
# Poissons Ratio (y) = 0.30153 0.53307
# Poissons Ratio (z) = 0.31627 0.21140
#
# Static dielectric constant tensor:
#      x y z
#    x 1.611120 0.000000 0.000000 
#    y 0.000000 1.623290 0.000000 
#    z 0.000000 0.000000 1.676080 
# 
# From -- ./inp_files/70811.got.cif
#   From: 2010.05.17/outbox.cif.g08.bks.cpg/sg65_36_cif.got.tgz:70811.got - 2010.06.03 17:01:31.
