data_PCOD9482034
_publ_section_title
;
Structure prediction by ZEFSAII (Michael W. Deem and Ramdas Pophale) SiO2 
 PCOD9482034
Probable space group: C M C A
;
_chemical_formula_sum "Si O2"
_cell_formula_units_Z 64
_cell_length_a 26.132645
_cell_length_b 7.465678
_cell_length_c 13.456371
_cell_angle_alpha 90.000000
_cell_angle_beta 90.000000
_cell_angle_gamma 90.000000
_cell_volume 2625.309897
_symmetry_space_group_name_H-M "C M C A"
_symmetry_group_IT_number 64
_symmetry_cell_setting 'orthorhombic'
loop_
_space_group_symop_operation_xyz
x,y,z
-x,1/2-y,1/2+z
x,-y,-z
-x,1/2+y,1/2-z
-x,-y,-z
x,1/2+y,1/2-z
-x,y,z
x,1/2-y,1/2+z
1/2+x,1/2+y,z
1/2-x,-y,1/2+z
1/2+x,1/2-y,-z
1/2-x,y,1/2-z
1/2-x,1/2-y,-z
1/2+x,y,1/2-z
1/2-x,1/2+y,z
1/2+x,-y,1/2+z
loop_
_atom_site_type_symbol
_atom_site_label
_atom_site_fract_x
_atom_site_fract_y
_atom_site_fract_z
Si Si1 0.000000 0.848185 0.117470
Si Si2 0.266234 0.265692 0.385721
Si Si3 0.084529 0.931363 0.599360
Si Si4 0.500000 0.274378 0.348946
Si Si5 0.819691 0.406400 0.779083
O O1 0.050442 0.745657 0.076871
O O2 0.000000 0.776349 0.230321
O O3 0.000000 0.934318 0.885273
O O4 0.250000 0.250000 0.500000
O O5 0.212786 0.255259 0.326447
O O6 0.303958 0.115543 0.336288
O O7 0.296393 0.440400 0.350301
O O8 0.121306 0.896061 0.692655
O O9 0.113238 0.000000 0.500000
O O10 0.047634 0.099033 0.622039
#
# Coordination Sequence:
#
# PCOD9482034 Si02
#       5
#     8  16  16   8  16
#     4  11  23  43  72 105 148 195 253 320 401 462
#     4  11  23  44  70 103 150 196 246 314 383 455
#     4  11  25  45  72 106 151 198 258 328 393 471
#     4  11  23  43  70 109 146 197 257 324 393 478
#     4  11  25  44  71 106 145 197 253 311 374 462
#
# _framework density 24.378074999999999
#
# number of rings (size 3 to 8) (size 9 to 14) (size 15 to 20)
#    0.000    1.000    2.500    6.750    3.500    2.000 
#    4.500    0.000    0.000    0.000    0.000    0.000 
#    0.000    0.000    0.000    0.000    0.000    0.000 
#
# Total GULP energy -178335.714913 kJ/mol
# GULP energy per Si atom -5572.991091 kJ/mol
# Density = 2.432259 g / cm^3
# Si number density = 24.378075 Si / 1000 Ang^3
#
#
#
# Elastic Constant Matrix: (Units=GPa)
#
#
# Indices 1 2 3 4 5 6 
#
# 1 134.4461 57.8085 46.0775 0.0000 0.0000 0.0000
# 2 57.8085 204.5818 17.6402 0.0000 0.0000 0.0000
# 3 46.0775 17.6402 159.3839 0.0000 0.0000 0.0000
# 4 0.0000 0.0000 0.0000 31.5901 0.0000 0.0000
# 5 0.0000 0.0000 0.0000 0.0000 40.1974 0.0000
# 6 0.0000 0.0000 0.0000 0.0000 0.0000 15.6327
#
#
#
# Elastic Compliance Matrix: (Units=1/GPa)
#
#
# Indices 1 2 3 4 5 6 
#
# 1 0.009310 -0.002422 -0.002423 0.000000 0.000000 0.000000
# 2 -0.002422 0.005565 0.000084 0.000000 0.000000 0.000000
# 3 -0.002423 0.000084 0.006965 0.000000 0.000000 0.000000
# 4 0.000000 0.000000 0.000000 0.031655 0.000000 0.000000
# 5 0.000000 0.000000 0.000000 0.000000 0.024877 0.000000
# 6 0.000000 0.000000 0.000000 0.000000 0.000000 0.063969
#
#
# Mechanical properties :
#
#
# Convention : Reuss Voigt Hill
#
# Bulk Modulus (GPa) = 81.17920 82.38490 81.78205
# Shear Modulus (GPa) = 32.05754 42.60975 37.33365
#
# Velocity S-wave (km/s) = 3.63025 4.18529 3.91761
# Velocity P-wave (km/s) = 7.13751 7.56463 7.35417
#
# Compressibility (1/GPa) = 0.01231843
#
# Stress axis : x y z
#
# Youngs Moduli (GPa) = 107.41440 179.69275 143.56596
#
# Poissons Ratio (x) = 0.43516 0.34792
# Poissons Ratio (y) = 0.26012 -0.01209
# Poissons Ratio (z) = 0.26031 -0.01513
#
# Static dielectric constant tensor:
#      x y z
#    x 1.961670 0.000000 0.000000 
#    y 0.000000 1.792640 0.000000 
#    z 0.000000 0.000000 2.040610 
# 
# From -- ./inp_files/19513.got.cif
#   From: 2010.05.17/outbox.cif.g08.bks.cpg/sg64_10_cif.got.tgz:19513.got - 2010.06.03 16:29:19.
