data_PCOD9482706
_publ_section_title
;
Structure prediction by ZEFSAII (Michael W. Deem and Ramdas Pophale) SiO2 
 PCOD9482706
Probable space group: C M M M
;
_chemical_formula_sum "Si O2"
_cell_formula_units_Z 88
_cell_length_a 17.033151
_cell_length_b 15.040863
_cell_length_c 13.529349
_cell_angle_alpha 90.000000
_cell_angle_beta 90.000000
_cell_angle_gamma 90.000000
_cell_volume 3466.128441
_symmetry_space_group_name_H-M "C M M M"
_symmetry_group_IT_number 65
_symmetry_cell_setting 'orthorhombic'
loop_
_space_group_symop_operation_xyz
x,y,z
-x,-y,z
x,-y,-z
-x,y,-z
-x,-y,-z
x,y,-z
-x,y,z
x,-y,z
1/2+x,1/2+y,z
1/2-x,1/2-y,z
1/2+x,1/2-y,-z
1/2-x,1/2+y,-z
1/2-x,1/2-y,-z
1/2+x,1/2+y,-z
1/2-x,1/2+y,z
1/2+x,1/2-y,z
loop_
_atom_site_type_symbol
_atom_site_label
_atom_site_fract_x
_atom_site_fract_y
_atom_site_fract_z
Si Si1 0.500000 0.604510 0.613876
Si Si2 0.409997 0.158430 0.606255
Si Si3 0.416029 0.334654 0.883500
Si Si4 0.914223 0.629669 0.176088
Si Si5 0.670847 0.342944 0.613807
Si Si6 0.246136 0.858060 0.186298
O O1 0.500000 0.500000 0.609760
O O2 0.500000 0.637405 0.500000
O O3 0.414895 0.628523 0.654184
O O4 0.401293 0.112477 0.500000
O O5 0.500000 0.196636 0.606839
O O6 0.409106 0.106125 0.707974
O O7 0.345308 0.236876 0.608725
O O8 0.500000 0.378526 0.859873
O O9 0.415730 0.237515 0.831445
O O10 0.335921 0.385371 0.861562
O O11 0.415632 0.314389 0.000000
O O12 0.826876 0.605304 0.140419
O O13 0.000000 0.600712 0.136660
O O14 0.683550 0.373467 0.500000
O O15 0.731985 0.373881 0.696366
O O16 0.250000 0.750000 0.174564
#
# Coordination Sequence:
#
# PCOD9482706 Si02
#       6
#     8  16  16  16  16  16
#     4   9  18  30  42  58  81 111 143 175 213 247
#     4   9  14  21  34  51  71 100 129 154 189 229
#     4   9  17  27  37  49  71 104 140 177 206 232
#     4   9  17  27  35  49  76 106 135 165 197 233
#     4  10  17  24  38  57  79 104 131 164 202 242
#     4  10  18  25  37  58  77 106 135 169 203 242
#
# _framework density 25.388558
#
# number of rings (size 3 to 8) (size 9 to 14) (size 15 to 20)
#    0.000    2.636    4.545    0.000    1.273    4.364 
#    0.000    0.000    0.000    0.000    0.000    0.000 
#    0.000    2.182    0.000    4.545    0.000    0.000 
#
# Total GULP energy -245213.121401 kJ/mol
# GULP energy per Si atom -5573.025486 kJ/mol
# Density = 2.533077 g / cm^3
# Si number density = 25.388558 Si / 1000 Ang^3
#
#
#
# Elastic Constant Matrix: (Units=GPa)
#
#
# Indices 1 2 3 4 5 6 
#
# 1 257.4644 9.0994 26.3066 0.0000 0.0000 0.0000
# 2 9.0994 47.8954 2.2486 0.0000 0.0000 0.0000
# 3 26.3066 2.2486 73.6136 0.0000 0.0000 0.0000
# 4 0.0000 0.0000 0.0000 -13.9196 0.0000 0.0000
# 5 0.0000 0.0000 0.0000 0.0000 7.1855 0.0000
# 6 0.0000 0.0000 0.0000 0.0000 0.0000 -16.6458
#
#
#
# Elastic Compliance Matrix: (Units=1/GPa)
#
#
# Indices 1 2 3 4 5 6 
#
# 1 0.004055 -0.000703 -0.001428 0.000000 0.000000 0.000000
# 2 -0.000703 0.021031 -0.000391 0.000000 0.000000 0.000000
# 3 -0.001428 -0.000391 0.014107 0.000000 0.000000 0.000000
# 4 0.000000 0.000000 0.000000 -0.071841 0.000000 0.000000
# 5 0.000000 0.000000 0.000000 0.000000 0.139169 0.000000
# 6 0.000000 0.000000 0.000000 0.000000 0.000000 -0.060075
#
#
# Mechanical properties :
#
#
# Convention : Reuss Voigt Hill
#
# Bulk Modulus (GPa) = 29.28410 50.47585 39.87997
# Shear Modulus (GPa) = 79.52795 18.07862 48.80329
#
# Velocity S-wave (km/s) = 5.60289 2.67137 4.38911
# Velocity P-wave (km/s) = 7.30861 5.42582 6.43643
#
# Compressibility (1/GPa) = 0.03414823
#
# Stress axis : x y z
#
# Youngs Moduli (GPa) = 246.62455 47.54933 70.88918
#
# Poissons Ratio (x) = 0.03344 0.10120
# Poissons Ratio (y) = 0.17345 0.02772
# Poissons Ratio (z) = 0.35206 0.01860
#
# Static dielectric constant tensor:
#      x y z
#    x 2.143460 0.000000 0.000000 
#    y 0.000000 1.988170 0.000000 
#    z 0.000000 0.000000 2.029090 
# 
# From -- ./inp_files/43001.got.cif
#   From: 2010.05.17/outbox.cif.g08.bks.cpg/sg65_22_cif.got.tgz:43001.got - 2010.06.03 17:01:31.
