data_PCOD9482091
_publ_section_title
;
Structure prediction by ZEFSAII (Michael W. Deem and Ramdas Pophale) SiO2 
 PCOD9482091
Probable space group: C M C A
;
_chemical_formula_sum "Si O2"
_cell_formula_units_Z 64
_cell_length_a 29.705482
_cell_length_b 10.248390
_cell_length_c 9.198086
_cell_angle_alpha 90.000000
_cell_angle_beta 90.000000
_cell_angle_gamma 90.000000
_cell_volume 2800.204270
_symmetry_space_group_name_H-M "C M C A"
_symmetry_group_IT_number 64
_symmetry_cell_setting 'orthorhombic'
loop_
_space_group_symop_operation_xyz
x,y,z
-x,1/2-y,1/2+z
x,-y,-z
-x,1/2+y,1/2-z
-x,-y,-z
x,1/2+y,1/2-z
-x,y,z
x,1/2-y,1/2+z
1/2+x,1/2+y,z
1/2-x,-y,1/2+z
1/2+x,1/2-y,-z
1/2-x,y,1/2-z
1/2-x,1/2-y,-z
1/2+x,y,1/2-z
1/2-x,1/2+y,z
1/2+x,-y,1/2+z
loop_
_atom_site_type_symbol
_atom_site_label
_atom_site_fract_x
_atom_site_fract_y
_atom_site_fract_z
Si Si1 0.097837 0.033862 0.165398
Si Si2 0.731226 0.627943 0.586407
Si Si3 0.048426 0.140548 0.423485
Si Si4 0.370330 0.300648 0.370860
O O1 0.058676 0.106306 0.256313
O O2 0.135519 0.148597 0.171806
O O3 0.111295 0.901619 0.249337
O O4 0.087312 0.000000 0.000000
O O5 0.745371 0.500000 0.500000
O O6 0.750000 0.625855 0.750000
O O7 0.750000 0.750000 0.500000
O O8 0.677279 0.641612 0.584445
O O9 0.091817 0.201028 0.502323
O O10 0.000000 0.208864 0.439082
O O11 0.045210 0.000000 0.500000
#
# Coordination Sequence:
#
# PCOD9482091 Si02
#       4
#    16  16  16  16
#     4  11  24  41  72 104 140 191 237 293 360 424
#     4  12  30  49  76 111 148 194 250 307 374 444
#     4   9  20  42  68 100 142 187 234 289 353 424
#     4  11  26  46  73 102 147 189 234 300 364 431
#
# _framework density 22.855475999999999
#
# number of rings (size 3 to 8) (size 9 to 14) (size 15 to 20)
#    0.000    1.250    0.000    4.500   14.000    1.500 
#    0.000    5.000    0.000    0.000    0.000    0.000 
#    0.000    0.000    0.000    0.000    0.000    0.000 
#
# Total GULP energy -178854.056836 kJ/mol
# GULP energy per Si atom -5589.189276 kJ/mol
# Density = 2.280346 g / cm^3
# Si number density = 22.855476 Si / 1000 Ang^3
#
#
#
# Elastic Constant Matrix: (Units=GPa)
#
#
# Indices 1 2 3 4 5 6 
#
# 1 122.5360 26.0657 68.6903 0.0000 0.0000 0.0000
# 2 26.0657 152.2028 80.6796 0.0000 0.0000 0.0000
# 3 68.6903 80.6796 197.7463 0.0000 0.0000 0.0000
# 4 0.0000 0.0000 0.0000 37.4569 0.0000 0.0000
# 5 0.0000 0.0000 0.0000 0.0000 11.0897 0.0000
# 6 0.0000 0.0000 0.0000 0.0000 0.0000 271.2188
#
#
#
# Elastic Compliance Matrix: (Units=1/GPa)
#
#
# Indices 1 2 3 4 5 6 
#
# 1 0.010138 0.000167 -0.003589 0.000000 0.000000 0.000000
# 2 0.000167 0.008386 -0.003479 0.000000 0.000000 0.000000
# 3 -0.003589 -0.003479 0.007723 0.000000 0.000000 0.000000
# 4 0.000000 0.000000 0.000000 0.026697 0.000000 0.000000
# 5 0.000000 0.000000 0.000000 0.000000 0.090174 0.000000
# 6 0.000000 0.000000 0.000000 0.000000 0.000000 0.003687
#
#
# Mechanical properties :
#
#
# Convention : Reuss Voigt Hill
#
# Bulk Modulus (GPa) = 80.36910 91.48404 85.92657
# Shear Modulus (GPa) = 30.34775 83.75637 57.05206
#
# Velocity S-wave (km/s) = 3.64787 6.06017 5.00163
# Velocity P-wave (km/s) = 7.27894 9.43831 8.42807
#
# Compressibility (1/GPa) = 0.01244259
#
# Stress axis : x y z
#
# Youngs Moduli (GPa) = 98.64316 119.24703 129.47758
#
# Poissons Ratio (x) = -0.01986 0.46474
# Poissons Ratio (y) = -0.01643 0.45049
# Poissons Ratio (z) = 0.35407 0.41489
#
# Static dielectric constant tensor:
#      x y z
#    x 1.915420 0.000000 0.000000 
#    y 0.000000 1.853350 0.000000 
#    z 0.000000 0.000000 1.876580 
# 
# From -- ./inp_files/10850.got.cif
#   From: 2010.05.17/outbox.cif.g08.bks.cpg/sg64_6_cif.got.tgz:10850.got - 2010.06.03 16:29:19.
