data_PCOD9482668
_publ_section_title
;
Structure prediction by ZEFSAII (Michael W. Deem and Ramdas Pophale) SiO2 
 PCOD9482668
Probable space group: C M M M
;
_chemical_formula_sum "Si O2"
_cell_formula_units_Z 64
_cell_length_a 24.954625
_cell_length_b 16.291610
_cell_length_c 7.925315
_cell_angle_alpha 90.000000
_cell_angle_beta 90.000000
_cell_angle_gamma 90.000000
_cell_volume 3222.044883
_symmetry_space_group_name_H-M "C M M M"
_symmetry_group_IT_number 65
_symmetry_cell_setting 'orthorhombic'
loop_
_space_group_symop_operation_xyz
x,y,z
-x,-y,z
x,-y,-z
-x,y,-z
-x,-y,-z
x,y,-z
-x,y,z
x,-y,z
1/2+x,1/2+y,z
1/2-x,1/2-y,z
1/2+x,1/2-y,-z
1/2-x,1/2+y,-z
1/2-x,1/2-y,-z
1/2+x,1/2+y,-z
1/2-x,1/2+y,z
1/2+x,1/2-y,z
loop_
_atom_site_type_symbol
_atom_site_label
_atom_site_fract_x
_atom_site_fract_y
_atom_site_fract_z
Si Si1 0.809710 0.098118 0.000000
Si Si2 0.500000 0.330871 0.297621
Si Si3 0.311955 0.097815 0.000000
Si Si4 0.000000 0.356056 0.193943
Si Si5 0.616269 0.849881 0.313794
Si Si6 0.383062 0.348701 0.308519
O O1 0.748798 0.130467 0.000000
O O2 0.841491 0.125603 0.166735
O O3 0.808021 0.000000 0.000000
O O4 0.500000 0.312025 0.500000
O O5 0.500000 0.243771 0.202633
O O6 0.443928 0.375533 0.263675
O O7 0.344627 0.124422 0.835105
O O8 0.309391 0.000000 0.000000
O O9 0.944241 0.380934 0.279544
O O10 0.000000 0.382465 0.000000
O O11 0.633972 0.876475 0.500000
O O12 0.614347 0.750579 0.312109
O O13 0.370184 0.376294 0.500000
#
# Coordination Sequence:
#
# PCOD9482668 Si02
#       6
#     8   8   8   8  16  16
#     4  11  25  40  55  76 110 153 194 233 280 331
#     4   8  16  30  52  87 119 143 174 218 276 337
#     4  11  25  42  55  76 110 151 194 235 278 329
#     4  10  16  28  56  90 119 143 169 217 279 337
#     4  10  20  37  61  88 114 144 182 228 277 330
#     4   9  19  36  60  87 114 143 181 228 278 330
#
# _framework density 19.863164000000001
#
# number of rings (size 3 to 8) (size 9 to 14) (size 15 to 20)
#    0.000    2.250    1.250    3.375    5.250    4.000 
#    0.000    7.500    0.000    3.750    0.000    0.000 
#    0.000    0.000    0.000    0.000    0.000    0.000 
#
# Total GULP energy -178605.407116 kJ/mol
# GULP energy per Si atom -5581.418972 kJ/mol
# Density = 1.981795 g / cm^3
# Si number density = 19.863164 Si / 1000 Ang^3
#
#
#
# Elastic Constant Matrix: (Units=GPa)
#
#
# Indices 1 2 3 4 5 6 
#
# 1 192.5239 18.7544 115.2445 0.0000 0.0000 0.0000
# 2 18.7544 16.6889 17.0539 0.0000 0.0000 0.0000
# 3 115.2445 17.0539 177.3035 0.0000 0.0000 0.0000
# 4 0.0000 0.0000 0.0000 -23.4485 0.0000 0.0000
# 5 0.0000 0.0000 0.0000 0.0000 -33.6857 0.0000
# 6 0.0000 0.0000 0.0000 0.0000 0.0000 38.1867
#
#
#
# Elastic Compliance Matrix: (Units=1/GPa)
#
#
# Indices 1 2 3 4 5 6 
#
# 1 0.008794 -0.004482 -0.005285 0.000000 0.000000 0.000000
# 2 -0.004482 0.068736 -0.003698 0.000000 0.000000 0.000000
# 3 -0.005285 -0.003698 0.009431 0.000000 0.000000 0.000000
# 4 0.000000 0.000000 0.000000 -0.042647 0.000000 0.000000
# 5 0.000000 0.000000 0.000000 0.000000 -0.029686 0.000000
# 6 0.000000 0.000000 0.000000 0.000000 0.000000 0.026187
#
#
# Mechanical properties :
#
#
# Convention : Reuss Voigt Hill
#
# Bulk Modulus (GPa) = 16.65818 76.51356 46.58587
# Shear Modulus (GPa) = 56.97601 11.90807 34.44204
#
# Velocity S-wave (km/s) = 5.36158 2.45114 4.16861
# Velocity P-wave (km/s) = 6.83618 6.82750 6.83184
#
# Compressibility (1/GPa) = 0.06003056
#
# Stress axis : x y z
#
# Youngs Moduli (GPa) = 113.70791 14.54848 106.03327
#
# Poissons Ratio (x) = 0.06521 0.56040
# Poissons Ratio (y) = 0.50966 0.39211
# Poissons Ratio (z) = 0.60096 0.05380
#
# Static dielectric constant tensor:
#      x y z
#    x 1.718200 0.000000 0.000000 
#    y 0.000000 1.701460 0.000000 
#    z 0.000000 0.000000 1.814330 
# 
# From -- ./inp_files/13435.got.cif
#   From: 2010.05.17/outbox.cif.g08.bks.cpg/sg65_7_cif.got.tgz:13435.got - 2010.06.03 17:01:31.
