data_PCOD9482478
_publ_section_title
;
Structure prediction by ZEFSAII (Michael W. Deem and Ramdas Pophale) SiO2 
 PCOD9482478
Probable space group: C M C A
;
_chemical_formula_sum "Si O2"
_cell_formula_units_Z 48
_cell_length_a 18.000000
_cell_length_b 24.000000
_cell_length_c 12.000000
_cell_angle_alpha 90.000000
_cell_angle_beta 90.000000
_cell_angle_gamma 90.000000
_cell_volume 5184.000000
_symmetry_space_group_name_H-M "C M C A"
_symmetry_group_IT_number 64
_symmetry_cell_setting 'orthorhombic'
loop_
_space_group_symop_operation_xyz
x,y,z
-x,1/2-y,1/2+z
x,-y,-z
-x,1/2+y,1/2-z
-x,-y,-z
x,1/2+y,1/2-z
-x,y,z
x,1/2-y,1/2+z
1/2+x,1/2+y,z
1/2-x,-y,1/2+z
1/2+x,1/2-y,-z
1/2-x,y,1/2-z
1/2-x,1/2-y,-z
1/2+x,y,1/2-z
1/2-x,1/2+y,z
1/2+x,-y,1/2+z
loop_
_atom_site_type_symbol
_atom_site_label
_atom_site_fract_x
_atom_site_fract_y
_atom_site_fract_z
Si Si1 0.411872 0.650304 0.057986
Si Si2 0.413116 0.441670 0.565246
Si Si3 0.322305 0.876433 0.113770
Si Si4 0.151248 0.087427 0.856098
Si Si5 0.410986 0.032419 0.319270
Si Si6 0.292180 0.753666 0.624285
O O1 0.500000 0.664515 0.071191
O O2 0.397431 0.591006 0.119194
O O3 0.355606 0.698404 0.103881
O O4 0.394306 0.631732 0.930666
O O5 0.408942 0.500000 0.500000
O O6 0.500000 0.423891 0.568513
O O7 0.364051 0.397293 0.497109
O O8 0.388893 0.455484 0.691132
O O9 0.237552 0.899709 0.114803
O O10 0.359821 0.901284 0.224800
O O11 0.321588 0.809835 0.130471
O O12 0.128542 0.022456 0.869658
O O13 0.500000 0.021348 0.322660
O O14 0.250000 0.762785 0.750000
O O15 0.250000 0.750000 0.500000
#
# Coordination Sequence:
#
# PCOD9482478 Si02
#       6
#    16  16  16  16  16  16
#     4  11  25  43  68 101 130 175 231 278 340 411
#     4  10  21  38  61  92 131 169 212 273 333 394
#     4  11  23  41  65  95 127 175 233 271 330 419
#     4  11  21  42  63  95 136 171 218 276 337 411
#     4  10  22  41  64  95 134 169 211 275 343 404
#     4  12  25  49  70  94 138 183 225 288 345 396
#
# _framework density 9.2592590000000001
#
# number of rings (size 3 to 8) (size 9 to 14) (size 15 to 20)
#    0.000    1.167    5.000    1.000    2.333    4.000 
#    3.000    2.500    0.000    0.000    0.000    0.000 
#    0.000    0.000    0.000    0.000    0.000    0.000 
#
# Total GULP energy -267602.762684 kJ/mol
# GULP energy per Si atom -5575.057556 kJ/mol
# Density = 0.923818 g / cm^3
# Si number density = 9.259259 Si / 1000 Ang^3
#
#
#
# Elastic Constant Matrix: (Units=GPa)
#
#
# Indices 1 2 3 4 5 6 
#
# 1 81.6263 67.8279 35.7747 0.0000 0.0000 0.0000
# 2 67.8279 154.7763 36.9410 0.0000 0.0000 0.0000
# 3 35.7747 36.9410 94.8851 0.0000 0.0000 0.0000
# 4 0.0000 0.0000 0.0000 40.1387 0.0000 0.0000
# 5 0.0000 0.0000 0.0000 0.0000 30.8417 0.0000
# 6 0.0000 0.0000 0.0000 0.0000 0.0000 40.4282
#
#
#
# Elastic Compliance Matrix: (Units=1/GPa)
#
#
# Indices 1 2 3 4 5 6 
#
# 1 0.021077 -0.008092 -0.004796 0.000000 0.000000 0.000000
# 2 -0.008092 0.010229 -0.000932 0.000000 0.000000 0.000000
# 3 -0.004796 -0.000932 0.012710 0.000000 0.000000 0.000000
# 4 0.000000 0.000000 0.000000 0.024914 0.000000 0.000000
# 5 0.000000 0.000000 0.000000 0.000000 0.032424 0.000000
# 6 0.000000 0.000000 0.000000 0.000000 0.000000 0.024735
#
#
# Mechanical properties :
#
#
# Convention : Reuss Voigt Hill
#
# Bulk Modulus (GPa) = 61.06181 68.04164 64.55172
# Shear Modulus (GPa) = 31.40944 34.99799 33.20371
#
# Velocity S-wave (km/s) = 4.12285 4.35200 4.23898
# Velocity P-wave (km/s) = 7.46384 7.87880 7.67412
#
# Compressibility (1/GPa) = 0.01637685
#
# Stress axis : x y z
#
# Youngs Moduli (GPa) = 47.44496 97.75730 78.67719
#
# Poissons Ratio (x) = 0.79104 0.37736
# Poissons Ratio (y) = 0.38392 0.07330
# Poissons Ratio (z) = 0.22756 0.09108
#
# Static dielectric constant tensor:
#      x y z
#    x 1.658640 0.000000 0.000000 
#    y 0.000000 1.616590 0.000000 
#    z 0.000000 0.000000 1.703780 
# 
# From -- ./inp_files/16200.got.cif
#   From: 2010.05.17/outbox.ucp.g08.bks.cvg/sg64_9_cif.got.tgz:16200.got - 2010.06.11 16:36:46.
