data_PCOD9482860
_publ_section_title
;
Structure prediction by ZEFSAII (Michael W. Deem and Ramdas Pophale) SiO2 
 PCOD9482860
Probable space group: C M M M
;
_chemical_formula_sum "Si O2"
_cell_formula_units_Z 104
_cell_length_a 22.672766
_cell_length_b 28.215688
_cell_length_c 7.331116
_cell_angle_alpha 90.000000
_cell_angle_beta 90.000000
_cell_angle_gamma 90.000000
_cell_volume 4689.917915
_symmetry_space_group_name_H-M "C M M M"
_symmetry_group_IT_number 65
_symmetry_cell_setting 'orthorhombic'
loop_
_space_group_symop_operation_xyz
x,y,z
-x,-y,z
x,-y,-z
-x,y,-z
-x,-y,-z
x,y,-z
-x,y,z
x,-y,z
1/2+x,1/2+y,z
1/2-x,1/2-y,z
1/2+x,1/2-y,-z
1/2-x,1/2+y,-z
1/2-x,1/2-y,-z
1/2+x,1/2+y,-z
1/2-x,1/2+y,z
1/2+x,1/2-y,z
loop_
_atom_site_type_symbol
_atom_site_label
_atom_site_fract_x
_atom_site_fract_y
_atom_site_fract_z
Si Si1 0.894491 0.552916 0.712098
Si Si2 0.739244 0.055551 0.782803
Si Si3 0.569386 0.500000 0.722185
Si Si4 0.679803 0.203530 0.278142
Si Si5 0.936726 0.349613 0.276817
Si Si6 0.689784 0.313145 0.277479
Si Si7 0.135621 0.905432 0.295005
O O1 0.910298 0.548723 0.500000
O O2 0.899007 0.500000 0.792162
O O3 0.826108 0.569141 0.721518
O O4 0.931696 0.596088 0.786906
O O5 0.795570 0.080058 0.697698
O O6 0.744421 0.000000 0.738476
O O7 0.742828 0.061232 0.000000
O O8 0.500000 0.500000 0.767723
O O9 0.574912 0.500000 0.500000
O O10 0.601351 0.548864 0.785176
O O11 0.681035 0.202539 0.500000
O O12 0.621128 0.177736 0.215184
O O13 0.677444 0.258840 0.226111
O O14 0.741746 0.179891 0.219966
O O15 0.934672 0.349923 0.500000
O O16 0.000000 0.329187 0.224055
O O17 0.688389 0.315420 0.500000
O O18 0.643349 0.352829 0.212039
O O19 0.111349 0.899828 0.500000
#
# Coordination Sequence:
#
# PCOD9482860 Si02
#       7
#    16  16   8  16  16  16  16
#     4   9  17  28  43  64  90 119 152 184 218 265
#     4  10  19  29  43  66  94 117 142 183 230 269
#     4   9  18  30  43  63  93 123 148 181 222 265
#     4   8  13  23  36  57  89 115 139 180 230 270
#     4   9  16  25  39  61  90 122 152 186 227 265
#     4   8  14  23  40  63  84 110 146 184 222 267
#     4  10  17  28  47  67  87 118 155 184 220 273
#
# _framework density 22.175228000000001
#
# number of rings (size 3 to 8) (size 9 to 14) (size 15 to 20)
#    0.000    3.000    0.769    2.308    0.000    3.385 
#    0.000    2.308    0.000    6.000    0.000   10.769 
#    0.000    0.000    0.000    0.000    0.000    0.000 
#
# Total GULP energy -290035.280321 kJ/mol
# GULP energy per Si atom -5577.601545 kJ/mol
# Density = 2.212476 g / cm^3
# Si number density = 22.175228 Si / 1000 Ang^3
#
#
#
# Elastic Constant Matrix: (Units=GPa)
#
#
# Indices 1 2 3 4 5 6 
#
# 1 115.4106 85.7020 -2.2070 0.0000 0.0000 0.0000
# 2 85.7020 133.5126 3.0209 0.0000 0.0000 0.0000
# 3 -2.2070 3.0209 82.3358 0.0000 0.0000 0.0000
# 4 0.0000 0.0000 0.0000 -16.8606 0.0000 0.0000
# 5 0.0000 0.0000 0.0000 0.0000 -57.2109 0.0000
# 6 0.0000 0.0000 0.0000 0.0000 0.0000 23.3142
#
#
#
# Elastic Compliance Matrix: (Units=1/GPa)
#
#
# Indices 1 2 3 4 5 6 
#
# 1 0.016614 -0.010684 0.000837 0.000000 0.000000 0.000000
# 2 -0.010684 0.014366 -0.000813 0.000000 0.000000 0.000000
# 3 0.000837 -0.000813 0.012198 0.000000 0.000000 0.000000
# 4 0.000000 0.000000 0.000000 -0.059310 0.000000 0.000000
# 5 0.000000 0.000000 0.000000 0.000000 -0.017479 0.000000
# 6 0.000000 0.000000 0.000000 0.000000 0.000000 0.042892
#
#
# Mechanical properties :
#
#
# Convention : Reuss Voigt Hill
#
# Bulk Modulus (GPa) = 45.74880 56.03232 50.89056
# Shear Modulus (GPa) = 131.97083 6.16475 69.06779
#
# Velocity S-wave (km/s) = 7.72282 1.66915 5.58695
# Velocity P-wave (km/s) = 10.00989 5.38865 8.03852
#
# Compressibility (1/GPa) = 0.02185850
#
# Stress axis : x y z
#
# Youngs Moduli (GPa) = 60.18948 69.60800 81.98288
#
# Poissons Ratio (x) = 0.74367 -0.06864
# Poissons Ratio (y) = 0.64304 0.06669
# Poissons Ratio (z) = -0.05040 0.05662
#
# Static dielectric constant tensor:
#      x y z
#    x 1.773160 0.000000 0.000000 
#    y 0.000000 1.852350 0.000000 
#    z 0.000000 0.000000 1.826560 
# 
# From -- ./inp_files/15049.got.cif
#   From: 2010.05.17/outbox.cif.g08.bks.cpg/sg65_8_cif.got.tgz:15049.got - 2010.06.03 17:01:31.
