data_PCOD9482424
_publ_section_title
;
Structure prediction by ZEFSAII (Michael W. Deem and Ramdas Pophale) SiO2 
 PCOD9482424
Probable space group: C M C A
;
_chemical_formula_sum "Si O2"
_cell_formula_units_Z 56
_cell_length_a 15.000000
_cell_length_b 27.000000
_cell_length_c 15.000000
_cell_angle_alpha 90.000000
_cell_angle_beta 90.000000
_cell_angle_gamma 90.000000
_cell_volume 6075.000000
_symmetry_space_group_name_H-M "C M C A"
_symmetry_group_IT_number 64
_symmetry_cell_setting 'orthorhombic'
loop_
_space_group_symop_operation_xyz
x,y,z
-x,1/2-y,1/2+z
x,-y,-z
-x,1/2+y,1/2-z
-x,-y,-z
x,1/2+y,1/2-z
-x,y,z
x,1/2-y,1/2+z
1/2+x,1/2+y,z
1/2-x,-y,1/2+z
1/2+x,1/2-y,-z
1/2-x,y,1/2-z
1/2-x,1/2-y,-z
1/2+x,y,1/2-z
1/2-x,1/2+y,z
1/2+x,-y,1/2+z
loop_
_atom_site_type_symbol
_atom_site_label
_atom_site_fract_x
_atom_site_fract_y
_atom_site_fract_z
Si Si1 0.606142 0.058797 0.488019
Si Si2 0.604033 0.343404 0.544465
Si Si3 0.658302 0.366832 0.145518
Si Si4 0.223109 0.877630 0.848610
Si Si5 0.104380 0.222386 0.156778
Si Si6 0.357421 0.338004 0.334432
Si Si7 0.099748 0.730893 0.556154
O O1 0.500000 0.062201 0.470465
O O2 0.625888 0.090419 0.578567
O O3 0.659685 0.086486 0.408084
O O4 0.628414 0.000000 0.500000
O O5 0.500000 0.354142 0.570708
O O6 0.685582 0.371870 0.592299
O O7 0.604570 0.344640 0.435267
O O8 0.626829 0.286926 0.573359
O O9 0.607843 0.361167 0.240651
O O10 0.764134 0.367290 0.159129
O O11 0.652809 0.313667 0.096779
O O12 0.250000 0.896592 0.750000
O O13 0.168710 0.825423 0.828446
O O14 0.140883 0.277707 0.182749
O O15 0.000000 0.216727 0.188739
O O16 0.099341 0.224825 0.049747
O O17 0.000000 0.725117 0.590800
#
# Coordination Sequence:
#
# PCOD9482424 Si02
#       7
#    16  16  16  16  16  16  16
#     4  11  25  48  73  94 119 159 220 285 337 379
#     4  10  21  38  57  88 132 175 206 244 308 391
#     4  11  20  35  62  91 123 166 210 264 315 374
#     4  12  25  41  63  93 127 170 211 266 320 377
#     4  10  20  35  57  89 135 176 208 249 301 376
#     4  10  21  34  57  95 132 170 206 248 305 388
#     4   9  17  30  52  81 121 166 209 248 291 358
#
# _framework density 9.2181069999999998
#
# number of rings (size 3 to 8) (size 9 to 14) (size 15 to 20)
#    0.000    1.571    2.857    3.000    4.000    5.714 
#    2.571    0.000    0.000    0.429    0.000    0.000 
#    0.000    0.000    0.000    0.000    0.000    0.000 
#
# Total GULP energy -311864.014391 kJ/mol
# GULP energy per Si atom -5569.000257 kJ/mol
# Density = 0.919713 g / cm^3
# Si number density = 9.218107 Si / 1000 Ang^3
#
#
#
# Elastic Constant Matrix: (Units=GPa)
#
#
# Indices 1 2 3 4 5 6 
#
# 1 93.4281 55.1070 40.9809 0.0000 0.0000 0.0000
# 2 55.1070 73.2883 50.2081 0.0000 0.0000 0.0000
# 3 40.9809 50.2081 110.9658 0.0000 0.0000 0.0000
# 4 0.0000 0.0000 0.0000 18.2503 0.0000 0.0000
# 5 0.0000 0.0000 0.0000 0.0000 4.6099 0.0000
# 6 0.0000 0.0000 0.0000 0.0000 0.0000 26.3158
#
#
#
# Elastic Compliance Matrix: (Units=1/GPa)
#
#
# Indices 1 2 3 4 5 6 
#
# 1 0.019284 -0.013943 -0.000813 0.000000 0.000000 0.000000
# 2 -0.013943 0.029856 -0.008359 0.000000 0.000000 0.000000
# 3 -0.000813 -0.008359 0.013094 0.000000 0.000000 0.000000
# 4 0.000000 0.000000 0.000000 0.054794 0.000000 0.000000
# 5 0.000000 0.000000 0.000000 0.000000 0.216926 0.000000
# 6 0.000000 0.000000 0.000000 0.000000 0.000000 0.038000
#
#
# Mechanical properties :
#
#
# Convention : Reuss Voigt Hill
#
# Bulk Modulus (GPa) = 62.48766 63.36381 62.92573
# Shear Modulus (GPa) = 11.80582 18.59425 15.20004
#
# Velocity S-wave (km/s) = 2.53328 3.17925 2.87447
# Velocity P-wave (km/s) = 6.52106 6.92247 6.72476
#
# Compressibility (1/GPa) = 0.01600316
#
# Stress axis : x y z
#
# Youngs Moduli (GPa) = 51.85585 33.49448 76.36885
#
# Poissons Ratio (x) = 0.46702 0.06209
# Poissons Ratio (y) = 0.72304 0.63839
# Poissons Ratio (z) = 0.04216 0.27999
#
# Static dielectric constant tensor:
#      x y z
#    x 1.735910 0.000000 0.000000 
#    y 0.000000 1.649860 0.000000 
#    z 0.000000 0.000000 1.690670 
# 
# From -- ./inp_files/24444.got.cif
#   From: 2010.05.17/outbox.ucp.g08.bks.cvg/sg64_13_cif.got.tgz:24444.got - 2010.06.11 16:36:46.
