data_PCOD9482588
_publ_section_title
;
Structure prediction by ZEFSAII (Michael W. Deem and Ramdas Pophale) SiO2 
 PCOD9482588
Probable space group: C M M M
;
_chemical_formula_sum "Si O2"
_cell_formula_units_Z 72
_cell_length_a 8.660356
_cell_length_b 19.127036
_cell_length_c 24.268545
_cell_angle_alpha 90.000000
_cell_angle_beta 90.000000
_cell_angle_gamma 90.000000
_cell_volume 4020.010241
_symmetry_space_group_name_H-M "C M M M"
_symmetry_group_IT_number 65
_symmetry_cell_setting 'orthorhombic'
loop_
_space_group_symop_operation_xyz
x,y,z
-x,-y,z
x,-y,-z
-x,y,-z
-x,-y,-z
x,y,-z
-x,y,z
x,-y,z
1/2+x,1/2+y,z
1/2-x,1/2-y,z
1/2+x,1/2-y,-z
1/2-x,1/2+y,-z
1/2-x,1/2-y,-z
1/2+x,1/2+y,-z
1/2-x,1/2+y,z
1/2+x,1/2-y,z
loop_
_atom_site_type_symbol
_atom_site_label
_atom_site_fract_x
_atom_site_fract_y
_atom_site_fract_z
Si Si1 0.813154 0.419549 0.334362
Si Si2 0.683734 0.170317 0.000000
Si Si3 0.184905 0.171207 0.234510
Si Si4 0.315231 0.329073 0.887725
Si Si5 0.813574 0.672778 0.562516
O O1 0.762963 0.500000 0.333111
O O2 0.751051 0.376808 0.282411
O O3 0.763364 0.381182 0.390676
O O4 0.000000 0.418106 0.332979
O O5 0.750000 0.250000 0.000000
O O6 0.743827 0.137643 0.942791
O O7 0.500000 0.173526 0.000000
O O8 0.250000 0.250000 0.239671
O O9 0.223382 0.142477 0.173051
O O10 0.000000 0.174948 0.238422
O O11 0.500000 0.326856 0.893684
O O12 0.250000 0.250000 0.885902
O O13 0.765868 0.653991 0.500000
O O14 0.750000 0.750000 0.574713
O O15 0.000000 0.675687 0.563326
#
# Coordination Sequence:
#
# PCOD9482588 Si02
#       5
#    16   8  16  16  16
#     4  10  21  35  51  73 101 133 168 207 251 296
#     4  10  16  22  36  60  91 124 155 192 241 291
#     4  10  20  33  51  73  98 131 169 209 251 297
#     4   9  16  26  40  61  90 123 158 196 241 291
#     4   9  18  33  53  76 101 130 165 203 244 293
#
# _framework density 17.910402999999999
#
# number of rings (size 3 to 8) (size 9 to 14) (size 15 to 20)
#    0.000    2.444    0.000    4.333    0.000    6.222 
#    0.000    2.222    0.000    0.000    0.000    5.444 
#    0.000    6.222    0.000    0.000    0.000    0.000 
#
# Total GULP energy -200667.293467 kJ/mol
# GULP energy per Si atom -5574.091485 kJ/mol
# Density = 1.786964 g / cm^3
# Si number density = 17.910403 Si / 1000 Ang^3
#
#
#
# Elastic Constant Matrix: (Units=GPa)
#
#
# Indices 1 2 3 4 5 6 
#
# 1 46.6362 24.9561 49.3392 0.0000 0.0000 0.0000
# 2 24.9561 78.9988 95.6090 0.0000 0.0000 0.0000
# 3 49.3392 95.6090 198.3041 0.0000 0.0000 0.0000
# 4 0.0000 0.0000 0.0000 -4.2827 0.0000 0.0000
# 5 0.0000 0.0000 0.0000 0.0000 26.9402 0.0000
# 6 0.0000 0.0000 0.0000 0.0000 0.0000 17.5321
#
#
#
# Elastic Compliance Matrix: (Units=1/GPa)
#
#
# Indices 1 2 3 4 5 6 
#
# 1 0.029139 -0.001034 -0.006751 0.000000 0.000000 0.000000
# 2 -0.001034 0.030429 -0.014414 0.000000 0.000000 0.000000
# 3 -0.006751 -0.014414 0.013672 0.000000 0.000000 0.000000
# 4 0.000000 0.000000 0.000000 -0.233495 0.000000 0.000000
# 5 0.000000 0.000000 0.000000 0.000000 0.037119 0.000000
# 6 0.000000 0.000000 0.000000 0.000000 0.000000 0.057038
#
#
# Mechanical properties :
#
#
# Convention : Reuss Voigt Hill
#
# Bulk Modulus (GPa) = 34.67242 73.74974 54.21108
# Shear Modulus (GPa) = -413.71554 18.30689 -197.70433
#
# Velocity S-wave (km/s) = -15.21490 3.20056 -10.51783
# Velocity P-wave (km/s) = 17.00755 7.41111 10.82433
#
# Compressibility (1/GPa) = 0.02884137
#
# Stress axis : x y z
#
# Youngs Moduli (GPa) = 34.31884 32.86286 73.14332
#
# Poissons Ratio (x) = 0.03399 0.49380
# Poissons Ratio (y) = 0.03550 1.05427
# Poissons Ratio (z) = 0.23169 0.47368
#
# Static dielectric constant tensor:
#      x y z
#    x 1.604330 0.000000 0.000000 
#    y 0.000000 1.566250 0.000000 
#    z 0.000000 0.000000 1.671350 
# 
# From -- ./inp_files/66996.got.cif
#   From: 2010.05.17/outbox.cif.g08.bks.cpg/sg65_34_cif.got.tgz:66996.got - 2010.06.03 17:01:31.
