data_PCOD9482205
_publ_section_title
;
Structure prediction by ZEFSAII (Michael W. Deem and Ramdas Pophale) SiO2 
 PCOD9482205
Probable space group: C M C A
;
_chemical_formula_sum "Si O2"
_cell_formula_units_Z 68
_cell_length_a 15.918169
_cell_length_b 22.486587
_cell_length_c 8.081855
_cell_angle_alpha 90.000000
_cell_angle_beta 90.000000
_cell_angle_gamma 90.000000
_cell_volume 2892.861949
_symmetry_space_group_name_H-M "C M C A"
_symmetry_group_IT_number 64
_symmetry_cell_setting 'orthorhombic'
loop_
_space_group_symop_operation_xyz
x,y,z
-x,1/2-y,1/2+z
x,-y,-z
-x,1/2+y,1/2-z
-x,-y,-z
x,1/2+y,1/2-z
-x,y,z
x,1/2-y,1/2+z
1/2+x,1/2+y,z
1/2-x,-y,1/2+z
1/2+x,1/2-y,-z
1/2-x,y,1/2-z
1/2-x,1/2-y,-z
1/2+x,y,1/2-z
1/2-x,1/2+y,z
1/2+x,-y,1/2+z
loop_
_atom_site_type_symbol
_atom_site_label
_atom_site_fract_x
_atom_site_fract_y
_atom_site_fract_z
Si Si1 0.657513 0.435880 0.448289
Si Si2 0.167756 0.790513 0.863871
Si Si3 0.591732 0.312927 0.540490
Si Si4 0.500000 0.000000 0.500000
Si Si5 0.348896 0.089029 0.555830
O O1 0.623524 0.500000 0.500000
O O2 0.612790 0.382151 0.539465
O O3 0.646176 0.421424 0.253889
O O4 0.756141 0.433740 0.493303
O O5 0.250000 0.800845 0.750000
O O6 0.094859 0.792774 0.728591
O O7 0.161617 0.725496 0.943965
O O8 0.152325 0.842220 0.998059
O O9 0.500000 0.303258 0.467227
O O10 0.425224 0.948577 0.518430
#
# Coordination Sequence:
#
# PCOD9482205 Si02
#       5
#    16  16  16   4  16
#     4  11  26  49  73 105 156 205 254 318 396 483
#     4  12  26  49  78 110 150 209 256 329 394 475
#     4  12  28  45  74 111 150 199 262 328 393 462
#     4  12  28  44  78 116 154 204 248 344 376 472
#     4  11  27  45  75 110 152 196 267 311 394 463
#
# _framework density 23.506132999999998
#
# number of rings (size 3 to 8) (size 9 to 14) (size 15 to 20)
#    0.000    0.471    3.529    2.824   11.529    0.471 
#    0.000    0.000    0.000    0.000    0.000    0.000 
#    0.000    0.000    0.000    0.000    0.000    0.000 
#
# Total GULP energy -189687.447335 kJ/mol
# GULP energy per Si atom -5579.042569 kJ/mol
# Density = 2.345263 g / cm^3
# Si number density = 23.506133 Si / 1000 Ang^3
#
#
#
# Elastic Constant Matrix: (Units=GPa)
#
#
# Indices 1 2 3 4 5 6 
#
# 1 110.4419 33.8776 27.3603 0.0000 0.0000 0.0000
# 2 33.8776 174.7089 55.4667 0.0000 0.0000 0.0000
# 3 27.3603 55.4667 70.4355 0.0000 0.0000 0.0000
# 4 0.0000 0.0000 0.0000 31.0622 0.0000 0.0000
# 5 0.0000 0.0000 0.0000 0.0000 16.8423 0.0000
# 6 0.0000 0.0000 0.0000 0.0000 0.0000 21.8268
#
#
#
# Elastic Compliance Matrix: (Units=1/GPa)
#
#
# Indices 1 2 3 4 5 6 
#
# 1 0.010137 -0.000954 -0.003186 0.000000 0.000000 0.000000
# 2 -0.000954 0.007722 -0.005710 0.000000 0.000000 0.000000
# 3 -0.003186 -0.005710 0.019932 0.000000 0.000000 0.000000
# 4 0.000000 0.000000 0.000000 0.032193 0.000000 0.000000
# 5 0.000000 0.000000 0.000000 0.000000 0.059374 0.000000
# 6 0.000000 0.000000 0.000000 0.000000 0.000000 0.045815
#
#
# Mechanical properties :
#
#
# Convention : Reuss Voigt Hill
#
# Bulk Modulus (GPa) = 55.28164 65.44396 60.36280
# Shear Modulus (GPa) = 24.88763 29.87171 27.37967
#
# Velocity S-wave (km/s) = 3.25741 3.56870 3.41660
# Velocity P-wave (km/s) = 6.14139 6.69944 6.42647
#
# Compressibility (1/GPa) = 0.01808919
#
# Stress axis : x y z
#
# Youngs Moduli (GPa) = 98.65332 129.50630 50.17151
#
# Poissons Ratio (x) = 0.12355 0.15986
# Poissons Ratio (y) = 0.09411 0.28648
# Poissons Ratio (z) = 0.31433 0.73949
#
# Static dielectric constant tensor:
#      x y z
#    x 1.903340 0.000000 0.000000 
#    y 0.000000 1.853200 0.000000 
#    z 0.000000 0.000000 1.952020 
# 
# From -- ./inp_files/6726.got.cif
#   From: 2010.05.17/outbox.cif.g08.bks.cpg/sg64_4_cif.got.tgz:6726.got - 2010.06.03 16:29:19.
