data_PCOD9482968
_publ_section_title
;
Structure prediction by ZEFSAII (Michael W. Deem and Ramdas Pophale) SiO2 
 PCOD9482968
Probable space group: C M M M
;
_chemical_formula_sum "Si O2"
_cell_formula_units_Z 80
_cell_length_a 19.278857
_cell_length_b 14.622289
_cell_length_c 14.455283
_cell_angle_alpha 90.000000
_cell_angle_beta 90.000000
_cell_angle_gamma 90.000000
_cell_volume 4074.959002
_symmetry_space_group_name_H-M "C M M M"
_symmetry_group_IT_number 65
_symmetry_cell_setting 'orthorhombic'
loop_
_space_group_symop_operation_xyz
x,y,z
-x,-y,z
x,-y,-z
-x,y,-z
-x,-y,-z
x,y,-z
-x,y,z
x,-y,z
1/2+x,1/2+y,z
1/2-x,1/2-y,z
1/2+x,1/2-y,-z
1/2-x,1/2+y,-z
1/2-x,1/2-y,-z
1/2+x,1/2+y,-z
1/2-x,1/2+y,z
1/2+x,1/2-y,z
loop_
_atom_site_type_symbol
_atom_site_label
_atom_site_fract_x
_atom_site_fract_y
_atom_site_fract_z
Si Si1 0.343404 0.395989 0.713693
Si Si2 0.077424 0.286808 0.287927
Si Si3 0.298672 0.109502 0.391634
Si Si4 0.896593 0.396968 0.893108
Si Si5 0.263409 0.358033 0.895775
O O1 0.363178 0.500000 0.689237
O O2 0.402032 0.319522 0.705721
O O3 0.275921 0.367864 0.653050
O O4 0.314755 0.393072 0.818345
O O5 0.138072 0.341284 0.340555
O O6 0.079389 0.324305 0.182466
O O7 0.000000 0.303245 0.324690
O O8 0.298594 0.131755 0.500000
O O9 0.307042 0.000000 0.380612
O O10 0.921664 0.500000 0.873143
O O11 0.813007 0.399694 0.886813
O O12 0.913638 0.374120 0.000000
O O13 0.250000 0.250000 0.882699
O O14 0.288915 0.373253 0.000000
#
# Coordination Sequence:
#
# PCOD9482968 Si02
#       5
#    16  16  16  16  16
#     4  11  22  39  62  86 115 154 201 246 285 332
#     4  12  25  39  57  86 124 160 194 234 284 347
#     4  10  22  42  68  94 116 143 186 240 296 350
#     4  10  20  35  56  84 118 153 191 238 294 351
#     4  10  17  30  57  88 116 147 190 248 301 338
#
# _framework density 19.632100000000001
#
# number of rings (size 3 to 8) (size 9 to 14) (size 15 to 20)
#    0.000    1.400    4.000    1.800    0.000    5.600 
#    0.000    2.000    0.000    0.000    0.000    7.000 
#    0.000    0.000    0.000    0.000    0.000    0.000 
#
# Total GULP energy -223540.048137 kJ/mol
# GULP energy per Si atom -5588.501203 kJ/mol
# Density = 1.958742 g / cm^3
# Si number density = 19.632100 Si / 1000 Ang^3
#
#
#
# Elastic Constant Matrix: (Units=GPa)
#
#
# Indices 1 2 3 4 5 6 
#
# 1 56.1025 37.4336 18.4348 0.0000 0.0000 0.0000
# 2 37.4336 97.6677 32.6217 0.0000 0.0000 0.0000
# 3 18.4348 32.6217 79.9273 0.0000 0.0000 0.0000
# 4 0.0000 0.0000 0.0000 24.5333 0.0000 0.0000
# 5 0.0000 0.0000 0.0000 0.0000 -0.5594 0.0000
# 6 0.0000 0.0000 0.0000 0.0000 0.0000 -103.5662
#
#
#
# Elastic Compliance Matrix: (Units=1/GPa)
#
#
# Indices 1 2 3 4 5 6 
#
# 1 0.024245 -0.008597 -0.002083 0.000000 0.000000 0.000000
# 2 -0.008597 0.014903 -0.004100 0.000000 0.000000 0.000000
# 3 -0.002083 -0.004100 0.014665 0.000000 0.000000 0.000000
# 4 0.000000 0.000000 0.000000 0.040761 0.000000 0.000000
# 5 0.000000 0.000000 0.000000 0.000000 -1.787569 0.000000
# 6 0.000000 0.000000 0.000000 0.000000 0.000000 -0.009656
#
#
# Mechanical properties :
#
#
# Convention : Reuss Voigt Hill
#
# Bulk Modulus (GPa) = 41.23077 45.63083 43.43080
# Shear Modulus (GPa) = -3.00299 -6.23797 -4.62048
#
# Velocity S-wave (km/s) = -1.23813 -1.78447 -1.53579
# Velocity P-wave (km/s) = 4.35928 4.36436 4.36182
#
# Compressibility (1/GPa) = 0.02425373
#
# Stress axis : x y z
#
# Youngs Moduli (GPa) = 41.24546 67.10042 68.18876
#
# Poissons Ratio (x) = 0.57684 0.14206
# Poissons Ratio (y) = 0.35457 0.27956
# Poissons Ratio (z) = 0.08593 0.27510
#
# Static dielectric constant tensor:
#      x y z
#    x 1.666230 0.000000 0.000000 
#    y 0.000000 1.722420 0.000000 
#    z 0.000000 0.000000 1.687900 
# 
# From -- ./inp_files/40055.got.cif
#   From: 2010.05.17/outbox.cif.g08.bks.cpg/sg65_21_cif.got.tgz:40055.got - 2010.06.03 17:01:31.
