data_PCOD9482349
_publ_section_title
;
Structure prediction by ZEFSAII (Michael W. Deem and Ramdas Pophale) SiO2 
 PCOD9482349
Probable space group: C M C A
;
_chemical_formula_sum "Si O2"
_cell_formula_units_Z 96
_cell_length_a 17.043243
_cell_length_b 20.001461
_cell_length_c 17.158743
_cell_angle_alpha 90.000000
_cell_angle_beta 90.000000
_cell_angle_gamma 90.000000
_cell_volume 5849.239786
_symmetry_space_group_name_H-M "C M C A"
_symmetry_group_IT_number 64
_symmetry_cell_setting 'orthorhombic'
loop_
_space_group_symop_operation_xyz
x,y,z
-x,1/2-y,1/2+z
x,-y,-z
-x,1/2+y,1/2-z
-x,-y,-z
x,1/2+y,1/2-z
-x,y,z
x,1/2-y,1/2+z
1/2+x,1/2+y,z
1/2-x,-y,1/2+z
1/2+x,1/2-y,-z
1/2-x,y,1/2-z
1/2-x,1/2-y,-z
1/2+x,y,1/2-z
1/2-x,1/2+y,z
1/2+x,-y,1/2+z
loop_
_atom_site_type_symbol
_atom_site_label
_atom_site_fract_x
_atom_site_fract_y
_atom_site_fract_z
Si Si1 0.144593 0.687706 0.023389
Si Si2 0.500000 0.390769 0.464291
Si Si3 0.824587 0.841485 0.007899
Si Si4 0.828048 0.084879 0.152970
Si Si5 0.000000 0.521456 0.122969
Si Si6 0.647645 0.100498 0.174662
Si Si7 0.590237 0.961316 0.416693
O O1 0.230073 0.664817 0.992504
O O2 0.134958 0.659222 0.111485
O O3 0.076874 0.654554 0.971763
O O4 0.142205 0.767627 0.021631
O O5 0.500000 0.438067 0.541061
O O6 0.500000 0.442849 0.393686
O O7 0.845859 0.868978 0.921624
O O8 0.858561 0.895130 0.068715
O O9 0.734277 0.072541 0.154859
O O10 0.850154 0.119450 0.234477
O O11 0.872147 0.014610 0.142222
O O12 0.921179 0.546858 0.163986
O O13 0.500000 0.945768 0.397203
O O14 0.590594 0.000000 0.500000
#
# Coordination Sequence:
#
# PCOD9482349 Si02
#       7
#    16   8  16  16   8  16  16
#     4   9  18  32  51  75  99 133 167 200 247 295
#     4   9  18  30  49  73  96 125 166 201 244 287
#     4   9  18  32  52  74 100 129 167 207 243 297
#     4   9  18  32  52  72  96 131 168 204 251 296
#     4   9  18  30  49  73  96 125 160 211 240 284
#     4   9  18  32  51  72  98 130 165 205 250 298
#     4   9  18  30  48  73  95 124 162 205 244 284
#
# _framework density 16.412388
#
# number of rings (size 3 to 8) (size 9 to 14) (size 15 to 20)
#    0.000    3.000    0.000    0.000    4.667    0.000 
#    0.000    0.000    3.667    2.000    0.000    0.000 
#    0.000    0.000    0.000    0.000    0.000    0.000 
#
# Total GULP energy -267220.173702 kJ/mol
# GULP energy per Si atom -5567.086952 kJ/mol
# Density = 1.637503 g / cm^3
# Si number density = 16.412388 Si / 1000 Ang^3
#
#
#
# Elastic Constant Matrix: (Units=GPa)
#
#
# Indices 1 2 3 4 5 6 
#
# 1 74.2218 67.4552 34.8047 0.0000 0.0000 0.0000
# 2 67.4552 128.6925 37.8944 0.0000 0.0000 0.0000
# 3 34.8047 37.8944 58.9492 0.0000 0.0000 0.0000
# 4 0.0000 0.0000 0.0000 14.6130 0.0000 0.0000
# 5 0.0000 0.0000 0.0000 0.0000 14.9590 0.0000
# 6 0.0000 0.0000 0.0000 0.0000 0.0000 23.9819
#
#
#
# Elastic Compliance Matrix: (Units=1/GPa)
#
#
# Indices 1 2 3 4 5 6 
#
# 1 0.029246 -0.012637 -0.009144 0.000000 0.000000 0.000000
# 2 -0.012637 0.015045 -0.002210 0.000000 0.000000 0.000000
# 3 -0.009144 -0.002210 0.023783 0.000000 0.000000 0.000000
# 4 0.000000 0.000000 0.000000 0.068432 0.000000 0.000000
# 5 0.000000 0.000000 0.000000 0.000000 0.066849 0.000000
# 6 0.000000 0.000000 0.000000 0.000000 0.000000 0.041698
#
#
# Mechanical properties :
#
#
# Convention : Reuss Voigt Hill
#
# Bulk Modulus (GPa) = 49.77126 60.24135 55.00631
# Shear Modulus (GPa) = 16.68149 18.82474 17.75311
#
# Velocity S-wave (km/s) = 3.19156 3.39039 3.29247
# Velocity P-wave (km/s) = 6.63119 7.21878 6.93121
#
# Compressibility (1/GPa) = 0.02009192
#
# Stress axis : x y z
#
# Youngs Moduli (GPa) = 34.19296 66.46701 42.04625
#
# Poissons Ratio (x) = 0.83994 0.38446
# Poissons Ratio (y) = 0.43209 0.09294
# Poissons Ratio (z) = 0.31266 0.14691
#
# Static dielectric constant tensor:
#      x y z
#    x 1.560290 0.000000 0.000000 
#    y 0.000000 1.522440 0.000000 
#    z 0.000000 0.000000 1.563390 
# 
# From -- ./inp_files/33362.got.cif
#   From: 2010.05.17/outbox.cif.g08.bks.cpg/sg64_17_cif.got.tgz:33362.got - 2010.06.03 16:29:19.
