data_PCOD9482208
_publ_section_title
;
Structure prediction by ZEFSAII (Michael W. Deem and Ramdas Pophale) SiO2 
 PCOD9482208
Probable space group: C M C A
;
_chemical_formula_sum "Si O2"
_cell_formula_units_Z 96
_cell_length_a 22.106679
_cell_length_b 15.263833
_cell_length_c 14.185240
_cell_angle_alpha 90.000000
_cell_angle_beta 90.000000
_cell_angle_gamma 90.000000
_cell_volume 4786.563215
_symmetry_space_group_name_H-M "C M C A"
_symmetry_group_IT_number 64
_symmetry_cell_setting 'orthorhombic'
loop_
_space_group_symop_operation_xyz
x,y,z
-x,1/2-y,1/2+z
x,-y,-z
-x,1/2+y,1/2-z
-x,-y,-z
x,1/2+y,1/2-z
-x,y,z
x,1/2-y,1/2+z
1/2+x,1/2+y,z
1/2-x,-y,1/2+z
1/2+x,1/2-y,-z
1/2-x,y,1/2-z
1/2-x,1/2-y,-z
1/2+x,y,1/2-z
1/2-x,1/2+y,z
1/2+x,-y,1/2+z
loop_
_atom_site_type_symbol
_atom_site_label
_atom_site_fract_x
_atom_site_fract_y
_atom_site_fract_z
Si Si1 0.775153 0.877448 0.348339
Si Si2 0.701138 0.796591 0.901092
Si Si3 0.877131 0.114639 0.233527
Si Si4 0.500000 0.548651 0.336360
Si Si5 0.000000 0.128666 0.546919
Si Si6 0.878711 0.226088 0.589158
Si Si7 0.788680 0.538581 0.410176
O O1 0.750000 0.905150 0.250000
O O2 0.734495 0.793024 0.374196
O O3 0.842947 0.844076 0.347049
O O4 0.763423 0.964484 0.406574
O O5 0.659881 0.836560 0.817495
O O6 0.753917 0.868731 0.917884
O O7 0.661540 0.775556 0.993496
O O8 0.886423 0.185869 0.149583
O O9 0.832396 0.046341 0.180584
O O10 0.939253 0.075386 0.277413
O O11 0.500000 0.596426 0.438531
O O12 0.500000 0.448495 0.374259
O O13 0.057883 0.187623 0.561844
O O14 0.825450 0.500000 0.500000
#
# Coordination Sequence:
#
# PCOD9482208 Si02
#       7
#    16  16  16   8   8  16  16
#     4  12  23  39  67 105 139 180 225 293 361 430
#     4  12  23  44  69 103 145 185 229 296 356 432
#     4  12  25  46  70 101 143 187 232 299 351 425
#     4  11  27  48  71  98 138 181 246 299 350 413
#     4  11  27  46  72 100 129 196 240 292 350 417
#     4  12  24  44  72  98 140 184 240 280 353 423
#     4  12  25  40  67 103 144 181 230 290 365 418
#
# _framework density 20.056142999999999
#
# number of rings (size 3 to 8) (size 9 to 14) (size 15 to 20)
#    0.000    0.167    6.667    3.500    4.667    0.000 
#    0.000    0.417    0.000    0.000    0.000    0.000 
#    0.000    0.000    0.000    0.000    0.000    0.000 
#
# Total GULP energy -267826.482680 kJ/mol
# GULP energy per Si atom -5579.718389 kJ/mol
# Density = 2.001049 g / cm^3
# Si number density = 20.056143 Si / 1000 Ang^3
#
#
#
# Elastic Constant Matrix: (Units=GPa)
#
#
# Indices 1 2 3 4 5 6 
#
# 1 133.3059 40.9037 44.9855 0.0000 0.0000 0.0000
# 2 40.9037 112.6845 38.9245 0.0000 0.0000 0.0000
# 3 44.9855 38.9245 121.5752 0.0000 0.0000 0.0000
# 4 0.0000 0.0000 0.0000 48.0485 0.0000 0.0000
# 5 0.0000 0.0000 0.0000 0.0000 32.0796 0.0000
# 6 0.0000 0.0000 0.0000 0.0000 0.0000 118.0137
#
#
#
# Elastic Compliance Matrix: (Units=1/GPa)
#
#
# Indices 1 2 3 4 5 6 
#
# 1 0.009120 -0.002411 -0.002602 0.000000 0.000000 0.000000
# 2 -0.002411 0.010615 -0.002506 0.000000 0.000000 0.000000
# 3 -0.002602 -0.002506 0.009991 0.000000 0.000000 0.000000
# 4 0.000000 0.000000 0.000000 0.020812 0.000000 0.000000
# 5 0.000000 0.000000 0.000000 0.000000 0.031172 0.000000
# 6 0.000000 0.000000 0.000000 0.000000 0.000000 0.008474
#
#
# Mechanical properties :
#
#
# Convention : Reuss Voigt Hill
#
# Bulk Modulus (GPa) = 68.09510 68.57702 68.33606
# Shear Modulus (GPa) = 45.40499 55.81181 50.60840
#
# Velocity S-wave (km/s) = 4.76320 5.28093 5.02873
# Velocity P-wave (km/s) = 8.01728 8.45287 8.23795
#
# Compressibility (1/GPa) = 0.01468534
#
# Stress axis : x y z
#
# Youngs Moduli (GPa) = 109.65294 94.20212 100.09210
#
# Poissons Ratio (x) = 0.22716 0.26048
# Poissons Ratio (y) = 0.26442 0.25088
# Poissons Ratio (z) = 0.28536 0.23611
#
# Static dielectric constant tensor:
#      x y z
#    x 1.693240 0.000000 0.000000 
#    y 0.000000 1.703490 0.000000 
#    z 0.000000 0.000000 1.863870 
# 
# From -- ./inp_files/26363.got.cif
#   From: 2010.05.17/outbox.cif.g08.bks.cpg/sg64_14_cif.got.tgz:26363.got - 2010.06.03 16:29:19.
