data_PCOD9482073
_publ_section_title
;
Structure prediction by ZEFSAII (Michael W. Deem and Ramdas Pophale) SiO2 
 PCOD9482073
Probable space group: C M C A
;
_chemical_formula_sum "Si O2"
_cell_formula_units_Z 80
_cell_length_a 12.313200
_cell_length_b 10.846441
_cell_length_c 22.508137
_cell_angle_alpha 90.000000
_cell_angle_beta 90.000000
_cell_angle_gamma 90.000000
_cell_volume 3006.060672
_symmetry_space_group_name_H-M "C M C A"
_symmetry_group_IT_number 64
_symmetry_cell_setting 'orthorhombic'
loop_
_space_group_symop_operation_xyz
x,y,z
-x,1/2-y,1/2+z
x,-y,-z
-x,1/2+y,1/2-z
-x,-y,-z
x,1/2+y,1/2-z
-x,y,z
x,1/2-y,1/2+z
1/2+x,1/2+y,z
1/2-x,-y,1/2+z
1/2+x,1/2-y,-z
1/2-x,y,1/2-z
1/2-x,1/2-y,-z
1/2+x,y,1/2-z
1/2-x,1/2+y,z
1/2+x,-y,1/2+z
loop_
_atom_site_type_symbol
_atom_site_label
_atom_site_fract_x
_atom_site_fract_y
_atom_site_fract_z
Si Si1 0.000000 0.152172 0.241539
Si Si2 0.500000 0.987083 0.158635
Si Si3 0.500000 0.997129 0.364050
Si Si4 0.816397 0.676834 0.903022
Si Si5 0.000000 0.659101 0.061419
Si Si6 0.173501 0.173884 0.800746
Si Si7 0.687745 0.500000 0.500000
Si Si8 0.500000 0.836465 0.534112
O O1 0.000000 0.127534 0.171842
O O2 0.102780 0.229319 0.263663
O O3 0.000000 0.017145 0.272492
O O4 0.500000 0.124573 0.129860
O O5 0.397257 0.912567 0.134277
O O6 0.397264 0.922831 0.338334
O O7 0.500000 0.033720 0.433072
O O8 0.741133 0.738238 0.853872
O O9 0.892151 0.769790 0.939186
O O10 0.757042 0.588276 0.951622
O O11 0.894784 0.589378 0.035389
O O12 0.000000 0.793551 0.034442
O O13 0.250000 0.614408 0.750000
#
# Coordination Sequence:
#
# PCOD9482073 Si02
#       8
#     8   8   8  16   8  16   8   8
#     4  11  24  39  54  75 103 135 172 214 261 311
#     4   9  17  32  56  83 108 136 172 212 253 299
#     4  11  24  39  54  75 103 135 172 214 261 311
#     4   9  17  32  56  83 108 136 172 212 253 299
#     4   7  12  26  50  79 108 136 168 207 248 293
#     4  11  24  39  54  75 103 135 172 214 261 311
#     4   7  12  26  50  79 108 136 168 207 248 293
#     4   9  17  32  56  83 108 136 172 212 253 299
#
# _framework density 26.612901999999998
#
# number of rings (size 3 to 8) (size 9 to 14) (size 15 to 20)
#    0.000    2.600    0.000    4.800    0.000    8.800 
#    0.000    2.000    0.000    9.600    0.000    0.000 
#    0.000    0.000    0.000    0.000    0.000    0.000 
#
# Total GULP energy -223848.746279 kJ/mol
# GULP energy per Si atom -5596.218657 kJ/mol
# Density = 2.655233 g / cm^3
# Si number density = 26.612902 Si / 1000 Ang^3
#
#
#
# Elastic Constant Matrix: (Units=GPa)
#
#
# Indices 1 2 3 4 5 6 
#
# 1 68.3732 8.0131 -2.0177 0.0000 0.0000 0.0000
# 2 8.0131 101.0960 4.8376 0.0000 0.0000 0.0000
# 3 -2.0177 4.8376 42.1400 0.0000 0.0000 0.0000
# 4 0.0000 0.0000 0.0000 31.9141 0.0000 0.0000
# 5 0.0000 0.0000 0.0000 0.0000 -48.4661 0.0000
# 6 0.0000 0.0000 0.0000 0.0000 0.0000 7.4364
#
#
#
# Elastic Compliance Matrix: (Units=1/GPa)
#
#
# Indices 1 2 3 4 5 6 
#
# 1 0.014793 -0.001213 0.000848 0.000000 0.000000 0.000000
# 2 -0.001213 0.010046 -0.001211 0.000000 0.000000 0.000000
# 3 0.000848 -0.001211 0.023910 0.000000 0.000000 0.000000
# 4 0.000000 0.000000 0.000000 0.031334 0.000000 0.000000
# 5 0.000000 0.000000 0.000000 0.000000 -0.020633 0.000000
# 6 0.000000 0.000000 0.000000 0.000000 0.000000 0.134474
#
#
# Mechanical properties :
#
#
# Convention : Reuss Voigt Hill
#
# Bulk Modulus (GPa) = 21.93227 25.91945 23.92586
# Shear Modulus (GPa) = 23.55431 11.56196 17.55813
#
# Velocity S-wave (km/s) = 2.97824 2.08661 2.57137
# Velocity P-wave (km/s) = 4.48170 3.94535 4.22205
#
# Compressibility (1/GPa) = 0.04559492
#
# Stress axis : x y z
#
# Youngs Moduli (GPa) = 67.60046 99.54512 41.82341
#
# Poissons Ratio (x) = 0.12075 -0.03545
# Poissons Ratio (y) = 0.08200 0.05066
# Poissons Ratio (z) = -0.05729 0.12058
#
# Static dielectric constant tensor:
#      x y z
#    x 2.107720 0.000000 0.000000 
#    y 0.000000 2.066340 0.000000 
#    z 0.000000 0.000000 2.033950 
# 
# From -- ./inp_files/45030.got.cif
#   From: 2010.05.17/outbox.cif.g08.bks.cpg/sg64_23_cif.got.tgz:45030.got - 2010.06.03 16:29:19.
