data_PCOD9482265
_publ_section_title
;
Structure prediction by ZEFSAII (Michael W. Deem and Ramdas Pophale) SiO2 
 PCOD9482265
Probable space group: C M C A
;
_chemical_formula_sum "Si O2"
_cell_formula_units_Z 80
_cell_length_a 18.196886
_cell_length_b 26.503662
_cell_length_c 8.735264
_cell_angle_alpha 90.000000
_cell_angle_beta 90.000000
_cell_angle_gamma 90.000000
_cell_volume 4212.879076
_symmetry_space_group_name_H-M "C M C A"
_symmetry_group_IT_number 64
_symmetry_cell_setting 'orthorhombic'
loop_
_space_group_symop_operation_xyz
x,y,z
-x,1/2-y,1/2+z
x,-y,-z
-x,1/2+y,1/2-z
-x,-y,-z
x,1/2+y,1/2-z
-x,y,z
x,1/2-y,1/2+z
1/2+x,1/2+y,z
1/2-x,-y,1/2+z
1/2+x,1/2-y,-z
1/2-x,y,1/2-z
1/2-x,1/2-y,-z
1/2+x,y,1/2-z
1/2-x,1/2+y,z
1/2+x,-y,1/2+z
loop_
_atom_site_type_symbol
_atom_site_label
_atom_site_fract_x
_atom_site_fract_y
_atom_site_fract_z
Si Si1 0.914343 0.944768 0.571867
Si Si2 0.300540 0.367607 0.534747
Si Si3 0.585271 0.697186 0.966102
Si Si4 0.645833 0.111016 0.346017
Si Si5 0.176891 0.773879 0.325216
O O1 0.861702 0.907064 0.477553
O O2 0.886607 0.936100 0.748849
O O3 0.000000 0.930167 0.566458
O O4 0.907002 0.000000 0.500000
O O5 0.333963 0.353069 0.700725
O O6 0.223511 0.395590 0.567997
O O7 0.293155 0.319602 0.429642
O O8 0.500000 0.711018 0.958558
O O9 0.623812 0.702445 0.802493
O O10 0.594037 0.641637 0.040586
O O11 0.630486 0.735337 0.073934
O O12 0.250000 0.750820 0.250000
#
# Coordination Sequence:
#
# PCOD9482265 Si02
#       5
#    16  16  16  16  16
#     4   9  18  34  62  93 120 154 196 248 313 375
#     4   9  20  37  60  85 118 159 208 252 305 364
#     4  12  25  38  58  88 125 166 212 264 316 368
#     4   9  19  38  61  85 120 159 204 255 304 366
#     4  12  24  39  59  86 120 168 215 260 309 373
#
# _framework density 18.989388999999999
#
# number of rings (size 3 to 8) (size 9 to 14) (size 15 to 20)
#    1.200    0.600    2.000    3.000    2.800    1.600 
#    0.000    2.000    0.000    0.000    0.000    4.200 
#    0.000    0.000    0.000    0.000    0.000    0.000 
#
# Total GULP energy -222714.385781 kJ/mol
# GULP energy per Si atom -5567.859645 kJ/mol
# Density = 1.894617 g / cm^3
# Si number density = 18.989389 Si / 1000 Ang^3
#
#
#
# Elastic Constant Matrix: (Units=GPa)
#
#
# Indices 1 2 3 4 5 6 
#
# 1 141.6975 38.2152 31.7022 0.0000 0.0000 0.0000
# 2 38.2152 61.5394 22.9552 0.0000 0.0000 0.0000
# 3 31.7022 22.9552 65.0948 0.0000 0.0000 0.0000
# 4 0.0000 0.0000 0.0000 27.6301 0.0000 0.0000
# 5 0.0000 0.0000 0.0000 0.0000 21.0743 0.0000
# 6 0.0000 0.0000 0.0000 0.0000 0.0000 22.7523
#
#
#
# Elastic Compliance Matrix: (Units=1/GPa)
#
#
# Indices 1 2 3 4 5 6 
#
# 1 0.008882 -0.004493 -0.002741 0.000000 0.000000 0.000000
# 2 -0.004493 0.020984 -0.005212 0.000000 0.000000 0.000000
# 3 -0.002741 -0.005212 0.018535 0.000000 0.000000 0.000000
# 4 0.000000 0.000000 0.000000 0.036192 0.000000 0.000000
# 5 0.000000 0.000000 0.000000 0.000000 0.047451 0.000000
# 6 0.000000 0.000000 0.000000 0.000000 0.000000 0.043952
#
#
# Mechanical properties :
#
#
# Convention : Reuss Voigt Hill
#
# Bulk Modulus (GPa) = 42.53662 50.45298 46.49480
# Shear Modulus (GPa) = 23.95490 25.98862 24.97176
#
# Velocity S-wave (km/s) = 3.55560 3.70345 3.63028
# Velocity P-wave (km/s) = 6.26939 6.70180 6.48920
#
# Compressibility (1/GPa) = 0.02350915
#
# Stress axis : x y z
#
# Youngs Moduli (GPa) = 112.58172 47.65533 53.95168
#
# Poissons Ratio (x) = 0.21413 0.14790
# Poissons Ratio (y) = 0.50586 0.28117
# Poissons Ratio (z) = 0.30863 0.24836
#
# Static dielectric constant tensor:
#      x y z
#    x 1.674140 0.000000 0.000000 
#    y 0.000000 1.677090 0.000000 
#    z 0.000000 0.000000 1.686180 
# 
# From -- ./inp_files/7114.got.cif
#   From: 2010.05.17/outbox.cif.g08.bks.cpg/sg64_4_cif.got.tgz:7114.got - 2010.06.03 16:29:19.
