data_PCOD9482219
_publ_section_title
;
Structure prediction by ZEFSAII (Michael W. Deem and Ramdas Pophale) SiO2 
 PCOD9482219
Probable space group: C M C A
;
_chemical_formula_sum "Si O2"
_cell_formula_units_Z 72
_cell_length_a 8.965241
_cell_length_b 27.311759
_cell_length_c 12.660791
_cell_angle_alpha 90.000000
_cell_angle_beta 90.000000
_cell_angle_gamma 90.000000
_cell_volume 3100.076991
_symmetry_space_group_name_H-M "C M C A"
_symmetry_group_IT_number 64
_symmetry_cell_setting 'orthorhombic'
loop_
_space_group_symop_operation_xyz
x,y,z
-x,1/2-y,1/2+z
x,-y,-z
-x,1/2+y,1/2-z
-x,-y,-z
x,1/2+y,1/2-z
-x,y,z
x,1/2-y,1/2+z
1/2+x,1/2+y,z
1/2-x,-y,1/2+z
1/2+x,1/2-y,-z
1/2-x,y,1/2-z
1/2-x,1/2-y,-z
1/2+x,y,1/2-z
1/2-x,1/2+y,z
1/2+x,-y,1/2+z
loop_
_atom_site_type_symbol
_atom_site_label
_atom_site_fract_x
_atom_site_fract_y
_atom_site_fract_z
Si Si1 0.000000 0.278768 0.885615
Si Si2 0.253168 0.659218 0.470898
Si Si3 0.500000 0.460899 0.815362
Si Si4 0.500000 0.669803 0.855042
Si Si5 0.000000 0.356239 0.702989
Si Si6 0.253959 0.552683 0.492951
Si Si7 0.000000 0.935110 0.171408
O O1 0.858026 0.294145 0.955692
O O2 0.000000 0.226768 0.826647
O O3 0.000000 0.318950 0.795867
O O4 0.145142 0.665409 0.570771
O O5 0.328966 0.605622 0.482090
O O6 0.142906 0.653249 0.370903
O O7 0.500000 0.411195 0.750587
O O8 0.358118 0.454844 0.893209
O O9 0.500000 0.514377 0.762503
O O10 0.500000 0.620285 0.783798
O O11 0.332508 0.500000 0.500000
O O12 0.142991 0.559404 0.594031
#
# Coordination Sequence:
#
# PCOD9482219 Si02
#       7
#     8  16   8   8   8  16   8
#     4  12  20  28  43  68  95 126 157 188 230 279
#     4   9  18  31  45  65  92 120 152 192 233 270
#     4   7  10  20  41  65  83 102 137 185 222 251
#     4   9  18  31  46  66  92 120 159 198 225 262
#     4   9  18  31  46  66  90 118 151 190 233 280
#     4   7  10  20  40  63  85 107 136 175 220 264
#     4   7  10  20  41  65  82 104 142 185 217 250
#
# _framework density 23.22523
#
# number of rings (size 3 to 8) (size 9 to 14) (size 15 to 20)
#    0.000    3.556    0.000    5.333    0.000    0.000 
#    0.000    0.556    0.000    0.000    0.000   31.111 
#    0.000    0.000    0.000    0.000    0.000    0.000 
#
# Total GULP energy -200480.031246 kJ/mol
# GULP energy per Si atom -5568.889757 kJ/mol
# Density = 2.317237 g / cm^3
# Si number density = 23.225230 Si / 1000 Ang^3
#
#
#
# Elastic Constant Matrix: (Units=GPa)
#
#
# Indices 1 2 3 4 5 6 
#
# 1 79.4805 16.8143 -4.6608 0.0000 0.0000 0.0000
# 2 16.8143 223.6223 8.2212 0.0000 0.0000 0.0000
# 3 -4.6608 8.2212 10.8261 0.0000 0.0000 0.0000
# 4 0.0000 0.0000 0.0000 23.3588 0.0000 0.0000
# 5 0.0000 0.0000 0.0000 0.0000 -192.6465 0.0000
# 6 0.0000 0.0000 0.0000 0.0000 0.0000 -80.5787
#
#
#
# Elastic Compliance Matrix: (Units=1/GPa)
#
#
# Indices 1 2 3 4 5 6 
#
# 1 0.013233 -0.001239 0.006638 0.000000 0.000000 0.000000
# 2 -0.001239 0.004716 -0.004115 0.000000 0.000000 0.000000
# 3 0.006638 -0.004115 0.098351 0.000000 0.000000 0.000000
# 4 0.000000 0.000000 0.000000 0.042810 0.000000 0.000000
# 5 0.000000 0.000000 0.000000 0.000000 -0.005191 0.000000
# 6 0.000000 0.000000 0.000000 0.000000 0.000000 -0.012410
#
#
# Mechanical properties :
#
#
# Convention : Reuss Voigt Hill
#
# Bulk Modulus (GPa) = 8.41264 39.40869 23.91067
# Shear Modulus (GPa) = 28.00099 -30.40301 -1.20101
#
# Velocity S-wave (km/s) = 3.47598 -3.62201 -0.71989
# Velocity P-wave (km/s) = 4.44297 0.69787 3.10266
#
# Compressibility (1/GPa) = 0.11886879
#
# Stress axis : x y z
#
# Youngs Moduli (GPa) = 75.56825 212.03213 10.16762
#
# Poissons Ratio (x) = 0.26271 -0.06749
# Poissons Ratio (y) = 0.09363 0.04184
# Poissons Ratio (z) = -0.50161 0.87248
#
# Static dielectric constant tensor:
#      x y z
#    x 1.897290 0.000000 0.000000 
#    y 0.000000 1.954630 0.000000 
#    z 0.000000 0.000000 1.883430 
# 
# From -- ./inp_files/21209.got.cif
#   From: 2010.05.17/outbox.cif.g08.bks.cpg/sg64_11_cif.got.tgz:21209.got - 2010.06.03 16:29:19.
