data_PCOD9482508
_publ_section_title
;
Structure prediction by ZEFSAII (Michael W. Deem and Ramdas Pophale) SiO2 
 PCOD9482508
Probable space group: C M C A
;
_chemical_formula_sum "Si O2"
_cell_formula_units_Z 44
_cell_length_a 18.000000
_cell_length_b 12.000000
_cell_length_c 21.000000
_cell_angle_alpha 90.000000
_cell_angle_beta 90.000000
_cell_angle_gamma 90.000000
_cell_volume 4536.000000
_symmetry_space_group_name_H-M "C M C A"
_symmetry_group_IT_number 64
_symmetry_cell_setting 'orthorhombic'
loop_
_space_group_symop_operation_xyz
x,y,z
-x,1/2-y,1/2+z
x,-y,-z
-x,1/2+y,1/2-z
-x,-y,-z
x,1/2+y,1/2-z
-x,y,z
x,1/2-y,1/2+z
1/2+x,1/2+y,z
1/2-x,-y,1/2+z
1/2+x,1/2-y,-z
1/2-x,y,1/2-z
1/2-x,1/2-y,-z
1/2+x,y,1/2-z
1/2-x,1/2+y,z
1/2+x,-y,1/2+z
loop_
_atom_site_type_symbol
_atom_site_label
_atom_site_fract_x
_atom_site_fract_y
_atom_site_fract_z
Si Si1 0.913505 0.329504 0.427989
Si Si2 0.910388 0.525928 0.323483
Si Si3 0.195749 0.366246 0.885014
Si Si4 0.750000 0.072542 0.250000
Si Si5 0.412128 0.557152 0.569636
Si Si6 0.140343 0.685008 0.432214
O O1 0.905855 0.424733 0.374407
O O2 0.860863 0.229353 0.405952
O O3 0.889649 0.361123 0.500067
O O4 0.000000 0.294916 0.430554
O O5 0.833038 0.520911 0.278139
O O6 0.898955 0.632730 0.369735
O O7 0.000000 0.526340 0.299491
O O8 0.221533 0.361469 0.811603
O O9 0.148824 0.481101 0.893406
O O10 0.272246 0.347843 0.924944
O O11 0.413562 0.500000 0.500000
O O12 0.500000 0.557597 0.591644
O O13 0.379720 0.682986 0.566669
#
# Coordination Sequence:
#
# PCOD9482508 Si02
#       6
#    16  16  16   8  16  16
#     4  11  22  40  68  98 132 167 210 272 337 401
#     4  10  23  43  68  97 128 174 222 269 331 391
#     4  11  25  41  64  95 129 177 220 270 326 387
#     4  10  26  46  64  86 132 178 228 278 308 384
#     4  11  23  40  66  99 134 168 211 267 332 400
#     4  11  23  40  68 100 137 169 207 272 335 404
#
# _framework density 9.7001760000000008
#
# number of rings (size 3 to 8) (size 9 to 14) (size 15 to 20)
#    0.000    1.273    1.818    3.273    5.091    3.636 
#    3.273    0.000    0.000    0.000    0.000    0.000 
#    0.000    0.000    0.000    0.000    0.000    0.000 
#
# Total GULP energy -245018.635518 kJ/mol
# GULP energy per Si atom -5568.605353 kJ/mol
# Density = 0.967810 g / cm^3
# Si number density = 9.700176 Si / 1000 Ang^3
#
#
#
# Elastic Constant Matrix: (Units=GPa)
#
#
# Indices 1 2 3 4 5 6 
#
# 1 195.2425 30.3868 42.8300 0.0000 0.0000 0.0000
# 2 30.3868 84.2967 -0.8893 0.0000 0.0000 0.0000
# 3 42.8300 -0.8893 86.2285 0.0000 0.0000 0.0000
# 4 0.0000 0.0000 0.0000 20.2083 0.0000 0.0000
# 5 0.0000 0.0000 0.0000 0.0000 43.8324 0.0000
# 6 0.0000 0.0000 0.0000 0.0000 0.0000 31.9567
#
#
#
# Elastic Compliance Matrix: (Units=1/GPa)
#
#
# Indices 1 2 3 4 5 6 
#
# 1 0.006147 -0.002248 -0.003076 0.000000 0.000000 0.000000
# 2 -0.002248 0.012686 0.001247 0.000000 0.000000 0.000000
# 3 -0.003076 0.001247 0.013138 0.000000 0.000000 0.000000
# 4 0.000000 0.000000 0.000000 0.049485 0.000000 0.000000
# 5 0.000000 0.000000 0.000000 0.000000 0.022814 0.000000
# 6 0.000000 0.000000 0.000000 0.000000 0.000000 0.031292
#
#
# Mechanical properties :
#
#
# Convention : Reuss Voigt Hill
#
# Bulk Modulus (GPa) = 41.98645 56.71362 49.35004
# Shear Modulus (GPa) = 32.96962 38.76217 35.86589
#
# Velocity S-wave (km/s) = 4.12689 4.47476 4.30434
# Velocity P-wave (km/s) = 6.66314 7.48297 7.08492
#
# Compressibility (1/GPa) = 0.02381721
#
# Stress axis : x y z
#
# Youngs Moduli (GPa) = 162.69308 78.82454 76.11563
#
# Poissons Ratio (x) = 0.17721 0.23415
# Poissons Ratio (y) = 0.36575 -0.09495
# Poissons Ratio (z) = 0.50047 -0.09833
#
# Static dielectric constant tensor:
#      x y z
#    x 1.737840 0.000000 0.000000 
#    y 0.000000 1.709040 0.000000 
#    z 0.000000 0.000000 1.688720 
# 
# From -- ./inp_files/33137.got.cif
#   From: 2010.05.17/outbox.ucp.g08.bks.cvg/sg64_17_cif.got.tgz:33137.got - 2010.06.11 16:36:46.
