data_PCOD9482331
_publ_section_title
;
Structure prediction by ZEFSAII (Michael W. Deem and Ramdas Pophale) SiO2 
 PCOD9482331
Probable space group: C M C A
;
_chemical_formula_sum "Si O2"
_cell_formula_units_Z 96
_cell_length_a 7.526922
_cell_length_b 34.210757
_cell_length_c 19.109647
_cell_angle_alpha 90.000000
_cell_angle_beta 90.000000
_cell_angle_gamma 90.000000
_cell_volume 4920.766579
_symmetry_space_group_name_H-M "C M C A"
_symmetry_group_IT_number 64
_symmetry_cell_setting 'orthorhombic'
loop_
_space_group_symop_operation_xyz
x,y,z
-x,1/2-y,1/2+z
x,-y,-z
-x,1/2+y,1/2-z
-x,-y,-z
x,1/2+y,1/2-z
-x,y,z
x,1/2-y,1/2+z
1/2+x,1/2+y,z
1/2-x,-y,1/2+z
1/2+x,1/2-y,-z
1/2-x,y,1/2-z
1/2-x,1/2-y,-z
1/2+x,y,1/2-z
1/2-x,1/2+y,z
1/2+x,-y,1/2+z
loop_
_atom_site_type_symbol
_atom_site_label
_atom_site_fract_x
_atom_site_fract_y
_atom_site_fract_z
Si Si1 0.212917 0.509647 0.668290
Si Si2 0.216656 0.870887 0.957356
Si Si3 0.287538 0.168435 0.670301
Si Si4 0.783285 0.588866 0.601073
Si Si5 0.212763 0.292738 0.470898
Si Si6 0.286811 0.922158 0.668877
O O1 0.250000 0.516939 0.750000
O O2 0.281290 0.546452 0.624577
O O3 0.280999 0.466019 0.652190
O O4 0.000000 0.508497 0.658802
O O5 0.279894 0.889876 0.885363
O O6 0.000000 0.869750 0.955145
O O7 0.265366 0.898518 0.022743
O O8 0.277335 0.827398 0.977859
O O9 0.500000 0.167303 0.664348
O O10 0.250000 0.179539 0.750000
O O11 0.224401 0.124409 0.651628
O O12 0.222335 0.196791 0.607772
O O13 0.000000 0.588052 0.603650
O O14 0.250000 0.250000 0.500000
O O15 0.000000 0.296216 0.468432
O O16 0.500000 0.923555 0.661525
O O17 0.250000 0.913747 0.750000
#
# Coordination Sequence:
#
# PCOD9482331 Si02
#       6
#    16  16  16  16  16  16
#     4   9  16  25  40  63  89 117 148 180 212 248
#     4   8  15  29  47  65  86 113 144 179 220 260
#     4   9  17  29  46  68  93 119 145 176 218 266
#     4   8  14  25  42  65  90 114 144 181 215 252
#     4   9  18  33  51  69  90 116 146 182 224 268
#     4   9  17  29  45  64  87 117 150 182 216 252
#
# _framework density 19.509153999999999
#
# number of rings (size 3 to 8) (size 9 to 14) (size 15 to 20)
#    0.000    3.333    0.000    2.500    0.000    1.333 
#    0.000    5.000    0.000    7.000    0.000    4.667 
#    0.000    0.000    0.000    0.000    0.000    0.000 
#
# Total GULP energy -267494.210686 kJ/mol
# GULP energy per Si atom -5572.796056 kJ/mol
# Density = 1.946475 g / cm^3
# Si number density = 19.509154 Si / 1000 Ang^3
#
#
#
# Elastic Constant Matrix: (Units=GPa)
#
#
# Indices 1 2 3 4 5 6 
#
# 1 48.0565 7.8266 2.5950 0.0000 0.0000 0.0000
# 2 7.8266 175.2502 131.3462 0.0000 0.0000 0.0000
# 3 2.5950 131.3462 147.1469 0.0000 0.0000 0.0000
# 4 0.0000 0.0000 0.0000 25.1087 0.0000 0.0000
# 5 0.0000 0.0000 0.0000 0.0000 18.4808 0.0000
# 6 0.0000 0.0000 0.0000 0.0000 0.0000 9.4379
#
#
#
# Elastic Compliance Matrix: (Units=1/GPa)
#
#
# Indices 1 2 3 4 5 6 
#
# 1 0.021058 -0.002000 0.001414 0.000000 0.000000 0.000000
# 2 -0.002000 0.017429 -0.015522 0.000000 0.000000 0.000000
# 3 0.001414 -0.015522 0.020626 0.000000 0.000000 0.000000
# 4 0.000000 0.000000 0.000000 0.039827 0.000000 0.000000
# 5 0.000000 0.000000 0.000000 0.000000 0.054110 0.000000
# 6 0.000000 0.000000 0.000000 0.000000 0.000000 0.105955
#
#
# Mechanical properties :
#
#
# Convention : Reuss Voigt Hill
#
# Bulk Modulus (GPa) = 37.17892 72.66546 54.92219
# Shear Modulus (GPa) = 16.65618 25.85119 21.25368
#
# Velocity S-wave (km/s) = 2.92509 3.64411 3.30422
# Velocity P-wave (km/s) = 5.52329 7.41848 6.53990
#
# Compressibility (1/GPa) = 0.02689696
#
# Stress axis : x y z
#
# Youngs Moduli (GPa) = 47.48727 57.37554 48.48150
#
# Poissons Ratio (x) = 0.11477 -0.06856
# Poissons Ratio (y) = 0.09499 0.75254
# Poissons Ratio (z) = -0.06716 0.89060
#
# Static dielectric constant tensor:
#      x y z
#    x 1.773720 0.000000 0.000000 
#    y 0.000000 1.684410 0.000000 
#    z 0.000000 0.000000 1.672390 
# 
# From -- ./inp_files/31163.got.cif
#   From: 2010.05.17/outbox.cif.g08.bks.cpg/sg64_16_cif.got.tgz:31163.got - 2010.06.03 16:29:19.
