data_PCOD9482428
_publ_section_title
;
Structure prediction by ZEFSAII (Michael W. Deem and Ramdas Pophale) SiO2 
 PCOD9482428
Probable space group: C M C A
;
_chemical_formula_sum "Si O2"
_cell_formula_units_Z 48
_cell_length_a 15.000000
_cell_length_b 15.000000
_cell_length_c 21.000000
_cell_angle_alpha 90.000000
_cell_angle_beta 90.000000
_cell_angle_gamma 90.000000
_cell_volume 4725.000000
_symmetry_space_group_name_H-M "C M C A"
_symmetry_group_IT_number 64
_symmetry_cell_setting 'orthorhombic'
loop_
_space_group_symop_operation_xyz
x,y,z
-x,1/2-y,1/2+z
x,-y,-z
-x,1/2+y,1/2-z
-x,-y,-z
x,1/2+y,1/2-z
-x,y,z
x,1/2-y,1/2+z
1/2+x,1/2+y,z
1/2-x,-y,1/2+z
1/2+x,1/2-y,-z
1/2-x,y,1/2-z
1/2-x,1/2-y,-z
1/2+x,y,1/2-z
1/2-x,1/2+y,z
1/2+x,-y,1/2+z
loop_
_atom_site_type_symbol
_atom_site_label
_atom_site_fract_x
_atom_site_fract_y
_atom_site_fract_z
Si Si1 0.894170 0.722059 0.989294
Si Si2 0.191624 0.791195 0.349949
Si Si3 0.661021 0.143804 0.124132
Si Si4 0.894346 0.413085 0.456237
Si Si5 0.102963 0.628809 0.269090
Si Si6 0.222446 0.478076 0.340260
O O1 0.851970 0.695682 0.920725
O O2 0.000000 0.725897 0.978704
O O3 0.878596 0.662324 0.053335
O O4 0.862516 0.822716 0.008405
O O5 0.277766 0.730195 0.363100
O O6 0.135915 0.721907 0.303589
O O7 0.218163 0.889436 0.321789
O O8 0.607637 0.136999 0.191835
O O9 0.715787 0.051117 0.124138
O O10 0.881722 0.500000 0.500000
O O11 0.845793 0.434404 0.390429
O O12 0.000000 0.401481 0.445024
O O13 0.165700 0.544383 0.292102
O O14 0.000000 0.612965 0.288079
#
# Coordination Sequence:
#
# PCOD9482428 Si02
#       6
#    16  16  16  16  16  16
#     4  11  23  42  65  99 140 180 223 280 348 417
#     4  11  23  42  70 100 136 177 228 283 346 407
#     4  11  24  42  66  96 140 179 227 281 347 409
#     4  10  20  35  62  98 132 167 217 275 336 403
#     4  11  25  47  69  96 137 183 230 289 347 411
#     4  11  23  39  67  96 130 172 230 278 338 403
#
# _framework density 10.15873
#
# number of rings (size 3 to 8) (size 9 to 14) (size 15 to 20)
#    0.000    1.167    1.667    6.000    2.333    4.000 
#    0.000    5.833    0.000    0.000    0.000    0.000 
#    0.000    0.000    0.000    0.000    0.000    0.000 
#
# Total GULP energy -267819.169279 kJ/mol
# GULP energy per Si atom -5579.566027 kJ/mol
# Density = 1.013561 g / cm^3
# Si number density = 10.158730 Si / 1000 Ang^3
#
#
#
# Elastic Constant Matrix: (Units=GPa)
#
#
# Indices 1 2 3 4 5 6 
#
# 1 81.3262 39.8122 35.7660 0.0000 0.0000 0.0000
# 2 39.8122 160.9772 35.3106 0.0000 0.0000 0.0000
# 3 35.7660 35.3106 135.4481 0.0000 0.0000 0.0000
# 4 0.0000 0.0000 0.0000 32.9917 0.0000 0.0000
# 5 0.0000 0.0000 0.0000 0.0000 42.5245 0.0000
# 6 0.0000 0.0000 0.0000 0.0000 0.0000 29.0648
#
#
#
# Elastic Compliance Matrix: (Units=1/GPa)
#
#
# Indices 1 2 3 4 5 6 
#
# 1 0.015207 -0.003055 -0.003219 0.000000 0.000000 0.000000
# 2 -0.003055 0.007203 -0.001071 0.000000 0.000000 0.000000
# 3 -0.003219 -0.001071 0.008512 0.000000 0.000000 0.000000
# 4 0.000000 0.000000 0.000000 0.030311 0.000000 0.000000
# 5 0.000000 0.000000 0.000000 0.000000 0.023516 0.000000
# 6 0.000000 0.000000 0.000000 0.000000 0.000000 0.034406
#
#
# Mechanical properties :
#
#
# Convention : Reuss Voigt Hill
#
# Bulk Modulus (GPa) = 61.60722 66.61433 64.11077
# Shear Modulus (GPa) = 35.90528 38.70705 37.30617
#
# Velocity S-wave (km/s) = 4.20838 4.36950 4.28970
# Velocity P-wave (km/s) = 7.34861 7.63640 7.49389
#
# Compressibility (1/GPa) = 0.01623186
#
# Stress axis : x y z
#
# Youngs Moduli (GPa) = 65.75741 138.84057 117.47890
#
# Poissons Ratio (x) = 0.42414 0.37819
# Poissons Ratio (y) = 0.20088 0.12582
# Poissons Ratio (z) = 0.21169 0.14870
#
# Static dielectric constant tensor:
#      x y z
#    x 1.767880 0.000000 0.000000 
#    y 0.000000 1.709800 0.000000 
#    z 0.000000 0.000000 1.745700 
# 
# From -- ./inp_files/39175.got.cif
#   From: 2010.05.17/outbox.ucp.g08.bks.cvg/sg64_20_cif.got.tgz:39175.got - 2010.06.11 16:36:46.
