data_PCOD9482608
_publ_section_title
;
Structure prediction by ZEFSAII (Michael W. Deem and Ramdas Pophale) SiO2 
 PCOD9482608
Probable space group: C M M M
;
_chemical_formula_sum "Si O2"
_cell_formula_units_Z 80
_cell_length_a 8.681764
_cell_length_b 29.171592
_cell_length_c 21.500520
_cell_angle_alpha 90.000000
_cell_angle_beta 90.000000
_cell_angle_gamma 90.000000
_cell_volume 5445.240556
_symmetry_space_group_name_H-M "C M M M"
_symmetry_group_IT_number 65
_symmetry_cell_setting 'orthorhombic'
loop_
_space_group_symop_operation_xyz
x,y,z
-x,-y,z
x,-y,-z
-x,y,-z
-x,-y,-z
x,y,-z
-x,y,z
x,-y,z
1/2+x,1/2+y,z
1/2-x,1/2-y,z
1/2+x,1/2-y,-z
1/2-x,1/2+y,-z
1/2-x,1/2-y,-z
1/2+x,1/2+y,-z
1/2-x,1/2+y,z
1/2+x,1/2-y,z
loop_
_atom_site_type_symbol
_atom_site_label
_atom_site_fract_x
_atom_site_fract_y
_atom_site_fract_z
Si Si1 0.816408 0.144474 0.617640
Si Si2 0.816685 0.301133 0.500000
Si Si3 0.684438 0.697788 0.000000
Si Si4 0.684310 0.802029 0.127770
Si Si5 0.314978 0.301494 0.257063
Si Si6 0.185395 0.552075 0.426887
O O1 0.739762 0.172064 0.561030
O O2 0.776163 0.168119 0.683018
O O3 0.762379 0.092088 0.612285
O O4 0.000000 0.147060 0.610214
O O5 0.750000 0.250000 0.500000
O O6 0.000000 0.299327 0.500000
O O7 0.750000 0.750000 0.000000
O O8 0.747612 0.676821 0.935657
O O9 0.500000 0.699226 0.000000
O O10 0.750000 0.750000 0.129229
O O11 0.743155 0.821354 0.193381
O O12 0.000000 0.699054 0.125023
O O13 0.500000 0.298724 0.250475
O O14 0.250000 0.250000 0.266312
O O15 0.224936 0.558751 0.500000
O O16 0.229115 0.500000 0.409872
O O17 0.000000 0.555652 0.422418
#
# Coordination Sequence:
#
# PCOD9482608 Si02
#       6
#    16   8   8  16  16  16
#     4  11  22  34  49  69  90 114 148 185 226 271
#     4  12  24  36  49  64  87 116 150 189 225 263
#     4  10  16  24  38  56  80 108 141 182 221 254
#     4  10  17  26  40  58  80 109 146 183 218 257
#     4  10  20  32  44  61  86 117 151 185 220 263
#     4   9  18  33  52  72  91 112 140 178 226 276
#
# _framework density 14.691729
#
# number of rings (size 3 to 8) (size 9 to 14) (size 15 to 20)
#    0.000    1.800    1.000    8.400    0.000    5.200 
#    0.000    1.000    0.000    0.000    0.000    0.000 
#    0.000    0.000    0.000    0.900    0.000   16.900 
#
# Total GULP energy -223126.634699 kJ/mol
# GULP energy per Si atom -5578.165867 kJ/mol
# Density = 1.465829 g / cm^3
# Si number density = 14.691729 Si / 1000 Ang^3
#
#
#
# Elastic Constant Matrix: (Units=GPa)
#
#
# Indices 1 2 3 4 5 6 
#
# 1 95.2277 33.0670 68.7727 0.0000 0.0000 0.0000
# 2 33.0670 73.9266 53.7634 0.0000 0.0000 0.0000
# 3 68.7727 53.7634 148.4031 0.0000 0.0000 0.0000
# 4 0.0000 0.0000 0.0000 1.7148 0.0000 0.0000
# 5 0.0000 0.0000 0.0000 0.0000 24.7089 0.0000
# 6 0.0000 0.0000 0.0000 0.0000 0.0000 20.2228
#
#
#
# Elastic Compliance Matrix: (Units=1/GPa)
#
#
# Indices 1 2 3 4 5 6 
#
# 1 0.016094 -0.002409 -0.006585 0.000000 0.000000 0.000000
# 2 -0.002409 0.018726 -0.005668 0.000000 0.000000 0.000000
# 3 -0.006585 -0.005668 0.011843 0.000000 0.000000 0.000000
# 4 0.000000 0.000000 0.000000 0.583162 0.000000 0.000000
# 5 0.000000 0.000000 0.000000 0.000000 0.040471 0.000000
# 6 0.000000 0.000000 0.000000 0.000000 0.000000 0.049449
#
#
# Mechanical properties :
#
#
# Convention : Reuss Voigt Hill
#
# Bulk Modulus (GPa) = 57.67386 69.86262 63.76824
# Shear Modulus (GPa) = 6.62383 20.12627 13.37505
#
# Velocity S-wave (km/s) = 2.12564 3.70524 3.02052
# Velocity P-wave (km/s) = 6.73540 8.12162 7.46077
#
# Compressibility (1/GPa) = 0.01733888
#
# Stress axis : x y z
#
# Youngs Moduli (GPa) = 62.13667 53.40030 84.43565
#
# Poissons Ratio (x) = 0.12867 0.55602
# Poissons Ratio (y) = 0.14972 0.47855
# Poissons Ratio (z) = 0.40918 0.30265
#
# Static dielectric constant tensor:
#      x y z
#    x 1.491420 0.000000 0.000000 
#    y 0.000000 1.463370 0.000000 
#    z 0.000000 0.000000 1.529020 
# 
# From -- ./inp_files/67971.got.cif
#   From: 2010.05.17/outbox.cif.g08.bks.cpg/sg65_34_cif.got.tgz:67971.got - 2010.06.03 17:01:31.
