data_PCOD9482257
_publ_section_title
;
Structure prediction by ZEFSAII (Michael W. Deem and Ramdas Pophale) SiO2 
 PCOD9482257
Probable space group: C M C A
;
_chemical_formula_sum "Si O2"
_cell_formula_units_Z 44
_cell_length_a 9.978301
_cell_length_b 24.126545
_cell_length_c 7.592565
_cell_angle_alpha 90.000000
_cell_angle_beta 90.000000
_cell_angle_gamma 90.000000
_cell_volume 1827.848737
_symmetry_space_group_name_H-M "C M C A"
_symmetry_group_IT_number 64
_symmetry_cell_setting 'orthorhombic'
loop_
_space_group_symop_operation_xyz
x,y,z
-x,1/2-y,1/2+z
x,-y,-z
-x,1/2+y,1/2-z
-x,-y,-z
x,1/2+y,1/2-z
-x,y,z
x,1/2-y,1/2+z
1/2+x,1/2+y,z
1/2-x,-y,1/2+z
1/2+x,1/2-y,-z
1/2-x,y,1/2-z
1/2-x,1/2-y,-z
1/2+x,y,1/2-z
1/2-x,1/2+y,z
1/2+x,-y,1/2+z
loop_
_atom_site_type_symbol
_atom_site_label
_atom_site_fract_x
_atom_site_fract_y
_atom_site_fract_z
Si Si1 0.500000 0.696947 0.017051
Si Si2 0.500000 0.825120 0.929516
Si Si3 0.500000 0.000000 0.000000
Si Si4 0.268672 0.116623 0.554880
Si Si5 0.750000 0.533989 0.250000
O O1 0.500000 0.762784 0.002341
O O2 0.500000 0.681218 0.220989
O O3 0.628774 0.667800 0.932981
O O4 0.372046 0.859094 0.990780
O O5 0.379269 0.007333 0.151843
O O6 0.250000 0.093649 0.750000
O O7 0.310598 0.072827 0.407422
#
# Coordination Sequence:
#
# PCOD9482257 Si02
#       5
#     8   8   4  16   8
#     4  12  23  42  68 111 159 212 273 322 387 480
#     4  12  23  42  68 112 161 212 274 325 385 481
#     4  12  32  56  92 122 166 210 286 368 432 524
#     4  12  25  47  75 109 158 213 263 336 412 488
#     4  12  28  58  80 126 158 216 280 358 442 510
#
# _framework density 24.072015
#
# number of rings (size 3 to 8) (size 9 to 14) (size 15 to 20)
#    0.000    0.000    3.636    6.545    2.545    0.727 
#    0.000    0.000    0.000    0.000    0.000    0.000 
#    0.000    0.000    0.000    0.000    0.000    0.000 
#
# Total GULP energy -122713.557957 kJ/mol
# GULP energy per Si atom -5577.888998 kJ/mol
# Density = 2.401723 g / cm^3
# Si number density = 24.072015 Si / 1000 Ang^3
#
#
#
# Elastic Constant Matrix: (Units=GPa)
#
#
# Indices 1 2 3 4 5 6 
#
# 1 194.2559 64.4065 52.1731 0.0000 0.0000 0.0000
# 2 64.4065 85.0532 66.8036 0.0000 0.0000 0.0000
# 3 52.1731 66.8036 232.1506 0.0000 0.0000 0.0000
# 4 0.0000 0.0000 0.0000 39.8671 0.0000 0.0000
# 5 0.0000 0.0000 0.0000 0.0000 74.9305 0.0000
# 6 0.0000 0.0000 0.0000 0.0000 0.0000 27.7376
#
#
#
# Elastic Compliance Matrix: (Units=1/GPa)
#
#
# Indices 1 2 3 4 5 6 
#
# 1 0.006874 -0.005158 -0.000061 0.000000 0.000000 0.000000
# 2 -0.005158 0.019061 -0.004326 0.000000 0.000000 0.000000
# 3 -0.000061 -0.004326 0.005566 0.000000 0.000000 0.000000
# 4 0.000000 0.000000 0.000000 0.025083 0.000000 0.000000
# 5 0.000000 0.000000 0.000000 0.000000 0.013346 0.000000
# 6 0.000000 0.000000 0.000000 0.000000 0.000000 0.036052
#
#
# Mechanical properties :
#
#
# Convention : Reuss Voigt Hill
#
# Bulk Modulus (GPa) = 80.56483 97.58067 89.07275
# Shear Modulus (GPa) = 38.69722 50.37880 44.53801
#
# Velocity S-wave (km/s) = 4.01379 4.57972 4.30606
# Velocity P-wave (km/s) = 7.41765 8.28191 7.86167
#
# Compressibility (1/GPa) = 0.01241236
#
# Stress axis : x y z
#
# Youngs Moduli (GPa) = 145.47016 52.46389 179.66346
#
# Poissons Ratio (x) = 0.27060 0.01090
# Poissons Ratio (y) = 0.75032 0.77718
# Poissons Ratio (z) = 0.00883 0.22695
#
# Static dielectric constant tensor:
#      x y z
#    x 1.911200 0.000000 0.000000 
#    y 0.000000 2.028630 0.000000 
#    z 0.000000 0.000000 1.889710 
# 
# From -- ./inp_files/3914.got.cif
#   From: 2010.05.17/outbox.cif.g08.bks.cpg/sg64_2_cif.got.tgz:3914.got - 2010.06.03 16:29:19.
