data_PCOD9482232
_publ_section_title
;
Structure prediction by ZEFSAII (Michael W. Deem and Ramdas Pophale) SiO2 
 PCOD9482232
Probable space group: C M C A
;
_chemical_formula_sum "Si O2"
_cell_formula_units_Z 104
_cell_length_a 17.680154
_cell_length_b 15.321788
_cell_length_c 19.618780
_cell_angle_alpha 90.000000
_cell_angle_beta 90.000000
_cell_angle_gamma 90.000000
_cell_volume 5314.562143
_symmetry_space_group_name_H-M "C M C A"
_symmetry_group_IT_number 64
_symmetry_cell_setting 'orthorhombic'
loop_
_space_group_symop_operation_xyz
x,y,z
-x,1/2-y,1/2+z
x,-y,-z
-x,1/2+y,1/2-z
-x,-y,-z
x,1/2+y,1/2-z
-x,y,z
x,1/2-y,1/2+z
1/2+x,1/2+y,z
1/2-x,-y,1/2+z
1/2+x,1/2-y,-z
1/2-x,y,1/2-z
1/2-x,1/2-y,-z
1/2+x,y,1/2-z
1/2-x,1/2+y,z
1/2+x,-y,1/2+z
loop_
_atom_site_type_symbol
_atom_site_label
_atom_site_fract_x
_atom_site_fract_y
_atom_site_fract_z
Si Si1 0.914905 0.267425 0.378452
Si Si2 0.909369 0.155606 0.727057
Si Si3 0.685906 0.808312 0.694633
Si Si4 0.082237 0.961679 0.090329
Si Si5 0.222112 0.000000 0.000000
Si Si6 0.275306 0.823840 0.945491
Si Si7 0.913677 0.530138 0.256680
O O1 0.894514 0.302794 0.302629
O O2 0.916891 0.357826 0.420629
O O3 0.855443 0.203408 0.412600
O O4 0.000000 0.231623 0.375338
O O5 0.867297 0.225153 0.680674
O O6 0.000000 0.155502 0.719266
O O7 0.884223 0.054894 0.715441
O O8 0.750000 0.784675 0.750000
O O9 0.721969 0.831452 0.621675
O O10 0.638396 0.886144 0.731098
O O11 0.000000 0.996709 0.067135
O O12 0.160738 0.993968 0.060695
O O13 0.081327 0.985459 0.169327
O O14 0.271260 0.085242 0.014149
O O15 0.250000 0.750000 0.000000
O O16 0.000000 0.553803 0.235826
#
# Coordination Sequence:
#
# PCOD9482232 Si02
#       7
#    16  16  16  16   8  16  16
#     4   9  18  38  62  83 117 164 204 242 307 378
#     4   9  19  38  63  91 123 157 198 254 315 370
#     4  12  23  38  61  94 122 160 210 252 308 369
#     4   9  17  32  57  86 114 151 194 243 308 365
#     4  12  21  36  59  82 124 156 200 258 311 358
#     4  12  25  42  60  92 129 163 208 261 317 366
#     4   9  19  37  59  89 123 156 200 255 308 362
#
# _framework density 19.568874999999998
#
# number of rings (size 3 to 8) (size 9 to 14) (size 15 to 20)
#    0.000    1.846    4.615    2.538    0.000    0.615 
#    2.769    1.923    0.000    0.000    0.000    0.000 
#    0.000    0.000    0.000    0.000    0.000    0.000 
#
# Total GULP energy -289469.661549 kJ/mol
# GULP energy per Si atom -5566.724261 kJ/mol
# Density = 1.952434 g / cm^3
# Si number density = 19.568875 Si / 1000 Ang^3
#
#
#
# Elastic Constant Matrix: (Units=GPa)
#
#
# Indices 1 2 3 4 5 6 
#
# 1 78.2438 43.8390 -3.7602 0.0000 0.0000 0.0000
# 2 43.8390 106.6118 -1.5178 0.0000 0.0000 0.0000
# 3 -3.7602 -1.5178 27.1976 0.0000 0.0000 0.0000
# 4 0.0000 0.0000 0.0000 26.0090 0.0000 0.0000
# 5 0.0000 0.0000 0.0000 0.0000 3.4206 0.0000
# 6 0.0000 0.0000 0.0000 0.0000 0.0000 34.1635
#
#
#
# Elastic Compliance Matrix: (Units=1/GPa)
#
#
# Indices 1 2 3 4 5 6 
#
# 1 0.016707 -0.006843 0.001928 0.000000 0.000000 0.000000
# 2 -0.006843 0.012190 -0.000266 0.000000 0.000000 0.000000
# 3 0.001928 -0.000266 0.037020 0.000000 0.000000 0.000000
# 4 0.000000 0.000000 0.000000 0.038448 0.000000 0.000000
# 5 0.000000 0.000000 0.000000 0.000000 0.292345 0.000000
# 6 0.000000 0.000000 0.000000 0.000000 0.000000 0.029271
#
#
# Mechanical properties :
#
#
# Convention : Reuss Voigt Hill
#
# Bulk Modulus (GPa) = 17.99993 32.13057 25.06525
# Shear Modulus (GPa) = 10.99239 24.28478 17.63859
#
# Velocity S-wave (km/s) = 2.37265 3.52659 3.00552
# Velocity P-wave (km/s) = 4.08952 5.74781 4.98806
#
# Compressibility (1/GPa) = 0.05555579
#
# Stress axis : x y z
#
# Youngs Moduli (GPa) = 59.85520 82.03652 27.01267
#
# Poissons Ratio (x) = 0.56133 -0.05208
# Poissons Ratio (y) = 0.40956 0.00718
# Poissons Ratio (z) = -0.11540 0.02180
#
# Static dielectric constant tensor:
#      x y z
#    x 1.702040 0.000000 0.000000 
#    y 0.000000 1.772700 0.000000 
#    z 0.000000 0.000000 1.746710 
# 
# From -- ./inp_files/40257.got.cif
#   From: 2010.05.17/outbox.cif.g08.bks.cpg/sg64_21_cif.got.tgz:40257.got - 2010.06.03 16:29:19.
