data_PCOD9482830
_publ_section_title
;
Structure prediction by ZEFSAII (Michael W. Deem and Ramdas Pophale) SiO2 
 PCOD9482830
Probable space group: C M M M
;
_chemical_formula_sum "Si O2"
_cell_formula_units_Z 104
_cell_length_a 23.147380
_cell_length_b 30.660109
_cell_length_c 8.941023
_cell_angle_alpha 90.000000
_cell_angle_beta 90.000000
_cell_angle_gamma 90.000000
_cell_volume 6345.454697
_symmetry_space_group_name_H-M "C M M M"
_symmetry_group_IT_number 65
_symmetry_cell_setting 'orthorhombic'
loop_
_space_group_symop_operation_xyz
x,y,z
-x,-y,z
x,-y,-z
-x,y,-z
-x,-y,-z
x,y,-z
-x,y,z
x,-y,z
1/2+x,1/2+y,z
1/2-x,1/2-y,z
1/2+x,1/2-y,-z
1/2-x,1/2+y,-z
1/2-x,1/2-y,-z
1/2+x,1/2+y,-z
1/2-x,1/2+y,z
1/2+x,1/2-y,z
loop_
_atom_site_type_symbol
_atom_site_label
_atom_site_fract_x
_atom_site_fract_y
_atom_site_fract_z
Si Si1 0.851049 0.449232 0.680049
Si Si2 0.000000 0.050027 0.318192
Si Si3 0.570167 0.786043 0.327619
Si Si4 0.067847 0.623105 0.821359
Si Si5 0.218560 0.049614 0.681888
Si Si6 0.568588 0.304635 0.178407
Si Si7 0.611141 0.392689 0.681254
O O1 0.854773 0.444638 0.500000
O O2 0.863295 0.500000 0.715494
O O3 0.894552 0.416148 0.756866
O O4 0.784453 0.440335 0.725299
O O5 0.057155 0.076560 0.274086
O O6 0.000000 0.048636 0.500000
O O7 0.000000 0.000000 0.265502
O O8 0.588634 0.785838 0.500000
O O9 0.500000 0.785928 0.324460
O O10 0.587823 0.830695 0.247202
O O11 0.588101 0.741735 0.245211
O O12 0.000000 0.617174 0.782030
O O13 0.072068 0.624897 0.000000
O O14 0.217689 0.049155 0.500000
O O15 0.170214 0.083803 0.729694
O O16 0.204560 0.000000 0.729738
O O17 0.500000 0.309876 0.213904
O O18 0.601533 0.345281 0.249881
O O19 0.574426 0.304334 0.000000
O O20 0.610741 0.389447 0.500000
#
# Coordination Sequence:
#
# PCOD9482830 Si02
#       7
#    16   8  16  16  16  16  16
#     4   9  18  33  52  73  98 130 167 202 236 279
#     4   9  16  24  39  67  97 123 157 205 252 289
#     4   9  17  30  50  73  96 124 160 198 236 285
#     4  10  20  33  50  75 105 131 155 188 238 292
#     4   8  15  29  49  71  94 124 165 210 248 282
#     4  10  19  30  44  65  98 133 163 198 245 294
#     4  10  17  27  46  70  95 124 164 209 249 290
#
# _framework density 16.389683999999999
#
# number of rings (size 3 to 8) (size 9 to 14) (size 15 to 20)
#    0.000    2.692    0.769    2.769    0.000    5.846 
#    0.000    2.308    0.000    4.154    0.000    6.462 
#    0.000    0.000    0.000    0.000    0.000    0.000 
#
# Total GULP energy -289857.778436 kJ/mol
# GULP energy per Si atom -5574.188047 kJ/mol
# Density = 1.635238 g / cm^3
# Si number density = 16.389684 Si / 1000 Ang^3
#
#
#
# Elastic Constant Matrix: (Units=GPa)
#
#
# Indices 1 2 3 4 5 6 
#
# 1 80.4855 91.0694 38.4017 0.0000 0.0000 0.0000
# 2 91.0694 173.9372 58.0538 0.0000 0.0000 0.0000
# 3 38.4017 58.0538 39.0946 0.0000 0.0000 0.0000
# 4 0.0000 0.0000 0.0000 -24.2087 0.0000 0.0000
# 5 0.0000 0.0000 0.0000 0.0000 12.2645 0.0000
# 6 0.0000 0.0000 0.0000 0.0000 0.0000 17.7828
#
#
#
# Elastic Compliance Matrix: (Units=1/GPa)
#
#
# Indices 1 2 3 4 5 6 
#
# 1 0.033837 -0.013131 -0.013739 0.000000 0.000000 0.000000
# 2 -0.013131 0.016494 -0.011595 0.000000 0.000000 0.000000
# 3 -0.013739 -0.011595 0.056292 0.000000 0.000000 0.000000
# 4 0.000000 0.000000 0.000000 -0.041307 0.000000 0.000000
# 5 0.000000 0.000000 0.000000 0.000000 0.081536 0.000000
# 6 0.000000 0.000000 0.000000 0.000000 0.000000 0.056234
#
#
# Mechanical properties :
#
#
# Convention : Reuss Voigt Hill
#
# Bulk Modulus (GPa) = 33.67624 74.28522 53.98073
# Shear Modulus (GPa) = 17.24643 8.23387 12.74015
#
# Velocity S-wave (km/s) = 3.24740 2.24382 2.79108
# Velocity P-wave (km/s) = 5.88665 7.22051 6.58742
#
# Compressibility (1/GPa) = 0.02969453
#
# Stress axis : x y z
#
# Youngs Moduli (GPa) = 29.55301 60.62721 17.76438
#
# Poissons Ratio (x) = 0.79610 0.24406
# Poissons Ratio (y) = 0.38806 0.20598
# Poissons Ratio (z) = 0.40602 0.70297
#
# Static dielectric constant tensor:
#      x y z
#    x 1.539390 0.000000 0.000000 
#    y 0.000000 1.533740 0.000000 
#    z 0.000000 0.000000 1.546410 
# 
# From -- ./inp_files/14702.got.cif
#   From: 2010.05.17/outbox.cif.g08.bks.cpg/sg65_8_cif.got.tgz:14702.got - 2010.06.03 17:01:31.
