data_PCOD9482671
_publ_section_title
;
Structure prediction by ZEFSAII (Michael W. Deem and Ramdas Pophale) SiO2 
 PCOD9482671
Probable space group: C M M M
;
_chemical_formula_sum "Si O2"
_cell_formula_units_Z 128
_cell_length_a 21.358167
_cell_length_b 19.827609
_cell_length_c 17.839829
_cell_angle_alpha 90.000000
_cell_angle_beta 90.000000
_cell_angle_gamma 90.000000
_cell_volume 7554.835479
_symmetry_space_group_name_H-M "C M M M"
_symmetry_group_IT_number 65
_symmetry_cell_setting 'orthorhombic'
loop_
_space_group_symop_operation_xyz
x,y,z
-x,-y,z
x,-y,-z
-x,y,-z
-x,-y,-z
x,y,-z
-x,y,z
x,-y,z
1/2+x,1/2+y,z
1/2-x,1/2-y,z
1/2+x,1/2-y,-z
1/2-x,1/2+y,-z
1/2-x,1/2-y,-z
1/2+x,1/2+y,-z
1/2-x,1/2+y,z
1/2+x,1/2-y,z
loop_
_atom_site_type_symbol
_atom_site_label
_atom_site_fract_x
_atom_site_fract_y
_atom_site_fract_z
Si Si1 0.570263 0.199362 0.671635
Si Si2 0.690855 0.704613 0.159894
Si Si3 0.777787 0.075674 0.410768
Si Si4 0.766566 0.577513 0.839311
Si Si5 0.396624 0.075115 0.912648
Si Si6 0.842021 0.577535 0.311163
Si Si7 0.814526 0.212180 0.658989
Si Si8 0.932192 0.718950 0.150619
O O1 0.500000 0.203056 0.640370
O O2 0.599495 0.124690 0.673341
O O3 0.623915 0.246256 0.635796
O O4 0.566681 0.220122 0.759137
O O5 0.750000 0.750000 0.136300
O O6 0.710626 0.628066 0.142970
O O7 0.686536 0.709325 0.250512
O O8 0.627298 0.736153 0.127237
O O9 0.778602 0.081627 0.500000
O O10 0.707332 0.080974 0.378737
O O11 0.814539 0.137095 0.373528
O O12 0.799990 0.000000 0.389956
O O13 0.746855 0.500000 0.827918
O O14 0.821676 0.579038 0.900460
O O15 0.802682 0.600603 0.762678
O O16 0.423707 0.140744 0.872516
O O17 0.415506 0.000000 0.884321
O O18 0.412417 0.078357 0.000000
O O19 0.859645 0.500000 0.297855
O O20 0.750000 0.250000 0.635874
O O21 0.000000 0.742499 0.122385
#
# Coordination Sequence:
#
# PCOD9482671 Si02
#       8
#    16  16  16  16  16  16  16  16
#     4  10  19  31  48  74 102 130 166 209 251 294
#     4  10  16  29  51  73  95 127 166 208 255 296
#     4  10  20  32  50  78 105 127 162 213 260 300
#     4  10  17  29  51  75  98 129 172 213 249 295
#     4  10  20  33  49  72 105 140 171 206 250 301
#     4  10  17  30  50  73 101 134 168 203 245 297
#     4  10  17  30  50  73  98 128 164 207 252 295
#     4  10  20  32  47  69 100 134 169 210 252 297
#
# _framework density 16.942791
#
# number of rings (size 3 to 8) (size 9 to 14) (size 15 to 20)
#    0.000    2.000    5.000    0.750    0.000    1.000 
#    0.000    3.125    0.000    2.250    0.000    6.125 
#    0.000    0.000    0.000    4.250    0.000    1.125 
#
# Total GULP energy -356639.898096 kJ/mol
# GULP energy per Si atom -5572.498408 kJ/mol
# Density = 1.690423 g / cm^3
# Si number density = 16.942791 Si / 1000 Ang^3
#
#
#
# Elastic Constant Matrix: (Units=GPa)
#
#
# Indices 1 2 3 4 5 6 
#
# 1 130.5409 71.0776 11.3961 0.0000 0.0000 0.0000
# 2 71.0776 102.3269 11.5605 0.0000 0.0000 0.0000
# 3 11.3961 11.5605 16.3162 0.0000 0.0000 0.0000
# 4 0.0000 0.0000 0.0000 13.0826 0.0000 0.0000
# 5 0.0000 0.0000 0.0000 0.0000 18.5073 0.0000
# 6 0.0000 0.0000 0.0000 0.0000 0.0000 16.0875
#
#
#
# Elastic Compliance Matrix: (Units=1/GPa)
#
#
# Indices 1 2 3 4 5 6 
#
# 1 0.012436 -0.008323 -0.002789 0.000000 0.000000 0.000000
# 2 -0.008323 0.016193 -0.005660 0.000000 0.000000 0.000000
# 3 -0.002789 -0.005660 0.067247 0.000000 0.000000 0.000000
# 4 0.000000 0.000000 0.000000 0.076437 0.000000 0.000000
# 5 0.000000 0.000000 0.000000 0.000000 0.054033 0.000000
# 6 0.000000 0.000000 0.000000 0.000000 0.000000 0.062160
#
#
# Mechanical properties :
#
#
# Convention : Reuss Voigt Hill
#
# Bulk Modulus (GPa) = 16.04305 48.58360 32.31332
# Shear Modulus (GPa) = 14.58462 19.87881 17.23171
#
# Velocity S-wave (km/s) = 2.93715 3.42905 3.19259
# Velocity P-wave (km/s) = 4.58170 6.66447 5.71870
#
# Compressibility (1/GPa) = 0.06233228
#
# Stress axis : x y z
#
# Youngs Moduli (GPa) = 80.41466 61.75422 14.87054
#
# Poissons Ratio (x) = 0.51397 0.04147
# Poissons Ratio (y) = 0.66928 0.08417
# Poissons Ratio (z) = 0.22425 0.34955
#
# Static dielectric constant tensor:
#      x y z
#    x 1.589520 0.000000 0.000000 
#    y 0.000000 1.600980 0.000000 
#    z 0.000000 0.000000 1.581110 
# 
# From -- ./inp_files/56220.got.cif
#   From: 2010.05.17/outbox.cif.g08.bks.cpg/sg65_29_cif.got.tgz:56220.got - 2010.06.03 17:01:31.
