data_PCOD9482998
_publ_section_title
;
Structure prediction by ZEFSAII (Michael W. Deem and Ramdas Pophale) SiO2 
 PCOD9482998
Probable space group: C M M M
;
_chemical_formula_sum "Si O2"
_cell_formula_units_Z 120
_cell_length_a 14.788803
_cell_length_b 22.368833
_cell_length_c 21.333138
_cell_angle_alpha 90.000000
_cell_angle_beta 90.000000
_cell_angle_gamma 90.000000
_cell_volume 7057.178360
_symmetry_space_group_name_H-M "C M M M"
_symmetry_group_IT_number 65
_symmetry_cell_setting 'orthorhombic'
loop_
_space_group_symop_operation_xyz
x,y,z
-x,-y,z
x,-y,-z
-x,y,-z
-x,-y,-z
x,y,-z
-x,y,z
x,-y,z
1/2+x,1/2+y,z
1/2-x,1/2-y,z
1/2+x,1/2-y,-z
1/2-x,1/2+y,-z
1/2-x,1/2-y,-z
1/2+x,1/2+y,-z
1/2-x,1/2+y,z
1/2+x,1/2-y,z
loop_
_atom_site_type_symbol
_atom_site_label
_atom_site_fract_x
_atom_site_fract_y
_atom_site_fract_z
Si Si1 0.104002 0.427297 0.429653
Si Si2 0.750000 0.750000 0.099293
Si Si3 0.603664 0.749878 0.200614
Si Si4 0.283915 0.116531 0.930823
Si Si5 0.103317 0.866127 0.267089
Si Si6 0.224250 0.569907 0.313500
Si Si7 0.607059 0.109103 0.196507
Si Si8 0.102214 0.928583 0.130401
O O1 0.132108 0.409201 0.500000
O O2 0.103966 0.500000 0.428607
O O3 0.166527 0.407593 0.372710
O O4 0.000000 0.408561 0.419830
O O5 0.668332 0.731534 0.144567
O O6 0.720417 0.811001 0.066697
O O7 0.500000 0.741197 0.181564
O O8 0.620042 0.704536 0.257254
O O9 0.617312 0.820006 0.211843
O O10 0.349245 0.099917 0.872459
O O11 0.183908 0.093048 0.913210
O O12 0.311179 0.094614 0.000000
O O13 0.182330 0.895155 0.306683
O O14 0.110120 0.896237 0.197835
O O15 0.000000 0.875492 0.288790
O O16 0.243814 0.500000 0.322038
O O17 0.164369 0.576715 0.250293
O O18 0.500000 0.094468 0.197387
O O19 0.000000 0.916307 0.106439
O O20 0.110200 0.000000 0.139570
#
# Coordination Sequence:
#
# PCOD9482998 Si02
#       8
#    16   8  16  16  16  16  16  16
#     4   8  15  29  49  74 105 138 169 203 244 287
#     4  10  17  32  50  68  90 118 159 208 255 306
#     4   9  17  31  51  71  94 124 160 207 255 295
#     4  11  22  34  49  69  95 127 163 205 255 304
#     4  10  18  31  52  75  99 128 164 206 250 292
#     4  11  20  31  51  79 106 133 164 200 244 292
#     4  10  21  35  51  72  97 127 167 209 248 296
#     4  10  20  35  53  71  94 124 160 205 253 301
#
# _framework density 17.003962999999999
#
# number of rings (size 3 to 8) (size 9 to 14) (size 15 to 20)
#    0.000    2.133    2.667    2.200    0.000    2.400 
#    0.000    0.667    0.000    2.800    0.000    5.600 
#    0.000    3.200    0.000    0.000    0.000    0.000 
#
# Total GULP energy -334441.391377 kJ/mol
# GULP energy per Si atom -5574.023190 kJ/mol
# Density = 1.696526 g / cm^3
# Si number density = 17.003963 Si / 1000 Ang^3
#
#
#
# Elastic Constant Matrix: (Units=GPa)
#
#
# Indices 1 2 3 4 5 6 
#
# 1 96.0427 27.2808 55.7919 0.0000 0.0000 0.0000
# 2 27.2808 33.1596 12.9432 0.0000 0.0000 0.0000
# 3 55.7919 12.9432 92.4256 0.0000 0.0000 0.0000
# 4 0.0000 0.0000 0.0000 26.1572 0.0000 0.0000
# 5 0.0000 0.0000 0.0000 0.0000 15.2766 0.0000
# 6 0.0000 0.0000 0.0000 0.0000 0.0000 26.9203
#
#
#
# Elastic Compliance Matrix: (Units=1/GPa)
#
#
# Indices 1 2 3 4 5 6 
#
# 1 0.019891 -0.012353 -0.010277 0.000000 0.000000 0.000000
# 2 -0.012353 0.039573 0.001915 0.000000 0.000000 0.000000
# 3 -0.010277 0.001915 0.016755 0.000000 0.000000 0.000000
# 4 0.000000 0.000000 0.000000 0.038230 0.000000 0.000000
# 5 0.000000 0.000000 0.000000 0.000000 0.065460 0.000000
# 6 0.000000 0.000000 0.000000 0.000000 0.000000 0.037147
#
#
# Mechanical properties :
#
#
# Convention : Reuss Voigt Hill
#
# Bulk Modulus (GPa) = 28.74512 45.96217 37.35365
# Shear Modulus (GPa) = 18.51295 22.04497 20.27896
#
# Velocity S-wave (km/s) = 3.30319 3.60455 3.45715
# Velocity P-wave (km/s) = 5.61157 6.66428 6.16045
#
# Compressibility (1/GPa) = 0.03478851
#
# Stress axis : x y z
#
# Youngs Moduli (GPa) = 50.27423 25.27000 59.68373
#
# Poissons Ratio (x) = 0.31216 0.61337
# Poissons Ratio (y) = 0.62104 -0.11430
# Poissons Ratio (z) = 0.51667 -0.04839
#
# Static dielectric constant tensor:
#      x y z
#    x 1.578640 0.000000 0.000000 
#    y 0.000000 1.608960 0.000000 
#    z 0.000000 0.000000 1.561230 
# 
# From -- ./inp_files/63021.got.cif
#   From: 2010.05.17/outbox.cif.g08.bks.cpg/sg65_32_cif.got.tgz:63021.got - 2010.06.03 17:01:31.
