data_PCOD9482035
_publ_section_title
;
Structure prediction by ZEFSAII (Michael W. Deem and Ramdas Pophale) SiO2 
 PCOD9482035
Probable space group: C M C A
;
_chemical_formula_sum "Si O2"
_cell_formula_units_Z 64
_cell_length_a 19.502003
_cell_length_b 11.489670
_cell_length_c 12.121411
_cell_angle_alpha 90.000000
_cell_angle_beta 90.000000
_cell_angle_gamma 90.000000
_cell_volume 2716.063700
_symmetry_space_group_name_H-M "C M C A"
_symmetry_group_IT_number 64
_symmetry_cell_setting 'orthorhombic'
loop_
_space_group_symop_operation_xyz
x,y,z
-x,1/2-y,1/2+z
x,-y,-z
-x,1/2+y,1/2-z
-x,-y,-z
x,1/2+y,1/2-z
-x,y,z
x,1/2-y,1/2+z
1/2+x,1/2+y,z
1/2-x,-y,1/2+z
1/2+x,1/2-y,-z
1/2-x,y,1/2-z
1/2-x,1/2-y,-z
1/2+x,y,1/2-z
1/2-x,1/2+y,z
1/2+x,-y,1/2+z
loop_
_atom_site_type_symbol
_atom_site_label
_atom_site_fract_x
_atom_site_fract_y
_atom_site_fract_z
Si Si1 0.576784 0.811732 0.678477
Si Si2 0.884907 0.566187 0.109510
Si Si3 0.174893 0.305411 0.481570
Si Si4 0.175766 0.885506 0.244280
O O1 0.500000 0.795149 0.634357
O O2 0.573679 0.902702 0.779640
O O3 0.632823 0.845316 0.587609
O O4 0.610329 0.691468 0.722016
O O5 0.863709 0.691350 0.064726
O O6 0.824298 0.489117 0.166220
O O7 0.911561 0.500000 0.000000
O O8 0.250000 0.250000 0.500000
O O9 0.171701 0.402112 0.386444
O O10 0.250000 0.821932 0.250000
#
# Coordination Sequence:
#
# PCOD9482035 Si02
#       4
#    16  16  16  16
#     4  11  26  45  70 105 145 187 236 299 360 423
#     4  11  24  44  72 106 138 189 238 290 361 425
#     4  11  23  45  71 101 144 187 233 298 351 418
#     4  11  23  43  72 105 139 185 241 291 348 431
#
# _framework density 23.563511999999999
#
# number of rings (size 3 to 8) (size 9 to 14) (size 15 to 20)
#    0.000    1.000    5.000    0.000    3.500    6.500 
#    0.000    1.250    0.000    0.000    0.000    0.000 
#    0.000    0.000    0.000    0.000    0.000    0.000 
#
# Total GULP energy -178255.867815 kJ/mol
# GULP energy per Si atom -5570.495869 kJ/mol
# Density = 2.350988 g / cm^3
# Si number density = 23.563512 Si / 1000 Ang^3
#
#
#
# Elastic Constant Matrix: (Units=GPa)
#
#
# Indices 1 2 3 4 5 6 
#
# 1 134.3781 19.8007 52.8474 0.0000 0.0000 0.0000
# 2 19.8007 87.1656 38.6476 0.0000 0.0000 0.0000
# 3 52.8474 38.6476 183.8821 0.0000 0.0000 0.0000
# 4 0.0000 0.0000 0.0000 35.7280 0.0000 0.0000
# 5 0.0000 0.0000 0.0000 0.0000 7.7270 0.0000
# 6 0.0000 0.0000 0.0000 0.0000 0.0000 9.1993
#
#
#
# Elastic Compliance Matrix: (Units=1/GPa)
#
#
# Indices 1 2 3 4 5 6 
#
# 1 0.008458 -0.000930 -0.002235 0.000000 0.000000 0.000000
# 2 -0.000930 0.012754 -0.002413 0.000000 0.000000 0.000000
# 3 -0.002235 -0.002413 0.006588 0.000000 0.000000 0.000000
# 4 0.000000 0.000000 0.000000 0.027989 0.000000 0.000000
# 5 0.000000 0.000000 0.000000 0.000000 0.129416 0.000000
# 6 0.000000 0.000000 0.000000 0.000000 0.000000 0.108704
#
#
# Mechanical properties :
#
#
# Convention : Reuss Voigt Hill
#
# Bulk Modulus (GPa) = 60.08865 69.77966 64.93416
# Shear Modulus (GPa) = 16.09721 30.13954 23.11837
#
# Velocity S-wave (km/s) = 2.61653 3.58030 3.13566
# Velocity P-wave (km/s) = 5.88935 6.83879 6.38175
#
# Compressibility (1/GPa) = 0.01664208
#
# Stress axis : x y z
#
# Youngs Moduli (GPa) = 118.23371 78.40873 151.79422
#
# Poissons Ratio (x) = 0.07294 0.33930
# Poissons Ratio (y) = 0.10998 0.36631
# Poissons Ratio (z) = 0.26428 0.18921
#
# Static dielectric constant tensor:
#      x y z
#    x 1.913520 0.000000 0.000000 
#    y 0.000000 1.957010 0.000000 
#    z 0.000000 0.000000 1.988020 
# 
# From -- ./inp_files/16875.got.cif
#   From: 2010.05.17/outbox.cif.g08.bks.cpg/sg64_9_cif.got.tgz:16875.got - 2010.06.03 16:29:19.
