data_PCOD9482495
_publ_section_title
;
Structure prediction by ZEFSAII (Michael W. Deem and Ramdas Pophale) SiO2 
 PCOD9482495
Probable space group: C M C A
;
_chemical_formula_sum "Si O2"
_cell_formula_units_Z 36
_cell_length_a 9.000000
_cell_length_b 27.000000
_cell_length_c 15.000000
_cell_angle_alpha 90.000000
_cell_angle_beta 90.000000
_cell_angle_gamma 90.000000
_cell_volume 3645.000000
_symmetry_space_group_name_H-M "C M C A"
_symmetry_group_IT_number 64
_symmetry_cell_setting 'orthorhombic'
loop_
_space_group_symop_operation_xyz
x,y,z
-x,1/2-y,1/2+z
x,-y,-z
-x,1/2+y,1/2-z
-x,-y,-z
x,1/2+y,1/2-z
-x,y,z
x,1/2-y,1/2+z
1/2+x,1/2+y,z
1/2-x,-y,1/2+z
1/2+x,1/2-y,-z
1/2-x,y,1/2-z
1/2-x,1/2-y,-z
1/2+x,y,1/2-z
1/2-x,1/2+y,z
1/2+x,-y,1/2+z
loop_
_atom_site_type_symbol
_atom_site_label
_atom_site_fract_x
_atom_site_fract_y
_atom_site_fract_z
Si Si1 0.500000 0.808022 0.598376
Si Si2 0.250000 0.400254 0.750000
Si Si3 0.000000 0.028525 0.219449
Si Si4 0.500000 0.173914 0.196459
Si Si5 0.500000 0.951297 0.432909
Si Si6 0.000000 0.301739 0.008620
Si Si7 0.746761 0.121758 0.491515
Si Si8 0.000000 0.454475 0.930839
O O1 0.500000 0.799967 0.706090
O O2 0.500000 0.753680 0.550706
O O3 0.637759 0.843152 0.568142
O O4 0.357594 0.437530 0.803683
O O5 0.360603 0.362953 0.700908
O O6 0.000000 0.026165 0.328039
O O7 0.000000 0.978043 0.163942
O O8 0.500000 0.201495 0.101243
O O9 0.639343 0.914244 0.449979
O O10 0.500000 0.000000 0.500000
O O11 0.857025 0.336086 0.033373
O O12 0.859397 0.081023 0.449948
O O13 0.000000 0.500000 0.000000
#
# Coordination Sequence:
#
# PCOD9482495 Si02
#       8
#     8   8   8   8   8   8  16   8
#     4  11  22  40  68  92 123 161 213 269 329 375
#     4  10  22  36  62  98 116 160 212 282 298 364
#     4  11  25  37  62  90 128 161 219 248 317 363
#     4  11  21  36  65  91 124 150 214 270 334 350
#     4  11  26  38  62  92 134 170 205 253 321 378
#     4  11  23  40  67  93 126 163 212 266 328 381
#     4  10  23  42  61  96 128 165 214 268 316 375
#     4  11  23  41  66  90 131 173 217 256 309 373
#
# _framework density 9.8765429999999999
#
# number of rings (size 3 to 8) (size 9 to 14) (size 15 to 20)
#    0.000    1.333    0.000    6.667   15.556    0.000 
#    0.000    0.000   14.667    0.000    0.000    0.000 
#    0.000    0.000    0.000    0.000    0.000    0.000 
#
# Total GULP energy -200790.738165 kJ/mol
# GULP energy per Si atom -5577.520505 kJ/mol
# Density = 0.985406 g / cm^3
# Si number density = 9.876543 Si / 1000 Ang^3
#
#
#
# Elastic Constant Matrix: (Units=GPa)
#
#
# Indices 1 2 3 4 5 6 
#
# 1 173.7889 68.4202 47.1919 0.0000 0.0000 0.0000
# 2 68.4202 187.8266 96.5451 0.0000 0.0000 0.0000
# 3 47.1919 96.5451 130.4273 0.0000 0.0000 0.0000
# 4 0.0000 0.0000 0.0000 56.1147 0.0000 0.0000
# 5 0.0000 0.0000 0.0000 0.0000 21.9069 0.0000
# 6 0.0000 0.0000 0.0000 0.0000 0.0000 14.8978
#
#
#
# Elastic Compliance Matrix: (Units=1/GPa)
#
#
# Indices 1 2 3 4 5 6 
#
# 1 0.006799 -0.001957 -0.001012 0.000000 0.000000 0.000000
# 2 -0.001957 0.009157 -0.006070 0.000000 0.000000 0.000000
# 3 -0.001012 -0.006070 0.012526 0.000000 0.000000 0.000000
# 4 0.000000 0.000000 0.000000 0.017821 0.000000 0.000000
# 5 0.000000 0.000000 0.000000 0.000000 0.045648 0.000000
# 6 0.000000 0.000000 0.000000 0.000000 0.000000 0.067124
#
#
# Mechanical properties :
#
#
# Convention : Reuss Voigt Hill
#
# Bulk Modulus (GPa) = 96.10431 101.81747 98.96089
# Shear Modulus (GPa) = 27.68230 37.24292 32.46261
#
# Velocity S-wave (km/s) = 3.74761 4.34686 4.05831
# Velocity P-wave (km/s) = 8.21490 8.76644 8.49515
#
# Compressibility (1/GPa) = 0.01040536
#
# Stress axis : x y z
#
# Youngs Moduli (GPa) = 147.07617 109.20600 79.83100
#
# Poissons Ratio (x) = 0.21369 0.08077
# Poissons Ratio (y) = 0.28779 0.48459
# Poissons Ratio (z) = 0.14880 0.66290
#
# Static dielectric constant tensor:
#      x y z
#    x 1.803770 0.000000 0.000000 
#    y 0.000000 1.635510 0.000000 
#    z 0.000000 0.000000 1.813080 
# 
# From -- ./inp_files/21227.got.cif
#   From: 2010.05.17/outbox.ucp.g08.bks.cvg/sg64_11_cif.got.tgz:21227.got - 2010.06.11 16:36:46.
