data_PCOD9482831
_publ_section_title
;
Structure prediction by ZEFSAII (Michael W. Deem and Ramdas Pophale) SiO2 
 PCOD9482831
Probable space group: C M M M
;
_chemical_formula_sum "Si O2"
_cell_formula_units_Z 96
_cell_length_a 14.012622
_cell_length_b 29.356751
_cell_length_c 14.912198
_cell_angle_alpha 90.000000
_cell_angle_beta 90.000000
_cell_angle_gamma 90.000000
_cell_volume 6134.357149
_symmetry_space_group_name_H-M "C M M M"
_symmetry_group_IT_number 65
_symmetry_cell_setting 'orthorhombic'
loop_
_space_group_symop_operation_xyz
x,y,z
-x,-y,z
x,-y,-z
-x,y,-z
-x,-y,-z
x,y,-z
-x,y,z
x,-y,z
1/2+x,1/2+y,z
1/2-x,1/2-y,z
1/2+x,1/2-y,-z
1/2-x,1/2+y,-z
1/2-x,1/2-y,-z
1/2+x,1/2+y,-z
1/2-x,1/2+y,z
1/2+x,1/2-y,z
loop_
_atom_site_type_symbol
_atom_site_label
_atom_site_fract_x
_atom_site_fract_y
_atom_site_fract_z
Si Si1 0.797435 0.136379 0.393825
Si Si2 0.884126 0.808198 0.901337
Si Si3 0.884740 0.222460 0.290700
Si Si4 0.115101 0.051555 0.291626
Si Si5 0.110525 0.686126 0.394493
Si Si6 0.384513 0.415338 0.098389
O O1 0.816776 0.136809 0.500000
O O2 0.848183 0.179392 0.346850
O O3 0.834978 0.090231 0.349900
O O4 0.684729 0.145481 0.379789
O O5 0.852015 0.782287 0.812375
O O6 0.859931 0.861826 0.891686
O O7 0.000000 0.806018 0.902395
O O8 0.851004 0.792638 0.000000
O O9 0.858977 0.270190 0.336460
O O10 0.000000 0.220380 0.291420
O O11 0.144782 0.058378 0.187543
O O12 0.000000 0.058125 0.296168
O O13 0.135987 0.000000 0.320383
O O14 0.116498 0.698766 0.500000
O O15 0.000000 0.675143 0.374891
O O16 0.500000 0.417788 0.096292
O O17 0.350684 0.431165 0.000000
#
# Coordination Sequence:
#
# PCOD9482831 Si02
#       6
#    16  16  16  16  16  16
#     4  11  21  32  47  65  90 124 155 186 228 274
#     4   8  13  22  39  63  92 126 157 181 210 255
#     4  10  17  27  46  71  97 123 151 184 223 269
#     4  10  20  32  46  69  99 125 150 180 219 273
#     4   9  19  34  50  68  87 111 152 203 240 264
#     4   8  13  24  42  63  90 124 157 184 212 251
#
# _framework density 15.649562
#
# number of rings (size 3 to 8) (size 9 to 14) (size 15 to 20)
#    0.000    2.667    1.667    2.500    0.000    4.000 
#    0.000    2.500    0.000    3.500    0.000    2.333 
#    0.000    0.000    0.000    1.500    0.000    0.167 
#
# Total GULP energy -267390.265192 kJ/mol
# GULP energy per Si atom -5570.630525 kJ/mol
# Density = 1.561394 g / cm^3
# Si number density = 15.649562 Si / 1000 Ang^3
#
#
#
# Elastic Constant Matrix: (Units=GPa)
#
#
# Indices 1 2 3 4 5 6 
#
# 1 38.5305 40.5501 35.8491 0.0000 0.0000 0.0000
# 2 40.5501 91.8059 62.8858 0.0000 0.0000 0.0000
# 3 35.8491 62.8858 107.4375 0.0000 0.0000 0.0000
# 4 0.0000 0.0000 0.0000 5.9007 0.0000 0.0000
# 5 0.0000 0.0000 0.0000 0.0000 6.7155 0.0000
# 6 0.0000 0.0000 0.0000 0.0000 0.0000 19.5491
#
#
#
# Elastic Compliance Matrix: (Units=1/GPa)
#
#
# Indices 1 2 3 4 5 6 
#
# 1 0.051002 -0.018145 -0.006397 0.000000 0.000000 0.000000
# 2 -0.018145 0.024638 -0.008367 0.000000 0.000000 0.000000
# 3 -0.006397 -0.008367 0.016340 0.000000 0.000000 0.000000
# 4 0.000000 0.000000 0.000000 0.169470 0.000000 0.000000
# 5 0.000000 0.000000 0.000000 0.000000 0.148910 0.000000
# 6 0.000000 0.000000 0.000000 0.000000 0.000000 0.051153
#
#
# Mechanical properties :
#
#
# Convention : Reuss Voigt Hill
#
# Bulk Modulus (GPa) = 38.22434 57.37155 47.79795
# Shear Modulus (GPa) = 9.32746 12.99898 11.16322
#
# Velocity S-wave (km/s) = 2.44400 2.88519 2.67371
# Velocity P-wave (km/s) = 5.69582 6.91656 6.33566
#
# Compressibility (1/GPa) = 0.02616134
#
# Stress axis : x y z
#
# Youngs Moduli (GPa) = 19.60715 40.58717 61.20100
#
# Poissons Ratio (x) = 0.73646 0.39151
# Poissons Ratio (y) = 0.35578 0.51206
# Poissons Ratio (z) = 0.12543 0.33959
#
# Static dielectric constant tensor:
#      x y z
#    x 1.522590 0.000000 0.000000 
#    y 0.000000 1.504640 0.000000 
#    z 0.000000 0.000000 1.555440 
# 
# From -- ./inp_files/41241.got.cif
#   From: 2010.05.17/outbox.cif.g08.bks.cpg/sg65_21_cif.got.tgz:41241.got - 2010.06.03 17:01:31.
