data_PCOD9482690
_publ_section_title
;
Structure prediction by ZEFSAII (Michael W. Deem and Ramdas Pophale) SiO2 
 PCOD9482690
Probable space group: C M M M
;
_chemical_formula_sum "Si O2"
_cell_formula_units_Z 96
_cell_length_a 18.314548
_cell_length_b 19.186158
_cell_length_c 16.790043
_cell_angle_alpha 90.000000
_cell_angle_beta 90.000000
_cell_angle_gamma 90.000000
_cell_volume 5899.782887
_symmetry_space_group_name_H-M "C M M M"
_symmetry_group_IT_number 65
_symmetry_cell_setting 'orthorhombic'
loop_
_space_group_symop_operation_xyz
x,y,z
-x,-y,z
x,-y,-z
-x,y,-z
-x,-y,-z
x,y,-z
-x,y,z
x,-y,z
1/2+x,1/2+y,z
1/2-x,1/2-y,z
1/2+x,1/2-y,-z
1/2-x,1/2+y,-z
1/2-x,1/2-y,-z
1/2+x,1/2+y,-z
1/2-x,1/2+y,z
1/2+x,1/2-y,z
loop_
_atom_site_type_symbol
_atom_site_label
_atom_site_fract_x
_atom_site_fract_y
_atom_site_fract_z
Si Si1 0.583617 0.620684 0.255647
Si Si2 0.191556 0.688509 0.090722
Si Si3 0.675948 0.581479 0.589612
Si Si4 0.217519 0.671874 0.675512
Si Si5 0.723154 0.580724 0.176347
Si Si6 0.915977 0.712032 0.236945
O O1 0.500000 0.597681 0.249948
O O2 0.618097 0.600235 0.341285
O O3 0.636311 0.589680 0.187469
O O4 0.586178 0.704364 0.247219
O O5 0.250000 0.750000 0.107549
O O6 0.237962 0.617794 0.102561
O O7 0.127054 0.693962 0.155340
O O8 0.165794 0.695595 0.000000
O O9 0.647276 0.591126 0.500000
O O10 0.695418 0.500000 0.599720
O O11 0.746623 0.630532 0.602667
O O12 0.250000 0.750000 0.678689
O O13 0.246418 0.626287 0.749894
O O14 0.131518 0.679576 0.690901
O O15 0.742016 0.500000 0.182854
O O16 0.000000 0.689640 0.235374
#
# Coordination Sequence:
#
# PCOD9482690 Si02
#       6
#    16  16  16  16  16  16
#     4  10  18  31  49  73 105 137 167 201 242 292
#     4  10  19  34  53  73  99 133 171 210 250 292
#     4  10  21  34  50  75 103 134 170 205 247 297
#     4  10  16  32  52  73  97 132 172 208 246 283
#     4  10  18  30  50  75 100 132 169 202 244 296
#     4  10  18  31  52  77 103 127 164 212 251 295
#
# _framework density 16.271785000000001
#
# number of rings (size 3 to 8) (size 9 to 14) (size 15 to 20)
#    0.000    2.000    5.000    3.000    0.000    2.667 
#    0.000    0.833    0.000   13.500    0.000    7.000 
#    0.000    0.000    0.000    0.000    0.000    0.000 
#
# Total GULP energy -267223.514198 kJ/mol
# GULP energy per Si atom -5567.156546 kJ/mol
# Density = 1.623475 g / cm^3
# Si number density = 16.271785 Si / 1000 Ang^3
#
#
#
# Elastic Constant Matrix: (Units=GPa)
#
#
# Indices 1 2 3 4 5 6 
#
# 1 123.2469 38.1931 33.3799 0.0000 0.0000 0.0000
# 2 38.1931 97.7375 19.3194 0.0000 0.0000 0.0000
# 3 33.3799 19.3194 52.8702 0.0000 0.0000 0.0000
# 4 0.0000 0.0000 0.0000 -21.8640 0.0000 0.0000
# 5 0.0000 0.0000 0.0000 0.0000 15.4983 0.0000
# 6 0.0000 0.0000 0.0000 0.0000 0.0000 16.4171
#
#
#
# Elastic Compliance Matrix: (Units=1/GPa)
#
#
# Indices 1 2 3 4 5 6 
#
# 1 0.010557 -0.003027 -0.005560 0.000000 0.000000 0.000000
# 2 -0.003027 0.011896 -0.002436 0.000000 0.000000 0.000000
# 3 -0.005560 -0.002436 0.023314 0.000000 0.000000 0.000000
# 4 0.000000 0.000000 0.000000 -0.045737 0.000000 0.000000
# 5 0.000000 0.000000 0.000000 0.000000 0.064523 0.000000
# 6 0.000000 0.000000 0.000000 0.000000 0.000000 0.060912
#
#
# Mechanical properties :
#
#
# Convention : Reuss Voigt Hill
#
# Bulk Modulus (GPa) = 42.15258 50.62659 46.38959
# Shear Modulus (GPa) = 32.17134 14.20775 23.18955
#
# Velocity S-wave (km/s) = 4.45131 2.95812 3.77920
# Velocity P-wave (km/s) = 7.23743 6.54584 6.90030
#
# Compressibility (1/GPa) = 0.02372334
#
# Stress axis : x y z
#
# Youngs Moduli (GPa) = 94.71994 84.06384 42.89189
#
# Poissons Ratio (x) = 0.25443 0.23846
# Poissons Ratio (y) = 0.28668 0.10448
# Poissons Ratio (z) = 0.52660 0.20478
#
# Static dielectric constant tensor:
#      x y z
#    x 1.567080 0.000000 0.000000 
#    y 0.000000 1.554140 0.000000 
#    z 0.000000 0.000000 1.565910 
# 
# From -- ./inp_files/54465.got.cif
#   From: 2010.05.17/outbox.cif.g08.bks.cpg/sg65_28_cif.got.tgz:54465.got - 2010.06.03 17:01:31.
