data_PCOD9482967
_publ_section_title
;
Structure prediction by ZEFSAII (Michael W. Deem and Ramdas Pophale) SiO2 
 PCOD9482967
Probable space group: C M M M
;
_chemical_formula_sum "Si O2"
_cell_formula_units_Z 104
_cell_length_a 28.169296
_cell_length_b 22.666802
_cell_length_c 7.595812
_cell_angle_alpha 90.000000
_cell_angle_beta 90.000000
_cell_angle_gamma 90.000000
_cell_volume 4849.985626
_symmetry_space_group_name_H-M "C M M M"
_symmetry_group_IT_number 65
_symmetry_cell_setting 'orthorhombic'
loop_
_space_group_symop_operation_xyz
x,y,z
-x,-y,z
x,-y,-z
-x,y,-z
-x,-y,-z
x,y,-z
-x,y,z
x,-y,z
1/2+x,1/2+y,z
1/2-x,1/2-y,z
1/2+x,1/2-y,-z
1/2-x,1/2+y,-z
1/2-x,1/2-y,-z
1/2+x,1/2+y,-z
1/2-x,1/2+y,z
1/2+x,1/2-y,z
loop_
_atom_site_type_symbol
_atom_site_label
_atom_site_fract_x
_atom_site_fract_y
_atom_site_fract_z
Si Si1 0.134134 0.207185 0.295349
Si Si2 0.500000 0.932572 0.209835
Si Si3 0.604418 0.932815 0.708832
Si Si4 0.826863 0.330582 0.286102
Si Si5 0.223620 0.870768 0.792381
Si Si6 0.054220 0.878517 0.715638
Si Si7 0.104798 0.000000 0.713739
Si Si8 0.285230 0.500000 0.797575
O O1 0.123037 0.218223 0.500000
O O2 0.149839 0.269959 0.219820
O O3 0.178909 0.162999 0.287461
O O4 0.088786 0.173285 0.220044
O O5 0.449017 0.907950 0.265450
O O6 0.500000 0.000000 0.280424
O O7 0.500000 0.934248 0.000000
O O8 0.611903 0.937285 0.500000
O O9 0.643398 0.887291 0.777639
O O10 0.606787 0.000000 0.781563
O O11 0.827975 0.330083 0.500000
O O12 0.772200 0.335827 0.233522
O O13 0.230069 0.937240 0.718811
O O14 0.213430 0.876039 0.000000
O O15 0.054576 0.877885 0.500000
O O16 0.000000 0.872843 0.772440
O O17 0.076731 0.941287 0.766339
O O18 0.157641 0.000000 0.789535
O O19 0.109153 0.000000 0.500000
O O20 0.268272 0.500000 0.000000
#
# Coordination Sequence:
#
# PCOD9482967 Si02
#       8
#    16   8  16  16  16  16   8   8
#     4  10  20  37  57  80 110 143 180 223 269 323
#     4   9  17  31  53  79 105 137 175 216 263 316
#     4   9  18  34  54  77 106 139 175 219 271 324
#     4  10  22  37  55  83 111 139 179 227 274 323
#     4  11  23  38  57  79 107 145 184 223 272 326
#     4   9  17  30  52  83 113 139 175 224 270 315
#     4  10  17  30  56  84 108 140 183 223 267 318
#     4  10  22  37  53  79 112 143 181 230 275 322
#
# _framework density 21.443363999999999
#
# number of rings (size 3 to 8) (size 9 to 14) (size 15 to 20)
#    0.000    2.231    1.538    1.385    1.077    5.538 
#    1.385    0.000    0.000    2.308    0.000    0.000 
#    0.000    0.000    0.000    0.000    0.000    0.000 
#
# Total GULP energy -290366.710279 kJ/mol
# GULP energy per Si atom -5583.975198 kJ/mol
# Density = 2.139456 g / cm^3
# Si number density = 21.443364 Si / 1000 Ang^3
#
#
#
# Elastic Constant Matrix: (Units=GPa)
#
#
# Indices 1 2 3 4 5 6 
#
# 1 84.7806 33.9660 -13.7317 0.0000 0.0000 0.0000
# 2 33.9660 119.9012 1.2817 0.0000 0.0000 0.0000
# 3 -13.7317 1.2817 48.0539 0.0000 0.0000 0.0000
# 4 0.0000 0.0000 0.0000 6.8114 0.0000 0.0000
# 5 0.0000 0.0000 0.0000 0.0000 145.1278 0.0000
# 6 0.0000 0.0000 0.0000 0.0000 0.0000 21.4583
#
#
#
# Elastic Compliance Matrix: (Units=1/GPa)
#
#
# Indices 1 2 3 4 5 6 
#
# 1 0.014080 -0.004033 0.004131 0.000000 0.000000 0.000000
# 2 -0.004033 0.009498 -0.001406 0.000000 0.000000 0.000000
# 3 0.004131 -0.001406 0.022028 0.000000 0.000000 0.000000
# 4 0.000000 0.000000 0.000000 0.146814 0.000000 0.000000
# 5 0.000000 0.000000 0.000000 0.000000 0.006890 0.000000
# 6 0.000000 0.000000 0.000000 0.000000 0.000000 0.046602
#
#
# Mechanical properties :
#
#
# Convention : Reuss Voigt Hill
#
# Bulk Modulus (GPa) = 23.26098 32.86308 28.06203
# Shear Modulus (GPa) = 19.02178 50.09415 34.55796
#
# Velocity S-wave (km/s) = 2.98160 4.83858 4.01882
# Velocity P-wave (km/s) = 4.76702 6.82456 5.88639
#
# Compressibility (1/GPa) = 0.04299045
#
# Stress axis : x y z
#
# Youngs Moduli (GPa) = 71.02329 105.28929 45.39699
#
# Poissons Ratio (x) = 0.42461 -0.18753
# Poissons Ratio (y) = 0.28642 0.06381
# Poissons Ratio (z) = -0.29340 0.14801
#
# Static dielectric constant tensor:
#      x y z
#    x 1.736140 0.000000 0.000000 
#    y 0.000000 1.793270 0.000000 
#    z 0.000000 0.000000 1.797560 
# 
# From -- ./inp_files/16569.got.cif
#   From: 2010.05.17/outbox.cif.g08.bks.cpg/sg65_9_cif.got.tgz:16569.got - 2010.06.03 17:01:31.
