data_PCOD9482171
_publ_section_title
;
Structure prediction by ZEFSAII (Michael W. Deem and Ramdas Pophale) SiO2 
 PCOD9482171
Probable space group: C M C A
;
_chemical_formula_sum "Si O2"
_cell_formula_units_Z 40
_cell_length_a 30.405618
_cell_length_b 11.074976
_cell_length_c 4.703154
_cell_angle_alpha 90.000000
_cell_angle_beta 90.000000
_cell_angle_gamma 90.000000
_cell_volume 1583.747084
_symmetry_space_group_name_H-M "C M C A"
_symmetry_group_IT_number 64
_symmetry_cell_setting 'orthorhombic'
loop_
_space_group_symop_operation_xyz
x,y,z
-x,1/2-y,1/2+z
x,-y,-z
-x,1/2+y,1/2-z
-x,-y,-z
x,1/2+y,1/2-z
-x,y,z
x,1/2-y,1/2+z
1/2+x,1/2+y,z
1/2-x,-y,1/2+z
1/2+x,1/2-y,-z
1/2-x,y,1/2-z
1/2-x,1/2-y,-z
1/2+x,y,1/2-z
1/2-x,1/2+y,z
1/2+x,-y,1/2+z
loop_
_atom_site_type_symbol
_atom_site_label
_atom_site_fract_x
_atom_site_fract_y
_atom_site_fract_z
Si Si1 0.000000 0.166254 0.865163
Si Si2 0.424017 0.000000 0.500000
Si Si3 0.720563 0.000000 0.000000
Si Si4 0.850343 0.334275 0.697558
O O1 0.000000 0.288283 0.688390
O O2 0.956559 0.087300 0.825713
O O3 0.392923 0.080466 0.298183
O O4 0.750000 0.940311 0.250000
O O5 0.690391 0.091251 0.179421
O O6 0.850352 0.289807 0.373237
#
# Coordination Sequence:
#
# PCOD9482171 Si02
#       4
#     8   8   8  16
#     4  11  26  45  72 106 146 192 240 296 358 426
#     4  11  25  46  73 106 148 190 245 300 355 429
#     4  12  27  48  73 107 148 189 243 304 363 436
#     4  12  26  45  73 105 143 190 239 296 362 429
#
# _framework density 25.256561000000001
#
# number of rings (size 3 to 8) (size 9 to 14) (size 15 to 20)
#    0.000    0.400    0.000    8.400    0.000   14.400 
#    0.000    0.000    0.000    0.000    0.000    0.000 
#    0.000    0.000    0.000    0.000    0.000    0.000 
#
# Total GULP energy -112040.639506 kJ/mol
# GULP energy per Si atom -5602.031975 kJ/mol
# Density = 2.519908 g / cm^3
# Si number density = 25.256561 Si / 1000 Ang^3
#
#
#
# Elastic Constant Matrix: (Units=GPa)
#
#
# Indices 1 2 3 4 5 6 
#
# 1 170.6344 58.9425 42.6975 0.0000 0.0000 0.0000
# 2 58.9425 90.5309 2.4908 0.0000 0.0000 0.0000
# 3 42.6975 2.4908 78.5935 0.0000 0.0000 0.0000
# 4 0.0000 0.0000 0.0000 54.2282 0.0000 0.0000
# 5 0.0000 0.0000 0.0000 0.0000 -19.3943 0.0000
# 6 0.0000 0.0000 0.0000 0.0000 0.0000 -6.3575
#
#
#
# Elastic Compliance Matrix: (Units=1/GPa)
#
#
# Indices 1 2 3 4 5 6 
#
# 1 0.009028 -0.005748 -0.004722 0.000000 0.000000 0.000000
# 2 -0.005748 0.014715 0.002656 0.000000 0.000000 0.000000
# 3 -0.004722 0.002656 0.015205 0.000000 0.000000 0.000000
# 4 0.000000 0.000000 0.000000 0.018441 0.000000 0.000000
# 5 0.000000 0.000000 0.000000 0.000000 -0.051561 0.000000
# 6 0.000000 0.000000 0.000000 0.000000 0.000000 -0.157295
#
#
# Mechanical properties :
#
#
# Convention : Reuss Voigt Hill
#
# Bulk Modulus (GPa) = 42.88145 60.89115 51.88630
# Shear Modulus (GPa) = -39.04187 21.40380 -8.81904
#
# Velocity S-wave (km/s) = -3.93595 2.91427 -1.87066
# Velocity P-wave (km/s) = 1.90797 5.95695 3.99030
#
# Compressibility (1/GPa) = 0.02332011
#
# Stress axis : x y z
#
# Youngs Moduli (GPa) = 110.77187 67.95758 65.76793
#
# Poissons Ratio (x) = 0.39060 0.31057
# Poissons Ratio (y) = 0.63668 -0.17469
# Poissons Ratio (z) = 0.52309 -0.18051
#
# Static dielectric constant tensor:
#      x y z
#    x 1.978680 0.000000 0.000000 
#    y 0.000000 1.952170 0.000000 
#    z 0.000000 0.000000 1.946480 
# 
# From -- ./inp_files/2519.got.cif
#   From: 2010.05.17/outbox.cif.g08.bks.cpg/sg64_2_cif.got.tgz:2519.got - 2010.06.03 16:29:19.
