data_PCOD9482730
_publ_section_title
;
Structure prediction by ZEFSAII (Michael W. Deem and Ramdas Pophale) SiO2 
 PCOD9482730
Probable space group: C M M M
;
_chemical_formula_sum "Si O2"
_cell_formula_units_Z 64
_cell_length_a 15.525909
_cell_length_b 10.948336
_cell_length_c 18.711637
_cell_angle_alpha 90.000000
_cell_angle_beta 90.000000
_cell_angle_gamma 90.000000
_cell_volume 3180.657730
_symmetry_space_group_name_H-M "C M M M"
_symmetry_group_IT_number 65
_symmetry_cell_setting 'orthorhombic'
loop_
_space_group_symop_operation_xyz
x,y,z
-x,-y,z
x,-y,-z
-x,y,-z
-x,-y,-z
x,y,-z
-x,y,z
x,-y,z
1/2+x,1/2+y,z
1/2-x,1/2-y,z
1/2+x,1/2-y,-z
1/2-x,1/2+y,-z
1/2-x,1/2-y,-z
1/2+x,1/2+y,-z
1/2-x,1/2+y,z
1/2+x,1/2-y,z
loop_
_atom_site_type_symbol
_atom_site_label
_atom_site_fract_x
_atom_site_fract_y
_atom_site_fract_z
Si Si1 0.144203 0.737928 0.334963
Si Si2 0.647726 0.238630 0.170518
Si Si3 0.402044 0.500000 0.809508
Si Si4 0.602255 0.000000 0.080162
Si Si5 0.846480 0.000000 0.652484
Si Si6 0.655920 0.000000 0.415287
O O1 0.250000 0.750000 0.336047
O O2 0.118369 0.718423 0.252602
O O3 0.118007 0.623426 0.382089
O O4 0.111238 0.869239 0.361943
O O5 0.750000 0.250000 0.171461
O O6 0.612430 0.372890 0.149535
O O7 0.625703 0.123191 0.122353
O O8 0.500000 0.500000 0.781893
O O9 0.338628 0.500000 0.740033
O O10 0.500000 0.000000 0.074568
O O11 0.640019 0.000000 0.000000
O O12 0.755381 0.000000 0.612075
O O13 0.652108 0.000000 0.500000
#
# Coordination Sequence:
#
# PCOD9482730 Si02
#       6
#    16  16   8   8   8   8
#     4   8  15  27  44  68  95 124 163 212 260 299
#     4  10  19  36  60  81 106 140 182 228 270 316
#     4  10  19  33  56  83 107 136 179 229 273 317
#     4  11  24  39  54  79 116 149 176 214 268 328
#     4   8  16  27  40  63  94 125 160 205 254 302
#     4  10  17  25  41  69 103 134 168 213 263 311
#
# _framework density 20.121625000000002
#
# number of rings (size 3 to 8) (size 9 to 14) (size 15 to 20)
#    0.000    2.625    0.000    3.750    0.000    7.000 
#    0.000    0.625    0.000    2.625    0.000    0.000 
#    0.000   42.000    0.000    0.000    0.000    0.000 
#
# Total GULP energy -178372.735968 kJ/mol
# GULP energy per Si atom -5574.147999 kJ/mol
# Density = 2.007583 g / cm^3
# Si number density = 20.121625 Si / 1000 Ang^3
#
#
#
# Elastic Constant Matrix: (Units=GPa)
#
#
# Indices 1 2 3 4 5 6 
#
# 1 41.4694 18.0733 16.3451 0.0000 0.0000 0.0000
# 2 18.0733 265.5121 109.0639 0.0000 0.0000 0.0000
# 3 16.3451 109.0639 101.4219 0.0000 0.0000 0.0000
# 4 0.0000 0.0000 0.0000 18.6387 0.0000 0.0000
# 5 0.0000 0.0000 0.0000 0.0000 -12.4274 0.0000
# 6 0.0000 0.0000 0.0000 0.0000 0.0000 43.8072
#
#
#
# Elastic Compliance Matrix: (Units=1/GPa)
#
#
# Indices 1 2 3 4 5 6 
#
# 1 0.025751 -0.000086 -0.004057 0.000000 0.000000 0.000000
# 2 -0.000086 0.006747 -0.007241 0.000000 0.000000 0.000000
# 3 -0.004057 -0.007241 0.018300 0.000000 0.000000 0.000000
# 4 0.000000 0.000000 0.000000 0.053652 0.000000 0.000000
# 5 0.000000 0.000000 0.000000 0.000000 -0.080467 0.000000
# 6 0.000000 0.000000 0.000000 0.000000 0.000000 0.022827
#
#
# Mechanical properties :
#
#
# Convention : Reuss Voigt Hill
#
# Bulk Modulus (GPa) = 35.67766 77.26312 56.47039
# Shear Modulus (GPa) = 63.35445 27.66512 45.50979
#
# Velocity S-wave (km/s) = 5.61730 3.71198 4.76093
# Velocity P-wave (km/s) = 7.73574 7.54010 7.63855
#
# Compressibility (1/GPa) = 0.02802874
#
# Stress axis : x y z
#
# Youngs Moduli (GPa) = 38.83354 148.22414 54.64414
#
# Poissons Ratio (x) = 0.01279 0.22170
# Poissons Ratio (y) = 0.00335 0.39568
# Poissons Ratio (z) = 0.15756 1.07329
#
# Static dielectric constant tensor:
#      x y z
#    x 1.722970 0.000000 0.000000 
#    y 0.000000 1.606840 0.000000 
#    z 0.000000 0.000000 1.686860 
# 
# From -- ./inp_files/63444.got.cif
#   From: 2010.05.17/outbox.cif.g08.bks.cpg/sg65_32_cif.got.tgz:63444.got - 2010.06.03 17:01:31.
