data_PCOD9482300
_publ_section_title
;
Structure prediction by ZEFSAII (Michael W. Deem and Ramdas Pophale) SiO2 
 PCOD9482300
Probable space group: C M C A
;
_chemical_formula_sum "Si O2"
_cell_formula_units_Z 64
_cell_length_a 22.303144
_cell_length_b 8.223232
_cell_length_c 14.462413
_cell_angle_alpha 90.000000
_cell_angle_beta 90.000000
_cell_angle_gamma 90.000000
_cell_volume 2652.463344
_symmetry_space_group_name_H-M "C M C A"
_symmetry_group_IT_number 64
_symmetry_cell_setting 'orthorhombic'
loop_
_space_group_symop_operation_xyz
x,y,z
-x,1/2-y,1/2+z
x,-y,-z
-x,1/2+y,1/2-z
-x,-y,-z
x,1/2+y,1/2-z
-x,y,z
x,1/2-y,1/2+z
1/2+x,1/2+y,z
1/2-x,-y,1/2+z
1/2+x,1/2-y,-z
1/2-x,y,1/2-z
1/2-x,1/2-y,-z
1/2+x,y,1/2-z
1/2-x,1/2+y,z
1/2+x,-y,1/2+z
loop_
_atom_site_type_symbol
_atom_site_label
_atom_site_fract_x
_atom_site_fract_y
_atom_site_fract_z
Si Si1 0.843401 0.751778 0.080922
Si Si2 0.265543 0.446097 0.854913
Si Si3 0.070471 0.921063 0.712646
Si Si4 0.878282 0.751826 0.872800
O O1 0.793530 0.609233 0.090760
O O2 0.891704 0.717618 0.160164
O O3 0.805318 0.915132 0.097525
O O4 0.877002 0.751486 0.983298
O O5 0.250000 0.490895 0.750000
O O6 0.309155 0.288809 0.847950
O O7 0.095222 0.086400 0.668097
O O8 0.000000 0.908226 0.697375
O O9 0.085188 0.893865 0.820562
#
# Coordination Sequence:
#
# PCOD9482300 Si02
#       4
#    16  16  16  16
#     4  12  27  49  80 121 156 204 255 320 392 468
#     4  12  25  48  81 117 162 199 250 320 401 468
#     4  12  28  52  79 111 155 211 266 320 379 454
#     4  12  27  49  78 113 157 202 256 321 389 458
#
# _framework density 24.128513999999999
#
# number of rings (size 3 to 8) (size 9 to 14) (size 15 to 20)
#    0.000    0.000    2.500    6.750    0.000    5.000 
#    0.000    1.250    0.000   10.500    0.000    0.000 
#    0.000    0.000    0.000    0.000    0.000    0.000 
#
# Total GULP energy -179467.265809 kJ/mol
# GULP energy per Si atom -5608.352057 kJ/mol
# Density = 2.407360 g / cm^3
# Si number density = 24.128514 Si / 1000 Ang^3
#
#
#
# Elastic Constant Matrix: (Units=GPa)
#
#
# Indices 1 2 3 4 5 6 
#
# 1 177.7665 53.5880 57.8359 0.0000 0.0000 0.0000
# 2 53.5880 107.4903 59.9959 0.0000 0.0000 0.0000
# 3 57.8359 59.9959 172.0431 0.0000 0.0000 0.0000
# 4 0.0000 0.0000 0.0000 37.8678 0.0000 0.0000
# 5 0.0000 0.0000 0.0000 0.0000 18.2840 0.0000
# 6 0.0000 0.0000 0.0000 0.0000 0.0000 8.8380
#
#
#
# Elastic Compliance Matrix: (Units=1/GPa)
#
#
# Indices 1 2 3 4 5 6 
#
# 1 0.006877 -0.002655 -0.001386 0.000000 0.000000 0.000000
# 2 -0.002655 0.012576 -0.003493 0.000000 0.000000 0.000000
# 3 -0.001386 -0.003493 0.007497 0.000000 0.000000 0.000000
# 4 0.000000 0.000000 0.000000 0.026408 0.000000 0.000000
# 5 0.000000 0.000000 0.000000 0.000000 0.054693 0.000000
# 6 0.000000 0.000000 0.000000 0.000000 0.000000 0.113148
#
#
# Mechanical properties :
#
#
# Convention : Reuss Voigt Hill
#
# Bulk Modulus (GPa) = 84.16263 88.90439 86.53351
# Shear Modulus (GPa) = 20.81376 32.05665 26.43521
#
# Velocity S-wave (km/s) = 2.94023 3.64892 3.31358
# Velocity P-wave (km/s) = 6.81787 7.39453 7.11204
#
# Compressibility (1/GPa) = 0.01188176
#
# Stress axis : x y z
#
# Youngs Moduli (GPa) = 145.42252 79.51402 133.39357
#
# Poissons Ratio (x) = 0.21108 0.18488
# Poissons Ratio (y) = 0.38604 0.46598
# Poissons Ratio (z) = 0.20155 0.27777
#
# Static dielectric constant tensor:
#      x y z
#    x 1.856580 0.000000 0.000000 
#    y 0.000000 2.035340 0.000000 
#    z 0.000000 0.000000 1.910320 
# 
# From -- ./inp_files/26929.got.cif
#   From: 2010.05.17/outbox.cif.g08.bks.cpg/sg64_14_cif.got.tgz:26929.got - 2010.06.03 16:29:19.
