data_PCOD9482160
_publ_section_title
;
Structure prediction by ZEFSAII (Michael W. Deem and Ramdas Pophale) SiO2 
 PCOD9482160
Probable space group: C M C A
;
_chemical_formula_sum "Si O2"
_cell_formula_units_Z 48
_cell_length_a 26.041142
_cell_length_b 8.900346
_cell_length_c 8.680783
_cell_angle_alpha 90.000000
_cell_angle_beta 90.000000
_cell_angle_gamma 90.000000
_cell_volume 2011.989991
_symmetry_space_group_name_H-M "C M C A"
_symmetry_group_IT_number 64
_symmetry_cell_setting 'orthorhombic'
loop_
_space_group_symop_operation_xyz
x,y,z
-x,1/2-y,1/2+z
x,-y,-z
-x,1/2+y,1/2-z
-x,-y,-z
x,1/2+y,1/2-z
-x,y,z
x,1/2-y,1/2+z
1/2+x,1/2+y,z
1/2-x,-y,1/2+z
1/2+x,1/2-y,-z
1/2-x,y,1/2-z
1/2-x,1/2-y,-z
1/2+x,y,1/2-z
1/2-x,1/2+y,z
1/2+x,-y,1/2+z
loop_
_atom_site_type_symbol
_atom_site_label
_atom_site_fract_x
_atom_site_fract_y
_atom_site_fract_z
Si Si1 0.784123 0.640591 0.104356
Si Si2 0.941424 0.861657 0.382412
Si Si3 0.124574 0.142541 0.911706
O O1 0.750000 0.592123 0.250000
O O2 0.833015 0.740722 0.148791
O O3 0.800277 0.500000 0.000000
O O4 0.750000 0.750000 0.000000
O O5 0.911885 0.727892 0.467753
O O6 0.910024 0.906458 0.231341
O O7 0.000000 0.819362 0.342850
O O8 0.942523 0.000000 0.500000
O O9 0.148438 0.000000 0.000000
#
# Coordination Sequence:
#
# PCOD9482160 Si02
#       3
#    16  16  16
#     4  12  27  48  73 102 137 180 230 285 346 412
#     4  11  25  45  71 104 142 185 233 284 340 405
#     4  12  26  46  72 103 141 184 230 284 346 410
#
# _framework density 23.856977000000001
#
# number of rings (size 3 to 8) (size 9 to 14) (size 15 to 20)
#    0.000    0.333    0.000    8.000    0.000   13.333 
#    0.000    6.667    0.000    0.000    0.000    0.000 
#    0.000    0.000    0.000    0.000    0.000    0.000 
#
# Total GULP energy -134741.389957 kJ/mol
# GULP energy per Si atom -5614.224582 kJ/mol
# Density = 2.380268 g / cm^3
# Si number density = 23.856977 Si / 1000 Ang^3
#
#
#
# Elastic Constant Matrix: (Units=GPa)
#
#
# Indices 1 2 3 4 5 6 
#
# 1 129.3777 28.2238 35.6558 0.0000 0.0000 0.0000
# 2 28.2238 101.9239 23.9123 0.0000 0.0000 0.0000
# 3 35.6558 23.9123 118.0603 0.0000 0.0000 0.0000
# 4 0.0000 0.0000 0.0000 38.0670 0.0000 0.0000
# 5 0.0000 0.0000 0.0000 0.0000 40.6721 0.0000
# 6 0.0000 0.0000 0.0000 0.0000 0.0000 38.4015
#
#
#
# Elastic Compliance Matrix: (Units=1/GPa)
#
#
# Indices 1 2 3 4 5 6 
#
# 1 0.008767 -0.001897 -0.002264 0.000000 0.000000 0.000000
# 2 -0.001897 0.010711 -0.001597 0.000000 0.000000 0.000000
# 3 -0.002264 -0.001597 0.009477 0.000000 0.000000 0.000000
# 4 0.000000 0.000000 0.000000 0.026269 0.000000 0.000000
# 5 0.000000 0.000000 0.000000 0.000000 0.024587 0.000000
# 6 0.000000 0.000000 0.000000 0.000000 0.000000 0.026041
#
#
# Mechanical properties :
#
#
# Convention : Reuss Voigt Hill
#
# Bulk Modulus (GPa) = 57.33437 58.32730 57.83084
# Shear Modulus (GPa) = 40.59113 40.86612 40.72863
#
# Velocity S-wave (km/s) = 4.12932 4.14329 4.13631
# Velocity P-wave (km/s) = 6.84250 6.88411 6.86333
#
# Compressibility (1/GPa) = 0.01744154
#
# Stress axis : x y z
#
# Youngs Moduli (GPa) = 114.06570 93.36181 105.51561
#
# Poissons Ratio (x) = 0.17707 0.23884
# Poissons Ratio (y) = 0.21634 0.16847
# Poissons Ratio (z) = 0.25820 0.14907
#
# Static dielectric constant tensor:
#      x y z
#    x 1.898910 0.000000 0.000000 
#    y 0.000000 1.886210 0.000000 
#    z 0.000000 0.000000 1.864910 
# 
# From -- ./inp_files/10775.got.cif
#   From: 2010.05.17/outbox.cif.g08.bks.cpg/sg64_6_cif.got.tgz:10775.got - 2010.06.03 16:29:19.
