data_PCOD9482024
_publ_section_title
;
Structure prediction by ZEFSAII (Michael W. Deem and Ramdas Pophale) SiO2 
 PCOD9482024
Probable space group: C M C A
;
_chemical_formula_sum "Si O2"
_cell_formula_units_Z 48
_cell_length_a 17.582796
_cell_length_b 7.590225
_cell_length_c 14.744756
_cell_angle_alpha 90.000000
_cell_angle_beta 90.000000
_cell_angle_gamma 90.000000
_cell_volume 1967.796472
_symmetry_space_group_name_H-M "C M C A"
_symmetry_group_IT_number 64
_symmetry_cell_setting 'orthorhombic'
loop_
_space_group_symop_operation_xyz
x,y,z
-x,1/2-y,1/2+z
x,-y,-z
-x,1/2+y,1/2-z
-x,-y,-z
x,1/2+y,1/2-z
-x,y,z
x,1/2-y,1/2+z
1/2+x,1/2+y,z
1/2-x,-y,1/2+z
1/2+x,1/2-y,-z
1/2-x,y,1/2-z
1/2-x,1/2-y,-z
1/2+x,y,1/2-z
1/2-x,1/2+y,z
1/2+x,-y,1/2+z
loop_
_atom_site_type_symbol
_atom_site_label
_atom_site_fract_x
_atom_site_fract_y
_atom_site_fract_z
Si Si1 0.087341 0.163289 0.121841
Si Si2 0.148857 0.305309 0.417613
Si Si3 0.298513 0.054982 0.839509
O O1 0.144595 0.284146 0.177675
O O2 0.000000 0.208750 0.135584
O O3 0.100521 0.955008 0.134272
O O4 0.113169 0.200478 0.017669
O O5 0.234981 0.381500 0.412087
O O6 0.155575 0.112306 0.375588
O O7 0.250000 0.014868 0.750000
#
# Coordination Sequence:
#
# PCOD9482024 Si02
#       3
#    16  16  16
#     4  11  26  46  73 108 144 185 242 305 358 416
#     4  11  23  42  74 105 139 191 245 295 346 427
#     4  12  25  42  74 105 142 194 246 289 358 435
#
# _framework density 24.392766999999999
#
# number of rings (size 3 to 8) (size 9 to 14) (size 15 to 20)
#    0.000    0.667    3.333    5.000    4.667    5.333 
#    0.000    3.333    0.000    0.000    0.000    0.000 
#    0.000    0.000    0.000    0.000    0.000    0.000 
#
# Total GULP energy -134530.381597 kJ/mol
# GULP energy per Si atom -5605.432567 kJ/mol
# Density = 2.433725 g / cm^3
# Si number density = 24.392767 Si / 1000 Ang^3
#
#
#
# Elastic Constant Matrix: (Units=GPa)
#
#
# Indices 1 2 3 4 5 6 
#
# 1 151.7632 20.9514 6.1706 0.0000 0.0000 0.0000
# 2 20.9514 125.2675 16.7702 0.0000 0.0000 0.0000
# 3 6.1706 16.7702 68.6616 0.0000 0.0000 0.0000
# 4 0.0000 0.0000 0.0000 35.4381 0.0000 0.0000
# 5 0.0000 0.0000 0.0000 0.0000 9.7112 0.0000
# 6 0.0000 0.0000 0.0000 0.0000 0.0000 26.9067
#
#
#
# Elastic Compliance Matrix: (Units=1/GPa)
#
#
# Indices 1 2 3 4 5 6 
#
# 1 0.006753 -0.001084 -0.000342 0.000000 0.000000 0.000000
# 2 -0.001084 0.008427 -0.001961 0.000000 0.000000 0.000000
# 3 -0.000342 -0.001961 0.015074 0.000000 0.000000 0.000000
# 4 0.000000 0.000000 0.000000 0.028218 0.000000 0.000000
# 5 0.000000 0.000000 0.000000 0.000000 0.102974 0.000000
# 6 0.000000 0.000000 0.000000 0.000000 0.000000 0.037165
#
#
# Mechanical properties :
#
#
# Convention : Reuss Voigt Hill
#
# Bulk Modulus (GPa) = 42.58933 48.16406 45.37670
# Shear Modulus (GPa) = 23.45102 34.53120 28.99111
#
# Velocity S-wave (km/s) = 3.10400 3.76657 3.45122
# Velocity P-wave (km/s) = 5.50855 6.22127 5.87572
#
# Compressibility (1/GPa) = 0.02348006
#
# Stress axis : x y z
#
# Youngs Moduli (GPa) = 148.08840 118.67107 66.34010
#
# Poissons Ratio (x) = 0.12859 0.02270
# Poissons Ratio (y) = 0.16047 0.13008
# Poissons Ratio (z) = 0.05068 0.23269
#
# Static dielectric constant tensor:
#      x y z
#    x 1.864400 0.000000 0.000000 
#    y 0.000000 1.935700 0.000000 
#    z 0.000000 0.000000 2.037000 
# 
# From -- ./inp_files/31441.got.cif
#   From: 2010.05.17/outbox.cif.g08.bks.cpg/sg64_16_cif.got.tgz:31441.got - 2010.06.03 16:29:19.
