data_PCOD9482367
_publ_section_title
;
Structure prediction by ZEFSAII (Michael W. Deem and Ramdas Pophale) SiO2 
 PCOD9482367
Probable space group: C M C A
;
_chemical_formula_sum "Si O2"
_cell_formula_units_Z 48
_cell_length_a 9.000000
_cell_length_b 27.000000
_cell_length_c 24.000000
_cell_angle_alpha 90.000000
_cell_angle_beta 90.000000
_cell_angle_gamma 90.000000
_cell_volume 5832.000000
_symmetry_space_group_name_H-M "C M C A"
_symmetry_group_IT_number 64
_symmetry_cell_setting 'orthorhombic'
loop_
_space_group_symop_operation_xyz
x,y,z
-x,1/2-y,1/2+z
x,-y,-z
-x,1/2+y,1/2-z
-x,-y,-z
x,1/2+y,1/2-z
-x,y,z
x,1/2-y,1/2+z
1/2+x,1/2+y,z
1/2-x,-y,1/2+z
1/2+x,1/2-y,-z
1/2-x,y,1/2-z
1/2-x,1/2-y,-z
1/2+x,y,1/2-z
1/2-x,1/2+y,z
1/2+x,-y,1/2+z
loop_
_atom_site_type_symbol
_atom_site_label
_atom_site_fract_x
_atom_site_fract_y
_atom_site_fract_z
Si Si1 0.174972 0.821422 0.473212
Si Si2 0.325888 0.770717 0.914932
Si Si3 0.679332 0.076407 0.533160
Si Si4 0.321178 0.077552 0.306495
Si Si5 0.820022 0.974247 0.917147
Si Si6 0.324240 0.193377 0.305970
O O1 0.270238 0.779131 0.443854
O O2 0.199082 0.813855 0.539455
O O3 0.233956 0.874063 0.454394
O O4 0.000000 0.814216 0.462681
O O5 0.500000 0.768452 0.902602
O O6 0.233491 0.779569 0.860025
O O7 0.500000 0.083822 0.534708
O O8 0.720806 0.057494 0.471282
O O9 0.720305 0.031079 0.573195
O O10 0.500000 0.074225 0.303554
O O11 0.250000 0.058279 0.250000
O O12 0.265073 0.048919 0.360371
O O13 0.282016 0.135465 0.311885
O O14 0.000000 0.972994 0.916226
O O15 0.500000 0.196307 0.301340
O O16 0.250000 0.212879 0.250000
#
# Coordination Sequence:
#
# PCOD9482367 Si02
#       6
#    16  16  16  16  16  16
#     4  10  20  32  47  70  98 124 153 194 241 284
#     4  10  20  33  49  69  94 125 159 193 233 282
#     4   9  16  29  49  69  90 120 156 191 230 278
#     4   9  17  29  45  67  94 123 153 185 224 270
#     4   8  15  28  47  69  92 120 154 190 228 273
#     4  10  19  31  49  72  98 126 156 192 233 277
#
# _framework density 8.2304530000000007
#
# number of rings (size 3 to 8) (size 9 to 14) (size 15 to 20)
#    0.000    2.667    0.000    3.500    0.000    4.000 
#    0.000    3.333    0.000    1.000    0.000    4.667 
#    0.000    0.000    0.000    0.000    0.000    0.000 
#
# Total GULP energy -267426.294531 kJ/mol
# GULP energy per Si atom -5571.381136 kJ/mol
# Density = 0.821172 g / cm^3
# Si number density = 8.230453 Si / 1000 Ang^3
#
#
#
# Elastic Constant Matrix: (Units=GPa)
#
#
# Indices 1 2 3 4 5 6 
#
# 1 -3.9465 -2.3719 -0.8505 0.0000 0.0000 0.0000
# 2 -2.3719 29.8473 2.3839 0.0000 0.0000 0.0000
# 3 -0.8505 2.3839 58.7109 0.0000 0.0000 0.0000
# 4 0.0000 0.0000 0.0000 4.3162 0.0000 0.0000
# 5 0.0000 0.0000 0.0000 0.0000 24.4408 0.0000
# 6 0.0000 0.0000 0.0000 0.0000 0.0000 20.3388
#
#
#
# Elastic Compliance Matrix: (Units=1/GPa)
#
#
# Indices 1 2 3 4 5 6 
#
# 1 -0.241402 -0.018966 -0.002727 0.000000 0.000000 0.000000
# 2 -0.018966 0.032123 -0.001579 0.000000 0.000000 0.000000
# 3 -0.002727 -0.001579 0.017057 0.000000 0.000000 0.000000
# 4 0.000000 0.000000 0.000000 0.231684 0.000000 0.000000
# 5 0.000000 0.000000 0.000000 0.000000 0.040915 0.000000
# 6 0.000000 0.000000 0.000000 0.000000 0.000000 0.049167
#
#
# Mechanical properties :
#
#
# Convention : Reuss Voigt Hill
#
# Bulk Modulus (GPa) = -4.18821 9.21498 2.51339
# Shear Modulus (GPa) = 51.81387 15.51585 33.66486
#
# Velocity S-wave (km/s) = 5.61652 3.07349 4.52723
# Velocity P-wave (km/s) = 6.28574 4.26678 5.37196
#
# Compressibility (1/GPa) = -0.23876544
#
# Stress axis : x y z
#
# Youngs Moduli (GPa) = -4.14246 31.13053 58.62619
#
# Poissons Ratio (x) = 0.59041 0.15987
# Poissons Ratio (y) = -0.07856 0.09257
# Poissons Ratio (z) = -0.01130 0.04916
#
# Static dielectric constant tensor:
#      x y z
#    x 1.540830 0.000000 0.000000 
#    y 0.000000 1.546220 0.000000 
#    z 0.000000 0.000000 1.574050 
# 
# From -- ./inp_files/37065.got.cif
#   From: 2010.05.17/outbox.ucp.g08.bks.cvg/sg64_19_cif.got.tgz:37065.got - 2010.06.11 16:36:46.
