data_PCOD9482785
_publ_section_title
;
Structure prediction by ZEFSAII (Michael W. Deem and Ramdas Pophale) SiO2 
 PCOD9482785
Probable space group: C M M M
;
_chemical_formula_sum "Si O2"
_cell_formula_units_Z 88
_cell_length_a 32.782976
_cell_length_b 27.952141
_cell_length_c 7.563224
_cell_angle_alpha 90.000000
_cell_angle_beta 90.000000
_cell_angle_gamma 90.000000
_cell_volume 6930.593345
_symmetry_space_group_name_H-M "C M M M"
_symmetry_group_IT_number 65
_symmetry_cell_setting 'orthorhombic'
loop_
_space_group_symop_operation_xyz
x,y,z
-x,-y,z
x,-y,-z
-x,y,-z
-x,-y,-z
x,y,-z
-x,y,z
x,-y,z
1/2+x,1/2+y,z
1/2-x,1/2-y,z
1/2+x,1/2-y,-z
1/2-x,1/2+y,-z
1/2-x,1/2-y,-z
1/2+x,1/2+y,-z
1/2-x,1/2+y,z
1/2+x,1/2-y,z
loop_
_atom_site_type_symbol
_atom_site_label
_atom_site_fract_x
_atom_site_fract_y
_atom_site_fract_z
Si Si1 0.361795 0.500000 0.786004
Si Si2 0.412773 0.406755 0.213811
Si Si3 0.270956 0.825387 0.000000
Si Si4 0.738890 0.393184 0.287083
Si Si5 0.815537 0.230431 0.000000
Si Si6 0.343653 0.664025 0.298512
Si Si7 0.768074 0.000000 0.297273
Si Si8 0.000000 0.943926 0.783800
O O1 0.386867 0.546660 0.733568
O O2 0.317082 0.500000 0.707215
O O3 0.358030 0.500000 0.000000
O O4 0.387211 0.361527 0.279143
O O5 0.458989 0.416622 0.272026
O O6 0.412882 0.404549 0.000000
O O7 0.267710 0.858574 0.173570
O O8 0.228928 0.794901 0.000000
O O9 0.307100 0.786820 0.000000
O O10 0.744942 0.390496 0.500000
O O11 0.692324 0.374587 0.252986
O O12 0.743932 0.448044 0.224424
O O13 0.838204 0.208672 0.830511
O O14 0.336668 0.678285 0.500000
O O15 0.754022 0.000000 0.500000
O O16 0.000000 0.000000 0.729040
O O17 0.000000 0.945064 0.000000
#
# Coordination Sequence:
#
# PCOD9482785 Si02
#       8
#     8  16   8  16   8  16   8   8
#     4  10  18  21  38  56  68  98 128 159 189 225
#     4  10  17  27  39  56  76  96 129 162 193 236
#     4   9  18  29  44  54  72  95 114 149 185 232
#     4   9  18  27  38  58  78  98 121 146 182 224
#     4   9  18  32  42  57  71  88 118 149 194 236
#     4  10  18  28  43  58  73  93 121 158 193 227
#     4  10  18  26  35  53  79 100 122 153 183 221
#     4   9  16  26  39  55  75 104 131 155 196 239
#
# _framework density 12.697326
#
# number of rings (size 3 to 8) (size 9 to 14) (size 15 to 20)
#    0.000    2.455    3.636    0.000    1.273    0.727 
#    0.000    4.091    0.000    0.545    0.000    0.000 
#    0.000    0.000    0.000    0.000    0.000    0.000 
#
# Total GULP energy -245137.638259 kJ/mol
# GULP energy per Si atom -5571.309960 kJ/mol
# Density = 1.266843 g / cm^3
# Si number density = 12.697326 Si / 1000 Ang^3
#
#
#
# Elastic Constant Matrix: (Units=GPa)
#
#
# Indices 1 2 3 4 5 6 
#
# 1 41.7745 41.1372 17.5555 0.0000 0.0000 0.0000
# 2 41.1372 94.0567 34.3789 0.0000 0.0000 0.0000
# 3 17.5555 34.3789 48.8859 0.0000 0.0000 0.0000
# 4 0.0000 0.0000 0.0000 4.1221 0.0000 0.0000
# 5 0.0000 0.0000 0.0000 0.0000 0.5624 0.0000
# 6 0.0000 0.0000 0.0000 0.0000 0.0000 16.1328
#
#
#
# Elastic Compliance Matrix: (Units=1/GPa)
#
#
# Indices 1 2 3 4 5 6 
#
# 1 0.042359 -0.017452 -0.002938 0.000000 0.000000 0.000000
# 2 -0.017452 0.021501 -0.008853 0.000000 0.000000 0.000000
# 3 -0.002938 -0.008853 0.027737 0.000000 0.000000 0.000000
# 4 0.000000 0.000000 0.000000 0.242592 0.000000 0.000000
# 5 0.000000 0.000000 0.000000 0.000000 1.778114 0.000000
# 6 0.000000 0.000000 0.000000 0.000000 0.000000 0.061986
#
#
# Mechanical properties :
#
#
# Convention : Reuss Voigt Hill
#
# Bulk Modulus (GPa) = 30.20303 41.20671 35.70487
# Shear Modulus (GPa) = 2.22835 10.27316 6.25076
#
# Velocity S-wave (km/s) = 1.32619 2.84752 2.22117
# Velocity P-wave (km/s) = 5.11699 6.58291 5.89569
#
# Compressibility (1/GPa) = 0.03310927
#
# Stress axis : x y z
#
# Youngs Moduli (GPa) = 23.60775 46.50968 36.05308
#
# Poissons Ratio (x) = 0.81171 0.10593
# Poissons Ratio (y) = 0.41201 0.31918
# Poissons Ratio (z) = 0.06936 0.41176
#
# Static dielectric constant tensor:
#      x y z
#    x 1.390950 0.000000 0.000000 
#    y 0.000000 1.412500 0.000000 
#    z 0.000000 0.000000 1.455080 
# 
# From -- ./inp_files/18586.got.cif
#   From: 2010.05.17/outbox.cif.g08.bks.cpg/sg65_10_cif.got.tgz:18586.got - 2010.06.03 17:01:31.
