data_PCOD9482473
_publ_section_title
;
Structure prediction by ZEFSAII (Michael W. Deem and Ramdas Pophale) SiO2 
 PCOD9482473
Probable space group: C M C A
;
_chemical_formula_sum "Si O2"
_cell_formula_units_Z 56
_cell_length_a 15.000000
_cell_length_b 12.000000
_cell_length_c 30.000000
_cell_angle_alpha 90.000000
_cell_angle_beta 90.000000
_cell_angle_gamma 90.000000
_cell_volume 5400.000000
_symmetry_space_group_name_H-M "C M C A"
_symmetry_group_IT_number 64
_symmetry_cell_setting 'orthorhombic'
loop_
_space_group_symop_operation_xyz
x,y,z
-x,1/2-y,1/2+z
x,-y,-z
-x,1/2+y,1/2-z
-x,-y,-z
x,1/2+y,1/2-z
-x,y,z
x,1/2-y,1/2+z
1/2+x,1/2+y,z
1/2-x,-y,1/2+z
1/2+x,1/2-y,-z
1/2-x,y,1/2-z
1/2-x,1/2-y,-z
1/2+x,y,1/2-z
1/2-x,1/2+y,z
1/2+x,-y,1/2+z
loop_
_atom_site_type_symbol
_atom_site_label
_atom_site_fract_x
_atom_site_fract_y
_atom_site_fract_z
Si Si1 0.601407 0.722202 0.201619
Si Si2 0.401233 0.511290 0.945998
Si Si3 0.342950 0.263609 0.101369
Si Si4 0.334162 0.107197 0.869271
Si Si5 0.222808 0.019263 0.198268
Si Si6 0.695225 0.038756 0.052133
Si Si7 0.896713 0.301212 0.301862
O O1 0.500000 0.680625 0.203522
O O2 0.607025 0.821218 0.165371
O O3 0.669977 0.629311 0.186125
O O4 0.627927 0.750901 0.253161
O O5 0.500000 0.466662 0.930866
O O6 0.392990 0.634721 0.924171
O O7 0.302137 0.462541 0.935305
O O8 0.403776 0.500000 0.000000
O O9 0.245301 0.311332 0.114155
O O10 0.337622 0.160731 0.067204
O O11 0.383264 0.238391 0.150807
O O12 0.299353 0.008529 0.836808
O O13 0.358545 0.046863 0.915598
O O14 0.250000 0.024707 0.250000
O O15 0.158622 0.913513 0.193720
O O16 0.687915 0.000000 0.000000
O O17 0.000000 0.327666 0.297741
#
# Coordination Sequence:
#
# PCOD9482473 Si02
#       7
#    16  16  16  16  16  16  16
#     4  11  24  40  61  92 126 165 207 254 314 371
#     4   9  19  37  62  91 123 160 208 265 321 379
#     4  10  21  37  63  91 125 166 210 259 321 382
#     4  10  22  40  61  92 122 167 211 259 314 374
#     4  11  22  36  64  89 126 163 207 253 306 380
#     4  10  22  40  65  96 126 164 219 272 322 380
#     4  10  22  39  60  91 127 163 206 253 310 378
#
# _framework density 10.370369999999999
#
# number of rings (size 3 to 8) (size 9 to 14) (size 15 to 20)
#    0.000    1.857    1.429    1.714    6.000    5.143 
#    0.000    7.143    0.000    7.286    0.000    0.000 
#    0.000    0.571    0.000    0.000    0.000    0.000 
#
# Total GULP energy -312029.367731 kJ/mol
# GULP energy per Si atom -5571.952995 kJ/mol
# Density = 1.034677 g / cm^3
# Si number density = 10.370370 Si / 1000 Ang^3
#
#
#
# Elastic Constant Matrix: (Units=GPa)
#
#
# Indices 1 2 3 4 5 6 
#
# 1 41.3204 22.9507 13.7032 0.0000 0.0000 0.0000
# 2 22.9507 75.9985 41.6809 0.0000 0.0000 0.0000
# 3 13.7032 41.6809 139.2930 0.0000 0.0000 0.0000
# 4 0.0000 0.0000 0.0000 30.6125 0.0000 0.0000
# 5 0.0000 0.0000 0.0000 0.0000 -3.2320 0.0000
# 6 0.0000 0.0000 0.0000 0.0000 0.0000 15.0046
#
#
#
# Elastic Compliance Matrix: (Units=1/GPa)
#
#
# Indices 1 2 3 4 5 6 
#
# 1 0.029088 -0.008631 -0.000279 0.000000 0.000000 0.000000
# 2 -0.008631 0.018303 -0.004628 0.000000 0.000000 0.000000
# 3 -0.000279 -0.004628 0.008591 0.000000 0.000000 0.000000
# 4 0.000000 0.000000 0.000000 0.032666 0.000000 0.000000
# 5 0.000000 0.000000 0.000000 0.000000 -0.309409 0.000000
# 6 0.000000 0.000000 0.000000 0.000000 0.000000 0.066646
#
#
# Mechanical properties :
#
#
# Convention : Reuss Voigt Hill
#
# Bulk Modulus (GPa) = 34.59459 45.92016 40.25738
# Shear Modulus (GPa) = -42.58815 20.36216 -11.11299
#
# Velocity S-wave (km/s) = -4.53631 3.13668 -2.31726
# Velocity P-wave (km/s) = 3.27441 5.94193 3.50605
#
# Compressibility (1/GPa) = 0.02890626
#
# Stress axis : x y z
#
# Youngs Moduli (GPa) = 34.37884 54.63681 116.39719
#
# Poissons Ratio (x) = 0.47158 0.03245
# Poissons Ratio (y) = 0.29673 0.53864
# Poissons Ratio (z) = 0.00959 0.25284
#
# Static dielectric constant tensor:
#      x y z
#    x 1.744910 0.000000 0.000000 
#    y 0.000000 1.758720 0.000000 
#    z 0.000000 0.000000 1.765730 
# 
# From -- ./inp_files/53252.got.cif
#   From: 2010.05.17/outbox.ucp.g08.bks.cvg/sg64_27_cif.got.tgz:53252.got - 2010.06.11 16:36:46.
