data_PCOD9482810
_publ_section_title
;
Structure prediction by ZEFSAII (Michael W. Deem and Ramdas Pophale) SiO2 
 PCOD9482810
Probable space group: C M M M
;
_chemical_formula_sum "Si O2"
_cell_formula_units_Z 80
_cell_length_a 9.140648
_cell_length_b 29.256657
_cell_length_c 21.564424
_cell_angle_alpha 90.000000
_cell_angle_beta 90.000000
_cell_angle_gamma 90.000000
_cell_volume 5766.861846
_symmetry_space_group_name_H-M "C M M M"
_symmetry_group_IT_number 65
_symmetry_cell_setting 'orthorhombic'
loop_
_space_group_symop_operation_xyz
x,y,z
-x,-y,z
x,-y,-z
-x,y,-z
-x,-y,-z
x,y,-z
-x,y,z
x,-y,z
1/2+x,1/2+y,z
1/2-x,1/2-y,z
1/2+x,1/2-y,-z
1/2-x,1/2+y,-z
1/2-x,1/2-y,-z
1/2+x,1/2+y,-z
1/2-x,1/2+y,z
1/2+x,1/2-y,z
loop_
_atom_site_type_symbol
_atom_site_label
_atom_site_fract_x
_atom_site_fract_y
_atom_site_fract_z
Si Si1 0.831942 0.444288 0.500000
Si Si2 0.668677 0.444390 0.376011
Si Si3 0.326001 0.201883 0.073885
Si Si4 0.821669 0.052714 0.760946
Si Si5 0.322714 0.611584 0.120000
Si Si6 0.322411 0.552180 0.000000
O O1 0.824760 0.500000 0.500000
O O2 0.755250 0.428958 0.436548
O O3 0.000000 0.430891 0.500000
O O4 0.500000 0.429933 0.381520
O O5 0.669324 0.500000 0.375865
O O6 0.726769 0.431768 0.307733
O O7 0.500000 0.204139 0.084097
O O8 0.250000 0.250000 0.089362
O O9 0.252836 0.160217 0.110384
O O10 0.301393 0.193960 0.000000
O O11 0.779992 0.085774 0.816833
O O12 0.000000 0.051842 0.758959
O O13 0.775458 0.000000 0.771884
O O14 0.500000 0.616627 0.119131
O O15 0.280425 0.579631 0.061641
O O16 0.269238 0.500000 0.000000
O O17 0.500000 0.550439 0.000000
#
# Coordination Sequence:
#
# PCOD9482810 Si02
#       6
#     8  16  16  16  16   8
#     4   9  15  21  31  49  71  95 128 171 210 239
#     4   8  13  22  35  50  70 100 136 169 199 231
#     4  10  20  33  48  63  80 100 128 167 212 258
#     4   8  14  24  39  59  82 109 142 174 199 232
#     4  10  17  27  44  64  84 106 135 170 207 243
#     4   9  16  24  38  61  84 107 138 171 198 229
#
# _framework density 13.872363
#
# number of rings (size 3 to 8) (size 9 to 14) (size 15 to 20)
#    0.000    3.000    1.000    2.700    0.000    4.400 
#    0.000    1.000    0.000    4.200    0.000    0.000 
#    0.000    0.000    0.000    0.900    0.000   10.100 
#
# Total GULP energy -222675.581899 kJ/mol
# GULP energy per Si atom -5566.889547 kJ/mol
# Density = 1.384079 g / cm^3
# Si number density = 13.872363 Si / 1000 Ang^3
#
#
#
# Elastic Constant Matrix: (Units=GPa)
#
#
# Indices 1 2 3 4 5 6 
#
# 1 39.1000 32.5867 48.5014 0.0000 0.0000 0.0000
# 2 32.5867 85.4514 62.2894 0.0000 0.0000 0.0000
# 3 48.5014 62.2894 145.5073 0.0000 0.0000 0.0000
# 4 0.0000 0.0000 0.0000 3.5505 0.0000 0.0000
# 5 0.0000 0.0000 0.0000 0.0000 5.8661 0.0000
# 6 0.0000 0.0000 0.0000 0.0000 0.0000 16.3752
#
#
#
# Elastic Compliance Matrix: (Units=1/GPa)
#
#
# Indices 1 2 3 4 5 6 
#
# 1 0.048650 -0.009785 -0.012027 0.000000 0.000000 0.000000
# 2 -0.009785 0.018979 -0.004863 0.000000 0.000000 0.000000
# 3 -0.012027 -0.004863 0.012963 0.000000 0.000000 0.000000
# 4 0.000000 0.000000 0.000000 0.281653 0.000000 0.000000
# 5 0.000000 0.000000 0.000000 0.000000 0.170470 0.000000
# 6 0.000000 0.000000 0.000000 0.000000 0.000000 0.061068
#
#
# Mechanical properties :
#
#
# Convention : Reuss Voigt Hill
#
# Bulk Modulus (GPa) = 36.70922 61.86819 49.28870
# Shear Modulus (GPa) = 7.61946 13.60377 10.61162
#
# Velocity S-wave (km/s) = 2.34616 3.13491 2.76877
# Velocity P-wave (km/s) = 5.81884 7.60254 6.76969
#
# Compressibility (1/GPa) = 0.02724112
#
# Stress axis : x y z
#
# Youngs Moduli (GPa) = 20.55499 52.68997 77.14088
#
# Poissons Ratio (x) = 0.51558 0.92780
# Poissons Ratio (y) = 0.20114 0.37513
# Poissons Ratio (z) = 0.24722 0.25623
#
# Static dielectric constant tensor:
#      x y z
#    x 1.461900 0.000000 0.000000 
#    y 0.000000 1.424580 0.000000 
#    z 0.000000 0.000000 1.469530 
# 
# From -- ./inp_files/60070.got.cif
#   From: 2010.05.17/outbox.cif.g08.bks.cpg/sg65_31_cif.got.tgz:60070.got - 2010.06.03 17:01:31.
