data_PCOD9482537
_publ_section_title
;
Structure prediction by ZEFSAII (Michael W. Deem and Ramdas Pophale) SiO2 
 PCOD9482537
Probable space group: C M M M
;
_chemical_formula_sum "Si O2"
_cell_formula_units_Z 68
_cell_length_a 21.278173
_cell_length_b 11.924895
_cell_length_c 14.360597
_cell_angle_alpha 90.000000
_cell_angle_beta 90.000000
_cell_angle_gamma 90.000000
_cell_volume 3643.857579
_symmetry_space_group_name_H-M "C M M M"
_symmetry_group_IT_number 65
_symmetry_cell_setting 'orthorhombic'
loop_
_space_group_symop_operation_xyz
x,y,z
-x,-y,z
x,-y,-z
-x,y,-z
-x,-y,-z
x,y,-z
-x,y,z
x,-y,z
1/2+x,1/2+y,z
1/2-x,1/2-y,z
1/2+x,1/2-y,-z
1/2-x,1/2+y,-z
1/2-x,1/2-y,-z
1/2+x,1/2+y,-z
1/2-x,1/2+y,z
1/2+x,1/2-y,z
loop_
_atom_site_type_symbol
_atom_site_label
_atom_site_fract_x
_atom_site_fract_y
_atom_site_fract_z
Si Si1 0.572364 0.134910 0.389488
Si Si2 0.635868 0.364379 0.896208
Si Si3 0.500000 0.500000 0.271439
Si Si4 0.124266 0.000000 0.606733
Si Si5 0.500000 0.331740 0.104418
Si Si6 0.320845 0.286136 0.698705
O O1 0.581249 0.160784 0.500000
O O2 0.500000 0.168586 0.365467
O O3 0.625591 0.195494 0.328702
O O4 0.576276 0.000000 0.379700
O O5 0.621089 0.500000 0.886622
O O6 0.571699 0.289874 0.894548
O O7 0.673661 0.325922 0.806260
O O8 0.663985 0.351978 0.000000
O O9 0.561412 0.500000 0.332867
O O10 0.500000 0.397668 0.200689
O O11 0.163151 0.891611 0.634597
O O12 0.107000 0.000000 0.500000
O O13 0.500000 0.385416 0.000000
O O14 0.250000 0.250000 0.680670
#
# Coordination Sequence:
#
# PCOD9482537 Si02
#       6
#    16  16   4   8   8  16
#     4   9  21  42  65  87 114 159 214 254 290 350
#     4  10  19  35  59  89 123 156 195 247 309 376
#     4  12  18  36  60  90 128 150 182 258 308 370
#     4  12  27  41  57  92 128 163 202 255 320 369
#     4  10  15  27  57  88 117 152 190 236 301 367
#     4  12  25  40  63  89 124 162 202 253 310 368
#
# _framework density 18.661542000000001
#
# number of rings (size 3 to 8) (size 9 to 14) (size 15 to 20)
#    0.000    1.412    4.706    1.765    4.941    2.353 
#    0.000    0.000    0.000    0.706    0.000    1.647 
#    0.000    0.000    0.000    0.000    0.000    0.000 
#
# Total GULP energy -189284.132372 kJ/mol
# GULP energy per Si atom -5567.180364 kJ/mol
# Density = 1.861907 g / cm^3
# Si number density = 18.661542 Si / 1000 Ang^3
#
#
#
# Elastic Constant Matrix: (Units=GPa)
#
#
# Indices 1 2 3 4 5 6 
#
# 1 125.2248 41.8506 53.0840 0.0000 0.0000 0.0000
# 2 41.8506 52.5491 31.8212 0.0000 0.0000 0.0000
# 3 53.0840 31.8212 148.4024 0.0000 0.0000 0.0000
# 4 0.0000 0.0000 0.0000 26.5447 0.0000 0.0000
# 5 0.0000 0.0000 0.0000 0.0000 52.5260 0.0000
# 6 0.0000 0.0000 0.0000 0.0000 0.0000 58.6118
#
#
#
# Elastic Compliance Matrix: (Units=1/GPa)
#
#
# Indices 1 2 3 4 5 6 
#
# 1 0.011637 -0.007754 -0.002500 0.000000 0.000000 0.000000
# 2 -0.007754 0.027036 -0.003024 0.000000 0.000000 0.000000
# 3 -0.002500 -0.003024 0.008281 0.000000 0.000000 0.000000
# 4 0.000000 0.000000 0.000000 0.037672 0.000000 0.000000
# 5 0.000000 0.000000 0.000000 0.000000 0.019038 0.000000
# 6 0.000000 0.000000 0.000000 0.000000 0.000000 0.017061
#
#
# Mechanical properties :
#
#
# Convention : Reuss Voigt Hill
#
# Bulk Modulus (GPa) = 49.02180 64.40977 56.71578
# Shear Modulus (GPa) = 32.45068 40.83118 36.64093
#
# Velocity S-wave (km/s) = 4.17454 4.68267 4.43589
# Velocity P-wave (km/s) = 7.04001 7.98912 7.52953
#
# Compressibility (1/GPa) = 0.02039909
#
# Stress axis : x y z
#
# Youngs Moduli (GPa) = 85.93489 36.98772 120.75847
#
# Poissons Ratio (x) = 0.28680 0.30188
# Poissons Ratio (y) = 0.66632 0.36513
# Poissons Ratio (z) = 0.21483 0.11184
#
# Static dielectric constant tensor:
#      x y z
#    x 1.704590 0.000000 0.000000 
#    y 0.000000 1.455550 0.000000 
#    z 0.000000 0.000000 1.644720 
# 
# From -- ./inp_files/43798.got.cif
#   From: 2010.05.17/outbox.cif.g08.bks.cpg/sg65_22_cif.got.tgz:43798.got - 2010.06.03 17:01:31.
