data_PCOD9482373
_publ_section_title
;
Structure prediction by ZEFSAII (Michael W. Deem and Ramdas Pophale) SiO2 
 PCOD9482373
Probable space group: C M C A
;
_chemical_formula_sum "Si O2"
_cell_formula_units_Z 48
_cell_length_a 9.000000
_cell_length_b 27.000000
_cell_length_c 24.000000
_cell_angle_alpha 90.000000
_cell_angle_beta 90.000000
_cell_angle_gamma 90.000000
_cell_volume 5832.000000
_symmetry_space_group_name_H-M "C M C A"
_symmetry_group_IT_number 64
_symmetry_cell_setting 'orthorhombic'
loop_
_space_group_symop_operation_xyz
x,y,z
-x,1/2-y,1/2+z
x,-y,-z
-x,1/2+y,1/2-z
-x,-y,-z
x,1/2+y,1/2-z
-x,y,z
x,1/2-y,1/2+z
1/2+x,1/2+y,z
1/2-x,-y,1/2+z
1/2+x,1/2-y,-z
1/2-x,y,1/2-z
1/2-x,1/2-y,-z
1/2+x,y,1/2-z
1/2-x,1/2+y,z
1/2+x,-y,1/2+z
loop_
_atom_site_type_symbol
_atom_site_label
_atom_site_fract_x
_atom_site_fract_y
_atom_site_fract_z
Si Si1 0.178050 0.186814 0.806596
Si Si2 0.678540 0.481613 0.080380
Si Si3 0.328655 0.828162 0.523659
Si Si4 0.825706 0.737777 0.580961
Si Si5 0.322095 0.072826 0.693138
Si Si6 0.675931 0.929539 0.974859
O O1 0.250000 0.204722 0.750000
O O2 0.218289 0.220450 0.858298
O O3 0.226047 0.129853 0.815762
O O4 0.000000 0.186596 0.802198
O O5 0.500000 0.483186 0.073753
O O6 0.716660 0.459385 0.139949
O O7 0.750310 0.534992 0.070892
O O8 0.747992 0.447157 0.032415
O O9 0.500000 0.841866 0.533656
O O10 0.278466 0.780957 0.559041
O O11 0.314928 0.809269 0.460135
O O12 0.220970 0.873392 0.534974
O O13 0.000000 0.753040 0.579488
O O14 0.500000 0.072736 0.698703
O O15 0.250000 0.054716 0.750000
O O16 0.500000 0.936725 0.977431
#
# Coordination Sequence:
#
# PCOD9482373 Si02
#       6
#    16  16  16  16  16  16
#     4   9  17  30  47  69  97 126 156 190 230 276
#     4  10  19  33  51  71  97 129 162 196 238 284
#     4  10  19  32  50  71  96 126 159 194 237 287
#     4   9  18  32  49  70  97 126 157 195 236 278
#     4   9  18  31  49  72  98 128 159 193 234 281
#     4  11  21  32  48  72  99 127 160 198 240 283
#
# _framework density 8.2304530000000007
#
# number of rings (size 3 to 8) (size 9 to 14) (size 15 to 20)
#    0.000    2.333    0.000    4.500    0.000    5.333 
#    0.000    3.333    0.000    1.000    0.000    7.000 
#    0.000    0.000    0.000    0.000    0.000    0.000 
#
# Total GULP energy -267610.756840 kJ/mol
# GULP energy per Si atom -5575.224101 kJ/mol
# Density = 0.821172 g / cm^3
# Si number density = 8.230453 Si / 1000 Ang^3
#
#
#
# Elastic Constant Matrix: (Units=GPa)
#
#
# Indices 1 2 3 4 5 6 
#
# 1 22.6794 -33.6214 -2.1660 0.0000 0.0000 0.0000
# 2 -33.6214 -72.5194 -30.5532 0.0000 0.0000 0.0000
# 3 -2.1660 -30.5532 58.3557 0.0000 0.0000 0.0000
# 4 0.0000 0.0000 0.0000 -58.4888 0.0000 0.0000
# 5 0.0000 0.0000 0.0000 0.0000 19.0394 0.0000
# 6 0.0000 0.0000 0.0000 0.0000 0.0000 22.5113
#
#
#
# Elastic Compliance Matrix: (Units=1/GPa)
#
#
# Indices 1 2 3 4 5 6 
#
# 1 0.027590 -0.010833 -0.004648 0.000000 0.000000 0.000000
# 2 -0.010833 -0.007044 -0.004090 0.000000 0.000000 0.000000
# 3 -0.004648 -0.004090 0.014822 0.000000 0.000000 0.000000
# 4 0.000000 0.000000 0.000000 -0.017097 0.000000 0.000000
# 5 0.000000 0.000000 0.000000 0.000000 0.052523 0.000000
# 6 0.000000 0.000000 0.000000 0.000000 0.000000 0.044422
#
#
# Mechanical properties :
#
#
# Convention : Reuss Voigt Hill
#
# Bulk Modulus (GPa) = -265.01756 -13.79618 -139.40687
# Shear Modulus (GPa) = 32.65858 1.60280 17.13069
#
# Velocity S-wave (km/s) = 4.45905 0.98783 3.22947
# Velocity P-wave (km/s) = 11.61193 2.66426 8.42422
#
# Compressibility (1/GPa) = -0.00377333
#
# Stress axis : x y z
#
# Youngs Moduli (GPa) = 36.24550 -141.96730 67.46562
#
# Poissons Ratio (x) = -1.53792 0.31356
# Poissons Ratio (y) = 0.39264 0.27594
# Poissons Ratio (z) = 0.16846 -0.58065
#
# Static dielectric constant tensor:
#      x y z
#    x 1.546090 0.000000 0.000000 
#    y 0.000000 1.551930 0.000000 
#    z 0.000000 0.000000 1.540990 
# 
# From -- ./inp_files/43177.got.cif
#   From: 2010.05.17/outbox.ucp.g08.bks.cvg/sg64_22_cif.got.tgz:43177.got - 2010.06.11 16:36:46.
