data_PCOD9482456
_publ_section_title
;
Structure prediction by ZEFSAII (Michael W. Deem and Ramdas Pophale) SiO2 
 PCOD9482456
Probable space group: C M C A
;
_chemical_formula_sum "Si O2"
_cell_formula_units_Z 56
_cell_length_a 30.000000
_cell_length_b 12.000000
_cell_length_c 15.000000
_cell_angle_alpha 90.000000
_cell_angle_beta 90.000000
_cell_angle_gamma 90.000000
_cell_volume 5400.000000
_symmetry_space_group_name_H-M "C M C A"
_symmetry_group_IT_number 64
_symmetry_cell_setting 'orthorhombic'
loop_
_space_group_symop_operation_xyz
x,y,z
-x,1/2-y,1/2+z
x,-y,-z
-x,1/2+y,1/2-z
-x,-y,-z
x,1/2+y,1/2-z
-x,y,z
x,1/2-y,1/2+z
1/2+x,1/2+y,z
1/2-x,-y,1/2+z
1/2+x,1/2-y,-z
1/2-x,y,1/2-z
1/2-x,1/2-y,-z
1/2+x,y,1/2-z
1/2-x,1/2+y,z
1/2+x,-y,1/2+z
loop_
_atom_site_type_symbol
_atom_site_label
_atom_site_fract_x
_atom_site_fract_y
_atom_site_fract_z
Si Si1 0.685548 0.877910 0.461963
Si Si2 0.586949 0.338299 0.295890
Si Si3 0.346845 0.041593 0.195720
Si Si4 0.828330 0.699398 0.345809
Si Si5 0.050399 0.376574 0.020994
Si Si6 0.230114 0.400236 0.161253
Si Si7 0.395224 0.255154 0.116246
O O1 0.684911 0.804263 0.551171
O O2 0.731654 0.874710 0.408812
O O3 0.643165 0.843863 0.403893
O O4 0.679179 0.000000 0.500000
O O5 0.615117 0.451419 0.286842
O O6 0.622388 0.248583 0.333818
O O7 0.551873 0.356956 0.373496
O O8 0.574286 0.296655 0.197953
O O9 0.327704 0.086437 0.289765
O O10 0.368172 0.147203 0.148581
O O11 0.309264 0.984206 0.134298
O O12 0.794468 0.788663 0.305258
O O13 0.000000 0.375918 0.987283
O O14 0.069426 0.500000 0.000000
O O15 0.077641 0.282475 0.969553
O O16 0.250000 0.452554 0.250000
#
# Coordination Sequence:
#
# PCOD9482456 Si02
#       7
#    16  16  16  16  16  16  16
#     4  12  24  38  56  87 122 167 217 269 312 371
#     4  10  20  40  65  94 124 165 209 261 319 385
#     4  10  21  39  62  85 124 170 212 263 316 375
#     4  10  21  37  58  83 118 168 212 258 316 375
#     4  11  23  43  71 103 131 159 207 267 322 398
#     4  11  23  37  53  82 122 162 216 266 311 357
#     4  11  23  41  68  92 128 175 211 258 331 386
#
# _framework density 10.370369999999999
#
# number of rings (size 3 to 8) (size 9 to 14) (size 15 to 20)
#    0.000    1.286    2.857    4.714    0.000    5.714 
#    0.000    0.000    0.000    0.429    0.000    0.000 
#    0.000    0.000    0.000    0.000    0.000    0.000 
#
# Total GULP energy -312392.007962 kJ/mol
# GULP energy per Si atom -5578.428714 kJ/mol
# Density = 1.034677 g / cm^3
# Si number density = 10.370370 Si / 1000 Ang^3
#
#
#
# Elastic Constant Matrix: (Units=GPa)
#
#
# Indices 1 2 3 4 5 6 
#
# 1 44.4758 27.8843 26.2336 0.0000 0.0000 0.0000
# 2 27.8843 19.0661 0.3573 0.0000 0.0000 0.0000
# 3 26.2336 0.3573 82.6428 0.0000 0.0000 0.0000
# 4 0.0000 0.0000 0.0000 50.8060 0.0000 0.0000
# 5 0.0000 0.0000 0.0000 0.0000 19.1710 0.0000
# 6 0.0000 0.0000 0.0000 0.0000 0.0000 4.5664
#
#
#
# Elastic Compliance Matrix: (Units=1/GPa)
#
#
# Indices 1 2 3 4 5 6 
#
# 1 -0.232303 0.338390 0.072278 0.000000 0.000000 0.000000
# 2 0.338390 -0.440471 -0.105512 0.000000 0.000000 0.000000
# 3 0.072278 -0.105512 -0.010387 0.000000 0.000000 0.000000
# 4 0.000000 0.000000 0.000000 0.019683 0.000000 0.000000
# 5 0.000000 0.000000 0.000000 0.000000 0.052162 0.000000
# 6 0.000000 0.000000 0.000000 0.000000 0.000000 0.218989
#
#
# Mechanical properties :
#
#
# Convention : Reuss Voigt Hill
#
# Bulk Modulus (GPa) = -13.72697 28.34835 7.31069
# Shear Modulus (GPa) = -4.86892 21.02266 8.07687
#
# Velocity S-wave (km/s) = -1.53382 3.18715 1.97551
# Velocity P-wave (km/s) = 3.12563 5.21934 2.95567
#
# Compressibility (1/GPa) = -0.07284931
#
# Stress axis : x y z
#
# Youngs Moduli (GPa) = -4.30472 -2.27030 -96.27336
#
# Poissons Ratio (x) = 0.76825 6.95845
# Poissons Ratio (y) = 1.45667 -10.15802
# Poissons Ratio (z) = 0.31114 -0.23954
#
# Static dielectric constant tensor:
#      x y z
#    x 1.699270 0.000000 0.000000 
#    y 0.000000 1.784880 0.000000 
#    z 0.000000 0.000000 1.828290 
# 
# From -- ./inp_files/28412.got.cif
#   From: 2010.05.17/outbox.ucp.g08.bks.cvg/sg64_15_cif.got.tgz:28412.got - 2010.06.11 16:36:46.
