data_PCOD9482414
_publ_section_title
;
Structure prediction by ZEFSAII (Michael W. Deem and Ramdas Pophale) SiO2 
 PCOD9482414
Probable space group: C M C A
;
_chemical_formula_sum "Si O2"
_cell_formula_units_Z 56
_cell_length_a 15.000000
_cell_length_b 24.000000
_cell_length_c 15.000000
_cell_angle_alpha 90.000000
_cell_angle_beta 90.000000
_cell_angle_gamma 90.000000
_cell_volume 5400.000000
_symmetry_space_group_name_H-M "C M C A"
_symmetry_group_IT_number 64
_symmetry_cell_setting 'orthorhombic'
loop_
_space_group_symop_operation_xyz
x,y,z
-x,1/2-y,1/2+z
x,-y,-z
-x,1/2+y,1/2-z
-x,-y,-z
x,1/2+y,1/2-z
-x,y,z
x,1/2-y,1/2+z
1/2+x,1/2+y,z
1/2-x,-y,1/2+z
1/2+x,1/2-y,-z
1/2-x,y,1/2-z
1/2-x,1/2-y,-z
1/2+x,y,1/2-z
1/2-x,1/2+y,z
1/2+x,-y,1/2+z
loop_
_atom_site_type_symbol
_atom_site_label
_atom_site_fract_x
_atom_site_fract_y
_atom_site_fract_z
Si Si1 0.890569 0.621664 0.881956
Si Si2 0.891388 0.489215 0.215999
Si Si3 0.226578 0.763144 0.397748
Si Si4 0.897381 0.158266 0.137395
Si Si5 0.607269 0.914927 0.923641
Si Si6 0.609193 0.534050 0.089349
Si Si7 0.895014 0.801852 0.664382
O O1 0.869993 0.575383 0.806191
O O2 0.825947 0.677178 0.881772
O O3 0.000000 0.635681 0.879941
O O4 0.875067 0.583818 0.970961
O O5 0.859584 0.535931 0.142653
O O6 0.863609 0.505996 0.316495
O O7 0.000000 0.491935 0.213579
O O8 0.250000 0.750000 0.500000
O O9 0.156574 0.713845 0.381218
O O10 0.319345 0.746960 0.343103
O O11 0.863089 0.099516 0.097463
O O12 0.896171 0.161544 0.244763
O O13 0.000000 0.163974 0.107755
O O14 0.500000 0.916130 0.913303
O O15 0.633542 0.850945 0.902487
O O16 0.500000 0.534673 0.088350
O O17 0.637229 0.500000 0.000000
O O18 0.000000 0.783852 0.649988
#
# Coordination Sequence:
#
# PCOD9482414 Si02
#       7
#    16  16  16  16  16  16  16
#     4  10  20  34  57  96 142 175 206 261 331 393
#     4   9  16  30  58  95 132 168 206 259 328 393
#     4  12  24  38  60  91 134 169 215 266 323 386
#     4  10  21  40  66  92 122 168 219 262 315 387
#     4   9  15  29  57  92 125 162 209 256 315 385
#     4   9  17  33  61  93 124 163 213 262 315 389
#     4  10  20  38  64  91 121 166 224 273 311 371
#
# _framework density 10.370369999999999
#
# number of rings (size 3 to 8) (size 9 to 14) (size 15 to 20)
#    0.000    2.143    2.857    1.286    0.000    2.286 
#    0.000    2.857    3.143    3.429    0.000    0.000 
#    0.000    2.286    0.000    0.000    0.000    0.143 
#
# Total GULP energy -312003.101763 kJ/mol
# GULP energy per Si atom -5571.483960 kJ/mol
# Density = 1.034677 g / cm^3
# Si number density = 10.370370 Si / 1000 Ang^3
#
#
#
# Elastic Constant Matrix: (Units=GPa)
#
#
# Indices 1 2 3 4 5 6 
#
# 1 68.1887 53.0402 17.1952 0.0000 0.0000 0.0000
# 2 53.0402 164.6249 55.8641 0.0000 0.0000 0.0000
# 3 17.1952 55.8641 81.4209 0.0000 0.0000 0.0000
# 4 0.0000 0.0000 0.0000 38.7266 0.0000 0.0000
# 5 0.0000 0.0000 0.0000 0.0000 21.6897 0.0000
# 6 0.0000 0.0000 0.0000 0.0000 0.0000 30.4199
#
#
#
# Elastic Compliance Matrix: (Units=1/GPa)
#
#
# Indices 1 2 3 4 5 6 
#
# 1 0.019574 -0.006392 0.000252 0.000000 0.000000 0.000000
# 2 -0.006392 0.010005 -0.005515 0.000000 0.000000 0.000000
# 3 0.000252 -0.005515 0.016012 0.000000 0.000000 0.000000
# 4 0.000000 0.000000 0.000000 0.025822 0.000000 0.000000
# 5 0.000000 0.000000 0.000000 0.000000 0.046105 0.000000
# 6 0.000000 0.000000 0.000000 0.000000 0.000000 0.032873
#
#
# Mechanical properties :
#
#
# Convention : Reuss Voigt Hill
#
# Bulk Modulus (GPa) = 44.88019 62.93703 53.90861
# Shear Modulus (GPa) = 27.60477 30.70958 29.15717
#
# Velocity S-wave (km/s) = 3.65217 3.85208 3.75346
# Velocity P-wave (km/s) = 6.28252 7.08486 6.69572
#
# Compressibility (1/GPa) = 0.02228154
#
# Stress axis : x y z
#
# Youngs Moduli (GPa) = 51.08942 99.94808 62.45121
#
# Poissons Ratio (x) = 0.63885 -0.01573
# Poissons Ratio (y) = 0.32655 0.34441
# Poissons Ratio (z) = -0.01286 0.55120
#
# Static dielectric constant tensor:
#      x y z
#    x 1.736580 0.000000 0.000000 
#    y 0.000000 1.750410 0.000000 
#    z 0.000000 0.000000 9.096440 
# 
# From -- ./inp_files/24229.got.cif
#   From: 2010.05.17/outbox.ucp.g08.bks.cvg/sg64_13_cif.got.tgz:24229.got - 2010.06.11 16:36:46.
