data_PCOD9482546
_publ_section_title
;
Structure prediction by ZEFSAII (Michael W. Deem and Ramdas Pophale) SiO2 
 PCOD9482546
Probable space group: C M M M
;
_chemical_formula_sum "Si O2"
_cell_formula_units_Z 88
_cell_length_a 18.237366
_cell_length_b 8.659297
_cell_length_c 30.222711
_cell_angle_alpha 90.000000
_cell_angle_beta 90.000000
_cell_angle_gamma 90.000000
_cell_volume 4772.854198
_symmetry_space_group_name_H-M "C M M M"
_symmetry_group_IT_number 65
_symmetry_cell_setting 'orthorhombic'
loop_
_space_group_symop_operation_xyz
x,y,z
-x,-y,z
x,-y,-z
-x,y,-z
-x,-y,-z
x,y,-z
-x,y,z
x,-y,z
1/2+x,1/2+y,z
1/2-x,1/2-y,z
1/2+x,1/2-y,-z
1/2-x,1/2+y,-z
1/2-x,1/2-y,-z
1/2+x,1/2+y,-z
1/2-x,1/2+y,z
1/2+x,1/2-y,z
loop_
_atom_site_type_symbol
_atom_site_label
_atom_site_fract_x
_atom_site_fract_y
_atom_site_fract_z
Si Si1 0.333279 0.314966 0.548419
Si Si2 0.833607 0.683878 0.638755
Si Si3 0.667642 0.686148 0.826249
Si Si4 0.166753 0.185330 0.729120
Si Si5 0.831619 0.683731 0.000000
Si Si6 0.085197 0.813242 0.085154
O O1 0.366280 0.277695 0.500000
O O2 0.330164 0.500000 0.552745
O O3 0.250000 0.250000 0.547019
O O4 0.367729 0.244414 0.592832
O O5 0.830431 0.500000 0.638712
O O6 0.750000 0.750000 0.638834
O O7 0.867735 0.744299 0.684676
O O8 0.671790 0.500000 0.827079
O O9 0.750000 0.750000 0.830134
O O10 0.636005 0.727294 0.777623
O O11 0.620585 0.736709 0.868281
O O12 0.250000 0.250000 0.730723
O O13 0.168646 0.000000 0.724800
O O14 0.750000 0.750000 0.000000
O O15 0.872734 0.742891 0.956314
O O16 0.829288 0.500000 0.000000
O O17 0.000000 0.771313 0.083431
O O18 0.090595 0.000000 0.082633
#
# Coordination Sequence:
#
# PCOD9482546 Si02
#       6
#    16  16  16  16   8  16
#     4   9  15  21  28  38  55  83 121 165 213 263
#     4  10  16  21  30  44  64  91 126 168 217 267
#     4   9  18  31  49  72  95 124 160 199 241 285
#     4   9  15  24  37  54  77 102 135 178 223 269
#     4  12  25  40  59  83 109 137 173 210 247 290
#     4  10  21  38  58  80 108 139 169 203 247 295
#
# _framework density 18.437605999999999
#
# number of rings (size 3 to 8) (size 9 to 14) (size 15 to 20)
#    0.000    2.364    0.000    6.545    0.000    5.455 
#    0.000    0.000    0.000    0.000    0.000    0.000 
#    0.000    0.000    0.000    0.000    0.000    0.909 
#
# Total GULP energy -245184.092939 kJ/mol
# GULP energy per Si atom -5572.365749 kJ/mol
# Density = 1.839564 g / cm^3
# Si number density = 18.437606 Si / 1000 Ang^3
#
#
#
# Elastic Constant Matrix: (Units=GPa)
#
#
# Indices 1 2 3 4 5 6 
#
# 1 49.1746 22.8703 60.6489 0.0000 0.0000 0.0000
# 2 22.8703 78.0203 69.7187 0.0000 0.0000 0.0000
# 3 60.6489 69.7187 248.5039 0.0000 0.0000 0.0000
# 4 0.0000 0.0000 0.0000 24.1675 0.0000 0.0000
# 5 0.0000 0.0000 0.0000 0.0000 -6.4324 0.0000
# 6 0.0000 0.0000 0.0000 0.0000 0.0000 9.6066
#
#
#
# Elastic Compliance Matrix: (Units=1/GPa)
#
#
# Indices 1 2 3 4 5 6 
#
# 1 0.029598 -0.002964 -0.006392 0.000000 0.000000 0.000000
# 2 -0.002964 0.017402 -0.004159 0.000000 0.000000 0.000000
# 3 -0.006392 -0.004159 0.006751 0.000000 0.000000 0.000000
# 4 0.000000 0.000000 0.000000 0.041378 0.000000 0.000000
# 5 0.000000 0.000000 0.000000 0.000000 -0.155463 0.000000
# 6 0.000000 0.000000 0.000000 0.000000 0.000000 0.104095
#
#
# Mechanical properties :
#
#
# Convention : Reuss Voigt Hill
#
# Bulk Modulus (GPa) = 37.42388 75.79717 56.61052
# Shear Modulus (GPa) = 62.73751 20.29908 41.51830
#
# Velocity S-wave (km/s) = 5.83959 3.32167 4.75049
# Velocity P-wave (km/s) = 8.11230 7.47734 7.80128
#
# Compressibility (1/GPa) = 0.02672091
#
# Stress axis : x y z
#
# Youngs Moduli (GPa) = 33.78647 57.46310 148.12984
#
# Poissons Ratio (x) = 0.17034 0.94682
# Poissons Ratio (y) = 0.10015 0.61605
# Poissons Ratio (z) = 0.21596 0.23898
#
# Static dielectric constant tensor:
#      x y z
#    x 1.586550 0.000000 0.000000 
#    y 0.000000 1.656800 0.000000 
#    z 0.000000 0.000000 1.724550 
# 
# From -- ./inp_files/77982.got.cif
#   From: 2010.05.17/outbox.cif.g08.bks.cpg/sg65_39_cif.got.tgz:77982.got - 2010.06.03 17:01:31.
