data_PCOD9482910
_publ_section_title
;
Structure prediction by ZEFSAII (Michael W. Deem and Ramdas Pophale) SiO2 
 PCOD9482910
Probable space group: C M M M
;
_chemical_formula_sum "Si O2"
_cell_formula_units_Z 64
_cell_length_a 19.402764
_cell_length_b 13.337987
_cell_length_c 13.927625
_cell_angle_alpha 90.000000
_cell_angle_beta 90.000000
_cell_angle_gamma 90.000000
_cell_volume 3604.383194
_symmetry_space_group_name_H-M "C M M M"
_symmetry_group_IT_number 65
_symmetry_cell_setting 'orthorhombic'
loop_
_space_group_symop_operation_xyz
x,y,z
-x,-y,z
x,-y,-z
-x,y,-z
-x,-y,-z
x,y,-z
-x,y,z
x,-y,z
1/2+x,1/2+y,z
1/2-x,1/2-y,z
1/2+x,1/2-y,-z
1/2-x,1/2+y,-z
1/2-x,1/2-y,-z
1/2+x,1/2+y,-z
1/2-x,1/2+y,z
1/2+x,1/2-y,z
loop_
_atom_site_type_symbol
_atom_site_label
_atom_site_fract_x
_atom_site_fract_y
_atom_site_fract_z
Si Si1 0.652078 0.308532 0.611617
Si Si2 0.000000 0.762362 0.613092
Si Si3 0.142957 0.378744 0.107341
Si Si4 0.214352 0.615164 0.299563
Si Si5 0.500000 0.879467 0.207856
O O1 0.665775 0.329542 0.500000
O O2 0.571174 0.321648 0.630080
O O3 0.705743 0.371157 0.674436
O O4 0.672062 0.192797 0.634579
O O5 0.000000 0.671172 0.688041
O O6 0.000000 0.732463 0.500000
O O7 0.141756 0.500000 0.101081
O O8 0.197896 0.354980 0.189945
O O9 0.068343 0.349044 0.149353
O O10 0.155113 0.339568 0.000000
O O11 0.192918 0.500000 0.313808
O O12 0.500000 0.000000 0.216743
#
# Coordination Sequence:
#
# PCOD9482910 Si02
#       5
#    16   8  16  16   8
#     4  10  21  35  51  74 103 135 169 210 256 300
#     4  10  20  34  50  68 100 138 168 208 253 296
#     4   9  17  29  48  74 102 133 167 205 252 304
#     4  10  19  33  53  75 101 134 167 204 254 305
#     4  10  17  29  48  72 104 137 166 202 251 307
#
# _framework density 17.756157999999999
#
# number of rings (size 3 to 8) (size 9 to 14) (size 15 to 20)
#    0.000    2.250    2.500    1.875    0.000    3.750 
#    0.000    5.625    0.000    2.250    0.000    0.000 
#    0.000    4.000    0.000    0.000    0.000    0.000 
#
# Total GULP energy -178320.156146 kJ/mol
# GULP energy per Si atom -5572.504880 kJ/mol
# Density = 1.771574 g / cm^3
# Si number density = 17.756158 Si / 1000 Ang^3
#
#
#
# Elastic Constant Matrix: (Units=GPa)
#
#
# Indices 1 2 3 4 5 6 
#
# 1 133.8121 0.3666 69.2320 0.0000 0.0000 0.0000
# 2 0.3666 15.4270 -0.3883 0.0000 0.0000 0.0000
# 3 69.2320 -0.3883 125.7485 0.0000 0.0000 0.0000
# 4 0.0000 0.0000 0.0000 -12.0733 0.0000 0.0000
# 5 0.0000 0.0000 0.0000 0.0000 23.7702 0.0000
# 6 0.0000 0.0000 0.0000 0.0000 0.0000 16.2566
#
#
#
# Elastic Compliance Matrix: (Units=1/GPa)
#
#
# Indices 1 2 3 4 5 6 
#
# 1 0.010452 -0.000393 -0.005756 0.000000 0.000000 0.000000
# 2 -0.000393 0.064841 0.000417 0.000000 0.000000 0.000000
# 3 -0.005756 0.000417 0.011123 0.000000 0.000000 0.000000
# 4 0.000000 0.000000 0.000000 -0.082827 0.000000 0.000000
# 5 0.000000 0.000000 0.000000 0.000000 0.042069 0.000000
# 6 0.000000 0.000000 0.000000 0.000000 0.000000 0.061513
#
#
# Mechanical properties :
#
#
# Convention : Reuss Voigt Hill
#
# Bulk Modulus (GPa) = 13.34196 45.93424 29.63810
# Shear Modulus (GPa) = 34.81406 19.30919 27.06162
#
# Velocity S-wave (km/s) = 4.43276 3.30125 3.90817
# Velocity P-wave (km/s) = 5.80770 6.36055 6.09040
#
# Compressibility (1/GPa) = 0.07495149
#
# Stress axis : x y z
#
# Youngs Moduli (GPa) = 95.67400 15.42226 89.90750
#
# Poissons Ratio (x) = 0.00607 0.51748
# Poissons Ratio (y) = 0.03763 -0.03747
# Poissons Ratio (z) = 0.55068 -0.00643
#
# Static dielectric constant tensor:
#      x y z
#    x 1.639660 0.000000 0.000000 
#    y 0.000000 1.602660 0.000000 
#    z 0.000000 0.000000 1.613540 
# 
# From -- ./inp_files/26112.got.cif
#   From: 2010.05.17/outbox.cif.g08.bks.cpg/sg65_14_cif.got.tgz:26112.got - 2010.06.03 17:01:31.
