data_PCOD9482609
_publ_section_title
;
Structure prediction by ZEFSAII (Michael W. Deem and Ramdas Pophale) SiO2 
 PCOD9482609
Probable space group: C M M M
;
_chemical_formula_sum "Si O2"
_cell_formula_units_Z 64
_cell_length_a 8.573905
_cell_length_b 25.966771
_cell_length_c 18.594449
_cell_angle_alpha 90.000000
_cell_angle_beta 90.000000
_cell_angle_gamma 90.000000
_cell_volume 4139.805419
_symmetry_space_group_name_H-M "C M M M"
_symmetry_group_IT_number 65
_symmetry_cell_setting 'orthorhombic'
loop_
_space_group_symop_operation_xyz
x,y,z
-x,-y,z
x,-y,-z
-x,y,-z
-x,-y,-z
x,y,-z
-x,y,z
x,-y,z
1/2+x,1/2+y,z
1/2-x,1/2-y,z
1/2+x,1/2-y,-z
1/2-x,1/2+y,-z
1/2-x,1/2-y,-z
1/2+x,1/2+y,-z
1/2-x,1/2+y,z
1/2+x,1/2-y,z
loop_
_atom_site_type_symbol
_atom_site_label
_atom_site_fract_x
_atom_site_fract_y
_atom_site_fract_z
Si Si1 0.310454 0.613104 0.584221
Si Si2 0.180351 0.000000 0.412725
Si Si3 0.314081 0.191866 0.299610
Si Si4 0.686121 0.191089 0.000000
Si Si5 0.813789 0.808711 0.148679
O O1 0.271237 0.620803 0.500000
O O2 0.500000 0.613694 0.588966
O O3 0.253372 0.555777 0.607302
O O4 0.240444 0.656496 0.634849
O O5 0.177821 0.000000 0.500000
O O6 0.000000 0.000000 0.388649
O O7 0.500000 0.194211 0.294663
O O8 0.250000 0.250000 0.308802
O O9 0.246056 0.169728 0.224467
O O10 0.750000 0.250000 0.000000
O O11 0.748349 0.167579 0.074685
O O12 0.500000 0.192496 0.000000
O O13 0.750000 0.750000 0.149702
O O14 0.000000 0.807939 0.146635
#
# Coordination Sequence:
#
# PCOD9482609 Si02
#       5
#    16   8  16   8  16
#     4   9  17  31  50  69  88 113 146 183 222 265
#     4   7  12  26  49  71  87 106 137 178 223 267
#     4  11  21  32  44  61  88 121 153 185 222 263
#     4  10  16  24  38  58  82 109 142 177 214 256
#     4  10  17  27  41  58  81 111 146 181 217 257
#
# _framework density 15.459664
#
# number of rings (size 3 to 8) (size 9 to 14) (size 15 to 20)
#    0.000    2.375    0.000   10.125    0.000    1.000 
#    0.000    0.625    0.000    2.250    0.000    0.000 
#    0.000    1.000    0.000   10.750    0.000    6.000 
#
# Total GULP energy -178183.981617 kJ/mol
# GULP energy per Si atom -5568.249426 kJ/mol
# Density = 1.542448 g / cm^3
# Si number density = 15.459664 Si / 1000 Ang^3
#
#
#
# Elastic Constant Matrix: (Units=GPa)
#
#
# Indices 1 2 3 4 5 6 
#
# 1 118.2978 29.0483 56.2689 0.0000 0.0000 0.0000
# 2 29.0483 66.1854 54.2371 0.0000 0.0000 0.0000
# 3 56.2689 54.2371 122.2830 0.0000 0.0000 0.0000
# 4 0.0000 0.0000 0.0000 -1.3885 0.0000 0.0000
# 5 0.0000 0.0000 0.0000 0.0000 23.6660 0.0000
# 6 0.0000 0.0000 0.0000 0.0000 0.0000 11.4330
#
#
#
# Elastic Compliance Matrix: (Units=1/GPa)
#
#
# Indices 1 2 3 4 5 6 
#
# 1 0.010869 -0.001055 -0.004533 0.000000 0.000000 0.000000
# 2 -0.001055 0.023839 -0.010088 0.000000 0.000000 0.000000
# 3 -0.004533 -0.010088 0.014738 0.000000 0.000000 0.000000
# 4 0.000000 0.000000 0.000000 -0.720216 0.000000 0.000000
# 5 0.000000 0.000000 0.000000 0.000000 0.042255 0.000000
# 6 0.000000 0.000000 0.000000 0.000000 0.000000 0.087466
#
#
# Mechanical properties :
#
#
# Convention : Reuss Voigt Hill
#
# Bulk Modulus (GPa) = 55.27030 65.09720 60.18375
# Shear Modulus (GPa) = -9.92721 17.88957 3.98118
#
# Velocity S-wave (km/s) = -2.53679 3.40542 1.60649
# Velocity P-wave (km/s) = 5.22001 7.59353 6.51576
#
# Compressibility (1/GPa) = 0.01809290
#
# Stress axis : x y z
#
# Youngs Moduli (GPa) = 92.00826 41.94814 67.85175
#
# Poissons Ratio (x) = 0.04427 0.30758
# Poissons Ratio (y) = 0.09710 0.68448
# Poissons Ratio (z) = 0.41708 0.42317
#
# Static dielectric constant tensor:
#      x y z
#    x 1.515200 0.000000 0.000000 
#    y 0.000000 1.510570 0.000000 
#    z 0.000000 0.000000 1.560260 
# 
# From -- ./inp_files/36885.got.cif
#   From: 2010.05.17/outbox.cif.g08.bks.cpg/sg65_19_cif.got.tgz:36885.got - 2010.06.03 17:01:31.
