data_PCOD9482719
_publ_section_title
;
Structure prediction by ZEFSAII (Michael W. Deem and Ramdas Pophale) SiO2 
 PCOD9482719
Probable space group: C M M M
;
_chemical_formula_sum "Si O2"
_cell_formula_units_Z 56
_cell_length_a 18.247403
_cell_length_b 8.591167
_cell_length_c 19.322902
_cell_angle_alpha 90.000000
_cell_angle_beta 90.000000
_cell_angle_gamma 90.000000
_cell_volume 3029.183455
_symmetry_space_group_name_H-M "C M M M"
_symmetry_group_IT_number 65
_symmetry_cell_setting 'orthorhombic'
loop_
_space_group_symop_operation_xyz
x,y,z
-x,-y,z
x,-y,-z
-x,y,-z
-x,-y,-z
x,y,-z
-x,y,z
x,-y,z
1/2+x,1/2+y,z
1/2-x,1/2-y,z
1/2+x,1/2-y,-z
1/2-x,1/2+y,-z
1/2-x,1/2-y,-z
1/2+x,1/2+y,-z
1/2-x,1/2+y,z
1/2+x,1/2-y,z
loop_
_atom_site_type_symbol
_atom_site_label
_atom_site_fract_x
_atom_site_fract_y
_atom_site_fract_z
Si Si1 0.916433 0.810288 0.500000
Si Si2 0.666412 0.686525 0.075613
Si Si3 0.332765 0.312857 0.638604
Si Si4 0.833717 0.314643 0.217695
O O1 0.875866 0.762062 0.570163
O O2 0.000000 0.757609 0.500000
O O3 0.916005 0.000000 0.500000
O O4 0.668874 0.500000 0.081708
O O5 0.750000 0.750000 0.073711
O O6 0.632199 0.756072 0.145461
O O7 0.633670 0.726185 0.000000
O O8 0.331041 0.500000 0.641868
O O9 0.250000 0.250000 0.633029
O O10 0.365913 0.249448 0.710576
O O11 0.831537 0.500000 0.218709
O O12 0.750000 0.250000 0.217585
#
# Coordination Sequence:
#
# PCOD9482719 Si02
#       4
#     8  16  16  16
#     4   9  19  34  51  71  92 117 150 188 230 273
#     4   9  15  22  33  51  78 112 148 183 221 264
#     4  10  18  30  49  69  92 119 151 190 227 270
#     4  10  17  25  38  57  84 115 150 186 221 265
#
# _framework density 18.486830000000001
#
# number of rings (size 3 to 8) (size 9 to 14) (size 15 to 20)
#    0.000    2.429    0.000    8.143    0.000    1.714 
#    0.000    2.143    0.000    6.857    0.000    0.000 
#    0.000    1.143    0.000   13.143    0.000   10.286 
#
# Total GULP energy -155994.572604 kJ/mol
# GULP energy per Si atom -5571.234736 kJ/mol
# Density = 1.844475 g / cm^3
# Si number density = 18.486830 Si / 1000 Ang^3
#
#
#
# Elastic Constant Matrix: (Units=GPa)
#
#
# Indices 1 2 3 4 5 6 
#
# 1 25.9228 11.0925 44.8391 0.0000 0.0000 0.0000
# 2 11.0925 100.6898 66.2972 0.0000 0.0000 0.0000
# 3 44.8391 66.2972 251.7385 0.0000 0.0000 0.0000
# 4 0.0000 0.0000 0.0000 30.7122 0.0000 0.0000
# 5 0.0000 0.0000 0.0000 0.0000 -3.7764 0.0000
# 6 0.0000 0.0000 0.0000 0.0000 0.0000 5.6187
#
#
#
# Elastic Compliance Matrix: (Units=1/GPa)
#
#
# Indices 1 2 3 4 5 6 
#
# 1 0.055772 0.000480 -0.010060 0.000000 0.000000 0.000000
# 2 0.000480 0.012019 -0.003251 0.000000 0.000000 0.000000
# 3 -0.010060 -0.003251 0.006620 0.000000 0.000000 0.000000
# 4 0.000000 0.000000 0.000000 0.032560 0.000000 0.000000
# 5 0.000000 0.000000 0.000000 0.000000 -0.264800 0.000000
# 6 0.000000 0.000000 0.000000 0.000000 0.000000 0.177979
#
#
# Mechanical properties :
#
#
# Convention : Reuss Voigt Hill
#
# Bulk Modulus (GPa) = 20.51312 69.20096 44.85704
# Shear Modulus (GPa) = 80.56276 23.58570 52.07423
#
# Velocity S-wave (km/s) = 6.60856 3.57572 5.31314
# Velocity P-wave (km/s) = 8.32772 7.38658 7.87123
#
# Compressibility (1/GPa) = 0.04874929
#
# Stress axis : x y z
#
# Youngs Moduli (GPa) = 17.93000 83.20138 151.04744
#
# Poissons Ratio (x) = -0.03993 1.51960
# Poissons Ratio (y) = -0.00860 0.49102
# Poissons Ratio (z) = 0.18038 0.27047
#
# Static dielectric constant tensor:
#      x y z
#    x 1.591970 0.000000 0.000000 
#    y 0.000000 1.612050 0.000000 
#    z 0.000000 0.000000 1.734620 
# 
# From -- ./inp_files/55215.got.cif
#   From: 2010.05.17/outbox.cif.g08.bks.cpg/sg65_28_cif.got.tgz:55215.got - 2010.06.03 17:01:31.
