data_PCOD9482965
_publ_section_title
;
Structure prediction by ZEFSAII (Michael W. Deem and Ramdas Pophale) SiO2 
 PCOD9482965
Probable space group: C M M M
;
_chemical_formula_sum "Si O2"
_cell_formula_units_Z 88
_cell_length_a 19.107700
_cell_length_b 14.526361
_cell_length_c 14.034923
_cell_angle_alpha 90.000000
_cell_angle_beta 90.000000
_cell_angle_gamma 90.000000
_cell_volume 3895.608288
_symmetry_space_group_name_H-M "C M M M"
_symmetry_group_IT_number 65
_symmetry_cell_setting 'orthorhombic'
loop_
_space_group_symop_operation_xyz
x,y,z
-x,-y,z
x,-y,-z
-x,y,-z
-x,-y,-z
x,y,-z
-x,y,z
x,-y,z
1/2+x,1/2+y,z
1/2-x,1/2-y,z
1/2+x,1/2-y,-z
1/2-x,1/2+y,-z
1/2-x,1/2-y,-z
1/2+x,1/2+y,-z
1/2-x,1/2+y,z
1/2+x,1/2-y,z
loop_
_atom_site_type_symbol
_atom_site_label
_atom_site_fract_x
_atom_site_fract_y
_atom_site_fract_z
Si Si1 0.143356 0.897255 0.301352
Si Si2 0.352214 0.111840 0.105436
Si Si3 0.077333 0.611470 0.299485
Si Si4 0.721663 0.853536 0.606198
Si Si5 0.417293 0.390275 0.500000
Si Si6 0.189736 0.887280 0.892937
O O1 0.226351 0.904269 0.322535
O O2 0.112277 0.854409 0.398657
O O3 0.143070 0.853709 0.196135
O O4 0.112051 0.000000 0.294360
O O5 0.401168 0.139175 0.192437
O O6 0.271198 0.141269 0.118112
O O7 0.350753 0.000000 0.106024
O O8 0.375594 0.140446 0.000000
O O9 0.076019 0.500000 0.302961
O O10 0.141513 0.641133 0.364981
O O11 0.000000 0.645341 0.325602
O O12 0.731347 0.890389 0.500000
O O13 0.750000 0.750000 0.608220
O O14 0.399787 0.500000 0.500000
O O15 0.500000 0.379438 0.500000
O O16 0.188564 0.000000 0.888997
O O17 0.167571 0.860999 0.000000
#
# Coordination Sequence:
#
# PCOD9482965 Si02
#       6
#    16  16  16  16   8  16
#     4  10  17  30  55  77  97 133 173 218 271 319
#     4   8  13  23  43  75 112 142 171 214 263 313
#     4  10  20  34  55  83 113 145 182 226 275 327
#     4  11  23  37  52  72 104 141 180 221 266 332
#     4   9  18  30  47  76 101 117 159 226 278 308
#     4   8  13  22  42  74 104 130 166 211 259 316
#
# _framework density 22.58954
#
# number of rings (size 3 to 8) (size 9 to 14) (size 15 to 20)
#    0.000    2.636    2.727    1.636    0.000    1.818 
#    0.000    3.636    0.000    2.727    0.000    3.818 
#    0.000    0.000    0.000    0.000    0.000    0.000 
#
# Total GULP energy -245535.860832 kJ/mol
# GULP energy per Si atom -5580.360473 kJ/mol
# Density = 2.253813 g / cm^3
# Si number density = 22.589540 Si / 1000 Ang^3
#
#
#
# Elastic Constant Matrix: (Units=GPa)
#
#
# Indices 1 2 3 4 5 6 
#
# 1 78.6188 21.5616 52.7129 0.0000 0.0000 0.0000
# 2 21.5616 62.8635 -9.1208 0.0000 0.0000 0.0000
# 3 52.7129 -9.1208 149.1706 0.0000 0.0000 0.0000
# 4 0.0000 0.0000 0.0000 77.1617 0.0000 0.0000
# 5 0.0000 0.0000 0.0000 0.0000 47.8677 0.0000
# 6 0.0000 0.0000 0.0000 0.0000 0.0000 12.2307
#
#
#
# Elastic Compliance Matrix: (Units=1/GPa)
#
#
# Indices 1 2 3 4 5 6 
#
# 1 0.019947 -0.007935 -0.007534 0.000000 0.000000 0.000000
# 2 -0.007935 0.019206 0.003978 0.000000 0.000000 0.000000
# 3 -0.007534 0.003978 0.009609 0.000000 0.000000 0.000000
# 4 0.000000 0.000000 0.000000 0.012960 0.000000 0.000000
# 5 0.000000 0.000000 0.000000 0.000000 0.020891 0.000000
# 6 0.000000 0.000000 0.000000 0.000000 0.000000 0.081762
#
#
# Mechanical properties :
#
#
# Convention : Reuss Voigt Hill
#
# Bulk Modulus (GPa) = 38.78712 46.77338 42.78025
# Shear Modulus (GPa) = 25.51673 42.48529 34.00101
#
# Velocity S-wave (km/s) = 3.36457 4.34147 3.88386
# Velocity P-wave (km/s) = 5.68344 6.77361 6.25233
#
# Compressibility (1/GPa) = 0.02578175
#
# Stress axis : x y z
#
# Youngs Moduli (GPa) = 50.13239 52.06636 104.06609
#
# Poissons Ratio (x) = 0.41314 0.78403
# Poissons Ratio (y) = 0.39779 -0.41400
# Poissons Ratio (z) = 0.37770 -0.20713
#
# Static dielectric constant tensor:
#      x y z
#    x 1.788260 0.000000 0.000000 
#    y 0.000000 1.883800 0.000000 
#    z 0.000000 0.000000 1.879100 
# 
# From -- ./inp_files/42535.got.cif
#   From: 2010.05.17/outbox.cif.g08.bks.cpg/sg65_22_cif.got.tgz:42535.got - 2010.06.03 17:01:31.
