data_PCOD9482979
_publ_section_title
;
Structure prediction by ZEFSAII (Michael W. Deem and Ramdas Pophale) SiO2 
 PCOD9482979
Probable space group: C M M M
;
_chemical_formula_sum "Si O2"
_cell_formula_units_Z 88
_cell_length_a 7.793415
_cell_length_b 31.823621
_cell_length_c 17.661862
_cell_angle_alpha 90.000000
_cell_angle_beta 90.000000
_cell_angle_gamma 90.000000
_cell_volume 4380.401145
_symmetry_space_group_name_H-M "C M M M"
_symmetry_group_IT_number 65
_symmetry_cell_setting 'orthorhombic'
loop_
_space_group_symop_operation_xyz
x,y,z
-x,-y,z
x,-y,-z
-x,y,-z
-x,-y,-z
x,y,-z
-x,y,z
x,-y,z
1/2+x,1/2+y,z
1/2-x,1/2-y,z
1/2+x,1/2-y,-z
1/2-x,1/2+y,-z
1/2-x,1/2-y,-z
1/2+x,1/2+y,-z
1/2-x,1/2+y,z
1/2+x,1/2-y,z
loop_
_atom_site_type_symbol
_atom_site_label
_atom_site_fract_x
_atom_site_fract_y
_atom_site_fract_z
Si Si1 0.204758 0.297984 0.655644
Si Si2 0.803593 0.566886 0.500000
Si Si3 0.194112 0.159916 0.500000
Si Si4 0.209931 0.453796 0.333369
Si Si5 0.297723 0.092416 0.914923
Si Si6 0.301705 0.500000 0.091754
Si Si7 0.210530 0.372725 0.762630
O O1 0.250000 0.250000 0.671862
O O2 0.274798 0.312677 0.574504
O O3 0.266010 0.330979 0.718928
O O4 0.000000 0.301636 0.651101
O O5 0.804766 0.617585 0.500000
O O6 0.729231 0.551919 0.420126
O O7 0.000000 0.551620 0.500000
O O8 0.000000 0.144434 0.500000
O O9 0.260677 0.500000 0.304762
O O10 0.265511 0.413902 0.284466
O O11 0.000000 0.452485 0.333992
O O12 0.500000 0.100662 0.921371
O O13 0.228305 0.121994 0.848816
O O14 0.279891 0.044254 0.886116
O O15 0.223037 0.095798 0.000000
O O16 0.500000 0.500000 0.113438
O O17 0.289571 0.500000 0.000000
O O18 0.000000 0.372853 0.763618
#
# Coordination Sequence:
#
# PCOD9482979 Si02
#       7
#    16   8   8  16  16   8  16
#     4  11  22  39  59  80 104 133 170 213 262 312
#     4  10  17  31  51  73 102 139 177 217 256 299
#     4  12  23  36  55  80 107 139 172 209 259 312
#     4   9  16  26  46  75 101 132 175 217 253 296
#     4   9  17  30  50  76 103 134 175 220 261 303
#     4   9  17  29  45  69 103 142 177 210 255 309
#     4   9  18  31  51  78 105 133 168 216 263 304
#
# _framework density 20.089485
#
# number of rings (size 3 to 8) (size 9 to 14) (size 15 to 20)
#    0.000    2.273    1.818    2.182    1.273    2.182 
#    0.000    1.818    0.000    1.636    0.000    0.000 
#    0.000    0.000    0.000    0.000    0.000    0.182 
#
# Total GULP energy -245612.853798 kJ/mol
# GULP energy per Si atom -5582.110314 kJ/mol
# Density = 2.004376 g / cm^3
# Si number density = 20.089485 Si / 1000 Ang^3
#
#
#
# Elastic Constant Matrix: (Units=GPa)
#
#
# Indices 1 2 3 4 5 6 
#
# 1 34.1511 -3.1952 2.7000 0.0000 0.0000 0.0000
# 2 -3.1952 150.2785 76.4062 0.0000 0.0000 0.0000
# 3 2.7000 76.4062 135.3358 0.0000 0.0000 0.0000
# 4 0.0000 0.0000 0.0000 -7.0005 0.0000 0.0000
# 5 0.0000 0.0000 0.0000 0.0000 -2.8142 0.0000
# 6 0.0000 0.0000 0.0000 0.0000 0.0000 13.1374
#
#
#
# Elastic Compliance Matrix: (Units=1/GPa)
#
#
# Indices 1 2 3 4 5 6 
#
# 1 0.029508 0.001300 -0.001323 0.000000 0.000000 0.000000
# 2 0.001300 0.009391 -0.005328 0.000000 0.000000 0.000000
# 3 -0.001323 -0.005328 0.010423 0.000000 0.000000 0.000000
# 4 0.000000 0.000000 0.000000 -0.142847 0.000000 0.000000
# 5 0.000000 0.000000 0.000000 0.000000 -0.355341 0.000000
# 6 0.000000 0.000000 0.000000 0.000000 0.000000 0.076119
#
#
# Mechanical properties :
#
#
# Convention : Reuss Voigt Hill
#
# Bulk Modulus (GPa) = 25.89262 52.39859 39.14561
# Shear Modulus (GPa) = -14.31957 16.92149 1.30096
#
# Velocity S-wave (km/s) = -2.67271 2.90540 0.80560
# Velocity P-wave (km/s) = 1.84178 6.11509 4.51589
#
# Compressibility (1/GPa) = 0.03862104
#
# Stress axis : x y z
#
# Youngs Moduli (GPa) = 33.88936 106.48881 95.93983
#
# Poissons Ratio (x) = -0.13842 0.12688
# Poissons Ratio (y) = -0.04405 0.51113
# Poissons Ratio (z) = 0.04482 0.56733
#
# Static dielectric constant tensor:
#      x y z
#    x 1.741030 0.000000 0.000000 
#    y 0.000000 1.735330 0.000000 
#    z 0.000000 0.000000 1.747480 
# 
# From -- ./inp_files/50480.got.cif
#   From: 2010.05.17/outbox.cif.g08.bks.cpg/sg65_26_cif.got.tgz:50480.got - 2010.06.03 17:01:31.
