data_PCOD9482577
_publ_section_title
;
Structure prediction by ZEFSAII (Michael W. Deem and Ramdas Pophale) SiO2 
 PCOD9482577
Probable space group: C M M M
;
_chemical_formula_sum "Si O2"
_cell_formula_units_Z 92
_cell_length_a 7.978786
_cell_length_b 23.521013
_cell_length_c 28.821072
_cell_angle_alpha 90.000000
_cell_angle_beta 90.000000
_cell_angle_gamma 90.000000
_cell_volume 5408.825486
_symmetry_space_group_name_H-M "C M M M"
_symmetry_group_IT_number 65
_symmetry_cell_setting 'orthorhombic'
loop_
_space_group_symop_operation_xyz
x,y,z
-x,-y,z
x,-y,-z
-x,y,-z
-x,-y,-z
x,y,-z
-x,y,z
x,-y,z
1/2+x,1/2+y,z
1/2-x,1/2-y,z
1/2+x,1/2-y,-z
1/2-x,1/2+y,-z
1/2-x,1/2-y,-z
1/2+x,1/2+y,-z
1/2-x,1/2+y,z
1/2+x,1/2-y,z
loop_
_atom_site_type_symbol
_atom_site_label
_atom_site_fract_x
_atom_site_fract_y
_atom_site_fract_z
Si Si1 0.203372 0.683736 0.387899
Si Si2 0.500000 0.374637 0.554418
Si Si3 0.500000 0.500000 0.592728
Si Si4 0.204188 0.500000 0.667791
Si Si5 0.699345 0.121950 0.292237
Si Si6 0.801535 0.184356 0.199460
Si Si7 0.800912 0.816442 0.901050
Si Si8 0.696048 0.183589 0.000000
O O1 0.250000 0.750000 0.390693
O O2 0.330719 0.651116 0.422292
O O3 0.247821 0.660308 0.336506
O O4 0.000000 0.675691 0.395461
O O5 0.500000 0.361908 0.500000
O O6 0.500000 0.442066 0.563719
O O7 0.330314 0.500000 0.624153
O O8 0.244928 0.442966 0.696345
O O9 0.000000 0.500000 0.657134
O O10 0.500000 0.123954 0.290591
O O11 0.759043 0.146560 0.243635
O O12 0.750000 0.250000 0.206964
O O13 0.733426 0.163411 0.149157
O O14 0.000000 0.184763 0.195440
O O15 0.750000 0.750000 0.902193
O O16 0.749702 0.842193 0.950592
O O17 0.000000 0.819774 0.900443
O O18 0.750000 0.250000 0.000000
O O19 0.500000 0.184047 0.000000
#
# Coordination Sequence:
#
# PCOD9482577 Si02
#       8
#    16   8   4   8  16  16  16   8
#     4  11  23  41  63  91 122 156 192 232 282 345
#     4  12  27  44  66  94 122 155 194 237 287 334
#     4  12  23  44  72  88 116 156 192 241 280 330
#     4  10  22  39  61  87 112 143 187 231 276 328
#     4  10  21  36  57  80 108 142 178 222 275 326
#     4  10  20  30  46  72 104 138 175 216 268 324
#     4   9  16  26  37  56  87 125 167 213 257 309
#     4  10  16  22  36  54  76 121 170 213 254 308
#
# _framework density 17.009238
#
# number of rings (size 3 to 8) (size 9 to 14) (size 15 to 20)
#    0.000    1.739    2.609    3.522    2.435    4.174 
#    0.000    0.000    0.000    1.565    0.000    0.000 
#    0.000    0.696    0.000    7.826    0.000    4.348 
#
# Total GULP energy -256197.066603 kJ/mol
# GULP energy per Si atom -5569.501448 kJ/mol
# Density = 1.697052 g / cm^3
# Si number density = 17.009238 Si / 1000 Ang^3
#
#
#
# Elastic Constant Matrix: (Units=GPa)
#
#
# Indices 1 2 3 4 5 6 
#
# 1 67.4334 26.2814 55.4667 0.0000 0.0000 0.0000
# 2 26.2814 81.5380 42.8744 0.0000 0.0000 0.0000
# 3 55.4667 42.8744 162.8531 0.0000 0.0000 0.0000
# 4 0.0000 0.0000 0.0000 -8.2829 0.0000 0.0000
# 5 0.0000 0.0000 0.0000 0.0000 48.8574 0.0000
# 6 0.0000 0.0000 0.0000 0.0000 0.0000 6.3976
#
#
#
# Elastic Compliance Matrix: (Units=1/GPa)
#
#
# Indices 1 2 3 4 5 6 
#
# 1 0.021459 -0.003567 -0.006370 0.000000 0.000000 0.000000
# 2 -0.003567 0.014828 -0.002689 0.000000 0.000000 0.000000
# 3 -0.006370 -0.002689 0.009018 0.000000 0.000000 0.000000
# 4 0.000000 0.000000 0.000000 -0.120731 0.000000 0.000000
# 5 0.000000 0.000000 0.000000 0.000000 0.020468 0.000000
# 6 0.000000 0.000000 0.000000 0.000000 0.000000 0.156308
#
#
# Mechanical properties :
#
#
# Convention : Reuss Voigt Hill
#
# Bulk Modulus (GPa) = 49.86722 62.34105 56.10413
# Shear Modulus (GPa) = 37.51361 21.87456 29.69408
#
# Velocity S-wave (km/s) = 4.70135 3.59003 4.18276
# Velocity P-wave (km/s) = 7.67148 7.34270 7.50889
#
# Compressibility (1/GPa) = 0.02005325
#
# Stress axis : x y z
#
# Youngs Moduli (GPa) = 46.60035 67.44063 110.89169
#
# Poissons Ratio (x) = 0.24059 0.70634
# Poissons Ratio (y) = 0.16624 0.29815
# Poissons Ratio (z) = 0.29683 0.18133
#
# Static dielectric constant tensor:
#      x y z
#    x 1.593460 0.000000 0.000000 
#    y 0.000000 1.525600 0.000000 
#    z 0.000000 0.000000 1.700810 
# 
# From -- ./inp_files/73267.got.cif
#   From: 2010.05.17/outbox.cif.g08.bks.cpg/sg65_37_cif.got.tgz:73267.got - 2010.06.03 17:01:31.
