data_PCOD9482308
_publ_section_title
;
Structure prediction by ZEFSAII (Michael W. Deem and Ramdas Pophale) SiO2 
 PCOD9482308
Probable space group: C M C A
;
_chemical_formula_sum "Si O2"
_cell_formula_units_Z 68
_cell_length_a 17.714045
_cell_length_b 8.435178
_cell_length_c 21.030546
_cell_angle_alpha 90.000000
_cell_angle_beta 90.000000
_cell_angle_gamma 90.000000
_cell_volume 3142.407794
_symmetry_space_group_name_H-M "C M C A"
_symmetry_group_IT_number 64
_symmetry_cell_setting 'orthorhombic'
loop_
_space_group_symop_operation_xyz
x,y,z
-x,1/2-y,1/2+z
x,-y,-z
-x,1/2+y,1/2-z
-x,-y,-z
x,1/2+y,1/2-z
-x,y,z
x,1/2-y,1/2+z
1/2+x,1/2+y,z
1/2-x,-y,1/2+z
1/2+x,1/2-y,-z
1/2-x,y,1/2-z
1/2-x,1/2-y,-z
1/2+x,y,1/2-z
1/2-x,1/2+y,z
1/2+x,-y,1/2+z
loop_
_atom_site_type_symbol
_atom_site_label
_atom_site_fract_x
_atom_site_fract_y
_atom_site_fract_z
Si Si1 0.500000 0.000000 0.000000
Si Si2 0.911459 0.918611 0.704237
Si Si3 0.820671 0.597346 0.699315
Si Si4 0.717181 0.072347 0.432922
Si Si5 0.362153 0.908104 0.081942
O O1 0.434104 0.902194 0.037683
O O2 0.856363 0.770581 0.692716
O O3 0.000000 0.877510 0.700272
O O4 0.886372 0.988601 0.771335
O O5 0.892176 0.053227 0.652452
O O6 0.750000 0.597070 0.750000
O O7 0.800774 0.526997 0.630739
O O8 0.686135 0.248290 0.423544
O O9 0.688680 0.000000 0.500000
O O10 0.807752 0.056150 0.435719
#
# Coordination Sequence:
#
# PCOD9482308 Si02
#       5
#     4  16  16  16  16
#     4  12  28  48  78 108 160 190 240 308 380 448
#     4  12  26  47  73 106 154 194 248 313 380 435
#     4  12  26  46  76 109 142 201 255 308 363 451
#     4  12  27  47  80 110 148 195 253 308 370 450
#     4  12  26  48  76 109 146 197 250 302 375 443
#
# _framework density 21.639458000000001
#
# number of rings (size 3 to 8) (size 9 to 14) (size 15 to 20)
#    0.000    0.000    4.706    4.941    3.294    0.000 
#    4.235    0.588    0.000    0.000    0.000    0.000 
#    0.000    0.000    0.000    0.000    0.000    0.000 
#
# Total GULP energy -189617.040622 kJ/mol
# GULP energy per Si atom -5576.971783 kJ/mol
# Density = 2.159021 g / cm^3
# Si number density = 21.639458 Si / 1000 Ang^3
#
#
#
# Elastic Constant Matrix: (Units=GPa)
#
#
# Indices 1 2 3 4 5 6 
#
# 1 164.1845 73.0176 48.4328 0.0000 0.0000 0.0000
# 2 73.0176 118.0618 50.6959 0.0000 0.0000 0.0000
# 3 48.4328 50.6959 139.6158 0.0000 0.0000 0.0000
# 4 0.0000 0.0000 0.0000 32.3768 0.0000 0.0000
# 5 0.0000 0.0000 0.0000 0.0000 17.4262 0.0000
# 6 0.0000 0.0000 0.0000 0.0000 0.0000 -0.0564
#
#
#
# Elastic Compliance Matrix: (Units=1/GPa)
#
#
# Indices 1 2 3 4 5 6 
#
# 1 0.008580 -0.004773 -0.001243 0.000000 0.000000 0.000000
# 2 -0.004773 0.012689 -0.002952 0.000000 0.000000 0.000000
# 3 -0.001243 -0.002952 0.008666 0.000000 0.000000 0.000000
# 4 0.000000 0.000000 0.000000 0.030886 0.000000 0.000000
# 5 0.000000 0.000000 0.000000 0.000000 0.057385 0.000000
# 6 0.000000 0.000000 0.000000 0.000000 0.000000-17.732847
#
#
# Mechanical properties :
#
#
# Convention : Reuss Voigt Hill
#
# Bulk Modulus (GPa) = 83.33941 85.12829 84.23385
# Shear Modulus (GPa) = -0.28421 26.59705 13.15642
#
# Velocity S-wave (km/s) = -0.36280 3.50966 2.46841
# Velocity P-wave (km/s) = 6.19845 7.47318 6.86546
#
# Compressibility (1/GPa) = 0.01199912
#
# Stress axis : x y z
#
# Youngs Moduli (GPa) = 116.55018 78.80585 115.39634
#
# Poissons Ratio (x) = 0.37610 0.14349
# Poissons Ratio (y) = 0.55624 0.34066
# Poissons Ratio (z) = 0.14492 0.23264
#
# Static dielectric constant tensor:
#      x y z
#    x 1.761880 0.000000 0.000000 
#    y 0.000000 1.792310 0.000000 
#    z 0.000000 0.000000 1.876170 
# 
# From -- ./inp_files/39875.got.cif
#   From: 2010.05.17/outbox.cif.g08.bks.cpg/sg64_20_cif.got.tgz:39875.got - 2010.06.03 16:29:19.
