data_PCOD9482382
_publ_section_title
;
Structure prediction by ZEFSAII (Michael W. Deem and Ramdas Pophale) SiO2 
 PCOD9482382
Probable space group: C M C A
;
_chemical_formula_sum "Si O2"
_cell_formula_units_Z 48
_cell_length_a 9.000000
_cell_length_b 24.000000
_cell_length_c 24.000000
_cell_angle_alpha 90.000000
_cell_angle_beta 90.000000
_cell_angle_gamma 90.000000
_cell_volume 5184.000000
_symmetry_space_group_name_H-M "C M C A"
_symmetry_group_IT_number 64
_symmetry_cell_setting 'orthorhombic'
loop_
_space_group_symop_operation_xyz
x,y,z
-x,1/2-y,1/2+z
x,-y,-z
-x,1/2+y,1/2-z
-x,-y,-z
x,1/2+y,1/2-z
-x,y,z
x,1/2-y,1/2+z
1/2+x,1/2+y,z
1/2-x,-y,1/2+z
1/2+x,1/2-y,-z
1/2-x,y,1/2-z
1/2-x,1/2-y,-z
1/2+x,y,1/2-z
1/2-x,1/2+y,z
1/2+x,-y,1/2+z
loop_
_atom_site_type_symbol
_atom_site_label
_atom_site_fract_x
_atom_site_fract_y
_atom_site_fract_z
Si Si1 0.325352 0.030600 0.055356
Si Si2 0.329088 0.348021 0.196803
Si Si3 0.334235 0.676911 0.527431
Si Si4 0.175124 0.749419 0.860773
Si Si5 0.324554 0.352867 0.921782
Si Si6 0.834052 0.418012 0.110883
O O1 0.500000 0.041693 0.045569
O O2 0.248854 0.087163 0.073599
O O3 0.315008 0.982970 0.102157
O O4 0.263673 0.000000 0.000000
O O5 0.500000 0.342181 0.206504
O O6 0.250000 0.372688 0.250000
O O7 0.260481 0.287900 0.182973
O O8 0.291112 0.389007 0.146553
O O9 0.500000 0.688304 0.505137
O O10 0.309568 0.715549 0.580857
O O11 0.215089 0.678886 0.479242
O O12 0.332917 0.614158 0.551903
O O13 0.228259 0.811884 0.872632
O O14 0.000000 0.749917 0.847689
O O15 0.500000 0.358378 0.916942
O O16 0.000000 0.405905 0.134355
#
# Coordination Sequence:
#
# PCOD9482382 Si02
#       6
#    16  16  16  16  16  16
#     4  10  19  34  52  71 104 151 187 212 254 309
#     4  11  22  37  60  84 104 129 167 217 272 321
#     4   9  16  30  49  68 100 143 180 211 252 309
#     4   9  20  36  50  71 105 140 173 214 264 312
#     4  11  21  30  46  74 108 142 178 219 257 299
#     4   9  18  34  54  76 105 140 179 219 259 306
#
# _framework density 9.2592590000000001
#
# number of rings (size 3 to 8) (size 9 to 14) (size 15 to 20)
#    0.000    2.167    1.667    3.500    0.000    5.000 
#    0.000    0.000    0.000    1.000    0.000    7.000 
#    0.000    0.000    0.000    0.000    0.000    0.000 
#
# Total GULP energy -267409.147829 kJ/mol
# GULP energy per Si atom -5571.023913 kJ/mol
# Density = 0.923818 g / cm^3
# Si number density = 9.259259 Si / 1000 Ang^3
#
#
#
# Elastic Constant Matrix: (Units=GPa)
#
#
# Indices 1 2 3 4 5 6 
#
# 1 38.7885 37.1501 19.2229 0.0000 0.0000 0.0000
# 2 37.1501 62.0879 8.8491 0.0000 0.0000 0.0000
# 3 19.2229 8.8491 26.6469 0.0000 0.0000 0.0000
# 4 0.0000 0.0000 0.0000 5.6464 0.0000 0.0000
# 5 0.0000 0.0000 0.0000 0.0000 15.4829 0.0000
# 6 0.0000 0.0000 0.0000 0.0000 0.0000 20.7592
#
#
#
# Elastic Compliance Matrix: (Units=1/GPa)
#
#
# Indices 1 2 3 4 5 6 
#
# 1 0.112132 -0.058325 -0.061522 0.000000 0.000000 0.000000
# 2 -0.058325 0.047244 0.026386 0.000000 0.000000 0.000000
# 3 -0.061522 0.026386 0.073147 0.000000 0.000000 0.000000
# 4 0.000000 0.000000 0.000000 0.177105 0.000000 0.000000
# 5 0.000000 0.000000 0.000000 0.000000 0.064587 0.000000
# 6 0.000000 0.000000 0.000000 0.000000 0.000000 0.048171
#
#
# Mechanical properties :
#
#
# Convention : Reuss Voigt Hill
#
# Bulk Modulus (GPa) = 21.92945 28.66305 25.29625
# Shear Modulus (GPa) = 6.90122 12.53110 9.71616
#
# Velocity S-wave (km/s) = 1.93255 2.60413 2.29306
# Velocity P-wave (km/s) = 4.10454 4.95516 4.54978
#
# Compressibility (1/GPa) = 0.04560077
#
# Stress axis : x y z
#
# Youngs Moduli (GPa) = 8.91807 21.16655 13.67113
#
# Poissons Ratio (x) = 1.23455 0.84107
# Poissons Ratio (y) = 0.52015 -0.36073
# Poissons Ratio (z) = 0.54866 -0.55850
#
# Static dielectric constant tensor:
#      x y z
#    x 1.620670 0.000000 0.000000 
#    y 0.000000 1.672710 0.000000 
#    z 0.000000 0.000000 1.756740 
# 
# From -- ./inp_files/43033.got.cif
#   From: 2010.05.17/outbox.ucp.g08.bks.cvg/sg64_22_cif.got.tgz:43033.got - 2010.06.11 16:36:46.
