data_PCOD9482326
_publ_section_title
;
Structure prediction by ZEFSAII (Michael W. Deem and Ramdas Pophale) SiO2 
 PCOD9482326
Probable space group: C M C A
;
_chemical_formula_sum "Si O2"
_cell_formula_units_Z 96
_cell_length_a 11.426523
_cell_length_b 22.249194
_cell_length_c 15.119713
_cell_angle_alpha 90.000000
_cell_angle_beta 90.000000
_cell_angle_gamma 90.000000
_cell_volume 3843.898652
_symmetry_space_group_name_H-M "C M C A"
_symmetry_group_IT_number 64
_symmetry_cell_setting 'orthorhombic'
loop_
_space_group_symop_operation_xyz
x,y,z
-x,1/2-y,1/2+z
x,-y,-z
-x,1/2+y,1/2-z
-x,-y,-z
x,1/2+y,1/2-z
-x,y,z
x,1/2-y,1/2+z
1/2+x,1/2+y,z
1/2-x,-y,1/2+z
1/2+x,1/2-y,-z
1/2-x,y,1/2-z
1/2-x,1/2-y,-z
1/2+x,y,1/2-z
1/2-x,1/2+y,z
1/2+x,-y,1/2+z
loop_
_atom_site_type_symbol
_atom_site_label
_atom_site_fract_x
_atom_site_fract_y
_atom_site_fract_z
Si Si1 0.873870 0.378747 0.284682
Si Si2 0.875353 0.174984 0.472697
Si Si3 0.124951 0.536730 0.092124
Si Si4 0.625934 0.733806 0.284105
Si Si5 0.374716 0.465279 0.905811
Si Si6 0.126926 0.149727 0.981043
O O1 0.750000 0.401228 0.250000
O O2 0.873083 0.305895 0.273324
O O3 0.874646 0.387818 0.390118
O O4 0.000000 0.399209 0.247679
O O5 0.875162 0.106521 0.436820
O O6 0.876097 0.216421 0.386687
O O7 0.751780 0.182756 0.521295
O O8 0.000000 0.182340 0.522595
O O9 0.248943 0.523306 0.137957
O O10 0.000000 0.524838 0.137195
O O11 0.125453 0.500000 0.000000
O O12 0.500000 0.711901 0.246131
O O13 0.750000 0.709475 0.250000
O O14 0.500000 0.477298 0.861315
O O15 0.375640 0.500000 0.000000
O O16 0.372874 0.395456 0.936366
O O17 0.000000 0.181724 0.983918
#
# Coordination Sequence:
#
# PCOD9482326 Si02
#       6
#    16  16  16  16  16  16
#     4   9  18  32  47  63  87 120 154 186 222 264
#     4   9  17  28  43  66  92 115 144 183 224 265
#     4   8  13  22  37  58  83 108 134 168 211 256
#     4   9  18  32  47  63  87 120 154 186 222 264
#     4   8  13  22  37  58  83 108 134 168 211 256
#     4   9  17  28  43  66  92 115 144 183 224 265
#
# _framework density 24.974643
#
# number of rings (size 3 to 8) (size 9 to 14) (size 15 to 20)
#    0.000    3.333    0.000    0.000    0.000    2.000 
#    0.000    0.000    0.000    0.000    0.000   18.667 
#    0.000  122.667    0.000    0.000    0.000    0.000 
#
# Total GULP energy -267490.140478 kJ/mol
# GULP energy per Si atom -5572.711260 kJ/mol
# Density = 2.491780 g / cm^3
# Si number density = 24.974643 Si / 1000 Ang^3
#
#
#
# Elastic Constant Matrix: (Units=GPa)
#
#
# Indices 1 2 3 4 5 6 
#
# 1 387.5542 28.8309 46.9964 0.0000 0.0000 0.0000
# 2 28.8309 72.4553 4.4438 0.0000 0.0000 0.0000
# 3 46.9964 4.4438 30.3394 0.0000 0.0000 0.0000
# 4 0.0000 0.0000 0.0000 19.3315 0.0000 0.0000
# 5 0.0000 0.0000 0.0000 0.0000 16.5277 0.0000
# 6 0.0000 0.0000 0.0000 0.0000 0.0000 -22.9169
#
#
#
# Elastic Compliance Matrix: (Units=1/GPa)
#
#
# Indices 1 2 3 4 5 6 
#
# 1 0.003246 -0.000992 -0.004883 0.000000 0.000000 0.000000
# 2 -0.000992 0.014230 -0.000547 0.000000 0.000000 0.000000
# 3 -0.004883 -0.000547 0.040605 0.000000 0.000000 0.000000
# 4 0.000000 0.000000 0.000000 0.051729 0.000000 0.000000
# 5 0.000000 0.000000 0.000000 0.000000 0.060505 0.000000
# 6 0.000000 0.000000 0.000000 0.000000 0.000000 -0.043636
#
#
# Mechanical properties :
#
#
# Convention : Reuss Voigt Hill
#
# Bulk Modulus (GPa) = 22.10647 72.32124 47.21385
# Shear Modulus (GPa) = 32.34097 29.92697 31.13397
#
# Velocity S-wave (km/s) = 3.60245 3.46539 3.53459
# Velocity P-wave (km/s) = 5.11608 6.71064 5.96687
#
# Compressibility (1/GPa) = 0.04523562
#
# Stress axis : x y z
#
# Youngs Moduli (GPa) = 308.04744 70.27411 24.62767
#
# Poissons Ratio (x) = 0.06973 0.12026
# Poissons Ratio (y) = 0.30565 0.01348
# Poissons Ratio (z) = 1.50425 0.03846
#
# Static dielectric constant tensor:
#      x y z
#    x 2.070010 0.000000 0.000000 
#    y 0.000000 1.994670 0.000000 
#    z 0.000000 0.000000 1.851430 
# 
# From -- ./inp_files/31076.got.cif
#   From: 2010.05.17/outbox.cif.g08.bks.cpg/sg64_16_cif.got.tgz:31076.got - 2010.06.03 16:29:19.
