data_PCOD9482689
_publ_section_title
;
Structure prediction by ZEFSAII (Michael W. Deem and Ramdas Pophale) SiO2 
 PCOD9482689
Probable space group: C M M M
;
_chemical_formula_sum "Si O2"
_cell_formula_units_Z 64
_cell_length_a 30.520715
_cell_length_b 14.408963
_cell_length_c 8.018025
_cell_angle_alpha 90.000000
_cell_angle_beta 90.000000
_cell_angle_gamma 90.000000
_cell_volume 3526.101713
_symmetry_space_group_name_H-M "C M M M"
_symmetry_group_IT_number 65
_symmetry_cell_setting 'orthorhombic'
loop_
_space_group_symop_operation_xyz
x,y,z
-x,-y,z
x,-y,-z
-x,y,-z
-x,-y,-z
x,y,-z
-x,y,z
x,-y,z
1/2+x,1/2+y,z
1/2-x,1/2-y,z
1/2+x,1/2-y,-z
1/2-x,1/2+y,-z
1/2-x,1/2-y,-z
1/2+x,1/2+y,-z
1/2-x,1/2+y,z
1/2+x,1/2-y,z
loop_
_atom_site_type_symbol
_atom_site_label
_atom_site_fract_x
_atom_site_fract_y
_atom_site_fract_z
Si Si1 0.378490 0.257607 0.801815
Si Si2 0.361675 0.607757 0.500000
Si Si3 0.449889 0.104284 0.797287
Si Si4 0.257570 0.637665 0.500000
Si Si5 0.216231 0.336504 0.179606
O O1 0.377740 0.340490 0.668150
O O2 0.416054 0.184295 0.752088
O O3 0.331653 0.205792 0.788604
O O4 0.383571 0.283210 0.000000
O O5 0.373876 0.500000 0.500000
O O6 0.308663 0.616201 0.500000
O O7 0.500000 0.122153 0.743614
O O8 0.437428 0.000000 0.741575
O O9 0.450017 0.102360 0.000000
O O10 0.250000 0.750000 0.500000
O O11 0.233793 0.605331 0.666687
O O12 0.250000 0.250000 0.166697
O O13 0.215776 0.384070 0.000000
#
# Coordination Sequence:
#
# PCOD9482689 Si02
#       5
#    16   8  16   8  16
#     4  10  19  34  57  79 109 149 182 219 275 331
#     4  12  24  36  52  76 107 148 196 234 268 317
#     4   8  15  31  58  90 117 140 172 218 276 342
#     4  10  16  32  52  66  97 136 173 224 279 309
#     4   9  15  26  50  74  97 133 172 214 261 312
#
# _framework density 18.150357
#
# number of rings (size 3 to 8) (size 9 to 14) (size 15 to 20)
#    0.000    2.500    5.000    0.750    0.000    0.500 
#    0.000    2.500    0.000    4.500    0.000    3.500 
#    0.000    0.000    0.000    0.000    0.000    0.000 
#
# Total GULP energy -178241.235806 kJ/mol
# GULP energy per Si atom -5570.038619 kJ/mol
# Density = 1.810905 g / cm^3
# Si number density = 18.150357 Si / 1000 Ang^3
#
#
#
# Elastic Constant Matrix: (Units=GPa)
#
#
# Indices 1 2 3 4 5 6 
#
# 1 99.3662 69.3839 38.7149 0.0000 0.0000 0.0000
# 2 69.3839 127.7111 66.7816 0.0000 0.0000 0.0000
# 3 38.7149 66.7816 130.8964 0.0000 0.0000 0.0000
# 4 0.0000 0.0000 0.0000 7.0412 0.0000 0.0000
# 5 0.0000 0.0000 0.0000 0.0000 33.5421 0.0000
# 6 0.0000 0.0000 0.0000 0.0000 0.0000 11.6537
#
#
#
# Elastic Compliance Matrix: (Units=1/GPa)
#
#
# Indices 1 2 3 4 5 6 
#
# 1 0.016231 -0.008603 -0.000412 0.000000 0.000000 0.000000
# 2 -0.008603 0.015239 -0.005230 0.000000 0.000000 0.000000
# 3 -0.000412 -0.005230 0.010430 0.000000 0.000000 0.000000
# 4 0.000000 0.000000 0.000000 0.142020 0.000000 0.000000
# 5 0.000000 0.000000 0.000000 0.000000 0.029813 0.000000
# 6 0.000000 0.000000 0.000000 0.000000 0.000000 0.085810
#
#
# Mechanical properties :
#
#
# Convention : Reuss Voigt Hill
#
# Bulk Modulus (GPa) = 74.56881 78.63716 76.60299
# Shear Modulus (GPa) = 15.03744 22.65365 18.84554
#
# Velocity S-wave (km/s) = 2.88148 3.53669 3.22576
# Velocity P-wave (km/s) = 7.22798 7.75223 7.49469
#
# Compressibility (1/GPa) = 0.01341043
#
# Stress axis : x y z
#
# Youngs Moduli (GPa) = 61.60908 65.62063 95.87957
#
# Poissons Ratio (x) = 0.56454 0.03946
# Poissons Ratio (y) = 0.53003 0.50148
# Poissons Ratio (z) = 0.02535 0.34321
#
# Static dielectric constant tensor:
#      x y z
#    x 1.596800 0.000000 0.000000 
#    y 0.000000 1.602140 0.000000 
#    z 0.000000 0.000000 1.743000 
# 
# From -- ./inp_files/15639.got.cif
#   From: 2010.05.17/outbox.cif.g08.bks.cpg/sg65_8_cif.got.tgz:15639.got - 2010.06.03 17:01:31.
