data_PCOD9482774
_publ_section_title
;
Structure prediction by ZEFSAII (Michael W. Deem and Ramdas Pophale) SiO2 
 PCOD9482774
Probable space group: C M M M
;
_chemical_formula_sum "Si O2"
_cell_formula_units_Z 112
_cell_length_a 23.057611
_cell_length_b 16.916005
_cell_length_c 18.210549
_cell_angle_alpha 90.000000
_cell_angle_beta 90.000000
_cell_angle_gamma 90.000000
_cell_volume 7102.891026
_symmetry_space_group_name_H-M "C M M M"
_symmetry_group_IT_number 65
_symmetry_cell_setting 'orthorhombic'
loop_
_space_group_symop_operation_xyz
x,y,z
-x,-y,z
x,-y,-z
-x,y,-z
-x,-y,-z
x,y,-z
-x,y,z
x,-y,z
1/2+x,1/2+y,z
1/2-x,1/2-y,z
1/2+x,1/2-y,-z
1/2-x,1/2+y,-z
1/2-x,1/2-y,-z
1/2+x,1/2+y,-z
1/2-x,1/2+y,z
1/2+x,1/2-y,z
loop_
_atom_site_type_symbol
_atom_site_label
_atom_site_fract_x
_atom_site_fract_y
_atom_site_fract_z
Si Si1 0.260215 0.090403 0.087109
Si Si2 0.888431 0.410641 0.843372
Si Si3 0.674162 0.163959 0.282268
Si Si4 0.066270 0.255433 0.086694
Si Si5 0.198540 0.907964 0.312964
Si Si6 0.331603 0.316908 0.179282
Si Si7 0.180802 0.767132 0.416991
O O1 0.325754 0.095670 0.116359
O O2 0.219455 0.153540 0.126419
O O3 0.240414 0.000000 0.103490
O O4 0.259666 0.101526 0.000000
O O5 0.909815 0.500000 0.851281
O O6 0.872753 0.389794 0.758990
O O7 0.927353 0.343511 0.879841
O O8 0.735063 0.118652 0.293629
O O9 0.682726 0.238653 0.227269
O O10 0.656340 0.202540 0.359841
O O11 0.112219 0.202914 0.131233
O O12 0.000000 0.228533 0.095388
O O13 0.080246 0.256880 0.000000
O O14 0.162130 0.884620 0.240762
O O15 0.176581 0.852867 0.379244
O O16 0.197028 0.000000 0.329104
O O17 0.158637 0.763363 0.500000
O O18 0.250000 0.750000 0.418968
#
# Coordination Sequence:
#
# PCOD9482774 Si02
#       7
#    16  16  16  16  16  16  16
#     4  10  19  28  43  70  95 114 141 184 238 286
#     4  10  19  31  47  68  94 119 147 186 231 279
#     4   9  17  27  43  65  92 122 151 181 222 269
#     4  10  22  36  48  63  85 120 163 198 230 271
#     4  10  17  26  43  66  92 120 150 184 228 274
#     4  10  18  30  47  65  89 119 151 192 232 271
#     4   8  15  26  39  59  91 129 161 180 201 249
#
# _framework density 15.768227
#
# number of rings (size 3 to 8) (size 9 to 14) (size 15 to 20)
#    0.000    2.429    1.429    3.000    2.000    1.429 
#    0.000    2.857    0.000    3.000    0.000    5.000 
#    0.000   46.286    0.000   23.143    0.000    0.000 
#
# Total GULP energy -312105.976572 kJ/mol
# GULP energy per Si atom -5573.321010 kJ/mol
# Density = 1.573234 g / cm^3
# Si number density = 15.768227 Si / 1000 Ang^3
#
#
#
# Elastic Constant Matrix: (Units=GPa)
#
#
# Indices 1 2 3 4 5 6 
#
# 1 35.6959 14.3304 25.9884 0.0000 0.0000 0.0000
# 2 14.3304 70.3238 35.2545 0.0000 0.0000 0.0000
# 3 25.9884 35.2545 115.0666 0.0000 0.0000 0.0000
# 4 0.0000 0.0000 0.0000 14.1470 0.0000 0.0000
# 5 0.0000 0.0000 0.0000 0.0000 10.2104 0.0000
# 6 0.0000 0.0000 0.0000 0.0000 0.0000 9.4411
#
#
#
# Elastic Compliance Matrix: (Units=1/GPa)
#
#
# Indices 1 2 3 4 5 6 
#
# 1 0.034311 -0.003671 -0.006625 0.000000 0.000000 0.000000
# 2 -0.003671 0.017193 -0.004439 0.000000 0.000000 0.000000
# 3 -0.006625 -0.004439 0.011547 0.000000 0.000000 0.000000
# 4 0.000000 0.000000 0.000000 0.070686 0.000000 0.000000
# 5 0.000000 0.000000 0.000000 0.000000 0.097939 0.000000
# 6 0.000000 0.000000 0.000000 0.000000 0.000000 0.105920
#
#
# Mechanical properties :
#
#
# Convention : Reuss Voigt Hill
#
# Bulk Modulus (GPa) = 29.77708 41.35921 35.56815
# Shear Modulus (GPa) = 13.21846 16.46058 14.83952
#
# Velocity S-wave (km/s) = 2.89848 3.23446 3.07107
# Velocity P-wave (km/s) = 5.48879 6.34314 5.93136
#
# Compressibility (1/GPa) = 0.03358287
#
# Stress axis : x y z
#
# Youngs Moduli (GPa) = 29.14504 58.16287 86.60432
#
# Poissons Ratio (x) = 0.21350 0.57373
# Poissons Ratio (y) = 0.10698 0.38440
# Poissons Ratio (z) = 0.19308 0.25816
#
# Static dielectric constant tensor:
#      x y z
#    x 1.507330 0.000000 0.000000 
#    y 0.000000 1.557890 0.000000 
#    z 0.000000 0.000000 1.549110 
# 
# From -- ./inp_files/56964.got.cif
#   From: 2010.05.17/outbox.cif.g08.bks.cpg/sg65_29_cif.got.tgz:56964.got - 2010.06.03 17:01:31.
