data_PCOD9482317
_publ_section_title
;
Structure prediction by ZEFSAII (Michael W. Deem and Ramdas Pophale) SiO2 
 PCOD9482317
Probable space group: C M C A
;
_chemical_formula_sum "Si O2"
_cell_formula_units_Z 64
_cell_length_a 10.564808
_cell_length_b 9.495593
_cell_length_c 21.711354
_cell_angle_alpha 90.000000
_cell_angle_beta 90.000000
_cell_angle_gamma 90.000000
_cell_volume 2178.063860
_symmetry_space_group_name_H-M "C M C A"
_symmetry_group_IT_number 64
_symmetry_cell_setting 'orthorhombic'
loop_
_space_group_symop_operation_xyz
x,y,z
-x,1/2-y,1/2+z
x,-y,-z
-x,1/2+y,1/2-z
-x,-y,-z
x,1/2+y,1/2-z
-x,y,z
x,1/2-y,1/2+z
1/2+x,1/2+y,z
1/2-x,-y,1/2+z
1/2+x,1/2-y,-z
1/2-x,y,1/2-z
1/2-x,1/2-y,-z
1/2+x,y,1/2-z
1/2-x,1/2+y,z
1/2+x,-y,1/2+z
loop_
_atom_site_type_symbol
_atom_site_label
_atom_site_fract_x
_atom_site_fract_y
_atom_site_fract_z
Si Si1 0.000000 0.160576 0.603902
Si Si2 0.216075 0.940270 0.562417
Si Si3 0.000000 0.719594 0.520737
Si Si4 0.500000 0.099179 0.641764
Si Si5 0.000000 0.027484 0.723129
Si Si6 0.788034 0.185433 0.317253
O O1 0.000000 0.282559 0.552931
O O2 0.000000 0.167793 0.679136
O O3 0.878031 0.063912 0.586148
O O4 0.286633 0.877951 0.623316
O O5 0.121580 0.816963 0.538873
O O6 0.279076 0.000000 0.500000
O O7 0.000000 0.590378 0.568301
O O8 0.500000 0.009879 0.703689
O O9 0.376119 0.194223 0.655140
O O10 0.877460 0.943608 0.701791
O O11 0.750000 0.240923 0.250000
#
# Coordination Sequence:
#
# PCOD9482317 Si02
#       6
#     8  16   8   8   8  16
#     4   7  10  19  37  59  79  99 129 171 210 237
#     4   7  10  19  37  59  79  99 129 171 210 237
#     4   7  10  19  37  59  79  99 129 171 210 237
#     4   9  17  28  43  64  87 110 137 169 206 248
#     4   9  17  28  43  64  87 110 137 169 206 248
#     4   9  17  28  43  64  87 110 137 169 206 248
#
# _framework density 29.383897000000001
#
# number of rings (size 3 to 8) (size 9 to 14) (size 15 to 20)
#    0.000    4.000    0.000    4.500    0.000    1.000 
#    0.000    0.000    0.000    3.000    0.000   17.500 
#    0.000    0.000    0.000    0.000    0.000    0.000 
#
# Total GULP energy -178649.227634 kJ/mol
# GULP energy per Si atom -5582.788364 kJ/mol
# Density = 2.931702 g / cm^3
# Si number density = 29.383897 Si / 1000 Ang^3
#
#
#
# Elastic Constant Matrix: (Units=GPa)
#
#
# Indices 1 2 3 4 5 6 
#
# 1 47.3356 17.9518 133.7799 0.0000 0.0000 0.0000
# 2 17.9518 96.6444 31.0609 0.0000 0.0000 0.0000
# 3 133.7799 31.0609 153.2971 0.0000 0.0000 0.0000
# 4 0.0000 0.0000 0.0000 40.1072 0.0000 0.0000
# 5 0.0000 0.0000 0.0000 0.0000 85.0484 0.0000
# 6 0.0000 0.0000 0.0000 0.0000 0.0000 9.2345
#
#
#
# Elastic Compliance Matrix: (Units=1/GPa)
#
#
# Indices 1 2 3 4 5 6 
#
# 1 -0.014217 -0.001440 0.012699 0.000000 0.000000 0.000000
# 2 -0.001440 0.010922 -0.000956 0.000000 0.000000 0.000000
# 3 0.012699 -0.000956 -0.004365 0.000000 0.000000 0.000000
# 4 0.000000 0.000000 0.000000 0.024933 0.000000 0.000000
# 5 0.000000 0.000000 0.000000 0.000000 0.011758 0.000000
# 6 0.000000 0.000000 0.000000 0.000000 0.000000 0.108289
#
#
# Mechanical properties :
#
#
# Convention : Reuss Voigt Hill
#
# Bulk Modulus (GPa) = 77.25134 73.65135 75.45135
# Shear Modulus (GPa) = 41.31154 34.51032 37.91093
#
# Velocity S-wave (km/s) = 3.75363 3.43076 3.59582
# Velocity P-wave (km/s) = 6.71817 6.38852 6.55541
#
# Compressibility (1/GPa) = 0.01294476
#
# Stress axis : x y z
#
# Youngs Moduli (GPa) = -70.33958 91.55824 -229.10081
#
# Poissons Ratio (x) = 0.13189 2.90926
# Poissons Ratio (y) = -0.10132 -0.21900
# Poissons Ratio (z) = 0.89321 0.08752
#
# Static dielectric constant tensor:
#      x y z
#    x 2.304780 0.000000 0.000000 
#    y 0.000000 2.301790 0.000000 
#    z 0.000000 0.000000 2.423990 
# 
# From -- ./inp_files/12976.got.cif
#   From: 2010.05.17/outbox.cif.g08.bks.cpg/sg64_7_cif.got.tgz:12976.got - 2010.06.03 16:29:19.
