data_PCOD9482688
_publ_section_title
;
Structure prediction by ZEFSAII (Michael W. Deem and Ramdas Pophale) SiO2 
 PCOD9482688
Probable space group: C M M M
;
_chemical_formula_sum "Si O2"
_cell_formula_units_Z 72
_cell_length_a 32.044478
_cell_length_b 14.755147
_cell_length_c 8.275288
_cell_angle_alpha 90.000000
_cell_angle_beta 90.000000
_cell_angle_gamma 90.000000
_cell_volume 3912.729810
_symmetry_space_group_name_H-M "C M M M"
_symmetry_group_IT_number 65
_symmetry_cell_setting 'orthorhombic'
loop_
_space_group_symop_operation_xyz
x,y,z
-x,-y,z
x,-y,-z
-x,y,-z
-x,-y,-z
x,y,-z
-x,y,z
x,-y,z
1/2+x,1/2+y,z
1/2-x,1/2-y,z
1/2+x,1/2-y,-z
1/2-x,1/2+y,-z
1/2-x,1/2-y,-z
1/2+x,1/2+y,-z
1/2-x,1/2+y,z
1/2+x,1/2-y,z
loop_
_atom_site_type_symbol
_atom_site_label
_atom_site_fract_x
_atom_site_fract_y
_atom_site_fract_z
Si Si1 0.049782 0.000000 0.181329
Si Si2 0.783910 0.332908 0.174122
Si Si3 0.154324 0.102379 0.500000
Si Si4 0.132497 0.781752 0.182885
Si Si5 0.251067 0.138885 0.500000
Si Si6 0.451809 0.299970 0.308095
O O1 0.057971 0.906065 0.271541
O O2 0.000000 0.000000 0.164698
O O3 0.068090 0.000000 0.000000
O O4 0.750000 0.250000 0.170243
O O5 0.830127 0.290855 0.188515
O O6 0.773489 0.387440 0.334674
O O7 0.780024 0.379406 0.000000
O O8 0.141543 0.153111 0.664741
O O9 0.204322 0.104367 0.500000
O O10 0.138514 0.000000 0.500000
O O11 0.085176 0.748263 0.215341
O O12 0.134255 0.821167 0.000000
O O13 0.250000 0.250000 0.500000
O O14 0.449184 0.284593 0.500000
O O15 0.500000 0.282914 0.257500
#
# Coordination Sequence:
#
# PCOD9482688 Si02
#       6
#     8  16   8  16   8  16
#     4   9  17  29  41  51  67 101 145 180 215 259
#     4   9  16  28  49  69  81 102 143 181 210 257
#     4  12  24  34  45  69  94 112 143 185 229 266
#     4  11  21  33  48  64  85 115 147 186 228 259
#     4  10  16  32  52  62  84 117 135 173 217 258
#     4  10  20  31  42  56  78 108 144 183 221 260
#
# _framework density 18.401475000000001
#
# number of rings (size 3 to 8) (size 9 to 14) (size 15 to 20)
#    0.000    1.889    5.556    1.000    1.556    3.111 
#    0.000    0.000    0.000    0.000    0.000    0.000 
#    0.000    0.000    0.000    0.000    0.000    2.222 
#
# Total GULP energy -200481.055662 kJ/mol
# GULP energy per Si atom -5568.918213 kJ/mol
# Density = 1.835959 g / cm^3
# Si number density = 18.401475 Si / 1000 Ang^3
#
#
#
# Elastic Constant Matrix: (Units=GPa)
#
#
# Indices 1 2 3 4 5 6 
#
# 1 152.6025 9.0491 46.7171 0.0000 0.0000 0.0000
# 2 9.0491 14.4612 11.8740 0.0000 0.0000 0.0000
# 3 46.7171 11.8740 187.5788 0.0000 0.0000 0.0000
# 4 0.0000 0.0000 0.0000 -7.0198 0.0000 0.0000
# 5 0.0000 0.0000 0.0000 0.0000 -32.5519 0.0000
# 6 0.0000 0.0000 0.0000 0.0000 0.0000 16.6598
#
#
#
# Elastic Compliance Matrix: (Units=1/GPa)
#
#
# Indices 1 2 3 4 5 6 
#
# 1 0.007233 -0.003214 -0.001598 0.000000 0.000000 0.000000
# 2 -0.003214 0.074370 -0.003907 0.000000 0.000000 0.000000
# 3 -0.001598 -0.003907 0.005976 0.000000 0.000000 0.000000
# 4 0.000000 0.000000 0.000000 -0.142455 0.000000 0.000000
# 5 0.000000 0.000000 0.000000 0.000000 -0.030720 0.000000
# 6 0.000000 0.000000 0.000000 0.000000 0.000000 0.060025
#
#
# Mechanical properties :
#
#
# Convention : Reuss Voigt Hill
#
# Bulk Modulus (GPa) = 14.25699 54.43588 34.34644
# Shear Modulus (GPa) = 327.93319 14.55113 171.24216
#
# Velocity S-wave (km/s) = 13.36402 2.81509 9.65717
# Velocity P-wave (km/s) = 15.68101 6.34136 11.96050
#
# Compressibility (1/GPa) = 0.07014102
#
# Stress axis : x y z
#
# Youngs Moduli (GPa) = 138.26064 13.44628 167.32505
#
# Poissons Ratio (x) = 0.04321 0.26737
# Poissons Ratio (y) = 0.44435 0.65379
# Poissons Ratio (z) = 0.22093 0.05254
#
# Static dielectric constant tensor:
#      x y z
#    x 1.688040 0.000000 0.000000 
#    y 0.000000 1.626070 0.000000 
#    z 0.000000 0.000000 1.698090 
# 
# From -- ./inp_files/16220.got.cif
#   From: 2010.05.17/outbox.cif.g08.bks.cpg/sg65_9_cif.got.tgz:16220.got - 2010.06.03 17:01:31.
