data_PCOD9482480
_publ_section_title
;
Structure prediction by ZEFSAII (Michael W. Deem and Ramdas Pophale) SiO2 
 PCOD9482480
Probable space group: C M C A
;
_chemical_formula_sum "Si O2"
_cell_formula_units_Z 56
_cell_length_a 12.000000
_cell_length_b 15.000000
_cell_length_c 30.000000
_cell_angle_alpha 90.000000
_cell_angle_beta 90.000000
_cell_angle_gamma 90.000000
_cell_volume 5400.000000
_symmetry_space_group_name_H-M "C M C A"
_symmetry_group_IT_number 64
_symmetry_cell_setting 'orthorhombic'
loop_
_space_group_symop_operation_xyz
x,y,z
-x,1/2-y,1/2+z
x,-y,-z
-x,1/2+y,1/2-z
-x,-y,-z
x,1/2+y,1/2-z
-x,y,z
x,1/2-y,1/2+z
1/2+x,1/2+y,z
1/2-x,-y,1/2+z
1/2+x,1/2-y,-z
1/2-x,y,1/2-z
1/2-x,1/2-y,-z
1/2+x,y,1/2-z
1/2-x,1/2+y,z
1/2+x,-y,1/2+z
loop_
_atom_site_type_symbol
_atom_site_label
_atom_site_fract_x
_atom_site_fract_y
_atom_site_fract_z
Si Si1 0.273998 0.596822 0.988748
Si Si2 0.376499 0.262396 0.358417
Si Si3 0.624847 0.423212 0.729635
Si Si4 0.133114 0.557745 0.906427
Si Si5 0.818063 0.368107 0.865928
Si Si6 0.876952 0.136724 0.733635
Si Si7 0.376750 0.724100 0.452730
O O1 0.174117 0.565545 0.956597
O O2 0.347258 0.673005 0.963855
O O3 0.329008 0.500000 0.000000
O O4 0.216242 0.656456 0.027339
O O5 0.500000 0.244838 0.376343
O O6 0.330319 0.348951 0.384338
O O7 0.303262 0.175042 0.361384
O O8 0.383941 0.298919 0.308580
O O9 0.500000 0.403535 0.750815
O O10 0.750000 0.404102 0.750000
O O11 0.627230 0.373718 0.682410
O O12 0.624201 0.530766 0.722406
O O13 0.182494 0.468943 0.884400
O O14 0.000000 0.550864 0.901973
O O15 0.877158 0.302668 0.900952
O O16 0.750000 0.153985 0.750000
O O17 0.000000 0.149360 0.757615
O O18 0.500000 0.705114 0.471568
#
# Coordination Sequence:
#
# PCOD9482480 Si02
#       7
#    16  16  16  16  16  16  16
#     4  11  23  40  63  92 127 165 209 259 312 375
#     4  10  22  40  62  88 123 163 207 256 314 379
#     4  10  21  38  64  94 127 167 214 266 324 385
#     4  11  21  39  64  89 123 168 210 254 310 371
#     4  12  22  38  66  96 125 162 217 265 315 373
#     4   9  18  37  63  90 122 165 211 263 321 387
#     4  11  24  40  61  94 128 162 212 266 312 372
#
# _framework density 10.370369999999999
#
# number of rings (size 3 to 8) (size 9 to 14) (size 15 to 20)
#    0.000    1.429    4.286    1.714    0.000    2.000 
#    0.000    4.286    0.000    0.000    0.000    0.000 
#    0.000    0.000    0.000    0.000    0.000    0.000 
#
# Total GULP energy -311851.279534 kJ/mol
# GULP energy per Si atom -5568.772849 kJ/mol
# Density = 1.034677 g / cm^3
# Si number density = 10.370370 Si / 1000 Ang^3
#
#
#
# Elastic Constant Matrix: (Units=GPa)
#
#
# Indices 1 2 3 4 5 6 
#
# 1 116.0712 17.3482 34.8271 0.0000 0.0000 0.0000
# 2 17.3482 65.3338 16.0726 0.0000 0.0000 0.0000
# 3 34.8271 16.0726 54.6500 0.0000 0.0000 0.0000
# 4 0.0000 0.0000 0.0000 23.5838 0.0000 0.0000
# 5 0.0000 0.0000 0.0000 0.0000 -56.3475 0.0000
# 6 0.0000 0.0000 0.0000 0.0000 0.0000 22.5462
#
#
#
# Elastic Compliance Matrix: (Units=1/GPa)
#
#
# Indices 1 2 3 4 5 6 
#
# 1 0.010748 -0.001260 -0.006479 0.000000 0.000000 0.000000
# 2 -0.001260 0.016648 -0.004093 0.000000 0.000000 0.000000
# 3 -0.006479 -0.004093 0.023631 0.000000 0.000000 0.000000
# 4 0.000000 0.000000 0.000000 0.042402 0.000000 0.000000
# 5 0.000000 0.000000 0.000000 0.000000 -0.017747 0.000000
# 6 0.000000 0.000000 0.000000 0.000000 0.000000 0.044353
#
#
# Mechanical properties :
#
#
# Convention : Reuss Voigt Hill
#
# Bulk Modulus (GPa) = 36.54650 41.39454 38.97052
# Shear Modulus (GPa) = 32.71859 9.14364 20.93112
#
# Velocity S-wave (km/s) = 3.97609 2.10193 3.18020
# Velocity P-wave (km/s) = 6.22398 5.08844 5.68464
#
# Compressibility (1/GPa) = 0.02736240
#
# Stress axis : x y z
#
# Youngs Moduli (GPa) = 93.04369 60.06901 42.31788
#
# Poissons Ratio (x) = 0.07569 0.27416
# Poissons Ratio (y) = 0.11724 0.17321
# Poissons Ratio (z) = 0.60279 0.24587
#
# Static dielectric constant tensor:
#      x y z
#    x 1.812810 0.000000 0.000000 
#    y 0.000000 1.725260 0.000000 
#    z 0.000000 0.000000 1.811950 
# 
# From -- ./inp_files/52823.got.cif
#   From: 2010.05.17/outbox.ucp.g08.bks.cvg/sg64_27_cif.got.tgz:52823.got - 2010.06.11 16:36:46.
