data_PCOD9482050
_publ_section_title
;
Structure prediction by ZEFSAII (Michael W. Deem and Ramdas Pophale) SiO2 
 PCOD9482050
Probable space group: C M C A
;
_chemical_formula_sum "Si O2"
_cell_formula_units_Z 64
_cell_length_a 8.932258
_cell_length_b 11.207471
_cell_length_c 24.599060
_cell_angle_alpha 90.000000
_cell_angle_beta 90.000000
_cell_angle_gamma 90.000000
_cell_volume 2462.563252
_symmetry_space_group_name_H-M "C M C A"
_symmetry_group_IT_number 64
_symmetry_cell_setting 'orthorhombic'
loop_
_space_group_symop_operation_xyz
x,y,z
-x,1/2-y,1/2+z
x,-y,-z
-x,1/2+y,1/2-z
-x,-y,-z
x,1/2+y,1/2-z
-x,y,z
x,1/2-y,1/2+z
1/2+x,1/2+y,z
1/2-x,-y,1/2+z
1/2+x,1/2-y,-z
1/2-x,y,1/2-z
1/2-x,1/2-y,-z
1/2+x,y,1/2-z
1/2-x,1/2+y,z
1/2+x,-y,1/2+z
loop_
_atom_site_type_symbol
_atom_site_label
_atom_site_fract_x
_atom_site_fract_y
_atom_site_fract_z
Si Si1 0.500000 0.850352 0.591355
Si Si2 0.719419 0.328979 0.192306
Si Si3 0.500000 0.544472 0.211936
Si Si4 0.000000 0.141206 0.336445
Si Si5 0.182959 0.869240 0.529534
Si Si6 0.000000 0.894282 0.375930
O O1 0.335021 0.894227 0.569676
O O2 0.500000 0.707353 0.579849
O O3 0.500000 0.874117 0.657631
O O4 0.750000 0.269043 0.250000
O O5 0.633801 0.450159 0.205765
O O6 0.636349 0.231106 0.157080
O O7 0.860058 0.368171 0.160621
O O8 0.500000 0.597935 0.272912
O O9 0.000000 0.034845 0.378543
O O10 0.250000 0.750000 0.500000
O O11 0.000000 0.838004 0.538582
O O12 0.175572 0.000000 0.500000
#
# Coordination Sequence:
#
# PCOD9482050 Si02
#       6
#     8  16   8   8  16   8
#     4  12  28  49  81 128 163 202 276 338 398 497
#     4  11  23  45  68  96 139 215 266 318 389 449
#     4  11  25  45  70 103 154 202 264 334 377 464
#     4  11  25  46  72  92 154 215 269 315 395 448
#     4  11  26  56  93 123 163 214 256 332 436 519
#     4  12  27  44  68 109 150 195 269 326 381 459
#
# _framework density 25.989180999999999
#
# number of rings (size 3 to 8) (size 9 to 14) (size 15 to 20)
#    0.000    0.750    3.750    2.625    7.000    2.000 
#    6.750    0.000    0.000    0.000    0.000    0.000 
#    0.000    0.000    0.000    0.000    0.000    0.000 
#
# Total GULP energy -178287.154245 kJ/mol
# GULP energy per Si atom -5571.473570 kJ/mol
# Density = 2.593003 g / cm^3
# Si number density = 25.989181 Si / 1000 Ang^3
#
#
#
# Elastic Constant Matrix: (Units=GPa)
#
#
# Indices 1 2 3 4 5 6 
#
# 1 233.7014 67.4939 57.8541 0.0000 0.0000 0.0000
# 2 67.4939 164.0782 24.3997 0.0000 0.0000 0.0000
# 3 57.8541 24.3997 81.3577 0.0000 0.0000 0.0000
# 4 0.0000 0.0000 0.0000 55.9900 0.0000 0.0000
# 5 0.0000 0.0000 0.0000 0.0000 52.4474 0.0000
# 6 0.0000 0.0000 0.0000 0.0000 0.0000 219.8000
#
#
#
# Elastic Compliance Matrix: (Units=1/GPa)
#
#
# Indices 1 2 3 4 5 6 
#
# 1 0.005665 -0.001812 -0.003485 0.000000 0.000000 0.000000
# 2 -0.001812 0.006959 -0.000798 0.000000 0.000000 0.000000
# 3 -0.003485 -0.000798 0.015009 0.000000 0.000000 0.000000
# 4 0.000000 0.000000 0.000000 0.017860 0.000000 0.000000
# 5 0.000000 0.000000 0.000000 0.000000 0.019067 0.000000
# 6 0.000000 0.000000 0.000000 0.000000 0.000000 0.004550
#
#
# Mechanical properties :
#
#
# Convention : Reuss Voigt Hill
#
# Bulk Modulus (GPa) = 64.75879 86.51474 75.63676
# Shear Modulus (GPa) = 57.83839 87.60678 72.72259
#
# Velocity S-wave (km/s) = 4.72262 5.81224 5.29553
# Velocity P-wave (km/s) = 7.39656 8.85459 8.15822
#
# Compressibility (1/GPa) = 0.01544192
#
# Stress axis : x y z
#
# Youngs Moduli (GPa) = 176.52162 143.70322 66.62649
#
# Poissons Ratio (x) = 0.26040 0.23219
# Poissons Ratio (y) = 0.31987 0.05319
# Poissons Ratio (z) = 0.61518 0.11473
#
# Static dielectric constant tensor:
#      x y z
#    x 2.096720 0.000000 0.000000 
#    y 0.000000 1.981900 0.000000 
#    z 0.000000 0.000000 2.158810 
# 
# From -- ./inp_files/51590.got.cif
#   From: 2010.05.17/outbox.cif.g08.bks.cpg/sg64_26_cif.got.tgz:51590.got - 2010.06.03 16:29:19.
