data_PCOD9482909
_publ_section_title
;
Structure prediction by ZEFSAII (Michael W. Deem and Ramdas Pophale) SiO2 
 PCOD9482909
Probable space group: C M M M
;
_chemical_formula_sum "Si O2"
_cell_formula_units_Z 120
_cell_length_a 27.509881
_cell_length_b 16.262873
_cell_length_c 14.053974
_cell_angle_alpha 90.000000
_cell_angle_beta 90.000000
_cell_angle_gamma 90.000000
_cell_volume 6287.603225
_symmetry_space_group_name_H-M "C M M M"
_symmetry_group_IT_number 65
_symmetry_cell_setting 'orthorhombic'
loop_
_space_group_symop_operation_xyz
x,y,z
-x,-y,z
x,-y,-z
-x,y,-z
-x,-y,-z
x,y,-z
-x,y,z
x,-y,z
1/2+x,1/2+y,z
1/2-x,1/2-y,z
1/2+x,1/2-y,-z
1/2-x,1/2+y,-z
1/2-x,1/2-y,-z
1/2+x,1/2+y,-z
1/2-x,1/2+y,z
1/2+x,1/2-y,z
loop_
_atom_site_type_symbol
_atom_site_label
_atom_site_fract_x
_atom_site_fract_y
_atom_site_fract_z
Si Si1 0.129265 0.343948 0.393600
Si Si2 0.557107 0.599710 0.000000
Si Si3 0.821399 0.589855 0.789898
Si Si4 0.295940 0.589750 0.230164
Si Si5 0.793769 0.802432 0.606398
Si Si6 0.809214 0.756293 0.892842
Si Si7 0.940672 0.903807 0.212090
Si Si8 0.058244 0.791323 0.390647
O O1 0.131014 0.380360 0.500000
O O2 0.151302 0.399241 0.310682
O O3 0.162940 0.262101 0.394876
O O4 0.077337 0.301769 0.375114
O O5 0.575675 0.624556 0.894408
O O6 0.559895 0.500000 0.000000
O O7 0.500000 0.622254 0.000000
O O8 0.834323 0.500000 0.831353
O O9 0.762816 0.589464 0.778291
O O10 0.830688 0.672368 0.849942
O O11 0.313558 0.500000 0.202817
O O12 0.305601 0.615819 0.337846
O O13 0.317991 0.663335 0.169447
O O14 0.777806 0.822766 0.500000
O O15 0.750000 0.750000 0.654286
O O16 0.750000 0.750000 0.894855
O O17 0.826075 0.767756 0.000000
O O18 0.924926 0.849169 0.302909
O O19 0.000000 0.901133 0.210390
O O20 0.927647 0.000000 0.225433
O O21 0.073423 0.815177 0.500000
O O22 0.000000 0.793530 0.389869
#
# Coordination Sequence:
#
# PCOD9482909 Si02
#       8
#    16   8  16  16  16  16  16  16
#     4  10  19  32  51  71  99 134 165 206 261 311
#     4   7  10  18  36  64  92 116 146 191 251 305
#     4  10  19  31  51  76  98 126 170 214 255 304
#     4  10  18  29  47  73 105 138 171 204 243 296
#     4  10  17  29  48  68  96 132 165 201 247 300
#     4   9  17  31  49  71 102 136 172 212 252 291
#     4   8  13  23  42  67  93 121 158 207 255 301
#     4   9  18  31  47  68  93 129 174 212 256 314
#
# _framework density 19.085173999999999
#
# number of rings (size 3 to 8) (size 9 to 14) (size 15 to 20)
#    0.000    2.733    2.667    1.200    0.000    1.333 
#    0.000    6.000    1.467    2.800    0.000    1.867 
#    0.000    0.000    0.000    1.200    0.000    0.133 
#
# Total GULP energy -334171.687417 kJ/mol
# GULP energy per Si atom -5569.528124 kJ/mol
# Density = 1.904174 g / cm^3
# Si number density = 19.085174 Si / 1000 Ang^3
#
#
#
# Elastic Constant Matrix: (Units=GPa)
#
#
# Indices 1 2 3 4 5 6 
#
# 1 39.5785 3.2008 17.9712 0.0000 0.0000 0.0000
# 2 3.2008 120.6960 63.9673 0.0000 0.0000 0.0000
# 3 17.9712 63.9673 130.8004 0.0000 0.0000 0.0000
# 4 0.0000 0.0000 0.0000 3.5001 0.0000 0.0000
# 5 0.0000 0.0000 0.0000 0.0000 13.5102 0.0000
# 6 0.0000 0.0000 0.0000 0.0000 0.0000 7.5579
#
#
#
# Elastic Compliance Matrix: (Units=1/GPa)
#
#
# Indices 1 2 3 4 5 6 
#
# 1 0.027203 0.001700 -0.004569 0.000000 0.000000 0.000000
# 2 0.001700 0.011290 -0.005755 0.000000 0.000000 0.000000
# 3 -0.004569 -0.005755 0.011087 0.000000 0.000000 0.000000
# 4 0.000000 0.000000 0.000000 0.285703 0.000000 0.000000
# 5 0.000000 0.000000 0.000000 0.000000 0.074018 0.000000
# 6 0.000000 0.000000 0.000000 0.000000 0.000000 0.132313
#
#
# Mechanical properties :
#
#
# Convention : Reuss Voigt Hill
#
# Bulk Modulus (GPa) = 30.92794 51.26149 41.09472
# Shear Modulus (GPa) = 8.77746 18.64267 13.71006
#
# Velocity S-wave (km/s) = 2.14688 3.12879 2.68314
# Velocity P-wave (km/s) = 4.73137 6.32219 5.58372
#
# Compressibility (1/GPa) = 0.03233322
#
# Stress axis : x y z
#
# Youngs Moduli (GPa) = 36.76012 88.57172 90.19192
#
# Poissons Ratio (x) = -0.15058 0.41209
# Poissons Ratio (y) = -0.06250 0.51906
# Poissons Ratio (z) = 0.16796 0.50973
#
# Static dielectric constant tensor:
#      x y z
#    x 1.758620 0.000000 0.000000 
#    y 0.000000 1.679430 0.000000 
#    z 0.000000 0.000000 1.706520 
# 
# From -- ./inp_files/48065.got.cif
#   From: 2010.05.17/outbox.cif.g08.bks.cpg/sg65_25_cif.got.tgz:48065.got - 2010.06.03 17:01:31.
