data_PCOD9482019
_publ_section_title
;
Structure prediction by ZEFSAII (Michael W. Deem and Ramdas Pophale) SiO2 
 PCOD9482019
Probable space group: C M C A
;
_chemical_formula_sum "Si O2"
_cell_formula_units_Z 80
_cell_length_a 15.435773
_cell_length_b 9.246683
_cell_length_c 25.660400
_cell_angle_alpha 90.000000
_cell_angle_beta 90.000000
_cell_angle_gamma 90.000000
_cell_volume 3662.501189
_symmetry_space_group_name_H-M "C M C A"
_symmetry_group_IT_number 64
_symmetry_cell_setting 'orthorhombic'
loop_
_space_group_symop_operation_xyz
x,y,z
-x,1/2-y,1/2+z
x,-y,-z
-x,1/2+y,1/2-z
-x,-y,-z
x,1/2+y,1/2-z
-x,y,z
x,1/2-y,1/2+z
1/2+x,1/2+y,z
1/2-x,-y,1/2+z
1/2+x,1/2-y,-z
1/2-x,y,1/2-z
1/2-x,1/2-y,-z
1/2+x,y,1/2-z
1/2-x,1/2+y,z
1/2+x,-y,1/2+z
loop_
_atom_site_type_symbol
_atom_site_label
_atom_site_fract_x
_atom_site_fract_y
_atom_site_fract_z
Si Si1 0.402537 0.043881 0.269188
Si Si2 0.649974 0.248864 0.860263
Si Si3 0.095473 0.551833 0.095560
Si Si4 0.228320 0.882457 0.962785
Si Si5 0.660969 0.255381 0.685008
O O1 0.500000 0.047134 0.247848
O O2 0.397032 0.146665 0.319733
O O3 0.340850 0.112343 0.225616
O O4 0.378807 0.882945 0.286578
O O5 0.603219 0.099263 0.873227
O O6 0.671533 0.333115 0.913790
O O7 0.743551 0.216322 0.834613
O O8 0.179958 0.556697 0.058834
O O9 0.108506 0.685574 0.135279
O O10 0.000000 0.560197 0.070992
O O11 0.250000 0.750000 0.000000
O O12 0.184717 0.000000 0.000000
#
# Coordination Sequence:
#
# PCOD9482019 Si02
#       5
#    16  16  16  16  16
#     4  12  24  40  62  93 130 165 207 262 315 369
#     4  11  24  42  67  92 125 167 217 260 316 389
#     4  11  23  42  68  98 128 166 216 272 327 380
#     4  11  23  44  67  93 127 170 214 266 322 390
#     4  11  24  42  63  91 130 173 210 255 316 388
#
# _framework density 21.842998000000001
#
# number of rings (size 3 to 8) (size 9 to 14) (size 15 to 20)
#    0.000    0.800    2.000    6.600    2.800    2.000 
#    0.000    0.000    0.000    3.000    0.000    0.000 
#    0.000    0.000    0.000    0.000    0.000    0.000 
#
# Total GULP energy -223913.533485 kJ/mol
# GULP energy per Si atom -5597.838337 kJ/mol
# Density = 2.179328 g / cm^3
# Si number density = 21.842998 Si / 1000 Ang^3
#
#
#
# Elastic Constant Matrix: (Units=GPa)
#
#
# Indices 1 2 3 4 5 6 
#
# 1 81.9159 -5.1537 -7.0810 0.0000 0.0000 0.0000
# 2 -5.1537 84.0277 5.2128 0.0000 0.0000 0.0000
# 3 -7.0810 5.2128 74.7317 0.0000 0.0000 0.0000
# 4 0.0000 0.0000 0.0000 43.6688 0.0000 0.0000
# 5 0.0000 0.0000 0.0000 0.0000 15.7042 0.0000
# 6 0.0000 0.0000 0.0000 0.0000 0.0000 -8.2207
#
#
#
# Elastic Compliance Matrix: (Units=1/GPa)
#
#
# Indices 1 2 3 4 5 6 
#
# 1 0.012348 0.000688 0.001122 0.000000 0.000000 0.000000
# 2 0.000688 0.011991 -0.000771 0.000000 0.000000 0.000000
# 3 0.001122 -0.000771 0.013541 0.000000 0.000000 0.000000
# 4 0.000000 0.000000 0.000000 0.022900 0.000000 0.000000
# 5 0.000000 0.000000 0.000000 0.000000 0.063677 0.000000
# 6 0.000000 0.000000 0.000000 0.000000 0.000000 -0.121645
#
#
# Mechanical properties :
#
#
# Convention : Reuss Voigt Hill
#
# Bulk Modulus (GPa) = 25.02685 25.18129 25.10407
# Shear Modulus (GPa) = 355.76328 26.74362 191.25345
#
# Velocity S-wave (km/s) = 12.77601 3.50288 9.36741
# Velocity P-wave (km/s) = 15.13664 5.28333 11.33648
#
# Compressibility (1/GPa) = 0.03995708
#
# Stress axis : x y z
#
# Youngs Moduli (GPa) = 80.98542 83.39687 73.84811
#
# Poissons Ratio (x) = -0.05735 -0.08286
# Poissons Ratio (y) = -0.05570 0.05695
# Poissons Ratio (z) = -0.09087 0.06432
#
# Static dielectric constant tensor:
#      x y z
#    x 1.785610 0.000000 0.000000 
#    y 0.000000 1.748360 0.000000 
#    z 0.000000 0.000000 1.787850 
# 
# From -- ./inp_files/50287.got.cif
#   From: 2010.05.17/outbox.cif.g08.bks.cpg/sg64_26_cif.got.tgz:50287.got - 2010.06.03 16:29:19.
