data_PCOD9482156
_publ_section_title
;
Structure prediction by ZEFSAII (Michael W. Deem and Ramdas Pophale) SiO2 
 PCOD9482156
Probable space group: C M C A
;
_chemical_formula_sum "Si O2"
_cell_formula_units_Z 64
_cell_length_a 21.689475
_cell_length_b 26.530376
_cell_length_c 5.101090
_cell_angle_alpha 90.000000
_cell_angle_beta 90.000000
_cell_angle_gamma 90.000000
_cell_volume 2935.319846
_symmetry_space_group_name_H-M "C M C A"
_symmetry_group_IT_number 64
_symmetry_cell_setting 'orthorhombic'
loop_
_space_group_symop_operation_xyz
x,y,z
-x,1/2-y,1/2+z
x,-y,-z
-x,1/2+y,1/2-z
-x,-y,-z
x,1/2+y,1/2-z
-x,y,z
x,1/2-y,1/2+z
1/2+x,1/2+y,z
1/2-x,-y,1/2+z
1/2+x,1/2-y,-z
1/2-x,y,1/2-z
1/2-x,1/2-y,-z
1/2+x,y,1/2-z
1/2-x,1/2+y,z
1/2+x,-y,1/2+z
loop_
_atom_site_type_symbol
_atom_site_label
_atom_site_fract_x
_atom_site_fract_y
_atom_site_fract_z
Si Si1 0.000000 0.083113 0.132529
Si Si2 0.250000 0.084184 0.250000
Si Si3 0.373325 0.715988 0.706812
Si Si4 0.095308 0.500000 0.500000
Si Si5 0.000000 0.653784 0.867281
Si Si6 0.663845 0.000000 0.000000
Si Si7 0.750000 0.348394 0.250000
O O1 0.943180 0.044629 0.133236
O O2 0.000000 0.122919 0.363659
O O3 0.000000 0.113251 0.863734
O O4 0.200318 0.045729 0.367762
O O5 0.268594 0.118477 0.496462
O O6 0.372723 0.761446 0.498595
O O7 0.437036 0.685903 0.658104
O O8 0.310587 0.683837 0.673149
O O9 0.130091 0.523093 0.747864
#
# Coordination Sequence:
#
# PCOD9482156 Si02
#       7
#     8   8  16   8   8   8   8
#     4  11  26  45  66 113 137 190 244 293 357 418
#     4  12  27  45  66 112 138 196 242 289 355 414
#     4  12  26  49  73 106 142 185 234 303 378 427
#     4  11  25  44  73  96 153 192 237 297 356 421
#     4  12  26  44  78 105 143 184 242 301 353 448
#     4  12  25  45  71  98 153 193 235 298 352 424
#     4  12  27  45  78 104 146 188 246 297 349 450
#
# _framework density 21.803415000000001
#
# number of rings (size 3 to 8) (size 9 to 14) (size 15 to 20)
#    0.000    0.250    0.000    9.000   10.500    2.000 
#    0.000    0.000    0.000    0.000    0.000    0.000 
#    0.000    0.000    0.000    0.000    0.000    0.000 
#
# Total GULP energy -179012.687307 kJ/mol
# GULP energy per Si atom -5594.146478 kJ/mol
# Density = 2.175379 g / cm^3
# Si number density = 21.803415 Si / 1000 Ang^3
#
#
#
# Elastic Constant Matrix: (Units=GPa)
#
#
# Indices 1 2 3 4 5 6 
#
# 1 148.4921 65.4746 50.6213 0.0000 0.0000 0.0000
# 2 65.4746 112.9212 59.1860 0.0000 0.0000 0.0000
# 3 50.6213 59.1860 189.3428 0.0000 0.0000 0.0000
# 4 0.0000 0.0000 0.0000 79.5956 0.0000 0.0000
# 5 0.0000 0.0000 0.0000 0.0000 85.1835 0.0000
# 6 0.0000 0.0000 0.0000 0.0000 0.0000 246.6533
#
#
#
# Elastic Compliance Matrix: (Units=1/GPa)
#
#
# Indices 1 2 3 4 5 6 
#
# 1 0.009187 -0.004831 -0.000946 0.000000 0.000000 0.000000
# 2 -0.004831 0.013131 -0.002813 0.000000 0.000000 0.000000
# 3 -0.000946 -0.002813 0.006414 0.000000 0.000000 0.000000
# 4 0.000000 0.000000 0.000000 0.012564 0.000000 0.000000
# 5 0.000000 0.000000 0.000000 0.000000 0.011739 0.000000
# 6 0.000000 0.000000 0.000000 0.000000 0.000000 0.004054
#
#
# Mechanical properties :
#
#
# Convention : Reuss Voigt Hill
#
# Bulk Modulus (GPa) = 86.56730 89.03554 87.80142
# Shear Modulus (GPa) = 64.00407 100.65144 82.32775
#
# Velocity S-wave (km/s) = 5.42391 6.80172 6.15151
# Velocity P-wave (km/s) = 8.88903 10.12960 9.52952
#
# Compressibility (1/GPa) = 0.01155171
#
# Stress axis : x y z
#
# Youngs Moduli (GPa) = 108.84935 76.15384 155.91640
#
# Poissons Ratio (x) = 0.36790 0.14751
# Poissons Ratio (y) = 0.52585 0.43861
# Poissons Ratio (z) = 0.10298 0.21423
#
# Static dielectric constant tensor:
#      x y z
#    x 1.898650 0.000000 0.000000 
#    y 0.000000 1.772520 0.000000 
#    z 0.000000 0.000000 1.894050 
# 
# From -- ./inp_files/2224.got.cif
#   From: 2010.05.17/outbox.cif.g08.bks.cpg/sg64_2_cif.got.tgz:2224.got - 2010.06.03 16:29:19.
