data_PCOD9482892
_publ_section_title
;
Structure prediction by ZEFSAII (Michael W. Deem and Ramdas Pophale) SiO2 
 PCOD9482892
Probable space group: C M M M
;
_chemical_formula_sum "Si O2"
_cell_formula_units_Z 80
_cell_length_a 20.393314
_cell_length_b 14.308608
_cell_length_c 12.606665
_cell_angle_alpha 90.000000
_cell_angle_beta 90.000000
_cell_angle_gamma 90.000000
_cell_volume 3678.624038
_symmetry_space_group_name_H-M "C M M M"
_symmetry_group_IT_number 65
_symmetry_cell_setting 'orthorhombic'
loop_
_space_group_symop_operation_xyz
x,y,z
-x,-y,z
x,-y,-z
-x,y,-z
-x,-y,-z
x,y,-z
-x,y,z
x,-y,z
1/2+x,1/2+y,z
1/2-x,1/2-y,z
1/2+x,1/2-y,-z
1/2-x,1/2+y,-z
1/2-x,1/2-y,-z
1/2+x,1/2+y,-z
1/2-x,1/2+y,z
1/2+x,1/2-y,z
loop_
_atom_site_type_symbol
_atom_site_label
_atom_site_fract_x
_atom_site_fract_y
_atom_site_fract_z
Si Si1 0.744444 0.636973 0.000000
Si Si2 0.807394 0.109334 0.617810
Si Si3 0.205937 0.343396 0.781228
Si Si4 0.908121 0.892452 0.000000
Si Si5 0.571969 0.385803 0.236400
Si Si6 0.424084 0.886591 0.123554
O O1 0.750000 0.750000 0.000000
O O2 0.774645 0.603598 0.110096
O O3 0.669650 0.609538 0.000000
O O4 0.807469 0.151792 0.500000
O O5 0.736906 0.114925 0.675141
O O6 0.865773 0.145844 0.694251
O O7 0.822071 0.000000 0.607440
O O8 0.250000 0.250000 0.787275
O O9 0.128053 0.341204 0.796095
O O10 0.926853 0.851125 0.885881
O O11 0.930641 0.000000 0.000000
O O12 0.500000 0.364173 0.282139
O O13 0.576814 0.500000 0.229311
O O14 0.500000 0.862871 0.144772
O O15 0.418981 0.000000 0.130406
O O16 0.409597 0.860409 0.000000
#
# Coordination Sequence:
#
# PCOD9482892 Si02
#       6
#     8  16  16   8  16  16
#     4  10  20  31  48  74 112 138 167 212 273 338
#     4  10  21  36  54  77 103 138 190 238 276 327
#     4  11  21  35  56  79 114 145 180 226 284 348
#     4  10  17  28  50  76 103 133 171 217 265 323
#     4   9  17  29  47  73 104 136 170 213 263 313
#     4   9  18  33  56  86 116 148 187 230 279 336
#
# _framework density 21.747261000000002
#
# number of rings (size 3 to 8) (size 9 to 14) (size 15 to 20)
#    0.000    2.200    3.000    1.500    0.000    2.800 
#    0.000    3.000    0.000    0.600    0.000    2.800 
#    0.000    0.000    0.000    0.000    0.000    0.000 
#
# Total GULP energy -223102.988812 kJ/mol
# GULP energy per Si atom -5577.574720 kJ/mol
# Density = 2.169776 g / cm^3
# Si number density = 21.747261 Si / 1000 Ang^3
#
#
#
# Elastic Constant Matrix: (Units=GPa)
#
#
# Indices 1 2 3 4 5 6 
#
# 1 196.2142 18.2730 76.3454 0.0000 0.0000 0.0000
# 2 18.2730 70.7316 16.6588 0.0000 0.0000 0.0000
# 3 76.3454 16.6588 149.1388 0.0000 0.0000 0.0000
# 4 0.0000 0.0000 0.0000 13.0299 0.0000 0.0000
# 5 0.0000 0.0000 0.0000 0.0000 33.1034 0.0000
# 6 0.0000 0.0000 0.0000 0.0000 0.0000 15.4309
#
#
#
# Elastic Compliance Matrix: (Units=1/GPa)
#
#
# Indices 1 2 3 4 5 6 
#
# 1 0.006420 -0.000908 -0.003185 0.000000 0.000000 0.000000
# 2 -0.000908 0.014648 -0.001171 0.000000 0.000000 0.000000
# 3 -0.003185 -0.001171 0.008467 0.000000 0.000000 0.000000
# 4 0.000000 0.000000 0.000000 0.076746 0.000000 0.000000
# 5 0.000000 0.000000 0.000000 0.000000 0.030208 0.000000
# 6 0.000000 0.000000 0.000000 0.000000 0.000000 0.064805
#
#
# Mechanical properties :
#
#
# Convention : Reuss Voigt Hill
#
# Bulk Modulus (GPa) = 52.61576 70.95990 61.78783
# Shear Modulus (GPa) = 22.91892 32.63332 27.77612
#
# Velocity S-wave (km/s) = 3.24987 3.87792 3.57770
# Velocity P-wave (km/s) = 6.19103 7.26301 6.74834
#
# Compressibility (1/GPa) = 0.01900571
#
# Stress axis : x y z
#
# Youngs Moduli (GPa) = 155.75340 68.26639 118.11253
#
# Poissons Ratio (x) = 0.06202 0.37621
# Poissons Ratio (y) = 0.14150 0.13833
# Poissons Ratio (z) = 0.49610 0.07995
#
# Static dielectric constant tensor:
#      x y z
#    x 1.809790 0.000000 0.000000 
#    y 0.000000 1.895830 0.000000 
#    z 0.000000 0.000000 1.828320 
# 
# From -- ./inp_files/26726.got.cif
#   From: 2010.05.17/outbox.cif.g08.bks.cpg/sg65_14_cif.got.tgz:26726.got - 2010.06.03 17:01:31.
