data_PCOD9482652
_publ_section_title
;
Structure prediction by ZEFSAII (Michael W. Deem and Ramdas Pophale) SiO2 
 PCOD9482652
Probable space group: C M M M
;
_chemical_formula_sum "Si O2"
_cell_formula_units_Z 80
_cell_length_a 20.053392
_cell_length_b 34.321598
_cell_length_c 8.091709
_cell_angle_alpha 90.000000
_cell_angle_beta 90.000000
_cell_angle_gamma 90.000000
_cell_volume 5569.235715
_symmetry_space_group_name_H-M "C M M M"
_symmetry_group_IT_number 65
_symmetry_cell_setting 'orthorhombic'
loop_
_space_group_symop_operation_xyz
x,y,z
-x,-y,z
x,-y,-z
-x,y,-z
-x,-y,-z
x,y,-z
-x,y,z
x,-y,z
1/2+x,1/2+y,z
1/2-x,1/2-y,z
1/2+x,1/2-y,-z
1/2-x,1/2+y,-z
1/2-x,1/2-y,-z
1/2+x,1/2+y,-z
1/2-x,1/2+y,z
1/2+x,1/2-y,z
loop_
_atom_site_type_symbol
_atom_site_label
_atom_site_fract_x
_atom_site_fract_y
_atom_site_fract_z
Si Si1 0.500000 0.258021 0.802606
Si Si2 0.423916 0.043836 0.801227
Si Si3 0.646222 0.732896 0.202268
Si Si4 0.868107 0.622813 0.303892
Si Si5 0.000000 0.331745 0.298780
Si Si6 0.776565 0.310442 0.198518
O O1 0.570926 0.273680 0.738414
O O2 0.500000 0.211865 0.768509
O O3 0.500000 0.264184 0.000000
O O4 0.500000 0.052408 0.742499
O O5 0.374974 0.078239 0.750199
O O6 0.406672 0.000000 0.744845
O O7 0.426066 0.043159 0.000000
O O8 0.702632 0.702079 0.254617
O O9 0.673437 0.775642 0.253912
O O10 0.645274 0.733039 0.000000
O O11 0.871119 0.623640 0.500000
O O12 0.804699 0.648004 0.250403
O O13 0.934104 0.645485 0.240751
O O14 0.000000 0.330350 0.500000
O O15 0.776228 0.309112 0.000000
#
# Coordination Sequence:
#
# PCOD9482652 Si02
#       6
#     8  16  16  16   8  16
#     4  10  16  26  44  59  71 100 139 172 202 236
#     4   9  18  31  45  60  77 100 132 166 199 236
#     4   8  15  25  40  59  77  97 131 171 204 234
#     4  11  20  29  40  57  80 106 134 166 201 237
#     4  10  20  28  33  53  82 103 130 167 201 234
#     4   9  16  28  41  56  77 102 131 167 203 237
#
# _framework density 14.364628
#
# number of rings (size 3 to 8) (size 9 to 14) (size 15 to 20)
#    0.000    2.600    3.000    2.400    0.000    1.200 
#    0.000    4.000    0.000    0.000    0.000    0.000 
#    0.000    0.000    0.000    0.900    0.000   20.600 
#
# Total GULP energy -222855.828629 kJ/mol
# GULP energy per Si atom -5571.395716 kJ/mol
# Density = 1.433193 g / cm^3
# Si number density = 14.364628 Si / 1000 Ang^3
#
#
#
# Elastic Constant Matrix: (Units=GPa)
#
#
# Indices 1 2 3 4 5 6 
#
# 1 114.4149 58.9780 10.6924 0.0000 0.0000 0.0000
# 2 58.9780 101.6774 6.5101 0.0000 0.0000 0.0000
# 3 10.6924 6.5101 7.2967 0.0000 0.0000 0.0000
# 4 0.0000 0.0000 0.0000 -67.8257 0.0000 0.0000
# 5 0.0000 0.0000 0.0000 0.0000 7.0495 0.0000
# 6 0.0000 0.0000 0.0000 0.0000 0.0000 24.4130
#
#
#
# Elastic Compliance Matrix: (Units=1/GPa)
#
#
# Indices 1 2 3 4 5 6 
#
# 1 0.013651 -0.007040 -0.013724 0.000000 0.000000 0.000000
# 2 -0.007040 0.014061 -0.002229 0.000000 0.000000 0.000000
# 3 -0.013724 -0.002229 0.159148 0.000000 0.000000 0.000000
# 4 0.000000 0.000000 0.000000 -0.014744 0.000000 0.000000
# 5 0.000000 0.000000 0.000000 0.000000 0.141854 0.000000
# 6 0.000000 0.000000 0.000000 0.000000 0.000000 0.040962
#
#
# Mechanical properties :
#
#
# Convention : Reuss Voigt Hill
#
# Bulk Modulus (GPa) = 7.09849 41.75000 24.42424
# Shear Modulus (GPa) = 11.16377 2.54126 6.85251
#
# Velocity S-wave (km/s) = 2.79080 1.33152 2.18650
# Velocity P-wave (km/s) = 3.91627 5.61173 4.83883
#
# Compressibility (1/GPa) = 0.14087500
#
# Stress axis : x y z
#
# Youngs Moduli (GPa) = 73.25203 71.11736 6.28346
#
# Poissons Ratio (x) = 0.50066 0.08623
# Poissons Ratio (y) = 0.51569 0.01401
# Poissons Ratio (z) = 1.00528 0.15855
#
# Static dielectric constant tensor:
#      x y z
#    x 1.497140 0.000000 0.000000 
#    y 0.000000 1.469410 0.000000 
#    z 0.000000 0.000000 1.497770 
# 
# From -- ./inp_files/12101.got.cif
#   From: 2010.05.17/outbox.cif.g08.bks.cpg/sg65_7_cif.got.tgz:12101.got - 2010.06.03 17:01:31.
