data_PCOD9482072
_publ_section_title
;
Structure prediction by ZEFSAII (Michael W. Deem and Ramdas Pophale) SiO2 
 PCOD9482072
Probable space group: C M C A
;
_chemical_formula_sum "Si O2"
_cell_formula_units_Z 112
_cell_length_a 12.908931
_cell_length_b 12.161194
_cell_length_c 29.393193
_cell_angle_alpha 90.000000
_cell_angle_beta 90.000000
_cell_angle_gamma 90.000000
_cell_volume 4614.379001
_symmetry_space_group_name_H-M "C M C A"
_symmetry_group_IT_number 64
_symmetry_cell_setting 'orthorhombic'
loop_
_space_group_symop_operation_xyz
x,y,z
-x,1/2-y,1/2+z
x,-y,-z
-x,1/2+y,1/2-z
-x,-y,-z
x,1/2+y,1/2-z
-x,y,z
x,1/2-y,1/2+z
1/2+x,1/2+y,z
1/2-x,-y,1/2+z
1/2+x,1/2-y,-z
1/2-x,y,1/2-z
1/2-x,1/2-y,-z
1/2+x,y,1/2-z
1/2-x,1/2+y,z
1/2+x,-y,1/2+z
loop_
_atom_site_type_symbol
_atom_site_label
_atom_site_fract_x
_atom_site_fract_y
_atom_site_fract_z
Si Si1 0.380919 0.752151 0.081494
Si Si2 0.619692 0.708202 0.181806
Si Si3 0.175459 0.875849 0.106549
Si Si4 0.213573 0.447363 0.546601
Si Si5 0.620246 0.350312 0.722246
Si Si6 0.618708 0.625023 0.379900
Si Si7 0.211957 0.883506 0.203343
O O1 0.500000 0.789640 0.076990
O O2 0.373696 0.680859 0.128664
O O3 0.292161 0.842924 0.089174
O O4 0.345380 0.668832 0.042211
O O5 0.500000 0.731562 0.190439
O O6 0.654198 0.633846 0.224845
O O7 0.686455 0.818245 0.186228
O O8 0.122407 0.757252 0.112269
O O9 0.169382 0.931363 0.156619
O O10 0.138550 0.962355 0.069677
O O11 0.251178 0.500000 0.500000
O O12 0.306738 0.424190 0.582073
O O13 0.500000 0.382516 0.722060
O O14 0.656877 0.393888 0.672567
O O15 0.635920 0.217746 0.717272
O O16 0.500000 0.587044 0.383469
O O17 0.250000 0.938255 0.250000
#
# Coordination Sequence:
#
# PCOD9482072 Si02
#       7
#    16  16  16  16  16  16  16
#     4   9  19  36  57  80 105 137 176 213 258 319
#     4   8  13  24  46  74 102 132 164 200 246 303
#     4   9  19  36  55  77 106 137 169 212 261 311
#     4  11  24  39  53  75 107 138 176 231 281 312
#     4   8  13  24  46  74 102 132 164 200 246 303
#     4   9  19  36  57  80 105 137 176 213 258 319
#     4   8  13  24  45  72 100 130 163 198 243 302
#
# _framework density 24.271955999999999
#
# number of rings (size 3 to 8) (size 9 to 14) (size 15 to 20)
#    0.000    3.143    0.000    0.857    0.000    4.000 
#    0.000    2.857    0.000    0.000    0.000    8.000 
#    0.000    0.000    0.000    0.000    0.000    0.000 
#
# Total GULP energy -311959.339545 kJ/mol
# GULP energy per Si atom -5570.702492 kJ/mol
# Density = 2.421671 g / cm^3
# Si number density = 24.271956 Si / 1000 Ang^3
#
#
#
# Elastic Constant Matrix: (Units=GPa)
#
#
# Indices 1 2 3 4 5 6 
#
# 1 70.7007 -9.0469 -11.0016 0.0000 0.0000 0.0000
# 2 -9.0469 53.4791 1.6166 0.0000 0.0000 0.0000
# 3 -11.0016 1.6166 84.6266 0.0000 0.0000 0.0000
# 4 0.0000 0.0000 0.0000 22.4505 0.0000 0.0000
# 5 0.0000 0.0000 0.0000 0.0000 16.3385 0.0000
# 6 0.0000 0.0000 0.0000 0.0000 0.0000 -30.4284
#
#
#
# Elastic Compliance Matrix: (Units=1/GPa)
#
#
# Indices 1 2 3 4 5 6 
#
# 1 0.014747 0.002438 0.001871 0.000000 0.000000 0.000000
# 2 0.002438 0.019113 -0.000048 0.000000 0.000000 0.000000
# 3 0.001871 -0.000048 0.012061 0.000000 0.000000 0.000000
# 4 0.000000 0.000000 0.000000 0.044542 0.000000 0.000000
# 5 0.000000 0.000000 0.000000 0.000000 0.061205 0.000000
# 6 0.000000 0.000000 0.000000 0.000000 0.000000 -0.032864
#
#
# Mechanical properties :
#
#
# Convention : Reuss Voigt Hill
#
# Bulk Modulus (GPa) = 18.36817 19.10474 18.73645
# Shear Modulus (GPa) = 38.93161 16.82134 27.87647
#
# Velocity S-wave (km/s) = 4.00931 2.63541 3.39264
# Velocity P-wave (km/s) = 5.38673 4.14110 4.80446
#
# Compressibility (1/GPa) = 0.05444201
#
# Stress axis : x y z
#
# Youngs Moduli (GPa) = 67.80945 52.32093 82.91380
#
# Poissons Ratio (x) = -0.12757 -0.15510
# Poissons Ratio (y) = -0.16533 0.00399
# Poissons Ratio (z) = -0.12684 0.00252
#
# Static dielectric constant tensor:
#      x y z
#    x 1.959950 0.000000 0.000000 
#    y 0.000000 1.960980 0.000000 
#    z 0.000000 0.000000 1.987230 
# 
# From -- ./inp_files/53395.got.cif
#   From: 2010.05.17/outbox.cif.g08.bks.cpg/sg64_27_cif.got.tgz:53395.got - 2010.06.03 16:29:19.
