data_PCOD9482861
_publ_section_title
;
Structure prediction by ZEFSAII (Michael W. Deem and Ramdas Pophale) SiO2 
 PCOD9482861
Probable space group: C M M M
;
_chemical_formula_sum "Si O2"
_cell_formula_units_Z 80
_cell_length_a 26.281419
_cell_length_b 7.754456
_cell_length_c 25.084039
_cell_angle_alpha 90.000000
_cell_angle_beta 90.000000
_cell_angle_gamma 90.000000
_cell_volume 5112.079670
_symmetry_space_group_name_H-M "C M M M"
_symmetry_group_IT_number 65
_symmetry_cell_setting 'orthorhombic'
loop_
_space_group_symop_operation_xyz
x,y,z
-x,-y,z
x,-y,-z
-x,y,-z
-x,-y,-z
x,y,-z
-x,y,z
x,-y,z
1/2+x,1/2+y,z
1/2-x,1/2-y,z
1/2+x,1/2-y,-z
1/2-x,1/2+y,-z
1/2-x,1/2-y,-z
1/2+x,1/2+y,-z
1/2-x,1/2+y,z
1/2+x,1/2-y,z
loop_
_atom_site_type_symbol
_atom_site_label
_atom_site_fract_x
_atom_site_fract_y
_atom_site_fract_z
Si Si1 0.500000 0.711567 0.561381
Si Si2 0.692122 0.795010 0.560108
Si Si3 0.062041 0.500000 0.061227
Si Si4 0.559049 0.710311 0.741784
Si Si5 0.438031 0.698589 0.139961
Si Si6 0.096481 0.794657 0.370078
O O1 0.500000 0.500000 0.561075
O O2 0.500000 0.767237 0.500000
O O3 0.550346 0.770165 0.592752
O O4 0.682625 0.724444 0.500000
O O5 0.750000 0.750000 0.574751
O O6 0.649957 0.735499 0.601604
O O7 0.688455 0.000000 0.557287
O O8 0.077943 0.669416 0.094206
O O9 0.000000 0.500000 0.060794
O O10 0.078972 0.500000 0.000000
O O11 0.500000 0.761904 0.734360
O O12 0.559302 0.500000 0.743325
O O13 0.576996 0.761820 0.800749
O O14 0.590230 0.770764 0.690367
O O15 0.500000 0.696578 0.140911
O O16 0.421761 0.500000 0.131583
O O17 0.089049 0.000000 0.366670
#
# Coordination Sequence:
#
# PCOD9482861 Si02
#       6
#     8  16   8  16  16  16
#     4   9  16  24  39  65  91 113 137 168 214 269
#     4  10  21  36  50  63  81 107 142 184 226 271
#     4   9  16  24  34  52  76 104 144 188 222 254
#     4   8  13  24  41  60  83 110 141 175 210 254
#     4   8  14  24  37  52  74 107 143 181 219 254
#     4  10  17  28  47  68  87 110 142 179 217 264
#
# _framework density 15.649209000000001
#
# number of rings (size 3 to 8) (size 9 to 14) (size 15 to 20)
#    0.000    3.000    1.000    2.400    0.000    2.400 
#    1.800    2.500    0.000    1.800    0.000    0.000 
#    0.000    0.000    0.000    0.000    0.000    1.000 
#
# Total GULP energy -222805.682435 kJ/mol
# GULP energy per Si atom -5570.142061 kJ/mol
# Density = 1.561359 g / cm^3
# Si number density = 15.649209 Si / 1000 Ang^3
#
#
#
# Elastic Constant Matrix: (Units=GPa)
#
#
# Indices 1 2 3 4 5 6 
#
# 1 49.4234 6.2210 55.8130 0.0000 0.0000 0.0000
# 2 6.2210 42.7717 43.8226 0.0000 0.0000 0.0000
# 3 55.8130 43.8226 172.5786 0.0000 0.0000 0.0000
# 4 0.0000 0.0000 0.0000 13.8285 0.0000 0.0000
# 5 0.0000 0.0000 0.0000 0.0000 11.0449 0.0000
# 6 0.0000 0.0000 0.0000 0.0000 0.0000 10.1287
#
#
#
# Elastic Compliance Matrix: (Units=1/GPa)
#
#
# Indices 1 2 3 4 5 6 
#
# 1 0.034042 0.008554 -0.013182 0.000000 0.000000 0.000000
# 2 0.008554 0.033751 -0.011337 0.000000 0.000000 0.000000
# 3 -0.013182 -0.011337 0.012936 0.000000 0.000000 0.000000
# 4 0.000000 0.000000 0.000000 0.072315 0.000000 0.000000
# 5 0.000000 0.000000 0.000000 0.000000 0.090539 0.000000
# 6 0.000000 0.000000 0.000000 0.000000 0.000000 0.098729
#
#
# Mechanical properties :
#
#
# Convention : Reuss Voigt Hill
#
# Bulk Modulus (GPa) = 20.49133 52.94300 36.71717
# Shear Modulus (GPa) = 12.80381 17.59489 15.19935
#
# Velocity S-wave (km/s) = 2.86348 3.35674 3.11988
# Velocity P-wave (km/s) = 4.90462 6.99487 6.04084
#
# Compressibility (1/GPa) = 0.04880112
#
# Stress axis : x y z
#
# Youngs Moduli (GPa) = 29.37514 29.62858 77.30223
#
# Poissons Ratio (x) = -0.25345 1.01897
# Poissons Ratio (y) = -0.25128 0.87636
# Poissons Ratio (z) = 0.38721 0.33590
#
# Static dielectric constant tensor:
#      x y z
#    x 1.511450 0.000000 0.000000 
#    y 0.000000 1.570880 0.000000 
#    z 0.000000 0.000000 1.553090 
# 
# From -- ./inp_files/71640.got.cif
#   From: 2010.05.17/outbox.cif.g08.bks.cpg/sg65_36_cif.got.tgz:71640.got - 2010.06.03 17:01:31.
