data_PCOD9482946
_publ_section_title
;
Structure prediction by ZEFSAII (Michael W. Deem and Ramdas Pophale) SiO2 
 PCOD9482946
Probable space group: C M M M
;
_chemical_formula_sum "Si O2"
_cell_formula_units_Z 72
_cell_length_a 9.586721
_cell_length_b 33.451139
_cell_length_c 12.866479
_cell_angle_alpha 90.000000
_cell_angle_beta 90.000000
_cell_angle_gamma 90.000000
_cell_volume 4126.109164
_symmetry_space_group_name_H-M "C M M M"
_symmetry_group_IT_number 65
_symmetry_cell_setting 'orthorhombic'
loop_
_space_group_symop_operation_xyz
x,y,z
-x,-y,z
x,-y,-z
-x,y,-z
-x,-y,-z
x,y,-z
-x,y,z
x,-y,z
1/2+x,1/2+y,z
1/2-x,1/2-y,z
1/2+x,1/2-y,-z
1/2-x,1/2+y,-z
1/2-x,1/2-y,-z
1/2+x,1/2+y,-z
1/2-x,1/2+y,z
1/2+x,1/2-y,z
loop_
_atom_site_type_symbol
_atom_site_label
_atom_site_fract_x
_atom_site_fract_y
_atom_site_fract_z
Si Si1 0.500000 0.854028 0.112023
Si Si2 0.750000 0.750000 0.254846
Si Si3 0.000000 0.391620 0.617646
Si Si4 0.785719 0.413073 0.793702
Si Si5 0.832959 0.500000 0.882280
Si Si6 0.500000 0.616514 0.122644
Si Si7 0.500000 0.197508 0.315392
Si Si8 0.000000 0.212207 0.120350
O O1 0.628222 0.884093 0.128648
O O2 0.500000 0.819927 0.197751
O O3 0.500000 0.835376 0.000000
O O4 0.643690 0.777414 0.322715
O O5 0.639189 0.726552 0.181540
O O6 0.865427 0.405693 0.684682
O O7 0.000000 0.343242 0.619399
O O8 0.000000 0.406246 0.500000
O O9 0.794041 0.459250 0.824886
O O10 0.630826 0.398745 0.811840
O O11 0.000000 0.500000 0.888577
O O12 0.776210 0.500000 0.000000
O O13 0.500000 0.664348 0.119954
O O14 0.500000 0.603014 0.000000
O O15 0.000000 0.226013 0.000000
#
# Coordination Sequence:
#
# PCOD9482946 Si02
#       8
#     8   8   8  16   8   8   8   8
#     4  10  17  30  49  72 102 146 188 218 257 320
#     4  10  19  32  47  70 102 136 170 224 276 318
#     4  10  21  41  62  78  98 138 194 242 274 314
#     4  10  21  34  53  81 111 144 184 226 272 321
#     4  11  18  31  55  85 118 148 181 222 265 321
#     4  11  21  34  52  82 121 154 177 212 270 341
#     4   9  20  33  51  73 101 132 170 220 275 330
#     4  10  19  29  45  69 104 146 184 212 254 322
#
# _framework density 17.449853000000001
#
# number of rings (size 3 to 8) (size 9 to 14) (size 15 to 20)
#    0.000    2.111    2.222    5.000    0.000    4.889 
#    0.000    3.333    0.000    0.000    0.000    1.556 
#    0.000    0.000    0.000    0.000    0.000    0.000 
#
# Total GULP energy -200606.226418 kJ/mol
# GULP energy per Si atom -5572.395178 kJ/mol
# Density = 1.741014 g / cm^3
# Si number density = 17.449853 Si / 1000 Ang^3
#
#
#
# Elastic Constant Matrix: (Units=GPa)
#
#
# Indices 1 2 3 4 5 6 
#
# 1 159.1503 44.5580 33.5262 0.0000 0.0000 0.0000
# 2 44.5580 103.4972 21.5263 0.0000 0.0000 0.0000
# 3 33.5262 21.5263 101.2482 0.0000 0.0000 0.0000
# 4 0.0000 0.0000 0.0000 1.3255 0.0000 0.0000
# 5 0.0000 0.0000 0.0000 0.0000 -12.8651 0.0000
# 6 0.0000 0.0000 0.0000 0.0000 0.0000 3.5734
#
#
#
# Elastic Compliance Matrix: (Units=1/GPa)
#
#
# Indices 1 2 3 4 5 6 
#
# 1 0.007469 -0.002826 -0.001872 0.000000 0.000000 0.000000
# 2 -0.002826 0.011179 -0.001441 0.000000 0.000000 0.000000
# 3 -0.001872 -0.001441 0.010803 0.000000 0.000000 0.000000
# 4 0.000000 0.000000 0.000000 0.754409 0.000000 0.000000
# 5 0.000000 0.000000 0.000000 0.000000 -0.077730 0.000000
# 6 0.000000 0.000000 0.000000 0.000000 0.000000 0.279842
#
#
# Mechanical properties :
#
#
# Convention : Reuss Voigt Hill
#
# Bulk Modulus (GPa) = 58.23469 62.56855 60.40162
# Shear Modulus (GPa) = 4.98021 16.02578 10.50299
#
# Velocity S-wave (km/s) = 1.69121 3.03378 2.45602
# Velocity P-wave (km/s) = 6.10399 6.94304 6.53699
#
# Compressibility (1/GPa) = 0.01717189
#
# Stress axis : x y z
#
# Youngs Moduli (GPa) = 133.88579 89.45734 92.56652
#
# Poissons Ratio (x) = 0.25282 0.17332
# Poissons Ratio (y) = 0.37839 0.13337
# Poissons Ratio (z) = 0.25068 0.12889
#
# Static dielectric constant tensor:
#      x y z
#    x 1.740010 0.000000 0.000000 
#    y 0.000000 1.584680 0.000000 
#    z 0.000000 0.000000 1.603450 
# 
# From -- ./inp_files/37107.got.cif
#   From: 2010.05.17/outbox.cif.g08.bks.cpg/sg65_19_cif.got.tgz:37107.got - 2010.06.03 17:01:31.
