data_PCOD9482650
_publ_section_title
;
Structure prediction by ZEFSAII (Michael W. Deem and Ramdas Pophale) SiO2 
 PCOD9482650
Probable space group: C M M M
;
_chemical_formula_sum "Si O2"
_cell_formula_units_Z 72
_cell_length_a 20.010423
_cell_length_b 28.857572
_cell_length_c 7.358455
_cell_angle_alpha 90.000000
_cell_angle_beta 90.000000
_cell_angle_gamma 90.000000
_cell_volume 4249.156194
_symmetry_space_group_name_H-M "C M M M"
_symmetry_group_IT_number 65
_symmetry_cell_setting 'orthorhombic'
loop_
_space_group_symop_operation_xyz
x,y,z
-x,-y,z
x,-y,-z
-x,y,-z
-x,-y,-z
x,y,-z
-x,y,z
x,-y,z
1/2+x,1/2+y,z
1/2-x,1/2-y,z
1/2+x,1/2-y,-z
1/2-x,1/2+y,-z
1/2-x,1/2-y,-z
1/2+x,1/2+y,-z
1/2-x,1/2+y,z
1/2+x,1/2-y,z
loop_
_atom_site_type_symbol
_atom_site_label
_atom_site_fract_x
_atom_site_fract_y
_atom_site_fract_z
Si Si1 0.221909 0.322166 0.721735
Si Si2 0.922053 0.500000 0.722993
Si Si3 0.500000 0.735711 0.290791
Si Si4 0.853379 0.228422 0.278184
Si Si5 0.000000 0.344069 0.217019
Si Si6 0.632400 0.902806 0.711355
O O1 0.220791 0.322744 0.500000
O O2 0.174279 0.279139 0.775914
O O3 0.296841 0.308378 0.776332
O O4 0.191049 0.370355 0.787498
O O5 0.922629 0.500000 0.500000
O O6 0.885812 0.546812 0.786244
O O7 0.000000 0.500000 0.777352
O O8 0.500000 0.720035 0.500000
O O9 0.428598 0.720803 0.212022
O O10 0.500000 0.791755 0.288143
O O11 0.855033 0.228898 0.500000
O O12 0.065364 0.371890 0.278279
O O13 0.000000 0.342022 0.000000
O O14 0.648640 0.910392 0.500000
#
# Coordination Sequence:
#
# PCOD9482650 Si02
#       6
#    16   8   8  16   8  16
#     4   8  13  21  36  57  77  92 118 155 188 217
#     4   9  16  24  40  62  74  87 127 167 184 213
#     4  10  16  26  43  57  74 101 131 156 186 217
#     4   8  13  20  35  60  76  90 120 156 185 217
#     4  12  22  27  35  56  81 102 129 159 187 225
#     4  10  17  29  44  54  72 102 130 158 190 219
#
# _framework density 16.944541999999998
#
# number of rings (size 3 to 8) (size 9 to 14) (size 15 to 20)
#    0.000    2.778    3.333    2.333    0.000    0.000 
#    0.000    1.111    0.000    2.667    0.000    0.000 
#    0.000    0.889    0.000   12.444    0.000    0.000 
#
# Total GULP energy -200740.075894 kJ/mol
# GULP energy per Si atom -5576.113219 kJ/mol
# Density = 1.690598 g / cm^3
# Si number density = 16.944542 Si / 1000 Ang^3
#
#
#
# Elastic Constant Matrix: (Units=GPa)
#
#
# Indices 1 2 3 4 5 6 
#
# 1 164.8325 77.8438 2.0411 0.0000 0.0000 0.0000
# 2 77.8438 116.9258 2.7297 0.0000 0.0000 0.0000
# 3 2.0411 2.7297 66.0238 0.0000 0.0000 0.0000
# 4 0.0000 0.0000 0.0000 -29.2790 0.0000 0.0000
# 5 0.0000 0.0000 0.0000 0.0000 -20.5958 0.0000
# 6 0.0000 0.0000 0.0000 0.0000 0.0000 24.9075
#
#
#
# Elastic Compliance Matrix: (Units=1/GPa)
#
#
# Indices 1 2 3 4 5 6 
#
# 1 0.008849 -0.005891 -0.000030 0.000000 0.000000 0.000000
# 2 -0.005891 0.012482 -0.000334 0.000000 0.000000 0.000000
# 3 -0.000030 -0.000334 0.015161 0.000000 0.000000 0.000000
# 4 0.000000 0.000000 0.000000 -0.034154 0.000000 0.000000
# 5 0.000000 0.000000 0.000000 0.000000 -0.048554 0.000000
# 6 0.000000 0.000000 0.000000 0.000000 0.000000 0.040149
#
#
# Mechanical properties :
#
#
# Convention : Reuss Voigt Hill
#
# Bulk Modulus (GPa) = 41.69683 57.00124 49.34903
# Shear Modulus (GPa) = 346.36372 12.68438 179.52405
#
# Velocity S-wave (km/s) = 14.31272 2.73899 10.30427
# Velocity P-wave (km/s) = 17.25688 6.61178 13.06743
#
# Compressibility (1/GPa) = 0.02398264
#
# Stress axis : x y z
#
# Youngs Moduli (GPa) = 113.00694 80.11604 65.95960
#
# Poissons Ratio (x) = 0.47193 0.00198
# Poissons Ratio (y) = 0.66567 0.02203
# Poissons Ratio (z) = 0.00339 0.02675
#
# Static dielectric constant tensor:
#      x y z
#    x 1.587900 0.000000 0.000000 
#    y 0.000000 1.557590 0.000000 
#    z 0.000000 0.000000 1.617730 
# 
# From -- ./inp_files/12060.got.cif
#   From: 2010.05.17/outbox.cif.g08.bks.cpg/sg65_7_cif.got.tgz:12060.got - 2010.06.03 17:01:31.
