data_PCOD9482426
_publ_section_title
;
Structure prediction by ZEFSAII (Michael W. Deem and Ramdas Pophale) SiO2 
 PCOD9482426
Probable space group: C M C A
;
_chemical_formula_sum "Si O2"
_cell_formula_units_Z 48
_cell_length_a 9.000000
_cell_length_b 21.000000
_cell_length_c 27.000000
_cell_angle_alpha 90.000000
_cell_angle_beta 90.000000
_cell_angle_gamma 90.000000
_cell_volume 5103.000000
_symmetry_space_group_name_H-M "C M C A"
_symmetry_group_IT_number 64
_symmetry_cell_setting 'orthorhombic'
loop_
_space_group_symop_operation_xyz
x,y,z
-x,1/2-y,1/2+z
x,-y,-z
-x,1/2+y,1/2-z
-x,-y,-z
x,1/2+y,1/2-z
-x,y,z
x,1/2-y,1/2+z
1/2+x,1/2+y,z
1/2-x,-y,1/2+z
1/2+x,1/2-y,-z
1/2-x,y,1/2-z
1/2-x,1/2-y,-z
1/2+x,y,1/2-z
1/2-x,1/2+y,z
1/2+x,-y,1/2+z
loop_
_atom_site_type_symbol
_atom_site_label
_atom_site_fract_x
_atom_site_fract_y
_atom_site_fract_z
Si Si1 0.174916 0.978564 0.943342
Si Si2 0.323395 0.356429 0.601268
Si Si3 0.177903 0.113736 0.896793
Si Si4 0.821527 0.233980 0.552208
Si Si5 0.675662 0.172647 0.802583
Si Si6 0.675568 0.324838 0.802723
O O1 0.212107 0.041135 0.911257
O O2 0.000000 0.962864 0.935822
O O3 0.270720 0.916912 0.930336
O O4 0.193473 0.000000 0.000000
O O5 0.500000 0.347761 0.598386
O O6 0.239604 0.292183 0.584838
O O7 0.265357 0.364751 0.656977
O O8 0.259742 0.165595 0.931102
O O9 0.237048 0.132321 0.843023
O O10 0.000000 0.122259 0.901071
O O11 0.750000 0.250000 0.500000
O O12 0.000000 0.233567 0.552130
O O13 0.500000 0.158691 0.803220
O O14 0.750000 0.160532 0.750000
O O15 0.691424 0.248588 0.812405
O O16 0.500000 0.339002 0.803514
O O17 0.750000 0.336330 0.750000
#
# Coordination Sequence:
#
# PCOD9482426 Si02
#       6
#    16  16  16  16  16  16
#     4  10  23  43  64  86 120 165 207 252 308 364
#     4  12  24  39  62  91 123 161 204 251 302 364
#     4  11  22  38  62  91 122 159 202 250 304 365
#     4  12  24  39  60  88 121 156 200 255 305 357
#     4  10  20  35  59  89 123 161 198 249 304 361
#     4  10  20  36  60  90 124 161 199 249 305 361
#
# _framework density 9.4062319999999993
#
# number of rings (size 3 to 8) (size 9 to 14) (size 15 to 20)
#    0.000    1.167    1.667    5.500    0.000    4.333 
#    0.000    0.833    0.000    4.000    0.000    0.000 
#    0.000    0.000    0.000    0.000    0.000    0.000 
#
# Total GULP energy -268178.836180 kJ/mol
# GULP energy per Si atom -5587.059087 kJ/mol
# Density = 0.938482 g / cm^3
# Si number density = 9.406232 Si / 1000 Ang^3
#
#
#
# Elastic Constant Matrix: (Units=GPa)
#
#
# Indices 1 2 3 4 5 6 
#
# 1 71.5520 -44.6103 -12.4651 0.0000 0.0000 0.0000
# 2 -44.6103 -78.7449 -50.4610 0.0000 0.0000 0.0000
# 3 -12.4651 -50.4610 57.5154 0.0000 0.0000 0.0000
# 4 0.0000 0.0000 0.0000 48.4756 0.0000 0.0000
# 5 0.0000 0.0000 0.0000 0.0000 30.5740 0.0000
# 6 0.0000 0.0000 0.0000 0.0000 0.0000 30.7548
#
#
#
# Elastic Compliance Matrix: (Units=1/GPa)
#
#
# Indices 1 2 3 4 5 6 
#
# 1 0.010646 -0.004807 -0.001910 0.000000 0.000000 0.000000
# 2 -0.004807 -0.005958 -0.006269 0.000000 0.000000 0.000000
# 3 -0.001910 -0.006269 0.011472 0.000000 0.000000 0.000000
# 4 0.000000 0.000000 0.000000 0.020629 0.000000 0.000000
# 5 0.000000 0.000000 0.000000 0.000000 0.032708 0.000000
# 6 0.000000 0.000000 0.000000 0.000000 0.000000 0.032515
#
#
# Mechanical properties :
#
#
# Convention : Reuss Voigt Hill
#
# Bulk Modulus (GPa) = -101.90017 -18.30560 -60.10289
# Shear Modulus (GPa) = 40.09182 32.48480 36.28831
#
# Velocity S-wave (km/s) = 4.62143 4.15995 4.39675
# Velocity P-wave (km/s) = 5.08007 3.64992 2.49852
#
# Compressibility (1/GPa) = -0.00981353
#
# Stress axis : x y z
#
# Youngs Moduli (GPa) = 93.93175 -167.83016 87.16721
#
# Poissons Ratio (x) = -0.80677 0.16651
# Poissons Ratio (y) = 0.45154 0.54649
# Poissons Ratio (z) = 0.17943 -1.05220
#
# Static dielectric constant tensor:
#      x y z
#    x 1.612190 0.000000 0.000000 
#    y 0.000000 1.662780 0.000000 
#    z 0.000000 0.000000 1.586400 
# 
# From -- ./inp_files/48082.got.cif
#   From: 2010.05.17/outbox.ucp.g08.bks.cvg/sg64_25_cif.got.tgz:48082.got - 2010.06.11 16:36:46.
