data_PCOD9482720
_publ_section_title
;
Structure prediction by ZEFSAII (Michael W. Deem and Ramdas Pophale) SiO2 
 PCOD9482720
Probable space group: C M M M
;
_chemical_formula_sum "Si O2"
_cell_formula_units_Z 80
_cell_length_a 30.456862
_cell_length_b 23.547117
_cell_length_c 8.568851
_cell_angle_alpha 90.000000
_cell_angle_beta 90.000000
_cell_angle_gamma 90.000000
_cell_volume 6145.333951
_symmetry_space_group_name_H-M "C M M M"
_symmetry_group_IT_number 65
_symmetry_cell_setting 'orthorhombic'
loop_
_space_group_symop_operation_xyz
x,y,z
-x,-y,z
x,-y,-z
-x,y,-z
-x,-y,-z
x,y,-z
-x,y,z
x,-y,z
1/2+x,1/2+y,z
1/2-x,1/2-y,z
1/2+x,1/2-y,-z
1/2-x,1/2+y,-z
1/2-x,1/2-y,-z
1/2+x,1/2+y,-z
1/2-x,1/2+y,z
1/2+x,1/2-y,z
loop_
_atom_site_type_symbol
_atom_site_label
_atom_site_fract_x
_atom_site_fract_y
_atom_site_fract_z
Si Si1 0.049669 0.565169 0.690040
Si Si2 0.768320 0.834815 0.685982
Si Si3 0.282713 0.933675 0.186995
Si Si4 0.633626 0.135537 0.312288
Si Si5 0.684068 0.764900 0.185948
O O1 0.049851 0.565346 0.500000
O O2 0.059039 0.500000 0.738052
O O3 0.087870 0.607633 0.740075
O O4 0.000000 0.579583 0.739754
O O5 0.769277 0.834502 0.500000
O O6 0.758542 0.897518 0.749686
O O7 0.725433 0.800015 0.744649
O O8 0.809234 0.798938 0.751964
O O9 0.326790 0.905721 0.257797
O O10 0.280258 0.000000 0.226688
O O11 0.284626 0.927491 0.000000
O O12 0.634768 0.138843 0.500000
O O13 0.643083 0.197867 0.243113
O O14 0.686871 0.765301 0.000000
#
# Coordination Sequence:
#
# PCOD9482720 Si02
#       5
#    16  16  16  16  16
#     4   8  14  24  37  53  72  93 118 151 190 225
#     4  10  17  26  39  53  69  88 116 149 178 209
#     4  10  19  28  37  51  73  98 121 146 180 219
#     4  10  17  25  39  56  71  89 120 157 187 216
#     4  10  17  26  38  51  70  92 114 142 181 221
#
# _framework density 13.018006
#
# number of rings (size 3 to 8) (size 9 to 14) (size 15 to 20)
#    0.000    2.400    0.000    9.600    0.000    2.400 
#    0.000    0.000    0.000    2.400    0.000    7.000 
#    0.000    0.000    0.000    0.000    0.000    1.000 
#
# Total GULP energy -222770.485873 kJ/mol
# GULP energy per Si atom -5569.262147 kJ/mol
# Density = 1.298838 g / cm^3
# Si number density = 13.018006 Si / 1000 Ang^3
#
#
#
# Elastic Constant Matrix: (Units=GPa)
#
#
# Indices 1 2 3 4 5 6 
#
# 1 67.1892 49.9792 14.2650 0.0000 0.0000 0.0000
# 2 49.9792 76.5813 23.9400 0.0000 0.0000 0.0000
# 3 14.2650 23.9400 53.4054 0.0000 0.0000 0.0000
# 4 0.0000 0.0000 0.0000 21.5256 0.0000 0.0000
# 5 0.0000 0.0000 0.0000 0.0000 36.3797 0.0000
# 6 0.0000 0.0000 0.0000 0.0000 0.0000 25.3144
#
#
#
# Elastic Compliance Matrix: (Units=1/GPa)
#
#
# Indices 1 2 3 4 5 6 
#
# 1 0.028959 -0.019168 0.000857 0.000000 0.000000 0.000000
# 2 -0.019168 0.027873 -0.007375 0.000000 0.000000 0.000000
# 3 0.000857 -0.007375 0.021802 0.000000 0.000000 0.000000
# 4 0.000000 0.000000 0.000000 0.046456 0.000000 0.000000
# 5 0.000000 0.000000 0.000000 0.000000 0.027488 0.000000
# 6 0.000000 0.000000 0.000000 0.000000 0.000000 0.039503
#
#
# Mechanical properties :
#
#
# Convention : Reuss Voigt Hill
#
# Bulk Modulus (GPa) = 36.67958 41.50492 39.09225
# Shear Modulus (GPa) = 19.79889 23.91007 21.85448
#
# Velocity S-wave (km/s) = 3.90408 4.29031 4.10175
# Velocity P-wave (km/s) = 6.96848 7.51627 7.24755
#
# Compressibility (1/GPa) = 0.02726312
#
# Stress axis : x y z
#
# Youngs Moduli (GPa) = 34.53117 35.87734 45.86815
#
# Poissons Ratio (x) = 0.68768 -0.03931
# Poissons Ratio (y) = 0.66188 0.33826
# Poissons Ratio (z) = -0.02959 0.26458
#
# Static dielectric constant tensor:
#      x y z
#    x 1.424120 0.000000 0.000000 
#    y 0.000000 1.455820 0.000000 
#    z 0.000000 0.000000 1.436940 
# 
# From -- ./inp_files/18427.got.cif
#   From: 2010.05.17/outbox.cif.g08.bks.cpg/sg65_10_cif.got.tgz:18427.got - 2010.06.03 17:01:31.
