data_PCOD9482553
_publ_section_title
;
Structure prediction by ZEFSAII (Michael W. Deem and Ramdas Pophale) SiO2 
 PCOD9482553
Probable space group: C M M M
;
_chemical_formula_sum "Si O2"
_cell_formula_units_Z 72
_cell_length_a 18.737131
_cell_length_b 8.675922
_cell_length_c 24.758258
_cell_angle_alpha 90.000000
_cell_angle_beta 90.000000
_cell_angle_gamma 90.000000
_cell_volume 4024.749141
_symmetry_space_group_name_H-M "C M M M"
_symmetry_group_IT_number 65
_symmetry_cell_setting 'orthorhombic'
loop_
_space_group_symop_operation_xyz
x,y,z
-x,-y,z
x,-y,-z
-x,y,-z
-x,-y,-z
x,y,-z
-x,y,z
x,-y,z
1/2+x,1/2+y,z
1/2-x,1/2-y,z
1/2+x,1/2-y,-z
1/2-x,1/2+y,-z
1/2-x,1/2-y,-z
1/2+x,1/2+y,-z
1/2-x,1/2+y,z
1/2+x,1/2-y,z
loop_
_atom_site_type_symbol
_atom_site_label
_atom_site_fract_x
_atom_site_fract_y
_atom_site_fract_z
Si Si1 0.416038 0.314734 0.059864
Si Si2 0.829813 0.316136 0.159940
Si Si3 0.669063 0.814886 0.721369
Si Si4 0.331364 0.315738 0.389005
Si Si5 0.668621 0.184577 0.500000
O O1 0.500000 0.277805 0.063566
O O2 0.409282 0.500000 0.062036
O O3 0.374658 0.243628 0.109732
O O4 0.390717 0.264443 0.000000
O O5 0.825439 0.500000 0.158182
O O6 0.750000 0.250000 0.156398
O O7 0.861311 0.275258 0.219382
O O8 0.750000 0.750000 0.723751
O O9 0.635559 0.741306 0.667574
O O10 0.671056 0.000000 0.715238
O O11 0.328964 0.500000 0.391313
O O12 0.250000 0.250000 0.387866
O O13 0.364055 0.247752 0.444146
O O14 0.750000 0.250000 0.500000
O O15 0.670706 0.000000 0.500000
#
# Coordination Sequence:
#
# PCOD9482553 Si02
#       5
#    16  16  16  16   8
#     4   9  19  36  55  73  95 124 156 191 234 283
#     4  10  20  32  49  72  97 125 158 196 235 279
#     4   9  16  26  38  55  79 108 142 179 222 268
#     4  10  16  22  32  47  68  98 137 178 219 263
#     4  10  16  22  30  42  64  96 135 178 219 260
#
# _framework density 17.889313000000001
#
# number of rings (size 3 to 8) (size 9 to 14) (size 15 to 20)
#    0.000    2.444    0.000    7.667    0.000    4.000 
#    0.000    1.111    0.000    0.000    0.000    0.000 
#    0.000    0.000    0.000    1.000    0.000   19.778 
#
# Total GULP energy -200511.809660 kJ/mol
# GULP energy per Si atom -5569.772491 kJ/mol
# Density = 1.784860 g / cm^3
# Si number density = 17.889313 Si / 1000 Ang^3
#
#
#
# Elastic Constant Matrix: (Units=GPa)
#
#
# Indices 1 2 3 4 5 6 
#
# 1 10.6163 16.5187 40.9518 0.0000 0.0000 0.0000
# 2 16.5187 108.6585 80.1427 0.0000 0.0000 0.0000
# 3 40.9518 80.1427 243.4244 0.0000 0.0000 0.0000
# 4 0.0000 0.0000 0.0000 21.7414 0.0000 0.0000
# 5 0.0000 0.0000 0.0000 0.0000 -8.5544 0.0000
# 6 0.0000 0.0000 0.0000 0.0000 0.0000 13.0319
#
#
#
# Elastic Compliance Matrix: (Units=1/GPa)
#
#
# Indices 1 2 3 4 5 6 
#
# 1 0.276633 -0.010209 -0.043178 0.000000 0.000000 0.000000
# 2 -0.010209 0.012531 -0.002408 0.000000 0.000000 0.000000
# 3 -0.043178 -0.002408 0.012165 0.000000 0.000000 0.000000
# 4 0.000000 0.000000 0.000000 0.045995 0.000000 0.000000
# 5 0.000000 0.000000 0.000000 0.000000 -0.116899 0.000000
# 6 0.000000 0.000000 0.000000 0.000000 0.000000 0.076735
#
#
# Mechanical properties :
#
#
# Convention : Reuss Voigt Hill
#
# Bulk Modulus (GPa) = 5.27036 70.88059 38.07547
# Shear Modulus (GPa) = 10.37353 20.24952 15.31153
#
# Velocity S-wave (km/s) = 2.41067 3.36807 2.92876
# Velocity P-wave (km/s) = 3.27123 7.40493 5.72424
#
# Compressibility (1/GPa) = 0.18974052
#
# Stress axis : x y z
#
# Youngs Moduli (GPa) = 3.61490 79.79977 82.20449
#
# Poissons Ratio (x) = 0.81464 3.54939
# Poissons Ratio (y) = 0.03690 0.19797
# Poissons Ratio (z) = 0.15608 0.19218
#
# Static dielectric constant tensor:
#      x y z
#    x 1.574940 0.000000 0.000000 
#    y 0.000000 1.596390 0.000000 
#    z 0.000000 0.000000 1.711910 
# 
# From -- ./inp_files/64364.got.cif
#   From: 2010.05.17/outbox.cif.g08.bks.cpg/sg65_33_cif.got.tgz:64364.got - 2010.06.03 17:01:31.
