data_PCOD9482637
_publ_section_title
;
Structure prediction by ZEFSAII (Michael W. Deem and Ramdas Pophale) SiO2 
 PCOD9482637
Probable space group: C M M M
;
_chemical_formula_sum "Si O2"
_cell_formula_units_Z 52
_cell_length_a 24.510122
_cell_length_b 7.447681
_cell_length_c 12.682781
_cell_angle_alpha 90.000000
_cell_angle_beta 90.000000
_cell_angle_gamma 90.000000
_cell_volume 2315.160120
_symmetry_space_group_name_H-M "C M M M"
_symmetry_group_IT_number 65
_symmetry_cell_setting 'orthorhombic'
loop_
_space_group_symop_operation_xyz
x,y,z
-x,-y,z
x,-y,-z
-x,y,-z
-x,-y,-z
x,y,-z
-x,y,z
x,-y,z
1/2+x,1/2+y,z
1/2-x,1/2-y,z
1/2+x,1/2-y,-z
1/2-x,1/2+y,-z
1/2-x,1/2-y,-z
1/2+x,1/2+y,-z
1/2-x,1/2+y,z
1/2+x,1/2-y,z
loop_
_atom_site_type_symbol
_atom_site_label
_atom_site_fract_x
_atom_site_fract_y
_atom_site_fract_z
Si Si1 0.370715 0.705842 0.000000
Si Si2 0.000000 0.258901 0.000000
Si Si3 0.395694 0.718510 0.619751
Si Si4 0.500000 0.719265 0.237677
Si Si5 0.186078 0.785096 0.209705
O O1 0.346121 0.786083 0.892933
O O2 0.351169 0.500000 0.000000
O O3 0.436137 0.697048 0.000000
O O4 0.000000 0.311798 0.124072
O O5 0.399752 0.783627 0.500000
O O6 0.395524 0.500000 0.614172
O O7 0.447324 0.763570 0.692725
O O8 0.342265 0.780100 0.683076
O O9 0.500000 0.500000 0.216845
O O10 0.250000 0.750000 0.202523
O O11 0.178350 0.000000 0.211122
#
# Coordination Sequence:
#
# PCOD9482637 Si02
#       5
#     8   4  16   8  16
#     4  10  18  29  46  71 100 124 153 197 248 289
#     4  12  17  24  46  74  99 122 151 196 249 294
#     4   9  17  28  43  66  96 126 156 195 243 288
#     4  10  16  24  41  67  98 125 150 191 249 297
#     4  10  20  33  49  70  97 130 163 197 235 279
#
# _framework density 22.460649
#
# number of rings (size 3 to 8) (size 9 to 14) (size 15 to 20)
#    0.000    2.154    3.077    2.308    0.000    2.462 
#    0.000    0.000    0.000    0.000    0.000    5.385 
#    0.000    2.462    0.000    0.000    0.000    0.000 
#
# Total GULP energy -144919.504445 kJ/mol
# GULP energy per Si atom -5573.827094 kJ/mol
# Density = 2.240953 g / cm^3
# Si number density = 22.460649 Si / 1000 Ang^3
#
#
#
# Elastic Constant Matrix: (Units=GPa)
#
#
# Indices 1 2 3 4 5 6 
#
# 1 152.0995 2.3053 96.5669 0.0000 0.0000 0.0000
# 2 2.3053 69.3211 24.1962 0.0000 0.0000 0.0000
# 3 96.5669 24.1962 257.2303 0.0000 0.0000 0.0000
# 4 0.0000 0.0000 0.0000 -29.1423 0.0000 0.0000
# 5 0.0000 0.0000 0.0000 0.0000 24.1472 0.0000
# 6 0.0000 0.0000 0.0000 0.0000 0.0000 538.5810
#
#
#
# Elastic Compliance Matrix: (Units=1/GPa)
#
#
# Indices 1 2 3 4 5 6 
#
# 1 0.008683 0.000878 -0.003342 0.000000 0.000000 0.000000
# 2 0.000878 0.015004 -0.001741 0.000000 0.000000 0.000000
# 3 -0.003342 -0.001741 0.005306 0.000000 0.000000 0.000000
# 4 0.000000 0.000000 0.000000 -0.034314 0.000000 0.000000
# 5 0.000000 0.000000 0.000000 0.000000 0.041413 0.000000
# 6 0.000000 0.000000 0.000000 0.000000 0.000000 0.001857
#
#
# Mechanical properties :
#
#
# Convention : Reuss Voigt Hill
#
# Bulk Modulus (GPa) = 48.58449 80.53196 64.55823
# Shear Modulus (GPa) = 93.94884 130.42268 112.18576
#
# Velocity S-wave (km/s) = 6.47449 7.62845 7.07504
# Velocity P-wave (km/s) = 8.80738 10.65474 9.77480
#
# Compressibility (1/GPa) = 0.02058270
#
# Stress axis : x y z
#
# Youngs Moduli (GPa) = 115.16200 66.64852 188.46212
#
# Poissons Ratio (x) = -0.05851 0.62992
# Poissons Ratio (y) = -0.10110 0.32810
# Poissons Ratio (z) = 0.38492 0.11603
#
# Static dielectric constant tensor:
#      x y z
#    x 1.768800 0.000000 0.000000 
#    y 0.000000 1.888840 0.000000 
#    z 0.000000 0.000000 1.813490 
# 
# From -- ./inp_files/28061.got.cif
#   From: 2010.05.17/outbox.cif.g08.bks.cpg/sg65_15_cif.got.tgz:28061.got - 2010.06.03 17:01:31.
