data_PCOD9482862
_publ_section_title
;
Structure prediction by ZEFSAII (Michael W. Deem and Ramdas Pophale) SiO2 
 PCOD9482862
Probable space group: C M M M
;
_chemical_formula_sum "Si O2"
_cell_formula_units_Z 80
_cell_length_a 9.133494
_cell_length_b 26.089512
_cell_length_c 23.131460
_cell_angle_alpha 90.000000
_cell_angle_beta 90.000000
_cell_angle_gamma 90.000000
_cell_volume 5511.958623
_symmetry_space_group_name_H-M "C M M M"
_symmetry_group_IT_number 65
_symmetry_cell_setting 'orthorhombic'
loop_
_space_group_symop_operation_xyz
x,y,z
-x,-y,z
x,-y,-z
-x,y,-z
-x,-y,-z
x,y,-z
-x,y,z
x,-y,z
1/2+x,1/2+y,z
1/2-x,1/2-y,z
1/2+x,1/2-y,-z
1/2-x,1/2+y,-z
1/2-x,1/2-y,-z
1/2+x,1/2+y,-z
1/2-x,1/2+y,z
1/2+x,1/2-y,z
loop_
_atom_site_type_symbol
_atom_site_label
_atom_site_fract_x
_atom_site_fract_y
_atom_site_fract_z
Si Si1 0.822553 0.102814 0.635231
Si Si2 0.174384 0.695389 0.431912
Si Si3 0.322283 0.500000 0.433874
Si Si4 0.178308 0.059365 0.757157
Si Si5 0.830626 0.062411 0.115856
Si Si6 0.668304 0.062461 0.000000
O O1 0.746212 0.151396 0.606742
O O2 0.780303 0.051466 0.599912
O O3 0.780674 0.092885 0.701965
O O4 0.000000 0.107909 0.632047
O O5 0.199820 0.683534 0.500000
O O6 0.250000 0.750000 0.420148
O O7 0.000000 0.698643 0.422858
O O8 0.500000 0.500000 0.434881
O O9 0.270110 0.500000 0.500000
O O10 0.227276 0.077613 0.820684
O O11 0.000000 0.058433 0.759193
O O12 0.223975 0.000000 0.748285
O O13 0.000000 0.077838 0.110516
O O14 0.828190 0.000000 0.116696
O O15 0.744810 0.079638 0.059202
O O16 0.500000 0.077336 0.000000
O O17 0.676009 0.000000 0.000000
#
# Coordination Sequence:
#
# PCOD9482862 Si02
#       6
#    16  16   8  16  16   8
#     4  10  17  28  47  68  90 114 143 177 213 255
#     4  10  21  36  51  66  84 108 141 181 224 267
#     4   9  16  24  39  65  91 114 141 170 204 251
#     4   8  13  23  39  60  83 110 143 176 205 244
#     4   8  13  21  34  49  69 100 139 175 205 237
#     4   9  15  21  29  45  69  97 134 177 216 245
#
# _framework density 14.513897
#
# number of rings (size 3 to 8) (size 9 to 14) (size 15 to 20)
#    0.000    3.000    1.000    2.700    0.000    3.200 
#    0.000    1.500    0.000    3.000    0.000    0.000 
#    0.000    0.000    0.000    0.900    0.000   10.100 
#
# Total GULP energy -222673.755979 kJ/mol
# GULP energy per Si atom -5566.843899 kJ/mol
# Density = 1.448086 g / cm^3
# Si number density = 14.513897 Si / 1000 Ang^3
#
#
#
# Elastic Constant Matrix: (Units=GPa)
#
#
# Indices 1 2 3 4 5 6 
#
# 1 44.9199 33.2759 58.6983 0.0000 0.0000 0.0000
# 2 33.2759 68.8144 66.7272 0.0000 0.0000 0.0000
# 3 58.6983 66.7272 167.2516 0.0000 0.0000 0.0000
# 4 0.0000 0.0000 0.0000 10.9004 0.0000 0.0000
# 5 0.0000 0.0000 0.0000 0.0000 12.1339 0.0000
# 6 0.0000 0.0000 0.0000 0.0000 0.0000 17.1687
#
#
#
# Elastic Compliance Matrix: (Units=1/GPa)
#
#
# Indices 1 2 3 4 5 6 
#
# 1 0.045421 -0.010612 -0.011707 0.000000 0.000000 0.000000
# 2 -0.010612 0.026180 -0.006721 0.000000 0.000000 0.000000
# 3 -0.011707 -0.006721 0.012769 0.000000 0.000000 0.000000
# 4 0.000000 0.000000 0.000000 0.091740 0.000000 0.000000
# 5 0.000000 0.000000 0.000000 0.000000 0.082414 0.000000
# 6 0.000000 0.000000 0.000000 0.000000 0.000000 0.058246
#
#
# Mechanical properties :
#
#
# Convention : Reuss Voigt Hill
#
# Bulk Modulus (GPa) = 38.03572 66.48763 52.26168
# Shear Modulus (GPa) = 13.03401 16.19290 14.61346
#
# Velocity S-wave (km/s) = 2.99998 3.34381 3.17655
# Velocity P-wave (km/s) = 6.18572 7.79853 7.03848
#
# Compressibility (1/GPa) = 0.02629107
#
# Stress axis : x y z
#
# Youngs Moduli (GPa) = 22.01626 38.19712 78.31456
#
# Poissons Ratio (x) = 0.40533 0.91684
# Poissons Ratio (y) = 0.23363 0.52632
# Poissons Ratio (z) = 0.25775 0.25671
#
# Static dielectric constant tensor:
#      x y z
#    x 1.482740 0.000000 0.000000 
#    y 0.000000 1.441800 0.000000 
#    z 0.000000 0.000000 1.506840 
# 
# From -- ./inp_files/67380.got.cif
#   From: 2010.05.17/outbox.cif.g08.bks.cpg/sg65_34_cif.got.tgz:67380.got - 2010.06.03 17:01:31.
