data_PCOD9482336
_publ_section_title
;
Structure prediction by ZEFSAII (Michael W. Deem and Ramdas Pophale) SiO2 
 PCOD9482336
Probable space group: C M C A
;
_chemical_formula_sum "Si O2"
_cell_formula_units_Z 80
_cell_length_a 7.663229
_cell_length_b 26.938916
_cell_length_c 20.138388
_cell_angle_alpha 90.000000
_cell_angle_beta 90.000000
_cell_angle_gamma 90.000000
_cell_volume 4157.350338
_symmetry_space_group_name_H-M "C M C A"
_symmetry_group_IT_number 64
_symmetry_cell_setting 'orthorhombic'
loop_
_space_group_symop_operation_xyz
x,y,z
-x,1/2-y,1/2+z
x,-y,-z
-x,1/2+y,1/2-z
-x,-y,-z
x,1/2+y,1/2-z
-x,y,z
x,1/2-y,1/2+z
1/2+x,1/2+y,z
1/2-x,-y,1/2+z
1/2+x,1/2-y,-z
1/2-x,y,1/2-z
1/2-x,1/2-y,-z
1/2+x,y,1/2-z
1/2-x,1/2+y,z
1/2+x,-y,1/2+z
loop_
_atom_site_type_symbol
_atom_site_label
_atom_site_fract_x
_atom_site_fract_y
_atom_site_fract_z
Si Si1 0.792999 0.752421 0.921548
Si Si2 0.789764 0.555454 0.173467
Si Si3 0.709546 0.056508 0.826534
Si Si4 0.214573 0.355800 0.078259
Si Si5 0.205654 0.361307 0.926090
O O1 0.730243 0.698819 0.895846
O O2 0.723816 0.805442 0.897927
O O3 0.000000 0.754212 0.913296
O O4 0.750000 0.750000 0.000000
O O5 0.750000 0.567499 0.250000
O O6 0.724727 0.499418 0.159782
O O7 0.721417 0.596803 0.122678
O O8 0.000000 0.554233 0.167765
O O9 0.500000 0.055138 0.833503
O O10 0.750000 0.068172 0.750000
O O11 0.773929 0.099048 0.875927
O O12 0.000000 0.355323 0.077620
O O13 0.274449 0.362090 0.001779
O O14 0.000000 0.371015 0.932466
#
# Coordination Sequence:
#
# PCOD9482336 Si02
#       5
#    16  16  16  16  16
#     4   9  16  28  46  68  93 121 149 183 226 271
#     4   9  18  31  48  67  90 119 151 185 226 272
#     4   9  17  31  48  66  89 119 149 183 226 271
#     4   8  15  28  47  68  90 114 147 186 223 262
#     4   9  17  30  47  69  92 117 151 189 224 266
#
# _framework density 19.243027000000001
#
# number of rings (size 3 to 8) (size 9 to 14) (size 15 to 20)
#    0.000    3.200    0.000    1.800    0.000    1.600 
#    0.000   10.000    0.000    4.800    0.000   11.200 
#    0.000    0.000    0.000    0.000    0.000    0.000 
#
# Total GULP energy -222759.651188 kJ/mol
# GULP energy per Si atom -5568.991280 kJ/mol
# Density = 1.919923 g / cm^3
# Si number density = 19.243027 Si / 1000 Ang^3
#
#
#
# Elastic Constant Matrix: (Units=GPa)
#
#
# Indices 1 2 3 4 5 6 
#
# 1 31.0733 -0.1821 1.4978 0.0000 0.0000 0.0000
# 2 -0.1821 195.8271 111.3318 0.0000 0.0000 0.0000
# 3 1.4978 111.3318 85.2372 0.0000 0.0000 0.0000
# 4 0.0000 0.0000 0.0000 -46.3822 0.0000 0.0000
# 5 0.0000 0.0000 0.0000 0.0000 17.6765 0.0000
# 6 0.0000 0.0000 0.0000 0.0000 0.0000 18.2125
#
#
#
# Elastic Compliance Matrix: (Units=1/GPa)
#
#
# Indices 1 2 3 4 5 6 
#
# 1 0.032304 0.001370 -0.002357 0.000000 0.000000 0.000000
# 2 0.001370 0.019895 -0.026009 0.000000 0.000000 0.000000
# 3 -0.002357 -0.026009 0.045745 0.000000 0.000000 0.000000
# 4 0.000000 0.000000 0.000000 -0.021560 0.000000 0.000000
# 5 0.000000 0.000000 0.000000 0.000000 0.056572 0.000000
# 6 0.000000 0.000000 0.000000 0.000000 0.000000 0.054907
#
#
# Mechanical properties :
#
#
# Convention : Reuss Voigt Hill
#
# Bulk Modulus (GPa) = 22.75279 59.71473 41.23376
# Shear Modulus (GPa) = 19.49268 11.20070 15.34669
#
# Velocity S-wave (km/s) = 3.18618 2.41522 2.82710
# Velocity P-wave (km/s) = 5.03837 6.23514 5.66843
#
# Compressibility (1/GPa) = 0.04395066
#
# Stress axis : x y z
#
# Youngs Moduli (GPa) = 30.95623 50.26464 21.86015
#
# Poissons Ratio (x) = -0.06888 0.05153
# Poissons Ratio (y) = -0.04242 0.56857
# Poissons Ratio (z) = 0.07298 1.30735
#
# Static dielectric constant tensor:
#      x y z
#    x 1.732260 0.000000 0.000000 
#    y 0.000000 1.712620 0.000000 
#    z 0.000000 0.000000 1.632480 
# 
# From -- ./inp_files/29797.got.cif
#   From: 2010.05.17/outbox.cif.g08.bks.cpg/sg64_15_cif.got.tgz:29797.got - 2010.06.03 16:29:19.
