data_PCOD9482278
_publ_section_title
;
Structure prediction by ZEFSAII (Michael W. Deem and Ramdas Pophale) SiO2 
 PCOD9482278
Probable space group: C M C A
;
_chemical_formula_sum "Si O2"
_cell_formula_units_Z 48
_cell_length_a 9.675485
_cell_length_b 17.566053
_cell_length_c 13.378390
_cell_angle_alpha 90.000000
_cell_angle_beta 90.000000
_cell_angle_gamma 90.000000
_cell_volume 2273.792266
_symmetry_space_group_name_H-M "C M C A"
_symmetry_group_IT_number 64
_symmetry_cell_setting 'orthorhombic'
loop_
_space_group_symop_operation_xyz
x,y,z
-x,1/2-y,1/2+z
x,-y,-z
-x,1/2+y,1/2-z
-x,-y,-z
x,1/2+y,1/2-z
-x,y,z
x,1/2-y,1/2+z
1/2+x,1/2+y,z
1/2-x,-y,1/2+z
1/2+x,1/2-y,-z
1/2-x,y,1/2-z
1/2-x,1/2-y,-z
1/2+x,y,1/2-z
1/2-x,1/2+y,z
1/2+x,-y,1/2+z
loop_
_atom_site_type_symbol
_atom_site_label
_atom_site_fract_x
_atom_site_fract_y
_atom_site_fract_z
Si Si1 0.500000 0.850712 0.311437
Si Si2 0.000000 0.179409 0.373356
Si Si3 0.703538 0.474820 0.108458
Si Si4 0.250000 0.106517 0.250000
Si Si5 0.000000 0.100019 0.592035
O O1 0.500000 0.770474 0.366745
O O2 0.370959 0.901517 0.346639
O O3 0.500000 0.845940 0.190550
O O4 0.862797 0.152255 0.313832
O O5 0.000000 0.144528 0.485874
O O6 0.675365 0.547537 0.176477
O O7 0.865210 0.453134 0.101118
O O8 0.656513 0.500000 0.000000
#
# Coordination Sequence:
#
# PCOD9482278 Si02
#       5
#     8   8  16   8   8
#     4  12  28  46  71 110 148 185 236 301 357 426
#     4  12  30  46  72 108 150 186 231 304 370 421
#     4  12  24  45  77 104 139 193 248 288 345 430
#     4  12  24  46  74 106 138 186 246 292 342 432
#     4  12  24  47  75 101 147 192 234 291 370 415
#
# _framework density 21.110106999999999
#
# number of rings (size 3 to 8) (size 9 to 14) (size 15 to 20)
#    0.000    0.000    6.667    3.000    4.667    4.000 
#    0.000    0.000    0.000    0.000    0.000    0.000 
#    0.000    0.000    0.000    0.000    0.000    0.000 
#
# Total GULP energy -134268.402058 kJ/mol
# GULP energy per Si atom -5594.516752 kJ/mol
# Density = 2.106206 g / cm^3
# Si number density = 21.110107 Si / 1000 Ang^3
#
#
#
# Elastic Constant Matrix: (Units=GPa)
#
#
# Indices 1 2 3 4 5 6 
#
# 1 149.1643 49.4795 31.5978 0.0000 0.0000 0.0000
# 2 49.4795 118.8538 32.7163 0.0000 0.0000 0.0000
# 3 31.5978 32.7163 166.3628 0.0000 0.0000 0.0000
# 4 0.0000 0.0000 0.0000 32.2085 0.0000 0.0000
# 5 0.0000 0.0000 0.0000 0.0000 -10.9134 0.0000
# 6 0.0000 0.0000 0.0000 0.0000 0.0000 158.2887
#
#
#
# Elastic Compliance Matrix: (Units=1/GPa)
#
#
# Indices 1 2 3 4 5 6 
#
# 1 0.007904 -0.003042 -0.000903 0.000000 0.000000 0.000000
# 2 -0.003042 0.010066 -0.001402 0.000000 0.000000 0.000000
# 3 -0.000903 -0.001402 0.006458 0.000000 0.000000 0.000000
# 4 0.000000 0.000000 0.000000 0.031048 0.000000 0.000000
# 5 0.000000 0.000000 0.000000 0.000000 -0.091631 0.000000
# 6 0.000000 0.000000 0.000000 0.000000 0.000000 0.006318
#
#
# Mechanical properties :
#
#
# Convention : Reuss Voigt Hill
#
# Bulk Modulus (GPa) = 72.80794 73.55200 73.17997
# Shear Modulus (GPa) = -343.28787 57.28925 -142.99931
#
# Velocity S-wave (km/s) = -12.76600 5.21510 -8.23934
# Velocity P-wave (km/s) = 13.51776 8.43686 7.46824
#
# Compressibility (1/GPa) = 0.01373477
#
# Stress axis : x y z
#
# Youngs Moduli (GPa) = 126.51176 99.34456 154.84331
#
# Poissons Ratio (x) = 0.30221 0.13983
# Poissons Ratio (y) = 0.38486 0.21705
# Poissons Ratio (z) = 0.11425 0.13926
#
# Static dielectric constant tensor:
#      x y z
#    x 1.775650 0.000000 0.000000 
#    y 0.000000 1.699100 0.000000 
#    z 0.000000 0.000000 1.696870 
# 
# From -- ./inp_files/20529.got.cif
#   From: 2010.05.17/outbox.cif.g08.bks.cpg/sg64_11_cif.got.tgz:20529.got - 2010.06.03 16:29:19.
