data_PCOD9482353
_publ_section_title
;
Structure prediction by ZEFSAII (Michael W. Deem and Ramdas Pophale) SiO2 
 PCOD9482353
Probable space group: C M C A
;
_chemical_formula_sum "Si O2"
_cell_formula_units_Z 32
_cell_length_a 9.000000
_cell_length_b 21.000000
_cell_length_c 18.000000
_cell_angle_alpha 90.000000
_cell_angle_beta 90.000000
_cell_angle_gamma 90.000000
_cell_volume 3402.000000
_symmetry_space_group_name_H-M "C M C A"
_symmetry_group_IT_number 64
_symmetry_cell_setting 'orthorhombic'
loop_
_space_group_symop_operation_xyz
x,y,z
-x,1/2-y,1/2+z
x,-y,-z
-x,1/2+y,1/2-z
-x,-y,-z
x,1/2+y,1/2-z
-x,y,z
x,1/2-y,1/2+z
1/2+x,1/2+y,z
1/2-x,-y,1/2+z
1/2+x,1/2-y,-z
1/2-x,y,1/2-z
1/2-x,1/2-y,-z
1/2+x,y,1/2-z
1/2-x,1/2+y,z
1/2+x,-y,1/2+z
loop_
_atom_site_type_symbol
_atom_site_label
_atom_site_fract_x
_atom_site_fract_y
_atom_site_fract_z
Si Si1 0.325013 0.239145 0.921008
Si Si2 0.820945 0.004629 0.333262
Si Si3 0.674485 0.630309 0.170058
Si Si4 0.679105 0.124310 0.667636
O O1 0.500000 0.222210 0.926836
O O2 0.315527 0.305345 0.876347
O O3 0.235008 0.184381 0.878611
O O4 0.250000 0.250000 0.000000
O O5 0.750000 0.006480 0.250000
O O6 0.749093 0.940625 0.365942
O O7 0.000000 0.001536 0.331037
O O8 0.761349 0.070824 0.366562
O O9 0.500000 0.613743 0.179818
O O10 0.750000 0.641913 0.250000
O O11 0.500000 0.120476 0.671968
O O12 0.750000 0.130643 0.750000
#
# Coordination Sequence:
#
# PCOD9482353 Si02
#       4
#    16  16  16  16
#     4  11  24  40  57  80 112 149 188 230 278 330
#     4  10  18  31  54  83 113 142 178 225 274 325
#     4  10  20  35  57  84 112 143 181 225 273 326
#     4  11  21  36  59  85 114 146 184 229 275 327
#
# _framework density 9.4062319999999993
#
# number of rings (size 3 to 8) (size 9 to 14) (size 15 to 20)
#    0.000    1.500    0.000    9.750    0.000    6.000 
#    0.000    1.250    0.000    7.500    0.000    0.000 
#    0.000    0.000    0.000    0.000    0.000    0.000 
#
# Total GULP energy -178675.011838 kJ/mol
# GULP energy per Si atom -5583.594120 kJ/mol
# Density = 0.938482 g / cm^3
# Si number density = 9.406232 Si / 1000 Ang^3
#
#
#
# Elastic Constant Matrix: (Units=GPa)
#
#
# Indices 1 2 3 4 5 6 
#
# 1 229.6075 85.7235 42.4672 0.0000 0.0000 0.0000
# 2 85.7235 129.7757 35.1503 0.0000 0.0000 0.0000
# 3 42.4672 35.1503 53.8130 0.0000 0.0000 0.0000
# 4 0.0000 0.0000 0.0000 -21.4765 0.0000 0.0000
# 5 0.0000 0.0000 0.0000 0.0000 25.1635 0.0000
# 6 0.0000 0.0000 0.0000 0.0000 0.0000 38.9908
#
#
#
# Elastic Compliance Matrix: (Units=1/GPa)
#
#
# Indices 1 2 3 4 5 6 
#
# 1 0.006075 -0.003298 -0.002640 0.000000 0.000000 0.000000
# 2 -0.003298 0.011152 -0.004682 0.000000 0.000000 0.000000
# 3 -0.002640 -0.004682 0.023725 0.000000 0.000000 0.000000
# 4 0.000000 0.000000 0.000000 -0.046562 0.000000 0.000000
# 5 0.000000 0.000000 0.000000 0.000000 0.039740 0.000000
# 6 0.000000 0.000000 0.000000 0.000000 0.000000 0.025647
#
#
# Mechanical properties :
#
#
# Convention : Reuss Voigt Hill
#
# Bulk Modulus (GPa) = 50.73058 82.20869 66.46964
# Shear Modulus (GPa) = 57.08681 25.19255 41.13968
#
# Velocity S-wave (km/s) = 5.51462 3.66340 4.68143
# Velocity P-wave (km/s) = 8.22029 7.85416 8.03931
#
# Compressibility (1/GPa) = 0.01971198
#
# Stress axis : x y z
#
# Youngs Moduli (GPa) = 164.61764 89.67006 42.15044
#
# Poissons Ratio (x) = 0.29570 0.11128
# Poissons Ratio (y) = 0.54284 0.19735
# Poissons Ratio (z) = 0.43458 0.41984
#
# Static dielectric constant tensor:
#      x y z
#    x 1.619750 0.000000 0.000000 
#    y 0.000000 1.724270 0.000000 
#    z 0.000000 0.000000 1.645400 
# 
# From -- ./inp_files/20888.got.cif
#   From: 2010.05.17/outbox.ucp.g08.bks.cvg/sg64_11_cif.got.tgz:20888.got - 2010.06.11 16:36:46.
