data_PCOD9482714
_publ_section_title
;
Structure prediction by ZEFSAII (Michael W. Deem and Ramdas Pophale) SiO2 
 PCOD9482714
Probable space group: C M M M
;
_chemical_formula_sum "Si O2"
_cell_formula_units_Z 96
_cell_length_a 33.020820
_cell_length_b 15.435258
_cell_length_c 8.554704
_cell_angle_alpha 90.000000
_cell_angle_beta 90.000000
_cell_angle_gamma 90.000000
_cell_volume 4360.203248
_symmetry_space_group_name_H-M "C M M M"
_symmetry_group_IT_number 65
_symmetry_cell_setting 'orthorhombic'
loop_
_space_group_symop_operation_xyz
x,y,z
-x,-y,z
x,-y,-z
-x,y,-z
-x,-y,-z
x,y,-z
-x,y,z
x,-y,z
1/2+x,1/2+y,z
1/2-x,1/2-y,z
1/2+x,1/2-y,-z
1/2-x,1/2+y,-z
1/2-x,1/2-y,-z
1/2+x,1/2+y,-z
1/2-x,1/2+y,z
1/2+x,1/2-y,z
loop_
_atom_site_type_symbol
_atom_site_label
_atom_site_fract_x
_atom_site_fract_y
_atom_site_fract_z
Si Si1 0.870057 0.876108 0.000000
Si Si2 0.173785 0.297851 0.000000
Si Si3 0.663540 0.901661 0.320844
Si Si4 0.422028 0.167389 0.671886
Si Si5 0.279238 0.373527 0.000000
Si Si6 0.626695 0.347986 0.672164
Si Si7 0.500000 0.096918 0.818177
Si Si8 0.274934 0.340240 0.671525
O O1 0.864098 0.769898 0.000000
O O2 0.886510 0.897551 0.170718
O O3 0.824375 0.910785 0.000000
O O4 0.174893 0.351314 0.161025
O O5 0.210394 0.229626 0.000000
O O6 0.673034 0.866681 0.500000
O O7 0.614737 0.899608 0.311492
O O8 0.678300 0.000000 0.315463
O O9 0.439916 0.158820 0.500000
O O10 0.398661 0.259147 0.677161
O O11 0.459276 0.149459 0.781671
O O12 0.261944 0.391199 0.828388
O O13 0.620811 0.387508 0.500000
O O14 0.675701 0.329699 0.684592
O O15 0.500000 0.000000 0.742673
O O16 0.500000 0.084244 0.000000
O O17 0.268086 0.380614 0.500000
O O18 0.250000 0.250000 0.671013
#
# Coordination Sequence:
#
# PCOD9482714 Si02
#       8
#     8   8  16  16   8  16   8  16
#     4   8  14  22  36  48  61  82  97 119 142 166
#     4  10  17  25  38  50  64  85 103 125 149 185
#     4  10  19  28  39  53  65  78  99 131 167 202
#     4  10  19  32  44  50  62  82 104 130 165 209
#     4   8  15  23  32  46  65  86 105 119 136 165
#     4   9  16  26  39  54  68  84 105 122 144 186
#     4  11  25  35  41  53  65  79 103 145 187 215
#     4   9  15  23  36  54  74  89 100 117 141 172
#
# _framework density 22.017320999999999
#
# number of rings (size 3 to 8) (size 9 to 14) (size 15 to 20)
#    0.500    2.083    1.667    1.250    2.333    2.000 
#    0.000    0.000    0.000    0.000    0.000    0.000 
#    0.000    0.000    0.000    0.000    0.000    0.000 
#
# Total GULP energy -267204.294185 kJ/mol
# GULP energy per Si atom -5566.756129 kJ/mol
# Density = 2.196721 g / cm^3
# Si number density = 22.017321 Si / 1000 Ang^3
#
#
#
# Elastic Constant Matrix: (Units=GPa)
#
#
# Indices 1 2 3 4 5 6 
#
# 1 91.7903 13.7572 22.1212 0.0000 0.0000 0.0000
# 2 13.7572 74.8860 45.6115 0.0000 0.0000 0.0000
# 3 22.1212 45.6115 238.8465 0.0000 0.0000 0.0000
# 4 0.0000 0.0000 0.0000 -53.5553 0.0000 0.0000
# 5 0.0000 0.0000 0.0000 0.0000 5.6376 0.0000
# 6 0.0000 0.0000 0.0000 0.0000 0.0000 111.6109
#
#
#
# Elastic Compliance Matrix: (Units=1/GPa)
#
#
# Indices 1 2 3 4 5 6 
#
# 1 0.011316 -0.001630 -0.000737 0.000000 0.000000 0.000000
# 2 -0.001630 0.015346 -0.002780 0.000000 0.000000 0.000000
# 3 -0.000737 -0.002780 0.004786 0.000000 0.000000 0.000000
# 4 0.000000 0.000000 0.000000 -0.018672 0.000000 0.000000
# 5 0.000000 0.000000 0.000000 0.000000 0.177381 0.000000
# 6 0.000000 0.000000 0.000000 0.000000 0.000000 0.008960
#
#
# Mechanical properties :
#
#
# Convention : Reuss Voigt Hill
#
# Bulk Modulus (GPa) = 47.26976 63.16696 55.21836
# Shear Modulus (GPa) = 23.09880 34.34082 28.71981
#
# Velocity S-wave (km/s) = 3.24253 3.95361 3.61559
# Velocity P-wave (km/s) = 5.96109 7.04225 6.52411
#
# Compressibility (1/GPa) = 0.02115517
#
# Stress axis : x y z
#
# Youngs Moduli (GPa) = 88.36822 65.16313 208.95001
#
# Poissons Ratio (x) = 0.10623 0.15395
# Poissons Ratio (y) = 0.14405 0.58080
# Poissons Ratio (z) = 0.06511 0.18113
#
# Static dielectric constant tensor:
#      x y z
#    x 1.765720 0.000000 0.000000 
#    y 0.000000 1.816370 0.000000 
#    z 0.000000 0.000000 1.924820 
# 
# From -- ./inp_files/16724.got.cif
#   From: 2010.05.17/outbox.cif.g08.bks.cpg/sg65_9_cif.got.tgz:16724.got - 2010.06.03 17:01:31.
