data_PCOD9482741
_publ_section_title
;
Structure prediction by ZEFSAII (Michael W. Deem and Ramdas Pophale) SiO2 
 PCOD9482741
Probable space group: C M M M
;
_chemical_formula_sum "Si O2"
_cell_formula_units_Z 80
_cell_length_a 31.095310
_cell_length_b 8.737738
_cell_length_c 21.244720
_cell_angle_alpha 90.000000
_cell_angle_beta 90.000000
_cell_angle_gamma 90.000000
_cell_volume 5772.247186
_symmetry_space_group_name_H-M "C M M M"
_symmetry_group_IT_number 65
_symmetry_cell_setting 'orthorhombic'
loop_
_space_group_symop_operation_xyz
x,y,z
-x,-y,z
x,-y,-z
-x,y,-z
-x,-y,-z
x,y,-z
-x,y,z
x,-y,z
1/2+x,1/2+y,z
1/2-x,1/2-y,z
1/2+x,1/2-y,-z
1/2-x,1/2+y,-z
1/2-x,1/2-y,-z
1/2+x,1/2+y,-z
1/2-x,1/2+y,z
1/2+x,1/2-y,z
loop_
_atom_site_type_symbol
_atom_site_label
_atom_site_fract_x
_atom_site_fract_y
_atom_site_fract_z
Si Si1 0.297876 0.318154 0.826927
Si Si2 0.362522 0.819063 0.925403
Si Si3 0.298536 0.683284 0.430847
Si Si4 0.201344 0.317151 0.696846
Si Si5 0.047448 0.821084 0.076278
O O1 0.294596 0.500000 0.819964
O O2 0.250000 0.250000 0.836125
O O3 0.327984 0.272118 0.884730
O O4 0.316830 0.246162 0.762387
O O5 0.410770 0.773269 0.904506
O O6 0.355886 0.000000 0.917272
O O7 0.358586 0.783838 0.000000
O O8 0.317912 0.717128 0.500000
O O9 0.296214 0.500000 0.423625
O O10 0.250000 0.750000 0.433213
O O11 0.318894 0.756245 0.368287
O O12 0.202726 0.500000 0.697002
O O13 0.250000 0.250000 0.696903
O O14 0.000000 0.769135 0.098100
O O15 0.052696 0.000000 0.093272
O O16 0.046518 0.814586 0.000000
#
# Coordination Sequence:
#
# PCOD9482741 Si02
#       5
#    16  16  16  16  16
#     4  11  21  33  46  57  74 101 135 171 206 242
#     4  10  20  32  45  62  82 102 129 165 203 242
#     4   9  15  22  33  50  71  93 119 152 189 227
#     4  10  17  26  39  53  71  94 124 159 195 234
#     4   8  14  26  44  64  84 104 125 151 188 235
#
# _framework density 13.859420999999999
#
# number of rings (size 3 to 8) (size 9 to 14) (size 15 to 20)
#    0.000    2.400    0.000    7.800    0.000    3.200 
#    0.000    2.000    0.000    0.000    0.000    0.000 
#    0.000    0.000    0.000    0.000    0.000    1.000 
#
# Total GULP energy -222680.907220 kJ/mol
# GULP energy per Si atom -5567.022680 kJ/mol
# Density = 1.382788 g / cm^3
# Si number density = 13.859421 Si / 1000 Ang^3
#
#
#
# Elastic Constant Matrix: (Units=GPa)
#
#
# Indices 1 2 3 4 5 6 
#
# 1 43.6173 26.8146 27.1445 0.0000 0.0000 0.0000
# 2 26.8146 100.9740 45.8840 0.0000 0.0000 0.0000
# 3 27.1445 45.8840 72.3955 0.0000 0.0000 0.0000
# 4 0.0000 0.0000 0.0000 17.8114 0.0000 0.0000
# 5 0.0000 0.0000 0.0000 0.0000 -0.6240 0.0000
# 6 0.0000 0.0000 0.0000 0.0000 0.0000 17.2516
#
#
#
# Elastic Compliance Matrix: (Units=1/GPa)
#
#
# Indices 1 2 3 4 5 6 
#
# 1 0.031100 -0.004157 -0.009026 0.000000 0.000000 0.000000
# 2 -0.004157 0.014465 -0.007609 0.000000 0.000000 0.000000
# 3 -0.009026 -0.007609 0.022020 0.000000 0.000000 0.000000
# 4 0.000000 0.000000 0.000000 0.056144 0.000000 0.000000
# 5 0.000000 0.000000 0.000000 0.000000 -1.602670 0.000000
# 6 0.000000 0.000000 0.000000 0.000000 0.000000 0.057966
#
#
# Mechanical properties :
#
#
# Convention : Reuss Voigt Hill
#
# Bulk Modulus (GPa) = 38.46156 46.29702 42.37929
# Shear Modulus (GPa) = -3.64771 14.69738 5.52484
#
# Velocity S-wave (km/s) = -1.62408 3.26001 1.99875
# Velocity P-wave (km/s) = 4.92895 6.90271 5.99758
#
# Compressibility (1/GPa) = 0.02599998
#
# Stress axis : x y z
#
# Youngs Moduli (GPa) = 32.15483 69.13075 45.41340
#
# Poissons Ratio (x) = 0.28740 0.40989
# Poissons Ratio (y) = 0.13368 0.34556
# Poissons Ratio (z) = 0.29022 0.52604
#
# Static dielectric constant tensor:
#      x y z
#    x 1.437590 0.000000 0.000000 
#    y 0.000000 1.463660 0.000000 
#    z 0.000000 0.000000 1.509710 
# 
# From -- ./inp_files/50129.got.cif
#   From: 2010.05.17/outbox.cif.g08.bks.cpg/sg65_26_cif.got.tgz:50129.got - 2010.06.03 17:01:31.
