data_PCOD9482672
_publ_section_title
;
Structure prediction by ZEFSAII (Michael W. Deem and Ramdas Pophale) SiO2 
 PCOD9482672
Probable space group: C M M M
;
_chemical_formula_sum "Si O2"
_cell_formula_units_Z 128
_cell_length_a 20.600059
_cell_length_b 20.459031
_cell_length_c 18.741557
_cell_angle_alpha 90.000000
_cell_angle_beta 90.000000
_cell_angle_gamma 90.000000
_cell_volume 7898.764993
_symmetry_space_group_name_H-M "C M M M"
_symmetry_group_IT_number 65
_symmetry_cell_setting 'orthorhombic'
loop_
_space_group_symop_operation_xyz
x,y,z
-x,-y,z
x,-y,-z
-x,y,-z
-x,-y,-z
x,y,-z
-x,y,z
x,-y,z
1/2+x,1/2+y,z
1/2-x,1/2-y,z
1/2+x,1/2-y,-z
1/2-x,1/2+y,-z
1/2-x,1/2-y,-z
1/2+x,1/2+y,-z
1/2-x,1/2+y,z
1/2+x,1/2-y,z
loop_
_atom_site_type_symbol
_atom_site_label
_atom_site_fract_x
_atom_site_fract_y
_atom_site_fract_z
Si Si1 0.573564 0.208322 0.691245
Si Si2 0.704882 0.687866 0.165259
Si Si3 0.768258 0.074105 0.414980
Si Si4 0.799138 0.573059 0.833415
Si Si5 0.427252 0.110327 0.917198
Si Si6 0.857455 0.574060 0.323077
Si Si7 0.690617 0.298465 0.664234
Si Si8 0.927224 0.751409 0.142993
O O1 0.500000 0.221675 0.669987
O O2 0.592612 0.133512 0.675877
O O3 0.625057 0.256964 0.655647
O O4 0.578794 0.221226 0.776753
O O5 0.750000 0.750000 0.148156
O O6 0.745735 0.625010 0.142792
O O7 0.697828 0.686338 0.251388
O O8 0.633217 0.700131 0.134263
O O9 0.771148 0.079608 0.500000
O O10 0.694304 0.079630 0.386776
O O11 0.805899 0.133936 0.378406
O O12 0.789945 0.000000 0.394779
O O13 0.774753 0.500000 0.843348
O O14 0.867527 0.581365 0.873777
O O15 0.816261 0.582837 0.749965
O O16 0.500000 0.092071 0.890861
O O17 0.422310 0.188800 0.908258
O O18 0.422873 0.092220 0.000000
O O19 0.884424 0.500000 0.322140
O O20 0.750000 0.250000 0.644617
O O21 0.000000 0.779532 0.136508
#
# Coordination Sequence:
#
# PCOD9482672 Si02
#       8
#    16  16  16  16  16  16  16  16
#     4  10  18  30  49  75 102 128 164 210 252 293
#     4  10  16  29  51  73  97 127 164 210 259 294
#     4  10  20  33  51  76 103 130 166 211 254 299
#     4  11  20  31  49  73 100 133 172 212 250 294
#     4  10  20  34  50  71 105 143 172 202 244 298
#     4  10  18  31  49  72 102 135 170 204 243 297
#     4  10  17  30  50  74  99 128 163 207 255 296
#     4   9  17  30  49  71  98 131 171 210 249 298
#
# _framework density 16.205065999999999
#
# number of rings (size 3 to 8) (size 9 to 14) (size 15 to 20)
#    0.000    2.000    5.000    0.750    0.000    1.000 
#    0.000    3.125    0.000    2.250    0.000    6.125 
#    0.000    0.000    0.000    4.250    0.000    3.125 
#
# Total GULP energy -356728.077125 kJ/mol
# GULP energy per Si atom -5573.876205 kJ/mol
# Density = 1.616818 g / cm^3
# Si number density = 16.205066 Si / 1000 Ang^3
#
#
#
# Elastic Constant Matrix: (Units=GPa)
#
#
# Indices 1 2 3 4 5 6 
#
# 1 109.0318 58.0664 8.1046 0.0000 0.0000 0.0000
# 2 58.0664 87.8619 5.7723 0.0000 0.0000 0.0000
# 3 8.1046 5.7723 12.7957 0.0000 0.0000 0.0000
# 4 0.0000 0.0000 0.0000 -37.0559 0.0000 0.0000
# 5 0.0000 0.0000 0.0000 0.0000 14.1832 0.0000
# 6 0.0000 0.0000 0.0000 0.0000 0.0000 21.5581
#
#
#
# Elastic Compliance Matrix: (Units=1/GPa)
#
#
# Indices 1 2 3 4 5 6 
#
# 1 0.014456 -0.009226 -0.004994 0.000000 0.000000 0.000000
# 2 -0.009226 0.017617 -0.002104 0.000000 0.000000 0.000000
# 3 -0.004994 -0.002104 0.082264 0.000000 0.000000 0.000000
# 4 0.000000 0.000000 0.000000 -0.026986 0.000000 0.000000
# 5 0.000000 0.000000 0.000000 0.000000 0.070506 0.000000
# 6 0.000000 0.000000 0.000000 0.000000 0.000000 0.046386
#
#
# Mechanical properties :
#
#
# Convention : Reuss Voigt Hill
#
# Bulk Modulus (GPa) = 12.24155 39.28621 25.76388
# Shear Modulus (GPa) = 18.93073 8.92013 13.92543
#
# Velocity S-wave (km/s) = 3.42160 2.34872 2.93461
# Velocity P-wave (km/s) = 4.81460 5.62593 5.23600
#
# Compressibility (1/GPa) = 0.08168898
#
# Stress axis : x y z
#
# Youngs Moduli (GPa) = 69.17462 56.76391 12.15600
#
# Poissons Ratio (x) = 0.52369 0.06071
# Poissons Ratio (y) = 0.63818 0.02557
# Poissons Ratio (z) = 0.34549 0.11942
#
# Static dielectric constant tensor:
#      x y z
#    x 1.543500 0.000000 0.000000 
#    y 0.000000 1.549370 0.000000 
#    z 0.000000 0.000000 1.543160 
# 
# From -- ./inp_files/56221.got.cif
#   From: 2010.05.17/outbox.cif.g08.bks.cpg/sg65_29_cif.got.tgz:56221.got - 2010.06.03 17:01:31.
