data_PCOD9482634
_publ_section_title
;
Structure prediction by ZEFSAII (Michael W. Deem and Ramdas Pophale) SiO2 
 PCOD9482634
Probable space group: C M M M
;
_chemical_formula_sum "Si O2"
_cell_formula_units_Z 72
_cell_length_a 11.135354
_cell_length_b 14.172033
_cell_length_c 20.811714
_cell_angle_alpha 90.000000
_cell_angle_beta 90.000000
_cell_angle_gamma 90.000000
_cell_volume 3284.309164
_symmetry_space_group_name_H-M "C M M M"
_symmetry_group_IT_number 65
_symmetry_cell_setting 'orthorhombic'
loop_
_space_group_symop_operation_xyz
x,y,z
-x,-y,z
x,-y,-z
-x,y,-z
-x,-y,-z
x,y,-z
-x,y,z
x,-y,z
1/2+x,1/2+y,z
1/2-x,1/2-y,z
1/2+x,1/2-y,-z
1/2-x,1/2+y,-z
1/2-x,1/2-y,-z
1/2+x,1/2+y,-z
1/2-x,1/2+y,z
1/2+x,1/2-y,z
loop_
_atom_site_type_symbol
_atom_site_label
_atom_site_fract_x
_atom_site_fract_y
_atom_site_fract_z
Si Si1 0.870442 0.635754 0.143233
Si Si2 0.865954 0.886091 0.344125
Si Si3 0.366822 0.885237 0.425685
Si Si4 0.633911 0.183064 0.000000
Si Si5 0.629596 0.348092 0.197935
O O1 0.749044 0.600789 0.174924
O O2 0.872682 0.747177 0.162054
O O3 0.000000 0.599643 0.165193
O O4 0.861885 0.626586 0.066525
O O5 0.751353 0.857806 0.386256
O O6 0.861106 0.837526 0.274589
O O7 0.000000 0.868893 0.372218
O O8 0.858458 0.000000 0.333586
O O9 0.357135 0.855025 0.500000
O O10 0.500000 0.856242 0.401050
O O11 0.366979 0.000000 0.425713
O O12 0.750000 0.250000 0.000000
O O13 0.500000 0.230435 0.000000
O O14 0.500000 0.393039 0.184917
#
# Coordination Sequence:
#
# PCOD9482634 Si02
#       5
#    16  16  16   8  16
#     4   9  17  27  41  62  82 101 128 163 202 238
#     4   9  17  27  39  58  83 109 134 158 189 232
#     4   8  14  25  40  57  77 101 130 164 199 232
#     4  10  16  24  40  62  84 101 123 161 207 246
#     4   9  16  26  39  56  81 108 131 158 193 233
#
# _framework density 21.922418
#
# number of rings (size 3 to 8) (size 9 to 14) (size 15 to 20)
#    0.000    3.111    2.222    0.667    0.000    1.333 
#    0.000    2.222    0.000    0.000    0.000    6.222 
#    0.000   21.333    0.000    0.000    0.000    0.000 
#
# Total GULP energy -200599.612736 kJ/mol
# GULP energy per Si atom -5572.211465 kJ/mol
# Density = 2.187252 g / cm^3
# Si number density = 21.922418 Si / 1000 Ang^3
#
#
#
# Elastic Constant Matrix: (Units=GPa)
#
#
# Indices 1 2 3 4 5 6 
#
# 1 296.6125 3.6572 82.4334 0.0000 0.0000 0.0000
# 2 3.6572 79.8317 7.0545 0.0000 0.0000 0.0000
# 3 82.4334 7.0545 90.5713 0.0000 0.0000 0.0000
# 4 0.0000 0.0000 0.0000 109.8764 0.0000 0.0000
# 5 0.0000 0.0000 0.0000 0.0000 28.7938 0.0000
# 6 0.0000 0.0000 0.0000 0.0000 0.0000 -16.5911
#
#
#
# Elastic Compliance Matrix: (Units=1/GPa)
#
#
# Indices 1 2 3 4 5 6 
#
# 1 0.004515 0.000157 -0.004121 0.000000 0.000000 0.000000
# 2 0.000157 0.012619 -0.001126 0.000000 0.000000 0.000000
# 3 -0.004121 -0.001126 0.014880 0.000000 0.000000 0.000000
# 4 0.000000 0.000000 0.000000 0.009101 0.000000 0.000000
# 5 0.000000 0.000000 0.000000 0.000000 0.034730 0.000000
# 6 0.000000 0.000000 0.000000 0.000000 0.000000 -0.060273
#
#
# Mechanical properties :
#
#
# Convention : Reuss Voigt Hill
#
# Bulk Modulus (GPa) = 45.80211 72.58950 59.19581
# Shear Modulus (GPa) = 151.38251 49.34051 100.36151
#
# Velocity S-wave (km/s) = 8.31887 4.74929 6.77346
# Velocity P-wave (km/s) = 10.64001 7.95350 9.39329
#
# Compressibility (1/GPa) = 0.02183305
#
# Stress axis : x y z
#
# Youngs Moduli (GPa) = 221.48950 79.24775 67.20477
#
# Poissons Ratio (x) = -0.01247 0.27698
# Poissons Ratio (y) = -0.03486 0.07568
# Poissons Ratio (z) = 0.91286 0.08924
#
# Static dielectric constant tensor:
#      x y z
#    x 1.854790 0.000000 0.000000 
#    y 0.000000 1.827240 0.000000 
#    z 0.000000 0.000000 1.752520 
# 
# From -- ./inp_files/38190.got.cif
#   From: 2010.05.17/outbox.cif.g08.bks.cpg/sg65_20_cif.got.tgz:38190.got - 2010.06.03 17:01:31.
