data_PCOD9482618
_publ_section_title
;
Structure prediction by ZEFSAII (Michael W. Deem and Ramdas Pophale) SiO2 
 PCOD9482618
Probable space group: C M M M
;
_chemical_formula_sum "Si O2"
_cell_formula_units_Z 80
_cell_length_a 14.813342
_cell_length_b 8.804594
_cell_length_c 27.192416
_cell_angle_alpha 90.000000
_cell_angle_beta 90.000000
_cell_angle_gamma 90.000000
_cell_volume 3546.583422
_symmetry_space_group_name_H-M "C M M M"
_symmetry_group_IT_number 65
_symmetry_cell_setting 'orthorhombic'
loop_
_space_group_symop_operation_xyz
x,y,z
-x,-y,z
x,-y,-z
-x,y,-z
-x,-y,-z
x,y,-z
-x,y,z
x,-y,z
1/2+x,1/2+y,z
1/2-x,1/2-y,z
1/2+x,1/2-y,-z
1/2-x,1/2+y,-z
1/2-x,1/2-y,-z
1/2+x,1/2+y,-z
1/2-x,1/2+y,z
1/2+x,1/2-y,z
loop_
_atom_site_type_symbol
_atom_site_label
_atom_site_fract_x
_atom_site_fract_y
_atom_site_fract_z
Si Si1 0.110360 0.326318 0.500000
Si Si2 0.393756 0.832526 0.299561
Si Si3 0.852497 0.317444 0.899523
Si Si4 0.610713 0.673590 0.398105
Si Si5 0.647472 0.683003 0.000000
Si Si6 0.349746 0.319987 0.199496
O O1 0.140291 0.500000 0.500000
O O2 0.138756 0.244941 0.449883
O O3 0.000000 0.325585 0.500000
O O4 0.500000 0.849860 0.308196
O O5 0.357262 0.764810 0.350253
O O6 0.387049 0.724089 0.252622
O O7 0.354871 0.000000 0.288256
O O8 0.850559 0.500000 0.901693
O O9 0.750000 0.250000 0.898562
O O10 0.893803 0.259938 0.848154
O O11 0.893193 0.247739 0.949405
O O12 0.500000 0.674587 0.397881
O O13 0.639845 0.500000 0.394546
O O14 0.750000 0.750000 0.000000
O O15 0.648991 0.500000 0.000000
O O16 0.349060 0.500000 0.191969
O O17 0.250000 0.250000 0.201571
#
# Coordination Sequence:
#
# PCOD9482618 Si02
#       6
#     8  16  16  16   8  16
#     4   9  15  23  37  59  88 121 154 191 238 287
#     4  10  20  34  51  72  99 130 164 202 244 290
#     4  10  17  27  42  63  91 122 156 194 239 286
#     4   9  16  26  41  63  91 122 156 195 239 286
#     4  10  16  24  38  60  89 120 153 190 237 286
#     4  11  21  34  51  72  99 130 165 203 244 289
#
# _framework density 22.556919000000001
#
# number of rings (size 3 to 8) (size 9 to 14) (size 15 to 20)
#    0.000    2.100    0.000    8.400    0.000    4.800 
#    0.000    0.000    0.000    0.000    0.000    1.400 
#    0.000    5.600    0.000    0.000    0.000    0.000 
#
# Total GULP energy -223424.747548 kJ/mol
# GULP energy per Si atom -5585.618689 kJ/mol
# Density = 2.250558 g / cm^3
# Si number density = 22.556919 Si / 1000 Ang^3
#
#
#
# Elastic Constant Matrix: (Units=GPa)
#
#
# Indices 1 2 3 4 5 6 
#
# 1 51.8825 10.6266 11.6534 0.0000 0.0000 0.0000
# 2 10.6266 222.0393 89.1681 0.0000 0.0000 0.0000
# 3 11.6534 89.1681 214.7329 0.0000 0.0000 0.0000
# 4 0.0000 0.0000 0.0000 -1.0881 0.0000 0.0000
# 5 0.0000 0.0000 0.0000 0.0000 69.3228 0.0000
# 6 0.0000 0.0000 0.0000 0.0000 0.0000 5.0546
#
#
#
# Elastic Compliance Matrix: (Units=1/GPa)
#
#
# Indices 1 2 3 4 5 6 
#
# 1 0.019581 -0.000613 -0.000808 0.000000 0.000000 0.000000
# 2 -0.000613 0.005424 -0.002219 0.000000 0.000000 0.000000
# 3 -0.000808 -0.002219 0.005622 0.000000 0.000000 0.000000
# 4 0.000000 0.000000 0.000000 -0.919062 0.000000 0.000000
# 5 0.000000 0.000000 0.000000 0.000000 0.014425 0.000000
# 6 0.000000 0.000000 0.000000 0.000000 0.000000 0.197838
#
#
# Mechanical properties :
#
#
# Convention : Reuss Voigt Hill
#
# Bulk Modulus (GPa) = 42.83053 79.06121 60.94587
# Shear Modulus (GPa) = -7.56306 39.80498 16.12096
#
# Velocity S-wave (km/s) = -1.83307 4.20533 2.67625
# Velocity P-wave (km/s) = 3.81428 7.66195 6.05203
#
# Compressibility (1/GPa) = 0.02334783
#
# Stress axis : x y z
#
# Youngs Moduli (GPa) = 51.06908 184.35862 177.86229
#
# Poissons Ratio (x) = 0.11293 0.14377
# Poissons Ratio (y) = 0.03128 0.39471
# Poissons Ratio (z) = 0.04128 0.40912
#
# Static dielectric constant tensor:
#      x y z
#    x 1.948360 0.000000 0.000000 
#    y 0.000000 1.787750 0.000000 
#    z 0.000000 0.000000 1.884330 
# 
# From -- ./inp_files/70798.got.cif
#   From: 2010.05.17/outbox.cif.g08.bks.cpg/sg65_36_cif.got.tgz:70798.got - 2010.06.03 17:01:31.
