data_PCOD9482329
_publ_section_title
;
Structure prediction by ZEFSAII (Michael W. Deem and Ramdas Pophale) SiO2 
 PCOD9482329
Probable space group: C M C A
;
_chemical_formula_sum "Si O2"
_cell_formula_units_Z 128
_cell_length_a 11.405846
_cell_length_b 23.120350
_cell_length_c 19.021789
_cell_angle_alpha 90.000000
_cell_angle_beta 90.000000
_cell_angle_gamma 90.000000
_cell_volume 5016.181795
_symmetry_space_group_name_H-M "C M C A"
_symmetry_group_IT_number 64
_symmetry_cell_setting 'orthorhombic'
loop_
_space_group_symop_operation_xyz
x,y,z
-x,1/2-y,1/2+z
x,-y,-z
-x,1/2+y,1/2-z
-x,-y,-z
x,1/2+y,1/2-z
-x,y,z
x,1/2-y,1/2+z
1/2+x,1/2+y,z
1/2-x,-y,1/2+z
1/2+x,1/2-y,-z
1/2-x,y,1/2-z
1/2-x,1/2-y,-z
1/2+x,y,1/2-z
1/2-x,1/2+y,z
1/2+x,-y,1/2+z
loop_
_atom_site_type_symbol
_atom_site_label
_atom_site_fract_x
_atom_site_fract_y
_atom_site_fract_z
Si Si1 0.626299 0.712800 0.072264
Si Si2 0.125980 0.409793 0.108244
Si Si3 0.626740 0.917571 0.585866
Si Si4 0.625052 0.742607 0.420290
Si Si5 0.626176 0.831476 0.244271
Si Si6 0.628176 0.541665 0.376960
Si Si7 0.625607 0.628851 0.245538
Si Si8 0.373413 0.378927 0.109692
O O1 0.500000 0.722989 0.108447
O O2 0.624444 0.645679 0.049525
O O3 0.752864 0.718430 0.107320
O O4 0.628319 0.755915 0.005661
O O5 0.123523 0.360921 0.168238
O O6 0.128411 0.473859 0.140677
O O7 0.255042 0.402727 0.075786
O O8 0.000000 0.404383 0.069648
O O9 0.500000 0.946464 0.570378
O O10 0.753873 0.946651 0.578393
O O11 0.622934 0.901377 0.669155
O O12 0.500000 0.715709 0.399868
O O13 0.623791 0.809905 0.400899
O O14 0.500000 0.802076 0.255323
O O15 0.750000 0.799102 0.250000
O O16 0.633078 0.881360 0.304746
O O17 0.500000 0.553085 0.411317
O O18 0.630593 0.580949 0.307264
O O19 0.500000 0.659575 0.252626
O O20 0.750000 0.660740 0.250000
O O21 0.500000 0.403370 0.088442
#
# Coordination Sequence:
#
# PCOD9482329 Si02
#       8
#    16  16  16  16  16  16  16  16
#     4   9  18  33  52  72  91 111 142 187 234 277
#     4   9  17  28  43  66  95 124 155 189 219 252
#     4   9  17  28  44  67  92 117 147 184 225 268
#     4   9  18  33  52  72  91 111 142 187 234 277
#     4   8  14  24  38  58  86 117 146 176 211 251
#     4   9  17  28  43  66  95 124 155 189 219 252
#     4   8  14  24  38  58  86 117 146 176 211 251
#     4   9  17  28  44  67  92 117 147 184 225 268
#
# _framework density 25.517416000000001
#
# number of rings (size 3 to 8) (size 9 to 14) (size 15 to 20)
#    0.000    3.250    0.000    0.000    0.000    6.000 
#    0.000    5.000    0.000    7.500    0.000   45.500 
#    0.000    0.000    0.000    0.000    0.000    0.000 
#
# Total GULP energy -356499.088018 kJ/mol
# GULP energy per Si atom -5570.298250 kJ/mol
# Density = 2.545934 g / cm^3
# Si number density = 25.517416 Si / 1000 Ang^3
#
#
#
# Elastic Constant Matrix: (Units=GPa)
#
#
# Indices 1 2 3 4 5 6 
#
# 1 377.1207 38.5925 15.8878 0.0000 0.0000 0.0000
# 2 38.5925 49.8899 1.6906 0.0000 0.0000 0.0000
# 3 15.8878 1.6906 71.8884 0.0000 0.0000 0.0000
# 4 0.0000 0.0000 0.0000 6.9794 0.0000 0.0000
# 5 0.0000 0.0000 0.0000 0.0000 -34.6305 0.0000
# 6 0.0000 0.0000 0.0000 0.0000 0.0000 -24.0722
#
#
#
# Elastic Compliance Matrix: (Units=1/GPa)
#
#
# Indices 1 2 3 4 5 6 
#
# 1 0.002904 -0.002227 -0.000590 0.000000 0.000000 0.000000
# 2 -0.002227 0.021767 -0.000020 0.000000 0.000000 0.000000
# 3 -0.000590 -0.000020 0.014041 0.000000 0.000000 0.000000
# 4 0.000000 0.000000 0.000000 0.143279 0.000000 0.000000
# 5 0.000000 0.000000 0.000000 0.000000 -0.028876 0.000000
# 6 0.000000 0.000000 0.000000 0.000000 0.000000 -0.041542
#
#
# Mechanical properties :
#
#
# Convention : Reuss Voigt Hill
#
# Bulk Modulus (GPa) = 30.26559 67.91566 49.09062
# Shear Modulus (GPa) = 38.98335 19.17054 29.07694
#
# Velocity S-wave (km/s) = 3.91284 2.74391 3.37930
# Velocity P-wave (km/s) = 5.68333 6.05904 5.87419
#
# Compressibility (1/GPa) = 0.03304083
#
# Stress axis : x y z
#
# Youngs Moduli (GPa) = 344.30792 45.94048 71.21899
#
# Poissons Ratio (x) = 0.10230 0.04198
# Poissons Ratio (y) = 0.76668 0.00141
# Poissons Ratio (z) = 0.20298 0.00091
#
# Static dielectric constant tensor:
#      x y z
#    x 2.121320 0.000000 0.000000 
#    y 0.000000 1.901000 0.000000 
#    z 0.000000 0.000000 2.033970 
# 
# From -- ./inp_files/49643.got.cif
#   From: 2010.05.17/outbox.cif.g08.bks.cpg/sg64_25_cif.got.tgz:49643.got - 2010.06.03 16:29:19.
