data_PCOD9482695
_publ_section_title
;
Structure prediction by ZEFSAII (Michael W. Deem and Ramdas Pophale) SiO2 
 PCOD9482695
Probable space group: C M M M
;
_chemical_formula_sum "Si O2"
_cell_formula_units_Z 62
_cell_length_a 13.439008
_cell_length_b 9.596432
_cell_length_c 21.781671
_cell_angle_alpha 90.000000
_cell_angle_beta 90.000000
_cell_angle_gamma 90.000000
_cell_volume 2809.106448
_symmetry_space_group_name_H-M "C M M M"
_symmetry_group_IT_number 65
_symmetry_cell_setting 'orthorhombic'
loop_
_space_group_symop_operation_xyz
x,y,z
-x,-y,z
x,-y,-z
-x,y,-z
-x,-y,-z
x,y,-z
-x,y,z
x,-y,z
1/2+x,1/2+y,z
1/2-x,1/2-y,z
1/2+x,1/2-y,-z
1/2-x,1/2+y,-z
1/2-x,1/2-y,-z
1/2+x,1/2+y,-z
1/2-x,1/2+y,z
1/2+x,1/2-y,z
loop_
_atom_site_type_symbol
_atom_site_label
_atom_site_fract_x
_atom_site_fract_y
_atom_site_fract_z
Si Si1 0.500000 0.754601 0.401727
Si Si2 0.379717 0.843617 0.000000
Si Si3 0.000000 0.000000 0.500000
Si Si4 0.341373 0.000000 0.572839
Si Si5 0.000000 0.000000 0.687923
Si Si6 0.769497 0.000000 0.693217
Si Si7 0.250000 0.750000 0.227900
Si Si8 0.118876 0.842480 0.883094
O O1 0.500000 0.624982 0.448320
O O2 0.407152 0.861094 0.412649
O O3 0.500000 0.660047 0.340744
O O4 0.354540 0.759619 0.938668
O O5 0.500000 0.851676 0.000000
O O6 0.339859 0.000000 0.000000
O O7 0.315681 0.000000 0.500000
O O8 0.248822 0.000000 0.620046
O O9 0.885883 0.000000 0.711397
O O10 0.718879 0.129567 0.726030
O O11 0.164399 0.794946 0.180990
O O12 0.000000 0.843457 0.878573
O O13 0.152502 0.000000 0.896360
#
# Coordination Sequence:
#
# PCOD9482695 Si02
#       8
#     8   8   2   8   4   8   8  16
#     4  10  20  41  75 104 143 172 219 266 356 414
#     4   9  19  36  67 108 146 174 228 286 343 403
#     4  10  16  34  68 120 136 180 212 258 332 436
#     4  11  22  47  71 108 142 182 216 293 348 424
#     4  11  26  47  70  96 134 181 222 291 338 420
#     4  12  28  48  70  99 139 179 241 284 353 411
#     4  12  26  45  67 100 136 182 240 290 332 420
#     4  10  22  43  70  99 139 189 231 281 341 406
#
# _framework density 22.071075
#
# number of rings (size 3 to 8) (size 9 to 14) (size 15 to 20)
#    0.000    1.419    2.581    2.323    3.613    2.065 
#    9.290    1.935    0.000    0.000    0.000    0.000 
#    0.000    0.000    0.000    0.000    0.000    0.000 
#
# Total GULP energy -172754.276388 kJ/mol
# GULP energy per Si atom -5572.718593 kJ/mol
# Density = 2.202084 g / cm^3
# Si number density = 22.071075 Si / 1000 Ang^3
#
#
#
# Elastic Constant Matrix: (Units=GPa)
#
#
# Indices 1 2 3 4 5 6 
#
# 1 77.0484 21.5771 32.9334 0.0000 0.0000 0.0000
# 2 21.5771 202.7153 72.4083 0.0000 0.0000 0.0000
# 3 32.9334 72.4083 148.0705 0.0000 0.0000 0.0000
# 4 0.0000 0.0000 0.0000 -54.0751 0.0000 0.0000
# 5 0.0000 0.0000 0.0000 0.0000 41.0506 0.0000
# 6 0.0000 0.0000 0.0000 0.0000 0.0000 12.1699
#
#
#
# Elastic Compliance Matrix: (Units=1/GPa)
#
#
# Indices 1 2 3 4 5 6 
#
# 1 0.014379 -0.000470 -0.002968 0.000000 0.000000 0.000000
# 2 -0.000470 0.005992 -0.002826 0.000000 0.000000 0.000000
# 3 -0.002968 -0.002826 0.008796 0.000000 0.000000 0.000000
# 4 0.000000 0.000000 0.000000 -0.018493 0.000000 0.000000
# 5 0.000000 0.000000 0.000000 0.000000 0.024360 0.000000
# 6 0.000000 0.000000 0.000000 0.000000 0.000000 0.082170
#
#
# Mechanical properties :
#
#
# Convention : Reuss Voigt Hill
#
# Bulk Modulus (GPa) = 60.10088 75.74131 67.92109
# Shear Modulus (GPa) = 36.96056 19.89011 28.42534
#
# Velocity S-wave (km/s) = 4.09665 3.00523 3.59263
# Velocity P-wave (km/s) = 7.04744 6.81420 6.93180
#
# Compressibility (1/GPa) = 0.01663869
#
# Stress axis : x y z
#
# Youngs Moduli (GPa) = 69.54449 166.87727 113.69387
#
# Poissons Ratio (x) = 0.07849 0.33747
# Poissons Ratio (y) = 0.03271 0.32127
# Poissons Ratio (z) = 0.20642 0.47156
#
# Static dielectric constant tensor:
#      x y z
#    x 1.900300 0.000000 0.000000 
#    y 0.000000 1.782890 0.000000 
#    z 0.000000 0.000000 1.795770 
# 
# From -- ./inp_files/63327.got.cif
#   From: 2010.05.17/outbox.cif.g08.bks.cpg/sg65_32_cif.got.tgz:63327.got - 2010.06.03 17:01:31.
