data_PCOD9482878
_publ_section_title
;
Structure prediction by ZEFSAII (Michael W. Deem and Ramdas Pophale) SiO2 
 PCOD9482878
Probable space group: C M M M
;
_chemical_formula_sum "Si O2"
_cell_formula_units_Z 58
_cell_length_a 16.915683
_cell_length_b 9.852632
_cell_length_c 16.530457
_cell_angle_alpha 90.000000
_cell_angle_beta 90.000000
_cell_angle_gamma 90.000000
_cell_volume 2755.032079
_symmetry_space_group_name_H-M "C M M M"
_symmetry_group_IT_number 65
_symmetry_cell_setting 'orthorhombic'
loop_
_space_group_symop_operation_xyz
x,y,z
-x,-y,z
x,-y,-z
-x,y,-z
-x,-y,-z
x,y,-z
-x,y,z
x,-y,z
1/2+x,1/2+y,z
1/2-x,1/2-y,z
1/2+x,1/2-y,-z
1/2-x,1/2+y,-z
1/2-x,1/2-y,-z
1/2+x,1/2+y,-z
1/2-x,1/2+y,z
1/2+x,1/2-y,z
loop_
_atom_site_type_symbol
_atom_site_label
_atom_site_fract_x
_atom_site_fract_y
_atom_site_fract_z
Si Si1 0.000000 0.000000 0.000000
Si Si2 0.911539 0.719720 0.680627
Si Si3 0.809354 0.500000 0.406495
Si Si4 0.594984 0.161495 0.868460
Si Si5 0.659454 0.346369 0.000000
Si Si6 0.120161 0.000000 0.594810
O O1 0.931494 0.887878 0.000000
O O2 0.846360 0.629492 0.637045
O O3 0.897830 0.714537 0.776602
O O4 0.000000 0.663399 0.666972
O O5 0.908451 0.867920 0.642099
O O6 0.833396 0.500000 0.500000
O O7 0.715279 0.500000 0.402575
O O8 0.500000 0.175284 0.888379
O O9 0.611536 0.000000 0.872747
O O10 0.657785 0.246324 0.922486
O O11 0.699201 0.500000 0.000000
O O12 0.096698 0.000000 0.500000
#
# Coordination Sequence:
#
# PCOD9482878 Si02
#       6
#     2  16   8  16   8   8
#     4   8  16  24  38  76 104 152 196 216 284 344
#     4  11  23  38  60  94 124 155 198 255 308 354
#     4  11  23  43  64  85 117 161 207 247 295 370
#     4  10  18  31  50  79 119 155 194 240 296 351
#     4  10  17  28  48  79 116 160 192 232 294 355
#     4  11  25  42  62  86 119 162 205 248 304 367
#
# _framework density 21.052387
#
# number of rings (size 3 to 8) (size 9 to 14) (size 15 to 20)
#    0.414    1.103    2.759    2.897    1.931    6.621 
#    0.000    0.000    0.000    0.000    0.000    5.793 
#    0.000    0.000    0.000    0.000    0.000    0.000 
#
# Total GULP energy -161438.373815 kJ/mol
# GULP energy per Si atom -5566.840476 kJ/mol
# Density = 2.100447 g / cm^3
# Si number density = 21.052387 Si / 1000 Ang^3
#
#
#
# Elastic Constant Matrix: (Units=GPa)
#
#
# Indices 1 2 3 4 5 6 
#
# 1 70.4517 23.2320 38.2292 0.0000 0.0000 0.0000
# 2 23.2320 175.3457 83.0877 0.0000 0.0000 0.0000
# 3 38.2292 83.0877 139.1044 0.0000 0.0000 0.0000
# 4 0.0000 0.0000 0.0000 39.9946 0.0000 0.0000
# 5 0.0000 0.0000 0.0000 0.0000 61.8709 0.0000
# 6 0.0000 0.0000 0.0000 0.0000 0.0000 28.6707
#
#
#
# Elastic Compliance Matrix: (Units=1/GPa)
#
#
# Indices 1 2 3 4 5 6 
#
# 1 0.016682 -0.000053 -0.004553 0.000000 0.000000 0.000000
# 2 -0.000053 0.007955 -0.004737 0.000000 0.000000 0.000000
# 3 -0.004553 -0.004737 0.011269 0.000000 0.000000 0.000000
# 4 0.000000 0.000000 0.000000 0.025003 0.000000 0.000000
# 5 0.000000 0.000000 0.000000 0.000000 0.016163 0.000000
# 6 0.000000 0.000000 0.000000 0.000000 0.000000 0.034879
#
#
# Mechanical properties :
#
#
# Convention : Reuss Voigt Hill
#
# Bulk Modulus (GPa) = 58.06926 74.88883 66.47904
# Shear Modulus (GPa) = 36.66316 42.13077 39.39696
#
# Velocity S-wave (km/s) = 4.17768 4.47837 4.33064
# Velocity P-wave (km/s) = 7.13539 7.89879 7.52677
#
# Compressibility (1/GPa) = 0.01722082
#
# Stress axis : x y z
#
# Youngs Moduli (GPa) = 59.94417 125.71441 88.73537
#
# Poissons Ratio (x) = 0.00663 0.40403
# Poissons Ratio (y) = 0.00316 0.42032
# Poissons Ratio (z) = 0.27293 0.59548
#
# Static dielectric constant tensor:
#      x y z
#    x 1.761640 0.000000 0.000000 
#    y 0.000000 1.752430 0.000000 
#    z 0.000000 0.000000 1.724940 
# 
# From -- ./inp_files/53974.got.cif
#   From: 2010.05.17/outbox.cif.g08.bks.cpg/sg65_27_cif.got.tgz:53974.got - 2010.06.03 17:01:31.
