data_PCOD9482717
_publ_section_title
;
Structure prediction by ZEFSAII (Michael W. Deem and Ramdas Pophale) SiO2 
 PCOD9482717
Probable space group: C M M M
;
_chemical_formula_sum "Si O2"
_cell_formula_units_Z 72
_cell_length_a 15.009348
_cell_length_b 8.796594
_cell_length_c 25.049478
_cell_angle_alpha 90.000000
_cell_angle_beta 90.000000
_cell_angle_gamma 90.000000
_cell_volume 3307.311151
_symmetry_space_group_name_H-M "C M M M"
_symmetry_group_IT_number 65
_symmetry_cell_setting 'orthorhombic'
loop_
_space_group_symop_operation_xyz
x,y,z
-x,-y,z
x,-y,-z
-x,y,-z
-x,-y,-z
x,y,-z
-x,y,z
x,-y,z
1/2+x,1/2+y,z
1/2-x,1/2-y,z
1/2+x,1/2-y,-z
1/2-x,1/2+y,-z
1/2-x,1/2-y,-z
1/2+x,1/2+y,-z
1/2-x,1/2+y,z
1/2+x,1/2-y,z
loop_
_atom_site_type_symbol
_atom_site_label
_atom_site_fract_x
_atom_site_fract_y
_atom_site_fract_z
Si Si1 0.851239 0.317846 0.333315
Si Si2 0.150576 0.184073 0.225069
Si Si3 0.390521 0.828158 0.000000
Si Si4 0.605632 0.331082 0.107331
Si Si5 0.850394 0.817648 0.558729
O O1 0.848258 0.500000 0.332394
O O2 0.750000 0.250000 0.333894
O O3 0.892376 0.253597 0.278510
O O4 0.892151 0.257742 0.388731
O O5 0.250000 0.250000 0.225022
O O6 0.115343 0.232882 0.166974
O O7 0.147659 0.000000 0.228807
O O8 0.359931 0.753472 0.055239
O O9 0.500000 0.825495 0.000000
O O10 0.361177 0.000000 0.000000
O O11 0.500000 0.343427 0.098927
O O12 0.645563 0.500000 0.108613
O O13 0.890535 0.787161 0.500000
O O14 0.750000 0.750000 0.556229
O O15 0.846318 0.000000 0.565770
#
# Coordination Sequence:
#
# PCOD9482717 Si02
#       5
#    16  16   8  16  16
#     4  10  17  25  38  55  80 113 147 181 219 265
#     4  10  19  31  47  66  91 121 152 185 222 266
#     4   9  17  29  48  73  96 117 143 181 226 267
#     4   9  18  33  52  71  91 118 151 185 221 263
#     4   9  15  22  33  50  74 105 142 182 221 261
#
# _framework density 21.769950000000001
#
# number of rings (size 3 to 8) (size 9 to 14) (size 15 to 20)
#    0.000    2.556    0.000    6.333    0.000    4.444 
#    0.000    0.556    0.000    0.000    0.000    0.000 
#    0.000    0.889    0.000   10.222    0.000    8.000 
#
# Total GULP energy -200636.958123 kJ/mol
# GULP energy per Si atom -5573.248837 kJ/mol
# Density = 2.172040 g / cm^3
# Si number density = 21.769950 Si / 1000 Ang^3
#
#
#
# Elastic Constant Matrix: (Units=GPa)
#
#
# Indices 1 2 3 4 5 6 
#
# 1 40.0942 7.0968 12.6928 0.0000 0.0000 0.0000
# 2 7.0968 127.7543 111.5842 0.0000 0.0000 0.0000
# 3 12.6928 111.5842 291.2890 0.0000 0.0000 0.0000
# 4 0.0000 0.0000 0.0000 26.5345 0.0000 0.0000
# 5 0.0000 0.0000 0.0000 0.0000 25.6430 0.0000
# 6 0.0000 0.0000 0.0000 0.0000 0.0000 -0.2467
#
#
#
# Elastic Compliance Matrix: (Units=1/GPa)
#
#
# Indices 1 2 3 4 5 6 
#
# 1 0.025328 -0.000666 -0.000849 0.000000 0.000000 0.000000
# 2 -0.000666 0.011781 -0.004484 0.000000 0.000000 0.000000
# 3 -0.000849 -0.004484 0.005188 0.000000 0.000000 0.000000
# 4 0.000000 0.000000 0.000000 0.037687 0.000000 0.000000
# 5 0.000000 0.000000 0.000000 0.000000 0.038997 0.000000
# 6 0.000000 0.000000 0.000000 0.000000 0.000000 -4.053163
#
#
# Mechanical properties :
#
#
# Convention : Reuss Voigt Hill
#
# Bulk Modulus (GPa) = 33.00357 80.20945 56.60651
# Shear Modulus (GPa) = -1.27809 32.23706 15.47948
#
# Velocity S-wave (km/s) = -0.76705 3.85230 2.66944
# Velocity P-wave (km/s) = 3.79586 7.53067 5.96320
#
# Compressibility (1/GPa) = 0.03029975
#
# Stress axis : x y z
#
# Youngs Moduli (GPa) = 39.48233 84.88335 192.76583
#
# Poissons Ratio (x) = 0.05651 0.16358
# Poissons Ratio (y) = 0.02629 0.86434
# Poissons Ratio (z) = 0.03351 0.38061
#
# Static dielectric constant tensor:
#      x y z
#    x 1.847220 0.000000 0.000000 
#    y 0.000000 1.751570 0.000000 
#    z 0.000000 0.000000 1.909920 
# 
# From -- ./inp_files/59999.got.cif
#   From: 2010.05.17/outbox.cif.g08.bks.cpg/sg65_30_cif.got.tgz:59999.got - 2010.06.03 17:01:31.
