data_PCOD9482061
_publ_section_title
;
Structure prediction by ZEFSAII (Michael W. Deem and Ramdas Pophale) SiO2 
 PCOD9482061
Probable space group: C M C A
;
_chemical_formula_sum "Si O2"
_cell_formula_units_Z 72
_cell_length_a 23.710855
_cell_length_b 8.673438
_cell_length_c 17.398854
_cell_angle_alpha 90.000000
_cell_angle_beta 90.000000
_cell_angle_gamma 90.000000
_cell_volume 3578.154895
_symmetry_space_group_name_H-M "C M C A"
_symmetry_group_IT_number 64
_symmetry_cell_setting 'orthorhombic'
loop_
_space_group_symop_operation_xyz
x,y,z
-x,1/2-y,1/2+z
x,-y,-z
-x,1/2+y,1/2-z
-x,-y,-z
x,1/2+y,1/2-z
-x,y,z
x,1/2-y,1/2+z
1/2+x,1/2+y,z
1/2-x,-y,1/2+z
1/2+x,1/2-y,-z
1/2-x,y,1/2-z
1/2-x,1/2-y,-z
1/2+x,y,1/2-z
1/2-x,1/2+y,z
1/2+x,-y,1/2+z
loop_
_atom_site_type_symbol
_atom_site_label
_atom_site_fract_x
_atom_site_fract_y
_atom_site_fract_z
Si Si1 0.155296 0.500000 0.500000
Si Si2 0.436869 0.445322 0.627121
Si Si3 0.679510 0.933771 0.795948
Si Si4 0.779949 0.601288 0.648057
Si Si5 0.563739 0.246532 0.473605
O O1 0.194231 0.423783 0.435298
O O2 0.113119 0.624836 0.462804
O O3 0.500000 0.430835 0.659694
O O4 0.386329 0.431104 0.686297
O O5 0.432443 0.610013 0.584474
O O6 0.430705 0.318918 0.559271
O O7 0.705037 0.769780 0.820702
O O8 0.713723 0.060691 0.846455
O O9 0.692272 0.981875 0.708814
O O10 0.500000 0.182390 0.466452
#
# Coordination Sequence:
#
# PCOD9482061 Si02
#       5
#     8  16  16  16  16
#     4  12  23  38  62 104 119 168 212 266 302 382
#     4   9  19  39  66  88 122 170 211 253 310 375
#     4  11  23  46  61  93 126 170 205 264 311 389
#     4  11  26  40  68  89 132 165 207 256 329 357
#     4   9  19  36  60  92 130 167 202 260 316 365
#
# _framework density 20.122102999999999
#
# number of rings (size 3 to 8) (size 9 to 14) (size 15 to 20)
#    0.000    1.778    2.222    4.333    6.222    2.667 
#    0.000    3.333    0.000    0.000    0.000    0.000 
#    0.000    0.000    0.000    0.000    0.000    0.000 
#
# Total GULP energy -201079.816205 kJ/mol
# GULP energy per Si atom -5585.550450 kJ/mol
# Density = 2.007630 g / cm^3
# Si number density = 20.122103 Si / 1000 Ang^3
#
#
#
# Elastic Constant Matrix: (Units=GPa)
#
#
# Indices 1 2 3 4 5 6 
#
# 1 117.7066 13.8165 11.8943 0.0000 0.0000 0.0000
# 2 13.8165 62.2821 -2.8865 0.0000 0.0000 0.0000
# 3 11.8943 -2.8865 30.7028 0.0000 0.0000 0.0000
# 4 0.0000 0.0000 0.0000 11.3995 0.0000 0.0000
# 5 0.0000 0.0000 0.0000 0.0000 33.1509 0.0000
# 6 0.0000 0.0000 0.0000 0.0000 0.0000 22.3056
#
#
#
# Elastic Compliance Matrix: (Units=1/GPa)
#
#
# Indices 1 2 3 4 5 6 
#
# 1 0.009132 -0.002199 -0.003745 0.000000 0.000000 0.000000
# 2 -0.002199 0.016656 0.002418 0.000000 0.000000 0.000000
# 3 -0.003745 0.002418 0.034248 0.000000 0.000000 0.000000
# 4 0.000000 0.000000 0.000000 0.087723 0.000000 0.000000
# 5 0.000000 0.000000 0.000000 0.000000 0.030165 0.000000
# 6 0.000000 0.000000 0.000000 0.000000 0.000000 0.044832
#
#
# Mechanical properties :
#
#
# Convention : Reuss Voigt Hill
#
# Bulk Modulus (GPa) = 18.87349 28.48223 23.67786
# Shear Modulus (GPa) = 20.20447 25.89569 23.05008
#
# Velocity S-wave (km/s) = 3.17218 3.59127 3.38821
# Velocity P-wave (km/s) = 4.77670 5.60194 5.20570
#
# Compressibility (1/GPa) = 0.05298436
#
# Stress axis : x y z
#
# Youngs Moduli (GPa) = 109.50186 60.03859 29.19849
#
# Poissons Ratio (x) = 0.13205 0.10934
# Poissons Ratio (y) = 0.24084 -0.07060
# Poissons Ratio (z) = 0.41004 -0.14517
#
# Static dielectric constant tensor:
#      x y z
#    x 1.718210 0.000000 0.000000 
#    y 0.000000 1.723160 0.000000 
#    z 0.000000 0.000000 1.680270 
# 
# From -- ./inp_files/34839.got.cif
#   From: 2010.05.17/outbox.cif.g08.bks.cpg/sg64_18_cif.got.tgz:34839.got - 2010.06.03 16:29:19.
