data_PCOD9482380
_publ_section_title
;
Structure prediction by ZEFSAII (Michael W. Deem and Ramdas Pophale) SiO2 
 PCOD9482380
Probable space group: C M C A
;
_chemical_formula_sum "Si O2"
_cell_formula_units_Z 56
_cell_length_a 21.000000
_cell_length_b 24.000000
_cell_length_c 12.000000
_cell_angle_alpha 90.000000
_cell_angle_beta 90.000000
_cell_angle_gamma 90.000000
_cell_volume 6048.000000
_symmetry_space_group_name_H-M "C M C A"
_symmetry_group_IT_number 64
_symmetry_cell_setting 'orthorhombic'
loop_
_space_group_symop_operation_xyz
x,y,z
-x,1/2-y,1/2+z
x,-y,-z
-x,1/2+y,1/2-z
-x,-y,-z
x,1/2+y,1/2-z
-x,y,z
x,1/2-y,1/2+z
1/2+x,1/2+y,z
1/2-x,-y,1/2+z
1/2+x,1/2-y,-z
1/2-x,y,1/2-z
1/2-x,1/2-y,-z
1/2+x,y,1/2-z
1/2-x,1/2+y,z
1/2+x,-y,1/2+z
loop_
_atom_site_type_symbol
_atom_site_label
_atom_site_fract_x
_atom_site_fract_y
_atom_site_fract_z
Si Si1 0.692989 0.203717 0.159338
Si Si2 0.927523 0.871712 0.625017
Si Si3 0.319419 0.832003 0.308257
Si Si4 0.377909 0.899893 0.113468
Si Si5 0.574847 0.507921 0.257728
Si Si6 0.247934 0.619660 0.496047
Si Si7 0.291923 0.019828 0.365454
O O1 0.750000 0.199863 0.250000
O O2 0.629815 0.165687 0.174788
O O3 0.670439 0.267919 0.157771
O O4 0.724492 0.178974 0.046331
O O5 0.916747 0.875731 0.491365
O O6 0.000000 0.852375 0.648233
O O7 0.921035 0.934016 0.674532
O O8 0.250000 0.833325 0.250000
O O9 0.367423 0.857933 0.217773
O O10 0.309385 0.870076 0.417684
O O11 0.408807 0.956164 0.160887
O O12 0.307056 0.909139 0.061171
O O13 0.500000 0.502848 0.219101
O O14 0.634262 0.509795 0.169780
O O15 0.227568 0.583893 0.389066
O O16 0.250000 0.002598 0.250000
O O17 0.283974 0.000000 0.500000
#
# Coordination Sequence:
#
# PCOD9482380 Si02
#       7
#    16  16  16  16  16  16  16
#     4  10  19  34  57  84 116 150 193 246 302 360
#     4  10  21  37  57  83 116 156 202 249 299 359
#     4   9  19  34  55  85 115 149 191 245 302 355
#     4  10  19  35  57  84 116 154 201 249 300 357
#     4  11  23  39  59  85 119 158 198 244 301 362
#     4  10  19  33  56  85 118 151 196 248 301 355
#     4  12  24  39  61  90 124 160 202 250 303 362
#
# _framework density 9.2592590000000001
#
# number of rings (size 3 to 8) (size 9 to 14) (size 15 to 20)
#    0.000    1.714    0.000    6.000    0.000    3.714 
#    0.000    1.429    0.000    2.571    0.000    0.000 
#    0.000    0.000    0.000    0.000    0.000    0.000 
#
# Total GULP energy -312032.399294 kJ/mol
# GULP energy per Si atom -5572.007130 kJ/mol
# Density = 0.923818 g / cm^3
# Si number density = 9.259259 Si / 1000 Ang^3
#
#
#
# Elastic Constant Matrix: (Units=GPa)
#
#
# Indices 1 2 3 4 5 6 
#
# 1 120.2957 39.1547 37.7403 0.0000 0.0000 0.0000
# 2 39.1547 66.0080 16.1621 0.0000 0.0000 0.0000
# 3 37.7403 16.1621 91.1406 0.0000 0.0000 0.0000
# 4 0.0000 0.0000 0.0000 35.3378 0.0000 0.0000
# 5 0.0000 0.0000 0.0000 0.0000 32.9358 0.0000
# 6 0.0000 0.0000 0.0000 0.0000 0.0000 21.8093
#
#
#
# Elastic Compliance Matrix: (Units=1/GPa)
#
#
# Indices 1 2 3 4 5 6 
#
# 1 0.011366 -0.005844 -0.003670 0.000000 0.000000 0.000000
# 2 -0.005844 0.018842 -0.000921 0.000000 0.000000 0.000000
# 3 -0.003670 -0.000921 0.012655 0.000000 0.000000 0.000000
# 4 0.000000 0.000000 0.000000 0.028298 0.000000 0.000000
# 5 0.000000 0.000000 0.000000 0.000000 0.030362 0.000000
# 6 0.000000 0.000000 0.000000 0.000000 0.000000 0.045852
#
#
# Mechanical properties :
#
#
# Convention : Reuss Voigt Hill
#
# Bulk Modulus (GPa) = 45.47033 51.50650 48.48842
# Shear Modulus (GPa) = 28.47745 30.30906 29.39325
#
# Velocity S-wave (km/s) = 3.92571 4.04999 3.98833
# Velocity P-wave (km/s) = 6.71979 7.05293 6.88837
#
# Compressibility (1/GPa) = 0.02199236
#
# Stress axis : x y z
#
# Youngs Moduli (GPa) = 87.97866 53.07400 79.01798
#
# Poissons Ratio (x) = 0.31014 0.29003
# Poissons Ratio (y) = 0.51411 0.07281
# Poissons Ratio (z) = 0.32292 0.04890
#
# Static dielectric constant tensor:
#      x y z
#    x 1.640660 0.000000 0.000000 
#    y 0.000000 1.700540 0.000000 
#    z 0.000000 0.000000 1.674010 
# 
# From -- ./inp_files/17542.got.cif
#   From: 2010.05.17/outbox.ucp.g08.bks.cvg/sg64_9_cif.got.tgz:17542.got - 2010.06.11 16:36:46.
