data_PCOD9482243
_publ_section_title
;
Structure prediction by ZEFSAII (Michael W. Deem and Ramdas Pophale) SiO2 
 PCOD9482243
Probable space group: C M C A
;
_chemical_formula_sum "Si O2"
_cell_formula_units_Z 64
_cell_length_a 10.121857
_cell_length_b 21.011656
_cell_length_c 14.299878
_cell_angle_alpha 90.000000
_cell_angle_beta 90.000000
_cell_angle_gamma 90.000000
_cell_volume 3041.254830
_symmetry_space_group_name_H-M "C M C A"
_symmetry_group_IT_number 64
_symmetry_cell_setting 'orthorhombic'
loop_
_space_group_symop_operation_xyz
x,y,z
-x,1/2-y,1/2+z
x,-y,-z
-x,1/2+y,1/2-z
-x,-y,-z
x,1/2+y,1/2-z
-x,y,z
x,1/2-y,1/2+z
1/2+x,1/2+y,z
1/2-x,-y,1/2+z
1/2+x,1/2-y,-z
1/2-x,y,1/2-z
1/2-x,1/2-y,-z
1/2+x,y,1/2-z
1/2-x,1/2+y,z
1/2+x,-y,1/2+z
loop_
_atom_site_type_symbol
_atom_site_label
_atom_site_fract_x
_atom_site_fract_y
_atom_site_fract_z
Si Si1 0.500000 0.701449 0.471579
Si Si2 0.267950 0.362840 0.642984
Si Si3 0.500000 0.102843 0.862772
Si Si4 0.000000 0.930545 0.161996
Si Si5 0.000000 0.651629 0.473412
Si Si6 0.738186 0.994611 0.109073
O O1 0.372727 0.679602 0.412491
O O2 0.500000 0.662768 0.569200
O O3 0.500000 0.775686 0.492751
O O4 0.250000 0.342354 0.750000
O O5 0.129261 0.361001 0.588570
O O6 0.313226 0.436668 0.641082
O O7 0.500000 0.115226 0.751933
O O8 0.627457 0.059391 0.883679
O O9 0.868971 0.973625 0.164104
O O10 0.000000 0.892408 0.065148
O O11 0.774905 0.000000 0.000000
#
# Coordination Sequence:
#
# PCOD9482243 Si02
#       6
#     8  16   8   8   8  16
#     4  12  26  46  66  95 133 177 223 265 316 381
#     4  12  25  43  70  99 131 170 216 271 328 387
#     4  12  24  41  67  98 133 172 215 268 328 388
#     4  12  24  41  67  98 133 172 215 268 328 388
#     4  12  26  46  66  95 133 177 223 265 316 381
#     4  12  22  43  68  98 133 170 208 272 338 385
#
# _framework density 21.043945000000001
#
# number of rings (size 3 to 8) (size 9 to 14) (size 15 to 20)
#    0.000    0.000    5.000    6.000    0.000    2.000 
#    0.000    0.000    0.000    0.000    0.000    0.000 
#    0.000    0.000    0.000    0.000    0.000    0.000 
#
# Total GULP energy -179296.081914 kJ/mol
# GULP energy per Si atom -5603.002560 kJ/mol
# Density = 2.099605 g / cm^3
# Si number density = 21.043945 Si / 1000 Ang^3
#
#
#
# Elastic Constant Matrix: (Units=GPa)
#
#
# Indices 1 2 3 4 5 6 
#
# 1 88.6347 7.4217 7.7930 0.0000 0.0000 0.0000
# 2 7.4217 75.8214 6.8529 0.0000 0.0000 0.0000
# 3 7.7930 6.8529 151.3713 0.0000 0.0000 0.0000
# 4 0.0000 0.0000 0.0000 7.2449 0.0000 0.0000
# 5 0.0000 0.0000 0.0000 0.0000 32.7051 0.0000
# 6 0.0000 0.0000 0.0000 0.0000 0.0000 139.4773
#
#
#
# Elastic Compliance Matrix: (Units=1/GPa)
#
#
# Indices 1 2 3 4 5 6 
#
# 1 0.011419 -0.001069 -0.000539 0.000000 0.000000 0.000000
# 2 -0.001069 0.013343 -0.000549 0.000000 0.000000 0.000000
# 3 -0.000539 -0.000549 0.006659 0.000000 0.000000 0.000000
# 4 0.000000 0.000000 0.000000 0.138027 0.000000 0.000000
# 5 0.000000 0.000000 0.000000 0.000000 0.030576 0.000000
# 6 0.000000 0.000000 0.000000 0.000000 0.000000 0.007170
#
#
# Mechanical properties :
#
#
# Convention : Reuss Voigt Hill
#
# Bulk Modulus (GPa) = 36.89193 39.99584 38.44389
# Shear Modulus (GPa) = 22.67112 55.46944 39.07028
#
# Velocity S-wave (km/s) = 3.28582 5.13966 4.31351
# Velocity P-wave (km/s) = 5.65371 7.36672 6.56632
#
# Compressibility (1/GPa) = 0.02710620
#
# Stress axis : x y z
#
# Youngs Moduli (GPa) = 87.57171 74.94484 150.17493
#
# Poissons Ratio (x) = 0.08012 0.08102
# Poissons Ratio (y) = 0.09361 0.08245
# Poissons Ratio (z) = 0.04724 0.04115
#
# Static dielectric constant tensor:
#      x y z
#    x 1.733930 0.000000 0.000000 
#    y 0.000000 1.699350 0.000000 
#    z 0.000000 0.000000 1.768640 
# 
# From -- ./inp_files/20949.got.cif
#   From: 2010.05.17/outbox.cif.g08.bks.cpg/sg64_11_cif.got.tgz:20949.got - 2010.06.03 16:29:19.
