data_PCOD9482400
_publ_section_title
;
Structure prediction by ZEFSAII (Michael W. Deem and Ramdas Pophale) SiO2 
 PCOD9482400
Probable space group: C M C A
;
_chemical_formula_sum "Si O2"
_cell_formula_units_Z 48
_cell_length_a 9.000000
_cell_length_b 27.000000
_cell_length_c 24.000000
_cell_angle_alpha 90.000000
_cell_angle_beta 90.000000
_cell_angle_gamma 90.000000
_cell_volume 5832.000000
_symmetry_space_group_name_H-M "C M C A"
_symmetry_group_IT_number 64
_symmetry_cell_setting 'orthorhombic'
loop_
_space_group_symop_operation_xyz
x,y,z
-x,1/2-y,1/2+z
x,-y,-z
-x,1/2+y,1/2-z
-x,-y,-z
x,1/2+y,1/2-z
-x,y,z
x,1/2-y,1/2+z
1/2+x,1/2+y,z
1/2-x,-y,1/2+z
1/2+x,1/2-y,-z
1/2-x,y,1/2-z
1/2-x,1/2-y,-z
1/2+x,y,1/2-z
1/2-x,1/2+y,z
1/2+x,-y,1/2+z
loop_
_atom_site_type_symbol
_atom_site_label
_atom_site_fract_x
_atom_site_fract_y
_atom_site_fract_z
Si Si1 0.822247 0.472384 0.086818
Si Si2 0.322693 0.424817 0.532845
Si Si3 0.328227 0.173473 0.484910
Si Si4 0.823943 0.805266 0.192840
Si Si5 0.822845 0.921439 0.191976
Si Si6 0.171621 0.274690 0.083914
O O1 0.785527 0.529344 0.072796
O O2 0.738535 0.451181 0.139621
O O3 0.000000 0.468979 0.095191
O O4 0.787676 0.442144 0.030330
O O5 0.500000 0.416887 0.535720
O O6 0.235914 0.374831 0.544282
O O7 0.500000 0.166589 0.500201
O O8 0.235020 0.185571 0.540211
O O9 0.316851 0.221583 0.445904
O O10 0.750000 0.788263 0.250000
O O11 0.783651 0.863290 0.184666
O O12 0.764366 0.776281 0.139940
O O13 0.000000 0.801866 0.197129
O O14 0.750000 0.938032 0.250000
O O15 0.000000 0.925318 0.195523
O O16 0.000000 0.285480 0.095717
#
# Coordination Sequence:
#
# PCOD9482400 Si02
#       6
#    16  16  16  16  16  16
#     4   9  18  32  49  71  98 127 159 193 233 283
#     4   9  18  32  50  71  97 129 159 191 236 285
#     4  10  20  32  48  72  99 127 161 199 238 282
#     4  10  20  33  50  73  99 127 160 196 237 285
#     4  10  20  32  48  71  97 126 158 194 236 280
#     4  10  20  33  49  70  98 130 161 196 239 284
#
# _framework density 8.2304530000000007
#
# number of rings (size 3 to 8) (size 9 to 14) (size 15 to 20)
#    0.000    2.333    0.000    4.000    0.000    8.000 
#    0.000    1.667    0.000    1.000    0.000    7.000 
#    0.000    0.000    0.000    0.000    0.000    0.000 
#
# Total GULP energy -267806.950203 kJ/mol
# GULP energy per Si atom -5579.311463 kJ/mol
# Density = 0.821172 g / cm^3
# Si number density = 8.230453 Si / 1000 Ang^3
#
#
#
# Elastic Constant Matrix: (Units=GPa)
#
#
# Indices 1 2 3 4 5 6 
#
# 1 32.5667 21.4337 21.7756 0.0000 0.0000 0.0000
# 2 21.4337 22.1131 -18.7045 0.0000 0.0000 0.0000
# 3 21.7756 -18.7045 43.0358 0.0000 0.0000 0.0000
# 4 0.0000 0.0000 0.0000 6.6015 0.0000 0.0000
# 5 0.0000 0.0000 0.0000 0.0000 30.8247 0.0000
# 6 0.0000 0.0000 0.0000 0.0000 0.0000 21.4621
#
#
#
# Elastic Compliance Matrix: (Units=1/GPa)
#
#
# Indices 1 2 3 4 5 6 
#
# 1 -0.021403 0.047291 0.031383 0.000000 0.000000 0.000000
# 2 0.047291 -0.032981 -0.038263 0.000000 0.000000 0.000000
# 3 0.031383 -0.038263 -0.009273 0.000000 0.000000 0.000000
# 4 0.000000 0.000000 0.000000 0.151482 0.000000 0.000000
# 5 0.000000 0.000000 0.000000 0.000000 0.032442 0.000000
# 6 0.000000 0.000000 0.000000 0.000000 0.000000 0.046594
#
#
# Mechanical properties :
#
#
# Convention : Reuss Voigt Hill
#
# Bulk Modulus (GPa) = 58.25653 16.30279 37.27966
# Shear Modulus (GPa) = 54.49047 16.65837 35.57442
#
# Velocity S-wave (km/s) = 5.75976 3.18464 4.65386
# Velocity P-wave (km/s) = 8.92753 4.84232 7.18153
#
# Compressibility (1/GPa) = 0.01716546
#
# Stress axis : x y z
#
# Youngs Moduli (GPa) = -46.72321 -30.32045 -107.83604
#
# Poissons Ratio (x) = 1.43388 3.38426
# Poissons Ratio (y) = 2.20958 -4.12614
# Poissons Ratio (z) = 1.46633 -1.16015
#
# Static dielectric constant tensor:
#      x y z
#    x 1.548120 0.000000 0.000000 
#    y 0.000000 1.548930 0.000000 
#    z 0.000000 0.000000 1.532600 
# 
# From -- ./inp_files/36975.got.cif
#   From: 2010.05.17/outbox.ucp.g08.bks.cvg/sg64_19_cif.got.tgz:36975.got - 2010.06.11 16:36:46.
