data_PCOD9482384
_publ_section_title
;
Structure prediction by ZEFSAII (Michael W. Deem and Ramdas Pophale) SiO2 
 PCOD9482384
Probable space group: C M C A
;
_chemical_formula_sum "Si O2"
_cell_formula_units_Z 58
_cell_length_a 15.000000
_cell_length_b 24.000000
_cell_length_c 18.000000
_cell_angle_alpha 90.000000
_cell_angle_beta 90.000000
_cell_angle_gamma 90.000000
_cell_volume 6480.000000
_symmetry_space_group_name_H-M "C M C A"
_symmetry_group_IT_number 64
_symmetry_cell_setting 'orthorhombic'
loop_
_space_group_symop_operation_xyz
x,y,z
-x,1/2-y,1/2+z
x,-y,-z
-x,1/2+y,1/2-z
-x,-y,-z
x,1/2+y,1/2-z
-x,y,z
x,1/2-y,1/2+z
1/2+x,1/2+y,z
1/2-x,-y,1/2+z
1/2+x,1/2-y,-z
1/2-x,y,1/2-z
1/2-x,1/2-y,-z
1/2+x,y,1/2-z
1/2-x,1/2+y,z
1/2+x,-y,1/2+z
loop_
_atom_site_type_symbol
_atom_site_label
_atom_site_fract_x
_atom_site_fract_y
_atom_site_fract_z
Si Si1 0.101531 0.792062 0.943209
Si Si2 0.103497 0.796049 0.570740
Si Si3 0.765998 0.878228 0.336634
Si Si4 0.338937 0.422670 0.547204
Si Si5 0.149588 0.405277 0.473035
Si Si6 0.500000 0.000000 0.500000
Si Si7 0.240851 0.748770 0.837455
Si Si8 0.100508 0.532274 0.892564
O O1 0.170322 0.789584 0.875897
O O2 0.000000 0.792073 0.916814
O O3 0.116341 0.737129 0.993549
O O4 0.117155 0.846227 0.994050
O O5 0.132983 0.860298 0.567153
O O6 0.164109 0.762987 0.627964
O O7 0.000000 0.793172 0.589656
O O8 0.750000 0.877455 0.250000
O O9 0.684187 0.896935 0.388903
O O10 0.786657 0.814398 0.357526
O O11 0.844324 0.921839 0.349312
O O12 0.237589 0.421804 0.519647
O O13 0.395973 0.443262 0.476406
O O14 0.354782 0.471258 0.606799
O O15 0.077197 0.452796 0.481897
O O16 0.250000 0.754708 0.750000
O O17 0.000000 0.527182 0.866809
#
# Coordination Sequence:
#
# PCOD9482384 Si02
#       8
#    16  16  16  16  16   4  16  16
#     4  11  21  37  62  92 121 157 204 251 300 363
#     4  11  21  35  61  91 119 154 202 255 303 363
#     4  10  22  40  60  86 123 161 199 249 311 363
#     4  10  19  34  60  84 116 147 191 248 304 351
#     4  11  20  37  62  89 120 159 202 256 297 363
#     4  12  24  36  64 100 118 156 216 256 312 348
#     4  11  23  39  60  86 125 164 197 249 315 374
#     4  10  19  34  56  86 111 144 193 244 295 355
#
# _framework density 8.9506169999999994
#
# number of rings (size 3 to 8) (size 9 to 14) (size 15 to 20)
#    0.000    1.379    3.448    5.379    0.000    2.207 
#    1.241    2.069    0.000    0.000    0.000    0.000 
#    0.000    0.000    0.000    0.000    0.000    0.000 
#
# Total GULP energy -322920.000534 kJ/mol
# GULP energy per Si atom -5567.586216 kJ/mol
# Density = 0.893025 g / cm^3
# Si number density = 8.950617 Si / 1000 Ang^3
#
#
#
# Elastic Constant Matrix: (Units=GPa)
#
#
# Indices 1 2 3 4 5 6 
#
# 1 116.2851 36.9785 62.6352 0.0000 0.0000 0.0000
# 2 36.9785 112.3843 43.1974 0.0000 0.0000 0.0000
# 3 62.6352 43.1974 53.1567 0.0000 0.0000 0.0000
# 4 0.0000 0.0000 0.0000 24.1980 0.0000 0.0000
# 5 0.0000 0.0000 0.0000 0.0000 49.7854 0.0000
# 6 0.0000 0.0000 0.0000 0.0000 0.0000 18.7068
#
#
#
# Elastic Compliance Matrix: (Units=1/GPa)
#
#
# Indices 1 2 3 4 5 6 
#
# 1 0.025017 0.004507 -0.033140 0.000000 0.000000 0.000000
# 2 0.004507 0.013752 -0.016485 0.000000 0.000000 0.000000
# 3 -0.033140 -0.016485 0.071258 0.000000 0.000000 0.000000
# 4 0.000000 0.000000 0.000000 0.041326 0.000000 0.000000
# 5 0.000000 0.000000 0.000000 0.000000 0.020086 0.000000
# 6 0.000000 0.000000 0.000000 0.000000 0.000000 0.053456
#
#
# Mechanical properties :
#
#
# Convention : Reuss Voigt Hill
#
# Bulk Modulus (GPa) = 50.53231 63.04983 56.79107
# Shear Modulus (GPa) = 15.54109 27.80571 21.67340
#
# Velocity S-wave (km/s) = 2.94965 3.94545 3.48332
# Velocity P-wave (km/s) = 6.31587 7.48684 6.92615
#
# Compressibility (1/GPa) = 0.01978932
#
# Stress axis : x y z
#
# Youngs Moduli (GPa) = 39.97342 72.71805 14.03354
#
# Poissons Ratio (x) = -0.32771 0.46507
# Poissons Ratio (y) = -0.18014 0.23135
# Poissons Ratio (z) = 1.32470 1.19879
#
# Static dielectric constant tensor:
#      x y z
#    x 1.650130 0.000000 0.000000 
#    y 0.000000 1.627260 0.000000 
#    z 0.000000 0.000000 1.616930 
# 
# From -- ./inp_files/32503.got.cif
#   From: 2010.05.17/outbox.ucp.g08.bks.cvg/sg64_17_cif.got.tgz:32503.got - 2010.06.11 16:36:46.
