data_PCOD9482348
_publ_section_title
;
Structure prediction by ZEFSAII (Michael W. Deem and Ramdas Pophale) SiO2 
 PCOD9482348
Probable space group: C M C A
;
_chemical_formula_sum "Si O2"
_cell_formula_units_Z 80
_cell_length_a 14.247387
_cell_length_b 14.012676
_cell_length_c 18.827376
_cell_angle_alpha 90.000000
_cell_angle_beta 90.000000
_cell_angle_gamma 90.000000
_cell_volume 3758.772991
_symmetry_space_group_name_H-M "C M C A"
_symmetry_group_IT_number 64
_symmetry_cell_setting 'orthorhombic'
loop_
_space_group_symop_operation_xyz
x,y,z
-x,1/2-y,1/2+z
x,-y,-z
-x,1/2+y,1/2-z
-x,-y,-z
x,1/2+y,1/2-z
-x,y,z
x,1/2-y,1/2+z
1/2+x,1/2+y,z
1/2-x,-y,1/2+z
1/2+x,1/2-y,-z
1/2-x,y,1/2-z
1/2-x,1/2-y,-z
1/2+x,y,1/2-z
1/2-x,1/2+y,z
1/2+x,-y,1/2+z
loop_
_atom_site_type_symbol
_atom_site_label
_atom_site_fract_x
_atom_site_fract_y
_atom_site_fract_z
Si Si1 0.614029 0.575155 0.158043
Si Si2 0.113191 0.337937 0.806765
Si Si3 0.694855 0.884037 0.510486
Si Si4 0.395467 0.396313 0.536442
Si Si5 0.611578 0.140634 0.636407
O O1 0.500000 0.576147 0.152707
O O2 0.644740 0.619768 0.232365
O O3 0.654247 0.628887 0.089186
O O4 0.646140 0.464495 0.156869
O O5 0.126768 0.399249 0.878910
O O6 0.150308 0.231675 0.821970
O O7 0.000000 0.331615 0.800261
O O8 0.802430 0.850244 0.503323
O O9 0.632733 0.845390 0.446632
O O10 0.694702 0.000000 0.500000
O O11 0.400923 0.500000 0.500000
O O12 0.500000 0.352706 0.528628
O O13 0.500000 0.139148 0.647026
#
# Coordination Sequence:
#
# PCOD9482348 Si02
#       5
#    16  16  16  16  16
#     4   9  17  31  52  78 108 139 172 214 264 316
#     4   9  18  32  50  74 106 143 177 212 260 313
#     4   9  17  30  52  78 101 133 176 218 264 311
#     4   9  18  33  51  71 100 140 182 220 260 310
#     4   9  17  31  52  79 109 137 171 217 261 309
#
# _framework density 21.283543000000002
#
# number of rings (size 3 to 8) (size 9 to 14) (size 15 to 20)
#    0.000    3.000    0.000    0.600    0.000    4.000 
#    0.000    2.000    0.000   16.800    0.000    4.200 
#    0.000    0.000    0.000    0.000    0.000    0.000 
#
# Total GULP energy -223047.647345 kJ/mol
# GULP energy per Si atom -5576.191184 kJ/mol
# Density = 2.123510 g / cm^3
# Si number density = 21.283543 Si / 1000 Ang^3
#
#
#
# Elastic Constant Matrix: (Units=GPa)
#
#
# Indices 1 2 3 4 5 6 
#
# 1 47.8573 7.8533 5.2890 0.0000 0.0000 0.0000
# 2 7.8533 95.0610 64.0553 0.0000 0.0000 0.0000
# 3 5.2890 64.0553 134.5283 0.0000 0.0000 0.0000
# 4 0.0000 0.0000 0.0000 33.5014 0.0000 0.0000
# 5 0.0000 0.0000 0.0000 0.0000 -18.4726 0.0000
# 6 0.0000 0.0000 0.0000 0.0000 0.0000 13.9803
#
#
#
# Elastic Compliance Matrix: (Units=1/GPa)
#
#
# Indices 1 2 3 4 5 6 
#
# 1 0.021183 -0.001750 0.000001 0.000000 0.000000 0.000000
# 2 -0.001750 0.015634 -0.007375 0.000000 0.000000 0.000000
# 3 0.000001 -0.007375 0.010945 0.000000 0.000000 0.000000
# 4 0.000000 0.000000 0.000000 0.029850 0.000000 0.000000
# 5 0.000000 0.000000 0.000000 0.000000 -0.054134 0.000000
# 6 0.000000 0.000000 0.000000 0.000000 0.000000 0.071529
#
#
# Mechanical properties :
#
#
# Convention : Reuss Voigt Hill
#
# Bulk Modulus (GPa) = 33.88502 47.98246 40.93374
# Shear Modulus (GPa) = 40.61962 19.15174 29.88568
#
# Velocity S-wave (km/s) = 4.37338 3.00298 3.75129
# Velocity P-wave (km/s) = 6.43873 5.88364 6.16743
#
# Compressibility (1/GPa) = 0.02951156
#
# Stress axis : x y z
#
# Youngs Moduli (GPa) = 47.20856 63.96393 91.36570
#
# Poissons Ratio (x) = 0.11196 -0.00006
# Poissons Ratio (y) = 0.08263 0.67384
# Poissons Ratio (z) = -0.00003 0.47175
#
# Static dielectric constant tensor:
#      x y z
#    x 1.796870 0.000000 0.000000 
#    y 0.000000 1.830180 0.000000 
#    z 0.000000 0.000000 1.733740 
# 
# From -- ./inp_files/25304.got.cif
#   From: 2010.05.17/outbox.cif.g08.bks.cpg/sg64_13_cif.got.tgz:25304.got - 2010.06.03 16:29:19.
