data_PCOD9482470
_publ_section_title
;
Structure prediction by ZEFSAII (Michael W. Deem and Ramdas Pophale) SiO2 
 PCOD9482470
Probable space group: C M C A
;
_chemical_formula_sum "Si O2"
_cell_formula_units_Z 56
_cell_length_a 12.000000
_cell_length_b 15.000000
_cell_length_c 30.000000
_cell_angle_alpha 90.000000
_cell_angle_beta 90.000000
_cell_angle_gamma 90.000000
_cell_volume 5400.000000
_symmetry_space_group_name_H-M "C M C A"
_symmetry_group_IT_number 64
_symmetry_cell_setting 'orthorhombic'
loop_
_space_group_symop_operation_xyz
x,y,z
-x,1/2-y,1/2+z
x,-y,-z
-x,1/2+y,1/2-z
-x,-y,-z
x,1/2+y,1/2-z
-x,y,z
x,1/2-y,1/2+z
1/2+x,1/2+y,z
1/2-x,-y,1/2+z
1/2+x,1/2-y,-z
1/2-x,y,1/2-z
1/2-x,1/2-y,-z
1/2+x,y,1/2-z
1/2-x,1/2+y,z
1/2+x,-y,1/2+z
loop_
_atom_site_type_symbol
_atom_site_label
_atom_site_fract_x
_atom_site_fract_y
_atom_site_fract_z
Si Si1 0.369989 0.455676 0.637372
Si Si2 0.247233 0.517271 0.448865
Si Si3 0.876129 0.237991 0.256649
Si Si4 0.376558 0.205256 0.458296
Si Si5 0.318127 0.741086 0.353958
Si Si6 0.328964 0.674640 0.941599
Si Si7 0.873200 0.638642 0.825207
O O1 0.500000 0.437594 0.645652
O O2 0.347051 0.480623 0.586198
O O3 0.305937 0.364684 0.646352
O O4 0.331994 0.538499 0.667384
O O5 0.281058 0.500000 0.500000
O O6 0.183023 0.611517 0.446009
O O7 0.171746 0.431707 0.436423
O O8 0.750000 0.194744 0.250000
O O9 0.877483 0.264475 0.308069
O O10 0.871660 0.323840 0.224726
O O11 0.000000 0.194663 0.246996
O O12 0.500000 0.211295 0.439203
O O13 0.383018 0.201061 0.511925
O O14 0.297192 0.287758 0.447034
O O15 0.374855 0.774525 0.398840
O O16 0.201467 0.792100 0.351762
O O17 0.000000 0.639031 0.841403
#
# Coordination Sequence:
#
# PCOD9482470 Si02
#       7
#    16  16  16  16  16  16  16
#     4  11  22  37  60  89 121 159 200 254 313 366
#     4  10  21  39  58  83 120 157 207 253 302 365
#     4   9  19  37  61  88 120 160 200 250 312 379
#     4  10  22  40  59  82 120 166 205 248 305 366
#     4  11  20  37  62  92 125 151 202 263 312 363
#     4  10  21  37  59  88 120 158 205 253 299 363
#     4   9  20  40  64  85 117 164 203 241 310 385
#
# _framework density 10.370369999999999
#
# number of rings (size 3 to 8) (size 9 to 14) (size 15 to 20)
#    0.000    2.000    2.857    0.429    0.000    5.143 
#    0.000    6.429    0.000    7.714    0.000    0.000 
#    0.000    0.000    0.000    0.000    0.000    0.000 
#
# Total GULP energy -311864.328922 kJ/mol
# GULP energy per Si atom -5569.005874 kJ/mol
# Density = 1.034677 g / cm^3
# Si number density = 10.370370 Si / 1000 Ang^3
#
#
#
# Elastic Constant Matrix: (Units=GPa)
#
#
# Indices 1 2 3 4 5 6 
#
# 1 79.3082 34.6453 23.0133 0.0000 0.0000 0.0000
# 2 34.6453 76.0940 11.7126 0.0000 0.0000 0.0000
# 3 23.0133 11.7126 85.2031 0.0000 0.0000 0.0000
# 4 0.0000 0.0000 0.0000 16.1160 0.0000 0.0000
# 5 0.0000 0.0000 0.0000 0.0000 -13.9376 0.0000
# 6 0.0000 0.0000 0.0000 0.0000 0.0000 -2.9182
#
#
#
# Elastic Compliance Matrix: (Units=1/GPa)
#
#
# Indices 1 2 3 4 5 6 
#
# 1 0.016726 -0.007070 -0.003546 0.000000 0.000000 0.000000
# 2 -0.007070 0.016414 -0.000347 0.000000 0.000000 0.000000
# 3 -0.003546 -0.000347 0.012742 0.000000 0.000000 0.000000
# 4 0.000000 0.000000 0.000000 0.062050 0.000000 0.000000
# 5 0.000000 0.000000 0.000000 0.000000 -0.071749 0.000000
# 6 0.000000 0.000000 0.000000 0.000000 0.000000 -0.342680
#
#
# Mechanical properties :
#
#
# Convention : Reuss Voigt Hill
#
# Bulk Modulus (GPa) = 41.74077 42.14976 41.94526
# Shear Modulus (GPa) = -18.07757 11.26765 -3.40496
#
# Velocity S-wave (km/s) = -2.95549 2.33333 -1.28267
# Velocity P-wave (km/s) = 2.91928 5.25600 4.25134
#
# Compressibility (1/GPa) = 0.02395739
#
# Stress axis : x y z
#
# Youngs Moduli (GPa) = 59.78601 60.92427 78.47999
#
# Poissons Ratio (x) = 0.43071 0.27828
# Poissons Ratio (y) = 0.42267 0.02722
# Poissons Ratio (z) = 0.21200 0.02113
#
# Static dielectric constant tensor:
#      x y z
#    x 1.789420 0.000000 0.000000 
#    y 0.000000 1.711520 0.000000 
#    z 0.000000 0.000000 1.785790 
# 
# From -- ./inp_files/52850.got.cif
#   From: 2010.05.17/outbox.ucp.g08.bks.cvg/sg64_27_cif.got.tgz:52850.got - 2010.06.11 16:36:46.
