data_PCOD9482334
_publ_section_title
;
Structure prediction by ZEFSAII (Michael W. Deem and Ramdas Pophale) SiO2 
 PCOD9482334
Probable space group: C M C A
;
_chemical_formula_sum "Si O2"
_cell_formula_units_Z 80
_cell_length_a 17.877042
_cell_length_b 23.417860
_cell_length_c 8.127910
_cell_angle_alpha 90.000000
_cell_angle_beta 90.000000
_cell_angle_gamma 90.000000
_cell_volume 3402.685041
_symmetry_space_group_name_H-M "C M C A"
_symmetry_group_IT_number 64
_symmetry_cell_setting 'orthorhombic'
loop_
_space_group_symop_operation_xyz
x,y,z
-x,1/2-y,1/2+z
x,-y,-z
-x,1/2+y,1/2-z
-x,-y,-z
x,1/2+y,1/2-z
-x,y,z
x,1/2-y,1/2+z
1/2+x,1/2+y,z
1/2-x,-y,1/2+z
1/2+x,1/2-y,-z
1/2-x,y,1/2-z
1/2-x,1/2-y,-z
1/2+x,y,1/2-z
1/2-x,1/2+y,z
1/2+x,-y,1/2+z
loop_
_atom_site_type_symbol
_atom_site_label
_atom_site_fract_x
_atom_site_fract_y
_atom_site_fract_z
Si Si1 0.415584 0.366208 0.765227
Si Si2 0.136052 0.566740 0.951134
Si Si3 0.589990 0.736008 0.458632
Si Si4 0.409632 0.340016 0.234643
Si Si5 0.207335 0.057748 0.078775
O O1 0.500000 0.368462 0.830089
O O2 0.410838 0.401190 0.592658
O O3 0.397664 0.302347 0.705273
O O4 0.356163 0.397710 0.878223
O O5 0.112995 0.594988 0.777563
O O6 0.127398 0.500000 0.000000
O O7 0.224069 0.580173 0.970347
O O8 0.500000 0.738159 0.480524
O O9 0.614943 0.800429 0.418928
O O10 0.618657 0.697931 0.609201
O O11 0.500000 0.339689 0.233550
O O12 0.250000 0.042774 0.250000
O O13 0.177036 0.000000 0.000000
#
# Coordination Sequence:
#
# PCOD9482334 Si02
#       5
#    16  16  16  16  16
#     4   9  17  30  49  71  96 126 160 198 240 288
#     4   9  17  30  49  72  98 129 164 200 237 282
#     4   8  15  28  45  66  92 122 155 193 237 279
#     4   9  16  28  47  69  95 126 159 195 237 285
#     4   9  18  33  50  68  95 130 162 194 240 290
#
# _framework density 23.510846000000001
#
# number of rings (size 3 to 8) (size 9 to 14) (size 15 to 20)
#    0.000    3.200    0.000    1.800    0.000    2.000 
#    0.000    7.000    0.000    2.400    0.000    0.000 
#    0.000    0.000    0.000    0.000    0.000    0.000 
#
# Total GULP energy -223186.956363 kJ/mol
# GULP energy per Si atom -5579.673909 kJ/mol
# Density = 2.345733 g / cm^3
# Si number density = 23.510846 Si / 1000 Ang^3
#
#
#
# Elastic Constant Matrix: (Units=GPa)
#
#
# Indices 1 2 3 4 5 6 
#
# 1 50.1186 38.2296 8.2966 0.0000 0.0000 0.0000
# 2 38.2296 139.1578 34.2272 0.0000 0.0000 0.0000
# 3 8.2966 34.2272 60.7266 0.0000 0.0000 0.0000
# 4 0.0000 0.0000 0.0000 47.0187 0.0000 0.0000
# 5 0.0000 0.0000 0.0000 0.0000 0.9131 0.0000
# 6 0.0000 0.0000 0.0000 0.0000 0.0000 130.3744
#
#
#
# Elastic Compliance Matrix: (Units=1/GPa)
#
#
# Indices 1 2 3 4 5 6 
#
# 1 0.025257 -0.007070 0.000534 0.000000 0.000000 0.000000
# 2 -0.007070 0.010322 -0.004852 0.000000 0.000000 0.000000
# 3 0.000534 -0.004852 0.019129 0.000000 0.000000 0.000000
# 4 0.000000 0.000000 0.000000 0.021268 0.000000 0.000000
# 5 0.000000 0.000000 0.000000 0.000000 1.095120 0.000000
# 6 0.000000 0.000000 0.000000 0.000000 0.000000 0.007670
#
#
# Mechanical properties :
#
#
# Convention : Reuss Voigt Hill
#
# Bulk Modulus (GPa) = 31.31599 45.72332 38.51965
# Shear Modulus (GPa) = 4.12478 46.94457 25.53468
#
# Velocity S-wave (km/s) = 1.32598 4.47331 3.29915
# Velocity P-wave (km/s) = 3.96144 6.79490 5.56164
#
# Compressibility (1/GPa) = 0.03193257
#
# Stress axis : x y z
#
# Youngs Moduli (GPa) = 39.59275 96.88338 52.27718
#
# Poissons Ratio (x) = 0.68497 -0.02793
# Poissons Ratio (y) = 0.27992 0.25363
# Poissons Ratio (z) = -0.02115 0.47005
#
# Static dielectric constant tensor:
#      x y z
#    x 1.826240 0.000000 0.000000 
#    y 0.000000 1.923620 0.000000 
#    z 0.000000 0.000000 2.059830 
# 
# From -- ./inp_files/7123.got.cif
#   From: 2010.05.17/outbox.cif.g08.bks.cpg/sg64_4_cif.got.tgz:7123.got - 2010.06.03 16:29:19.
