data_PCOD9482746
_publ_section_title
;
Structure prediction by ZEFSAII (Michael W. Deem and Ramdas Pophale) SiO2 
 PCOD9482746
Probable space group: C M M M
;
_chemical_formula_sum "Si O2"
_cell_formula_units_Z 72
_cell_length_a 23.961147
_cell_length_b 24.079377
_cell_length_c 8.387653
_cell_angle_alpha 90.000000
_cell_angle_beta 90.000000
_cell_angle_gamma 90.000000
_cell_volume 4839.419890
_symmetry_space_group_name_H-M "C M M M"
_symmetry_group_IT_number 65
_symmetry_cell_setting 'orthorhombic'
loop_
_space_group_symop_operation_xyz
x,y,z
-x,-y,z
x,-y,-z
-x,y,-z
-x,-y,-z
x,y,-z
-x,y,z
x,-y,z
1/2+x,1/2+y,z
1/2-x,1/2-y,z
1/2+x,1/2-y,-z
1/2-x,1/2+y,-z
1/2-x,1/2-y,-z
1/2+x,1/2+y,-z
1/2-x,1/2+y,z
1/2+x,1/2-y,z
loop_
_atom_site_type_symbol
_atom_site_label
_atom_site_fract_x
_atom_site_fract_y
_atom_site_fract_z
Si Si1 0.328124 0.776480 0.686623
Si Si2 0.388545 0.876084 0.191085
Si Si3 0.000000 0.564331 0.691352
Si Si4 0.273777 0.936906 0.194550
Si Si5 0.215162 0.830140 0.187379
O O1 0.316520 0.783417 0.500000
O O2 0.379813 0.814709 0.736294
O O3 0.276172 0.802367 0.784745
O O4 0.327753 0.711216 0.726997
O O5 0.444817 0.905225 0.246296
O O6 0.334519 0.912848 0.242017
O O7 0.387517 0.872140 0.000000
O O8 0.000000 0.500000 0.744050
O O9 0.000000 0.565538 0.500000
O O10 0.226214 0.892949 0.245230
O O11 0.266329 0.000000 0.248784
O O12 0.273325 0.936746 0.000000
O O13 0.202756 0.830525 0.000000
#
# Coordination Sequence:
#
# PCOD9482746 Si02
#       5
#    16  16   8  16  16
#     4  10  17  26  40  57  78 101 129 168 212 249
#     4  10  19  31  46  60  76 104 143 179 209 244
#     4  11  23  35  45  61  85 109 136 173 214 249
#     4   8  14  24  39  59  80 103 134 170 202 234
#     4   9  15  24  39  58  79 103 133 165 198 245
#
# _framework density 14.877817
#
# number of rings (size 3 to 8) (size 9 to 14) (size 15 to 20)
#    0.000    2.556    0.000    7.000    0.000    1.778 
#    0.000    0.000    0.000   13.333    0.000    0.000 
#    0.000    0.000    0.000    1.000    0.000   20.667 
#
# Total GULP energy -200451.102828 kJ/mol
# GULP energy per Si atom -5568.086190 kJ/mol
# Density = 1.484395 g / cm^3
# Si number density = 14.877817 Si / 1000 Ang^3
#
#
#
# Elastic Constant Matrix: (Units=GPa)
#
#
# Indices 1 2 3 4 5 6 
#
# 1 46.9367 56.3936 11.2396 0.0000 0.0000 0.0000
# 2 56.3936 144.2827 17.3008 0.0000 0.0000 0.0000
# 3 11.2396 17.3008 27.6598 0.0000 0.0000 0.0000
# 4 0.0000 0.0000 0.0000 10.9320 0.0000 0.0000
# 5 0.0000 0.0000 0.0000 0.0000 40.2147 0.0000
# 6 0.0000 0.0000 0.0000 0.0000 0.0000 26.6521
#
#
#
# Elastic Compliance Matrix: (Units=1/GPa)
#
#
# Indices 1 2 3 4 5 6 
#
# 1 0.041474 -0.015340 -0.007258 0.000000 0.000000 0.000000
# 2 -0.015340 0.013167 -0.002002 0.000000 0.000000 0.000000
# 3 -0.007258 -0.002002 0.040355 0.000000 0.000000 0.000000
# 4 0.000000 0.000000 0.000000 0.091474 0.000000 0.000000
# 5 0.000000 0.000000 0.000000 0.000000 0.024867 0.000000
# 6 0.000000 0.000000 0.000000 0.000000 0.000000 0.037520
#
#
# Mechanical properties :
#
#
# Convention : Reuss Voigt Hill
#
# Bulk Modulus (GPa) = 21.83621 43.19414 32.51517
# Shear Modulus (GPa) = 15.95796 24.48944 20.22370
#
# Velocity S-wave (km/s) = 3.27861 4.06154 3.69089
# Velocity P-wave (km/s) = 5.38900 7.14776 6.32976
#
# Compressibility (1/GPa) = 0.04579550
#
# Stress axis : x y z
#
# Youngs Moduli (GPa) = 24.11133 75.94930 24.77998
#
# Poissons Ratio (x) = 1.16507 0.17986
# Poissons Ratio (y) = 0.36987 0.04961
# Poissons Ratio (z) = 0.17500 0.15206
#
# Static dielectric constant tensor:
#      x y z
#    x 1.467280 0.000000 0.000000 
#    y 0.000000 1.555260 0.000000 
#    z 0.000000 0.000000 1.497920 
# 
# From -- ./inp_files/11988.got.cif
#   From: 2010.05.17/outbox.cif.g08.bks.cpg/sg65_6_cif.got.tgz:11988.got - 2010.06.03 17:01:31.
