data_PCOD9482814
_publ_section_title
;
Structure prediction by ZEFSAII (Michael W. Deem and Ramdas Pophale) SiO2 
 PCOD9482814
Probable space group: C M M M
;
_chemical_formula_sum "Si O2"
_cell_formula_units_Z 96
_cell_length_a 24.896482
_cell_length_b 13.964913
_cell_length_c 16.125243
_cell_angle_alpha 90.000000
_cell_angle_beta 90.000000
_cell_angle_gamma 90.000000
_cell_volume 5606.379418
_symmetry_space_group_name_H-M "C M M M"
_symmetry_group_IT_number 65
_symmetry_cell_setting 'orthorhombic'
loop_
_space_group_symop_operation_xyz
x,y,z
-x,-y,z
x,-y,-z
-x,y,-z
-x,-y,-z
x,y,-z
-x,y,z
x,-y,z
1/2+x,1/2+y,z
1/2-x,1/2-y,z
1/2+x,1/2-y,-z
1/2-x,1/2+y,-z
1/2-x,1/2-y,-z
1/2+x,1/2+y,-z
1/2-x,1/2+y,z
1/2+x,1/2-y,z
loop_
_atom_site_type_symbol
_atom_site_label
_atom_site_fract_x
_atom_site_fract_y
_atom_site_fract_z
Si Si1 0.878110 0.115442 0.168912
Si Si2 0.146305 0.616575 0.906119
Si Si3 0.937693 0.611907 0.764665
Si Si4 0.434712 0.611049 0.500000
Si Si5 0.063664 0.203358 0.672869
Si Si6 0.768418 0.883713 0.094943
Si Si7 0.438448 0.383195 0.000000
O O1 0.905332 0.154714 0.251252
O O2 0.816191 0.144699 0.155679
O O3 0.880375 0.000000 0.172244
O O4 0.909007 0.145259 0.084792
O O5 0.146346 0.500000 0.907631
O O6 0.102769 0.642942 0.837482
O O7 0.207534 0.646373 0.886205
O O8 0.133474 0.647907 0.000000
O O9 0.928448 0.500000 0.745605
O O10 0.930298 0.682971 0.687461
O O11 0.000000 0.621490 0.792020
O O12 0.417771 0.500000 0.500000
O O13 0.500000 0.611989 0.500000
O O14 0.417818 0.664362 0.415877
O O15 0.000000 0.181013 0.680957
O O16 0.768228 0.000000 0.094468
O O17 0.781004 0.854765 0.000000
O O18 0.438203 0.500000 0.000000
O O19 0.500000 0.350577 0.000000
#
# Coordination Sequence:
#
# PCOD9482814 Si02
#       7
#    16  16  16   8  16  16   8
#     4  10  17  27  44  67  98 133 163 194 236 288
#     4   8  14  26  46  68  92 129 173 210 245 285
#     4   9  18  33  50  69  95 125 160 208 256 293
#     4   9  18  34  55  77 102 129 156 192 240 294
#     4  10  20  33  49  72  98 126 162 203 244 292
#     4   8  13  24  42  65  94 129 167 204 240 282
#     4   9  16  24  36  58  92 133 166 190 226 281
#
# _framework density 17.123349999999999
#
# number of rings (size 3 to 8) (size 9 to 14) (size 15 to 20)
#    0.000    3.000    0.833    2.000    0.000    2.000 
#    1.500    2.917    0.000    4.500    0.000    2.333 
#    0.000    5.333    0.000    0.000    0.000    0.000 
#
# Total GULP energy -267699.528093 kJ/mol
# GULP energy per Si atom -5577.073502 kJ/mol
# Density = 1.708438 g / cm^3
# Si number density = 17.123350 Si / 1000 Ang^3
#
#
#
# Elastic Constant Matrix: (Units=GPa)
#
#
# Indices 1 2 3 4 5 6 
#
# 1 70.7326 40.6811 64.4175 0.0000 0.0000 0.0000
# 2 40.6811 81.8687 60.5130 0.0000 0.0000 0.0000
# 3 64.4175 60.5130 144.1162 0.0000 0.0000 0.0000
# 4 0.0000 0.0000 0.0000 24.9866 0.0000 0.0000
# 5 0.0000 0.0000 0.0000 0.0000 12.7088 0.0000
# 6 0.0000 0.0000 0.0000 0.0000 0.0000 8.8390
#
#
#
# Elastic Compliance Matrix: (Units=1/GPa)
#
#
# Indices 1 2 3 4 5 6 
#
# 1 0.025875 -0.006248 -0.008942 0.000000 0.000000 0.000000
# 2 -0.006248 0.019220 -0.005278 0.000000 0.000000 0.000000
# 3 -0.008942 -0.005278 0.013152 0.000000 0.000000 0.000000
# 4 0.000000 0.000000 0.000000 0.040021 0.000000 0.000000
# 5 0.000000 0.000000 0.000000 0.000000 0.078685 0.000000
# 6 0.000000 0.000000 0.000000 0.000000 0.000000 0.113134
#
#
# Mechanical properties :
#
#
# Convention : Reuss Voigt Hill
#
# Bulk Modulus (GPa) = 57.76482 69.77121 63.76801
# Shear Modulus (GPa) = 14.84583 18.04728 16.44656
#
# Velocity S-wave (km/s) = 2.94767 3.24999 3.10252
# Velocity P-wave (km/s) = 6.73742 7.41067 7.08205
#
# Compressibility (1/GPa) = 0.01731158
#
# Stress axis : x y z
#
# Youngs Moduli (GPa) = 38.64724 52.02836 76.03405
#
# Poissons Ratio (x) = 0.32506 0.67992
# Poissons Ratio (y) = 0.24146 0.40129
# Poissons Ratio (z) = 0.34560 0.27459
#
# Static dielectric constant tensor:
#      x y z
#    x 1.585650 0.000000 0.000000 
#    y 0.000000 1.654920 0.000000 
#    z 0.000000 0.000000 1.529270 
# 
# From -- ./inp_files/46975.got.cif
#   From: 2010.05.17/outbox.cif.g08.bks.cpg/sg65_24_cif.got.tgz:46975.got - 2010.06.03 17:01:31.
