data_PCOD9482591
_publ_section_title
;
Structure prediction by ZEFSAII (Michael W. Deem and Ramdas Pophale) SiO2 
 PCOD9482591
Probable space group: C M M M
;
_chemical_formula_sum "Si O2"
_cell_formula_units_Z 88
_cell_length_a 18.539509
_cell_length_b 8.682465
_cell_length_c 30.173814
_cell_angle_alpha 90.000000
_cell_angle_beta 90.000000
_cell_angle_gamma 90.000000
_cell_volume 4857.037743
_symmetry_space_group_name_H-M "C M M M"
_symmetry_group_IT_number 65
_symmetry_cell_setting 'orthorhombic'
loop_
_space_group_symop_operation_xyz
x,y,z
-x,-y,z
x,-y,-z
-x,y,-z
-x,-y,-z
x,y,-z
-x,y,z
x,-y,z
1/2+x,1/2+y,z
1/2-x,1/2-y,z
1/2+x,1/2-y,-z
1/2-x,1/2+y,-z
1/2-x,1/2-y,-z
1/2+x,1/2+y,-z
1/2-x,1/2+y,z
1/2+x,1/2-y,z
loop_
_atom_site_type_symbol
_atom_site_label
_atom_site_fract_x
_atom_site_fract_y
_atom_site_fract_z
Si Si1 0.332157 0.316600 0.500000
Si Si2 0.916099 0.184301 0.771681
Si Si3 0.168447 0.315650 0.590175
Si Si4 0.831563 0.685865 0.952407
Si Si5 0.668627 0.185247 0.855373
Si Si6 0.331160 0.815516 0.311748
O O1 0.328849 0.500000 0.500000
O O2 0.250000 0.250000 0.500000
O O3 0.365844 0.256232 0.545970
O O4 0.877532 0.250385 0.815143
O O5 0.877898 0.248370 0.727843
O O6 0.000000 0.227352 0.771730
O O7 0.909877 0.000000 0.772009
O O8 0.171082 0.500000 0.585238
O O9 0.250000 0.250000 0.591827
O O10 0.138383 0.278130 0.638988
O O11 0.828839 0.500000 0.952445
O O12 0.750000 0.750000 0.952550
O O13 0.861769 0.730935 0.904239
O O14 0.864839 0.733957 0.000000
O O15 0.750000 0.250000 0.852047
O O16 0.671290 0.000000 0.852888
O O17 0.250000 0.750000 0.308492
O O18 0.327515 0.000000 0.308262
#
# Coordination Sequence:
#
# PCOD9482591 Si02
#       6
#     8  16  16  16  16  16
#     4  10  16  22  36  60  93 130 161 192 233 281
#     4  11  24  39  53  70  96 130 167 209 254 299
#     4   9  16  26  41  64  94 126 158 194 237 284
#     4   8  14  25  43  70 101 129 158 194 237 283
#     4  10  19  32  53  78 104 133 165 203 244 291
#     4  10  20  34  54  77 101 130 165 206 249 296
#
# _framework density 18.118040000000001
#
# number of rings (size 3 to 8) (size 9 to 14) (size 15 to 20)
#    0.000    2.364    0.000    4.636    0.000    4.364 
#    0.000    0.000    0.000    0.545    0.000    4.455 
#    0.000    5.091    0.000    0.000    0.000    0.000 
#
# Total GULP energy -245138.467011 kJ/mol
# GULP energy per Si atom -5571.328796 kJ/mol
# Density = 1.807680 g / cm^3
# Si number density = 18.118040 Si / 1000 Ang^3
#
#
#
# Elastic Constant Matrix: (Units=GPa)
#
#
# Indices 1 2 3 4 5 6 
#
# 1 47.9189 27.8398 67.1062 0.0000 0.0000 0.0000
# 2 27.8398 61.3719 65.4515 0.0000 0.0000 0.0000
# 3 67.1062 65.4515 247.6362 0.0000 0.0000 0.0000
# 4 0.0000 0.0000 0.0000 104.5861 0.0000 0.0000
# 5 0.0000 0.0000 0.0000 0.0000 -6.0358 0.0000
# 6 0.0000 0.0000 0.0000 0.0000 0.0000 15.8027
#
#
#
# Elastic Compliance Matrix: (Units=1/GPa)
#
#
# Indices 1 2 3 4 5 6 
#
# 1 0.036473 -0.008361 -0.007674 0.000000 0.000000 0.000000
# 2 -0.008361 0.024606 -0.004238 0.000000 0.000000 0.000000
# 3 -0.007674 -0.004238 0.007238 0.000000 0.000000 0.000000
# 4 0.000000 0.000000 0.000000 0.009561 0.000000 0.000000
# 5 0.000000 0.000000 0.000000 0.000000 -0.165678 0.000000
# 6 0.000000 0.000000 0.000000 0.000000 0.000000 0.063280
#
#
# Mechanical properties :
#
#
# Convention : Reuss Voigt Hill
#
# Bulk Modulus (GPa) = 36.00816 75.30245 55.65531
# Shear Modulus (GPa) = 197.76346 35.97256 116.86801
#
# Velocity S-wave (km/s) = 10.45896 4.46068 8.04013
# Velocity P-wave (km/s) = 12.87518 8.25727 10.81557
#
# Compressibility (1/GPa) = 0.02777148
#
# Stress axis : x y z
#
# Youngs Moduli (GPa) = 27.41790 40.63969 138.16433
#
# Poissons Ratio (x) = 0.33979 1.06023
# Poissons Ratio (y) = 0.22924 0.58552
# Poissons Ratio (z) = 0.21040 0.17223
#
# Static dielectric constant tensor:
#      x y z
#    x 1.565280 0.000000 0.000000 
#    y 0.000000 1.604880 0.000000 
#    z 0.000000 0.000000 1.701990 
# 
# From -- ./inp_files/78098.got.cif
#   From: 2010.05.17/outbox.cif.g08.bks.cpg/sg65_40_cif.got.tgz:78098.got - 2010.06.03 17:01:31.
