data_PCOD9482180
_publ_section_title
;
Structure prediction by ZEFSAII (Michael W. Deem and Ramdas Pophale) SiO2 
 PCOD9482180
Probable space group: C M C A
;
_chemical_formula_sum "Si O2"
_cell_formula_units_Z 56
_cell_length_a 16.622721
_cell_length_b 9.945940
_cell_length_c 13.962230
_cell_angle_alpha 90.000000
_cell_angle_beta 90.000000
_cell_angle_gamma 90.000000
_cell_volume 2308.355739
_symmetry_space_group_name_H-M "C M C A"
_symmetry_group_IT_number 64
_symmetry_cell_setting 'orthorhombic'
loop_
_space_group_symop_operation_xyz
x,y,z
-x,1/2-y,1/2+z
x,-y,-z
-x,1/2+y,1/2-z
-x,-y,-z
x,1/2+y,1/2-z
-x,y,z
x,1/2-y,1/2+z
1/2+x,1/2+y,z
1/2-x,-y,1/2+z
1/2+x,1/2-y,-z
1/2-x,y,1/2-z
1/2-x,1/2-y,-z
1/2+x,y,1/2-z
1/2-x,1/2+y,z
1/2+x,-y,1/2+z
loop_
_atom_site_type_symbol
_atom_site_label
_atom_site_fract_x
_atom_site_fract_y
_atom_site_fract_z
Si Si1 0.087343 0.776467 0.996198
Si Si2 0.406573 0.809356 0.783606
Si Si3 0.653053 0.589152 0.650129
Si Si4 0.784955 0.500000 0.500000
O O1 0.095415 0.641017 0.935137
O O2 0.000000 0.837906 0.978930
O O3 0.095668 0.742277 0.107453
O O4 0.158441 0.877031 0.969810
O O5 0.500000 0.797974 0.750608
O O6 0.348448 0.716581 0.720674
O O7 0.379961 0.963676 0.790032
O O8 0.731725 0.545620 0.590898
#
# Coordination Sequence:
#
# PCOD9482180 Si02
#       4
#    16  16  16   8
#     4  11  25  50  79 110 159 210 259 319 385 473
#     4  11  25  47  78 116 151 206 265 319 387 466
#     4  12  26  50  80 112 159 199 264 325 389 461
#     4  12  27  50  75 118 158 204 258 322 403 452
#
# _framework density 24.259694
#
# number of rings (size 3 to 8) (size 9 to 14) (size 15 to 20)
#    0.000    0.571    2.857    3.857    4.000    3.429 
#    0.000    0.000    0.000    0.000    0.000    0.000 
#    0.000    0.000    0.000    0.000    0.000    0.000 
#
# Total GULP energy -156862.495926 kJ/mol
# GULP energy per Si atom -5602.231997 kJ/mol
# Density = 2.420448 g / cm^3
# Si number density = 24.259694 Si / 1000 Ang^3
#
#
#
# Elastic Constant Matrix: (Units=GPa)
#
#
# Indices 1 2 3 4 5 6 
#
# 1 99.0298 67.5750 22.5154 0.0000 0.0000 0.0000
# 2 67.5750 166.7095 56.5406 0.0000 0.0000 0.0000
# 3 22.5154 56.5406 133.3755 0.0000 0.0000 0.0000
# 4 0.0000 0.0000 0.0000 58.6896 0.0000 0.0000
# 5 0.0000 0.0000 0.0000 0.0000 10.1705 0.0000
# 6 0.0000 0.0000 0.0000 0.0000 0.0000 18.1613
#
#
#
# Elastic Compliance Matrix: (Units=1/GPa)
#
#
# Indices 1 2 3 4 5 6 
#
# 1 0.013959 -0.005675 0.000049 0.000000 0.000000 0.000000
# 2 -0.005675 0.009313 -0.002990 0.000000 0.000000 0.000000
# 3 0.000049 -0.002990 0.008757 0.000000 0.000000 0.000000
# 4 0.000000 0.000000 0.000000 0.017039 0.000000 0.000000
# 5 0.000000 0.000000 0.000000 0.000000 0.098323 0.000000
# 6 0.000000 0.000000 0.000000 0.000000 0.000000 0.055062
#
#
# Mechanical properties :
#
#
# Convention : Reuss Voigt Hill
#
# Bulk Modulus (GPa) = 67.57864 76.93076 72.25470
# Shear Modulus (GPa) = 22.26013 34.23654 28.24834
#
# Velocity S-wave (km/s) = 3.03244 3.76074 3.41605
# Velocity P-wave (km/s) = 6.33859 7.11602 6.73853
#
# Compressibility (1/GPa) = 0.01479757
#
# Stress axis : x y z
#
# Youngs Moduli (GPa) = 71.63711 107.37841 114.19706
#
# Poissons Ratio (x) = 0.60938 -0.00563
# Poissons Ratio (y) = 0.40654 0.34144
# Poissons Ratio (z) = -0.00353 0.32105
#
# Static dielectric constant tensor:
#      x y z
#    x 1.932230 0.000000 0.000000 
#    y 0.000000 1.910580 0.000000 
#    z 0.000000 0.000000 1.933920 
# 
# From -- ./inp_files/32676.got.cif
#   From: 2010.05.17/outbox.cif.g08.bks.cpg/sg64_17_cif.got.tgz:32676.got - 2010.06.03 16:29:19.
