data_PCOD9482595
_publ_section_title
;
Structure prediction by ZEFSAII (Michael W. Deem and Ramdas Pophale) SiO2 
 PCOD9482595
Probable space group: C M M M
;
_chemical_formula_sum "Si O2"
_cell_formula_units_Z 48
_cell_length_a 8.498159
_cell_length_b 14.994320
_cell_length_c 18.568032
_cell_angle_alpha 90.000000
_cell_angle_beta 90.000000
_cell_angle_gamma 90.000000
_cell_volume 2366.015053
_symmetry_space_group_name_H-M "C M M M"
_symmetry_group_IT_number 65
_symmetry_cell_setting 'orthorhombic'
loop_
_space_group_symop_operation_xyz
x,y,z
-x,-y,z
x,-y,-z
-x,y,-z
-x,-y,-z
x,y,-z
-x,y,z
x,-y,z
1/2+x,1/2+y,z
1/2-x,1/2-y,z
1/2+x,1/2-y,-z
1/2-x,1/2+y,-z
1/2-x,1/2-y,-z
1/2+x,1/2+y,-z
1/2-x,1/2+y,z
1/2+x,1/2-y,z
loop_
_atom_site_type_symbol
_atom_site_label
_atom_site_fract_x
_atom_site_fract_y
_atom_site_fract_z
Si Si1 0.307462 0.500000 0.082454
Si Si2 0.811493 0.147920 0.351201
Si Si3 0.313472 0.147614 0.500000
Si Si4 0.189912 0.850649 0.192813
O O1 0.500000 0.500000 0.081747
O O2 0.256806 0.585999 0.128339
O O3 0.254255 0.500000 0.000000
O O4 0.750000 0.250000 0.349647
O O5 0.745247 0.107010 0.424734
O O6 0.765007 0.112507 0.272306
O O7 0.000000 0.147362 0.356335
O O8 0.500000 0.149989 0.500000
O O9 0.250000 0.250000 0.500000
O O10 0.250000 0.750000 0.185233
O O11 0.000000 0.848479 0.192106
#
# Coordination Sequence:
#
# PCOD9482595 Si02
#       4
#     8  16   8  16
#     4   9  18  34  55  78 103 132 166 205 253 307
#     4   9  15  24  39  62  92 125 162 201 241 284
#     4  10  16  22  36  61  92 125 162 200 240 285
#     4   9  18  32  52  76 102 134 170 207 249 299
#
# _framework density 20.287275999999999
#
# number of rings (size 3 to 8) (size 9 to 14) (size 15 to 20)
#    0.000    2.833    0.000    4.500    0.000    2.000 
#    0.000    0.833    0.000    2.000    0.000    7.000 
#    0.000    0.000    0.000    0.000    0.000    0.000 
#
# Total GULP energy -133795.826189 kJ/mol
# GULP energy per Si atom -5574.826091 kJ/mol
# Density = 2.024110 g / cm^3
# Si number density = 20.287276 Si / 1000 Ang^3
#
#
#
# Elastic Constant Matrix: (Units=GPa)
#
#
# Indices 1 2 3 4 5 6 
#
# 1 50.4603 11.0570 48.1351 0.0000 0.0000 0.0000
# 2 11.0570 88.6792 80.1554 0.0000 0.0000 0.0000
# 3 48.1351 80.1554 264.6265 0.0000 0.0000 0.0000
# 4 0.0000 0.0000 0.0000 64.1112 0.0000 0.0000
# 5 0.0000 0.0000 0.0000 0.0000 18.8883 0.0000
# 6 0.0000 0.0000 0.0000 0.0000 0.0000 3.6654
#
#
#
# Elastic Compliance Matrix: (Units=1/GPa)
#
#
# Indices 1 2 3 4 5 6 
#
# 1 0.024090 0.001318 -0.004781 0.000000 0.000000 0.000000
# 2 0.001318 0.015600 -0.004965 0.000000 0.000000 0.000000
# 3 -0.004781 -0.004965 0.006152 0.000000 0.000000 0.000000
# 4 0.000000 0.000000 0.000000 0.015598 0.000000 0.000000
# 5 0.000000 0.000000 0.000000 0.000000 0.052943 0.000000
# 6 0.000000 0.000000 0.000000 0.000000 0.000000 0.272825
#
#
# Mechanical properties :
#
#
# Convention : Reuss Voigt Hill
#
# Bulk Modulus (GPa) = 34.49973 75.82900 55.16437
# Shear Modulus (GPa) = 12.08530 34.96088 23.52309
#
# Velocity S-wave (km/s) = 2.44336 4.15576 3.40884
# Velocity P-wave (km/s) = 5.00025 7.77727 6.53790
#
# Compressibility (1/GPa) = 0.02898573
#
# Stress axis : x y z
#
# Youngs Moduli (GPa) = 41.51182 64.10255 162.53674
#
# Poissons Ratio (x) = -0.08448 0.77709
# Poissons Ratio (y) = -0.05471 0.80699
# Poissons Ratio (z) = 0.19847 0.31827
#
# Static dielectric constant tensor:
#      x y z
#    x 1.681510 0.000000 0.000000 
#    y 0.000000 1.746290 0.000000 
#    z 0.000000 0.000000 1.775730 
# 
# From -- ./inp_files/48470.got.cif
#   From: 2010.05.17/outbox.cif.g08.bks.cpg/sg65_25_cif.got.tgz:48470.got - 2010.06.03 17:01:31.
