data_PCOD9482049
_publ_section_title
;
Structure prediction by ZEFSAII (Michael W. Deem and Ramdas Pophale) SiO2 
 PCOD9482049
Probable space group: C M C A
;
_chemical_formula_sum "Si O2"
_cell_formula_units_Z 64
_cell_length_a 17.282718
_cell_length_b 14.499648
_cell_length_c 11.798446
_cell_angle_alpha 90.000000
_cell_angle_beta 90.000000
_cell_angle_gamma 90.000000
_cell_volume 2956.611842
_symmetry_space_group_name_H-M "C M C A"
_symmetry_group_IT_number 64
_symmetry_cell_setting 'orthorhombic'
loop_
_space_group_symop_operation_xyz
x,y,z
-x,1/2-y,1/2+z
x,-y,-z
-x,1/2+y,1/2-z
-x,-y,-z
x,1/2+y,1/2-z
-x,y,z
x,1/2-y,1/2+z
1/2+x,1/2+y,z
1/2-x,-y,1/2+z
1/2+x,1/2-y,-z
1/2-x,y,1/2-z
1/2-x,1/2-y,-z
1/2+x,y,1/2-z
1/2-x,1/2+y,z
1/2+x,-y,1/2+z
loop_
_atom_site_type_symbol
_atom_site_label
_atom_site_fract_x
_atom_site_fract_y
_atom_site_fract_z
Si Si1 0.330657 0.607417 0.211485
Si Si2 0.586830 0.302773 0.994548
Si Si3 0.220269 0.405864 0.373568
Si Si4 0.126244 0.403616 0.967630
O O1 0.250000 0.653564 0.250000
O O2 0.382610 0.666435 0.128331
O O3 0.309060 0.511097 0.148351
O O4 0.368047 0.589566 0.332367
O O5 0.500000 0.337593 0.015154
O O6 0.649584 0.345040 0.081031
O O7 0.587939 0.192758 0.002591
O O8 0.250000 0.375619 0.250000
O O9 0.291038 0.401426 0.463626
O O10 0.088456 0.500000 0.000000
#
# Coordination Sequence:
#
# PCOD9482049 Si02
#       4
#    16  16  16  16
#     4  11  23  44  76 109 138 185 247 304 358 426
#     4  12  29  46  70 109 151 194 236 297 376 437
#     4  11  23  44  77 108 137 184 247 302 355 427
#     4  12  24  45  72 105 145 190 250 300 354 425
#
# _framework density 21.646398999999999
#
# number of rings (size 3 to 8) (size 9 to 14) (size 15 to 20)
#    0.000    0.500    7.500    1.500    3.500    3.500 
#    0.000    0.000    0.000    0.000    0.000    0.000 
#    0.000    0.000    0.000    0.000    0.000    0.000 
#
# Total GULP energy -178910.139466 kJ/mol
# GULP energy per Si atom -5590.941858 kJ/mol
# Density = 2.159713 g / cm^3
# Si number density = 21.646399 Si / 1000 Ang^3
#
#
#
# Elastic Constant Matrix: (Units=GPa)
#
#
# Indices 1 2 3 4 5 6 
#
# 1 138.2583 48.4025 53.5683 0.0000 0.0000 0.0000
# 2 48.4025 115.7682 46.6874 0.0000 0.0000 0.0000
# 3 53.5683 46.6874 166.8347 0.0000 0.0000 0.0000
# 4 0.0000 0.0000 0.0000 10.6771 0.0000 0.0000
# 5 0.0000 0.0000 0.0000 0.0000 8.9175 0.0000
# 6 0.0000 0.0000 0.0000 0.0000 0.0000 5.6875
#
#
#
# Elastic Compliance Matrix: (Units=1/GPa)
#
#
# Indices 1 2 3 4 5 6 
#
# 1 0.009075 -0.002952 -0.002088 0.000000 0.000000 0.000000
# 2 -0.002952 0.010697 -0.002046 0.000000 0.000000 0.000000
# 3 -0.002088 -0.002046 0.007237 0.000000 0.000000 0.000000
# 4 0.000000 0.000000 0.000000 0.093659 0.000000 0.000000
# 5 0.000000 0.000000 0.000000 0.000000 0.112139 0.000000
# 6 0.000000 0.000000 0.000000 0.000000 0.000000 0.175823
#
#
# Mechanical properties :
#
#
# Convention : Reuss Voigt Hill
#
# Bulk Modulus (GPa) = 77.89447 79.79750 78.84598
# Shear Modulus (GPa) = 11.70736 23.20328 17.45532
#
# Velocity S-wave (km/s) = 2.32813 3.27758 2.84277
# Velocity P-wave (km/s) = 6.57951 7.16013 6.87595
#
# Compressibility (1/GPa) = 0.01283788
#
# Stress axis : x y z
#
# Youngs Moduli (GPa) = 110.18857 93.48151 138.18368
#
# Poissons Ratio (x) = 0.27600 0.28849
# Poissons Ratio (y) = 0.32532 0.28267
# Poissons Ratio (z) = 0.23005 0.19122
#
# Static dielectric constant tensor:
#      x y z
#    x 1.809320 0.000000 0.000000 
#    y 0.000000 1.805330 0.000000 
#    z 0.000000 0.000000 1.816460 
# 
# From -- ./inp_files/15448.got.cif
#   From: 2010.05.17/outbox.cif.g08.bks.cpg/sg64_8_cif.got.tgz:15448.got - 2010.06.03 16:29:19.
