data_PCOD9482666
_publ_section_title
;
Structure prediction by ZEFSAII (Michael W. Deem and Ramdas Pophale) SiO2 
 PCOD9482666
Probable space group: C M M M
;
_chemical_formula_sum "Si O2"
_cell_formula_units_Z 72
_cell_length_a 7.882892
_cell_length_b 24.293877
_cell_length_c 18.635616
_cell_angle_alpha 90.000000
_cell_angle_beta 90.000000
_cell_angle_gamma 90.000000
_cell_volume 3568.832439
_symmetry_space_group_name_H-M "C M M M"
_symmetry_group_IT_number 65
_symmetry_cell_setting 'orthorhombic'
loop_
_space_group_symop_operation_xyz
x,y,z
-x,-y,z
x,-y,-z
-x,y,-z
-x,-y,-z
x,y,-z
-x,y,z
x,-y,z
1/2+x,1/2+y,z
1/2-x,1/2-y,z
1/2+x,1/2-y,-z
1/2-x,1/2+y,-z
1/2-x,1/2-y,-z
1/2+x,1/2+y,-z
1/2-x,1/2+y,z
1/2+x,1/2-y,z
loop_
_atom_site_type_symbol
_atom_site_label
_atom_site_fract_x
_atom_site_fract_y
_atom_site_fract_z
Si Si1 0.693755 0.000000 0.896939
Si Si2 0.203706 0.889470 0.651104
Si Si3 0.295214 0.878276 0.077906
Si Si4 0.798499 0.186458 0.777328
Si Si5 0.698765 0.500000 0.259967
Si Si6 0.208597 0.934838 0.500000
O O1 0.770596 0.058687 0.918334
O O2 0.694086 0.000000 0.811296
O O3 0.500000 0.000000 0.922969
O O4 0.271983 0.842483 0.704753
O O5 0.229524 0.946140 0.693777
O O6 0.266665 0.902163 0.570997
O O7 0.000000 0.880921 0.643892
O O8 0.500000 0.880721 0.078323
O O9 0.248190 0.845395 0.149449
O O10 0.242546 0.854588 0.000000
O O11 0.750000 0.250000 0.781897
O O12 0.000000 0.182453 0.772143
O O13 0.500000 0.500000 0.238689
O O14 0.000000 0.935917 0.500000
O O15 0.258296 0.000000 0.500000
#
# Coordination Sequence:
#
# PCOD9482666 Si02
#       6
#     8  16  16  16   8   8
#     4  10  19  32  53  83 114 144 172 207 264 329
#     4   9  17  29  50  80 112 140 172 218 267 316
#     4  10  21  37  57  82 111 142 177 218 266 323
#     4  11  23  39  57  77 104 142 187 231 272 315
#     4  10  16  28  51  81 111 138 174 220 265 314
#     4   9  14  24  47  82 116 140 166 209 264 317
#
# _framework density 20.174665999999998
#
# number of rings (size 3 to 8) (size 9 to 14) (size 15 to 20)
#    0.000    2.111    3.333    1.000    0.000    2.222 
#    0.000    0.556    0.000    2.000    0.000    7.000 
#    0.000    0.000    0.000    0.000    0.000    0.000 
#
# Total GULP energy -200743.906717 kJ/mol
# GULP energy per Si atom -5576.219631 kJ/mol
# Density = 2.012875 g / cm^3
# Si number density = 20.174666 Si / 1000 Ang^3
#
#
#
# Elastic Constant Matrix: (Units=GPa)
#
#
# Indices 1 2 3 4 5 6 
#
# 1 22.9504 13.8666 27.9873 0.0000 0.0000 0.0000
# 2 13.8666 139.3643 86.1133 0.0000 0.0000 0.0000
# 3 27.9873 86.1133 217.7928 0.0000 0.0000 0.0000
# 4 0.0000 0.0000 0.0000 0.9999 0.0000 0.0000
# 5 0.0000 0.0000 0.0000 0.0000 13.4312 0.0000
# 6 0.0000 0.0000 0.0000 0.0000 0.0000 -3.4121
#
#
#
# Elastic Compliance Matrix: (Units=1/GPa)
#
#
# Indices 1 2 3 4 5 6 
#
# 1 0.051869 -0.001379 -0.006120 0.000000 0.000000 0.000000
# 2 -0.001379 0.009532 -0.003592 0.000000 0.000000 0.000000
# 3 -0.006120 -0.003592 0.006798 0.000000 0.000000 0.000000
# 4 0.000000 0.000000 0.000000 1.000124 0.000000 0.000000
# 5 0.000000 0.000000 0.000000 0.000000 0.074454 0.000000
# 6 0.000000 0.000000 0.000000 0.000000 0.000000 -0.293078
#
#
# Mechanical properties :
#
#
# Convention : Reuss Voigt Hill
#
# Bulk Modulus (GPa) = 21.73111 70.67131 46.20121
# Shear Modulus (GPa) = 5.63559 19.01315 12.32437
#
# Velocity S-wave (km/s) = 1.67316 3.07323 2.47429
# Velocity P-wave (km/s) = 3.81149 6.90643 5.57791
#
# Compressibility (1/GPa) = 0.04601697
#
# Stress axis : x y z
#
# Youngs Moduli (GPa) = 19.27940 104.91057 147.10100
#
# Poissons Ratio (x) = 0.14471 0.90026
# Poissons Ratio (y) = 0.02659 0.52833
# Poissons Ratio (z) = 0.11799 0.37680
#
# Static dielectric constant tensor:
#      x y z
#    x 1.732190 0.000000 0.000000 
#    y 0.000000 1.701970 0.000000 
#    z 0.000000 0.000000 1.734110 
# 
# From -- ./inp_files/49542.got.cif
#   From: 2010.05.17/outbox.cif.g08.bks.cpg/sg65_25_cif.got.tgz:49542.got - 2010.06.03 17:01:31.
