data_PCOD9482030
_publ_section_title
;
Structure prediction by ZEFSAII (Michael W. Deem and Ramdas Pophale) SiO2 
 PCOD9482030
Probable space group: C M C A
;
_chemical_formula_sum "Si O2"
_cell_formula_units_Z 96
_cell_length_a 16.869162
_cell_length_b 9.733603
_cell_length_c 23.529391
_cell_angle_alpha 90.000000
_cell_angle_beta 90.000000
_cell_angle_gamma 90.000000
_cell_volume 3863.472493
_symmetry_space_group_name_H-M "C M C A"
_symmetry_group_IT_number 64
_symmetry_cell_setting 'orthorhombic'
loop_
_space_group_symop_operation_xyz
x,y,z
-x,1/2-y,1/2+z
x,-y,-z
-x,1/2+y,1/2-z
-x,-y,-z
x,1/2+y,1/2-z
-x,y,z
x,1/2-y,1/2+z
1/2+x,1/2+y,z
1/2-x,-y,1/2+z
1/2+x,1/2-y,-z
1/2-x,y,1/2-z
1/2-x,1/2-y,-z
1/2+x,y,1/2-z
1/2-x,1/2+y,z
1/2+x,-y,1/2+z
loop_
_atom_site_type_symbol
_atom_site_label
_atom_site_fract_x
_atom_site_fract_y
_atom_site_fract_z
Si Si1 0.373408 0.680492 0.547238
Si Si2 0.087653 0.055130 0.120843
Si Si3 0.589380 0.654492 0.251726
Si Si4 0.411545 0.625740 0.418254
Si Si5 0.179733 0.911430 0.285231
Si Si6 0.780713 0.172746 0.892838
O O1 0.404041 0.809312 0.582822
O O2 0.401978 0.684538 0.482574
O O3 0.403313 0.537429 0.573971
O O4 0.278091 0.677440 0.553740
O O5 0.093454 0.097072 0.187039
O O6 0.157943 0.952401 0.105669
O O7 0.000000 0.994480 0.111655
O O8 0.500000 0.700056 0.262514
O O9 0.613159 0.526866 0.291276
O O10 0.645434 0.786665 0.252126
O O11 0.500000 0.658534 0.397004
O O12 0.336137 0.693749 0.387264
O O13 0.250000 0.982772 0.250000
O O14 0.280286 0.850318 0.158945
#
# Coordination Sequence:
#
# PCOD9482030 Si02
#       6
#    16  16  16  16  16  16
#     4  11  23  44  73 102 144 189 244 301 361 427
#     4  11  23  43  68  99 138 187 238 292 356 427
#     4  11  25  46  70 101 139 182 233 292 354 423
#     4  11  25  46  70 106 146 191 243 300 365 433
#     4  12  25  46  72 101 141 184 237 292 357 421
#     4  12  25  44  69 105 141 187 238 298 359 427
#
# _framework density 24.848113000000001
#
# number of rings (size 3 to 8) (size 9 to 14) (size 15 to 20)
#    0.000    0.667    3.333    5.000    0.000    2.000 
#    0.000    3.333    0.000    0.000    0.000    0.000 
#    0.000    0.000    0.000    0.000    0.000    0.000 
#
# Total GULP energy -269150.667602 kJ/mol
# GULP energy per Si atom -5607.305575 kJ/mol
# Density = 2.479156 g / cm^3
# Si number density = 24.848113 Si / 1000 Ang^3
#
#
#
# Elastic Constant Matrix: (Units=GPa)
#
#
# Indices 1 2 3 4 5 6 
#
# 1 166.1995 27.8939 16.4311 0.0000 0.0000 0.0000
# 2 27.8939 98.6393 21.9677 0.0000 0.0000 0.0000
# 3 16.4311 21.9677 90.0573 0.0000 0.0000 0.0000
# 4 0.0000 0.0000 0.0000 38.0775 0.0000 0.0000
# 5 0.0000 0.0000 0.0000 0.0000 0.4205 0.0000
# 6 0.0000 0.0000 0.0000 0.0000 0.0000 114.9882
#
#
#
# Elastic Compliance Matrix: (Units=1/GPa)
#
#
# Indices 1 2 3 4 5 6 
#
# 1 0.006366 -0.001630 -0.000764 0.000000 0.000000 0.000000
# 2 -0.001630 0.011138 -0.002419 0.000000 0.000000 0.000000
# 3 -0.000764 -0.002419 0.011834 0.000000 0.000000 0.000000
# 4 0.000000 0.000000 0.000000 0.026262 0.000000 0.000000
# 5 0.000000 0.000000 0.000000 0.000000 2.378124 0.000000
# 6 0.000000 0.000000 0.000000 0.000000 0.000000 0.008697
#
#
# Mechanical properties :
#
#
# Convention : Reuss Voigt Hill
#
# Bulk Modulus (GPa) = 50.73425 54.16462 52.44943
# Shear Modulus (GPa) = 2.03366 49.93748 25.98557
#
# Velocity S-wave (km/s) = 0.90566 4.48784 3.23735
# Velocity P-wave (km/s) = 4.64281 6.97853 5.92687
#
# Compressibility (1/GPa) = 0.01971055
#
# Stress axis : x y z
#
# Youngs Moduli (GPa) = 157.08533 89.78489 84.50536
#
# Poissons Ratio (x) = 0.14636 0.06455
# Poissons Ratio (y) = 0.25606 0.20445
# Poissons Ratio (z) = 0.11999 0.21723
#
# Static dielectric constant tensor:
#      x y z
#    x 1.931760 0.000000 0.000000 
#    y 0.000000 1.895560 0.000000 
#    z 0.000000 0.000000 2.013440 
# 
# From -- ./inp_files/45751.got.cif
#   From: 2010.05.17/outbox.cif.g08.bks.cpg/sg64_23_cif.got.tgz:45751.got - 2010.06.03 16:29:19.
