data_PCOD9482729
_publ_section_title
;
Structure prediction by ZEFSAII (Michael W. Deem and Ramdas Pophale) SiO2 
 PCOD9482729
Probable space group: C M M M
;
_chemical_formula_sum "Si O2"
_cell_formula_units_Z 96
_cell_length_a 15.694293
_cell_length_b 30.007379
_cell_length_c 11.418029
_cell_angle_alpha 90.000000
_cell_angle_beta 90.000000
_cell_angle_gamma 90.000000
_cell_volume 5377.259080
_symmetry_space_group_name_H-M "C M M M"
_symmetry_group_IT_number 65
_symmetry_cell_setting 'orthorhombic'
loop_
_space_group_symop_operation_xyz
x,y,z
-x,-y,z
x,-y,-z
-x,y,-z
-x,-y,-z
x,y,-z
-x,y,z
x,-y,z
1/2+x,1/2+y,z
1/2-x,1/2-y,z
1/2+x,1/2-y,-z
1/2-x,1/2+y,-z
1/2-x,1/2-y,-z
1/2+x,1/2+y,-z
1/2-x,1/2+y,z
1/2+x,1/2-y,z
loop_
_atom_site_type_symbol
_atom_site_label
_atom_site_fract_x
_atom_site_fract_y
_atom_site_fract_z
Si Si1 0.143330 0.660375 0.000000
Si Si2 0.596359 0.594062 0.000000
Si Si3 0.723682 0.069929 0.000000
Si Si4 0.598052 0.048980 0.211006
Si Si5 0.596985 0.330021 0.803588
Si Si6 0.906435 0.645653 0.735255
Si Si7 0.900763 0.244401 0.000000
Si Si8 0.754192 0.802445 0.361013
O O1 0.218718 0.624299 0.000000
O O2 0.097008 0.650519 0.122860
O O3 0.160256 0.712968 0.000000
O O4 0.676170 0.560593 0.000000
O O5 0.603281 0.626569 0.886580
O O6 0.500000 0.575333 0.000000
O O7 0.669312 0.053338 0.110614
O O8 0.500000 0.051578 0.163178
O O9 0.606975 0.093097 0.288964
O O10 0.606016 0.000000 0.266206
O O11 0.500000 0.328265 0.757785
O O12 0.668525 0.326280 0.706039
O O13 0.609029 0.287303 0.888429
O O14 0.832677 0.674882 0.681362
O O15 0.000000 0.659370 0.694737
O O16 0.000000 0.260893 0.000000
O O17 0.763856 0.806644 0.500000
O O18 0.750000 0.750000 0.331692
#
# Coordination Sequence:
#
# PCOD9482729 Si02
#       8
#     8   8   8  16  16  16   8  16
#     4  10  17  26  45  73  98 122 162 205 245 299
#     4   9  18  32  50  73 100 130 166 208 253 300
#     4  10  17  25  41  68 105 142 161 186 241 302
#     4   9  17  29  48  76 106 135 169 206 247 301
#     4   9  18  33  50  68  93 126 165 211 257 295
#     4  10  20  34  52  74 104 138 169 208 255 301
#     4   9  16  26  44  70  97 125 159 202 253 305
#     4  11  24  37  49  70  99 133 174 212 250 307
#
# _framework density 17.852961000000001
#
# number of rings (size 3 to 8) (size 9 to 14) (size 15 to 20)
#    0.000    2.333    0.000    5.250    0.000    6.667 
#    0.000    4.583    0.000    1.500    0.000    2.333 
#    0.000    0.000    0.000    6.000    0.000    0.167 
#
# Total GULP energy -267638.008098 kJ/mol
# GULP energy per Si atom -5575.791835 kJ/mol
# Density = 1.781233 g / cm^3
# Si number density = 17.852961 Si / 1000 Ang^3
#
#
#
# Elastic Constant Matrix: (Units=GPa)
#
#
# Indices 1 2 3 4 5 6 
#
# 1 150.3119 43.7936 39.0304 0.0000 0.0000 0.0000
# 2 43.7936 82.8906 9.4661 0.0000 0.0000 0.0000
# 3 39.0304 9.4661 40.1447 0.0000 0.0000 0.0000
# 4 0.0000 0.0000 0.0000 2.5770 0.0000 0.0000
# 5 0.0000 0.0000 0.0000 0.0000 -12.3439 0.0000
# 6 0.0000 0.0000 0.0000 0.0000 0.0000 18.0436
#
#
#
# Elastic Compliance Matrix: (Units=1/GPa)
#
#
# Indices 1 2 3 4 5 6 
#
# 1 0.010253 -0.004397 -0.008932 0.000000 0.000000 0.000000
# 2 -0.004397 0.014284 0.000907 0.000000 0.000000 0.000000
# 3 -0.008932 0.000907 0.033380 0.000000 0.000000 0.000000
# 4 0.000000 0.000000 0.000000 0.388048 0.000000 0.000000
# 5 0.000000 0.000000 0.000000 0.000000 -0.081011 0.000000
# 6 0.000000 0.000000 0.000000 0.000000 0.000000 0.055421
#
#
# Mechanical properties :
#
#
# Convention : Reuss Voigt Hill
#
# Bulk Modulus (GPa) = 30.23627 50.88084 40.55856
# Shear Modulus (GPa) = 10.95908 13.72580 12.34244
#
# Velocity S-wave (km/s) = 2.48029 2.77578 2.63218
# Velocity P-wave (km/s) = 5.01752 6.23178 5.65732
#
# Compressibility (1/GPa) = 0.03307286
#
# Stress axis : x y z
#
# Youngs Moduli (GPa) = 97.53101 70.01030 29.95824
#
# Poissons Ratio (x) = 0.30784 0.26758
# Poissons Ratio (y) = 0.42885 -0.02717
# Poissons Ratio (z) = 0.87112 -0.06349
#
# Static dielectric constant tensor:
#      x y z
#    x 1.631280 0.000000 0.000000 
#    y 0.000000 1.639780 0.000000 
#    z 0.000000 0.000000 1.587870 
# 
# From -- ./inp_files/25531.got.cif
#   From: 2010.05.17/outbox.cif.g08.bks.cpg/sg65_13_cif.got.tgz:25531.got - 2010.06.03 17:01:31.
