data_PCOD9482788
_publ_section_title
;
Structure prediction by ZEFSAII (Michael W. Deem and Ramdas Pophale) SiO2 
 PCOD9482788
Probable space group: C M M M
;
_chemical_formula_sum "Si O2"
_cell_formula_units_Z 120
_cell_length_a 35.832736
_cell_length_b 14.015459
_cell_length_c 14.534654
_cell_angle_alpha 90.000000
_cell_angle_beta 90.000000
_cell_angle_gamma 90.000000
_cell_volume 7299.481176
_symmetry_space_group_name_H-M "C M M M"
_symmetry_group_IT_number 65
_symmetry_cell_setting 'orthorhombic'
loop_
_space_group_symop_operation_xyz
x,y,z
-x,-y,z
x,-y,-z
-x,y,-z
-x,-y,-z
x,y,-z
-x,y,z
x,-y,z
1/2+x,1/2+y,z
1/2-x,1/2-y,z
1/2+x,1/2-y,-z
1/2-x,1/2+y,-z
1/2-x,1/2-y,-z
1/2+x,1/2+y,-z
1/2-x,1/2+y,z
1/2+x,1/2-y,z
loop_
_atom_site_type_symbol
_atom_site_label
_atom_site_fract_x
_atom_site_fract_y
_atom_site_fract_z
Si Si1 0.741962 0.638262 0.104922
Si Si2 0.089158 0.812672 0.889794
Si Si3 0.611453 0.888211 0.110530
Si Si4 0.956679 0.000000 0.112151
Si Si5 0.837647 0.888264 0.202580
Si Si6 0.274403 0.116703 0.397179
Si Si7 0.314604 0.893899 0.778148
Si Si8 0.187763 0.116398 0.397330
O O1 0.750000 0.750000 0.101676
O O2 0.703429 0.621850 0.158288
O O3 0.777776 0.600208 0.158959
O O4 0.739267 0.603963 0.000000
O O5 0.083602 0.699949 0.865433
O O6 0.063024 0.900658 0.856791
O O7 0.130586 0.838385 0.856076
O O8 0.087603 0.816440 0.000000
O O9 0.650322 0.862457 0.161723
O O10 0.601369 0.000000 0.131483
O O11 0.617504 0.885243 0.000000
O O12 0.000000 0.000000 0.138750
O O13 0.954944 0.000000 0.000000
O O14 0.835572 0.854250 0.308266
O O15 0.846578 0.000000 0.202620
O O16 0.286282 0.143723 0.500000
O O17 0.300497 0.154330 0.315725
O O18 0.231177 0.145005 0.384924
O O19 0.274027 0.000000 0.393284
O O20 0.325859 0.000000 0.749388
O O21 0.175482 0.145279 0.500000
O O22 0.187861 0.000000 0.396221
#
# Coordination Sequence:
#
# PCOD9482788 Si02
#       8
#    16  16  16   8  16  16  16  16
#     4  11  22  30  35  48  75 113 154 196 242 287
#     4  10  19  32  49  72 100 125 153 188 230 284
#     4   9  18  31  47  65  90 127 165 200 235 274
#     4   9  18  34  56  80 105 131 153 179 224 286
#     4  11  19  28  44  65  88 116 151 196 247 289
#     4   8  13  23  39  56  74 104 152 205 252 291
#     4  10  17  27  41  57  76 109 158 203 240 280
#     4   8  14  25  40  57  79 111 153 199 247 294
#
# _framework density 16.439523999999999
#
# number of rings (size 3 to 8) (size 9 to 14) (size 15 to 20)
#    0.000    2.467    2.000    2.800    0.000    4.267 
#    0.000    0.000    0.000    4.400    0.000    2.800 
#    0.000    1.067    0.000    0.000    0.000    0.000 
#
# Total GULP energy -334115.707792 kJ/mol
# GULP energy per Si atom -5568.595130 kJ/mol
# Density = 1.640211 g / cm^3
# Si number density = 16.439524 Si / 1000 Ang^3
#
#
#
# Elastic Constant Matrix: (Units=GPa)
#
#
# Indices 1 2 3 4 5 6 
#
# 1 44.6014 35.5540 2.4991 0.0000 0.0000 0.0000
# 2 35.5540 108.4224 7.1754 0.0000 0.0000 0.0000
# 3 2.4991 7.1754 50.2693 0.0000 0.0000 0.0000
# 4 0.0000 0.0000 0.0000 38.7840 0.0000 0.0000
# 5 0.0000 0.0000 0.0000 0.0000 3.4470 0.0000
# 6 0.0000 0.0000 0.0000 0.0000 0.0000 12.8055
#
#
#
# Elastic Compliance Matrix: (Units=1/GPa)
#
#
# Indices 1 2 3 4 5 6 
#
# 1 0.030356 -0.009949 -0.000089 0.000000 0.000000 0.000000
# 2 -0.009949 0.012572 -0.001300 0.000000 0.000000 0.000000
# 3 -0.000089 -0.001300 0.020083 0.000000 0.000000 0.000000
# 4 0.000000 0.000000 0.000000 0.025784 0.000000 0.000000
# 5 0.000000 0.000000 0.000000 0.000000 0.290109 0.000000
# 6 0.000000 0.000000 0.000000 0.000000 0.000000 0.078092
#
#
# Mechanical properties :
#
#
# Convention : Reuss Voigt Hill
#
# Bulk Modulus (GPa) = 24.79199 32.63891 28.71545
# Shear Modulus (GPa) = 10.13961 21.54493 15.84227
#
# Velocity S-wave (km/s) = 2.48621 3.62409 3.10767
# Velocity P-wave (km/s) = 4.83271 6.11629 5.51199
#
# Compressibility (1/GPa) = 0.04033560
#
# Stress axis : x y z
#
# Youngs Moduli (GPa) = 32.94208 79.54464 49.79382
#
# Poissons Ratio (x) = 0.79136 0.00444
# Poissons Ratio (y) = 0.32773 0.06473
# Poissons Ratio (z) = 0.00294 0.10340
#
# Static dielectric constant tensor:
#      x y z
#    x 1.516050 0.000000 0.000000 
#    y 0.000000 1.659120 0.000000 
#    z 0.000000 0.000000 1.571530 
# 
# From -- ./inp_files/48066.got.cif
#   From: 2010.05.17/outbox.cif.g08.bks.cpg/sg65_25_cif.got.tgz:48066.got - 2010.06.03 17:01:31.
