data_PCOD9482036
_publ_section_title
;
Structure prediction by ZEFSAII (Michael W. Deem and Ramdas Pophale) SiO2 
 PCOD9482036
Probable space group: C M C A
;
_chemical_formula_sum "Si O2"
_cell_formula_units_Z 64
_cell_length_a 23.096669
_cell_length_b 8.294631
_cell_length_c 14.194350
_cell_angle_alpha 90.000000
_cell_angle_beta 90.000000
_cell_angle_gamma 90.000000
_cell_volume 2719.330105
_symmetry_space_group_name_H-M "C M C A"
_symmetry_group_IT_number 64
_symmetry_cell_setting 'orthorhombic'
loop_
_space_group_symop_operation_xyz
x,y,z
-x,1/2-y,1/2+z
x,-y,-z
-x,1/2+y,1/2-z
-x,-y,-z
x,1/2+y,1/2-z
-x,y,z
x,1/2-y,1/2+z
1/2+x,1/2+y,z
1/2-x,-y,1/2+z
1/2+x,1/2-y,-z
1/2-x,y,1/2-z
1/2-x,1/2-y,-z
1/2+x,y,1/2-z
1/2-x,1/2+y,z
1/2+x,-y,1/2+z
loop_
_atom_site_type_symbol
_atom_site_label
_atom_site_fract_x
_atom_site_fract_y
_atom_site_fract_z
Si Si1 0.874537 0.321342 0.857403
Si Si2 0.872212 0.339177 0.552469
Si Si3 0.814734 0.134026 0.712374
Si Si4 0.500000 0.907006 0.861182
Si Si5 0.000000 0.234935 0.065315
O O1 0.830272 0.463150 0.832459
O O2 0.854765 0.162631 0.803181
O O3 0.938062 0.365242 0.819036
O O4 0.874411 0.294131 0.969038
O O5 0.851393 0.500000 0.500000
O O6 0.833144 0.270318 0.636354
O O7 0.939906 0.358194 0.582046
O O8 0.750000 0.145137 0.750000
O O9 0.500000 0.098458 0.877300
O O10 0.500000 0.801890 0.957913
#
# Coordination Sequence:
#
# PCOD9482036 Si02
#       5
#    16  16  16   8   8
#     4  11  24  44  70 103 140 182 233 294 358 418
#     4  11  23  43  74 108 144 185 231 293 366 425
#     4  12  26  45  68  99 142 188 243 288 337 422
#     4   9  18  37  69 104 137 178 220 286 360 419
#     4   9  17  37  69 108 141 175 222 287 359 435
#
# _framework density 23.535208999999998
#
# number of rings (size 3 to 8) (size 9 to 14) (size 15 to 20)
#    0.000    1.250    2.500    3.375    0.000    3.000 
#    0.000    6.250    0.000    0.000    0.000    0.000 
#    0.000    0.000    0.000    0.000    0.000    0.000 
#
# Total GULP energy -179041.508391 kJ/mol
# GULP energy per Si atom -5595.047137 kJ/mol
# Density = 2.348164 g / cm^3
# Si number density = 23.535209 Si / 1000 Ang^3
#
#
#
# Elastic Constant Matrix: (Units=GPa)
#
#
# Indices 1 2 3 4 5 6 
#
# 1 159.1291 27.7516 54.6041 0.0000 0.0000 0.0000
# 2 27.7516 61.1671 11.2242 0.0000 0.0000 0.0000
# 3 54.6041 11.2242 101.0854 0.0000 0.0000 0.0000
# 4 0.0000 0.0000 0.0000 -404.4246 0.0000 0.0000
# 5 0.0000 0.0000 0.0000 0.0000 45.2680 0.0000
# 6 0.0000 0.0000 0.0000 0.0000 0.0000 1.2430
#
#
#
# Elastic Compliance Matrix: (Units=1/GPa)
#
#
# Indices 1 2 3 4 5 6 
#
# 1 0.008211 -0.002972 -0.004106 0.000000 0.000000 0.000000
# 2 -0.002972 0.017764 -0.000367 0.000000 0.000000 0.000000
# 3 -0.004106 -0.000367 0.012151 0.000000 0.000000 0.000000
# 4 0.000000 0.000000 0.000000 -0.002473 0.000000 0.000000
# 5 0.000000 0.000000 0.000000 0.000000 0.022091 0.000000
# 6 0.000000 0.000000 0.000000 0.000000 0.000000 0.804508
#
#
# Mechanical properties :
#
#
# Convention : Reuss Voigt Hill
#
# Bulk Modulus (GPa) = 43.03398 56.50461 49.76929
# Shear Modulus (GPa) = 5.65043 -56.39595 -25.37276
#
# Velocity S-wave (km/s) = 1.55115 -4.90045 -3.28697
# Velocity P-wave (km/s) = 4.64033 2.82109 2.60520
#
# Compressibility (1/GPa) = 0.02323745
#
# Stress axis : x y z
#
# Youngs Moduli (GPa) = 121.78299 56.29219 82.29700
#
# Poissons Ratio (x) = 0.16731 0.33788
# Poissons Ratio (y) = 0.36195 0.03021
# Poissons Ratio (z) = 0.49999 0.02066
#
# Static dielectric constant tensor:
#      x y z
#    x 1.864790 0.000000 0.000000 
#    y 0.000000 1.895310 0.000000 
#    z 0.000000 0.000000 1.929120 
# 
# From -- ./inp_files/33911.got.cif
#   From: 2010.05.17/outbox.cif.g08.bks.cpg/sg64_17_cif.got.tgz:33911.got - 2010.06.03 16:29:19.
