data_PCOD9482755
_publ_section_title
;
Structure prediction by ZEFSAII (Michael W. Deem and Ramdas Pophale) SiO2 
 PCOD9482755
Probable space group: C M M M
;
_chemical_formula_sum "Si O2"
_cell_formula_units_Z 72
_cell_length_a 7.522515
_cell_length_b 28.977005
_cell_length_c 19.401281
_cell_angle_alpha 90.000000
_cell_angle_beta 90.000000
_cell_angle_gamma 90.000000
_cell_volume 4229.090355
_symmetry_space_group_name_H-M "C M M M"
_symmetry_group_IT_number 65
_symmetry_cell_setting 'orthorhombic'
loop_
_space_group_symop_operation_xyz
x,y,z
-x,-y,z
x,-y,-z
-x,y,-z
-x,-y,-z
x,y,-z
-x,y,z
x,-y,z
1/2+x,1/2+y,z
1/2-x,1/2-y,z
1/2+x,1/2-y,-z
1/2-x,1/2+y,-z
1/2-x,1/2-y,-z
1/2+x,1/2+y,-z
1/2-x,1/2+y,z
1/2+x,1/2-y,z
loop_
_atom_site_type_symbol
_atom_site_label
_atom_site_fract_x
_atom_site_fract_y
_atom_site_fract_z
Si Si1 0.717467 0.946017 0.224519
Si Si2 0.713868 0.055332 0.925861
Si Si3 0.707840 0.897355 0.638464
Si Si4 0.217502 0.553668 0.500000
Si Si5 0.789174 0.802402 0.421551
O O1 0.500000 0.944812 0.222698
O O2 0.778716 0.928643 0.149087
O O3 0.781069 0.916775 0.289876
O O4 0.765838 0.000000 0.233065
O O5 0.500000 0.061905 0.926645
O O6 0.743270 0.000000 0.925412
O O7 0.782156 0.072983 0.000000
O O8 0.500000 0.909969 0.639584
O O9 0.781981 0.921171 0.569296
O O10 0.720986 0.842690 0.627346
O O11 0.265438 0.500000 0.500000
O O12 0.000000 0.556300 0.500000
O O13 0.717311 0.808464 0.500000
O O14 0.750000 0.750000 0.400208
O O15 0.000000 0.807588 0.424814
#
# Coordination Sequence:
#
# PCOD9482755 Si02
#       5
#    16  16  16   8  16
#     4   8  13  20  32  53  80 110 142 171 195 224
#     4   7   9  14  25  43  71 106 138 166 197 228
#     4  10  17  26  41  60  82 106 135 168 200 233
#     4   9  16  24  36  55  78 107 140 167 188 217
#     4  10  20  33  48  62  77  97 127 166 208 249
#
# _framework density 17.024937000000001
#
# number of rings (size 3 to 8) (size 9 to 14) (size 15 to 20)
#    0.000    3.222    1.111    3.333    0.000    3.556 
#    0.000    0.000    0.000    3.333    0.000    0.000 
#    0.000    1.778    0.000    7.111    0.000    6.667 
#
# Total GULP energy -200467.095648 kJ/mol
# GULP energy per Si atom -5568.530435 kJ/mol
# Density = 1.698619 g / cm^3
# Si number density = 17.024937 Si / 1000 Ang^3
#
#
#
# Elastic Constant Matrix: (Units=GPa)
#
#
# Indices 1 2 3 4 5 6 
#
# 1 41.5768 -8.6629 8.3547 0.0000 0.0000 0.0000
# 2 -8.6629 74.2195 75.1458 0.0000 0.0000 0.0000
# 3 8.3547 75.1458 199.2864 0.0000 0.0000 0.0000
# 4 0.0000 0.0000 0.0000 7.5012 0.0000 0.0000
# 5 0.0000 0.0000 0.0000 0.0000 -6.6831 0.0000
# 6 0.0000 0.0000 0.0000 0.0000 0.0000 2.0353
#
#
#
# Elastic Compliance Matrix: (Units=1/GPa)
#
#
# Indices 1 2 3 4 5 6 
#
# 1 0.026188 0.006742 -0.003640 0.000000 0.000000 0.000000
# 2 0.006742 0.023530 -0.009155 0.000000 0.000000 0.000000
# 3 -0.003640 -0.009155 0.008623 0.000000 0.000000 0.000000
# 4 0.000000 0.000000 0.000000 0.133312 0.000000 0.000000
# 5 0.000000 0.000000 0.000000 0.000000 -0.149631 0.000000
# 6 0.000000 0.000000 0.000000 0.000000 0.000000 0.491330
#
#
# Mechanical properties :
#
#
# Convention : Reuss Voigt Hill
#
# Bulk Modulus (GPa) = 21.62880 51.63978 36.63429
# Shear Modulus (GPa) = 8.91472 16.58702 12.75087
#
# Velocity S-wave (km/s) = 2.29077 3.12473 2.73967
# Velocity P-wave (km/s) = 4.44169 6.58910 5.61894
#
# Compressibility (1/GPa) = 0.04623464
#
# Stress axis : x y z
#
# Youngs Moduli (GPa) = 38.18516 42.49901 115.97289
#
# Poissons Ratio (x) = -0.28654 0.42217
# Poissons Ratio (y) = -0.25746 1.06176
# Poissons Ratio (z) = 0.13900 0.38909
#
# Static dielectric constant tensor:
#      x y z
#    x 1.642520 0.000000 0.000000 
#    y 0.000000 1.539190 0.000000 
#    z 0.000000 0.000000 1.636480 
# 
# From -- ./inp_files/57149.got.cif
#   From: 2010.05.17/outbox.cif.g08.bks.cpg/sg65_29_cif.got.tgz:57149.got - 2010.06.03 17:01:31.
