data_PCOD9482919
_publ_section_title
;
Structure prediction by ZEFSAII (Michael W. Deem and Ramdas Pophale) SiO2 
 PCOD9482919
Probable space group: C M M M
;
_chemical_formula_sum "Si O2"
_cell_formula_units_Z 112
_cell_length_a 14.631205
_cell_length_b 19.349205
_cell_length_c 18.734713
_cell_angle_alpha 90.000000
_cell_angle_beta 90.000000
_cell_angle_gamma 90.000000
_cell_volume 5303.838185
_symmetry_space_group_name_H-M "C M M M"
_symmetry_group_IT_number 65
_symmetry_cell_setting 'orthorhombic'
loop_
_space_group_symop_operation_xyz
x,y,z
-x,-y,z
x,-y,-z
-x,y,-z
-x,-y,-z
x,y,-z
-x,y,z
x,-y,z
1/2+x,1/2+y,z
1/2-x,1/2-y,z
1/2+x,1/2-y,-z
1/2-x,1/2+y,-z
1/2-x,1/2-y,-z
1/2+x,1/2+y,-z
1/2-x,1/2+y,z
1/2+x,1/2-y,z
loop_
_atom_site_type_symbol
_atom_site_label
_atom_site_fract_x
_atom_site_fract_y
_atom_site_fract_z
Si Si1 0.398567 0.637784 0.141208
Si Si2 0.288171 0.079352 0.915747
Si Si3 0.389273 0.200341 0.678533
Si Si4 0.153373 0.715372 0.156383
Si Si5 0.610710 0.422959 0.292409
Si Si6 0.888387 0.421307 0.420066
Si Si7 0.611726 0.670103 0.581340
O O1 0.500000 0.607065 0.130384
O O2 0.317695 0.601399 0.097823
O O3 0.406448 0.720110 0.129853
O O4 0.370464 0.625527 0.224512
O O5 0.348252 0.139488 0.878297
O O6 0.302527 0.000000 0.890551
O O7 0.305971 0.081254 0.000000
O O8 0.500000 0.201604 0.681470
O O9 0.356691 0.207384 0.758900
O O10 0.358198 0.129976 0.641322
O O11 0.361688 0.262219 0.625961
O O12 0.250000 0.750000 0.139933
O O13 0.500000 0.425378 0.295935
O O14 0.645256 0.500000 0.278706
O O15 0.640790 0.393176 0.368369
O O16 0.862345 0.397912 0.500000
O O17 0.858548 0.500000 0.410040
O O18 0.000000 0.421192 0.419125
O O19 0.644276 0.668771 0.500000
O O20 0.500000 0.670041 0.578523
#
# Coordination Sequence:
#
# PCOD9482919 Si02
#       7
#    16  16  16  16  16  16  16
#     4  10  19  35  60  90 117 144 183 237 287 327
#     4  10  23  42  61  84 115 150 185 223 273 339
#     4  10  17  29  50  75 103 135 180 234 276 319
#     4  10  21  35  56  81 111 147 184 221 272 335
#     4   9  16  26  43  71 107 142 177 223 278 328
#     4   8  14  24  40  67 100 129 164 220 283 327
#     4   9  16  25  41  68 102 141 182 226 279 330
#
# _framework density 21.116782000000001
#
# number of rings (size 3 to 8) (size 9 to 14) (size 15 to 20)
#    0.000    2.571    1.429    1.714    0.000    6.286 
#    0.000    2.143    0.000    4.286    0.000    4.000 
#    0.000    0.000    0.000    0.000    0.000    0.000 
#
# Total GULP energy -312364.618013 kJ/mol
# GULP energy per Si atom -5577.939607 kJ/mol
# Density = 2.106872 g / cm^3
# Si number density = 21.116782 Si / 1000 Ang^3
#
#
#
# Elastic Constant Matrix: (Units=GPa)
#
#
# Indices 1 2 3 4 5 6 
#
# 1 31.8111 7.1905 7.2774 0.0000 0.0000 0.0000
# 2 7.1905 147.4134 50.2708 0.0000 0.0000 0.0000
# 3 7.2774 50.2708 64.1229 0.0000 0.0000 0.0000
# 4 0.0000 0.0000 0.0000 37.5399 0.0000 0.0000
# 5 0.0000 0.0000 0.0000 0.0000 23.7869 0.0000
# 6 0.0000 0.0000 0.0000 0.0000 0.0000 -10.8052
#
#
#
# Elastic Compliance Matrix: (Units=1/GPa)
#
#
# Indices 1 2 3 4 5 6 
#
# 1 0.032295 -0.000444 -0.003317 0.000000 0.000000 0.000000
# 2 -0.000444 0.009265 -0.007213 0.000000 0.000000 0.000000
# 3 -0.003317 -0.007213 0.021627 0.000000 0.000000 0.000000
# 4 0.000000 0.000000 0.000000 0.026638 0.000000 0.000000
# 5 0.000000 0.000000 0.000000 0.000000 0.042040 0.000000
# 6 0.000000 0.000000 0.000000 0.000000 0.000000 -0.092548
#
#
# Mechanical properties :
#
#
# Convention : Reuss Voigt Hill
#
# Bulk Modulus (GPa) = 24.24966 41.42499 32.83732
# Shear Modulus (GPa) = 66.65668 22.01156 44.33412
#
# Velocity S-wave (km/s) = 5.62443 3.23208 4.58697
# Velocity P-wave (km/s) = 7.32718 5.79553 6.60590
#
# Compressibility (1/GPa) = 0.04123769
#
# Stress axis : x y z
#
# Youngs Moduli (GPa) = 30.96477 107.93109 46.23952
#
# Poissons Ratio (x) = 0.04793 0.15338
# Poissons Ratio (y) = 0.01375 0.33354
# Poissons Ratio (z) = 0.10271 0.77854
#
# Static dielectric constant tensor:
#      x y z
#    x 1.837320 0.000000 0.000000 
#    y 0.000000 1.789460 0.000000 
#    z 0.000000 0.000000 1.725370 
# 
# From -- ./inp_files/54864.got.cif
#   From: 2010.05.17/outbox.cif.g08.bks.cpg/sg65_28_cif.got.tgz:54864.got - 2010.06.03 17:01:31.
