data_PCOD9482889
_publ_section_title
;
Structure prediction by ZEFSAII (Michael W. Deem and Ramdas Pophale) SiO2 
 PCOD9482889
Probable space group: C M M M
;
_chemical_formula_sum "Si O2"
_cell_formula_units_Z 64
_cell_length_a 15.332473
_cell_length_b 25.218626
_cell_length_c 7.466808
_cell_angle_alpha 90.000000
_cell_angle_beta 90.000000
_cell_angle_gamma 90.000000
_cell_volume 2887.145119
_symmetry_space_group_name_H-M "C M M M"
_symmetry_group_IT_number 65
_symmetry_cell_setting 'orthorhombic'
loop_
_space_group_symop_operation_xyz
x,y,z
-x,-y,z
x,-y,-z
-x,y,-z
-x,-y,-z
x,y,-z
-x,y,z
x,-y,z
1/2+x,1/2+y,z
1/2-x,1/2-y,z
1/2+x,1/2-y,-z
1/2-x,1/2+y,-z
1/2-x,1/2-y,-z
1/2+x,1/2+y,-z
1/2-x,1/2+y,z
1/2+x,1/2-y,z
loop_
_atom_site_type_symbol
_atom_site_label
_atom_site_fract_x
_atom_site_fract_y
_atom_site_fract_z
Si Si1 0.599851 0.106844 0.281637
Si Si2 0.239410 0.309369 0.286268
Si Si3 0.796650 0.500000 0.280952
Si Si4 0.596024 0.383035 0.787464
Si Si5 0.398571 0.500000 0.754380
O O1 0.598550 0.107940 0.500000
O O2 0.500000 0.107763 0.220982
O O3 0.657639 0.156428 0.218458
O O4 0.649042 0.052443 0.234541
O O5 0.227247 0.304972 0.500000
O O6 0.250000 0.250000 0.214070
O O7 0.326332 0.343613 0.255259
O O8 0.782085 0.500000 0.500000
O O9 0.703025 0.500000 0.187052
O O10 0.500000 0.359790 0.752150
O O11 0.602500 0.439152 0.686938
O O12 0.600434 0.396559 0.000000
O O13 0.500000 0.500000 0.823983
#
# Coordination Sequence:
#
# PCOD9482889 Si02
#       5
#    16  16   8  16   8
#     4   9  17  30  49  74 104 138 176 218 266 322
#     4  10  21  36  55  81 110 142 183 229 274 320
#     4  10  17  28  49  78 106 135 174 222 277 332
#     4  10  21  37  57  81 110 146 184 222 273 336
#     4  10  19  32  53  80 107 140 182 226 275 334
#
# _framework density 22.167227
#
# number of rings (size 3 to 8) (size 9 to 14) (size 15 to 20)
#    0.000    2.250    2.500    0.750    0.000    5.250 
#    0.000    5.000    0.000    0.750    0.000    1.750 
#    0.000    0.000    0.000    0.000    0.000    0.000 
#
# Total GULP energy -178258.321639 kJ/mol
# GULP energy per Si atom -5570.572551 kJ/mol
# Density = 2.211677 g / cm^3
# Si number density = 22.167227 Si / 1000 Ang^3
#
#
#
# Elastic Constant Matrix: (Units=GPa)
#
#
# Indices 1 2 3 4 5 6 
#
# 1 259.5024 125.1631 8.4500 0.0000 0.0000 0.0000
# 2 125.1631 206.3556 16.4769 0.0000 0.0000 0.0000
# 3 8.4500 16.4769 76.2783 0.0000 0.0000 0.0000
# 4 0.0000 0.0000 0.0000 -44.6268 0.0000 0.0000
# 5 0.0000 0.0000 0.0000 0.0000 1.8237 0.0000
# 6 0.0000 0.0000 0.0000 0.0000 0.0000 11.3367
#
#
#
# Elastic Compliance Matrix: (Units=1/GPa)
#
#
# Indices 1 2 3 4 5 6 
#
# 1 0.005448 -0.003313 0.000112 0.000000 0.000000 0.000000
# 2 -0.003313 0.006946 -0.001133 0.000000 0.000000 0.000000
# 3 0.000112 -0.001133 0.013342 0.000000 0.000000 0.000000
# 4 0.000000 0.000000 0.000000 -0.022408 0.000000 0.000000
# 5 0.000000 0.000000 0.000000 0.000000 0.548336 0.000000
# 6 0.000000 0.000000 0.000000 0.000000 0.000000 0.088209
#
#
# Mechanical properties :
#
#
# Convention : Reuss Voigt Hill
#
# Bulk Modulus (GPa) = 58.59153 93.59071 76.09112
# Shear Modulus (GPa) = 7.64255 19.84315 13.74285
#
# Velocity S-wave (km/s) = 1.85881 2.99516 2.49261
# Velocity P-wave (km/s) = 5.57637 7.36704 6.53334
#
# Compressibility (1/GPa) = 0.01706731
#
# Stress axis : x y z
#
# Youngs Moduli (GPa) = 183.55407 143.96347 74.94970
#
# Poissons Ratio (x) = 0.47701 -0.00841
# Poissons Ratio (y) = 0.60819 0.08495
# Poissons Ratio (z) = -0.02060 0.16317
#
# Static dielectric constant tensor:
#      x y z
#    x 1.761770 0.000000 0.000000 
#    y 0.000000 1.763760 0.000000 
#    z 0.000000 0.000000 1.984640 
# 
# From -- ./inp_files/6749.got.cif
#   From: 2010.05.17/outbox.cif.g08.bks.cpg/sg65_4_cif.got.tgz:6749.got - 2010.06.03 17:01:31.
