data_PCOD9482413
_publ_section_title
;
Structure prediction by ZEFSAII (Michael W. Deem and Ramdas Pophale) SiO2 
 PCOD9482413
Probable space group: C M C A
;
_chemical_formula_sum "Si O2"
_cell_formula_units_Z 56
_cell_length_a 15.000000
_cell_length_b 15.000000
_cell_length_c 24.000000
_cell_angle_alpha 90.000000
_cell_angle_beta 90.000000
_cell_angle_gamma 90.000000
_cell_volume 5400.000000
_symmetry_space_group_name_H-M "C M C A"
_symmetry_group_IT_number 64
_symmetry_cell_setting 'orthorhombic'
loop_
_space_group_symop_operation_xyz
x,y,z
-x,1/2-y,1/2+z
x,-y,-z
-x,1/2+y,1/2-z
-x,-y,-z
x,1/2+y,1/2-z
-x,y,z
x,1/2-y,1/2+z
1/2+x,1/2+y,z
1/2-x,-y,1/2+z
1/2+x,1/2-y,-z
1/2-x,y,1/2-z
1/2-x,1/2-y,-z
1/2+x,y,1/2-z
1/2-x,1/2+y,z
1/2+x,-y,1/2+z
loop_
_atom_site_type_symbol
_atom_site_label
_atom_site_fract_x
_atom_site_fract_y
_atom_site_fract_z
Si Si1 0.900406 0.519709 0.770472
Si Si2 0.396649 0.915350 0.042102
Si Si3 0.664929 0.696823 0.785170
Si Si4 0.107716 0.065834 0.147093
Si Si5 0.797939 0.602954 0.597374
Si Si6 0.394697 0.277475 0.554746
Si Si7 0.192233 0.373128 0.842540
O O1 0.886421 0.624253 0.753268
O O2 0.895458 0.472235 0.710083
O O3 0.833401 0.467158 0.812352
O O4 0.000000 0.509368 0.793564
O O5 0.500000 0.918249 0.066154
O O6 0.305126 0.915292 0.079108
O O7 0.391084 0.824714 0.005378
O O8 0.391816 0.000000 0.000000
O O9 0.750000 0.718969 0.750000
O O10 0.694428 0.645482 0.841037
O O11 0.640086 0.796141 0.806086
O O12 0.198169 0.129851 0.150679
O O13 0.000000 0.090388 0.135209
O O14 0.142559 0.987707 0.104396
O O15 0.843900 0.681935 0.560155
O O16 0.500000 0.265322 0.569272
O O17 0.348896 0.348888 0.597112
#
# Coordination Sequence:
#
# PCOD9482413 Si02
#       7
#    16  16  16  16  16  16  16
#     4  10  20  34  56  85 118 156 199 247 298 359
#     4  10  21  38  61  89 121 157 203 258 313 372
#     4  10  21  36  54  82 117 158 202 246 298 359
#     4  10  20  35  56  82 115 157 200 246 301 360
#     4  10  20  37  61  84 117 160 200 252 314 372
#     4  10  21  37  61  91 118 155 208 259 310 371
#     4  11  21  37  61  86 121 165 205 252 310 373
#
# _framework density 10.370369999999999
#
# number of rings (size 3 to 8) (size 9 to 14) (size 15 to 20)
#    0.000    1.857    0.000    5.143    0.000    4.000 
#    0.000    7.857    0.000   15.429    0.000    0.000 
#    0.000    0.000    0.000    0.000    0.000    0.000 
#
# Total GULP energy -311780.532035 kJ/mol
# GULP energy per Si atom -5567.509501 kJ/mol
# Density = 1.034677 g / cm^3
# Si number density = 10.370370 Si / 1000 Ang^3
#
#
#
# Elastic Constant Matrix: (Units=GPa)
#
#
# Indices 1 2 3 4 5 6 
#
# 1 164.5869 23.7073 25.4577 0.0000 0.0000 0.0000
# 2 23.7073 85.9450 4.9578 0.0000 0.0000 0.0000
# 3 25.4577 4.9578 11.7880 0.0000 0.0000 0.0000
# 4 0.0000 0.0000 0.0000 20.5650 0.0000 0.0000
# 5 0.0000 0.0000 0.0000 0.0000 34.5787 0.0000
# 6 0.0000 0.0000 0.0000 0.0000 0.0000 31.9814
#
#
#
# Elastic Compliance Matrix: (Units=1/GPa)
#
#
# Indices 1 2 3 4 5 6 
#
# 1 0.009294 -0.001441 -0.019466 0.000000 0.000000 0.000000
# 2 -0.001441 0.012148 -0.001997 0.000000 0.000000 0.000000
# 3 -0.019466 -0.001997 0.127712 0.000000 0.000000 0.000000
# 4 0.000000 0.000000 0.000000 0.048626 0.000000 0.000000
# 5 0.000000 0.000000 0.000000 0.000000 0.028920 0.000000
# 6 0.000000 0.000000 0.000000 0.000000 0.000000 0.031268
#
#
# Mechanical properties :
#
#
# Convention : Reuss Voigt Hill
#
# Bulk Modulus (GPa) = 9.67629 41.17392 25.42510
# Shear Modulus (GPa) = 14.78299 31.30483 23.04391
#
# Velocity S-wave (km/s) = 2.67264 3.88924 3.33685
# Velocity P-wave (km/s) = 3.76822 6.32954 5.20877
#
# Compressibility (1/GPa) = 0.10334539
#
# Stress axis : x y z
#
# Youngs Moduli (GPa) = 107.59232 82.31791 7.83009
#
# Poissons Ratio (x) = 0.11861 0.15242
# Poissons Ratio (y) = 0.15502 0.01564
# Poissons Ratio (z) = 2.09443 0.16443
#
# Static dielectric constant tensor:
#      x y z
#    x 1.769930 0.000000 0.000000 
#    y 0.000000 1.856570 0.000000 
#    z 0.000000 0.000000 1.809710 
# 
# From -- ./inp_files/45305.got.cif
#   From: 2010.05.17/outbox.ucp.g08.bks.cvg/sg64_23_cif.got.tgz:45305.got - 2010.06.11 16:36:46.
