data_PCOD9482489
_publ_section_title
;
Structure prediction by ZEFSAII (Michael W. Deem and Ramdas Pophale) SiO2 
 PCOD9482489
Probable space group: C M C A
;
_chemical_formula_sum "Si O2"
_cell_formula_units_Z 44
_cell_length_a 18.000000
_cell_length_b 9.000000
_cell_length_c 30.000000
_cell_angle_alpha 90.000000
_cell_angle_beta 90.000000
_cell_angle_gamma 90.000000
_cell_volume 4860.000000
_symmetry_space_group_name_H-M "C M C A"
_symmetry_group_IT_number 64
_symmetry_cell_setting 'orthorhombic'
loop_
_space_group_symop_operation_xyz
x,y,z
-x,1/2-y,1/2+z
x,-y,-z
-x,1/2+y,1/2-z
-x,-y,-z
x,1/2+y,1/2-z
-x,y,z
x,1/2-y,1/2+z
1/2+x,1/2+y,z
1/2-x,-y,1/2+z
1/2+x,1/2-y,-z
1/2-x,y,1/2-z
1/2-x,1/2-y,-z
1/2+x,y,1/2-z
1/2-x,1/2+y,z
1/2+x,-y,1/2+z
loop_
_atom_site_type_symbol
_atom_site_label
_atom_site_fract_x
_atom_site_fract_y
_atom_site_fract_z
Si Si1 0.180388 0.387751 0.218083
Si Si2 0.205107 0.709698 0.642737
Si Si3 0.724717 0.444612 0.920236
Si Si4 0.658413 0.500000 0.500000
Si Si5 0.910675 0.329921 0.523510
Si Si6 0.409342 0.189745 0.213820
O O1 0.250000 0.433943 0.250000
O O2 0.225160 0.332233 0.174770
O O3 0.130376 0.263175 0.242788
O O4 0.124337 0.523935 0.210502
O O5 0.230130 0.857565 0.617683
O O6 0.194021 0.590361 0.603930
O O7 0.130896 0.726535 0.672446
O O8 0.654416 0.352165 0.939427
O O9 0.784668 0.484634 0.958336
O O10 0.613231 0.337837 0.496826
O O11 0.904940 0.500000 0.500000
O O12 0.000000 0.317739 0.534131
O O13 0.500000 0.195894 0.214465
#
# Coordination Sequence:
#
# PCOD9482489 Si02
#       6
#    16  16  16   8  16  16
#     4  10  21  40  63  88 123 166 210 252 311 391
#     4  11  23  39  66  93 124 169 215 266 308 389
#     4  12  22  42  67  93 125 170 226 261 317 394
#     4  12  23  44  71  94 128 184 224 266 331 410
#     4  11  24  42  65  97 130 165 217 279 333 382
#     4  11  23  40  63  94 126 164 206 262 325 378
#
# _framework density 9.0534979999999994
#
# number of rings (size 3 to 8) (size 9 to 14) (size 15 to 20)
#    0.000    0.909    4.545    4.091    2.545    0.727 
#    0.000    5.455    0.000    0.000    0.000    0.000 
#    0.000    0.000    0.000    0.000    0.000    0.000 
#
# Total GULP energy -244937.520754 kJ/mol
# GULP energy per Si atom -5566.761835 kJ/mol
# Density = 0.903289 g / cm^3
# Si number density = 9.053498 Si / 1000 Ang^3
#
#
#
# Elastic Constant Matrix: (Units=GPa)
#
#
# Indices 1 2 3 4 5 6 
#
# 1 169.3313 32.6651 42.2929 0.0000 0.0000 0.0000
# 2 32.6651 94.3863 27.3397 0.0000 0.0000 0.0000
# 3 42.2929 27.3397 72.9639 0.0000 0.0000 0.0000
# 4 0.0000 0.0000 0.0000 38.3024 0.0000 0.0000
# 5 0.0000 0.0000 0.0000 0.0000 19.5981 0.0000
# 6 0.0000 0.0000 0.0000 0.0000 0.0000 39.1561
#
#
#
# Elastic Compliance Matrix: (Units=1/GPa)
#
#
# Indices 1 2 3 4 5 6 
#
# 1 0.007069 -0.001413 -0.003568 0.000000 0.000000 0.000000
# 2 -0.001413 0.012167 -0.003740 0.000000 0.000000 0.000000
# 3 -0.003568 -0.003740 0.017175 0.000000 0.000000 0.000000
# 4 0.000000 0.000000 0.000000 0.026108 0.000000 0.000000
# 5 0.000000 0.000000 0.000000 0.000000 0.051025 0.000000
# 6 0.000000 0.000000 0.000000 0.000000 0.000000 0.025539
#
#
# Mechanical properties :
#
#
# Convention : Reuss Voigt Hill
#
# Bulk Modulus (GPa) = 52.71740 60.14189 56.42965
# Shear Modulus (GPa) = 30.70326 35.03692 32.87009
#
# Velocity S-wave (km/s) = 4.12230 4.40363 4.26529
# Velocity P-wave (km/s) = 7.19968 7.69043 7.44910
#
# Compressibility (1/GPa) = 0.01896907
#
# Stress axis : x y z
#
# Youngs Moduli (GPa) = 141.45508 82.18899 58.22379
#
# Poissons Ratio (x) = 0.11613 0.20776
# Poissons Ratio (y) = 0.19987 0.21776
# Poissons Ratio (z) = 0.50475 0.30739
#
# Static dielectric constant tensor:
#      x y z
#    x 1.574750 0.000000 0.000000 
#    y 0.000000 1.715460 0.000000 
#    z 0.000000 0.000000 1.658910 
# 
# From -- ./inp_files/53555.got.cif
#   From: 2010.05.17/outbox.ucp.g08.bks.cvg/sg64_27_cif.got.tgz:53555.got - 2010.06.11 16:36:46.
