data_PCOD9482471
_publ_section_title
;
Structure prediction by ZEFSAII (Michael W. Deem and Ramdas Pophale) SiO2 
 PCOD9482471
Probable space group: C M C A
;
_chemical_formula_sum "Si O2"
_cell_formula_units_Z 40
_cell_length_a 9.000000
_cell_length_b 27.000000
_cell_length_c 18.000000
_cell_angle_alpha 90.000000
_cell_angle_beta 90.000000
_cell_angle_gamma 90.000000
_cell_volume 4374.000000
_symmetry_space_group_name_H-M "C M C A"
_symmetry_group_IT_number 64
_symmetry_cell_setting 'orthorhombic'
loop_
_space_group_symop_operation_xyz
x,y,z
-x,1/2-y,1/2+z
x,-y,-z
-x,1/2+y,1/2-z
-x,-y,-z
x,1/2+y,1/2-z
-x,y,z
x,1/2-y,1/2+z
1/2+x,1/2+y,z
1/2-x,-y,1/2+z
1/2+x,1/2-y,-z
1/2-x,y,1/2-z
1/2-x,1/2-y,-z
1/2+x,y,1/2-z
1/2-x,1/2+y,z
1/2+x,-y,1/2+z
loop_
_atom_site_type_symbol
_atom_site_label
_atom_site_fract_x
_atom_site_fract_y
_atom_site_fract_z
Si Si1 0.177618 0.444072 0.831520
Si Si2 0.322546 0.848354 0.411054
Si Si3 0.679648 0.747410 0.668178
Si Si4 0.821061 0.557005 0.832097
Si Si5 0.823964 0.648742 0.412316
O O1 0.250000 0.439657 0.750000
O O2 0.210493 0.500439 0.859061
O O3 0.239167 0.399128 0.880764
O O4 0.000000 0.439978 0.825290
O O5 0.500000 0.848102 0.395573
O O6 0.246527 0.800340 0.373908
O O7 0.250154 0.898959 0.380021
O O8 0.300735 0.846240 0.499646
O O9 0.500000 0.743364 0.671388
O O10 0.750000 0.748515 0.750000
O O11 0.717565 0.799370 0.627299
O O12 0.750000 0.560726 0.750000
O O13 0.000000 0.562817 0.828438
O O14 0.000000 0.641200 0.398882
#
# Coordination Sequence:
#
# PCOD9482471 Si02
#       5
#    16  16  16  16  16
#     4  10  21  37  60  86 115 151 192 236 282 333
#     4  11  23  39  59  85 116 151 189 234 285 337
#     4  11  23  40  61  85 113 148 189 234 282 338
#     4  10  21  38  59  85 115 151 193 236 282 335
#     4  10  23  40  59  85 117 151 189 232 284 339
#
# _framework density 9.1449470000000002
#
# number of rings (size 3 to 8) (size 9 to 14) (size 15 to 20)
#    0.000    1.600    0.000    4.200    0.000    8.000 
#    0.000    4.000    0.000    0.000    0.000    0.000 
#    0.000    0.000    0.000    0.000    0.000    0.000 
#
# Total GULP energy -223523.118255 kJ/mol
# GULP energy per Si atom -5588.077956 kJ/mol
# Density = 0.912413 g / cm^3
# Si number density = 9.144947 Si / 1000 Ang^3
#
#
#
# Elastic Constant Matrix: (Units=GPa)
#
#
# Indices 1 2 3 4 5 6 
#
# 1 111.4637 99.2765 69.1904 0.0000 0.0000 0.0000
# 2 99.2765 217.5229 102.1518 0.0000 0.0000 0.0000
# 3 69.1904 102.1518 106.1706 0.0000 0.0000 0.0000
# 4 0.0000 0.0000 0.0000 24.8175 0.0000 0.0000
# 5 0.0000 0.0000 0.0000 0.0000 28.1673 0.0000
# 6 0.0000 0.0000 0.0000 0.0000 0.0000 41.6703
#
#
#
# Elastic Compliance Matrix: (Units=1/GPa)
#
#
# Indices 1 2 3 4 5 6 
#
# 1 0.017421 -0.004778 -0.006756 0.000000 0.000000 0.000000
# 2 -0.004778 0.009697 -0.006216 0.000000 0.000000 0.000000
# 3 -0.006756 -0.006216 0.019802 0.000000 0.000000 0.000000
# 4 0.000000 0.000000 0.000000 0.040294 0.000000 0.000000
# 5 0.000000 0.000000 0.000000 0.000000 0.035502 0.000000
# 6 0.000000 0.000000 0.000000 0.000000 0.000000 0.023998
#
#
# Mechanical properties :
#
#
# Convention : Reuss Voigt Hill
#
# Bulk Modulus (GPa) = 87.56424 108.48830 98.02627
# Shear Modulus (GPa) = 26.87861 29.90025 28.38943
#
# Velocity S-wave (km/s) = 3.83768 4.04765 3.94406
# Velocity P-wave (km/s) = 8.22294 9.01606 8.62862
#
# Compressibility (1/GPa) = 0.01142019
#
# Stress axis : x y z
#
# Youngs Moduli (GPa) = 57.40240 103.12242 50.49928
#
# Poissons Ratio (x) = 0.49275 0.34115
# Poissons Ratio (y) = 0.27428 0.31391
# Poissons Ratio (z) = 0.38779 0.64103
#
# Static dielectric constant tensor:
#      x y z
#    x 1.614490 0.000000 0.000000 
#    y 0.000000 1.612980 0.000000 
#    z 0.000000 0.000000 1.604970 
# 
# From -- ./inp_files/29804.got.cif
#   From: 2010.05.17/outbox.ucp.g08.bks.cvg/sg64_15_cif.got.tgz:29804.got - 2010.06.11 16:36:46.
