data_PCOD9482900
_publ_section_title
;
Structure prediction by ZEFSAII (Michael W. Deem and Ramdas Pophale) SiO2 
 PCOD9482900
Probable space group: C M M M
;
_chemical_formula_sum "Si O2"
_cell_formula_units_Z 72
_cell_length_a 29.215979
_cell_length_b 19.775716
_cell_length_c 7.567793
_cell_angle_alpha 90.000000
_cell_angle_beta 90.000000
_cell_angle_gamma 90.000000
_cell_volume 4372.420327
_symmetry_space_group_name_H-M "C M M M"
_symmetry_group_IT_number 65
_symmetry_cell_setting 'orthorhombic'
loop_
_space_group_symop_operation_xyz
x,y,z
-x,-y,z
x,-y,-z
-x,y,-z
-x,-y,-z
x,y,-z
-x,y,z
x,-y,z
1/2+x,1/2+y,z
1/2-x,1/2-y,z
1/2+x,1/2-y,-z
1/2-x,1/2+y,-z
1/2-x,1/2-y,-z
1/2+x,1/2+y,-z
1/2-x,1/2+y,z
1/2+x,1/2-y,z
loop_
_atom_site_type_symbol
_atom_site_label
_atom_site_fract_x
_atom_site_fract_y
_atom_site_fract_z
Si Si1 0.000000 0.079118 0.282752
Si Si2 0.847813 0.000000 0.786389
Si Si3 0.729624 0.851015 0.290025
Si Si4 0.243701 0.500000 0.208399
Si Si5 0.177786 0.779681 0.716782
Si Si6 0.595965 0.634278 0.706576
O O1 0.954007 0.116544 0.220643
O O2 0.000000 0.078449 0.500000
O O3 0.000000 0.000000 0.229879
O O4 0.874328 0.934020 0.721627
O O5 0.795638 0.000000 0.718743
O O6 0.848263 0.000000 0.000000
O O7 0.731380 0.842226 0.500000
O O8 0.720374 0.929287 0.256057
O O9 0.780336 0.828865 0.225728
O O10 0.693249 0.795256 0.226475
O O11 0.248323 0.500000 0.000000
O O12 0.176436 0.781533 0.500000
O O13 0.129183 0.807600 0.780892
O O14 0.588869 0.649903 0.500000
#
# Coordination Sequence:
#
# PCOD9482900 Si02
#       6
#     8   8  16   8  16  16
#     4   9  16  24  40  66  84 101 138 173 199 234
#     4  11  21  28  36  57  84 110 141 171 200 240
#     4   9  16  28  44  61  77 102 139 171 199 239
#     4  11  21  29  38  60  87 109 135 168 207 246
#     4   8  15  26  43  62  78 101 138 173 200 233
#     4  10  17  29  45  58  79 110 141 172 201 233
#
# _framework density 16.466853
#
# number of rings (size 3 to 8) (size 9 to 14) (size 15 to 20)
#    0.000    2.556    3.333    2.000    0.000    0.889 
#    0.000    4.444    0.000    0.000    0.000    0.000 
#    0.000    0.889    0.000   11.333    0.000    1.111 
#
# Total GULP energy -200650.195408 kJ/mol
# GULP energy per Si atom -5573.616539 kJ/mol
# Density = 1.642937 g / cm^3
# Si number density = 16.466853 Si / 1000 Ang^3
#
#
#
# Elastic Constant Matrix: (Units=GPa)
#
#
# Indices 1 2 3 4 5 6 
#
# 1 123.9480 73.7377 5.9657 0.0000 0.0000 0.0000
# 2 73.7377 132.0177 -4.2430 0.0000 0.0000 0.0000
# 3 5.9657 -4.2430 36.9230 0.0000 0.0000 0.0000
# 4 0.0000 0.0000 0.0000 -319.2823 0.0000 0.0000
# 5 0.0000 0.0000 0.0000 0.0000 0.0909 0.0000
# 6 0.0000 0.0000 0.0000 0.0000 0.0000 23.0708
#
#
#
# Elastic Compliance Matrix: (Units=1/GPa)
#
#
# Indices 1 2 3 4 5 6 
#
# 1 0.012365 -0.006996 -0.002802 0.000000 0.000000 0.000000
# 2 -0.006996 0.011562 0.002459 0.000000 0.000000 0.000000
# 3 -0.002802 0.002459 0.027819 0.000000 0.000000 0.000000
# 4 0.000000 0.000000 0.000000 -0.003132 0.000000 0.000000
# 5 0.000000 0.000000 0.000000 0.000000 11.003746 0.000000
# 6 0.000000 0.000000 0.000000 0.000000 0.000000 0.043345
#
#
# Mechanical properties :
#
#
# Convention : Reuss Voigt Hill
#
# Bulk Modulus (GPa) = 26.97835 49.31216 38.14525
# Shear Modulus (GPa) = 0.44953 -44.72891 -22.13969
#
# Velocity S-wave (km/s) = 0.52305 -5.21747 -3.67072
# Velocity P-wave (km/s) = 4.09680 2.50692 2.29119
#
# Compressibility (1/GPa) = 0.03706675
#
# Stress axis : x y z
#
# Youngs Moduli (GPa) = 80.87345 86.49327 35.94711
#
# Poissons Ratio (x) = 0.60515 0.10072
# Poissons Ratio (y) = 0.56583 -0.08840
# Poissons Ratio (z) = 0.22659 -0.21269
#
# Static dielectric constant tensor:
#      x y z
#    x 1.563850 0.000000 0.000000 
#    y 0.000000 1.807890 0.000000 
#    z 0.000000 0.000000 1.597800 
# 
# From -- ./inp_files/16210.got.cif
#   From: 2010.05.17/outbox.cif.g08.bks.cpg/sg65_9_cif.got.tgz:16210.got - 2010.06.03 17:01:31.
