data_PCOD9482337
_publ_section_title
;
Structure prediction by ZEFSAII (Michael W. Deem and Ramdas Pophale) SiO2 
 PCOD9482337
Probable space group: C M C A
;
_chemical_formula_sum "Si O2"
_cell_formula_units_Z 80
_cell_length_a 13.239589
_cell_length_b 11.299277
_cell_length_c 23.384439
_cell_angle_alpha 90.000000
_cell_angle_beta 90.000000
_cell_angle_gamma 90.000000
_cell_volume 3498.260242
_symmetry_space_group_name_H-M "C M C A"
_symmetry_group_IT_number 64
_symmetry_cell_setting 'orthorhombic'
loop_
_space_group_symop_operation_xyz
x,y,z
-x,1/2-y,1/2+z
x,-y,-z
-x,1/2+y,1/2-z
-x,-y,-z
x,1/2+y,1/2-z
-x,y,z
x,1/2-y,1/2+z
1/2+x,1/2+y,z
1/2-x,-y,1/2+z
1/2+x,1/2-y,-z
1/2-x,y,1/2-z
1/2-x,1/2-y,-z
1/2+x,y,1/2-z
1/2-x,1/2+y,z
1/2+x,-y,1/2+z
loop_
_atom_site_type_symbol
_atom_site_label
_atom_site_fract_x
_atom_site_fract_y
_atom_site_fract_z
Si Si1 0.621808 0.829002 0.785507
Si Si2 0.120851 0.896395 0.293401
Si Si3 0.829559 0.319527 0.914255
Si Si4 0.114458 0.916467 0.424687
Si Si5 0.319347 0.375057 0.002894
O O1 0.500000 0.829612 0.789744
O O2 0.647578 0.722373 0.741793
O O3 0.650846 0.968295 0.774542
O O4 0.664498 0.794011 0.847628
O O5 0.146046 0.881890 0.360344
O O6 0.000000 0.900257 0.291008
O O7 0.888947 0.441271 0.922628
O O8 0.871470 0.217738 0.955742
O O9 0.715655 0.341508 0.938937
O O10 0.000000 0.872870 0.437803
O O11 0.208615 0.890972 0.466303
O O12 0.372051 0.500000 0.000000
#
# Coordination Sequence:
#
# PCOD9482337 Si02
#       5
#    16  16  16  16  16
#     4   9  16  29  50  73 100 134 171 208 252 310
#     4   8  15  28  47  73 100 128 165 212 261 302
#     4   9  17  30  48  71  98 132 166 205 259 311
#     4   9  17  31  53  75  95 128 177 218 246 297
#     4   9  18  31  48  70 100 131 163 208 263 307
#
# _framework density 22.868511000000002
#
# number of rings (size 3 to 8) (size 9 to 14) (size 15 to 20)
#    0.000    3.200    0.000    1.800    0.000    4.400 
#    0.000    7.000    0.000    9.600    0.000    4.200 
#    0.000    0.000    0.000    0.000    0.000    0.000 
#
# Total GULP energy -222734.655800 kJ/mol
# GULP energy per Si atom -5568.366395 kJ/mol
# Density = 2.281646 g / cm^3
# Si number density = 22.868511 Si / 1000 Ang^3
#
#
#
# Elastic Constant Matrix: (Units=GPa)
#
#
# Indices 1 2 3 4 5 6 
#
# 1 89.7134 0.7927 33.8663 0.0000 0.0000 0.0000
# 2 0.7927 130.4095 61.3870 0.0000 0.0000 0.0000
# 3 33.8663 61.3870 144.0258 0.0000 0.0000 0.0000
# 4 0.0000 0.0000 0.0000 50.0456 0.0000 0.0000
# 5 0.0000 0.0000 0.0000 0.0000 14.8359 0.0000
# 6 0.0000 0.0000 0.0000 0.0000 0.0000 -84.1371
#
#
#
# Elastic Compliance Matrix: (Units=1/GPa)
#
#
# Indices 1 2 3 4 5 6 
#
# 1 0.012506 0.001637 -0.003638 0.000000 0.000000 0.000000
# 2 0.001637 0.009807 -0.004565 0.000000 0.000000 0.000000
# 3 -0.003638 -0.004565 0.009744 0.000000 0.000000 0.000000
# 4 0.000000 0.000000 0.000000 0.019982 0.000000 0.000000
# 5 0.000000 0.000000 0.000000 0.000000 0.067404 0.000000
# 6 0.000000 0.000000 0.000000 0.000000 0.000000 -0.011885
#
#
# Mechanical properties :
#
#
# Convention : Reuss Voigt Hill
#
# Bulk Modulus (GPa) = 52.84269 61.80452 57.32361
# Shear Modulus (GPa) = 39.37073 14.02239 26.69656
#
# Velocity S-wave (km/s) = 4.15373 2.47892 3.42042
# Velocity P-wave (km/s) = 6.79426 5.93954 6.38123
#
# Compressibility (1/GPa) = 0.01892409
#
# Stress axis : x y z
#
# Youngs Moduli (GPa) = 79.96480 101.96858 102.62464
#
# Poissons Ratio (x) = -0.16687 0.37336
# Poissons Ratio (y) = -0.13086 0.46846
# Poissons Ratio (z) = 0.29092 0.46546
#
# Static dielectric constant tensor:
#      x y z
#    x 1.857660 0.000000 0.000000 
#    y 0.000000 1.999900 0.000000 
#    z 0.000000 0.000000 1.939040 
# 
# From -- ./inp_files/44964.got.cif
#   From: 2010.05.17/outbox.cif.g08.bks.cpg/sg64_23_cif.got.tgz:44964.got - 2010.06.03 16:29:19.
