data_PCOD9482601
_publ_section_title
;
Structure prediction by ZEFSAII (Michael W. Deem and Ramdas Pophale) SiO2 
 PCOD9482601
Probable space group: C M M M
;
_chemical_formula_sum "Si O2"
_cell_formula_units_Z 104
_cell_length_a 27.928697
_cell_length_b 8.624463
_cell_length_c 27.505632
_cell_angle_alpha 90.000000
_cell_angle_beta 90.000000
_cell_angle_gamma 90.000000
_cell_volume 6625.281963
_symmetry_space_group_name_H-M "C M M M"
_symmetry_group_IT_number 65
_symmetry_cell_setting 'orthorhombic'
loop_
_space_group_symop_operation_xyz
x,y,z
-x,-y,z
x,-y,-z
-x,y,-z
-x,-y,-z
x,y,-z
-x,y,z
x,-y,z
1/2+x,1/2+y,z
1/2-x,1/2-y,z
1/2+x,1/2-y,-z
1/2-x,1/2+y,-z
1/2-x,1/2-y,-z
1/2+x,1/2+y,-z
1/2-x,1/2+y,z
1/2+x,1/2-y,z
loop_
_atom_site_type_symbol
_atom_site_label
_atom_site_fract_x
_atom_site_fract_y
_atom_site_fract_z
Si Si1 0.604038 0.313053 0.446094
Si Si2 0.697450 0.185347 0.397489
Si Si3 0.303914 0.684493 0.798606
Si Si4 0.804645 0.814732 0.000000
Si Si5 0.054627 0.187607 0.653299
Si Si6 0.353051 0.814795 0.296354
Si Si7 0.804470 0.314803 0.100197
O O1 0.589612 0.260612 0.500000
O O2 0.604997 0.500000 0.446124
O O3 0.656862 0.252965 0.432757
O O4 0.569643 0.265887 0.401705
O O5 0.750000 0.250000 0.407225
O O6 0.680475 0.227349 0.342633
O O7 0.697576 0.000000 0.401168
O O8 0.301102 0.500000 0.803563
O O9 0.250000 0.750000 0.792017
O O10 0.334285 0.732948 0.751901
O O11 0.324818 0.756217 0.848537
O O12 0.750000 0.750000 0.000000
O O13 0.826515 0.752191 0.050412
O O14 0.803222 0.000000 0.000000
O O15 0.093829 0.262118 0.688546
O O16 0.000000 0.231660 0.663455
O O17 0.058333 0.000000 0.656340
O O18 0.351017 0.000000 0.290213
O O19 0.803437 0.500000 0.098252
O O20 0.750000 0.250000 0.101229
#
# Coordination Sequence:
#
# PCOD9482601 Si02
#       7
#    16  16  16   8  16  16  16
#     4   9  18  32  49  69  92 116 143 176 213 256
#     4  10  20  32  47  65  87 116 148 180 215 257
#     4  11  20  30  44  64  90 120 153 189 228 268
#     4  10  16  24  36  52  76 110 153 196 233 266
#     4   9  18  33  52  72  92 114 141 175 218 267
#     4  10  20  33  48  67  89 115 147 183 222 265
#     4  10  17  26  38  55  80 113 153 193 230 266
#
# _framework density 15.697445999999999
#
# number of rings (size 3 to 8) (size 9 to 14) (size 15 to 20)
#    0.000    2.154    0.000    6.692    0.000    4.308 
#    0.000    1.538    0.000    0.000    0.000    4.308 
#    0.000    0.000    0.000    0.692    0.000   12.846 
#
# Total GULP energy -290020.028392 kJ/mol
# GULP energy per Si atom -5577.308238 kJ/mol
# Density = 1.566172 g / cm^3
# Si number density = 15.697446 Si / 1000 Ang^3
#
#
#
# Elastic Constant Matrix: (Units=GPa)
#
#
# Indices 1 2 3 4 5 6 
#
# 1 53.4222 12.8682 17.7606 0.0000 0.0000 0.0000
# 2 12.8682 82.4425 39.4508 0.0000 0.0000 0.0000
# 3 17.7606 39.4508 115.9169 0.0000 0.0000 0.0000
# 4 0.0000 0.0000 0.0000 22.1522 0.0000 0.0000
# 5 0.0000 0.0000 0.0000 0.0000 9.1262 0.0000
# 6 0.0000 0.0000 0.0000 0.0000 0.0000 17.5093
#
#
#
# Elastic Compliance Matrix: (Units=1/GPa)
#
#
# Indices 1 2 3 4 5 6 
#
# 1 0.019989 -0.001976 -0.002390 0.000000 0.000000 0.000000
# 2 -0.001976 0.014685 -0.004695 0.000000 0.000000 0.000000
# 3 -0.002390 -0.004695 0.010591 0.000000 0.000000 0.000000
# 4 0.000000 0.000000 0.000000 0.045142 0.000000 0.000000
# 5 0.000000 0.000000 0.000000 0.000000 0.109575 0.000000
# 6 0.000000 0.000000 0.000000 0.000000 0.000000 0.057113
#
#
# Mechanical properties :
#
#
# Convention : Reuss Voigt Hill
#
# Bulk Modulus (GPa) = 36.84282 43.54897 40.19590
# Shear Modulus (GPa) = 17.58920 21.87101 19.73011
#
# Velocity S-wave (km/s) = 3.35104 3.73672 3.54912
# Velocity P-wave (km/s) = 6.20437 6.81325 6.51592
#
# Compressibility (1/GPa) = 0.02714233
#
# Stress axis : x y z
#
# Youngs Moduli (GPa) = 50.02634 68.09762 94.42024
#
# Poissons Ratio (x) = 0.13459 0.22568
# Poissons Ratio (y) = 0.09887 0.44330
# Poissons Ratio (z) = 0.11957 0.31972
#
# Static dielectric constant tensor:
#      x y z
#    x 1.487780 0.000000 0.000000 
#    y 0.000000 1.526910 0.000000 
#    z 0.000000 0.000000 1.568740 
# 
# From -- ./inp_files/75974.got.cif
#   From: 2010.05.17/outbox.cif.g08.bks.cpg/sg65_38_cif.got.tgz:75974.got - 2010.06.03 17:01:31.
