data_PCOD9482086
_publ_section_title
;
Structure prediction by ZEFSAII (Michael W. Deem and Ramdas Pophale) SiO2 
 PCOD9482086
Probable space group: C M C A
;
_chemical_formula_sum "Si O2"
_cell_formula_units_Z 64
_cell_length_a 18.013928
_cell_length_b 10.182729
_cell_length_c 17.680365
_cell_angle_alpha 90.000000
_cell_angle_beta 90.000000
_cell_angle_gamma 90.000000
_cell_volume 3243.126096
_symmetry_space_group_name_H-M "C M C A"
_symmetry_group_IT_number 64
_symmetry_cell_setting 'orthorhombic'
loop_
_space_group_symop_operation_xyz
x,y,z
-x,1/2-y,1/2+z
x,-y,-z
-x,1/2+y,1/2-z
-x,-y,-z
x,1/2+y,1/2-z
-x,y,z
x,1/2-y,1/2+z
1/2+x,1/2+y,z
1/2-x,-y,1/2+z
1/2+x,1/2-y,-z
1/2-x,y,1/2-z
1/2-x,1/2-y,-z
1/2+x,y,1/2-z
1/2-x,1/2+y,z
1/2+x,-y,1/2+z
loop_
_atom_site_type_symbol
_atom_site_label
_atom_site_fract_x
_atom_site_fract_y
_atom_site_fract_z
Si Si1 0.418630 0.047997 0.086959
Si Si2 0.736423 0.372668 0.553012
Si Si3 0.325535 0.908736 0.701889
Si Si4 0.413130 0.142314 0.771730
O O1 0.500000 0.107131 0.104575
O O2 0.345115 0.135828 0.091633
O O3 0.407800 0.927768 0.145371
O O4 0.421621 0.000000 0.000000
O O5 0.736353 0.500000 0.500000
O O6 0.750000 0.250000 0.500000
O O7 0.798654 0.388431 0.616440
O O8 0.250000 0.919598 0.750000
O O9 0.372599 0.781764 0.726438
O O10 0.372831 0.039781 0.716225
O O11 0.500000 0.156661 0.754297
#
# Coordination Sequence:
#
# PCOD9482086 Si02
#       4
#    16  16  16  16
#     4   9  18  36  61  88 122 165 211 259 317 385
#     4  11  24  41  65  96 129 170 223 274 329 392
#     4  12  24  40  68  96 131 169 219 274 326 389
#     4  11  24  42  64  95 131 173 216 269 332 396
#
# _framework density 19.734048000000001
#
# number of rings (size 3 to 8) (size 9 to 14) (size 15 to 20)
#    0.000    1.250    2.500    4.500    3.500    0.000 
#    0.000    1.250    0.000    3.750    0.000    0.000 
#    0.000    0.000    0.000    0.000    0.000    0.000 
#
# Total GULP energy -178820.218967 kJ/mol
# GULP energy per Si atom -5588.131843 kJ/mol
# Density = 1.968913 g / cm^3
# Si number density = 19.734048 Si / 1000 Ang^3
#
#
#
# Elastic Constant Matrix: (Units=GPa)
#
#
# Indices 1 2 3 4 5 6 
#
# 1 174.7731 77.6206 26.3467 0.0000 0.0000 0.0000
# 2 77.6206 119.2340 20.1790 0.0000 0.0000 0.0000
# 3 26.3467 20.1790 83.0749 0.0000 0.0000 0.0000
# 4 0.0000 0.0000 0.0000 32.3560 0.0000 0.0000
# 5 0.0000 0.0000 0.0000 0.0000 16.8107 0.0000
# 6 0.0000 0.0000 0.0000 0.0000 0.0000 102.2351
#
#
#
# Elastic Compliance Matrix: (Units=1/GPa)
#
#
# Indices 1 2 3 4 5 6 
#
# 1 0.008193 -0.005104 -0.001359 0.000000 0.000000 0.000000
# 2 -0.005104 0.011926 -0.001278 0.000000 0.000000 0.000000
# 3 -0.001359 -0.001278 0.012779 0.000000 0.000000 0.000000
# 4 0.000000 0.000000 0.000000 0.030906 0.000000 0.000000
# 5 0.000000 0.000000 0.000000 0.000000 0.059486 0.000000
# 6 0.000000 0.000000 0.000000 0.000000 0.000000 0.009781
#
#
# Mechanical properties :
#
#
# Convention : Reuss Voigt Hill
#
# Bulk Modulus (GPa) = 57.41729 69.48606 63.45168
# Shear Modulus (GPa) = 32.39223 47.14273 39.76748
#
# Velocity S-wave (km/s) = 4.05586 4.89294 4.49394
# Velocity P-wave (km/s) = 7.14787 8.19810 7.69094
#
# Compressibility (1/GPa) = 0.01741636
#
# Stress axis : x y z
#
# Youngs Moduli (GPa) = 122.05181 83.85230 78.25525
#
# Poissons Ratio (x) = 0.42797 0.10633
# Poissons Ratio (y) = 0.62293 0.10002
# Poissons Ratio (z) = 0.16583 0.10717
#
# Static dielectric constant tensor:
#      x y z
#    x 1.730160 0.000000 0.000000 
#    y 0.000000 1.642420 0.000000 
#    z 0.000000 0.000000 1.729440 
# 
# From -- ./inp_files/31651.got.cif
#   From: 2010.05.17/outbox.cif.g08.bks.cpg/sg64_16_cif.got.tgz:31651.got - 2010.06.03 16:29:19.
