data_PCOD9482993
_publ_section_title
;
Structure prediction by ZEFSAII (Michael W. Deem and Ramdas Pophale) SiO2 
 PCOD9482993
Probable space group: C M M M
;
_chemical_formula_sum "Si O2"
_cell_formula_units_Z 64
_cell_length_a 15.654440
_cell_length_b 15.160640
_cell_length_c 12.604132
_cell_angle_alpha 90.000000
_cell_angle_beta 90.000000
_cell_angle_gamma 90.000000
_cell_volume 2991.355401
_symmetry_space_group_name_H-M "C M M M"
_symmetry_group_IT_number 65
_symmetry_cell_setting 'orthorhombic'
loop_
_space_group_symop_operation_xyz
x,y,z
-x,-y,z
x,-y,-z
-x,y,-z
-x,-y,-z
x,y,-z
-x,y,z
x,-y,z
1/2+x,1/2+y,z
1/2-x,1/2-y,z
1/2+x,1/2-y,-z
1/2-x,1/2+y,-z
1/2-x,1/2-y,-z
1/2+x,1/2+y,-z
1/2-x,1/2+y,z
1/2+x,1/2-y,z
loop_
_atom_site_type_symbol
_atom_site_label
_atom_site_fract_x
_atom_site_fract_y
_atom_site_fract_z
Si Si1 0.103395 0.899240 0.287999
Si Si2 0.599724 0.901953 0.272413
Si Si3 0.902656 0.807607 0.500000
Si Si4 0.851719 0.757197 0.880002
Si Si5 0.871192 0.398103 0.500000
O O1 0.135734 0.846499 0.392051
O O2 0.127492 0.845979 0.183386
O O3 0.000000 0.899839 0.291065
O O4 0.133343 0.000000 0.289668
O O5 0.500000 0.894509 0.310201
O O6 0.615049 0.824681 0.189726
O O7 0.659512 0.896459 0.376888
O O8 0.609616 0.000000 0.225716
O O9 0.906183 0.702382 0.500000
O O10 0.000000 0.840177 0.500000
O O11 0.750000 0.750000 0.884693
O O12 0.885799 0.756269 0.000000
O O13 0.907632 0.500000 0.500000
#
# Coordination Sequence:
#
# PCOD9482993 Si02
#       5
#    16  16   8  16   8
#     4  10  21  38  62  90 117 150 194 240 285 338
#     4  10  20  36  61  91 119 147 184 232 286 347
#     4  10  17  31  58  90 123 151 179 229 292 350
#     4  11  25  42  58  79 113 157 199 241 290 342
#     4  10  18  30  57  95 126 150 179 225 292 357
#
# _framework density 21.394983
#
# number of rings (size 3 to 8) (size 9 to 14) (size 15 to 20)
#    0.000    1.750    2.500    2.250    0.000    8.250 
#    0.000    7.500    0.000    3.000    0.000    0.000 
#    0.000    0.000    0.000    0.000    0.000    0.000 
#
# Total GULP energy -178225.028609 kJ/mol
# GULP energy per Si atom -5569.532144 kJ/mol
# Density = 2.134629 g / cm^3
# Si number density = 21.394983 Si / 1000 Ang^3
#
#
#
# Elastic Constant Matrix: (Units=GPa)
#
#
# Indices 1 2 3 4 5 6 
#
# 1 40.8235 22.0648 8.5921 0.0000 0.0000 0.0000
# 2 22.0648 185.5885 99.3562 0.0000 0.0000 0.0000
# 3 8.5921 99.3562 179.5645 0.0000 0.0000 0.0000
# 4 0.0000 0.0000 0.0000 5.1893 0.0000 0.0000
# 5 0.0000 0.0000 0.0000 0.0000 85.5627 0.0000
# 6 0.0000 0.0000 0.0000 0.0000 0.0000 0.2336
#
#
#
# Elastic Compliance Matrix: (Units=1/GPa)
#
#
# Indices 1 2 3 4 5 6 
#
# 1 0.026234 -0.003477 0.000669 0.000000 0.000000 0.000000
# 2 -0.003477 0.008117 -0.004325 0.000000 0.000000 0.000000
# 3 0.000669 -0.004325 0.007930 0.000000 0.000000 0.000000
# 4 0.000000 0.000000 0.000000 0.192706 0.000000 0.000000
# 5 0.000000 0.000000 0.000000 0.000000 0.011687 0.000000
# 6 0.000000 0.000000 0.000000 0.000000 0.000000 4.281277
#
#
# Mechanical properties :
#
#
# Convention : Reuss Voigt Hill
#
# Bulk Modulus (GPa) = 35.69544 74.00029 54.84787
# Shear Modulus (GPa) = 1.09853 36.59467 18.84660
#
# Velocity S-wave (km/s) = 0.71733 4.14022 2.97120
# Velocity P-wave (km/s) = 4.17209 7.58407 6.12064
#
# Compressibility (1/GPa) = 0.02801478
#
# Stress axis : x y z
#
# Youngs Moduli (GPa) = 38.11809 123.19798 126.10196
#
# Poissons Ratio (x) = 0.42835 -0.08431
# Poissons Ratio (y) = 0.13253 0.54538
# Poissons Ratio (z) = -0.02548 0.53282
#
# Static dielectric constant tensor:
#      x y z
#    x 1.876060 0.000000 0.000000 
#    y 0.000000 1.725110 0.000000 
#    z 0.000000 0.000000 1.778510 
# 
# From -- ./inp_files/26116.got.cif
#   From: 2010.05.17/outbox.cif.g08.bks.cpg/sg65_14_cif.got.tgz:26116.got - 2010.06.03 17:01:31.
