data_PCOD9482895
_publ_section_title
;
Structure prediction by ZEFSAII (Michael W. Deem and Ramdas Pophale) SiO2 
 PCOD9482895
Probable space group: C M M M
;
_chemical_formula_sum "Si O2"
_cell_formula_units_Z 72
_cell_length_a 18.419071
_cell_length_b 24.370706
_cell_length_c 7.388381
_cell_angle_alpha 90.000000
_cell_angle_beta 90.000000
_cell_angle_gamma 90.000000
_cell_volume 3316.539051
_symmetry_space_group_name_H-M "C M M M"
_symmetry_group_IT_number 65
_symmetry_cell_setting 'orthorhombic'
loop_
_space_group_symop_operation_xyz
x,y,z
-x,-y,z
x,-y,-z
-x,y,-z
-x,-y,-z
x,y,-z
-x,y,z
x,-y,z
1/2+x,1/2+y,z
1/2-x,1/2-y,z
1/2+x,1/2-y,-z
1/2-x,1/2+y,-z
1/2-x,1/2-y,-z
1/2+x,1/2+y,-z
1/2-x,1/2+y,z
1/2+x,1/2-y,z
loop_
_atom_site_type_symbol
_atom_site_label
_atom_site_fract_x
_atom_site_fract_y
_atom_site_fract_z
Si Si1 0.919143 0.623646 0.779364
Si Si2 0.500000 0.564929 0.721338
Si Si3 0.347184 0.609662 0.718162
Si Si4 0.235638 0.000000 0.283100
Si Si5 0.778209 0.306982 0.792055
Si Si6 0.399279 0.000000 0.204625
O O1 0.848533 0.659050 0.718220
O O2 0.917381 0.559886 0.715076
O O3 0.000000 0.645877 0.734245
O O4 0.914250 0.621139 0.000000
O O5 0.500000 0.500000 0.777202
O O6 0.500000 0.562468 0.500000
O O7 0.429407 0.599331 0.777490
O O8 0.347895 0.615745 0.500000
O O9 0.308221 0.553228 0.766324
O O10 0.293713 0.655743 0.790423
O O11 0.245221 0.000000 0.500000
O O12 0.313227 0.000000 0.197488
O O13 0.750000 0.250000 0.707494
O O14 0.799140 0.294583 0.000000
O O15 0.427226 0.000000 0.000000
#
# Coordination Sequence:
#
# PCOD9482895 Si02
#       6
#    16   8  16   8  16   8
#     4   9  17  30  50  75 100 128 166 208 246 296
#     4   9  16  30  53  81 109 137 171 210 255 318
#     4  10  19  33  55  78 103 137 175 212 255 309
#     4  10  18  28  49  79 105 132 164 202 257 312
#     4  10  21  37  54  74 102 137 177 216 258 302
#     4  10  17  28  51  77  98 126 166 207 250 303
#
# _framework density 21.709378000000001
#
# number of rings (size 3 to 8) (size 9 to 14) (size 15 to 20)
#    0.000    2.333    3.333    0.333    0.000    1.778 
#    2.000    0.556    0.000    4.000    0.000    0.000 
#    0.000    0.000    0.000    0.000    0.000    0.000 
#
# Total GULP energy -200678.235526 kJ/mol
# GULP energy per Si atom -5574.395431 kJ/mol
# Density = 2.165997 g / cm^3
# Si number density = 21.709378 Si / 1000 Ang^3
#
#
#
# Elastic Constant Matrix: (Units=GPa)
#
#
# Indices 1 2 3 4 5 6 
#
# 1 228.7777 81.2161 12.1773 0.0000 0.0000 0.0000
# 2 81.2161 154.2095 13.3311 0.0000 0.0000 0.0000
# 3 12.1773 13.3311 59.0700 0.0000 0.0000 0.0000
# 4 0.0000 0.0000 0.0000 0.4958 0.0000 0.0000
# 5 0.0000 0.0000 0.0000 0.0000 11.0468 0.0000
# 6 0.0000 0.0000 0.0000 0.0000 0.0000 4.2606
#
#
#
# Elastic Compliance Matrix: (Units=1/GPa)
#
#
# Indices 1 2 3 4 5 6 
#
# 1 0.005390 -0.002797 -0.000480 0.000000 0.000000 0.000000
# 2 -0.002797 0.008065 -0.001244 0.000000 0.000000 0.000000
# 3 -0.000480 -0.001244 0.017309 0.000000 0.000000 0.000000
# 4 0.000000 0.000000 0.000000 2.016863 0.000000 0.000000
# 5 0.000000 0.000000 0.000000 0.000000 0.090524 0.000000
# 6 0.000000 0.000000 0.000000 0.000000 0.000000 0.234711
#
#
# Mechanical properties :
#
#
# Convention : Reuss Voigt Hill
#
# Bulk Modulus (GPa) = 46.03494 72.83404 59.43449
# Shear Modulus (GPa) = 2.09280 25.51615 13.80448
#
# Velocity S-wave (km/s) = 0.98290 3.43206 2.52439
# Velocity P-wave (km/s) = 4.74755 7.02337 5.99446
#
# Compressibility (1/GPa) = 0.02172263
#
# Stress axis : x y z
#
# Youngs Moduli (GPa) = 185.54533 123.98880 57.77459
#
# Poissons Ratio (x) = 0.34679 0.02772
# Poissons Ratio (y) = 0.51896 0.07185
# Poissons Ratio (z) = 0.08903 0.15419
#
# Static dielectric constant tensor:
#      x y z
#    x 1.810710 0.000000 0.000000 
#    y 0.000000 1.769210 0.000000 
#    z 0.000000 0.000000 1.834040 
# 
# From -- ./inp_files/9330.got.cif
#   From: 2010.05.17/outbox.cif.g08.bks.cpg/sg65_5_cif.got.tgz:9330.got - 2010.06.03 17:01:31.
