data_PCOD9482071
_publ_section_title
;
Structure prediction by ZEFSAII (Michael W. Deem and Ramdas Pophale) SiO2 
 PCOD9482071
Probable space group: C M C A
;
_chemical_formula_sum "Si O2"
_cell_formula_units_Z 80
_cell_length_a 28.858136
_cell_length_b 9.119757
_cell_length_c 10.745821
_cell_angle_alpha 90.000000
_cell_angle_beta 90.000000
_cell_angle_gamma 90.000000
_cell_volume 2828.076443
_symmetry_space_group_name_H-M "C M C A"
_symmetry_group_IT_number 64
_symmetry_cell_setting 'orthorhombic'
loop_
_space_group_symop_operation_xyz
x,y,z
-x,1/2-y,1/2+z
x,-y,-z
-x,1/2+y,1/2-z
-x,-y,-z
x,1/2+y,1/2-z
-x,y,z
x,1/2-y,1/2+z
1/2+x,1/2+y,z
1/2-x,-y,1/2+z
1/2+x,1/2-y,-z
1/2-x,y,1/2-z
1/2-x,1/2-y,-z
1/2+x,y,1/2-z
1/2-x,1/2+y,z
1/2+x,-y,1/2+z
loop_
_atom_site_type_symbol
_atom_site_label
_atom_site_fract_x
_atom_site_fract_y
_atom_site_fract_z
Si Si1 0.500000 0.002875 0.701233
Si Si2 0.273763 0.877919 0.581017
Si Si3 0.500000 0.248281 0.011698
Si Si4 0.098016 0.009653 0.199294
Si Si5 0.821264 0.904770 0.667124
Si Si6 0.102137 0.248177 0.000063
O O1 0.500000 0.881209 0.590976
O O2 0.451213 0.982447 0.766131
O O3 0.500000 0.165885 0.643445
O O4 0.250000 0.750000 0.500000
O O5 0.227585 0.965503 0.623360
O O6 0.301791 0.829075 0.703987
O O7 0.301382 0.000000 0.500000
O O8 0.550976 0.177762 0.996411
O O9 0.140984 0.980008 0.286955
O O10 0.094766 0.885380 0.096866
O O11 0.106385 0.165565 0.131947
O O12 0.851750 0.823304 0.559503
#
# Coordination Sequence:
#
# PCOD9482071 Si02
#       6
#     8  16   8  16  16  16
#     4   7  12  27  50  86 121 167 195 248 312 364
#     4  11  28  47  65  90 128 162 208 274 335 387
#     4   7  12  27  52  82 128 162 201 248 303 369
#     4   9  18  33  59  87 129 160 208 257 309 380
#     4  11  24  37  66  91 115 165 215 261 323 389
#     4   9  18  34  57  92 124 166 207 255 310 373
#
# _framework density 28.287776999999998
#
# number of rings (size 3 to 8) (size 9 to 14) (size 15 to 20)
#    0.000    2.600    0.000    3.600    8.400    2.400 
#    0.000    0.000    0.000    0.000    0.000    1.400 
#    0.000    0.000    0.000    0.000    0.000    0.000 
#
# Total GULP energy -223201.514014 kJ/mol
# GULP energy per Si atom -5580.037850 kJ/mol
# Density = 2.822339 g / cm^3
# Si number density = 28.287777 Si / 1000 Ang^3
#
#
#
# Elastic Constant Matrix: (Units=GPa)
#
#
# Indices 1 2 3 4 5 6 
#
# 1 267.5697 12.2850 32.2288 0.0000 0.0000 0.0000
# 2 12.2850 85.8275 50.0693 0.0000 0.0000 0.0000
# 3 32.2288 50.0693 119.5245 0.0000 0.0000 0.0000
# 4 0.0000 0.0000 0.0000 32.6837 0.0000 0.0000
# 5 0.0000 0.0000 0.0000 0.0000 -22.4665 0.0000
# 6 0.0000 0.0000 0.0000 0.0000 0.0000 -11.3182
#
#
#
# Elastic Compliance Matrix: (Units=1/GPa)
#
#
# Indices 1 2 3 4 5 6 
#
# 1 0.003863 0.000072 -0.001072 0.000000 0.000000 0.000000
# 2 0.000072 0.015421 -0.006479 0.000000 0.000000 0.000000
# 3 -0.001072 -0.006479 0.011370 0.000000 0.000000 0.000000
# 4 0.000000 0.000000 0.000000 0.030596 0.000000 0.000000
# 5 0.000000 0.000000 0.000000 0.000000 -0.044511 0.000000
# 6 0.000000 0.000000 0.000000 0.000000 0.000000 -0.088353
#
#
# Mechanical properties :
#
#
# Convention : Reuss Voigt Hill
#
# Bulk Modulus (GPa) = 63.71121 73.56531 68.63826
# Shear Modulus (GPa) = -97.23042 25.00238 -36.11402
#
# Velocity S-wave (km/s) = -5.86911 2.97620 -3.57692
# Velocity P-wave (km/s) = 4.83293 6.15409 2.69403
#
# Compressibility (1/GPa) = 0.01569582
#
# Stress axis : x y z
#
# Youngs Moduli (GPa) = 258.85672 64.84754 87.95257
#
# Poissons Ratio (x) = -0.00470 0.09429
# Poissons Ratio (y) = -0.01875 0.56988
# Poissons Ratio (z) = 0.27749 0.42017
#
# Static dielectric constant tensor:
#      x y z
#    x 2.212640 0.000000 0.000000 
#    y 0.000000 2.191150 0.000000 
#    z 0.000000 0.000000 2.469740 
# 
# From -- ./inp_files/19640.got.cif
#   From: 2010.05.17/outbox.cif.g08.bks.cpg/sg64_10_cif.got.tgz:19640.got - 2010.06.03 16:29:19.
