data_PCOD9482147
_publ_section_title
;
Structure prediction by ZEFSAII (Michael W. Deem and Ramdas Pophale) SiO2 
 PCOD9482147
Probable space group: C M C A
;
_chemical_formula_sum "Si O2"
_cell_formula_units_Z 68
_cell_length_a 16.405771
_cell_length_b 22.223835
_cell_length_c 8.608970
_cell_angle_alpha 90.000000
_cell_angle_beta 90.000000
_cell_angle_gamma 90.000000
_cell_volume 3138.823125
_symmetry_space_group_name_H-M "C M C A"
_symmetry_group_IT_number 64
_symmetry_cell_setting 'orthorhombic'
loop_
_space_group_symop_operation_xyz
x,y,z
-x,1/2-y,1/2+z
x,-y,-z
-x,1/2+y,1/2-z
-x,-y,-z
x,1/2+y,1/2-z
-x,y,z
x,1/2-y,1/2+z
1/2+x,1/2+y,z
1/2-x,-y,1/2+z
1/2+x,1/2-y,-z
1/2-x,y,1/2-z
1/2-x,1/2-y,-z
1/2+x,y,1/2-z
1/2-x,1/2+y,z
1/2+x,-y,1/2+z
loop_
_atom_site_type_symbol
_atom_site_label
_atom_site_fract_x
_atom_site_fract_y
_atom_site_fract_z
Si Si1 0.000000 0.000000 0.000000
Si Si2 0.908131 0.723620 0.522445
Si Si3 0.837819 0.821921 0.331105
Si Si4 0.821425 0.930025 0.534285
Si Si5 0.633812 0.903556 0.618038
O O1 0.928858 0.949438 0.959388
O O2 0.846599 0.776442 0.474978
O O3 0.897422 0.701933 0.698516
O O4 0.889921 0.664826 0.419670
O O5 0.000000 0.745094 0.497876
O O6 0.750000 0.820695 0.250000
O O7 0.854056 0.888350 0.395653
O O8 0.725259 0.915314 0.554231
O O9 0.863269 0.914201 0.697343
O O10 0.831746 0.000000 0.500000
#
# Coordination Sequence:
#
# PCOD9482147 Si02
#       5
#     4  16  16  16  16
#     4  12  24  48  74 108 144 194 244 288 380 436
#     4  12  26  46  71 103 147 187 234 302 371 427
#     4  12  26  45  74 106 138 190 248 297 352 441
#     4  11  26  44  71 106 141 186 243 301 355 431
#     4  11  25  43  73 101 144 184 240 296 358 431
#
# _framework density 21.664169999999999
#
# number of rings (size 3 to 8) (size 9 to 14) (size 15 to 20)
#    0.000    0.471    4.706    2.824    9.882    0.000 
#    4.235    0.588    0.000    0.000    0.000    0.000 
#    0.000    0.000    0.000    0.000    0.000    0.000 
#
# Total GULP energy -189839.927635 kJ/mol
# GULP energy per Si atom -5583.527283 kJ/mol
# Density = 2.161486 g / cm^3
# Si number density = 21.664170 Si / 1000 Ang^3
#
#
#
# Elastic Constant Matrix: (Units=GPa)
#
#
# Indices 1 2 3 4 5 6 
#
# 1 19.5383 28.7153 7.5414 0.0000 0.0000 0.0000
# 2 28.7153 124.8715 32.1301 0.0000 0.0000 0.0000
# 3 7.5414 32.1301 88.1734 0.0000 0.0000 0.0000
# 4 0.0000 0.0000 0.0000 29.9112 0.0000 0.0000
# 5 0.0000 0.0000 0.0000 0.0000 22.4174 0.0000
# 6 0.0000 0.0000 0.0000 0.0000 0.0000 -1.4390
#
#
#
# Elastic Compliance Matrix: (Units=1/GPa)
#
#
# Indices 1 2 3 4 5 6 
#
# 1 0.077311 -0.017740 -0.000148 0.000000 0.000000 0.000000
# 2 -0.017740 0.012908 -0.003186 0.000000 0.000000 0.000000
# 3 -0.000148 -0.003186 0.012515 0.000000 0.000000 0.000000
# 4 0.000000 0.000000 0.000000 0.033432 0.000000 0.000000
# 5 0.000000 0.000000 0.000000 0.000000 0.044608 0.000000
# 6 0.000000 0.000000 0.000000 0.000000 0.000000 -0.694942
#
#
# Mechanical properties :
#
#
# Convention : Reuss Voigt Hill
#
# Bulk Modulus (GPa) = 16.50567 41.03962 28.77264
# Shear Modulus (GPa) = -11.06627 21.12434 5.02904
#
# Velocity S-wave (km/s) = -2.26256 3.12602 1.52525
# Velocity P-wave (km/s) = 0.89991 5.65809 4.05116
#
# Compressibility (1/GPa) = 0.06058526
#
# Stress axis : x y z
#
# Youngs Moduli (GPa) = 12.93469 77.47368 79.90435
#
# Poissons Ratio (x) = 1.37441 0.01181
# Poissons Ratio (y) = 0.22947 0.25459
# Poissons Ratio (z) = 0.00191 0.24684
#
# Static dielectric constant tensor:
#      x y z
#    x 1.751150 0.000000 0.000000 
#    y 0.000000 1.746070 0.000000 
#    z 0.000000 0.000000 1.829050 
# 
# From -- ./inp_files/6685.got.cif
#   From: 2010.05.17/outbox.cif.g08.bks.cpg/sg64_4_cif.got.tgz:6685.got - 2010.06.03 16:29:19.
