data_PCOD9482833
_publ_section_title
;
Structure prediction by ZEFSAII (Michael W. Deem and Ramdas Pophale) SiO2 
 PCOD9482833
Probable space group: C M M M
;
_chemical_formula_sum "Si O2"
_cell_formula_units_Z 60
_cell_length_a 12.440177
_cell_length_b 14.375618
_cell_length_c 15.177012
_cell_angle_alpha 90.000000
_cell_angle_beta 90.000000
_cell_angle_gamma 90.000000
_cell_volume 2714.184468
_symmetry_space_group_name_H-M "C M M M"
_symmetry_group_IT_number 65
_symmetry_cell_setting 'orthorhombic'
loop_
_space_group_symop_operation_xyz
x,y,z
-x,-y,z
x,-y,-z
-x,y,-z
-x,-y,-z
x,y,-z
-x,y,z
x,-y,z
1/2+x,1/2+y,z
1/2-x,1/2-y,z
1/2+x,1/2-y,-z
1/2-x,1/2+y,-z
1/2-x,1/2-y,-z
1/2+x,1/2+y,-z
1/2-x,1/2+y,z
1/2+x,1/2-y,z
loop_
_atom_site_type_symbol
_atom_site_label
_atom_site_fract_x
_atom_site_fract_y
_atom_site_fract_z
Si Si1 0.620709 0.109475 0.320197
Si Si2 0.500000 0.366666 0.500000
Si Si3 0.000000 0.888046 0.309232
Si Si4 0.706252 0.386836 0.188447
Si Si5 0.250604 0.360989 0.500000
Si Si6 0.874361 0.113840 0.000000
O O1 0.500000 0.146115 0.327214
O O2 0.689775 0.150340 0.239763
O O3 0.686406 0.114116 0.411457
O O4 0.611809 0.000000 0.301653
O O5 0.500000 0.331519 0.399940
O O6 0.372827 0.399646 0.500000
O O7 0.104249 0.869908 0.251145
O O8 0.000000 0.000000 0.333428
O O9 0.714313 0.500000 0.183126
O O10 0.682664 0.354536 0.089694
O O11 0.250000 0.250000 0.500000
O O12 0.000000 0.141090 0.000000
O O13 0.873914 0.000000 0.000000
#
# Coordination Sequence:
#
# PCOD9482833 Si02
#       6
#    16   4   8  16   8   8
#     4  10  21  38  57  75 105 151 192 220 258 320
#     4  12  23  34  50  76 103 134 174 218 278 318
#     4  10  17  27  46  73 107 135 166 215 264 313
#     4   9  16  27  45  73 104 137 175 215 263 318
#     4  12  26  38  54  79 110 138 177 227 273 325
#     4   9  14  22  41  71 108 141 167 211 277 331
#
# _framework density 22.106086999999999
#
# number of rings (size 3 to 8) (size 9 to 14) (size 15 to 20)
#    0.000    2.000    4.000    1.000    1.867    2.133 
#    0.000    0.667    0.000    4.000    0.000    0.933 
#    0.000    0.000    0.000    0.000    0.000    0.000 
#
# Total GULP energy -167394.914589 kJ/mol
# GULP energy per Si atom -5579.830486 kJ/mol
# Density = 2.205577 g / cm^3
# Si number density = 22.106087 Si / 1000 Ang^3
#
#
#
# Elastic Constant Matrix: (Units=GPa)
#
#
# Indices 1 2 3 4 5 6 
#
# 1 222.9342 17.8365 118.4561 0.0000 0.0000 0.0000
# 2 17.8365 71.1567 9.4955 0.0000 0.0000 0.0000
# 3 118.4561 9.4955 239.6845 0.0000 0.0000 0.0000
# 4 0.0000 0.0000 0.0000 -27.8431 0.0000 0.0000
# 5 0.0000 0.0000 0.0000 0.0000 50.7769 0.0000
# 6 0.0000 0.0000 0.0000 0.0000 0.0000 -2.9159
#
#
#
# Elastic Compliance Matrix: (Units=1/GPa)
#
#
# Indices 1 2 3 4 5 6 
#
# 1 0.006175 -0.001147 -0.003006 0.000000 0.000000 0.000000
# 2 -0.001147 0.014341 -0.000001 0.000000 0.000000 0.000000
# 3 -0.003006 -0.000001 0.005658 0.000000 0.000000 0.000000
# 4 0.000000 0.000000 0.000000 -0.035916 0.000000 0.000000
# 5 0.000000 0.000000 0.000000 0.000000 0.019694 0.000000
# 6 0.000000 0.000000 0.000000 0.000000 0.000000 -0.342952
#
#
# Mechanical properties :
#
#
# Convention : Reuss Voigt Hill
#
# Bulk Modulus (GPa) = 55.97498 91.70574 73.84036
# Shear Modulus (GPa) = -15.68698 29.86941 7.09122
#
# Velocity S-wave (km/s) = -2.66676 3.67983 1.79298
# Velocity P-wave (km/s) = 3.98671 7.72200 6.14505
#
# Compressibility (1/GPa) = 0.01786513
#
# Stress axis : x y z
#
# Youngs Moduli (GPa) = 161.95055 69.72968 176.74288
#
# Poissons Ratio (x) = 0.07995 0.53133
# Poissons Ratio (y) = 0.18570 0.00026
# Poissons Ratio (z) = 0.48686 0.00010
#
# Static dielectric constant tensor:
#      x y z
#    x 1.809830 0.000000 0.000000 
#    y 0.000000 1.919090 0.000000 
#    z 0.000000 0.000000 1.770400 
# 
# From -- ./inp_files/37985.got.cif
#   From: 2010.05.17/outbox.cif.g08.bks.cpg/sg65_19_cif.got.tgz:37985.got - 2010.06.03 17:01:31.
