data_PCOD9482885
_publ_section_title
;
Structure prediction by ZEFSAII (Michael W. Deem and Ramdas Pophale) SiO2 
 PCOD9482885
Probable space group: C M M M
;
_chemical_formula_sum "Si O2"
_cell_formula_units_Z 104
_cell_length_a 13.732817
_cell_length_b 24.854916
_cell_length_c 19.993218
_cell_angle_alpha 90.000000
_cell_angle_beta 90.000000
_cell_angle_gamma 90.000000
_cell_volume 6824.245373
_symmetry_space_group_name_H-M "C M M M"
_symmetry_group_IT_number 65
_symmetry_cell_setting 'orthorhombic'
loop_
_space_group_symop_operation_xyz
x,y,z
-x,-y,z
x,-y,-z
-x,y,-z
-x,-y,-z
x,y,-z
-x,y,z
x,-y,z
1/2+x,1/2+y,z
1/2-x,1/2-y,z
1/2+x,1/2-y,-z
1/2-x,1/2+y,-z
1/2-x,1/2-y,-z
1/2+x,1/2+y,-z
1/2-x,1/2+y,z
1/2+x,1/2-y,z
loop_
_atom_site_type_symbol
_atom_site_label
_atom_site_fract_x
_atom_site_fract_y
_atom_site_fract_z
Si Si1 0.225380 0.436142 0.317128
Si Si2 0.382223 0.000000 0.075666
Si Si3 0.114484 0.731777 0.325963
Si Si4 0.883267 0.592981 0.822001
Si Si5 0.614981 0.350249 0.286812
Si Si6 0.117072 0.636488 0.423006
Si Si7 0.269338 0.193765 0.806452
O O1 0.239119 0.500000 0.324403
O O2 0.165038 0.424609 0.248581
O O3 0.325141 0.401690 0.312167
O O4 0.165619 0.409452 0.377815
O O5 0.355827 0.051317 0.120189
O O6 0.500000 0.000000 0.071964
O O7 0.344453 0.000000 0.000000
O O8 0.128833 0.796010 0.331867
O O9 0.139403 0.694212 0.388622
O O10 0.173736 0.709885 0.262327
O O11 0.000000 0.723961 0.311722
O O12 0.838100 0.650493 0.840188
O O13 0.000000 0.594535 0.814396
O O14 0.500000 0.359610 0.280209
O O15 0.668399 0.333095 0.217676
O O16 0.148330 0.634597 0.500000
O O17 0.000000 0.630157 0.420788
O O18 0.250000 0.250000 0.842467
#
# Coordination Sequence:
#
# PCOD9482885 Si02
#       7
#    16   8  16  16  16  16  16
#     4  11  21  32  47  66  91 124 166 197 225 278
#     4   9  18  30  46  74 106 130 154 185 228 282
#     4   9  15  28  48  68  92 116 144 188 242 292
#     4  10  17  28  49  73  97 127 156 188 232 281
#     4   9  18  30  46  66  91 121 154 200 242 268
#     4  10  20  32  48  71  96 118 144 190 249 299
#     4   9  16  26  45  71  98 120 154 190 234 279
#
# _framework density 15.23978
#
# number of rings (size 3 to 8) (size 9 to 14) (size 15 to 20)
#    0.000    2.385    3.846    0.923    0.000    2.154 
#    0.000    2.308    0.000    1.846    0.000    1.077 
#    0.000   19.692    0.000    0.000    0.000    0.000 
#
# Total GULP energy -289520.066964 kJ/mol
# GULP energy per Si atom -5567.693595 kJ/mol
# Density = 1.520509 g / cm^3
# Si number density = 15.239780 Si / 1000 Ang^3
#
#
#
# Elastic Constant Matrix: (Units=GPa)
#
#
# Indices 1 2 3 4 5 6 
#
# 1 86.5083 50.1698 28.6638 0.0000 0.0000 0.0000
# 2 50.1698 141.5079 43.7568 0.0000 0.0000 0.0000
# 3 28.6638 43.7568 69.3698 0.0000 0.0000 0.0000
# 4 0.0000 0.0000 0.0000 10.2333 0.0000 0.0000
# 5 0.0000 0.0000 0.0000 0.0000 5.9796 0.0000
# 6 0.0000 0.0000 0.0000 0.0000 0.0000 23.8639
#
#
#
# Elastic Compliance Matrix: (Units=1/GPa)
#
#
# Indices 1 2 3 4 5 6 
#
# 1 0.015238 -0.004293 -0.003589 0.000000 0.000000 0.000000
# 2 -0.004293 0.009988 -0.004527 0.000000 0.000000 0.000000
# 3 -0.003589 -0.004527 0.018754 0.000000 0.000000 0.000000
# 4 0.000000 0.000000 0.000000 0.097720 0.000000 0.000000
# 5 0.000000 0.000000 0.000000 0.000000 0.167236 0.000000
# 6 0.000000 0.000000 0.000000 0.000000 0.000000 0.041904
#
#
# Mechanical properties :
#
#
# Convention : Reuss Voigt Hill
#
# Bulk Modulus (GPa) = 52.18111 60.28520 56.23316
# Shear Modulus (GPa) = 13.08744 19.66839 16.37791
#
# Velocity S-wave (km/s) = 2.93365 3.59638 3.28179
# Velocity P-wave (km/s) = 6.76679 7.54248 7.16514
#
# Compressibility (1/GPa) = 0.01916402
#
# Stress axis : x y z
#
# Youngs Moduli (GPa) = 65.62430 100.11567 53.32293
#
# Poissons Ratio (x) = 0.42978 0.19136
# Poissons Ratio (y) = 0.28172 0.24137
# Poissons Ratio (z) = 0.23550 0.45319
#
# Static dielectric constant tensor:
#      x y z
#    x 1.516640 0.000000 0.000000 
#    y 0.000000 1.549260 0.000000 
#    z 0.000000 0.000000 1.484010 
# 
# From -- ./inp_files/53499.got.cif
#   From: 2010.05.17/outbox.cif.g08.bks.cpg/sg65_27_cif.got.tgz:53499.got - 2010.06.03 17:01:31.
