data_PCOD9482654
_publ_section_title
;
Structure prediction by ZEFSAII (Michael W. Deem and Ramdas Pophale) SiO2 
 PCOD9482654
Probable space group: C M M M
;
_chemical_formula_sum "Si O2"
_cell_formula_units_Z 72
_cell_length_a 28.467876
_cell_length_b 20.115587
_cell_length_c 7.858820
_cell_angle_alpha 90.000000
_cell_angle_beta 90.000000
_cell_angle_gamma 90.000000
_cell_volume 4500.337841
_symmetry_space_group_name_H-M "C M M M"
_symmetry_group_IT_number 65
_symmetry_cell_setting 'orthorhombic'
loop_
_space_group_symop_operation_xyz
x,y,z
-x,-y,z
x,-y,-z
-x,y,-z
-x,-y,-z
x,y,-z
-x,y,z
x,-y,z
1/2+x,1/2+y,z
1/2-x,1/2-y,z
1/2+x,1/2-y,-z
1/2-x,1/2+y,-z
1/2-x,1/2-y,-z
1/2+x,1/2+y,-z
1/2-x,1/2+y,z
1/2+x,1/2-y,z
loop_
_atom_site_type_symbol
_atom_site_label
_atom_site_fract_x
_atom_site_fract_y
_atom_site_fract_z
Si Si1 0.836882 0.500000 0.308547
Si Si2 0.234229 0.000000 0.805563
Si Si3 0.601482 0.124772 0.202900
Si Si4 0.500000 0.923434 0.702837
Si Si5 0.771387 0.853875 0.208420
Si Si6 0.822810 0.276159 0.206956
O O1 0.818562 0.500000 0.500000
O O2 0.791093 0.500000 0.191958
O O3 0.869432 0.436439 0.279215
O O4 0.220555 0.928679 0.728685
O O5 0.216647 0.000000 0.000000
O O6 0.547152 0.114461 0.244210
O O7 0.628034 0.191737 0.261201
O O8 0.606709 0.120645 0.000000
O O9 0.500000 0.928043 0.500000
O O10 0.500000 0.000000 0.770326
O O11 0.808579 0.797770 0.263114
O O12 0.719989 0.825419 0.257163
O O13 0.771222 0.856116 0.000000
O O14 0.822336 0.274252 0.000000
#
# Coordination Sequence:
#
# PCOD9482654 Si02
#       6
#     8   8  16   8  16  16
#     4  12  22  29  39  60  90 118 142 181 224 247
#     4  10  16  26  45  65  84 115 155 178 202 253
#     4  11  20  32  49  63  79 112 154 183 206 252
#     4  11  23  35  45  63  90 113 134 177 227 252
#     4   8  13  22  39  65  89 109 137 178 213 242
#     4   8  14  24  40  63  88 108 137 180 216 239
#
# _framework density 15.998799
#
# number of rings (size 3 to 8) (size 9 to 14) (size 15 to 20)
#    0.000    2.333    3.333    3.333    0.000    0.444 
#    0.000    0.000    0.000    4.000    0.000    0.000 
#    0.000    0.889    0.000   11.333    0.000    1.111 
#
# Total GULP energy -200653.028417 kJ/mol
# GULP energy per Si atom -5573.695234 kJ/mol
# Density = 1.596239 g / cm^3
# Si number density = 15.998799 Si / 1000 Ang^3
#
#
#
# Elastic Constant Matrix: (Units=GPa)
#
#
# Indices 1 2 3 4 5 6 
#
# 1 90.0353 64.6958 0.7888 0.0000 0.0000 0.0000
# 2 64.6958 158.0250 4.6754 0.0000 0.0000 0.0000
# 3 0.7888 4.6754 30.7369 0.0000 0.0000 0.0000
# 4 0.0000 0.0000 0.0000 48.2434 0.0000 0.0000
# 5 0.0000 0.0000 0.0000 0.0000 -8.6478 0.0000
# 6 0.0000 0.0000 0.0000 0.0000 0.0000 31.4805
#
#
#
# Elastic Compliance Matrix: (Units=1/GPa)
#
#
# Indices 1 2 3 4 5 6 
#
# 1 0.015746 -0.006464 0.000579 0.000000 0.000000 0.000000
# 2 -0.006464 0.009010 -0.001205 0.000000 0.000000 0.000000
# 3 0.000579 -0.001205 0.032703 0.000000 0.000000 0.000000
# 4 0.000000 0.000000 0.000000 0.020728 0.000000 0.000000
# 5 0.000000 0.000000 0.000000 0.000000 -0.115637 0.000000
# 6 0.000000 0.000000 0.000000 0.000000 0.000000 0.031766
#
#
# Mechanical properties :
#
#
# Convention : Reuss Voigt Hill
#
# Bulk Modulus (GPa) = 23.10517 46.56858 34.83688
# Shear Modulus (GPa) = 218.13814 28.12438 123.13126
#
# Velocity S-wave (km/s) = 11.68942 4.19729 8.78236
# Velocity P-wave (km/s) = 14.02367 7.25675 11.16521
#
# Compressibility (1/GPa) = 0.04328035
#
# Stress axis : x y z
#
# Youngs Moduli (GPa) = 63.50731 110.98791 30.57863
#
# Poissons Ratio (x) = 0.71739 -0.01771
# Poissons Ratio (y) = 0.41049 0.03684
# Poissons Ratio (z) = -0.03678 0.13370
#
# Static dielectric constant tensor:
#      x y z
#    x 1.556280 0.000000 0.000000 
#    y 0.000000 1.570600 0.000000 
#    z 0.000000 0.000000 1.578740 
# 
# From -- ./inp_files/12059.got.cif
#   From: 2010.05.17/outbox.cif.g08.bks.cpg/sg65_7_cif.got.tgz:12059.got - 2010.06.03 17:01:31.
