data_PCOD9482192
_publ_section_title
;
Structure prediction by ZEFSAII (Michael W. Deem and Ramdas Pophale) SiO2 
 PCOD9482192
Probable space group: C M C A
;
_chemical_formula_sum "Si O2"
_cell_formula_units_Z 64
_cell_length_a 22.725153
_cell_length_b 10.361509
_cell_length_c 10.793300
_cell_angle_alpha 90.000000
_cell_angle_beta 90.000000
_cell_angle_gamma 90.000000
_cell_volume 2541.464647
_symmetry_space_group_name_H-M "C M C A"
_symmetry_group_IT_number 64
_symmetry_cell_setting 'orthorhombic'
loop_
_space_group_symop_operation_xyz
x,y,z
-x,1/2-y,1/2+z
x,-y,-z
-x,1/2+y,1/2-z
-x,-y,-z
x,1/2+y,1/2-z
-x,y,z
x,1/2-y,1/2+z
1/2+x,1/2+y,z
1/2-x,-y,1/2+z
1/2+x,1/2-y,-z
1/2-x,y,1/2-z
1/2-x,1/2-y,-z
1/2+x,y,1/2-z
1/2-x,1/2+y,z
1/2+x,-y,1/2+z
loop_
_atom_site_type_symbol
_atom_site_label
_atom_site_fract_x
_atom_site_fract_y
_atom_site_fract_z
Si Si1 0.568546 0.116220 0.676270
Si Si2 0.932006 0.400217 0.860238
Si Si3 0.649946 0.254987 0.003331
Si Si4 0.256081 0.400016 0.884687
O O1 0.500000 0.086687 0.644554
O O2 0.569233 0.266161 0.719216
O O3 0.613034 0.128281 0.562635
O O4 0.590540 0.014074 0.774933
O O5 0.897822 0.359569 0.984994
O O6 0.000000 0.424890 0.887670
O O7 0.701533 0.196437 0.090368
O O8 0.685736 0.310687 0.889184
O O9 0.250000 0.462862 0.750000
O O10 0.256938 0.500000 0.000000
#
# Coordination Sequence:
#
# PCOD9482192 Si02
#       4
#    16  16  16  16
#     4   8  15  31  65 108 148 191 237 295 380 469
#     4   8  15  31  65 108 148 191 237 295 378 470
#     4   9  21  42  67 102 142 193 245 314 377 457
#     4  11  26  44  68 103 142 201 266 321 382 446
#
# _framework density 25.182327999999998
#
# number of rings (size 3 to 8) (size 9 to 14) (size 15 to 20)
#    1.500    1.500    0.000    0.000    3.500    4.000 
#    0.000    0.000    0.000   12.000    0.000    0.000 
#    0.000    0.000    0.000    0.000    0.000    0.000 
#
# Total GULP energy -178431.237065 kJ/mol
# GULP energy per Si atom -5575.976158 kJ/mol
# Density = 2.512501 g / cm^3
# Si number density = 25.182328 Si / 1000 Ang^3
#
#
#
# Elastic Constant Matrix: (Units=GPa)
#
#
# Indices 1 2 3 4 5 6 
#
# 1 95.5443 -16.5998 12.6016 0.0000 0.0000 0.0000
# 2 -16.5998 98.9904 32.6889 0.0000 0.0000 0.0000
# 3 12.6016 32.6889 83.4014 0.0000 0.0000 0.0000
# 4 0.0000 0.0000 0.0000 36.4272 0.0000 0.0000
# 5 0.0000 0.0000 0.0000 0.0000 26.7447 0.0000
# 6 0.0000 0.0000 0.0000 0.0000 0.0000 -17.3332
#
#
#
# Elastic Compliance Matrix: (Units=1/GPa)
#
#
# Indices 1 2 3 4 5 6 
#
# 1 0.011331 0.002832 -0.002822 0.000000 0.000000 0.000000
# 2 0.002832 0.012312 -0.005253 0.000000 0.000000 0.000000
# 3 -0.002822 -0.005253 0.014476 0.000000 0.000000 0.000000
# 4 0.000000 0.000000 0.000000 0.027452 0.000000 0.000000
# 5 0.000000 0.000000 0.000000 0.000000 0.037391 0.000000
# 6 0.000000 0.000000 0.000000 0.000000 0.000000 -0.057693
#
#
# Mechanical properties :
#
#
# Convention : Reuss Voigt Hill
#
# Bulk Modulus (GPa) = 36.19127 37.25749 36.72438
# Shear Modulus (GPa) = 76.96442 25.78410 51.37426
#
# Velocity S-wave (km/s) = 5.53437 3.20331 4.52164
# Velocity P-wave (km/s) = 7.43249 5.33936 6.47111
#
# Compressibility (1/GPa) = 0.02763097
#
# Stress axis : x y z
#
# Youngs Moduli (GPa) = 88.25687 81.22374 69.08149
#
# Poissons Ratio (x) = -0.23002 0.19495
# Poissons Ratio (y) = -0.24994 0.36291
# Poissons Ratio (z) = 0.24906 0.42670
#
# Static dielectric constant tensor:
#      x y z
#    x 1.973710 0.000000 0.000000 
#    y 0.000000 2.052010 0.000000 
#    z 0.000000 0.000000 2.041260 
# 
# From -- ./inp_files/17884.got.cif
#   From: 2010.05.17/outbox.cif.g08.bks.cpg/sg64_9_cif.got.tgz:17884.got - 2010.06.03 16:29:19.
