data_PCOD9482902
_publ_section_title
;
Structure prediction by ZEFSAII (Michael W. Deem and Ramdas Pophale) SiO2 
 PCOD9482902
Probable space group: C M M M
;
_chemical_formula_sum "Si O2"
_cell_formula_units_Z 128
_cell_length_a 23.641796
_cell_length_b 18.670960
_cell_length_c 19.444266
_cell_angle_alpha 90.000000
_cell_angle_beta 90.000000
_cell_angle_gamma 90.000000
_cell_volume 8582.991210
_symmetry_space_group_name_H-M "C M M M"
_symmetry_group_IT_number 65
_symmetry_cell_setting 'orthorhombic'
loop_
_space_group_symop_operation_xyz
x,y,z
-x,-y,z
x,-y,-z
-x,y,-z
-x,-y,-z
x,y,-z
-x,y,z
x,-y,z
1/2+x,1/2+y,z
1/2-x,1/2-y,z
1/2+x,1/2-y,-z
1/2-x,1/2+y,-z
1/2-x,1/2-y,-z
1/2+x,1/2+y,-z
1/2-x,1/2+y,z
1/2+x,1/2-y,z
loop_
_atom_site_type_symbol
_atom_site_label
_atom_site_fract_x
_atom_site_fract_y
_atom_site_fract_z
Si Si1 0.067583 0.081826 0.076299
Si Si2 0.244269 0.584505 0.833328
Si Si3 0.160028 0.788842 0.323522
Si Si4 0.140313 0.825561 0.830822
Si Si5 0.308717 0.795326 0.921010
Si Si6 0.724839 0.862807 0.679923
Si Si7 0.065763 0.725222 0.417677
Si Si8 0.131280 0.580280 0.581346
O O1 0.088973 0.133592 0.134716
O O2 0.000000 0.081181 0.074451
O O3 0.086680 0.000000 0.087771
O O4 0.088376 0.104083 0.000000
O O5 0.245903 0.500000 0.846614
O O6 0.305468 0.622253 0.840569
O O7 0.204365 0.628958 0.885120
O O8 0.226287 0.599965 0.754390
O O9 0.135377 0.810845 0.249771
O O10 0.210625 0.844206 0.341841
O O11 0.192441 0.713179 0.313172
O O12 0.110330 0.775882 0.378189
O O13 0.151606 0.752461 0.872408
O O14 0.250000 0.750000 0.921918
O O15 0.327854 0.801964 0.000000
O O16 0.688014 0.906085 0.624973
O O17 0.070027 0.735887 0.500000
O O18 0.086939 0.643790 0.403079
O O19 0.000000 0.734749 0.397936
O O20 0.143949 0.585580 0.500000
O O21 0.109683 0.500000 0.595085
#
# Coordination Sequence:
#
# PCOD9482902 Si02
#       8
#    16  16  16  16  16  16  16  16
#     4   9  18  31  45  63  88 115 143 181 231 278
#     4  10  18  27  42  63  88 118 145 174 218 265
#     4   9  17  28  46  64  87 116 153 185 225 265
#     4  10  17  29  45  64  85 115 149 185 218 264
#     4   9  17  28  41  59  85 115 146 179 214 257
#     4   9  16  29  43  63  89 119 145 183 223 271
#     4   9  18  31  45  64  91 120 151 188 229 272
#     4   9  17  28  44  66  90 117 147 180 222 273
#
# _framework density 14.913216
#
# number of rings (size 3 to 8) (size 9 to 14) (size 15 to 20)
#    0.000    2.750    1.250    1.500    0.000    2.000 
#    0.000    3.750    0.000    0.000    0.000    0.000 
#    0.000    0.500    0.000   52.125    0.000    0.750 
#
# Total GULP energy -356287.341946 kJ/mol
# GULP energy per Si atom -5566.989718 kJ/mol
# Density = 1.487927 g / cm^3
# Si number density = 14.913216 Si / 1000 Ang^3
#
#
#
# Elastic Constant Matrix: (Units=GPa)
#
#
# Indices 1 2 3 4 5 6 
#
# 1 63.4832 21.8894 42.7290 0.0000 0.0000 0.0000
# 2 21.8894 65.7440 28.4540 0.0000 0.0000 0.0000
# 3 42.7290 28.4540 58.0895 0.0000 0.0000 0.0000
# 4 0.0000 0.0000 0.0000 18.9166 0.0000 0.0000
# 5 0.0000 0.0000 0.0000 0.0000 20.0755 0.0000
# 6 0.0000 0.0000 0.0000 0.0000 0.0000 15.4432
#
#
#
# Elastic Compliance Matrix: (Units=1/GPa)
#
#
# Indices 1 2 3 4 5 6 
#
# 1 0.031216 -0.000578 -0.022678 0.000000 0.000000 0.000000
# 2 -0.000578 0.019313 -0.009035 0.000000 0.000000 0.000000
# 3 -0.022678 -0.009035 0.038322 0.000000 0.000000 0.000000
# 4 0.000000 0.000000 0.000000 0.052863 0.000000 0.000000
# 5 0.000000 0.000000 0.000000 0.000000 0.049812 0.000000
# 6 0.000000 0.000000 0.000000 0.000000 0.000000 0.064753
#
#
# Mechanical properties :
#
#
# Convention : Reuss Voigt Hill
#
# Bulk Modulus (GPa) = 41.20608 41.49571 41.35090
# Shear Modulus (GPa) = 15.19979 17.17004 16.18491
#
# Velocity S-wave (km/s) = 3.19598 3.39681 3.29792
# Velocity P-wave (km/s) = 6.42726 6.57796 6.50305
#
# Compressibility (1/GPa) = 0.02426826
#
# Stress axis : x y z
#
# Youngs Moduli (GPa) = 32.03517 51.77761 26.09469
#
# Poissons Ratio (x) = 0.02993 0.59178
# Poissons Ratio (y) = 0.01852 0.23577
# Poissons Ratio (z) = 0.72650 0.46782
#
# Static dielectric constant tensor:
#      x y z
#    x 1.485450 0.000000 0.000000 
#    y 0.000000 1.493510 0.000000 
#    z 0.000000 0.000000 1.489840 
# 
# From -- ./inp_files/57009.got.cif
#   From: 2010.05.17/outbox.cif.g08.bks.cpg/sg65_29_cif.got.tgz:57009.got - 2010.06.03 17:01:31.
