data_PCOD9482962
_publ_section_title
;
Structure prediction by ZEFSAII (Michael W. Deem and Ramdas Pophale) SiO2 
 PCOD9482962
Probable space group: C M M M
;
_chemical_formula_sum "Si O2"
_cell_formula_units_Z 64
_cell_length_a 7.706382
_cell_length_b 25.049125
_cell_length_c 15.391262
_cell_angle_alpha 90.000000
_cell_angle_beta 90.000000
_cell_angle_gamma 90.000000
_cell_volume 2971.100373
_symmetry_space_group_name_H-M "C M M M"
_symmetry_group_IT_number 65
_symmetry_cell_setting 'orthorhombic'
loop_
_space_group_symop_operation_xyz
x,y,z
-x,-y,z
x,-y,-z
-x,y,-z
-x,-y,-z
x,y,-z
-x,y,z
x,-y,z
1/2+x,1/2+y,z
1/2-x,1/2-y,z
1/2+x,1/2-y,-z
1/2-x,1/2+y,-z
1/2-x,1/2-y,-z
1/2+x,1/2+y,-z
1/2-x,1/2+y,z
1/2+x,1/2-y,z
loop_
_atom_site_type_symbol
_atom_site_label
_atom_site_fract_x
_atom_site_fract_y
_atom_site_fract_z
Si Si1 0.702030 0.884300 0.904385
Si Si2 0.787895 0.000000 0.294704
Si Si3 0.711352 0.606748 0.401000
Si Si4 0.245302 0.500000 0.898603
Si Si5 0.293503 0.312104 0.257676
O O1 0.500000 0.902567 0.901096
O O2 0.729499 0.842961 0.827749
O O3 0.812104 0.938658 0.897086
O O4 0.732514 0.860422 0.000000
O O5 0.745360 0.947506 0.350068
O O6 0.689680 0.000000 0.203070
O O7 0.000000 0.000000 0.278202
O O8 0.774053 0.607167 0.500000
O O9 0.500000 0.608270 0.404448
O O10 0.771836 0.656445 0.342729
O O11 0.178185 0.500000 0.000000
O O12 0.500000 0.317354 0.257005
O O13 0.250000 0.250000 0.257560
#
# Coordination Sequence:
#
# PCOD9482962 Si02
#       5
#    16   8  16   8  16
#     4  10  21  38  60  86 117 154 191 228 279 342
#     4  10  17  30  53  86 120 151 184 228 285 342
#     4   9  18  33  55  83 114 149 189 233 284 343
#     4  10  19  32  55  88 119 150 186 226 279 344
#     4  11  23  39  59  84 113 149 195 242 290 336
#
# _framework density 21.540841
#
# number of rings (size 3 to 8) (size 9 to 14) (size 15 to 20)
#    0.000    2.000    2.500    1.500    0.000    4.750 
#    0.000    2.500    0.000    2.250    0.000    1.750 
#    0.000    0.000    0.000    0.000    0.000    0.000 
#
# Total GULP energy -178219.168586 kJ/mol
# GULP energy per Si atom -5569.349018 kJ/mol
# Density = 2.149181 g / cm^3
# Si number density = 21.540841 Si / 1000 Ang^3
#
#
#
# Elastic Constant Matrix: (Units=GPa)
#
#
# Indices 1 2 3 4 5 6 
#
# 1 69.7447 16.9860 25.1948 0.0000 0.0000 0.0000
# 2 16.9860 189.4923 122.6509 0.0000 0.0000 0.0000
# 3 25.1948 122.6509 266.0572 0.0000 0.0000 0.0000
# 4 0.0000 0.0000 0.0000 21.3373 0.0000 0.0000
# 5 0.0000 0.0000 0.0000 0.0000 6.3314 0.0000
# 6 0.0000 0.0000 0.0000 0.0000 0.0000-3802.5554
#
#
#
# Elastic Compliance Matrix: (Units=1/GPa)
#
#
# Indices 1 2 3 4 5 6 
#
# 1 0.014894 -0.000602 -0.001133 0.000000 0.000000 0.000000
# 2 -0.000602 0.007546 -0.003422 0.000000 0.000000 0.000000
# 3 -0.001133 -0.003422 0.005443 0.000000 0.000000 0.000000
# 4 0.000000 0.000000 0.000000 0.046866 0.000000 0.000000
# 5 0.000000 0.000000 0.000000 0.000000 0.157944 0.000000
# 6 0.000000 0.000000 0.000000 0.000000 0.000000 -0.000263
#
#
# Mechanical properties :
#
#
# Convention : Reuss Voigt Hill
#
# Bulk Modulus (GPa) = 56.91439 94.99526 75.95482
# Shear Modulus (GPa) = 20.11267 -730.94651 -355.41692
#
# Velocity S-wave (km/s) = 3.05896 -18.44091 -12.85904
# Velocity P-wave (km/s) = 6.24142 20.22936 13.60647
#
# Compressibility (1/GPa) = 0.01757025
#
# Stress axis : x y z
#
# Youngs Moduli (GPa) = 67.14179 132.52254 183.71424
#
# Poissons Ratio (x) = 0.07974 0.20815
# Poissons Ratio (y) = 0.04040 0.62860
# Poissons Ratio (z) = 0.07607 0.45344
#
# Static dielectric constant tensor:
#      x y z
#    x 1.946830 0.000000 0.000000 
#    y 0.000000 1.858340 0.000000 
#    z 0.000000 0.000000 1.755550 
# 
# From -- ./inp_files/36002.got.cif
#   From: 2010.05.17/outbox.cif.g08.bks.cpg/sg65_19_cif.got.tgz:36002.got - 2010.06.03 17:01:31.
