data_PCOD9482766
_publ_section_title
;
Structure prediction by ZEFSAII (Michael W. Deem and Ramdas Pophale) SiO2 
 PCOD9482766
Probable space group: C M M M
;
_chemical_formula_sum "Si O2"
_cell_formula_units_Z 104
_cell_length_a 8.787552
_cell_length_b 32.034115
_cell_length_c 22.931130
_cell_angle_alpha 90.000000
_cell_angle_beta 90.000000
_cell_angle_gamma 90.000000
_cell_volume 6455.146376
_symmetry_space_group_name_H-M "C M M M"
_symmetry_group_IT_number 65
_symmetry_cell_setting 'orthorhombic'
loop_
_space_group_symop_operation_xyz
x,y,z
-x,-y,z
x,-y,-z
-x,y,-z
-x,-y,-z
x,y,-z
-x,y,z
x,-y,z
1/2+x,1/2+y,z
1/2-x,1/2-y,z
1/2+x,1/2-y,-z
1/2-x,1/2+y,-z
1/2-x,1/2-y,-z
1/2+x,1/2+y,-z
1/2-x,1/2+y,z
1/2+x,1/2-y,z
loop_
_atom_site_type_symbol
_atom_site_label
_atom_site_fract_x
_atom_site_fract_y
_atom_site_fract_z
Si Si1 0.816682 0.047559 0.933331
Si Si2 0.817490 0.291606 0.154770
Si Si3 0.682298 0.115987 0.151556
Si Si4 0.181946 0.207314 0.714025
Si Si5 0.674217 0.449379 0.500000
Si Si6 0.815913 0.620063 0.712295
Si Si7 0.316745 0.951917 0.377110
O O1 0.754684 0.080664 0.887851
O O2 0.000000 0.048340 0.932261
O O3 0.768441 0.000000 0.919683
O O4 0.768657 0.056870 0.000000
O O5 0.750000 0.250000 0.125751
O O6 0.780704 0.337119 0.129241
O O7 0.745522 0.293035 0.219544
O O8 0.000000 0.287993 0.159833
O O9 0.500000 0.111777 0.150017
O O10 0.727894 0.113250 0.219831
O O11 0.250000 0.250000 0.687249
O O12 0.242044 0.163198 0.689931
O O13 0.000000 0.209045 0.714016
O O14 0.676165 0.500000 0.500000
O O15 0.500000 0.435316 0.500000
O O16 0.755798 0.437418 0.439979
O O17 0.771541 0.580539 0.673032
O O18 0.000000 0.624674 0.710910
O O19 0.500000 0.952522 0.379194
O O20 0.265946 0.000000 0.366540
#
# Coordination Sequence:
#
# PCOD9482766 Si02
#       7
#    16  16  16  16   8  16  16
#     4   9  19  35  51  66  86 115 153 193 229 269
#     4   9  16  27  43  65  92 119 148 181 219 266
#     4   9  18  30  46  70  96 119 146 185 230 272
#     4  10  17  26  42  63  89 121 155 188 224 267
#     4   9  17  29  45  65  90 119 154 197 233 261
#     4   9  18  31  45  67  98 124 150 187 229 272
#     4   9  17  30  48  67  90 124 160 189 222 269
#
# _framework density 16.111176
#
# number of rings (size 3 to 8) (size 9 to 14) (size 15 to 20)
#    0.000    2.846    0.000    4.385    0.000    5.846 
#    0.000    2.308    0.000    2.308    0.000    0.538 
#    0.000    0.000    0.000    0.000    0.000    0.000 
#
# Total GULP energy -289487.765210 kJ/mol
# GULP energy per Si atom -5567.072408 kJ/mol
# Density = 1.607451 g / cm^3
# Si number density = 16.111176 Si / 1000 Ang^3
#
#
#
# Elastic Constant Matrix: (Units=GPa)
#
#
# Indices 1 2 3 4 5 6 
#
# 1 41.5991 46.1927 24.6236 0.0000 0.0000 0.0000
# 2 46.1927 153.4529 76.7062 0.0000 0.0000 0.0000
# 3 24.6236 76.7062 67.9916 0.0000 0.0000 0.0000
# 4 0.0000 0.0000 0.0000 -2.3630 0.0000 0.0000
# 5 0.0000 0.0000 0.0000 0.0000 16.1545 0.0000
# 6 0.0000 0.0000 0.0000 0.0000 0.0000 37.8714
#
#
#
# Elastic Compliance Matrix: (Units=1/GPa)
#
#
# Indices 1 2 3 4 5 6 
#
# 1 0.036213 -0.009965 -0.001873 0.000000 0.000000 0.000000
# 2 -0.009965 0.017686 -0.016344 0.000000 0.000000 0.000000
# 3 -0.001873 -0.016344 0.033825 0.000000 0.000000 0.000000
# 4 0.000000 0.000000 0.000000 -0.423185 0.000000 0.000000
# 5 0.000000 0.000000 0.000000 0.000000 0.061902 0.000000
# 6 0.000000 0.000000 0.000000 0.000000 0.000000 0.026405
#
#
# Mechanical properties :
#
#
# Convention : Reuss Voigt Hill
#
# Bulk Modulus (GPa) = 31.88735 62.00985 46.94860
# Shear Modulus (GPa) = -27.72595 18.03398 -4.84598
#
# Velocity S-wave (km/s) = -4.15289 3.34929 -1.73619
# Velocity P-wave (km/s) = 1.77772 7.31637 5.01842
#
# Compressibility (1/GPa) = 0.03136040
#
# Stress axis : x y z
#
# Youngs Moduli (GPa) = 27.61477 56.54099 29.56373
#
# Poissons Ratio (x) = 0.56341 0.05537
# Poissons Ratio (y) = 0.27517 0.48320
# Poissons Ratio (z) = 0.05172 0.92413
#
# Static dielectric constant tensor:
#      x y z
#    x 1.541960 0.000000 0.000000 
#    y 0.000000 1.582790 0.000000 
#    z 0.000000 0.000000 1.515310 
# 
# From -- ./inp_files/68481.got.cif
#   From: 2010.05.17/outbox.cif.g08.bks.cpg/sg65_35_cif.got.tgz:68481.got - 2010.06.03 17:01:31.
