data_PCOD9482067
_publ_section_title
;
Structure prediction by ZEFSAII (Michael W. Deem and Ramdas Pophale) SiO2 
 PCOD9482067
Probable space group: C M C A
;
_chemical_formula_sum "Si O2"
_cell_formula_units_Z 64
_cell_length_a 22.230581
_cell_length_b 10.625443
_cell_length_c 12.116970
_cell_angle_alpha 90.000000
_cell_angle_beta 90.000000
_cell_angle_gamma 90.000000
_cell_volume 2862.146712
_symmetry_space_group_name_H-M "C M C A"
_symmetry_group_IT_number 64
_symmetry_cell_setting 'orthorhombic'
loop_
_space_group_symop_operation_xyz
x,y,z
-x,1/2-y,1/2+z
x,-y,-z
-x,1/2+y,1/2-z
-x,-y,-z
x,1/2+y,1/2-z
-x,y,z
x,1/2-y,1/2+z
1/2+x,1/2+y,z
1/2-x,-y,1/2+z
1/2+x,1/2-y,-z
1/2-x,y,1/2-z
1/2-x,1/2-y,-z
1/2+x,y,1/2-z
1/2-x,1/2+y,z
1/2+x,-y,1/2+z
loop_
_atom_site_type_symbol
_atom_site_label
_atom_site_fract_x
_atom_site_fract_y
_atom_site_fract_z
Si Si1 0.657328 0.329056 0.512409
Si Si2 0.224009 0.406619 0.397404
Si Si3 0.865782 0.520802 0.229421
Si Si4 0.428863 0.231610 0.829151
O O1 0.708533 0.350964 0.417074
O O2 0.682994 0.214524 0.583937
O O3 0.647300 0.563014 0.396715
O O4 0.596313 0.290227 0.452575
O O5 0.217345 0.500000 0.500000
O O6 0.194432 0.481779 0.295675
O O7 0.908132 0.397738 0.230614
O O8 0.896648 0.642969 0.283709
O O9 0.500000 0.245789 0.823922
#
# Coordination Sequence:
#
# PCOD9482067 Si02
#       4
#    16  16  16  16
#     4  11  26  47  74 109 149 196 241 312 379 441
#     4  11  23  47  73 108 148 187 246 303 379 449
#     4  12  25  50  75 110 148 198 252 309 380 440
#     4  12  27  48  75 108 152 203 256 305 364 450
#
# _framework density 22.360838000000001
#
# number of rings (size 3 to 8) (size 9 to 14) (size 15 to 20)
#    0.000    0.500    5.000    3.000    0.000    7.000 
#    0.000    1.250    0.000    0.000    0.000    0.000 
#    0.000    0.000    0.000    0.000    0.000    0.000 
#
# Total GULP energy -178803.493065 kJ/mol
# GULP energy per Si atom -5587.609158 kJ/mol
# Density = 2.230994 g / cm^3
# Si number density = 22.360838 Si / 1000 Ang^3
#
#
#
# Elastic Constant Matrix: (Units=GPa)
#
#
# Indices 1 2 3 4 5 6 
#
# 1 153.7816 67.2759 53.5108 0.0000 0.0000 0.0000
# 2 67.2759 158.8008 23.7474 0.0000 0.0000 0.0000
# 3 53.5108 23.7474 115.0372 0.0000 0.0000 0.0000
# 4 0.0000 0.0000 0.0000 46.2605 0.0000 0.0000
# 5 0.0000 0.0000 0.0000 0.0000 -79.4516 0.0000
# 6 0.0000 0.0000 0.0000 0.0000 0.0000 18.0494
#
#
#
# Elastic Compliance Matrix: (Units=1/GPa)
#
#
# Indices 1 2 3 4 5 6 
#
# 1 0.009230 -0.003372 -0.003597 0.000000 0.000000 0.000000
# 2 -0.003372 0.007730 -0.000027 0.000000 0.000000 0.000000
# 3 -0.003597 -0.000027 0.010372 0.000000 0.000000 0.000000
# 4 0.000000 0.000000 0.000000 0.021617 0.000000 0.000000
# 5 0.000000 0.000000 0.000000 0.000000 -0.012586 0.000000
# 6 0.000000 0.000000 0.000000 0.000000 0.000000 0.055404
#
#
# Mechanical properties :
#
#
# Convention : Reuss Voigt Hill
#
# Bulk Modulus (GPa) = 74.97175 79.63198 77.30187
# Shear Modulus (GPa) = 45.37030 15.84403 30.60717
#
# Velocity S-wave (km/s) = 4.50934 2.66477 3.70372
# Velocity P-wave (km/s) = 7.79186 6.71994 7.27567
#
# Compressibility (1/GPa) = 0.01333836
#
# Stress axis : x y z
#
# Youngs Moduli (GPa) = 108.34595 129.36790 96.41634
#
# Poissons Ratio (x) = 0.43626 0.34682
# Poissons Ratio (y) = 0.36537 0.00261
# Poissons Ratio (z) = 0.38974 0.00350
#
# Static dielectric constant tensor:
#      x y z
#    x 1.790330 0.000000 0.000000 
#    y 0.000000 2.072390 0.000000 
#    z 0.000000 0.000000 1.874440 
# 
# From -- ./inp_files/25987.got.cif
#   From: 2010.05.17/outbox.cif.g08.bks.cpg/sg64_13_cif.got.tgz:25987.got - 2010.06.03 16:29:19.
