data_PCOD9482460
_publ_section_title
;
Structure prediction by ZEFSAII (Michael W. Deem and Ramdas Pophale) SiO2 
 PCOD9482460
Probable space group: C M C A
;
_chemical_formula_sum "Si O2"
_cell_formula_units_Z 56
_cell_length_a 15.000000
_cell_length_b 24.000000
_cell_length_c 15.000000
_cell_angle_alpha 90.000000
_cell_angle_beta 90.000000
_cell_angle_gamma 90.000000
_cell_volume 5400.000000
_symmetry_space_group_name_H-M "C M C A"
_symmetry_group_IT_number 64
_symmetry_cell_setting 'orthorhombic'
loop_
_space_group_symop_operation_xyz
x,y,z
-x,1/2-y,1/2+z
x,-y,-z
-x,1/2+y,1/2-z
-x,-y,-z
x,1/2+y,1/2-z
-x,y,z
x,1/2-y,1/2+z
1/2+x,1/2+y,z
1/2-x,-y,1/2+z
1/2+x,1/2-y,-z
1/2-x,y,1/2-z
1/2-x,1/2-y,-z
1/2+x,y,1/2-z
1/2-x,1/2+y,z
1/2+x,-y,1/2+z
loop_
_atom_site_type_symbol
_atom_site_label
_atom_site_fract_x
_atom_site_fract_y
_atom_site_fract_z
Si Si1 0.899899 0.120424 0.135940
Si Si2 0.708122 0.841689 0.091737
Si Si3 0.652934 0.743232 0.202638
Si Si4 0.600268 0.962176 0.802431
Si Si5 0.737876 0.562321 0.457483
Si Si6 0.399354 0.909914 0.230705
Si Si7 0.095812 0.683018 0.632409
O O1 0.876060 0.182976 0.167790
O O2 0.897754 0.082341 0.224108
O O3 0.831082 0.090148 0.070512
O O4 0.000000 0.120076 0.099381
O O5 0.654449 0.785557 0.118026
O O6 0.679174 0.879808 0.176411
O O7 0.809198 0.817831 0.083408
O O8 0.693052 0.887479 0.015109
O O9 0.750000 0.738452 0.250000
O O10 0.600136 0.774020 0.283298
O O11 0.500000 0.961736 0.842448
O O12 0.675229 0.947686 0.872958
O O13 0.615489 0.024418 0.765267
O O14 0.747523 0.500000 0.500000
O O15 0.500000 0.901162 0.190383
O O16 0.403293 0.878736 0.324534
O O17 0.000000 0.692326 0.586710
#
# Coordination Sequence:
#
# PCOD9482460 Si02
#       7
#    16  16  16  16  16  16  16
#     4  11  25  43  63  88 121 164 210 249 294 363
#     4  10  21  35  57  90 123 157 195 245 309 366
#     4   9  18  38  65  89 116 154 206 261 302 349
#     4  10  22  40  63  87 114 155 208 259 300 349
#     4  12  25  39  60  90 130 166 198 248 307 370
#     4   9  17  32  55  83 113 149 198 249 296 343
#     4   9  18  32  57  87 117 155 199 247 295 353
#
# _framework density 10.370369999999999
#
# number of rings (size 3 to 8) (size 9 to 14) (size 15 to 20)
#    0.000    2.000    1.429    3.000    2.000    4.000 
#    0.000    0.000    0.000    3.429    0.000    0.000 
#    0.000    0.000    0.000    0.000    0.000    0.000 
#
# Total GULP energy -312001.130182 kJ/mol
# GULP energy per Si atom -5571.448753 kJ/mol
# Density = 1.034677 g / cm^3
# Si number density = 10.370370 Si / 1000 Ang^3
#
#
#
# Elastic Constant Matrix: (Units=GPa)
#
#
# Indices 1 2 3 4 5 6 
#
# 1 55.7507 10.8667 -1.2020 0.0000 0.0000 0.0000
# 2 10.8667 101.9216 -5.3282 0.0000 0.0000 0.0000
# 3 -1.2020 -5.3282 19.8621 0.0000 0.0000 0.0000
# 4 0.0000 0.0000 0.0000 17.7020 0.0000 0.0000
# 5 0.0000 0.0000 0.0000 0.0000 -23.1967 0.0000
# 6 0.0000 0.0000 0.0000 0.0000 0.0000 14.9701
#
#
#
# Elastic Compliance Matrix: (Units=1/GPa)
#
#
# Indices 1 2 3 4 5 6 
#
# 1 0.018325 -0.001923 0.000593 0.000000 0.000000 0.000000
# 2 -0.001923 0.010153 0.002607 0.000000 0.000000 0.000000
# 3 0.000593 0.002607 0.051083 0.000000 0.000000 0.000000
# 4 0.000000 0.000000 0.000000 0.056491 0.000000 0.000000
# 5 0.000000 0.000000 0.000000 0.000000 -0.043110 0.000000
# 6 0.000000 0.000000 0.000000 0.000000 0.000000 0.066800
#
#
# Mechanical properties :
#
#
# Convention : Reuss Voigt Hill
#
# Bulk Modulus (GPa) = 12.17801 20.68969 16.43385
# Shear Modulus (GPa) = 27.09189 13.44161 20.26675
#
# Velocity S-wave (km/s) = 3.61808 2.54850 3.12933
# Velocity P-wave (km/s) = 4.83097 4.31936 4.58231
#
# Compressibility (1/GPa) = 0.08211522
#
# Stress axis : x y z
#
# Youngs Moduli (GPa) = 54.57159 98.49536 19.57616
#
# Poissons Ratio (x) = 0.18938 -0.01161
# Poissons Ratio (y) = 0.10493 -0.05104
# Poissons Ratio (z) = -0.03237 -0.25680
#
# Static dielectric constant tensor:
#      x y z
#    x 1.818190 0.000000 0.000000 
#    y 0.000000 1.711020 0.000000 
#    z 0.000000 0.000000 1.763740 
# 
# From -- ./inp_files/24282.got.cif
#   From: 2010.05.17/outbox.ucp.g08.bks.cvg/sg64_13_cif.got.tgz:24282.got - 2010.06.11 16:36:46.
