data_PCOD9482738
_publ_section_title
;
Structure prediction by ZEFSAII (Michael W. Deem and Ramdas Pophale) SiO2 
 PCOD9482738
Probable space group: C M M M
;
_chemical_formula_sum "Si O2"
_cell_formula_units_Z 68
_cell_length_a 21.198518
_cell_length_b 21.198588
_cell_length_c 8.669586
_cell_angle_alpha 90.000000
_cell_angle_beta 90.000000
_cell_angle_gamma 90.000000
_cell_volume 3895.926847
_symmetry_space_group_name_H-M "C M M M"
_symmetry_group_IT_number 65
_symmetry_cell_setting 'orthorhombic'
loop_
_space_group_symop_operation_xyz
x,y,z
-x,-y,z
x,-y,-z
-x,y,-z
-x,-y,-z
x,y,-z
-x,y,z
x,-y,z
1/2+x,1/2+y,z
1/2-x,1/2-y,z
1/2+x,1/2-y,-z
1/2-x,1/2+y,-z
1/2-x,1/2-y,-z
1/2+x,1/2+y,-z
1/2-x,1/2+y,z
1/2+x,1/2-y,z
loop_
_atom_site_type_symbol
_atom_site_label
_atom_site_fract_x
_atom_site_fract_y
_atom_site_fract_z
Si Si1 0.500000 0.500000 0.294547
Si Si2 0.198174 0.698174 0.684102
Si Si3 0.071099 0.753943 0.184361
Si Si4 0.598561 0.401440 0.182393
Si Si5 0.753941 0.071099 0.184361
O O1 0.554573 0.445428 0.282904
O O2 0.199885 0.699886 0.500000
O O3 0.250000 0.750000 0.741854
O O4 0.128732 0.716982 0.740408
O O5 0.216982 0.628732 0.740407
O O6 0.083744 0.828335 0.209373
O O7 0.000000 0.738425 0.238031
O O8 0.073262 0.743847 0.000000
O O9 0.671666 0.416258 0.209372
O O10 0.584520 0.415481 0.000000
O O11 0.738422 0.000000 0.238030
O O12 0.743845 0.073262 0.000000
#
# Coordination Sequence:
#
# PCOD9482738 Si02
#       5
#     4  16  16  16  16
#     4  12  17  24  44  80 125 154 177 212 265 338
#     4  11  23  37  55  80 111 154 197 233 276 330
#     4  10  20  34  55  83 111 144 186 235 286 327
#     4  10  17  25  44  77 114 147 177 216 265 321
#     4  10  20  34  55  83 111 144 186 235 286 327
#
# _framework density 17.454125999999999
#
# number of rings (size 3 to 8) (size 9 to 14) (size 15 to 20)
#    0.000    1.647    4.706    1.765    0.000    1.882 
#    0.000    0.000    0.000    0.706    0.000    6.588 
#    0.000    0.000    0.000    0.000    0.000    0.000 
#
# Total GULP energy -189318.673663 kJ/mol
# GULP energy per Si atom -5568.196284 kJ/mol
# Density = 1.741440 g / cm^3
# Si number density = 17.454126 Si / 1000 Ang^3
#
#
#
# Elastic Constant Matrix: (Units=GPa)
#
#
# Indices 1 2 3 4 5 6 
#
# 1 131.6526 89.9687 41.7815 0.0000 0.0000 0.0000
# 2 89.9687 131.6612 41.7835 0.0000 0.0000 0.0000
# 3 41.7815 41.7835 23.8544 0.0000 0.0000 0.0000
# 4 0.0000 0.0000 0.0000 10.0350 0.0000 0.0000
# 5 0.0000 0.0000 0.0000 0.0000 10.0345 0.0000
# 6 0.0000 0.0000 0.0000 0.0000 0.0000 93.1281
#
#
#
# Elastic Compliance Matrix: (Units=1/GPa)
#
#
# Indices 1 2 3 4 5 6 
#
# 1 0.018638 -0.005350 -0.023274 0.000000 0.000000 0.000000
# 2 -0.005350 0.018638 -0.023275 0.000000 0.000000 0.000000
# 3 -0.023274 -0.023275 0.123456 0.000000 0.000000 0.000000
# 4 0.000000 0.000000 0.000000 0.099652 0.000000 0.000000
# 5 0.000000 0.000000 0.000000 0.000000 0.099656 0.000000
# 6 0.000000 0.000000 0.000000 0.000000 0.000000 0.010738
#
#
# Mechanical properties :
#
#
# Convention : Reuss Voigt Hill
#
# Bulk Modulus (GPa) = 17.56463 70.47063 44.01763
# Shear Modulus (GPa) = 10.13062 30.21514 20.17288
#
# Velocity S-wave (km/s) = 2.41179 4.16518 3.40334
# Velocity P-wave (km/s) = 4.22384 7.97459 6.38102
#
# Compressibility (1/GPa) = 0.05693259
#
# Stress axis : x y z
#
# Youngs Moduli (GPa) = 53.65358 53.65520 8.10006
#
# Poissons Ratio (x) = 0.28704 0.18852
# Poissons Ratio (y) = 0.28704 0.18853
# Poissons Ratio (z) = 1.24875 1.24884
#
# Static dielectric constant tensor:
#      x y z
#    x 1.575860 0.000000 0.000000 
#    y 0.000000 1.575860 0.000000 
#    z 0.000000 0.000000 1.624920 
# 
# From -- ./inp_files/8946.got.cif
#   From: 2010.05.17/outbox.cif.g08.bks.cpg/sg65_5_cif.got.tgz:8946.got - 2010.06.03 17:01:31.
