data_PCOD9482986
_publ_section_title
;
Structure prediction by ZEFSAII (Michael W. Deem and Ramdas Pophale) SiO2 
 PCOD9482986
Probable space group: C M M M
;
_chemical_formula_sum "Si O2"
_cell_formula_units_Z 104
_cell_length_a 16.237865
_cell_length_b 16.253930
_cell_length_c 19.783582
_cell_angle_alpha 90.000000
_cell_angle_beta 90.000000
_cell_angle_gamma 90.000000
_cell_volume 5221.463409
_symmetry_space_group_name_H-M "C M M M"
_symmetry_group_IT_number 65
_symmetry_cell_setting 'orthorhombic'
loop_
_space_group_symop_operation_xyz
x,y,z
-x,-y,z
x,-y,-z
-x,y,-z
-x,-y,-z
x,y,-z
-x,y,z
x,-y,z
1/2+x,1/2+y,z
1/2-x,1/2-y,z
1/2+x,1/2-y,-z
1/2-x,1/2+y,-z
1/2-x,1/2-y,-z
1/2+x,1/2+y,-z
1/2-x,1/2+y,z
1/2+x,1/2-y,z
loop_
_atom_site_type_symbol
_atom_site_label
_atom_site_fract_x
_atom_site_fract_y
_atom_site_fract_z
Si Si1 0.849175 0.246838 0.710071
Si Si2 0.094292 0.371955 0.074338
Si Si3 0.599756 0.820373 0.577482
Si Si4 0.834205 0.800367 0.922678
Si Si5 0.405389 0.000000 0.582495
Si Si6 0.348891 0.407650 0.207240
Si Si7 0.154014 0.412342 0.780617
O O1 0.750000 0.250000 0.718319
O O2 0.870408 0.254975 0.631626
O O3 0.883099 0.164625 0.744874
O O4 0.881067 0.329881 0.746959
O O5 0.099555 0.272897 0.079713
O O6 0.139045 0.407244 0.139132
O O7 0.000000 0.398360 0.076395
O O8 0.129031 0.393245 0.000000
O O9 0.624757 0.804957 0.500000
O O10 0.500000 0.824053 0.578218
O O11 0.631874 0.911358 0.599941
O O12 0.750000 0.750000 0.905345
O O13 0.850767 0.870448 0.868422
O O14 0.827240 0.829636 0.000000
O O15 0.500000 0.000000 0.606155
O O16 0.408333 0.000000 0.500000
O O17 0.383442 0.500000 0.211688
O O18 0.252392 0.413127 0.227521
O O19 0.120330 0.500000 0.754965
#
# Coordination Sequence:
#
# PCOD9482986 Si02
#       7
#    16  16  16  16   8  16  16
#     4  10  20  35  52  77 109 139 173 217 260 303
#     4  10  20  33  50  73 106 142 172 213 266 312
#     4   9  18  33  55  81 109 140 171 207 257 319
#     4  10  17  31  54  76 100 133 178 223 261 309
#     4   7  12  26  48  78 112 138 162 194 238 305
#     4  10  19  34  54  75 101 134 176 225 268 301
#     4  10  20  33  51  75 105 140 174 206 254 318
#
# _framework density 19.917787000000001
#
# number of rings (size 3 to 8) (size 9 to 14) (size 15 to 20)
#    0.000    2.385    3.077    1.385    1.077    1.846 
#    0.000    2.308    0.000    2.308    0.000    3.231 
#    0.000    0.000    0.000    0.000    0.000    0.000 
#
# Total GULP energy -289924.813791 kJ/mol
# GULP energy per Si atom -5575.477188 kJ/mol
# Density = 1.987245 g / cm^3
# Si number density = 19.917787 Si / 1000 Ang^3
#
#
#
# Elastic Constant Matrix: (Units=GPa)
#
#
# Indices 1 2 3 4 5 6 
#
# 1 14.6578 6.2137 -1.9967 0.0000 0.0000 0.0000
# 2 6.2137 163.7793 79.0086 0.0000 0.0000 0.0000
# 3 -1.9967 79.0086 112.4619 0.0000 0.0000 0.0000
# 4 0.0000 0.0000 0.0000 11.8844 0.0000 0.0000
# 5 0.0000 0.0000 0.0000 0.0000 85.1748 0.0000
# 6 0.0000 0.0000 0.0000 0.0000 0.0000 -3.1733
#
#
#
# Elastic Compliance Matrix: (Units=1/GPa)
#
#
# Indices 1 2 3 4 5 6 
#
# 1 0.070990 -0.004994 0.004769 0.000000 0.000000 0.000000
# 2 -0.004994 0.009587 -0.006824 0.000000 0.000000 0.000000
# 3 0.004769 -0.006824 0.013771 0.000000 0.000000 0.000000
# 4 0.000000 0.000000 0.000000 0.084144 0.000000 0.000000
# 5 0.000000 0.000000 0.000000 0.000000 0.011741 0.000000
# 6 0.000000 0.000000 0.000000 0.000000 0.000000 -0.315125
#
#
# Mechanical properties :
#
#
# Convention : Reuss Voigt Hill
#
# Bulk Modulus (GPa) = 12.46113 50.81668 31.63891
# Shear Modulus (GPa) = -59.49201 32.62205 -13.43498
#
# Velocity S-wave (km/s) = -5.47116 4.05141 -2.59997
# Velocity P-wave (km/s) = 5.80014 6.88867 2.62794
#
# Compressibility (1/GPa) = 0.08024951
#
# Stress axis : x y z
#
# Youngs Moduli (GPa) = 14.08653 104.30560 72.61794
#
# Poissons Ratio (x) = 0.52088 -0.34629
# Poissons Ratio (y) = 0.07034 0.49555
# Poissons Ratio (z) = -0.06717 0.71178
#
# Static dielectric constant tensor:
#      x y z
#    x 1.708760 0.000000 0.000000 
#    y 0.000000 1.770330 0.000000 
#    z 0.000000 0.000000 1.720910 
# 
# From -- ./inp_files/63825.got.cif
#   From: 2010.05.17/outbox.cif.g08.bks.cpg/sg65_32_cif.got.tgz:63825.got - 2010.06.03 17:01:31.
