data_PCOD9482575
_publ_section_title
;
Structure prediction by ZEFSAII (Michael W. Deem and Ramdas Pophale) SiO2 
 PCOD9482575
Probable space group: C M M M
;
_chemical_formula_sum "Si O2"
_cell_formula_units_Z 64
_cell_length_a 8.641234
_cell_length_b 18.440575
_cell_length_c 21.764472
_cell_angle_alpha 90.000000
_cell_angle_beta 90.000000
_cell_angle_gamma 90.000000
_cell_volume 3468.153893
_symmetry_space_group_name_H-M "C M M M"
_symmetry_group_IT_number 65
_symmetry_cell_setting 'orthorhombic'
loop_
_space_group_symop_operation_xyz
x,y,z
-x,-y,z
x,-y,-z
-x,y,-z
-x,-y,-z
x,y,-z
-x,y,z
x,-y,z
1/2+x,1/2+y,z
1/2-x,1/2-y,z
1/2+x,1/2-y,-z
1/2-x,1/2+y,-z
1/2-x,1/2-y,-z
1/2+x,1/2+y,-z
1/2-x,1/2+y,z
1/2+x,1/2-y,z
loop_
_atom_site_type_symbol
_atom_site_label
_atom_site_fract_x
_atom_site_fract_y
_atom_site_fract_z
Si Si1 0.185642 0.167642 0.374381
Si Si2 0.315691 0.831061 0.000000
Si Si3 0.684139 0.832747 0.500000
Si Si4 0.313466 0.331602 0.239286
Si Si5 0.812627 0.915783 0.117418
O O1 0.250000 0.250000 0.372334
O O2 0.255604 0.133518 0.436189
O O3 0.228162 0.137683 0.306963
O O4 0.000000 0.169314 0.380219
O O5 0.250000 0.750000 0.000000
O O6 0.256357 0.872586 0.939700
O O7 0.500000 0.828643 0.000000
O O8 0.500000 0.829562 0.500000
O O9 0.750000 0.750000 0.500000
O O10 0.500000 0.327337 0.238132
O O11 0.250000 0.250000 0.233134
O O12 0.263221 0.379796 0.181808
O O13 0.000000 0.911660 0.114061
O O14 0.768588 0.000000 0.114740
#
# Coordination Sequence:
#
# PCOD9482575 Si02
#       5
#    16   8   8  16  16
#     4   9  15  24  38  59  89 122 158 200 247 296
#     4  12  25  40  59  83 109 137 173 212 253 302
#     4  10  16  22  34  56  87 122 159 197 245 299
#     4   9  18  31  49  73  99 131 169 209 253 302
#     4  10  21  38  58  80 108 140 172 209 256 306
#
# _framework density 18.453620999999998
#
# number of rings (size 3 to 8) (size 9 to 14) (size 15 to 20)
#    0.000    2.250    0.000    5.625    0.000    6.000 
#    0.000    0.000    0.000    0.000    0.000    0.875 
#    0.000    7.000    0.000    0.000    0.000    0.000 
#
# Total GULP energy -178437.678175 kJ/mol
# GULP energy per Si atom -5576.177443 kJ/mol
# Density = 1.841162 g / cm^3
# Si number density = 18.453621 Si / 1000 Ang^3
#
#
#
# Elastic Constant Matrix: (Units=GPa)
#
#
# Indices 1 2 3 4 5 6 
#
# 1 61.2358 29.1993 61.2403 0.0000 0.0000 0.0000
# 2 29.1993 85.5057 83.6636 0.0000 0.0000 0.0000
# 3 61.2403 83.6636 240.9993 0.0000 0.0000 0.0000
# 4 0.0000 0.0000 0.0000 -8.0391 0.0000 0.0000
# 5 0.0000 0.0000 0.0000 0.0000 21.0230 0.0000
# 6 0.0000 0.0000 0.0000 0.0000 0.0000 14.6093
#
#
#
# Elastic Compliance Matrix: (Units=1/GPa)
#
#
# Indices 1 2 3 4 5 6 
#
# 1 0.022443 -0.003156 -0.004607 0.000000 0.000000 0.000000
# 2 -0.003156 0.018155 -0.005501 0.000000 0.000000 0.000000
# 3 -0.004607 -0.005501 0.007230 0.000000 0.000000 0.000000
# 4 0.000000 0.000000 0.000000 -0.124393 0.000000 0.000000
# 5 0.000000 0.000000 0.000000 0.000000 0.047567 0.000000
# 6 0.000000 0.000000 0.000000 0.000000 0.000000 0.068450
#
#
# Mechanical properties :
#
#
# Convention : Reuss Voigt Hill
#
# Bulk Modulus (GPa) = 46.94881 81.77191 64.36036
# Shear Modulus (GPa) = 68.41910 19.76116 44.09013
#
# Velocity S-wave (km/s) = 6.09563 3.27594 4.89329
# Velocity P-wave (km/s) = 8.66251 7.66273 8.17791
#
# Compressibility (1/GPa) = 0.02129980
#
# Stress axis : x y z
#
# Youngs Moduli (GPa) = 44.55764 55.08150 138.31799
#
# Poissons Ratio (x) = 0.17383 0.63728
# Poissons Ratio (y) = 0.14062 0.76083
# Poissons Ratio (z) = 0.20529 0.30298
#
# Static dielectric constant tensor:
#      x y z
#    x 1.621270 0.000000 0.000000 
#    y 0.000000 1.591100 0.000000 
#    z 0.000000 0.000000 1.698100 
# 
# From -- ./inp_files/59138.got.cif
#   From: 2010.05.17/outbox.cif.g08.bks.cpg/sg65_30_cif.got.tgz:59138.got - 2010.06.03 17:01:31.
