data_PCOD9482079
_publ_section_title
;
Structure prediction by ZEFSAII (Michael W. Deem and Ramdas Pophale) SiO2 
 PCOD9482079
Probable space group: C M C A
;
_chemical_formula_sum "Si O2"
_cell_formula_units_Z 80
_cell_length_a 22.641934
_cell_length_b 15.134869
_cell_length_c 10.932805
_cell_angle_alpha 90.000000
_cell_angle_beta 90.000000
_cell_angle_gamma 90.000000
_cell_volume 3746.483191
_symmetry_space_group_name_H-M "C M C A"
_symmetry_group_IT_number 64
_symmetry_cell_setting 'orthorhombic'
loop_
_space_group_symop_operation_xyz
x,y,z
-x,1/2-y,1/2+z
x,-y,-z
-x,1/2+y,1/2-z
-x,-y,-z
x,1/2+y,1/2-z
-x,y,z
x,1/2-y,1/2+z
1/2+x,1/2+y,z
1/2-x,-y,1/2+z
1/2+x,1/2-y,-z
1/2-x,y,1/2-z
1/2-x,1/2-y,-z
1/2+x,y,1/2-z
1/2-x,1/2+y,z
1/2+x,-y,1/2+z
loop_
_atom_site_type_symbol
_atom_site_label
_atom_site_fract_x
_atom_site_fract_y
_atom_site_fract_z
Si Si1 0.221050 0.402128 0.555102
Si Si2 0.567698 0.432714 0.312833
Si Si3 0.434954 0.367278 0.582534
Si Si4 0.825586 0.825678 0.719630
Si Si5 0.688906 0.366402 0.206185
O O1 0.228942 0.500000 0.500000
O O2 0.175050 0.392775 0.666563
O O3 0.279993 0.364493 0.619161
O O4 0.198111 0.349581 0.437634
O O5 0.500000 0.418354 0.264338
O O6 0.569377 0.533910 0.360580
O O7 0.573856 0.376077 0.437684
O O8 0.626239 0.411989 0.234237
O O9 0.500000 0.332449 0.605546
O O10 0.386580 0.312636 0.651911
O O11 0.810249 0.729095 0.771012
O O12 0.750000 0.413956 0.250000
#
# Coordination Sequence:
#
# PCOD9482079 Si02
#       5
#    16  16  16  16  16
#     4  11  25  40  60  91 123 162 208 252 317 377
#     4   9  20  38  64  93 120 162 211 253 307 372
#     4   9  19  38  63  89 119 160 212 255 297 368
#     4  11  24  40  60  92 125 158 206 258 315 376
#     4  12  24  39  63  89 130 160 199 258 315 369
#
# _framework density 21.353359000000001
#
# number of rings (size 3 to 8) (size 9 to 14) (size 15 to 20)
#    0.000    1.600    2.000    4.200   11.200    0.800 
#    0.000    1.000    0.000    3.600    0.000    0.000 
#    0.000    0.000    0.000    0.000    0.000    0.000 
#
# Total GULP energy -223102.547937 kJ/mol
# GULP energy per Si atom -5577.563698 kJ/mol
# Density = 2.130476 g / cm^3
# Si number density = 21.353359 Si / 1000 Ang^3
#
#
#
# Elastic Constant Matrix: (Units=GPa)
#
#
# Indices 1 2 3 4 5 6 
#
# 1 128.6953 3.7062 57.2407 0.0000 0.0000 0.0000
# 2 3.7062 53.5594 4.7703 0.0000 0.0000 0.0000
# 3 57.2407 4.7703 106.4905 0.0000 0.0000 0.0000
# 4 0.0000 0.0000 0.0000 23.9571 0.0000 0.0000
# 5 0.0000 0.0000 0.0000 0.0000 33.3462 0.0000
# 6 0.0000 0.0000 0.0000 0.0000 0.0000 19.9250
#
#
#
# Elastic Compliance Matrix: (Units=1/GPa)
#
#
# Indices 1 2 3 4 5 6 
#
# 1 0.010214 -0.000219 -0.005481 0.000000 0.000000 0.000000
# 2 -0.000219 0.018750 -0.000722 0.000000 0.000000 0.000000
# 3 -0.005481 -0.000722 0.012369 0.000000 0.000000 0.000000
# 4 0.000000 0.000000 0.000000 0.041741 0.000000 0.000000
# 5 0.000000 0.000000 0.000000 0.000000 0.029988 0.000000
# 6 0.000000 0.000000 0.000000 0.000000 0.000000 0.050188
#
#
# Mechanical properties :
#
#
# Convention : Reuss Voigt Hill
#
# Bulk Modulus (GPa) = 35.09989 46.68661 40.89325
# Shear Modulus (GPa) = 26.94094 30.31420 28.62757
#
# Velocity S-wave (km/s) = 3.55586 3.77191 3.66547
# Velocity P-wave (km/s) = 5.77340 6.39382 6.09152
#
# Compressibility (1/GPa) = 0.02849012
#
# Stress axis : x y z
#
# Youngs Moduli (GPa) = 97.90285 53.33235 80.84882
#
# Poissons Ratio (x) = 0.01166 0.44310
# Poissons Ratio (y) = 0.02141 0.05840
# Poissons Ratio (z) = 0.53656 0.03853
#
# Static dielectric constant tensor:
#      x y z
#    x 1.820710 0.000000 0.000000 
#    y 0.000000 1.797980 0.000000 
#    z 0.000000 0.000000 1.771820 
# 
# From -- ./inp_files/18052.got.cif
#   From: 2010.05.17/outbox.cif.g08.bks.cpg/sg64_10_cif.got.tgz:18052.got - 2010.06.03 16:29:19.
