data_PCOD9482868
_publ_section_title
;
Structure prediction by ZEFSAII (Michael W. Deem and Ramdas Pophale) SiO2 
 PCOD9482868
Probable space group: C M M M
;
_chemical_formula_sum "Si O2"
_cell_formula_units_Z 116
_cell_length_a 30.144749
_cell_length_b 25.328553
_cell_length_c 7.382596
_cell_angle_alpha 90.000000
_cell_angle_beta 90.000000
_cell_angle_gamma 90.000000
_cell_volume 5636.780906
_symmetry_space_group_name_H-M "C M M M"
_symmetry_group_IT_number 65
_symmetry_cell_setting 'orthorhombic'
loop_
_space_group_symop_operation_xyz
x,y,z
-x,-y,z
x,-y,-z
-x,y,-z
-x,-y,-z
x,y,-z
-x,y,z
x,-y,z
1/2+x,1/2+y,z
1/2-x,1/2-y,z
1/2+x,1/2-y,-z
1/2-x,1/2+y,-z
1/2-x,1/2-y,-z
1/2+x,1/2+y,-z
1/2-x,1/2+y,z
1/2+x,1/2-y,z
loop_
_atom_site_type_symbol
_atom_site_label
_atom_site_fract_x
_atom_site_fract_y
_atom_site_fract_z
Si Si1 0.500000 0.912160 0.000000
Si Si2 0.831206 0.364997 0.219046
Si Si3 0.373673 0.329924 0.785845
Si Si4 0.150085 0.058934 0.220718
Si Si5 0.198950 0.250085 0.221407
Si Si6 0.430849 0.125612 0.709872
Si Si7 0.450115 0.246088 0.716941
Si Si8 0.752496 0.559666 0.779955
O O1 0.461257 0.908324 0.158648
O O2 0.824512 0.304454 0.276862
O O3 0.878677 0.386378 0.279221
O O4 0.789087 0.398909 0.281628
O O5 0.831142 0.365462 0.000000
O O6 0.377170 0.389835 0.717286
O O7 0.330543 0.298868 0.714623
O O8 0.415440 0.291457 0.764599
O O9 0.366271 0.335074 0.000000
O O10 0.201506 0.069033 0.272870
O O11 0.137395 0.000000 0.283129
O O12 0.148683 0.056672 0.000000
O O13 0.250000 0.250000 0.278937
O O14 0.199268 0.249067 0.000000
O O15 0.444879 0.122599 0.500000
O O16 0.436449 0.186963 0.774647
O O17 0.451161 0.244390 0.500000
O O18 0.500000 0.256595 0.783230
O O19 0.764327 0.500000 0.726488
O O20 0.752452 0.561546 0.000000
#
# Coordination Sequence:
#
# PCOD9482868 Si02
#       8
#     4  16  16  16  16  16  16  16
#     4  12  22  36  60  78 107 142 183 224 256 332
#     4  10  17  28  47  73 106 141 176 217 265 317
#     4  10  18  27  47  73  97 129 171 213 262 315
#     4   8  14  26  44  71 104 135 173 223 265 305
#     4   9  16  24  39  67 101 134 171 211 255 317
#     4  11  22  35  53  79 110 143 175 220 272 320
#     4  10  21  35  49  68  99 134 168 211 266 321
#     4   8  14  25  45  73 105 140 181 220 255 305
#
# _framework density 20.57912
#
# number of rings (size 3 to 8) (size 9 to 14) (size 15 to 20)
#    0.000    2.483    2.759    1.862    0.966    3.586 
#    0.000    0.000    0.000    5.379    0.000    5.793 
#    0.000    1.103    0.000    0.000    0.000    0.000 
#
# Total GULP energy -323229.229856 kJ/mol
# GULP energy per Si atom -5572.917756 kJ/mol
# Density = 2.053228 g / cm^3
# Si number density = 20.579120 Si / 1000 Ang^3
#
#
#
# Elastic Constant Matrix: (Units=GPa)
#
#
# Indices 1 2 3 4 5 6 
#
# 1 42.6484 -15.5807 -8.0358 0.0000 0.0000 0.0000
# 2 -15.5807 37.6585 -3.5307 0.0000 0.0000 0.0000
# 3 -8.0358 -3.5307 87.7954 0.0000 0.0000 0.0000
# 4 0.0000 0.0000 0.0000 -10.3472 0.0000 0.0000
# 5 0.0000 0.0000 0.0000 0.0000 -8.3630 0.0000
# 6 0.0000 0.0000 0.0000 0.0000 0.0000 4.0910
#
#
#
# Elastic Compliance Matrix: (Units=1/GPa)
#
#
# Indices 1 2 3 4 5 6 
#
# 1 0.028433 0.012053 0.003087 0.000000 0.000000 0.000000
# 2 0.012053 0.031764 0.002381 0.000000 0.000000 0.000000
# 3 0.003087 0.002381 0.011768 0.000000 0.000000 0.000000
# 4 0.000000 0.000000 0.000000 -0.096645 0.000000 0.000000
# 5 0.000000 0.000000 0.000000 0.000000 -0.119574 0.000000
# 6 0.000000 0.000000 0.000000 0.000000 0.000000 0.244441
#
#
# Mechanical properties :
#
#
# Convention : Reuss Voigt Hill
#
# Bulk Modulus (GPa) = 9.34520 12.64533 10.99526
# Shear Modulus (GPa) = 49.59572 10.09279 29.84426
#
# Velocity S-wave (km/s) = 4.91450 2.21699 3.81231
# Velocity P-wave (km/s) = 6.06251 3.56531 4.97320
#
# Compressibility (1/GPa) = 0.10700680
#
# Stress axis : x y z
#
# Youngs Moduli (GPa) = 35.17099 31.48177 84.97323
#
# Poissons Ratio (x) = -0.37945 -0.26232
# Poissons Ratio (y) = -0.42392 -0.20229
# Poissons Ratio (z) = -0.10858 -0.07495
#
# Static dielectric constant tensor:
#      x y z
#    x 1.705580 0.000000 0.000000 
#    y 0.000000 1.750270 0.000000 
#    z 0.000000 0.000000 1.842930 
# 
# From -- ./inp_files/17089.got.cif
#   From: 2010.05.17/outbox.cif.g08.bks.cpg/sg65_9_cif.got.tgz:17089.got - 2010.06.03 17:01:31.
