data_PCOD9482458
_publ_section_title
;
Structure prediction by ZEFSAII (Michael W. Deem and Ramdas Pophale) SiO2 
 PCOD9482458
Probable space group: C M C A
;
_chemical_formula_sum "Si O2"
_cell_formula_units_Z 48
_cell_length_a 9.000000
_cell_length_b 24.000000
_cell_length_c 24.000000
_cell_angle_alpha 90.000000
_cell_angle_beta 90.000000
_cell_angle_gamma 90.000000
_cell_volume 5184.000000
_symmetry_space_group_name_H-M "C M C A"
_symmetry_group_IT_number 64
_symmetry_cell_setting 'orthorhombic'
loop_
_space_group_symop_operation_xyz
x,y,z
-x,1/2-y,1/2+z
x,-y,-z
-x,1/2+y,1/2-z
-x,-y,-z
x,1/2+y,1/2-z
-x,y,z
x,1/2-y,1/2+z
1/2+x,1/2+y,z
1/2-x,-y,1/2+z
1/2+x,1/2-y,-z
1/2-x,y,1/2-z
1/2-x,1/2-y,-z
1/2+x,y,1/2-z
1/2-x,1/2+y,z
1/2+x,-y,1/2+z
loop_
_atom_site_type_symbol
_atom_site_label
_atom_site_fract_x
_atom_site_fract_y
_atom_site_fract_z
Si Si1 0.172144 0.837366 0.370467
Si Si2 0.830266 0.380467 0.914781
Si Si3 0.163234 0.076508 0.800498
Si Si4 0.335773 0.482542 0.894072
Si Si5 0.321611 0.266012 0.940519
Si Si6 0.165339 0.932994 0.462873
O O1 0.260858 0.867589 0.322362
O O2 0.226845 0.779251 0.394660
O O3 0.182103 0.880604 0.421912
O O4 0.000000 0.831937 0.354891
O O5 0.766183 0.430549 0.878079
O O6 0.731099 0.325936 0.919787
O O7 0.000000 0.366303 0.901565
O O8 0.825264 0.408338 0.976045
O O9 0.250000 0.051221 0.750000
O O10 0.159973 0.029511 0.847151
O O11 0.000000 0.090854 0.781992
O O12 0.500000 0.460750 0.905946
O O13 0.276394 0.519161 0.945174
O O14 0.500000 0.262996 0.946319
O O15 0.250000 0.250000 0.000000
O O16 0.000000 0.956326 0.453116
#
# Coordination Sequence:
#
# PCOD9482458 Si02
#       6
#    16  16  16  16  16  16
#     4   9  18  34  53  76 107 141 178 219 264 310
#     4  11  21  33  49  73 106 147 184 214 257 310
#     4  10  21  37  59  83 105 132 171 221 276 325
#     4  10  21  34  49  76 105 134 174 220 268 316
#     4  11  21  34  52  76 109 149 186 221 259 309
#     4   9  17  31  48  70 103 142 178 212 254 308
#
# _framework density 9.2592590000000001
#
# number of rings (size 3 to 8) (size 9 to 14) (size 15 to 20)
#    0.000    2.000    1.667    2.500    0.000    6.667 
#    0.000    0.000    0.000    1.000    0.000    4.667 
#    0.000    0.000    0.000    0.000    0.000    0.000 
#
# Total GULP energy -267347.276963 kJ/mol
# GULP energy per Si atom -5569.734937 kJ/mol
# Density = 0.923818 g / cm^3
# Si number density = 9.259259 Si / 1000 Ang^3
#
#
#
# Elastic Constant Matrix: (Units=GPa)
#
#
# Indices 1 2 3 4 5 6 
#
# 1 56.4773 30.1948 27.8211 0.0000 0.0000 0.0000
# 2 30.1948 79.7722 10.8876 0.0000 0.0000 0.0000
# 3 27.8211 10.8876 33.3192 0.0000 0.0000 0.0000
# 4 0.0000 0.0000 0.0000 7.8011 0.0000 0.0000
# 5 0.0000 0.0000 0.0000 0.0000 9.5322 0.0000
# 6 0.0000 0.0000 0.0000 0.0000 0.0000 0.1081
#
#
#
# Elastic Compliance Matrix: (Units=1/GPa)
#
#
# Indices 1 2 3 4 5 6 
#
# 1 0.036492 -0.010105 -0.027168 0.000000 0.000000 0.000000
# 2 -0.010105 0.015919 0.003235 0.000000 0.000000 0.000000
# 3 -0.027168 0.003235 0.051641 0.000000 0.000000 0.000000
# 4 0.000000 0.000000 0.000000 0.128187 0.000000 0.000000
# 5 0.000000 0.000000 0.000000 0.000000 0.104908 0.000000
# 6 0.000000 0.000000 0.000000 0.000000 0.000000 9.247796
#
#
# Mechanical properties :
#
#
# Convention : Reuss Voigt Hill
#
# Bulk Modulus (GPa) = 27.79601 34.15283 30.97442
# Shear Modulus (GPa) = 0.51733 10.19930 5.35831
#
# Velocity S-wave (km/s) = 0.52912 2.34938 1.70287
# Velocity P-wave (km/s) = 3.92629 5.08350 4.54190
#
# Compressibility (1/GPa) = 0.03597639
#
# Stress axis : x y z
#
# Youngs Moduli (GPa) = 27.40344 62.81867 19.36464
#
# Poissons Ratio (x) = 0.63476 0.52610
# Poissons Ratio (y) = 0.27690 -0.06265
# Poissons Ratio (z) = 0.74450 -0.20325
#
# Static dielectric constant tensor:
#      x y z
#    x 1.730580 0.000000 0.000000 
#    y 0.000000 2.397900 0.000000 
#    z 0.000000 0.000000 1.642460 
# 
# From -- ./inp_files/42969.got.cif
#   From: 2010.05.17/outbox.ucp.g08.bks.cvg/sg64_22_cif.got.tgz:42969.got - 2010.06.11 16:36:46.
