data_PCOD9482259
_publ_section_title
;
Structure prediction by ZEFSAII (Michael W. Deem and Ramdas Pophale) SiO2 
 PCOD9482259
Probable space group: C M C A
;
_chemical_formula_sum "Si O2"
_cell_formula_units_Z 44
_cell_length_a 14.307297
_cell_length_b 5.385733
_cell_length_c 25.179955
_cell_angle_alpha 90.000000
_cell_angle_beta 90.000000
_cell_angle_gamma 90.000000
_cell_volume 1940.248523
_symmetry_space_group_name_H-M "C M C A"
_symmetry_group_IT_number 64
_symmetry_cell_setting 'orthorhombic'
loop_
_space_group_symop_operation_xyz
x,y,z
-x,1/2-y,1/2+z
x,-y,-z
-x,1/2+y,1/2-z
-x,-y,-z
x,1/2+y,1/2-z
-x,y,z
x,1/2-y,1/2+z
1/2+x,1/2+y,z
1/2-x,-y,1/2+z
1/2+x,1/2-y,-z
1/2-x,y,1/2-z
1/2-x,1/2-y,-z
1/2+x,y,1/2-z
1/2-x,1/2+y,z
1/2+x,-y,1/2+z
loop_
_atom_site_type_symbol
_atom_site_label
_atom_site_fract_x
_atom_site_fract_y
_atom_site_fract_z
Si Si1 0.195935 0.915309 0.656640
Si Si2 0.341406 0.298821 0.536187
Si Si3 0.000000 0.000000 0.000000
Si Si4 0.500000 0.580797 0.284733
O O1 0.248892 0.663201 0.672884
O O2 0.188403 0.904945 0.592527
O O3 0.092907 0.920426 0.680037
O O4 0.396232 0.500000 0.500000
O O5 0.250000 0.250000 0.500000
O O6 0.415344 0.077507 0.541996
O O7 0.500000 0.331983 0.249609
#
# Coordination Sequence:
#
# PCOD9482259 Si02
#       4
#    16  16   4   8
#     4  12  26  47  78 109 146 194 242 298 377 438
#     4  12  23  44  68 106 154 190 238 293 351 449
#     4  12  24  38  64  92 144 208 230 280 356 402
#     4  12  29  53  75 109 144 186 256 318 361 432
#
# _framework density 22.677508
#
# number of rings (size 3 to 8) (size 9 to 14) (size 15 to 20)
#    0.000    0.000    5.455    3.818    0.000    4.364 
#    6.545    0.000    0.000    0.000    0.000    0.000 
#    0.000    0.000    0.000    0.000    0.000    0.000 
#
# Total GULP energy -122576.814695 kJ/mol
# GULP energy per Si atom -5571.673395 kJ/mol
# Density = 2.262589 g / cm^3
# Si number density = 22.677508 Si / 1000 Ang^3
#
#
#
# Elastic Constant Matrix: (Units=GPa)
#
#
# Indices 1 2 3 4 5 6 
#
# 1 248.9332 70.8824 71.9016 0.0000 0.0000 0.0000
# 2 70.8824 150.2413 41.3122 0.0000 0.0000 0.0000
# 3 71.9016 41.3122 95.8897 0.0000 0.0000 0.0000
# 4 0.0000 0.0000 0.0000 5.6757 0.0000 0.0000
# 5 0.0000 0.0000 0.0000 0.0000 53.9564 0.0000
# 6 0.0000 0.0000 0.0000 0.0000 0.0000 -6.3237
#
#
#
# Elastic Compliance Matrix: (Units=1/GPa)
#
#
# Indices 1 2 3 4 5 6 
#
# 1 0.005465 -0.001646 -0.003388 0.000000 0.000000 0.000000
# 2 -0.001646 0.008047 -0.002232 0.000000 0.000000 0.000000
# 3 -0.003388 -0.002232 0.013931 0.000000 0.000000 0.000000
# 4 0.000000 0.000000 0.000000 0.176190 0.000000 0.000000
# 5 0.000000 0.000000 0.000000 0.000000 0.018533 0.000000
# 6 0.000000 0.000000 0.000000 0.000000 0.000000 -0.158136
#
#
# Mechanical properties :
#
#
# Convention : Reuss Voigt Hill
#
# Bulk Modulus (GPa) = 77.46857 95.91743 86.69300
# Shear Modulus (GPa) = 60.33817 31.39288 45.86553
#
# Velocity S-wave (km/s) = 5.16380 3.72468 4.50211
# Velocity P-wave (km/s) = 8.35393 7.80293 8.08313
#
# Compressibility (1/GPa) = 0.01290846
#
# Stress axis : x y z
#
# Youngs Moduli (GPa) = 182.99536 124.27735 71.78287
#
# Poissons Ratio (x) = 0.20462 0.24322
# Poissons Ratio (y) = 0.30130 0.16023
# Poissons Ratio (z) = 0.62003 0.27740
#
# Static dielectric constant tensor:
#      x y z
#    x 1.822640 0.000000 0.000000 
#    y 0.000000 2.301410 0.000000 
#    z 0.000000 0.000000 1.849360 
# 
# From -- ./inp_files/49706.got.cif
#   From: 2010.05.17/outbox.cif.g08.bks.cpg/sg64_25_cif.got.tgz:49706.got - 2010.06.03 16:29:19.
