data_PCOD9482981
_publ_section_title
;
Structure prediction by ZEFSAII (Michael W. Deem and Ramdas Pophale) SiO2 
 PCOD9482981
Probable space group: C M M M
;
_chemical_formula_sum "Si O2"
_cell_formula_units_Z 104
_cell_length_a 16.268290
_cell_length_b 16.112726
_cell_length_c 19.812002
_cell_angle_alpha 90.000000
_cell_angle_beta 90.000000
_cell_angle_gamma 90.000000
_cell_volume 5193.250728
_symmetry_space_group_name_H-M "C M M M"
_symmetry_group_IT_number 65
_symmetry_cell_setting 'orthorhombic'
loop_
_space_group_symop_operation_xyz
x,y,z
-x,-y,z
x,-y,-z
-x,y,-z
-x,-y,-z
x,y,-z
-x,y,z
x,-y,z
1/2+x,1/2+y,z
1/2-x,1/2-y,z
1/2+x,1/2-y,-z
1/2-x,1/2+y,-z
1/2-x,1/2-y,-z
1/2+x,1/2+y,-z
1/2-x,1/2+y,z
1/2+x,1/2-y,z
loop_
_atom_site_type_symbol
_atom_site_label
_atom_site_fract_x
_atom_site_fract_y
_atom_site_fract_z
Si Si1 0.679370 0.399431 0.577296
Si Si2 0.128808 0.405237 0.074359
Si Si3 0.249058 0.150101 0.288686
Si Si4 0.092595 0.147372 0.207135
Si Si5 0.500000 0.405436 0.418004
Si Si6 0.912629 0.656557 0.218060
Si Si7 0.198903 0.834402 0.077432
O O1 0.695372 0.373812 0.500000
O O2 0.675360 0.500000 0.577351
O O3 0.743455 0.370080 0.632564
O O4 0.588139 0.367365 0.599265
O O5 0.101533 0.500000 0.077452
O O6 0.227829 0.401106 0.079686
O O7 0.093865 0.357768 0.137973
O O8 0.107721 0.371021 0.000000
O O9 0.250000 0.250000 0.279825
O O10 0.167343 0.113503 0.252895
O O11 0.332194 0.119799 0.253232
O O12 0.128238 0.147013 0.130888
O O13 0.000000 0.112330 0.213357
O O14 0.500000 0.500000 0.391865
O O15 0.500000 0.410169 0.500000
O O16 0.913172 0.755619 0.227475
O O17 0.000000 0.622443 0.242401
O O18 0.250000 0.750000 0.095525
O O19 0.170463 0.826449 0.000000
#
# Coordination Sequence:
#
# PCOD9482981 Si02
#       7
#    16  16  16  16   8  16  16
#     4   9  18  33  55  81 108 138 170 207 255 310
#     4  10  20  33  51  75 103 134 171 222 274 309
#     4  10  20  35  52  77 109 139 172 213 256 305
#     4  10  19  32  52  78 104 133 172 214 259 308
#     4   7  12  26  48  76 106 130 156 194 244 299
#     4  10  20  35  53  72 102 140 174 212 261 310
#     4  10  17  31  53  73  99 136 178 217 255 305
#
# _framework density 20.025991999999999
#
# number of rings (size 3 to 8) (size 9 to 14) (size 15 to 20)
#    0.000    2.385    3.077    1.385    1.077    1.846 
#    0.000    2.308    0.000    1.846    0.000    3.231 
#    0.000    0.000    0.000    0.000    0.000    0.000 
#
# Total GULP energy -289857.337427 kJ/mol
# GULP energy per Si atom -5574.179566 kJ/mol
# Density = 1.998041 g / cm^3
# Si number density = 20.025992 Si / 1000 Ang^3
#
#
#
# Elastic Constant Matrix: (Units=GPa)
#
#
# Indices 1 2 3 4 5 6 
#
# 1 152.6935 4.4596 71.8266 0.0000 0.0000 0.0000
# 2 4.4596 17.8344 -3.1510 0.0000 0.0000 0.0000
# 3 71.8266 -3.1510 104.5878 0.0000 0.0000 0.0000
# 4 0.0000 0.0000 0.0000 34.3760 0.0000 0.0000
# 5 0.0000 0.0000 0.0000 0.0000 4.4183 0.0000
# 6 0.0000 0.0000 0.0000 0.0000 0.0000 -9.9559
#
#
#
# Elastic Compliance Matrix: (Units=1/GPa)
#
#
# Indices 1 2 3 4 5 6 
#
# 1 0.009912 -0.003701 -0.006918 0.000000 0.000000 0.000000
# 2 -0.003701 0.057753 0.004282 0.000000 0.000000 0.000000
# 3 -0.006918 0.004282 0.014442 0.000000 0.000000 0.000000
# 4 0.000000 0.000000 0.000000 0.029090 0.000000 0.000000
# 5 0.000000 0.000000 0.000000 0.000000 0.226332 0.000000
# 6 0.000000 0.000000 0.000000 0.000000 0.000000 -0.100443
#
#
# Mechanical properties :
#
#
# Convention : Reuss Voigt Hill
#
# Bulk Modulus (GPa) = 14.40271 46.82067 30.61169
# Shear Modulus (GPa) = 18.32144 19.23304 18.77724
#
# Velocity S-wave (km/s) = 3.02798 3.10240 3.06542
# Velocity P-wave (km/s) = 4.40824 6.02195 5.27714
#
# Compressibility (1/GPa) = 0.06943137
#
# Stress axis : x y z
#
# Youngs Moduli (GPa) = 100.89270 17.31499 69.24454
#
# Poissons Ratio (x) = 0.06408 0.47906
# Poissons Ratio (y) = 0.37338 -0.29648
# Poissons Ratio (z) = 0.69801 -0.07414
#
# Static dielectric constant tensor:
#      x y z
#    x 1.774800 0.000000 0.000000 
#    y 0.000000 1.714680 0.000000 
#    z 0.000000 0.000000 1.709450 
# 
# From -- ./inp_files/53296.got.cif
#   From: 2010.05.17/outbox.cif.g08.bks.cpg/sg65_27_cif.got.tgz:53296.got - 2010.06.03 17:01:31.
