data_PCOD9482309
_publ_section_title
;
Structure prediction by ZEFSAII (Michael W. Deem and Ramdas Pophale) SiO2 
 PCOD9482309
Probable space group: C M C A
;
_chemical_formula_sum "Si O2"
_cell_formula_units_Z 88
_cell_length_a 22.822865
_cell_length_b 20.860066
_cell_length_c 7.802208
_cell_angle_alpha 90.000000
_cell_angle_beta 90.000000
_cell_angle_gamma 90.000000
_cell_volume 3714.525667
_symmetry_space_group_name_H-M "C M C A"
_symmetry_group_IT_number 64
_symmetry_cell_setting 'orthorhombic'
loop_
_space_group_symop_operation_xyz
x,y,z
-x,1/2-y,1/2+z
x,-y,-z
-x,1/2+y,1/2-z
-x,-y,-z
x,1/2+y,1/2-z
-x,y,z
x,1/2-y,1/2+z
1/2+x,1/2+y,z
1/2-x,-y,1/2+z
1/2+x,1/2-y,-z
1/2-x,y,1/2-z
1/2-x,1/2-y,-z
1/2+x,y,1/2-z
1/2-x,1/2+y,z
1/2+x,-y,1/2+z
loop_
_atom_site_type_symbol
_atom_site_label
_atom_site_fract_x
_atom_site_fract_y
_atom_site_fract_z
Si Si1 0.368888 0.156058 0.055017
Si Si2 0.797834 0.215225 0.888411
Si Si3 0.107698 0.500000 0.500000
Si Si4 0.500000 0.789830 0.485034
Si Si5 0.187061 0.036136 0.322049
Si Si6 0.000000 0.155242 0.361996
Si Si7 0.105422 0.133581 0.848785
O O1 0.347827 0.226875 0.120970
O O2 0.319285 0.109932 0.128375
O O3 0.433436 0.129565 0.115625
O O4 0.374271 0.145502 0.848634
O O5 0.750000 0.190643 0.750000
O O6 0.835792 0.154809 0.949758
O O7 0.750000 0.250000 0.000000
O O8 0.143943 0.521060 0.333578
O O9 0.080845 0.565834 0.579997
O O10 0.500000 0.713974 0.494265
O O11 0.500000 0.817758 0.672591
O O12 0.444362 0.815663 0.386506
O O13 0.250000 0.017760 0.250000
O O14 0.173171 0.000000 0.500000
#
# Coordination Sequence:
#
# PCOD9482309 Si02
#       7
#    16  16   8   8  16   8  16
#     4  12  26  48  76 114 146 196 256 320 383 455
#     4  12  27  43  71 109 150 192 243 313 380 450
#     4  12  28  47  74 106 156 201 252 308 372 452
#     4  12  26  47  75 107 149 200 250 320 388 463
#     4  12  26  47  75 110 152 205 253 306 373 458
#     4  12  26  46  76 110 148 195 251 319 398 459
#     4  12  27  48  75 108 150 199 254 311 387 452
#
# _framework density 23.690776
#
# number of rings (size 3 to 8) (size 9 to 14) (size 15 to 20)
#    0.000    0.000    6.364    3.273    7.636    1.091 
#    0.000    1.364    0.000    0.000    0.000    0.000 
#    0.000    0.000    0.000    0.000    0.000    0.000 
#
# Total GULP energy -245022.527633 kJ/mol
# GULP energy per Si atom -5568.693810 kJ/mol
# Density = 2.363685 g / cm^3
# Si number density = 23.690776 Si / 1000 Ang^3
#
#
#
# Elastic Constant Matrix: (Units=GPa)
#
#
# Indices 1 2 3 4 5 6 
#
# 1 97.4110 2.1234 11.9937 0.0000 0.0000 0.0000
# 2 2.1234 73.0311 -3.1344 0.0000 0.0000 0.0000
# 3 11.9937 -3.1344 111.0433 0.0000 0.0000 0.0000
# 4 0.0000 0.0000 0.0000 17.5887 0.0000 0.0000
# 5 0.0000 0.0000 0.0000 0.0000 17.7638 0.0000
# 6 0.0000 0.0000 0.0000 0.0000 0.0000 -146.5683
#
#
#
# Elastic Compliance Matrix: (Units=1/GPa)
#
#
# Indices 1 2 3 4 5 6 
#
# 1 0.010413 -0.000351 -0.001135 0.000000 0.000000 0.000000
# 2 -0.000351 0.013721 0.000425 0.000000 0.000000 0.000000
# 3 -0.001135 0.000425 0.009140 0.000000 0.000000 0.000000
# 4 0.000000 0.000000 0.000000 0.056855 0.000000 0.000000
# 5 0.000000 0.000000 0.000000 0.000000 0.056294 0.000000
# 6 0.000000 0.000000 0.000000 0.000000 0.000000 -0.006823
#
#
# Mechanical properties :
#
#
# Convention : Reuss Voigt Hill
#
# Bulk Modulus (GPa) = 32.09984 33.71676 32.90830
# Shear Modulus (GPa) = 32.87166 -4.20967 14.33100
#
# Velocity S-wave (km/s) = 3.72900 -1.33446 2.46218
# Velocity P-wave (km/s) = 5.66741 3.44798 4.69084
#
# Compressibility (1/GPa) = 0.03115280
#
# Stress axis : x y z
#
# Youngs Moduli (GPa) = 96.03247 72.87954 109.40856
#
# Poissons Ratio (x) = 0.02561 0.12414
# Poissons Ratio (y) = 0.03375 -0.04653
# Poissons Ratio (z) = 0.10896 -0.03099
#
# Static dielectric constant tensor:
#      x y z
#    x 1.988580 0.000000 0.000000 
#    y 0.000000 1.992380 0.000000 
#    z 0.000000 0.000000 1.982200 
# 
# From -- ./inp_files/9387.got.cif
#   From: 2010.05.17/outbox.cif.g08.bks.cpg/sg64_5_cif.got.tgz:9387.got - 2010.06.03 16:29:19.
