data_PCOD9482721
_publ_section_title
;
Structure prediction by ZEFSAII (Michael W. Deem and Ramdas Pophale) SiO2 
 PCOD9482721
Probable space group: C M M M
;
_chemical_formula_sum "Si O2"
_cell_formula_units_Z 96
_cell_length_a 28.128084
_cell_length_b 8.481108
_cell_length_c 25.048767
_cell_angle_alpha 90.000000
_cell_angle_beta 90.000000
_cell_angle_gamma 90.000000
_cell_volume 5975.566681
_symmetry_space_group_name_H-M "C M M M"
_symmetry_group_IT_number 65
_symmetry_cell_setting 'orthorhombic'
loop_
_space_group_symop_operation_xyz
x,y,z
-x,-y,z
x,-y,-z
-x,y,-z
-x,-y,-z
x,y,-z
-x,y,z
x,-y,z
1/2+x,1/2+y,z
1/2-x,1/2-y,z
1/2+x,1/2-y,-z
1/2-x,1/2+y,-z
1/2-x,1/2-y,-z
1/2+x,1/2+y,-z
1/2-x,1/2+y,z
1/2+x,1/2-y,z
loop_
_atom_site_type_symbol
_atom_site_label
_atom_site_fract_x
_atom_site_fract_y
_atom_site_fract_z
Si Si1 0.553127 0.690304 0.835202
Si Si2 0.304412 0.811087 0.441967
Si Si3 0.852186 0.808218 0.221365
Si Si4 0.802380 0.189168 0.888117
Si Si5 0.602872 0.188852 0.060066
Si Si6 0.804159 0.810962 0.669926
O O1 0.500000 0.747135 0.823108
O O2 0.552960 0.500000 0.833234
O O3 0.595055 0.745193 0.795560
O O4 0.569290 0.739871 0.894393
O O5 0.325335 0.765112 0.500000
O O6 0.250000 0.750000 0.442536
O O7 0.325005 0.744717 0.386933
O O8 0.303767 0.000000 0.438992
O O9 0.817387 0.763735 0.172464
O O10 0.833304 0.754021 0.278508
O O11 0.852724 0.000000 0.222689
O O12 0.750000 0.250000 0.900714
O O13 0.843571 0.257836 0.925634
O O14 0.803712 0.000000 0.891277
O O15 0.600296 0.000000 0.062928
O O16 0.590562 0.239203 0.000000
O O17 0.750000 0.750000 0.674307
O O18 0.802776 0.000000 0.669997
#
# Coordination Sequence:
#
# PCOD9482721 Si02
#       6
#    16  16  16  16  16  16
#     4   9  18  34  54  71  88 112 141 175 219 269
#     4   9  16  25  36  52  78 112 149 183 211 241
#     4   8  16  29  44  65  89 112 141 177 214 256
#     4  10  19  32  49  67  90 119 150 181 215 257
#     4  10  21  35  49  67  91 116 144 179 217 258
#     4  10  17  25  39  59  86 116 146 177 208 246
#
# _framework density 16.065422999999999
#
# number of rings (size 3 to 8) (size 9 to 14) (size 15 to 20)
#    0.000    2.667    0.000    4.500    0.000    3.333 
#    0.000    9.167    0.000    0.000    0.000    0.000 
#    0.000    0.667    0.000    8.333    0.000    1.333 
#
# Total GULP energy -267455.743109 kJ/mol
# GULP energy per Si atom -5571.994648 kJ/mol
# Density = 1.602886 g / cm^3
# Si number density = 16.065423 Si / 1000 Ang^3
#
#
#
# Elastic Constant Matrix: (Units=GPa)
#
#
# Indices 1 2 3 4 5 6 
#
# 1 66.3313 5.0948 24.1374 0.0000 0.0000 0.0000
# 2 5.0948 22.7556 13.3450 0.0000 0.0000 0.0000
# 3 24.1374 13.3450 119.1135 0.0000 0.0000 0.0000
# 4 0.0000 0.0000 0.0000 18.0924 0.0000 0.0000
# 5 0.0000 0.0000 0.0000 0.0000 10.3719 0.0000
# 6 0.0000 0.0000 0.0000 0.0000 0.0000 14.7694
#
#
#
# Elastic Compliance Matrix: (Units=1/GPa)
#
#
# Indices 1 2 3 4 5 6 
#
# 1 0.016348 -0.001838 -0.003107 0.000000 0.000000 0.000000
# 2 -0.001838 0.047242 -0.004920 0.000000 0.000000 0.000000
# 3 -0.003107 -0.004920 0.009576 0.000000 0.000000 0.000000
# 4 0.000000 0.000000 0.000000 0.055272 0.000000 0.000000
# 5 0.000000 0.000000 0.000000 0.000000 0.096414 0.000000
# 6 0.000000 0.000000 0.000000 0.000000 0.000000 0.067708
#
#
# Mechanical properties :
#
#
# Convention : Reuss Voigt Hill
#
# Bulk Modulus (GPa) = 18.71413 32.59497 25.65455
# Shear Modulus (GPa) = 15.14682 19.68829 17.41755
#
# Velocity S-wave (km/s) = 3.07387 3.50452 3.29624
# Velocity P-wave (km/s) = 4.92669 6.05875 5.52181
#
# Compressibility (1/GPa) = 0.05343556
#
# Stress axis : x y z
#
# Youngs Moduli (GPa) = 61.17130 21.16745 104.42596
#
# Poissons Ratio (x) = 0.03891 0.32443
# Poissons Ratio (y) = 0.11244 0.51381
# Poissons Ratio (z) = 0.19004 0.10415
#
# Static dielectric constant tensor:
#      x y z
#    x 1.522190 0.000000 0.000000 
#    y 0.000000 1.566320 0.000000 
#    z 0.000000 0.000000 1.571580 
# 
# From -- ./inp_files/71665.got.cif
#   From: 2010.05.17/outbox.cif.g08.bks.cpg/sg65_36_cif.got.tgz:71665.got - 2010.06.03 17:01:31.
