data_PCOD9482511
_publ_section_title
;
Structure prediction by ZEFSAII (Michael W. Deem and Ramdas Pophale) SiO2 
 PCOD9482511
Probable space group: C M C A
;
_chemical_formula_sum "Si O2"
_cell_formula_units_Z 52
_cell_length_a 21.000000
_cell_length_b 27.000000
_cell_length_c 9.000000
_cell_angle_alpha 90.000000
_cell_angle_beta 90.000000
_cell_angle_gamma 90.000000
_cell_volume 5103.000000
_symmetry_space_group_name_H-M "C M C A"
_symmetry_group_IT_number 64
_symmetry_cell_setting 'orthorhombic'
loop_
_space_group_symop_operation_xyz
x,y,z
-x,1/2-y,1/2+z
x,-y,-z
-x,1/2+y,1/2-z
-x,-y,-z
x,1/2+y,1/2-z
-x,y,z
x,1/2-y,1/2+z
1/2+x,1/2+y,z
1/2-x,-y,1/2+z
1/2+x,1/2-y,-z
1/2-x,y,1/2-z
1/2-x,1/2-y,-z
1/2+x,y,1/2-z
1/2-x,1/2+y,z
1/2+x,-y,1/2+z
loop_
_atom_site_type_symbol
_atom_site_label
_atom_site_fract_x
_atom_site_fract_y
_atom_site_fract_z
Si Si1 0.500000 0.054287 0.077667
Si Si2 0.618019 0.127041 0.007742
Si Si3 0.075181 0.189262 0.741277
Si Si4 0.750000 0.499002 0.250000
Si Si5 0.749019 0.924129 0.503761
Si Si6 0.000000 0.444853 0.563368
Si Si7 0.576049 0.804497 0.750377
Si Si8 0.616581 0.627888 0.004331
O O1 0.563741 0.085209 0.033302
O O2 0.500000 0.051960 0.257118
O O3 0.500000 0.000000 0.000000
O O4 0.592324 0.177732 0.084240
O O5 0.615839 0.146677 0.839973
O O6 0.688529 0.107562 0.049334
O O7 0.091678 0.247151 0.720810
O O8 0.000000 0.183457 0.706852
O O9 0.087855 0.173297 0.909715
O O10 0.776054 0.459445 0.128968
O O11 0.778178 0.539136 0.367001
O O12 0.686766 0.891871 0.462071
O O13 0.000000 0.500000 0.500000
O O14 0.936826 0.415294 0.509549
O O15 0.500000 0.811342 0.724163
O O16 0.616511 0.845948 0.664224
#
# Coordination Sequence:
#
# PCOD9482511 Si02
#       8
#     8  16  16   8  16   8  16  16
#     4  12  28  42  65  95 134 168 213 271 325 376
#     4  12  23  45  63  99 131 168 214 271 319 385
#     4  11  23  39  72  98 124 173 217 266 321 390
#     4  10  24  46  60  92 118 190 216 252 300 414
#     4  11  26  40  69  88 134 168 221 260 327 374
#     4  12  28  42  65  95 134 168 213 271 325 376
#     4  11  21  43  68  96 130 171 217 264 325 386
#     4  12  23  45  63  99 131 168 214 271 319 385
#
# _framework density 10.190084000000001
#
# number of rings (size 3 to 8) (size 9 to 14) (size 15 to 20)
#    0.000    0.615    4.615    2.769    6.462    2.462 
#    0.000    4.615    0.000    0.000    0.000    0.000 
#    0.000    0.000    0.000    0.000    0.000    0.000 
#
# Total GULP energy -289644.545104 kJ/mol
# GULP energy per Si atom -5570.087406 kJ/mol
# Density = 1.016689 g / cm^3
# Si number density = 10.190084 Si / 1000 Ang^3
#
#
#
# Elastic Constant Matrix: (Units=GPa)
#
#
# Indices 1 2 3 4 5 6 
#
# 1 135.0709 62.4135 5.2707 0.0000 0.0000 0.0000
# 2 62.4135 141.4386 5.8235 0.0000 0.0000 0.0000
# 3 5.2707 5.8235 24.4547 0.0000 0.0000 0.0000
# 4 0.0000 0.0000 0.0000 47.3002 0.0000 0.0000
# 5 0.0000 0.0000 0.0000 0.0000 24.4661 0.0000
# 6 0.0000 0.0000 0.0000 0.0000 0.0000 10.9159
#
#
#
# Elastic Compliance Matrix: (Units=1/GPa)
#
#
# Indices 1 2 3 4 5 6 
#
# 1 0.009326 -0.004072 -0.001040 0.000000 0.000000 0.000000
# 2 -0.004072 0.008919 -0.001246 0.000000 0.000000 0.000000
# 3 -0.001040 -0.001246 0.041413 0.000000 0.000000 0.000000
# 4 0.000000 0.000000 0.000000 0.021142 0.000000 0.000000
# 5 0.000000 0.000000 0.000000 0.000000 0.040873 0.000000
# 6 0.000000 0.000000 0.000000 0.000000 0.000000 0.091610
#
#
# Mechanical properties :
#
#
# Convention : Reuss Voigt Hill
#
# Bulk Modulus (GPa) = 21.30386 49.77552 35.53969
# Shear Modulus (GPa) = 20.69144 31.70021 26.19583
#
# Velocity S-wave (km/s) = 3.18979 3.94819 3.58908
# Velocity P-wave (km/s) = 4.90329 6.72761 5.88656
#
# Compressibility (1/GPa) = 0.04693986
#
# Stress axis : x y z
#
# Youngs Moduli (GPa) = 107.22807 112.12526 24.14707
#
# Poissons Ratio (x) = 0.45663 0.02512
# Poissons Ratio (y) = 0.43668 0.03009
# Poissons Ratio (z) = 0.11154 0.13972
#
# Static dielectric constant tensor:
#      x y z
#    x 1.647380 0.000000 0.000000 
#    y 0.000000 1.689650 0.000000 
#    z 0.000000 0.000000 1.789370 
# 
# From -- ./inp_files/8561.got.cif
#   From: 2010.05.17/outbox.ucp.g08.bks.cvg/sg64_5_cif.got.tgz:8561.got - 2010.06.11 16:36:46.
