data_PCOD9482924
_publ_section_title
;
Structure prediction by ZEFSAII (Michael W. Deem and Ramdas Pophale) SiO2 
 PCOD9482924
Probable space group: C M M M
;
_chemical_formula_sum "Si O2"
_cell_formula_units_Z 88
_cell_length_a 32.580672
_cell_length_b 8.282446
_cell_length_c 17.438432
_cell_angle_alpha 90.000000
_cell_angle_beta 90.000000
_cell_angle_gamma 90.000000
_cell_volume 4705.720008
_symmetry_space_group_name_H-M "C M M M"
_symmetry_group_IT_number 65
_symmetry_cell_setting 'orthorhombic'
loop_
_space_group_symop_operation_xyz
x,y,z
-x,-y,z
x,-y,-z
-x,y,-z
-x,-y,-z
x,y,-z
-x,y,z
x,-y,z
1/2+x,1/2+y,z
1/2-x,1/2-y,z
1/2+x,1/2-y,-z
1/2-x,1/2+y,-z
1/2-x,1/2-y,-z
1/2+x,1/2+y,-z
1/2-x,1/2+y,z
1/2+x,1/2-y,z
loop_
_atom_site_type_symbol
_atom_site_label
_atom_site_fract_x
_atom_site_fract_y
_atom_site_fract_z
Si Si1 0.629428 0.311572 0.251382
Si Si2 0.596937 0.316761 0.410972
Si Si3 0.793884 0.310560 0.840147
Si Si4 0.077179 0.194754 0.000000
Si Si5 0.455402 0.000000 0.592168
Si Si6 0.171696 0.696231 0.000000
Si Si7 0.546008 0.303044 0.167254
O O1 0.632179 0.500000 0.229163
O O2 0.630038 0.303621 0.343564
O O3 0.667817 0.224654 0.214336
O O4 0.585261 0.252277 0.218500
O O5 0.610259 0.300736 0.500000
O O6 0.579078 0.500000 0.403516
O O7 0.567021 0.168595 0.392446
O O8 0.789949 0.500000 0.849499
O O9 0.750000 0.250000 0.812251
O O10 0.805847 0.241741 0.923766
O O11 0.124220 0.251860 0.000000
O O12 0.055430 0.245691 0.079154
O O13 0.076938 0.000000 0.000000
O O14 0.500000 0.000000 0.628301
O O15 0.458873 0.000000 0.500000
O O16 0.172092 0.500000 0.000000
O O17 0.500000 0.249007 0.189841
O O18 0.545442 0.500000 0.170143
#
# Coordination Sequence:
#
# PCOD9482924 Si02
#       7
#    16  16  16   8   8   8  16
#     4  10  20  35  57  82 110 143 185 235 285 339
#     4   9  19  35  55  80 112 152 194 238 294 353
#     4  11  23  38  58  82 112 144 180 226 279 339
#     4  10  17  29  51  73  99 141 184 224 266 317
#     4   9  18  32  52  80 112 147 195 247 289 342
#     4  10  21  36  54  78 110 145 178 222 278 333
#     4   9  17  29  48  76 106 139 183 230 271 317
#
# _framework density 18.700645999999999
#
# number of rings (size 3 to 8) (size 9 to 14) (size 15 to 20)
#    0.000    2.273    1.818    1.091    1.273    2.909 
#    0.000    3.636    0.000    2.727    0.000    0.000 
#    0.000    0.000    0.000    0.000    0.000    0.000 
#
# Total GULP energy -245177.400069 kJ/mol
# GULP energy per Si atom -5572.213638 kJ/mol
# Density = 1.865808 g / cm^3
# Si number density = 18.700646 Si / 1000 Ang^3
#
#
#
# Elastic Constant Matrix: (Units=GPa)
#
#
# Indices 1 2 3 4 5 6 
#
# 1 130.1645 22.4691 44.3957 0.0000 0.0000 0.0000
# 2 22.4691 43.5045 25.4935 0.0000 0.0000 0.0000
# 3 44.3957 25.4935 95.1407 0.0000 0.0000 0.0000
# 4 0.0000 0.0000 0.0000 15.5123 0.0000 0.0000
# 5 0.0000 0.0000 0.0000 0.0000 -2.3765 0.0000
# 6 0.0000 0.0000 0.0000 0.0000 0.0000 63.1754
#
#
#
# Elastic Compliance Matrix: (Units=1/GPa)
#
#
# Indices 1 2 3 4 5 6 
#
# 1 0.009399 -0.002710 -0.003660 0.000000 0.000000 0.000000
# 2 -0.002710 0.028049 -0.006251 0.000000 0.000000 0.000000
# 3 -0.003660 -0.006251 0.013894 0.000000 0.000000 0.000000
# 4 0.000000 0.000000 0.000000 0.064465 0.000000 0.000000
# 5 0.000000 0.000000 0.000000 0.000000 -0.420779 0.000000
# 6 0.000000 0.000000 0.000000 0.000000 0.000000 0.015829
#
#
# Mechanical properties :
#
#
# Convention : Reuss Voigt Hill
#
# Bulk Modulus (GPa) = 38.31473 50.39181 44.35327
# Shear Modulus (GPa) = -19.59226 27.02565 3.71669
#
# Velocity S-wave (km/s) = -3.24030 3.80567 1.41131
# Velocity P-wave (km/s) = 2.55608 6.80558 5.14050
#
# Compressibility (1/GPa) = 0.02609962
#
# Stress axis : x y z
#
# Youngs Moduli (GPa) = 106.39986 35.65196 71.97579
#
# Poissons Ratio (x) = 0.09660 0.26340
# Poissons Ratio (y) = 0.28830 0.44996
# Poissons Ratio (z) = 0.38938 0.22288
#
# Static dielectric constant tensor:
#      x y z
#    x 1.632730 0.000000 0.000000 
#    y 0.000000 3.314540 0.000000 
#    z 0.000000 0.000000 1.661970 
# 
# From -- ./inp_files/58079.got.cif
#   From: 2010.05.17/outbox.cif.g08.bks.cpg/sg65_30_cif.got.tgz:58079.got - 2010.06.03 17:01:31.
