data_PCOD9482680
_publ_section_title
;
Structure prediction by ZEFSAII (Michael W. Deem and Ramdas Pophale) SiO2 
 PCOD9482680
Probable space group: C M M M
;
_chemical_formula_sum "Si O2"
_cell_formula_units_Z 96
_cell_length_a 14.715495
_cell_length_b 17.067089
_cell_length_c 18.566615
_cell_angle_alpha 90.000000
_cell_angle_beta 90.000000
_cell_angle_gamma 90.000000
_cell_volume 4663.017664
_symmetry_space_group_name_H-M "C M M M"
_symmetry_group_IT_number 65
_symmetry_cell_setting 'orthorhombic'
loop_
_space_group_symop_operation_xyz
x,y,z
-x,-y,z
x,-y,-z
-x,y,-z
-x,-y,-z
x,y,-z
-x,y,z
x,-y,z
1/2+x,1/2+y,z
1/2-x,1/2-y,z
1/2+x,1/2-y,-z
1/2-x,1/2+y,-z
1/2-x,1/2-y,-z
1/2+x,1/2+y,-z
1/2-x,1/2+y,z
1/2+x,1/2-y,z
loop_
_atom_site_type_symbol
_atom_site_label
_atom_site_fract_x
_atom_site_fract_y
_atom_site_fract_z
Si Si1 0.293110 0.088554 0.191156
Si Si2 0.144991 0.085378 0.414910
Si Si3 0.597106 0.333184 0.195669
Si Si4 0.352323 0.216632 0.080646
Si Si5 0.149229 0.413873 0.358268
Si Si6 0.360839 0.745704 0.658887
O O1 0.187815 0.115112 0.197896
O O2 0.345024 0.143879 0.135127
O O3 0.332410 0.090661 0.272157
O O4 0.296954 0.000000 0.165097
O O5 0.129934 0.087791 0.500000
O O6 0.253009 0.085472 0.397809
O O7 0.110108 0.165820 0.380634
O O8 0.111329 0.000000 0.387640
O O9 0.500000 0.373885 0.206299
O O10 0.596442 0.286146 0.121117
O O11 0.609845 0.269247 0.259136
O O12 0.250000 0.250000 0.075751
O O13 0.383976 0.198297 0.000000
O O14 0.107391 0.500000 0.373270
O O15 0.106530 0.328547 0.373462
O O16 0.250000 0.750000 0.657691
#
# Coordination Sequence:
#
# PCOD9482680 Si02
#       6
#    16  16  16  16  16  16
#     4  10  18  32  53  76 101 132 175 219 260 307
#     4   9  17  27  44  75 106 132 168 218 272 315
#     4  11  20  31  49  77 109 138 171 211 260 321
#     4   9  18  34  54  73  95 130 172 211 254 306
#     4   9  16  27  48  71  97 130 169 220 263 302
#     4  10  16  30  50  68  97 138 181 216 257 305
#
# _framework density 20.587526
#
# number of rings (size 3 to 8) (size 9 to 14) (size 15 to 20)
#    0.000    2.333    5.000    0.500    0.000    4.000 
#    0.000    0.000    0.000    2.500    0.000    7.000 
#    0.000    0.000    0.000   43.667    0.000    0.000 
#
# Total GULP energy -267448.376632 kJ/mol
# GULP energy per Si atom -5571.841180 kJ/mol
# Density = 2.054067 g / cm^3
# Si number density = 20.587526 Si / 1000 Ang^3
#
#
#
# Elastic Constant Matrix: (Units=GPa)
#
#
# Indices 1 2 3 4 5 6 
#
# 1 47.7980 3.1685 1.7964 0.0000 0.0000 0.0000
# 2 3.1685 158.8995 29.3147 0.0000 0.0000 0.0000
# 3 1.7964 29.3147 49.3528 0.0000 0.0000 0.0000
# 4 0.0000 0.0000 0.0000 23.9228 0.0000 0.0000
# 5 0.0000 0.0000 0.0000 0.0000 -11.0685 0.0000
# 6 0.0000 0.0000 0.0000 0.0000 0.0000 -30.0191
#
#
#
# Elastic Compliance Matrix: (Units=1/GPa)
#
#
# Indices 1 2 3 4 5 6 
#
# 1 0.020964 -0.000311 -0.000578 0.000000 0.000000 0.000000
# 2 -0.000311 0.007072 -0.004190 0.000000 0.000000 0.000000
# 3 -0.000578 -0.004190 0.022772 0.000000 0.000000 0.000000
# 4 0.000000 0.000000 0.000000 0.041801 0.000000 0.000000
# 5 0.000000 0.000000 0.000000 0.000000 -0.090346 0.000000
# 6 0.000000 0.000000 0.000000 0.000000 0.000000 -0.033312
#
#
# Mechanical properties :
#
#
# Convention : Reuss Voigt Hill
#
# Bulk Modulus (GPa) = 24.60029 36.06772 30.33401
# Shear Modulus (GPa) = -681.07333 11.35175 -334.86079
#
# Velocity S-wave (km/s) = -18.20815 2.35072 -12.76736
# Velocity P-wave (km/s) = 20.73822 4.99250 14.23286
#
# Compressibility (1/GPa) = 0.04064992
#
# Stress axis : x y z
#
# Youngs Moduli (GPa) = 47.70135 141.39454 43.91391
#
# Poissons Ratio (x) = 0.04403 0.02539
# Poissons Ratio (y) = 0.01485 0.18398
# Poissons Ratio (z) = 0.02758 0.59238
#
# Static dielectric constant tensor:
#      x y z
#    x 1.802420 0.000000 0.000000 
#    y 0.000000 1.784410 0.000000 
#    z 0.000000 0.000000 1.719690 
# 
# From -- ./inp_files/54475.got.cif
#   From: 2010.05.17/outbox.cif.g08.bks.cpg/sg65_28_cif.got.tgz:54475.got - 2010.06.03 17:01:31.
