data_PCOD9482304
_publ_section_title
;
Structure prediction by ZEFSAII (Michael W. Deem and Ramdas Pophale) SiO2 
 PCOD9482304
Probable space group: C M C A
;
_chemical_formula_sum "Si O2"
_cell_formula_units_Z 112
_cell_length_a 32.281758
_cell_length_b 11.518148
_cell_length_c 14.058110
_cell_angle_alpha 90.000000
_cell_angle_beta 90.000000
_cell_angle_gamma 90.000000
_cell_volume 5227.171742
_symmetry_space_group_name_H-M "C M C A"
_symmetry_group_IT_number 64
_symmetry_cell_setting 'orthorhombic'
loop_
_space_group_symop_operation_xyz
x,y,z
-x,1/2-y,1/2+z
x,-y,-z
-x,1/2+y,1/2-z
-x,-y,-z
x,1/2+y,1/2-z
-x,y,z
x,1/2-y,1/2+z
1/2+x,1/2+y,z
1/2-x,-y,1/2+z
1/2+x,1/2-y,-z
1/2-x,y,1/2-z
1/2-x,1/2-y,-z
1/2+x,y,1/2-z
1/2-x,1/2+y,z
1/2+x,-y,1/2+z
loop_
_atom_site_type_symbol
_atom_site_label
_atom_site_fract_x
_atom_site_fract_y
_atom_site_fract_z
Si Si1 0.727200 0.626384 0.014008
Si Si2 0.872071 0.084397 0.737906
Si Si3 0.046776 0.810771 0.991791
Si Si4 0.380392 0.131333 0.977628
Si Si5 0.952832 0.504709 0.664353
Si Si6 0.827559 0.759573 0.126313
Si Si7 0.794440 0.084680 0.227366
O O1 0.707298 0.625275 0.118437
O O2 0.749131 0.500000 0.000000
O O3 0.750000 0.750000 0.000000
O O4 0.693400 0.634721 0.930284
O O5 0.869162 0.135403 0.632849
O O6 0.916267 0.025922 0.760853
O O7 0.864626 0.187709 0.812419
O O8 0.834337 0.994215 0.752230
O O9 0.081300 0.714516 0.997141
O O10 0.000000 0.764221 0.988727
O O11 0.053285 0.887148 0.896331
O O12 0.049357 0.896290 0.082501
O O13 0.343565 0.171470 0.046568
O O14 0.391389 0.000000 0.000000
O O15 0.000000 0.505546 0.703079
O O16 0.797906 0.692762 0.199536
O O17 0.750000 0.025524 0.250000
#
# Coordination Sequence:
#
# PCOD9482304 Si02
#       7
#    16  16  16  16  16  16  16
#     4  12  27  49  77 106 142 193 251 311 370 443
#     4  12  26  44  74 102 148 190 251 297 379 445
#     4   9  20  41  71 102 138 185 243 305 366 437
#     4  12  26  43  68 103 149 190 233 301 375 446
#     4   9  20  42  74 106 135 181 249 310 358 438
#     4  12  26  47  70 105 141 192 246 306 366 446
#     4  12  27  49  74 105 144 196 246 307 373 439
#
# _framework density 21.426500999999998
#
# number of rings (size 3 to 8) (size 9 to 14) (size 15 to 20)
#    0.000    0.857    5.714    1.714    4.000    4.286 
#    0.000    0.000    0.000    0.000    0.000    0.000 
#    0.000    0.000    0.000    0.000    0.000    0.000 
#
# Total GULP energy -313057.165180 kJ/mol
# GULP energy per Si atom -5590.306521 kJ/mol
# Density = 2.137773 g / cm^3
# Si number density = 21.426501 Si / 1000 Ang^3
#
#
#
# Elastic Constant Matrix: (Units=GPa)
#
#
# Indices 1 2 3 4 5 6 
#
# 1 101.2383 42.5419 31.8203 0.0000 0.0000 0.0000
# 2 42.5419 100.0602 24.1020 0.0000 0.0000 0.0000
# 3 31.8203 24.1020 125.7388 0.0000 0.0000 0.0000
# 4 0.0000 0.0000 0.0000 27.4652 0.0000 0.0000
# 5 0.0000 0.0000 0.0000 0.0000 27.1956 0.0000
# 6 0.0000 0.0000 0.0000 0.0000 0.0000 39.1570
#
#
#
# Elastic Compliance Matrix: (Units=1/GPa)
#
#
# Indices 1 2 3 4 5 6 
#
# 1 0.012615 -0.004817 -0.002269 0.000000 0.000000 0.000000
# 2 -0.004817 0.012317 -0.001142 0.000000 0.000000 0.000000
# 3 -0.002269 -0.001142 0.008746 0.000000 0.000000 0.000000
# 4 0.000000 0.000000 0.000000 0.036410 0.000000 0.000000
# 5 0.000000 0.000000 0.000000 0.000000 0.036771 0.000000
# 6 0.000000 0.000000 0.000000 0.000000 0.000000 0.025538
#
#
# Mechanical properties :
#
#
# Convention : Reuss Voigt Hill
#
# Bulk Modulus (GPa) = 58.06449 58.21840 58.14145
# Shear Modulus (GPa) = 32.34289 34.00176 33.17233
#
# Velocity S-wave (km/s) = 3.88942 3.98792 3.93898
# Velocity P-wave (km/s) = 6.87956 6.95951 6.91965
#
# Compressibility (1/GPa) = 0.01722223
#
# Stress axis : x y z
#
# Youngs Moduli (GPa) = 79.27052 81.18849 114.33626
#
# Poissons Ratio (x) = 0.39107 0.25944
# Poissons Ratio (y) = 0.38184 0.13057
# Poissons Ratio (z) = 0.17988 0.09271
#
# Static dielectric constant tensor:
#      x y z
#    x 1.791270 0.000000 0.000000 
#    y 0.000000 1.790580 0.000000 
#    z 0.000000 0.000000 1.812490 
# 
# From -- ./inp_files/28400.got.cif
#   From: 2010.05.17/outbox.cif.g08.bks.cpg/sg64_15_cif.got.tgz:28400.got - 2010.06.03 16:29:19.
