data_PCOD9482214
_publ_section_title
;
Structure prediction by ZEFSAII (Michael W. Deem and Ramdas Pophale) SiO2 
 PCOD9482214
Probable space group: C M C A
;
_chemical_formula_sum "Si O2"
_cell_formula_units_Z 32
_cell_length_a 15.458765
_cell_length_b 10.456211
_cell_length_c 7.558624
_cell_angle_alpha 90.000000
_cell_angle_beta 90.000000
_cell_angle_gamma 90.000000
_cell_volume 1221.776805
_symmetry_space_group_name_H-M "C M C A"
_symmetry_group_IT_number 64
_symmetry_cell_setting 'orthorhombic'
loop_
_space_group_symop_operation_xyz
x,y,z
-x,1/2-y,1/2+z
x,-y,-z
-x,1/2+y,1/2-z
-x,-y,-z
x,1/2+y,1/2-z
-x,y,z
x,1/2-y,1/2+z
1/2+x,1/2+y,z
1/2-x,-y,1/2+z
1/2+x,1/2-y,-z
1/2-x,y,1/2-z
1/2-x,1/2-y,-z
1/2+x,y,1/2-z
1/2-x,1/2+y,z
1/2+x,-y,1/2+z
loop_
_atom_site_type_symbol
_atom_site_label
_atom_site_fract_x
_atom_site_fract_y
_atom_site_fract_z
Si Si1 0.250000 0.798586 0.750000
Si Si2 0.323729 0.000000 0.000000
Si Si3 0.095804 0.899353 0.163101
O O1 0.240480 0.891249 0.579028
O O2 0.166656 0.709521 0.714635
O O3 0.387391 0.017061 0.836516
O O4 0.000000 0.840750 0.154970
O O5 0.099731 0.000000 0.000000
#
# Coordination Sequence:
#
# PCOD9482214 Si02
#       3
#     8   8  16
#     4  12  30  56  84 126 176 232 288 358 436 524
#     4  12  29  50  81 124 168 232 287 348 427 524
#     4  11  29  55  86 126 169 223 290 362 439 515
#
# _framework density 26.191361000000001
#
# number of rings (size 3 to 8) (size 9 to 14) (size 15 to 20)
#    0.000    0.500    0.000    3.750   21.000    4.000 
#    0.000    1.250    0.000    0.000    0.000    0.000 
#    0.000    0.000    0.000    0.000    0.000    0.000 
#
# Total GULP energy -89181.807656 kJ/mol
# GULP energy per Si atom -5573.862978 kJ/mol
# Density = 2.613175 g / cm^3
# Si number density = 26.191361 Si / 1000 Ang^3
#
#
#
# Elastic Constant Matrix: (Units=GPa)
#
#
# Indices 1 2 3 4 5 6 
#
# 1 247.3974 97.0885 56.7962 0.0000 0.0000 0.0000
# 2 97.0885 114.3263 70.1404 0.0000 0.0000 0.0000
# 3 56.7962 70.1404 246.8705 0.0000 0.0000 0.0000
# 4 0.0000 0.0000 0.0000 60.8712 0.0000 0.0000
# 5 0.0000 0.0000 0.0000 0.0000 -794.0424 0.0000
# 6 0.0000 0.0000 0.0000 0.0000 0.0000 -44.0719
#
#
#
# Elastic Compliance Matrix: (Units=1/GPa)
#
#
# Indices 1 2 3 4 5 6 
#
# 1 0.006064 -0.005200 0.000082 0.000000 0.000000 0.000000
# 2 -0.005200 0.015053 -0.003080 0.000000 0.000000 0.000000
# 3 0.000082 -0.003080 0.004907 0.000000 0.000000 0.000000
# 4 0.000000 0.000000 0.000000 0.016428 0.000000 0.000000
# 5 0.000000 0.000000 0.000000 0.000000 -0.001259 0.000000
# 6 0.000000 0.000000 0.000000 0.000000 0.000000 -0.022690
#
#
# Mechanical properties :
#
#
# Convention : Reuss Voigt Hill
#
# Bulk Modulus (GPa) = 103.87108 117.40496 110.63802
# Shear Modulus (GPa) = 131.20680 -129.81069 0.69806
#
# Velocity S-wave (km/s) = 7.08549 -7.04769 0.51682
# Velocity P-wave (km/s) = 10.32877 4.61557 6.53376
#
# Compressibility (1/GPa) = 0.00962732
#
# Stress axis : x y z
#
# Youngs Moduli (GPa) = 164.90996 66.43262 203.79214
#
# Poissons Ratio (x) = 0.34546 -0.01678
# Poissons Ratio (y) = 0.85756 0.62776
# Poissons Ratio (z) = -0.01358 0.20464
#
# Static dielectric constant tensor:
#      x y z
#    x 2.182450 0.000000 0.000000 
#    y 0.000000 2.264710 0.000000 
#    z 0.000000 0.000000 2.231620 
# 
# From -- ./inp_files/6064.got.cif
#   From: 2010.05.17/outbox.cif.g08.bks.cpg/sg64_4_cif.got.tgz:6064.got - 2010.06.03 16:29:19.
