data_PCOD9482499
_publ_section_title
;
Structure prediction by ZEFSAII (Michael W. Deem and Ramdas Pophale) SiO2 
 PCOD9482499
Probable space group: C M C A
;
_chemical_formula_sum "Si O2"
_cell_formula_units_Z 32
_cell_length_a 15.000000
_cell_length_b 24.000000
_cell_length_c 9.000000
_cell_angle_alpha 90.000000
_cell_angle_beta 90.000000
_cell_angle_gamma 90.000000
_cell_volume 3240.000000
_symmetry_space_group_name_H-M "C M C A"
_symmetry_group_IT_number 64
_symmetry_cell_setting 'orthorhombic'
loop_
_space_group_symop_operation_xyz
x,y,z
-x,1/2-y,1/2+z
x,-y,-z
-x,1/2+y,1/2-z
-x,-y,-z
x,1/2+y,1/2-z
-x,y,z
x,1/2-y,1/2+z
1/2+x,1/2+y,z
1/2-x,-y,1/2+z
1/2+x,1/2-y,-z
1/2-x,y,1/2-z
1/2-x,1/2-y,-z
1/2+x,y,1/2-z
1/2-x,1/2+y,z
1/2+x,-y,1/2+z
loop_
_atom_site_type_symbol
_atom_site_label
_atom_site_fract_x
_atom_site_fract_y
_atom_site_fract_z
Si Si1 0.152554 0.881564 0.681534
Si Si2 0.500000 0.684587 0.833293
Si Si3 0.500000 0.694567 0.192804
Si Si4 0.151205 0.004230 0.179865
Si Si5 0.597088 0.603020 0.640169
O O1 0.250000 0.872093 0.750000
O O2 0.160328 0.888994 0.501942
O O3 0.086428 0.833533 0.732927
O O4 0.114279 0.937582 0.759124
O O5 0.500000 0.742508 0.748410
O O6 0.585078 0.651048 0.764313
O O7 0.500000 0.688508 0.012243
O O8 0.250000 0.003780 0.250000
O O9 0.108204 0.952188 0.263204
O O10 0.149400 0.000000 0.000000
O O11 0.500000 0.601175 0.563932
#
# Coordination Sequence:
#
# PCOD9482499 Si02
#       5
#    16   8   8  16  16
#     4  11  23  40  66  95 126 167 207 258 315 373
#     4  10  24  41  66  93 120 168 208 268 308 372
#     4  12  22  45  66  89 130 162 214 262 314 368
#     4  11  22  37  59  94 131 165 210 256 305 376
#     4  10  22  41  62  90 127 162 208 255 316 363
#
# _framework density 9.8765429999999999
#
# number of rings (size 3 to 8) (size 9 to 14) (size 15 to 20)
#    0.750    0.500    1.250    6.750    1.750    1.500 
#    0.000    6.250    0.000    0.000    0.000    0.000 
#    0.000    0.000    0.000    0.000    0.000    0.000 
#
# Total GULP energy -178321.222155 kJ/mol
# GULP energy per Si atom -5572.538192 kJ/mol
# Density = 0.985406 g / cm^3
# Si number density = 9.876543 Si / 1000 Ang^3
#
#
#
# Elastic Constant Matrix: (Units=GPa)
#
#
# Indices 1 2 3 4 5 6 
#
# 1 59.4731 15.4175 -0.4216 0.0000 0.0000 0.0000
# 2 15.4175 100.6005 -12.2961 0.0000 0.0000 0.0000
# 3 -0.4216 -12.2961 132.2301 0.0000 0.0000 0.0000
# 4 0.0000 0.0000 0.0000 33.8995 0.0000 0.0000
# 5 0.0000 0.0000 0.0000 0.0000 31.4732 0.0000
# 6 0.0000 0.0000 0.0000 0.0000 0.0000 42.5582
#
#
#
# Elastic Compliance Matrix: (Units=1/GPa)
#
#
# Indices 1 2 3 4 5 6 
#
# 1 0.017515 -0.002708 -0.000196 0.000000 0.000000 0.000000
# 2 -0.002708 0.010473 0.000965 0.000000 0.000000 0.000000
# 3 -0.000196 0.000965 0.007652 0.000000 0.000000 0.000000
# 4 0.000000 0.000000 0.000000 0.029499 0.000000 0.000000
# 5 0.000000 0.000000 0.000000 0.000000 0.031773 0.000000
# 6 0.000000 0.000000 0.000000 0.000000 0.000000 0.023497
#
#
# Mechanical properties :
#
#
# Convention : Reuss Voigt Hill
#
# Bulk Modulus (GPa) = 31.48398 33.07817 32.28108
# Shear Modulus (GPa) = 37.07147 40.89309 38.98228
#
# Velocity S-wave (km/s) = 4.33684 4.55490 4.44720
# Velocity P-wave (km/s) = 6.40710 6.66670 6.53819
#
# Compressibility (1/GPa) = 0.03176218
#
# Stress axis : x y z
#
# Youngs Moduli (GPa) = 57.09390 95.48052 130.68974
#
# Poissons Ratio (x) = 0.25858 0.02562
# Poissons Ratio (y) = 0.15462 -0.12615
# Poissons Ratio (z) = 0.01119 -0.09217
#
# Static dielectric constant tensor:
#      x y z
#    x 1.832230 0.000000 0.000000 
#    y 0.000000 1.782080 0.000000 
#    z 0.000000 0.000000 1.641530 
# 
# From -- ./inp_files/5669.got.cif
#   From: 2010.05.17/outbox.ucp.g08.bks.cvg/sg64_3_cif.got.tgz:5669.got - 2010.06.11 16:36:46.
