data_PCOD9482250
_publ_section_title
;
Structure prediction by ZEFSAII (Michael W. Deem and Ramdas Pophale) SiO2 
 PCOD9482250
Probable space group: C M C A
;
_chemical_formula_sum "Si O2"
_cell_formula_units_Z 96
_cell_length_a 24.060385
_cell_length_b 11.101168
_cell_length_c 16.391333
_cell_angle_alpha 90.000000
_cell_angle_beta 90.000000
_cell_angle_gamma 90.000000
_cell_volume 4378.098425
_symmetry_space_group_name_H-M "C M C A"
_symmetry_group_IT_number 64
_symmetry_cell_setting 'orthorhombic'
loop_
_space_group_symop_operation_xyz
x,y,z
-x,1/2-y,1/2+z
x,-y,-z
-x,1/2+y,1/2-z
-x,-y,-z
x,1/2+y,1/2-z
-x,y,z
x,1/2-y,1/2+z
1/2+x,1/2+y,z
1/2-x,-y,1/2+z
1/2+x,1/2-y,-z
1/2-x,y,1/2-z
1/2-x,1/2-y,-z
1/2+x,y,1/2-z
1/2-x,1/2+y,z
1/2+x,-y,1/2+z
loop_
_atom_site_type_symbol
_atom_site_label
_atom_site_fract_x
_atom_site_fract_y
_atom_site_fract_z
Si Si1 0.888769 0.733820 0.578003
Si Si2 0.693786 0.369931 0.792531
Si Si3 0.500000 0.645378 0.992133
Si Si4 0.891124 0.023094 0.338713
Si Si5 0.205390 0.930418 0.081733
Si Si6 0.000000 0.410266 0.083975
Si Si7 0.323372 0.829656 0.078728
O O1 0.907483 0.846797 0.629161
O O2 0.843093 0.650399 0.619567
O O3 0.856944 0.779105 0.497326
O O4 0.943099 0.663813 0.554993
O O5 0.750000 0.321281 0.750000
O O6 0.645848 0.439766 0.741043
O O7 0.719349 0.467723 0.854000
O O8 0.668739 0.261263 0.845639
O O9 0.500000 0.500000 0.000000
O O10 0.500000 0.767707 0.053931
O O11 0.946249 0.941859 0.358668
O O12 0.846818 0.959155 0.397285
O O13 0.258550 0.849848 0.062230
O O14 0.186023 0.000000 0.000000
O O15 0.000000 0.500000 0.000000
#
# Coordination Sequence:
#
# PCOD9482250 Si02
#       7
#    16  16   8  16  16   8  16
#     4  12  24  45  74 107 143 186 256 305 372 452
#     4  12  28  45  65 106 153 195 243 311 385 439
#     4  12  26  44  76 116 146 184 242 329 370 432
#     4  12  25  44  78 106 145 195 245 312 385 451
#     4  12  25  44  70 106 145 198 254 308 375 459
#     4  12  22  52  80 112 143 196 258 308 372 460
#     4  12  25  43  70 104 143 194 245 309 364 457
#
# _framework density 21.927327999999999
#
# number of rings (size 3 to 8) (size 9 to 14) (size 15 to 20)
#    0.000    0.000    6.667    3.500    4.667    0.000 
#    0.000    2.500    0.000    0.000    0.000    0.000 
#    0.000    0.000    0.000    0.000    0.000    0.000 
#
# Total GULP energy -267658.685939 kJ/mol
# GULP energy per Si atom -5576.222624 kJ/mol
# Density = 2.187742 g / cm^3
# Si number density = 21.927328 Si / 1000 Ang^3
#
#
#
# Elastic Constant Matrix: (Units=GPa)
#
#
# Indices 1 2 3 4 5 6 
#
# 1 98.7721 14.7394 -15.3278 0.0000 0.0000 0.0000
# 2 14.7394 103.6824 5.3285 0.0000 0.0000 0.0000
# 3 -15.3278 5.3285 38.4421 0.0000 0.0000 0.0000
# 4 0.0000 0.0000 0.0000 16.2933 0.0000 0.0000
# 5 0.0000 0.0000 0.0000 0.0000 -19.8340 0.0000
# 6 0.0000 0.0000 0.0000 0.0000 0.0000 47.0898
#
#
#
# Elastic Compliance Matrix: (Units=1/GPa)
#
#
# Indices 1 2 3 4 5 6 
#
# 1 0.011124 -0.001822 0.004688 0.000000 0.000000 0.000000
# 2 -0.001822 0.010013 -0.002114 0.000000 0.000000 0.000000
# 3 0.004688 -0.002114 0.028175 0.000000 0.000000 0.000000
# 4 0.000000 0.000000 0.000000 0.061375 0.000000 0.000000
# 5 0.000000 0.000000 0.000000 0.000000 -0.050418 0.000000
# 6 0.000000 0.000000 0.000000 0.000000 0.000000 0.021236
#
#
# Mechanical properties :
#
#
# Convention : Reuss Voigt Hill
#
# Bulk Modulus (GPa) = 19.67957 27.81963 23.74960
# Shear Modulus (GPa) = 51.57838 24.45359 38.01599
#
# Velocity S-wave (km/s) = 4.85525 3.34310 4.16832
# Velocity P-wave (km/s) = 6.35812 5.25514 5.83276
#
# Compressibility (1/GPa) = 0.05081413
#
# Stress axis : x y z
#
# Youngs Moduli (GPa) = 89.89794 99.87465 35.49192
#
# Poissons Ratio (x) = 0.18200 -0.16638
# Poissons Ratio (y) = 0.16382 0.07504
# Poissons Ratio (z) = -0.42143 0.21118
#
# Static dielectric constant tensor:
#      x y z
#    x 1.812300 0.000000 0.000000 
#    y 0.000000 1.261620 0.000000 
#    z 0.000000 0.000000 1.860890 
# 
# From -- ./inp_files/34988.got.cif
#   From: 2010.05.17/outbox.cif.g08.bks.cpg/sg64_18_cif.got.tgz:34988.got - 2010.06.03 16:29:19.
