data_PCOD9482663
_publ_section_title
;
Structure prediction by ZEFSAII (Michael W. Deem and Ramdas Pophale) SiO2 
 PCOD9482663
Probable space group: C M M M
;
_chemical_formula_sum "Si O2"
_cell_formula_units_Z 96
_cell_length_a 7.614061
_cell_length_b 24.608181
_cell_length_c 26.474927
_cell_angle_alpha 90.000000
_cell_angle_beta 90.000000
_cell_angle_gamma 90.000000
_cell_volume 4960.559185
_symmetry_space_group_name_H-M "C M M M"
_symmetry_group_IT_number 65
_symmetry_cell_setting 'orthorhombic'
loop_
_space_group_symop_operation_xyz
x,y,z
-x,-y,z
x,-y,-z
-x,y,-z
-x,-y,-z
x,y,-z
-x,y,z
x,-y,z
1/2+x,1/2+y,z
1/2-x,1/2-y,z
1/2+x,1/2-y,-z
1/2-x,1/2+y,-z
1/2-x,1/2-y,-z
1/2+x,1/2+y,-z
1/2-x,1/2+y,z
1/2+x,1/2-y,z
loop_
_atom_site_type_symbol
_atom_site_label
_atom_site_fract_x
_atom_site_fract_y
_atom_site_fract_z
Si Si1 0.791833 0.686521 0.752680
Si Si2 0.797935 0.000000 0.331882
Si Si3 0.286159 0.889078 0.840822
Si Si4 0.288938 0.686538 0.556056
Si Si5 0.214359 0.436977 0.943047
Si Si6 0.210744 0.880776 0.348544
Si Si7 0.211855 0.500000 0.216592
O O1 0.750000 0.750000 0.747406
O O2 0.721403 0.659139 0.804429
O O3 0.739900 0.651612 0.703567
O O4 0.000000 0.682007 0.755360
O O5 0.717712 0.057809 0.347250
O O6 0.795517 0.000000 0.271338
O O7 0.000000 0.000000 0.349878
O O8 0.500000 0.885764 0.842698
O O9 0.225912 0.897041 0.898496
O O10 0.241364 0.945588 0.813149
O O11 0.223094 0.671195 0.500000
O O12 0.500000 0.680697 0.555251
O O13 0.250000 0.750000 0.563789
O O14 0.220731 0.652241 0.603215
O O15 0.264571 0.500000 0.932625
O O16 0.000000 0.436705 0.942821
O O17 0.270899 0.423319 0.000000
O O18 0.000000 0.884617 0.353317
O O19 0.000000 0.500000 0.222715
#
# Coordination Sequence:
#
# PCOD9482663 Si02
#       7
#    16   8  16  16  16  16   8
#     4  11  22  34  49  69  95 127 162 200 241 283
#     4  10  20  32  47  71 103 131 156 189 232 282
#     4   9  16  26  43  66  94 124 154 191 236 284
#     4   9  18  33  52  72  94 123 160 200 239 277
#     4   8  12  19  35  62  94 121 145 183 235 281
#     4  10  20  34  51  73 101 128 157 194 236 284
#     4  10  16  28  47  69  95 125 160 193 230 284
#
# _framework density 19.352658000000002
#
# number of rings (size 3 to 8) (size 9 to 14) (size 15 to 20)
#    0.000    2.500    2.500    1.500    0.000    2.000 
#    0.000    0.417    0.000    3.000    0.000    0.000 
#    0.000   10.667    0.000    0.000    0.000    0.167 
#
# Total GULP energy -267671.101763 kJ/mol
# GULP energy per Si atom -5576.481287 kJ/mol
# Density = 1.930861 g / cm^3
# Si number density = 19.352658 Si / 1000 Ang^3
#
#
#
# Elastic Constant Matrix: (Units=GPa)
#
#
# Indices 1 2 3 4 5 6 
#
# 1 40.6905 5.1603 6.3878 0.0000 0.0000 0.0000
# 2 5.1603 139.2519 96.8645 0.0000 0.0000 0.0000
# 3 6.3878 96.8645 181.5420 0.0000 0.0000 0.0000
# 4 0.0000 0.0000 0.0000 28.9012 0.0000 0.0000
# 5 0.0000 0.0000 0.0000 0.0000 13.6734 0.0000
# 6 0.0000 0.0000 0.0000 0.0000 0.0000 -9.2416
#
#
#
# Elastic Compliance Matrix: (Units=1/GPa)
#
#
# Indices 1 2 3 4 5 6 
#
# 1 0.024734 -0.000495 -0.000606 0.000000 0.000000 0.000000
# 2 -0.000495 0.011430 -0.006081 0.000000 0.000000 0.000000
# 3 -0.000606 -0.006081 0.008774 0.000000 0.000000 0.000000
# 4 0.000000 0.000000 0.000000 0.034601 0.000000 0.000000
# 5 0.000000 0.000000 0.000000 0.000000 0.073135 0.000000
# 6 0.000000 0.000000 0.000000 0.000000 0.000000 -0.108207
#
#
# Mechanical properties :
#
#
# Convention : Reuss Voigt Hill
#
# Bulk Modulus (GPa) = 32.70821 64.25663 48.48242
# Shear Modulus (GPa) = 72.44110 23.53805 47.98957
#
# Velocity S-wave (km/s) = 6.12482 3.49129 4.98510
# Velocity P-wave (km/s) = 8.18264 7.03756 7.63161
#
# Compressibility (1/GPa) = 0.03057337
#
# Stress axis : x y z
#
# Youngs Moduli (GPa) = 40.43065 87.49257 113.96915
#
# Poissons Ratio (x) = 0.04329 0.06910
# Poissons Ratio (y) = 0.02001 0.69305
# Poissons Ratio (z) = 0.02451 0.53204
#
# Static dielectric constant tensor:
#      x y z
#    x 1.722700 0.000000 0.000000 
#    y 0.000000 1.649730 0.000000 
#    z 0.000000 0.000000 1.693450 
# 
# From -- ./inp_files/73487.got.cif
#   From: 2010.05.17/outbox.cif.g08.bks.cpg/sg65_37_cif.got.tgz:73487.got - 2010.06.03 17:01:31.
