data_PCOD9482292
_publ_section_title
;
Structure prediction by ZEFSAII (Michael W. Deem and Ramdas Pophale) SiO2 
 PCOD9482292
Probable space group: C M C A
;
_chemical_formula_sum "Si O2"
_cell_formula_units_Z 48
_cell_length_a 18.176925
_cell_length_b 13.853233
_cell_length_c 8.222842
_cell_angle_alpha 90.000000
_cell_angle_beta 90.000000
_cell_angle_gamma 90.000000
_cell_volume 2070.587079
_symmetry_space_group_name_H-M "C M C A"
_symmetry_group_IT_number 64
_symmetry_cell_setting 'orthorhombic'
loop_
_space_group_symop_operation_xyz
x,y,z
-x,1/2-y,1/2+z
x,-y,-z
-x,1/2+y,1/2-z
-x,-y,-z
x,1/2+y,1/2-z
-x,y,z
x,1/2-y,1/2+z
1/2+x,1/2+y,z
1/2-x,-y,1/2+z
1/2+x,1/2-y,-z
1/2-x,y,1/2-z
1/2-x,1/2-y,-z
1/2+x,y,1/2-z
1/2-x,1/2+y,z
1/2+x,-y,1/2+z
loop_
_atom_site_type_symbol
_atom_site_label
_atom_site_fract_x
_atom_site_fract_y
_atom_site_fract_z
Si Si1 0.414209 0.131808 0.794100
Si Si2 0.327649 0.532472 0.187669
Si Si3 0.673543 0.218273 0.090634
O O1 0.500000 0.153286 0.786330
O O2 0.368801 0.188394 0.655497
O O3 0.396538 0.019662 0.769822
O O4 0.376833 0.166132 0.958961
O O5 0.250000 0.489213 0.250000
O O6 0.324731 0.641903 0.257401
O O7 0.330269 0.500000 0.000000
O O8 0.750000 0.250000 0.000000
#
# Coordination Sequence:
#
# PCOD9482292 Si02
#       3
#    16  16  16
#     4  12  26  43  68 104 145 188 239 308 384 449
#     4  12  25  44  71 102 139 188 246 305 369 448
#     4  12  25  46  75 104 141 194 253 308 369 450
#
# _framework density 23.181830000000001
#
# number of rings (size 3 to 8) (size 9 to 14) (size 15 to 20)
#    0.000    0.000    0.000   13.000    0.000    4.667 
#    0.000    0.000    0.000    0.000    0.000    0.000 
#    0.000    0.000    0.000    0.000    0.000    0.000 
#
# Total GULP energy -134119.953778 kJ/mol
# GULP energy per Si atom -5588.331407 kJ/mol
# Density = 2.312907 g / cm^3
# Si number density = 23.181830 Si / 1000 Ang^3
#
#
#
# Elastic Constant Matrix: (Units=GPa)
#
#
# Indices 1 2 3 4 5 6 
#
# 1 168.2012 61.6511 53.5042 0.0000 0.0000 0.0000
# 2 61.6511 138.2489 62.7986 0.0000 0.0000 0.0000
# 3 53.5042 62.7986 132.7534 0.0000 0.0000 0.0000
# 4 0.0000 0.0000 0.0000 19.6675 0.0000 0.0000
# 5 0.0000 0.0000 0.0000 0.0000 23.7801 0.0000
# 6 0.0000 0.0000 0.0000 0.0000 0.0000 9.4110
#
#
#
# Elastic Compliance Matrix: (Units=1/GPa)
#
#
# Indices 1 2 3 4 5 6 
#
# 1 0.007437 -0.002490 -0.001819 0.000000 0.000000 0.000000
# 2 -0.002490 0.010047 -0.003749 0.000000 0.000000 0.000000
# 3 -0.001819 -0.003749 0.010040 0.000000 0.000000 0.000000
# 4 0.000000 0.000000 0.000000 0.050845 0.000000 0.000000
# 5 0.000000 0.000000 0.000000 0.000000 0.042052 0.000000
# 6 0.000000 0.000000 0.000000 0.000000 0.000000 0.106259
#
#
# Mechanical properties :
#
#
# Convention : Reuss Voigt Hill
#
# Bulk Modulus (GPa) = 87.67165 88.34570 88.00867
# Shear Modulus (GPa) = 20.27595 27.98836 24.13215
#
# Velocity S-wave (km/s) = 2.96065 3.47845 3.22994
# Velocity P-wave (km/s) = 7.04191 7.37058 7.20812
#
# Compressibility (1/GPa) = 0.01140620
#
# Stress axis : x y z
#
# Youngs Moduli (GPa) = 134.46981 99.53582 99.60643
#
# Poissons Ratio (x) = 0.24783 0.18122
# Poissons Ratio (y) = 0.33481 0.37343
# Poissons Ratio (z) = 0.24465 0.37316
#
# Static dielectric constant tensor:
#      x y z
#    x 2.074270 0.000000 0.000000 
#    y 0.000000 1.908350 0.000000 
#    z 0.000000 0.000000 1.944590 
# 
# From -- ./inp_files/6251.got.cif
#   From: 2010.05.17/outbox.cif.g08.bks.cpg/sg64_4_cif.got.tgz:6251.got - 2010.06.03 16:29:19.
