data_PCOD9482342
_publ_section_title
;
Structure prediction by ZEFSAII (Michael W. Deem and Ramdas Pophale) SiO2 
 PCOD9482342
Probable space group: C M C A
;
_chemical_formula_sum "Si O2"
_cell_formula_units_Z 96
_cell_length_a 14.348890
_cell_length_b 29.461959
_cell_length_c 10.749266
_cell_angle_alpha 90.000000
_cell_angle_beta 90.000000
_cell_angle_gamma 90.000000
_cell_volume 4544.213600
_symmetry_space_group_name_H-M "C M C A"
_symmetry_group_IT_number 64
_symmetry_cell_setting 'orthorhombic'
loop_
_space_group_symop_operation_xyz
x,y,z
-x,1/2-y,1/2+z
x,-y,-z
-x,1/2+y,1/2-z
-x,-y,-z
x,1/2+y,1/2-z
-x,y,z
x,1/2-y,1/2+z
1/2+x,1/2+y,z
1/2-x,-y,1/2+z
1/2+x,1/2-y,-z
1/2-x,y,1/2-z
1/2-x,1/2-y,-z
1/2+x,y,1/2-z
1/2-x,1/2+y,z
1/2+x,-y,1/2+z
loop_
_atom_site_type_symbol
_atom_site_label
_atom_site_fract_x
_atom_site_fract_y
_atom_site_fract_z
Si Si1 0.848660 0.224022 0.989013
Si Si2 0.143581 0.779247 0.734105
Si Si3 0.886442 0.028812 0.878499
Si Si4 0.614005 0.476780 0.628338
Si Si5 0.111426 0.617717 0.226283
Si Si6 0.387508 0.377297 0.017341
O O1 0.895212 0.224615 0.126014
O O2 0.750000 0.250000 0.000000
O O3 0.898200 0.249537 0.875693
O O4 0.839670 0.170833 0.958063
O O5 0.250000 0.763841 0.750000
O O6 0.146581 0.832105 0.695385
O O7 0.857014 0.080807 0.897656
O O8 0.000000 0.029068 0.879082
O O9 0.858331 0.005511 0.749794
O O10 0.858822 0.000000 0.000000
O O11 0.643056 0.500000 0.500000
O O12 0.500000 0.475551 0.628043
O O13 0.646603 0.424948 0.647590
O O14 0.128961 0.609691 0.372809
O O15 0.000000 0.619811 0.211382
O O16 0.500000 0.370966 0.030361
#
# Coordination Sequence:
#
# PCOD9482342 Si02
#       6
#    16  16  16  16  16  16
#     4   9  18  33  50  68  92 122 163 198 239 287
#     4   9  18  33  51  69  87 125 161 199 237 288
#     4   9  14  24  43  66  95 127 156 188 227 279
#     4   9  16  26  41  66 100 128 151 184 229 283
#     4   9  16  28  47  71  96 125 159 192 234 285
#     4   9  16  27  47  73  98 125 162 202 235 276
#
# _framework density 21.125768000000001
#
# number of rings (size 3 to 8) (size 9 to 14) (size 15 to 20)
#    0.000    3.000    1.667    0.000    0.000    0.667 
#    3.000    0.000    0.000    0.000   13.000    0.000 
#    0.000    0.000    0.000    0.000    0.000    0.167 
#
# Total GULP energy -267750.078664 kJ/mol
# GULP energy per Si atom -5578.126639 kJ/mol
# Density = 2.107768 g / cm^3
# Si number density = 21.125768 Si / 1000 Ang^3
#
#
#
# Elastic Constant Matrix: (Units=GPa)
#
#
# Indices 1 2 3 4 5 6 
#
# 1 71.7910 14.9869 -0.6127 0.0000 0.0000 0.0000
# 2 14.9869 169.9587 100.1879 0.0000 0.0000 0.0000
# 3 -0.6127 100.1879 157.6201 0.0000 0.0000 0.0000
# 4 0.0000 0.0000 0.0000 41.3320 0.0000 0.0000
# 5 0.0000 0.0000 0.0000 0.0000 -8.0559 0.0000
# 6 0.0000 0.0000 0.0000 0.0000 0.0000 24.4251
#
#
#
# Elastic Compliance Matrix: (Units=1/GPa)
#
#
# Indices 1 2 3 4 5 6 
#
# 1 0.014375 -0.002080 0.001378 0.000000 0.000000 0.000000
# 2 -0.002080 0.009710 -0.006180 0.000000 0.000000 0.000000
# 3 0.001378 -0.006180 0.010278 0.000000 0.000000 0.000000
# 4 0.000000 0.000000 0.000000 0.024194 0.000000 0.000000
# 5 0.000000 0.000000 0.000000 0.000000 -0.124132 0.000000
# 6 0.000000 0.000000 0.000000 0.000000 0.000000 0.040942
#
#
# Mechanical properties :
#
#
# Convention : Reuss Voigt Hill
#
# Bulk Modulus (GPa) = 48.54545 69.83266 59.18906
# Shear Modulus (GPa) = -1249.44286 30.52741 -609.45773
#
# Velocity S-wave (km/s) = -24.34573 3.80548 -17.00343
# Velocity P-wave (km/s) = 27.69941 7.24130 18.90530
#
# Compressibility (1/GPa) = 0.02059925
#
# Stress axis : x y z
#
# Youngs Moduli (GPa) = 69.56393 102.98288 97.29436
#
# Poissons Ratio (x) = 0.21419 -0.13406
# Poissons Ratio (y) = 0.14468 0.60131
# Poissons Ratio (z) = -0.09585 0.63646
#
# Static dielectric constant tensor:
#      x y z
#    x 1.791180 0.000000 0.000000 
#    y 0.000000 1.739050 0.000000 
#    z 0.000000 0.000000 1.794040 
# 
# From -- ./inp_files/16320.got.cif
#   From: 2010.05.17/outbox.cif.g08.bks.cpg/sg64_9_cif.got.tgz:16320.got - 2010.06.03 16:29:19.
