data_PCOD9482619
_publ_section_title
;
Structure prediction by ZEFSAII (Michael W. Deem and Ramdas Pophale) SiO2 
 PCOD9482619
Probable space group: C M M M
;
_chemical_formula_sum "Si O2"
_cell_formula_units_Z 72
_cell_length_a 15.003465
_cell_length_b 8.741226
_cell_length_c 24.605150
_cell_angle_alpha 90.000000
_cell_angle_beta 90.000000
_cell_angle_gamma 90.000000
_cell_volume 3226.932903
_symmetry_space_group_name_H-M "C M M M"
_symmetry_group_IT_number 65
_symmetry_cell_setting 'orthorhombic'
loop_
_space_group_symop_operation_xyz
x,y,z
-x,-y,z
x,-y,-z
-x,y,-z
-x,-y,-z
x,y,-z
-x,y,z
x,-y,z
1/2+x,1/2+y,z
1/2-x,1/2-y,z
1/2+x,1/2-y,-z
1/2-x,1/2+y,-z
1/2-x,1/2-y,-z
1/2+x,1/2+y,-z
1/2-x,1/2+y,z
1/2+x,1/2-y,z
loop_
_atom_site_type_symbol
_atom_site_label
_atom_site_fract_x
_atom_site_fract_y
_atom_site_fract_z
Si Si1 0.851488 0.316328 0.000000
Si Si2 0.394702 0.668441 0.331031
Si Si3 0.848653 0.680508 0.220725
Si Si4 0.108893 0.678378 0.440419
Si Si5 0.148549 0.183205 0.888787
O O1 0.750000 0.250000 0.000000
O O2 0.891851 0.252645 0.943946
O O3 0.849730 0.500000 0.000000
O O4 0.500000 0.652832 0.339813
O O5 0.357005 0.500000 0.317870
O O6 0.386277 0.778452 0.279551
O O7 0.357874 0.732202 0.387690
O O8 0.847487 0.500000 0.211484
O O9 0.750000 0.750000 0.223476
O O10 0.892439 0.761125 0.168204
O O11 0.136534 0.737658 0.500000
O O12 0.133622 0.500000 0.436220
O O13 0.000000 0.682474 0.439876
O O14 0.250000 0.250000 0.887537
O O15 0.150733 0.000000 0.891568
#
# Coordination Sequence:
#
# PCOD9482619 Si02
#       5
#     8  16  16  16  16
#     4  10  16  24  38  60  89 120 155 194 239 284
#     4  10  20  33  50  74 102 130 163 202 242 286
#     4  11  21  34  51  71  98 131 166 202 244 293
#     4   8  14  26  45  69  96 125 158 197 240 284
#     4  10  17  27  42  63  91 122 157 196 241 287
#
# _framework density 22.312208999999999
#
# number of rings (size 3 to 8) (size 9 to 14) (size 15 to 20)
#    0.000    2.222    0.000    9.000    0.000    1.778 
#    0.000    2.222    0.000    0.667    0.000    0.778 
#    0.000    6.222    0.000    0.000    0.000    0.000 
#
# Total GULP energy -200936.679060 kJ/mol
# GULP energy per Si atom -5581.574418 kJ/mol
# Density = 2.226143 g / cm^3
# Si number density = 22.312209 Si / 1000 Ang^3
#
#
#
# Elastic Constant Matrix: (Units=GPa)
#
#
# Indices 1 2 3 4 5 6 
#
# 1 42.9811 7.4564 11.9889 0.0000 0.0000 0.0000
# 2 7.4564 193.3106 82.3577 0.0000 0.0000 0.0000
# 3 11.9889 82.3577 206.6095 0.0000 0.0000 0.0000
# 4 0.0000 0.0000 0.0000 18.1053 0.0000 0.0000
# 5 0.0000 0.0000 0.0000 0.0000 11.3717 0.0000
# 6 0.0000 0.0000 0.0000 0.0000 0.0000 6.5042
#
#
#
# Elastic Compliance Matrix: (Units=1/GPa)
#
#
# Indices 1 2 3 4 5 6 
#
# 1 0.023674 -0.000395 -0.001216 0.000000 0.000000 0.000000
# 2 -0.000395 0.006238 -0.002464 0.000000 0.000000 0.000000
# 3 -0.001216 -0.002464 0.005893 0.000000 0.000000 0.000000
# 4 0.000000 0.000000 0.000000 0.055232 0.000000 0.000000
# 5 0.000000 0.000000 0.000000 0.000000 0.087937 0.000000
# 6 0.000000 0.000000 0.000000 0.000000 0.000000 0.153747
#
#
# Mechanical properties :
#
#
# Convention : Reuss Voigt Hill
#
# Bulk Modulus (GPa) = 36.16030 71.83414 53.99722
# Shear Modulus (GPa) = 14.28210 29.93614 22.10912
#
# Velocity S-wave (km/s) = 2.53277 3.66689 3.15127
# Velocity P-wave (km/s) = 4.97945 7.08470 6.12323
#
# Compressibility (1/GPa) = 0.02765464
#
# Stress axis : x y z
#
# Youngs Moduli (GPa) = 42.24079 160.31199 169.70311
#
# Poissons Ratio (x) = 0.06332 0.20641
# Poissons Ratio (y) = 0.01668 0.41808
# Poissons Ratio (z) = 0.05138 0.39494
#
# Static dielectric constant tensor:
#      x y z
#    x 1.902390 0.000000 0.000000 
#    y 0.000000 1.782500 0.000000 
#    z 0.000000 0.000000 1.898570 
# 
# From -- ./inp_files/64344.got.cif
#   From: 2010.05.17/outbox.cif.g08.bks.cpg/sg65_33_cif.got.tgz:64344.got - 2010.06.03 17:01:31.
