data_PCOD9482262
_publ_section_title
;
Structure prediction by ZEFSAII (Michael W. Deem and Ramdas Pophale) SiO2 
 PCOD9482262
Probable space group: C M C A
;
_chemical_formula_sum "Si O2"
_cell_formula_units_Z 88
_cell_length_a 19.848928
_cell_length_b 21.085292
_cell_length_c 8.966262
_cell_angle_alpha 90.000000
_cell_angle_beta 90.000000
_cell_angle_gamma 90.000000
_cell_volume 3752.563942
_symmetry_space_group_name_H-M "C M C A"
_symmetry_group_IT_number 64
_symmetry_cell_setting 'orthorhombic'
loop_
_space_group_symop_operation_xyz
x,y,z
-x,1/2-y,1/2+z
x,-y,-z
-x,1/2+y,1/2-z
-x,-y,-z
x,1/2+y,1/2-z
-x,y,z
x,1/2-y,1/2+z
1/2+x,1/2+y,z
1/2-x,-y,1/2+z
1/2+x,1/2-y,-z
1/2-x,y,1/2-z
1/2-x,1/2-y,-z
1/2+x,y,1/2-z
1/2-x,1/2+y,z
1/2+x,-y,1/2+z
loop_
_atom_site_type_symbol
_atom_site_label
_atom_site_fract_x
_atom_site_fract_y
_atom_site_fract_z
Si Si1 0.292358 0.817388 0.938209
Si Si2 0.000000 0.250695 0.083575
Si Si3 0.330603 0.118796 0.522898
Si Si4 0.000000 0.642749 0.188860
Si Si5 0.750000 0.465292 0.250000
Si Si6 0.136739 0.790673 0.258296
Si Si7 0.637235 0.068132 0.216509
O O1 0.328067 0.763886 0.839381
O O2 0.315351 0.882006 0.865033
O O3 0.211859 0.824475 0.943879
O O4 0.314806 0.812493 0.109288
O O5 0.000000 0.175636 0.143841
O O6 0.068784 0.271396 0.161258
O O7 0.000000 0.295244 0.928205
O O8 0.277993 0.076529 0.614587
O O9 0.377563 0.152620 0.642818
O O10 0.364215 0.078826 0.394305
O O11 0.936035 0.595377 0.165780
O O12 0.682618 0.504424 0.300581
#
# Coordination Sequence:
#
# PCOD9482262 Si02
#       7
#    16   8  16   8   8  16  16
#     4  12  23  45  69 113 151 189 244 315 392 454
#     4  12  24  46  71 104 159 203 241 306 391 481
#     4  12  26  46  74 112 147 197 255 327 383 448
#     4  12  28  50  72 116 157 209 248 316 395 465
#     4  12  26  52  80 106 146 210 270 318 374 438
#     4  12  24  41  72 107 155 193 246 310 394 471
#     4  12  26  45  79 105 152 202 256 313 378 452
#
# _framework density 23.450634000000001
#
# number of rings (size 3 to 8) (size 9 to 14) (size 15 to 20)
#    0.000    0.000    7.273    2.182    2.545    1.455 
#    0.000    2.727    0.000    2.182    0.000    0.000 
#    0.000    0.000    0.000    0.000    0.000    0.000 
#
# Total GULP energy -245485.331448 kJ/mol
# GULP energy per Si atom -5579.212078 kJ/mol
# Density = 2.339726 g / cm^3
# Si number density = 23.450634 Si / 1000 Ang^3
#
#
#
# Elastic Constant Matrix: (Units=GPa)
#
#
# Indices 1 2 3 4 5 6 
#
# 1 82.6517 14.8781 0.3843 0.0000 0.0000 0.0000
# 2 14.8781 80.6186 22.5219 0.0000 0.0000 0.0000
# 3 0.3843 22.5219 102.0917 0.0000 0.0000 0.0000
# 4 0.0000 0.0000 0.0000 42.8230 0.0000 0.0000
# 5 0.0000 0.0000 0.0000 0.0000 23.8904 0.0000
# 6 0.0000 0.0000 0.0000 0.0000 0.0000 8.1864
#
#
#
# Elastic Compliance Matrix: (Units=1/GPa)
#
#
# Indices 1 2 3 4 5 6 
#
# 1 0.012538 -0.002452 0.000494 0.000000 0.000000 0.000000
# 2 -0.002452 0.013698 -0.003013 0.000000 0.000000 0.000000
# 3 0.000494 -0.003013 0.010458 0.000000 0.000000 0.000000
# 4 0.000000 0.000000 0.000000 0.023352 0.000000 0.000000
# 5 0.000000 0.000000 0.000000 0.000000 0.041858 0.000000
# 6 0.000000 0.000000 0.000000 0.000000 0.000000 0.122154
#
#
# Mechanical properties :
#
#
# Convention : Reuss Voigt Hill
#
# Bulk Modulus (GPa) = 37.37965 37.88118 37.63041
# Shear Modulus (GPa) = 20.58319 30.15180 25.36749
#
# Velocity S-wave (km/s) = 2.96585 3.58963 3.29255
# Velocity P-wave (km/s) = 5.26334 5.77662 5.52594
#
# Compressibility (1/GPa) = 0.02675252
#
# Stress axis : x y z
#
# Youngs Moduli (GPa) = 79.75740 73.00238 95.62182
#
# Poissons Ratio (x) = 0.17899 -0.04721
# Poissons Ratio (y) = 0.19555 0.28807
# Poissons Ratio (z) = -0.03937 0.21993
#
# Static dielectric constant tensor:
#      x y z
#    x 1.925060 0.000000 0.000000 
#    y 0.000000 1.946870 0.000000 
#    z 0.000000 0.000000 1.930020 
# 
# From -- ./inp_files/8284.got.cif
#   From: 2010.05.17/outbox.cif.g08.bks.cpg/sg64_5_cif.got.tgz:8284.got - 2010.06.03 16:29:19.
