data_PCOD9482897
_publ_section_title
;
Structure prediction by ZEFSAII (Michael W. Deem and Ramdas Pophale) SiO2 
 PCOD9482897
Probable space group: C M M M
;
_chemical_formula_sum "Si O2"
_cell_formula_units_Z 96
_cell_length_a 25.765430
_cell_length_b 20.999564
_cell_length_c 11.461680
_cell_angle_alpha 90.000000
_cell_angle_beta 90.000000
_cell_angle_gamma 90.000000
_cell_volume 6201.488631
_symmetry_space_group_name_H-M "C M M M"
_symmetry_group_IT_number 65
_symmetry_cell_setting 'orthorhombic'
loop_
_space_group_symop_operation_xyz
x,y,z
-x,-y,z
x,-y,-z
-x,y,-z
-x,-y,-z
x,y,-z
-x,y,z
x,-y,z
1/2+x,1/2+y,z
1/2-x,1/2-y,z
1/2+x,1/2-y,-z
1/2-x,1/2+y,-z
1/2-x,1/2-y,-z
1/2+x,1/2+y,-z
1/2-x,1/2+y,z
1/2+x,1/2-y,z
loop_
_atom_site_type_symbol
_atom_site_label
_atom_site_fract_x
_atom_site_fract_y
_atom_site_fract_z
Si Si1 0.793887 0.300437 0.138542
Si Si2 0.903607 0.409954 0.364922
Si Si3 0.000000 0.432422 0.203036
Si Si4 0.000000 0.715937 0.862992
Si Si5 0.260922 0.146036 0.500000
Si Si6 0.211146 0.572187 0.728859
Si Si7 0.839663 0.766233 0.500000
Si Si8 0.602786 0.230296 0.717288
O O1 0.750000 0.250000 0.179851
O O2 0.780894 0.372957 0.174840
O O3 0.848509 0.283097 0.197926
O O4 0.798042 0.295379 0.000000
O O5 0.904954 0.428772 0.500000
O O6 0.849750 0.429003 0.305049
O O7 0.908204 0.333983 0.354854
O O8 0.950463 0.433498 0.286968
O O9 0.000000 0.500000 0.135136
O O10 0.000000 0.362439 0.142983
O O11 0.948729 0.740975 0.794446
O O12 0.000000 0.733262 0.000000
O O13 0.263542 0.101509 0.387224
O O14 0.208842 0.186612 0.500000
O O15 0.310087 0.196060 0.500000
O O16 0.227508 0.500000 0.756835
O O17 0.874676 0.775237 0.384474
#
# Coordination Sequence:
#
# PCOD9482897 Si02
#       8
#    16  16   8   8   8  16   8  16
#     4  10  20  34  51  69  93 130 175 214 246 290
#     4  10  17  29  41  60  88 119 157 201 247 285
#     4  10  21  29  40  58  80 118 167 213 245 280
#     4  10  22  35  48  62  90 128 162 207 256 298
#     4  11  19  30  50  74 100 121 157 193 258 300
#     4  11  20  30  46  68  97 129 160 203 252 302
#     4  11  18  31  54  74  92 124 156 209 244 302
#     4  10  18  32  49  71  92 121 163 206 254 297
#
# _framework density 15.480155
#
# number of rings (size 3 to 8) (size 9 to 14) (size 15 to 20)
#    0.000    1.667    5.000    2.500    0.000    2.167 
#    0.000    0.000    0.000    6.000    0.000    0.000 
#    0.000    0.000    0.000   30.750    0.000   61.250 
#
# Total GULP energy -267397.082137 kJ/mol
# GULP energy per Si atom -5570.772545 kJ/mol
# Density = 1.544492 g / cm^3
# Si number density = 15.480155 Si / 1000 Ang^3
#
#
#
# Elastic Constant Matrix: (Units=GPa)
#
#
# Indices 1 2 3 4 5 6 
#
# 1 94.5803 37.1994 48.1423 0.0000 0.0000 0.0000
# 2 37.1994 59.2505 25.3692 0.0000 0.0000 0.0000
# 3 48.1423 25.3692 85.4411 0.0000 0.0000 0.0000
# 4 0.0000 0.0000 0.0000 -10.9199 0.0000 0.0000
# 5 0.0000 0.0000 0.0000 0.0000 19.4035 0.0000
# 6 0.0000 0.0000 0.0000 0.0000 0.0000 27.2330
#
#
#
# Elastic Compliance Matrix: (Units=1/GPa)
#
#
# Indices 1 2 3 4 5 6 
#
# 1 0.017449 -0.007728 -0.007537 0.000000 0.000000 0.000000
# 2 -0.007728 0.022758 -0.002403 0.000000 0.000000 0.000000
# 3 -0.007537 -0.002403 0.016664 0.000000 0.000000 0.000000
# 4 0.000000 0.000000 0.000000 -0.091576 0.000000 0.000000
# 5 0.000000 0.000000 0.000000 0.000000 0.051537 0.000000
# 6 0.000000 0.000000 0.000000 0.000000 0.000000 0.036720
#
#
# Mechanical properties :
#
#
# Convention : Reuss Voigt Hill
#
# Bulk Modulus (GPa) = 46.43527 51.18817 48.81172
# Shear Modulus (GPa) = 52.04679 15.71406 33.88043
#
# Velocity S-wave (km/s) = 5.80471 3.18954 4.68336
# Velocity P-wave (km/s) = 8.65956 6.83395 7.80035
#
# Compressibility (1/GPa) = 0.02153535
#
# Stress axis : x y z
#
# Youngs Moduli (GPa) = 57.30999 43.94023 60.00831
#
# Poissons Ratio (x) = 0.33956 0.45229
# Poissons Ratio (y) = 0.44288 0.14420
# Poissons Ratio (z) = 0.43196 0.10559
#
# Static dielectric constant tensor:
#      x y z
#    x 1.533410 0.000000 0.000000 
#    y 0.000000 1.538630 0.000000 
#    z 0.000000 0.000000 1.522070 
# 
# From -- ./inp_files/31024.got.cif
#   From: 2010.05.17/outbox.cif.g08.bks.cpg/sg65_16_cif.got.tgz:31024.got - 2010.06.03 17:01:31.
