data_PCOD9482084
_publ_section_title
;
Structure prediction by ZEFSAII (Michael W. Deem and Ramdas Pophale) SiO2 
 PCOD9482084
Probable space group: C M C A
;
_chemical_formula_sum "Si O2"
_cell_formula_units_Z 64
_cell_length_a 32.568240
_cell_length_b 10.413123
_cell_length_c 9.518934
_cell_angle_alpha 90.000000
_cell_angle_beta 90.000000
_cell_angle_gamma 90.000000
_cell_volume 3228.223567
_symmetry_space_group_name_H-M "C M C A"
_symmetry_group_IT_number 64
_symmetry_cell_setting 'orthorhombic'
loop_
_space_group_symop_operation_xyz
x,y,z
-x,1/2-y,1/2+z
x,-y,-z
-x,1/2+y,1/2-z
-x,-y,-z
x,1/2+y,1/2-z
-x,y,z
x,1/2-y,1/2+z
1/2+x,1/2+y,z
1/2-x,-y,1/2+z
1/2+x,1/2-y,-z
1/2-x,y,1/2-z
1/2-x,1/2-y,-z
1/2+x,y,1/2-z
1/2-x,1/2+y,z
1/2+x,-y,1/2+z
loop_
_atom_site_type_symbol
_atom_site_label
_atom_site_fract_x
_atom_site_fract_y
_atom_site_fract_z
Si Si1 0.452571 0.527545 0.666401
Si Si2 0.402830 0.279483 0.747654
Si Si3 0.859199 0.855384 0.004039
Si Si4 0.265089 0.127059 0.587260
O O1 0.451830 0.500000 0.500000
O O2 0.500000 0.534325 0.712248
O O3 0.429239 0.408823 0.738959
O O4 0.429733 0.660856 0.697023
O O5 0.386823 0.237587 0.596447
O O6 0.363185 0.303083 0.846492
O O7 0.814487 0.866368 0.073198
O O8 0.876073 0.000000 0.000000
O O9 0.250000 0.125070 0.750000
O O10 0.250000 0.250000 0.500000
O O11 0.251733 0.000000 0.500000
#
# Coordination Sequence:
#
# PCOD9482084 Si02
#       4
#    16  16  16  16
#     4  11  24  41  64  96 132 172 219 271 325 384
#     4  12  22  43  64  95 130 172 217 268 322 382
#     4  11  24  41  66  95 132 165 214 266 325 390
#     4  11  24  45  68 100 134 174 221 274 336 407
#
# _framework density 19.825144999999999
#
# number of rings (size 3 to 8) (size 9 to 14) (size 15 to 20)
#    0.000    0.750    5.000    3.000    0.000    2.000 
#    4.500    1.250    0.000    0.000    0.000    0.000 
#    0.000    0.000    0.000    0.000    0.000    0.000 
#
# Total GULP energy -178682.574462 kJ/mol
# GULP energy per Si atom -5583.830452 kJ/mol
# Density = 1.978002 g / cm^3
# Si number density = 19.825145 Si / 1000 Ang^3
#
#
#
# Elastic Constant Matrix: (Units=GPa)
#
#
# Indices 1 2 3 4 5 6 
#
# 1 68.1604 40.7392 30.9278 0.0000 0.0000 0.0000
# 2 40.7392 154.3036 57.7732 0.0000 0.0000 0.0000
# 3 30.9278 57.7732 111.4718 0.0000 0.0000 0.0000
# 4 0.0000 0.0000 0.0000 30.0902 0.0000 0.0000
# 5 0.0000 0.0000 0.0000 0.0000 21.7150 0.0000
# 6 0.0000 0.0000 0.0000 0.0000 0.0000 31.7391
#
#
#
# Elastic Compliance Matrix: (Units=1/GPa)
#
#
# Indices 1 2 3 4 5 6 
#
# 1 0.018292 -0.003634 -0.003191 0.000000 0.000000 0.000000
# 2 -0.003634 0.008763 -0.003533 0.000000 0.000000 0.000000
# 3 -0.003191 -0.003533 0.011688 0.000000 0.000000 0.000000
# 4 0.000000 0.000000 0.000000 0.033233 0.000000 0.000000
# 5 0.000000 0.000000 0.000000 0.000000 0.046051 0.000000
# 6 0.000000 0.000000 0.000000 0.000000 0.000000 0.031507
#
#
# Mechanical properties :
#
#
# Convention : Reuss Voigt Hill
#
# Bulk Modulus (GPa) = 55.48143 65.86847 60.67495
# Shear Modulus (GPa) = 28.36713 30.34190 29.35452
#
# Velocity S-wave (km/s) = 3.78678 3.91637 3.85212
# Velocity P-wave (km/s) = 6.86773 7.33127 7.10328
#
# Compressibility (1/GPa) = 0.01802405
#
# Stress axis : x y z
#
# Youngs Moduli (GPa) = 54.66970 114.11283 85.56074
#
# Poissons Ratio (x) = 0.41474 0.27305
# Poissons Ratio (y) = 0.19870 0.30232
# Poissons Ratio (z) = 0.17447 0.40321
#
# Static dielectric constant tensor:
#      x y z
#    x 1.714190 0.000000 0.000000 
#    y 0.000000 1.640420 0.000000 
#    z 0.000000 0.000000 1.694780 
# 
# From -- ./inp_files/10852.got.cif
#   From: 2010.05.17/outbox.cif.g08.bks.cpg/sg64_6_cif.got.tgz:10852.got - 2010.06.03 16:29:19.
