data_PCOD9482213
_publ_section_title
;
Structure prediction by ZEFSAII (Michael W. Deem and Ramdas Pophale) SiO2 
 PCOD9482213
Probable space group: C M C A
;
_chemical_formula_sum "Si O2"
_cell_formula_units_Z 48
_cell_length_a 15.146768
_cell_length_b 18.217122
_cell_length_c 7.673317
_cell_angle_alpha 90.000000
_cell_angle_beta 90.000000
_cell_angle_gamma 90.000000
_cell_volume 2117.302354
_symmetry_space_group_name_H-M "C M C A"
_symmetry_group_IT_number 64
_symmetry_cell_setting 'orthorhombic'
loop_
_space_group_symop_operation_xyz
x,y,z
-x,1/2-y,1/2+z
x,-y,-z
-x,1/2+y,1/2-z
-x,-y,-z
x,1/2+y,1/2-z
-x,y,z
x,1/2-y,1/2+z
1/2+x,1/2+y,z
1/2-x,-y,1/2+z
1/2+x,1/2-y,-z
1/2-x,y,1/2-z
1/2-x,1/2-y,-z
1/2+x,y,1/2-z
1/2-x,1/2+y,z
1/2+x,-y,1/2+z
loop_
_atom_site_type_symbol
_atom_site_label
_atom_site_fract_x
_atom_site_fract_y
_atom_site_fract_z
Si Si1 0.000000 0.720754 0.654869
Si Si2 0.500000 0.634258 0.495360
Si Si3 0.201254 0.323972 0.434899
Si Si4 0.750000 0.566594 0.250000
Si Si5 0.372469 0.000000 0.000000
O O1 0.000000 0.809701 0.663824
O O2 0.095671 0.692540 0.582903
O O3 0.000000 0.691093 0.849642
O O4 0.578624 0.577427 0.509755
O O5 0.250000 0.341495 0.250000
O O6 0.250000 0.250000 0.500000
O O7 0.218638 0.384079 0.586485
O O8 0.677153 0.511694 0.321062
#
# Coordination Sequence:
#
# PCOD9482213 Si02
#       5
#     8   8  16   8   8
#     4  12  26  47  82 114 154 206 266 333 402 468
#     4  11  28  49  76 114 155 203 269 326 398 481
#     4  12  26  48  78 124 157 206 269 334 401 475
#     4  12  28  48  78 110 164 210 266 328 400 484
#     4  11  28  52  74 111 164 210 258 331 404 485
#
# _framework density 22.670356999999999
#
# number of rings (size 3 to 8) (size 9 to 14) (size 15 to 20)
#    0.000    0.333    1.667    6.000   11.667    1.333 
#    0.000    1.667    0.000    0.000    0.000    0.000 
#    0.000    0.000    0.000    0.000    0.000    0.000 
#
# Total GULP energy -134044.930031 kJ/mol
# GULP energy per Si atom -5585.205418 kJ/mol
# Density = 2.261876 g / cm^3
# Si number density = 22.670357 Si / 1000 Ang^3
#
#
#
# Elastic Constant Matrix: (Units=GPa)
#
#
# Indices 1 2 3 4 5 6 
#
# 1 168.3867 55.8826 66.4206 0.0000 0.0000 0.0000
# 2 55.8826 172.6733 77.5855 0.0000 0.0000 0.0000
# 3 66.4206 77.5855 148.7387 0.0000 0.0000 0.0000
# 4 0.0000 0.0000 0.0000 63.1008 0.0000 0.0000
# 5 0.0000 0.0000 0.0000 0.0000 31.2772 0.0000
# 6 0.0000 0.0000 0.0000 0.0000 0.0000 46.0003
#
#
#
# Elastic Compliance Matrix: (Units=1/GPa)
#
#
# Indices 1 2 3 4 5 6 
#
# 1 0.007390 -0.001187 -0.002681 0.000000 0.000000 0.000000
# 2 -0.001187 0.007755 -0.003515 0.000000 0.000000 0.000000
# 3 -0.002681 -0.003515 0.009754 0.000000 0.000000 0.000000
# 4 0.000000 0.000000 0.000000 0.015848 0.000000 0.000000
# 5 0.000000 0.000000 0.000000 0.000000 0.031972 0.000000
# 6 0.000000 0.000000 0.000000 0.000000 0.000000 0.021739
#
#
# Mechanical properties :
#
#
# Convention : Reuss Voigt Hill
#
# Bulk Modulus (GPa) = 98.68882 98.84177 98.76529
# Shear Modulus (GPa) = 44.40443 47.40299 45.90371
#
# Velocity S-wave (km/s) = 4.43052 4.57767 4.50470
# Velocity P-wave (km/s) = 8.35460 8.46371 8.40933
#
# Compressibility (1/GPa) = 0.01013286
#
# Stress axis : x y z
#
# Youngs Moduli (GPa) = 135.31481 128.95211 102.52322
#
# Poissons Ratio (x) = 0.15308 0.27486
# Poissons Ratio (y) = 0.16063 0.36037
# Poissons Ratio (z) = 0.36277 0.45326
#
# Static dielectric constant tensor:
#      x y z
#    x 2.131310 0.000000 0.000000 
#    y 0.000000 1.854890 0.000000 
#    z 0.000000 0.000000 1.826560 
# 
# From -- ./inp_files/5156.got.cif
#   From: 2010.05.17/outbox.cif.g08.bks.cpg/sg64_3_cif.got.tgz:5156.got - 2010.06.03 16:29:19.
