data_PCOD9482335
_publ_section_title
;
Structure prediction by ZEFSAII (Michael W. Deem and Ramdas Pophale) SiO2 
 PCOD9482335
Probable space group: C M C A
;
_chemical_formula_sum "Si O2"
_cell_formula_units_Z 80
_cell_length_a 17.440568
_cell_length_b 27.753477
_cell_length_c 7.036371
_cell_angle_alpha 90.000000
_cell_angle_beta 90.000000
_cell_angle_gamma 90.000000
_cell_volume 3405.859708
_symmetry_space_group_name_H-M "C M C A"
_symmetry_group_IT_number 64
_symmetry_cell_setting 'orthorhombic'
loop_
_space_group_symop_operation_xyz
x,y,z
-x,1/2-y,1/2+z
x,-y,-z
-x,1/2+y,1/2-z
-x,-y,-z
x,1/2+y,1/2-z
-x,y,z
x,1/2-y,1/2+z
1/2+x,1/2+y,z
1/2-x,-y,1/2+z
1/2+x,1/2-y,-z
1/2-x,y,1/2-z
1/2-x,1/2-y,-z
1/2+x,y,1/2-z
1/2-x,1/2+y,z
1/2+x,-y,1/2+z
loop_
_atom_site_type_symbol
_atom_site_label
_atom_site_fract_x
_atom_site_fract_y
_atom_site_fract_z
Si Si1 0.659864 0.515143 0.278405
Si Si2 0.088006 0.816820 0.105122
Si Si3 0.591573 0.611993 0.366180
Si Si4 0.658727 0.410912 0.217839
Si Si5 0.911911 0.787231 0.545658
O O1 0.648549 0.500000 0.500000
O O2 0.750000 0.523959 0.250000
O O3 0.618410 0.565807 0.247430
O O4 0.638805 0.466141 0.166299
O O5 0.119403 0.667417 0.166564
O O6 0.085085 0.806276 0.331351
O O7 0.000000 0.823592 0.037750
O O8 0.123097 0.766148 0.034621
O O9 0.500000 0.614191 0.363477
O O10 0.619448 0.599148 0.579021
O O11 0.750000 0.409505 0.250000
O O12 0.632859 0.366815 0.085336
O O13 0.000000 0.778590 0.611297
#
# Coordination Sequence:
#
# PCOD9482335 Si02
#       5
#    16  16  16  16  16
#     4   9  18  32  50  71  98 129 159 198 248 294
#     4   9  16  29  47  65  90 124 160 194 234 284
#     4   9  17  31  52  74  95 125 169 206 233 284
#     4   9  17  29  45  69  99 124 151 198 246 283
#     4   8  15  28  46  68  92 120 156 200 241 277
#
# _framework density 23.488931999999998
#
# number of rings (size 3 to 8) (size 9 to 14) (size 15 to 20)
#    0.000    3.200    0.000    1.800    0.000    4.400 
#    0.000   11.000    0.000    0.600    0.000    4.200 
#    0.000    0.000    0.000    0.000    0.000    0.000 
#
# Total GULP energy -223060.220163 kJ/mol
# GULP energy per Si atom -5576.505504 kJ/mol
# Density = 2.343547 g / cm^3
# Si number density = 23.488932 Si / 1000 Ang^3
#
#
#
# Elastic Constant Matrix: (Units=GPa)
#
#
# Indices 1 2 3 4 5 6 
#
# 1 33.6705 68.4777 10.1036 0.0000 0.0000 0.0000
# 2 68.4777 290.9475 42.9526 0.0000 0.0000 0.0000
# 3 10.1036 42.9526 67.0526 0.0000 0.0000 0.0000
# 4 0.0000 0.0000 0.0000 49.5880 0.0000 0.0000
# 5 0.0000 0.0000 0.0000 0.0000 14.3448 0.0000
# 6 0.0000 0.0000 0.0000 0.0000 0.0000 33.7723
#
#
#
# Elastic Compliance Matrix: (Units=1/GPa)
#
#
# Indices 1 2 3 4 5 6 
#
# 1 0.056969 -0.013409 0.000005 0.000000 0.000000 0.000000
# 2 -0.013409 0.006952 -0.002433 0.000000 0.000000 0.000000
# 3 0.000005 -0.002433 0.016471 0.000000 0.000000 0.000000
# 4 0.000000 0.000000 0.000000 0.020166 0.000000 0.000000
# 5 0.000000 0.000000 0.000000 0.000000 0.069712 0.000000
# 6 0.000000 0.000000 0.000000 0.000000 0.000000 0.029610
#
#
# Mechanical properties :
#
#
# Convention : Reuss Voigt Hill
#
# Bulk Modulus (GPa) = 20.52578 70.52648 45.52613
# Shear Modulus (GPa) = 20.17813 37.55012 28.86412
#
# Velocity S-wave (km/s) = 2.93413 4.00263 3.50928
# Velocity P-wave (km/s) = 4.49848 7.17300 5.98700
#
# Compressibility (1/GPa) = 0.04871922
#
# Stress axis : x y z
#
# Youngs Moduli (GPa) = 17.55349 143.83965 60.71150
#
# Poissons Ratio (x) = 1.92875 -0.00033
# Poissons Ratio (y) = 0.23538 0.14771
# Poissons Ratio (z) = -0.00010 0.34996
#
# Static dielectric constant tensor:
#      x y z
#    x 1.833110 0.000000 0.000000 
#    y 0.000000 1.993440 0.000000 
#    z 0.000000 0.000000 1.983610 
# 
# From -- ./inp_files/7256.got.cif
#   From: 2010.05.17/outbox.cif.g08.bks.cpg/sg64_4_cif.got.tgz:7256.got - 2010.06.03 16:29:19.
