data_PCOD9482390
_publ_section_title
;
Structure prediction by ZEFSAII (Michael W. Deem and Ramdas Pophale) SiO2 
 PCOD9482390
Probable space group: C M C A
;
_chemical_formula_sum "Si O2"
_cell_formula_units_Z 48
_cell_length_a 9.000000
_cell_length_b 21.000000
_cell_length_c 27.000000
_cell_angle_alpha 90.000000
_cell_angle_beta 90.000000
_cell_angle_gamma 90.000000
_cell_volume 5103.000000
_symmetry_space_group_name_H-M "C M C A"
_symmetry_group_IT_number 64
_symmetry_cell_setting 'orthorhombic'
loop_
_space_group_symop_operation_xyz
x,y,z
-x,1/2-y,1/2+z
x,-y,-z
-x,1/2+y,1/2-z
-x,-y,-z
x,1/2+y,1/2-z
-x,y,z
x,1/2-y,1/2+z
1/2+x,1/2+y,z
1/2-x,-y,1/2+z
1/2+x,1/2-y,-z
1/2-x,y,1/2-z
1/2-x,1/2-y,-z
1/2+x,y,1/2-z
1/2-x,1/2+y,z
1/2+x,-y,1/2+z
loop_
_atom_site_type_symbol
_atom_site_label
_atom_site_fract_x
_atom_site_fract_y
_atom_site_fract_z
Si Si1 0.172020 0.402217 0.949405
Si Si2 0.178645 0.732290 0.097896
Si Si3 0.321668 0.295390 0.801773
Si Si4 0.822887 0.445328 0.699461
Si Si5 0.322207 0.018405 0.600621
Si Si6 0.828059 0.142781 0.562409
O O1 0.223790 0.338085 0.921285
O O2 0.265353 0.465145 0.938048
O O3 0.000000 0.414806 0.935200
O O4 0.175710 0.383535 0.006654
O O5 0.246385 0.739733 0.152446
O O6 0.243866 0.790141 0.066059
O O7 0.000000 0.734501 0.097764
O O8 0.500000 0.288672 0.801690
O O9 0.250000 0.274889 0.750000
O O10 0.284348 0.370814 0.807722
O O11 0.750000 0.467575 0.750000
O O12 0.778073 0.487373 0.652995
O O13 0.000000 0.448047 0.703904
O O14 0.500000 0.023639 0.597605
O O15 0.249502 0.087091 0.593623
O O16 0.000000 0.151691 0.576871
#
# Coordination Sequence:
#
# PCOD9482390 Si02
#       6
#    16  16  16  16  16  16
#     4  10  22  39  60  85 114 151 197 241 287 343
#     4  11  22  38  60  87 116 152 194 240 290 344
#     4  10  19  35  58  87 117 149 188 236 287 339
#     4   9  19  34  56  85 114 145 185 232 281 335
#     4  11  22  38  59  87 118 151 192 238 288 345
#     4  11  24  40  57  82 118 157 194 239 291 345
#
# _framework density 9.4062319999999993
#
# number of rings (size 3 to 8) (size 9 to 14) (size 15 to 20)
#    0.000    1.667    1.667    3.000    0.000    6.000 
#    0.000    0.833    0.000    2.000    0.000    0.000 
#    0.000    0.000    0.000    0.000    0.000    0.000 
#
# Total GULP energy -268040.361845 kJ/mol
# GULP energy per Si atom -5584.174205 kJ/mol
# Density = 0.938482 g / cm^3
# Si number density = 9.406232 Si / 1000 Ang^3
#
#
#
# Elastic Constant Matrix: (Units=GPa)
#
#
# Indices 1 2 3 4 5 6 
#
# 1 47.5692 13.4175 9.0635 0.0000 0.0000 0.0000
# 2 13.4175 34.9777 -10.1792 0.0000 0.0000 0.0000
# 3 9.0635 -10.1792 48.2645 0.0000 0.0000 0.0000
# 4 0.0000 0.0000 0.0000 -1.5223 0.0000 0.0000
# 5 0.0000 0.0000 0.0000 0.0000 27.6600 0.0000
# 6 0.0000 0.0000 0.0000 0.0000 0.0000 26.3085
#
#
#
# Elastic Compliance Matrix: (Units=1/GPa)
#
#
# Indices 1 2 3 4 5 6 
#
# 1 0.025833 -0.012062 -0.007395 0.000000 0.000000 0.000000
# 2 -0.012062 0.036091 0.009877 0.000000 0.000000 0.000000
# 3 -0.007395 0.009877 0.024191 0.000000 0.000000 0.000000
# 4 0.000000 0.000000 0.000000 -0.656904 0.000000 0.000000
# 5 0.000000 0.000000 0.000000 0.000000 0.036153 0.000000
# 6 0.000000 0.000000 0.000000 0.000000 0.000000 0.038011
#
#
# Mechanical properties :
#
#
# Convention : Reuss Voigt Hill
#
# Bulk Modulus (GPa) = 14.93541 17.26834 16.10188
# Shear Modulus (GPa) = -10.98546 18.38988 3.70221
#
# Velocity S-wave (km/s) = -2.41912 3.12995 1.40436
# Velocity P-wave (km/s) = 0.39178 4.71818 3.34774
#
# Compressibility (1/GPa) = 0.06695496
#
# Stress axis : x y z
#
# Youngs Moduli (GPa) = 38.70981 27.70780 41.33775
#
# Poissons Ratio (x) = 0.33421 0.30570
# Poissons Ratio (y) = 0.46691 -0.40829
# Poissons Ratio (z) = 0.28626 -0.27367
#
# Static dielectric constant tensor:
#      x y z
#    x 1.638750 0.000000 0.000000 
#    y 0.000000 1.627630 0.000000 
#    z 0.000000 0.000000 1.688230 
# 
# From -- ./inp_files/48065.got.cif
#   From: 2010.05.17/outbox.ucp.g08.bks.cvg/sg64_25_cif.got.tgz:48065.got - 2010.06.11 16:36:46.
