data_PCOD9482883
_publ_section_title
;
Structure prediction by ZEFSAII (Michael W. Deem and Ramdas Pophale) SiO2 
 PCOD9482883
Probable space group: C M M M
;
_chemical_formula_sum "Si O2"
_cell_formula_units_Z 88
_cell_length_a 25.627971
_cell_length_b 23.440247
_cell_length_c 7.709259
_cell_angle_alpha 90.000000
_cell_angle_beta 90.000000
_cell_angle_gamma 90.000000
_cell_volume 4631.152093
_symmetry_space_group_name_H-M "C M M M"
_symmetry_group_IT_number 65
_symmetry_cell_setting 'orthorhombic'
loop_
_space_group_symop_operation_xyz
x,y,z
-x,-y,z
x,-y,-z
-x,y,-z
-x,-y,-z
x,y,-z
-x,y,z
x,-y,z
1/2+x,1/2+y,z
1/2-x,1/2-y,z
1/2+x,1/2-y,-z
1/2-x,1/2+y,-z
1/2-x,1/2-y,-z
1/2+x,1/2+y,-z
1/2-x,1/2+y,z
1/2+x,1/2-y,z
loop_
_atom_site_type_symbol
_atom_site_label
_atom_site_fract_x
_atom_site_fract_y
_atom_site_fract_z
Si Si1 0.560152 0.000000 0.212636
Si Si2 0.647507 0.564685 0.791761
Si Si3 0.940997 0.283751 0.708921
Si Si4 0.941382 0.845128 0.708378
Si Si5 0.872655 0.608420 0.207216
Si Si6 0.236625 0.566994 0.210592
O O1 0.590964 0.943514 0.271150
O O2 0.500000 0.000000 0.268526
O O3 0.559921 0.000000 0.000000
O O4 0.636941 0.500000 0.728493
O O5 0.602115 0.608860 0.751942
O O6 0.705259 0.582740 0.727703
O O7 0.650930 0.561409 0.000000
O O8 0.942237 0.282555 0.500000
O O9 0.928988 0.219313 0.769651
O O10 0.899923 0.331511 0.759915
O O11 0.000000 0.298388 0.768695
O O12 0.943778 0.842553 0.500000
O O13 0.000000 0.859944 0.770645
O O14 0.813592 0.601503 0.274656
O O15 0.869731 0.600951 0.000000
O O16 0.228455 0.500000 0.250328
O O17 0.237519 0.571464 0.000000
#
# Coordination Sequence:
#
# PCOD9482883 Si02
#       6
#     8  16  16  16  16  16
#     4   9  16  24  39  69 101 121 150 201 244 272
#     4   9  18  32  52  77 102 125 153 193 240 288
#     4   9  19  35  50  65  93 131 164 198 243 289
#     4   9  19  36  54  70  93 128 164 195 235 290
#     4  10  17  28  49  73  95 125 165 203 237 278
#     4   8  14  28  48  70  98 131 160 190 236 287
#
# _framework density 19.001750999999999
#
# number of rings (size 3 to 8) (size 9 to 14) (size 15 to 20)
#    0.000    3.000    0.909    2.727    0.000    2.909 
#    0.000    5.909    0.000    8.182    0.000    0.000 
#    0.000    0.000    0.000    0.000    0.000    0.000 
#
# Total GULP energy -245263.784190 kJ/mol
# GULP energy per Si atom -5574.176913 kJ/mol
# Density = 1.895850 g / cm^3
# Si number density = 19.001751 Si / 1000 Ang^3
#
#
#
# Elastic Constant Matrix: (Units=GPa)
#
#
# Indices 1 2 3 4 5 6 
#
# 1 212.0017 137.3699 8.4290 0.0000 0.0000 0.0000
# 2 137.3699 133.1440 3.1136 0.0000 0.0000 0.0000
# 3 8.4290 3.1136 25.7246 0.0000 0.0000 0.0000
# 4 0.0000 0.0000 0.0000 26.3767 0.0000 0.0000
# 5 0.0000 0.0000 0.0000 0.0000 33.0178 0.0000
# 6 0.0000 0.0000 0.0000 0.0000 0.0000 28.9705
#
#
#
# Elastic Compliance Matrix: (Units=1/GPa)
#
#
# Indices 1 2 3 4 5 6 
#
# 1 0.014449 -0.014838 -0.002938 0.000000 0.000000 0.000000
# 2 -0.014838 0.022771 0.002106 0.000000 0.000000 0.000000
# 3 -0.002938 0.002106 0.039581 0.000000 0.000000 0.000000
# 4 0.000000 0.000000 0.000000 0.037912 0.000000 0.000000
# 5 0.000000 0.000000 0.000000 0.000000 0.030287 0.000000
# 6 0.000000 0.000000 0.000000 0.000000 0.000000 0.034518
#
#
# Mechanical properties :
#
#
# Convention : Reuss Voigt Hill
#
# Bulk Modulus (GPa) = 21.99785 74.29948 48.14866
# Shear Modulus (GPa) = 22.12271 32.47019 27.29645
#
# Velocity S-wave (km/s) = 3.41581 4.13825 3.79426
# Velocity P-wave (km/s) = 5.21142 7.87526 6.67752
#
# Compressibility (1/GPa) = 0.04545899
#
# Stress axis : x y z
#
# Youngs Moduli (GPa) = 69.21086 43.91577 25.26453
#
# Poissons Ratio (x) = 0.65164 0.07423
# Poissons Ratio (y) = 1.02698 -0.05321
# Poissons Ratio (z) = 0.20336 -0.09248
#
# Static dielectric constant tensor:
#      x y z
#    x 1.674070 0.000000 0.000000 
#    y 0.000000 1.635810 0.000000 
#    z 0.000000 0.000000 1.716340 
# 
# From -- ./inp_files/11714.got.cif
#   From: 2010.05.17/outbox.cif.g08.bks.cpg/sg65_6_cif.got.tgz:11714.got - 2010.06.03 17:01:31.
