data_PCOD9482002
_publ_section_title
;
Structure prediction by ZEFSAII (Michael W. Deem and Ramdas Pophale) SiO2 
 PCOD9482002
Probable space group: C M C A
;
_chemical_formula_sum "Si O2"
_cell_formula_units_Z 64
_cell_length_a 17.199530
_cell_length_b 10.232056
_cell_length_c 15.724067
_cell_angle_alpha 90.000000
_cell_angle_beta 90.000000
_cell_angle_gamma 90.000000
_cell_volume 2767.224368
_symmetry_space_group_name_H-M "C M C A"
_symmetry_group_IT_number 64
_symmetry_cell_setting 'orthorhombic'
loop_
_space_group_symop_operation_xyz
x,y,z
-x,1/2-y,1/2+z
x,-y,-z
-x,1/2+y,1/2-z
-x,-y,-z
x,1/2+y,1/2-z
-x,y,z
x,1/2-y,1/2+z
1/2+x,1/2+y,z
1/2-x,-y,1/2+z
1/2+x,1/2-y,-z
1/2-x,y,1/2-z
1/2-x,1/2-y,-z
1/2+x,y,1/2-z
1/2-x,1/2+y,z
1/2+x,-y,1/2+z
loop_
_atom_site_type_symbol
_atom_site_label
_atom_site_fract_x
_atom_site_fract_y
_atom_site_fract_z
Si Si1 0.409565 0.388110 0.617935
Si Si2 0.086846 0.540585 0.400306
Si Si3 0.703917 0.831169 0.336334
Si Si4 0.362204 0.830745 0.077453
O O1 0.500000 0.360966 0.634641
O O2 0.350498 0.296152 0.667873
O O3 0.390046 0.352439 0.519363
O O4 0.392120 0.541560 0.627285
O O5 0.091144 0.500000 0.500000
O O6 0.150145 0.454972 0.353242
O O7 0.103108 0.693853 0.392602
O O8 0.000000 0.509877 0.370122
O O9 0.750000 0.844373 0.250000
O O10 0.769289 0.823829 0.410194
#
# Coordination Sequence:
#
# PCOD9482002 Si02
#       4
#    16  16  16  16
#     4  11  23  44  71 102 139 183 239 296 352 422
#     4  11  23  43  73 106 140 185 242 299 356 421
#     4  12  27  45  67 103 147 192 234 291 365 434
#     4  11  23  41  72 107 137 183 240 295 353 421
#
# _framework density 23.127869
#
# number of rings (size 3 to 8) (size 9 to 14) (size 15 to 20)
#    0.000    0.750    2.500    6.000    3.500    4.000 
#    0.000   10.000    0.000    0.000    0.000    0.000 
#    0.000    0.000    0.000    0.000    0.000    0.000 
#
# Total GULP energy -179403.811178 kJ/mol
# GULP energy per Si atom -5606.369099 kJ/mol
# Density = 2.307523 g / cm^3
# Si number density = 23.127869 Si / 1000 Ang^3
#
#
#
# Elastic Constant Matrix: (Units=GPa)
#
#
# Indices 1 2 3 4 5 6 
#
# 1 208.7406 64.0262 47.4876 0.0000 0.0000 0.0000
# 2 64.0262 117.4526 29.9652 0.0000 0.0000 0.0000
# 3 47.4876 29.9652 61.1343 0.0000 0.0000 0.0000
# 4 0.0000 0.0000 0.0000 16.8012 0.0000 0.0000
# 5 0.0000 0.0000 0.0000 0.0000 186.4863 0.0000
# 6 0.0000 0.0000 0.0000 0.0000 0.0000 -320.1804
#
#
#
# Elastic Compliance Matrix: (Units=1/GPa)
#
#
# Indices 1 2 3 4 5 6 
#
# 1 0.006423 -0.002547 -0.003741 0.000000 0.000000 0.000000
# 2 -0.002547 0.010741 -0.003286 0.000000 0.000000 0.000000
# 3 -0.003741 -0.003286 0.020874 0.000000 0.000000 0.000000
# 4 0.000000 0.000000 0.000000 0.059520 0.000000 0.000000
# 5 0.000000 0.000000 0.000000 0.000000 0.005362 0.000000
# 6 0.000000 0.000000 0.000000 0.000000 0.000000 -0.003123
#
#
# Mechanical properties :
#
#
# Convention : Reuss Voigt Hill
#
# Bulk Modulus (GPa) = 52.93868 74.47617 63.70743
# Shear Modulus (GPa) = 39.92308 -6.98867 16.46721
#
# Velocity S-wave (km/s) = 4.15925 -1.74020 2.67124
# Velocity P-wave (km/s) = 6.78270 5.31357 6.09258
#
# Compressibility (1/GPa) = 0.01888978
#
# Stress axis : x y z
#
# Youngs Moduli (GPa) = 155.69460 93.10244 47.90660
#
# Poissons Ratio (x) = 0.23712 0.17921
# Poissons Ratio (y) = 0.39654 0.15744
# Poissons Ratio (z) = 0.58241 0.30596
#
# Static dielectric constant tensor:
#      x y z
#    x 1.818410 0.000000 0.000000 
#    y 0.000000 1.828960 0.000000 
#    z 0.000000 0.000000 1.914210 
# 
# From -- ./inp_files/31660.got.cif
#   From: 2010.05.17/outbox.cif.g08.bks.cpg/sg64_16_cif.got.tgz:31660.got - 2010.06.03 16:29:19.
