data_PCOD9482459
_publ_section_title
;
Structure prediction by ZEFSAII (Michael W. Deem and Ramdas Pophale) SiO2 
 PCOD9482459
Probable space group: C M C A
;
_chemical_formula_sum "Si O2"
_cell_formula_units_Z 52
_cell_length_a 9.000000
_cell_length_b 27.000000
_cell_length_c 21.000000
_cell_angle_alpha 90.000000
_cell_angle_beta 90.000000
_cell_angle_gamma 90.000000
_cell_volume 5103.000000
_symmetry_space_group_name_H-M "C M C A"
_symmetry_group_IT_number 64
_symmetry_cell_setting 'orthorhombic'
loop_
_space_group_symop_operation_xyz
x,y,z
-x,1/2-y,1/2+z
x,-y,-z
-x,1/2+y,1/2-z
-x,-y,-z
x,1/2+y,1/2-z
-x,y,z
x,1/2-y,1/2+z
1/2+x,1/2+y,z
1/2-x,-y,1/2+z
1/2+x,1/2-y,-z
1/2-x,y,1/2-z
1/2-x,1/2-y,-z
1/2+x,y,1/2-z
1/2-x,1/2+y,z
1/2+x,-y,1/2+z
loop_
_atom_site_type_symbol
_atom_site_label
_atom_site_fract_x
_atom_site_fract_y
_atom_site_fract_z
Si Si1 0.169452 0.007827 0.073975
Si Si2 0.338587 0.397513 0.121578
Si Si3 0.330594 0.766280 0.143329
Si Si4 0.322386 0.831173 0.025390
Si Si5 0.322597 0.568796 0.317014
Si Si6 0.250000 0.345137 0.250000
Si Si7 0.677844 0.169917 0.121684
O O1 0.273998 0.039761 0.119246
O O2 0.000000 0.028460 0.071189
O O3 0.161573 0.955677 0.110650
O O4 0.216047 0.000000 0.000000
O O5 0.500000 0.376960 0.102041
O O6 0.223062 0.377367 0.069558
O O7 0.318564 0.380997 0.195269
O O8 0.500000 0.749933 0.135632
O O9 0.276631 0.787767 0.074721
O O10 0.327699 0.807045 0.199836
O O11 0.227001 0.720071 0.155502
O O12 0.500000 0.828834 0.021697
O O13 0.265975 0.831907 0.952510
O O14 0.500000 0.566325 0.309963
O O15 0.250000 0.552533 0.250000
O O16 0.272462 0.624278 0.335087
O O17 0.500000 0.167461 0.117835
#
# Coordination Sequence:
#
# PCOD9482459 Si02
#       7
#    16  16  16  16  16   8  16
#     4  10  22  41  66  97 128 159 202 255 309 369
#     4  10  21  37  61  89 120 157 196 243 299 353
#     4  10  21  35  56  84 115 153 199 249 298 350
#     4   9  19  37  58  87 121 154 196 246 299 358
#     4  11  25  43  62  89 123 164 209 255 307 366
#     4  10  22  38  54  84 120 156 202 240 294 362
#     4  10  22  39  60  84 117 158 201 248 301 360
#
# _framework density 10.190084000000001
#
# number of rings (size 3 to 8) (size 9 to 14) (size 15 to 20)
#    0.000    2.000    0.000    2.308    2.154    6.462 
#    0.000    0.000    0.000    0.000    0.000    0.000 
#    0.000    0.000    0.000    0.000    0.000    0.000 
#
# Total GULP energy -289487.785632 kJ/mol
# GULP energy per Si atom -5567.072801 kJ/mol
# Density = 1.016689 g / cm^3
# Si number density = 10.190084 Si / 1000 Ang^3
#
#
#
# Elastic Constant Matrix: (Units=GPa)
#
#
# Indices 1 2 3 4 5 6 
#
# 1 9.3946 17.9986 27.9617 0.0000 0.0000 0.0000
# 2 17.9986 60.4630 19.7998 0.0000 0.0000 0.0000
# 3 27.9617 19.7998 133.6695 0.0000 0.0000 0.0000
# 4 0.0000 0.0000 0.0000 23.3039 0.0000 0.0000
# 5 0.0000 0.0000 0.0000 0.0000 26.2346 0.0000
# 6 0.0000 0.0000 0.0000 0.0000 0.0000 37.9458
#
#
#
# Elastic Compliance Matrix: (Units=1/GPa)
#
#
# Indices 1 2 3 4 5 6 
#
# 1 4.810444 -1.158649 -0.834650 0.000000 0.000000 0.000000
# 2 -1.158649 0.296456 0.198460 0.000000 0.000000 0.000000
# 3 -0.834650 0.198460 0.152681 0.000000 0.000000 0.000000
# 4 0.000000 0.000000 0.000000 0.042911 0.000000 0.000000
# 5 0.000000 0.000000 0.000000 0.000000 0.038118 0.000000
# 6 0.000000 0.000000 0.000000 0.000000 0.000000 0.026353
#
#
# Mechanical properties :
#
#
# Convention : Reuss Voigt Hill
#
# Bulk Modulus (GPa) = 0.59884 37.22750 18.91317
# Shear Modulus (GPa) = 0.52558 26.68134 13.60346
#
# Velocity S-wave (km/s) = 0.50838 3.62219 2.58638
# Velocity P-wave (km/s) = 0.79942 5.98330 4.26843
#
# Compressibility (1/GPa) = 1.66990212
#
# Stress axis : x y z
#
# Youngs Moduli (GPa) = 0.20788 3.37318 6.54960
#
# Poissons Ratio (x) = 3.90834 5.46663
# Poissons Ratio (y) = 0.24086 -1.29984
# Poissons Ratio (z) = 0.17351 -0.66944
#
# Static dielectric constant tensor:
#      x y z
#    x 1.764350 0.000000 0.000000 
#    y 0.000000 1.793760 0.000000 
#    z 0.000000 0.000000 1.698770 
# 
# From -- ./inp_files/37252.got.cif
#   From: 2010.05.17/outbox.ucp.g08.bks.cvg/sg64_19_cif.got.tgz:37252.got - 2010.06.11 16:36:46.
