data_PCOD9482849
_publ_section_title
;
Structure prediction by ZEFSAII (Michael W. Deem and Ramdas Pophale) SiO2 
 PCOD9482849
Probable space group: C M M M
;
_chemical_formula_sum "Si O2"
_cell_formula_units_Z 72
_cell_length_a 10.486680
_cell_length_b 28.873600
_cell_length_c 17.071865
_cell_angle_alpha 90.000000
_cell_angle_beta 90.000000
_cell_angle_gamma 90.000000
_cell_volume 5169.159336
_symmetry_space_group_name_H-M "C M M M"
_symmetry_group_IT_number 65
_symmetry_cell_setting 'orthorhombic'
loop_
_space_group_symop_operation_xyz
x,y,z
-x,-y,z
x,-y,-z
-x,y,-z
-x,-y,-z
x,y,-z
-x,y,z
x,-y,z
1/2+x,1/2+y,z
1/2-x,1/2-y,z
1/2+x,1/2-y,-z
1/2-x,1/2+y,-z
1/2-x,1/2-y,-z
1/2+x,1/2+y,-z
1/2-x,1/2+y,z
1/2+x,1/2-y,z
loop_
_atom_site_type_symbol
_atom_site_label
_atom_site_fract_x
_atom_site_fract_y
_atom_site_fract_z
Si Si1 0.000000 0.192629 0.590525
Si Si2 0.500000 0.805062 0.410935
Si Si3 0.648625 0.791407 0.000000
Si Si4 0.154881 0.448542 0.909048
Si Si5 0.251063 0.194010 0.687184
Si Si6 0.652261 0.148541 0.157959
O O1 0.000000 0.248861 0.586675
O O2 0.125277 0.179756 0.639634
O O3 0.000000 0.176399 0.500000
O O4 0.500000 0.821798 0.500000
O O5 0.373734 0.818866 0.364708
O O6 0.750000 0.750000 0.000000
O O7 0.666311 0.822689 0.922540
O O8 0.500000 0.775333 0.000000
O O9 0.195411 0.500000 0.882988
O O10 0.193459 0.404252 0.858840
O O11 0.000000 0.448108 0.909172
O O12 0.193503 0.442537 0.000000
O O13 0.250000 0.250000 0.695999
O O14 0.269582 0.171417 0.771856
O O15 0.500000 0.149432 0.176989
#
# Coordination Sequence:
#
# PCOD9482849 Si02
#       6
#     8   8   8  16  16  16
#     4   9  18  30  44  61  84 115 148 183 220 257
#     4   9  16  28  44  61  82 113 146 181 224 267
#     4  10  20  32  43  59  89 129 160 182 203 248
#     4   8  13  23  41  63  85 110 143 183 226 263
#     4  10  18  28  42  62  89 117 149 182 216 256
#     4  10  17  28  43  62  89 119 151 181 219 257
#
# _framework density 13.928763999999999
#
# number of rings (size 3 to 8) (size 9 to 14) (size 15 to 20)
#    0.000    2.667    2.222    2.000    0.000    2.667 
#    2.000    0.000    0.000    0.000    0.000    0.778 
#    0.000    8.000    0.000    0.000    0.000    0.000 
#
# Total GULP energy -200417.816979 kJ/mol
# GULP energy per Si atom -5567.161583 kJ/mol
# Density = 1.389706 g / cm^3
# Si number density = 13.928764 Si / 1000 Ang^3
#
#
#
# Elastic Constant Matrix: (Units=GPa)
#
#
# Indices 1 2 3 4 5 6 
#
# 1 85.9310 34.7304 58.0113 0.0000 0.0000 0.0000
# 2 34.7304 71.7796 44.7898 0.0000 0.0000 0.0000
# 3 58.0113 44.7898 124.5987 0.0000 0.0000 0.0000
# 4 0.0000 0.0000 0.0000 4.5100 0.0000 0.0000
# 5 0.0000 0.0000 0.0000 0.0000 20.2138 0.0000
# 6 0.0000 0.0000 0.0000 0.0000 0.0000 7.6669
#
#
#
# Elastic Compliance Matrix: (Units=1/GPa)
#
#
# Indices 1 2 3 4 5 6 
#
# 1 0.018030 -0.004494 -0.006779 0.000000 0.000000 0.000000
# 2 -0.004494 0.019080 -0.004767 0.000000 0.000000 0.000000
# 3 -0.006779 -0.004767 0.012895 0.000000 0.000000 0.000000
# 4 0.000000 0.000000 0.000000 0.221731 0.000000 0.000000
# 5 0.000000 0.000000 0.000000 0.000000 0.049471 0.000000
# 6 0.000000 0.000000 0.000000 0.000000 0.000000 0.130430
#
#
# Mechanical properties :
#
#
# Convention : Reuss Voigt Hill
#
# Bulk Modulus (GPa) = 55.78241 61.93024 58.85633
# Shear Modulus (GPa) = 10.21050 16.13002 13.17026
#
# Velocity S-wave (km/s) = 2.71043 3.40669 3.07831
# Velocity P-wave (km/s) = 7.06615 7.74807 7.41496
#
# Compressibility (1/GPa) = 0.01792680
#
# Stress axis : x y z
#
# Youngs Moduli (GPa) = 55.46331 52.41072 77.54657
#
# Poissons Ratio (x) = 0.23551 0.52570
# Poissons Ratio (y) = 0.24923 0.36963
# Poissons Ratio (z) = 0.37599 0.24982
#
# Static dielectric constant tensor:
#      x y z
#    x 1.454890 0.000000 0.000000 
#    y 0.000000 1.449950 0.000000 
#    z 0.000000 0.000000 1.450510 
# 
# From -- ./inp_files/37065.got.cif
#   From: 2010.05.17/outbox.cif.g08.bks.cpg/sg65_19_cif.got.tgz:37065.got - 2010.06.03 17:01:31.
