data_PCOD9482087
_publ_section_title
;
Structure prediction by ZEFSAII (Michael W. Deem and Ramdas Pophale) SiO2 
 PCOD9482087
Probable space group: C M C A
;
_chemical_formula_sum "Si O2"
_cell_formula_units_Z 64
_cell_length_a 20.658179
_cell_length_b 9.506735
_cell_length_c 17.320386
_cell_angle_alpha 90.000000
_cell_angle_beta 90.000000
_cell_angle_gamma 90.000000
_cell_volume 3401.582361
_symmetry_space_group_name_H-M "C M C A"
_symmetry_group_IT_number 64
_symmetry_cell_setting 'orthorhombic'
loop_
_space_group_symop_operation_xyz
x,y,z
-x,1/2-y,1/2+z
x,-y,-z
-x,1/2+y,1/2-z
-x,-y,-z
x,1/2+y,1/2-z
-x,y,z
x,1/2-y,1/2+z
1/2+x,1/2+y,z
1/2-x,-y,1/2+z
1/2+x,1/2-y,-z
1/2-x,y,1/2-z
1/2-x,1/2-y,-z
1/2+x,y,1/2-z
1/2-x,1/2+y,z
1/2+x,-y,1/2+z
loop_
_atom_site_type_symbol
_atom_site_label
_atom_site_fract_x
_atom_site_fract_y
_atom_site_fract_z
Si Si1 0.365236 0.920612 0.669253
Si Si2 0.870333 0.259152 0.830964
Si Si3 0.000000 0.123781 0.088942
Si Si4 0.741198 0.625844 0.440931
Si Si5 0.000000 0.282043 0.423182
O O1 0.362008 0.839211 0.750108
O O2 0.431941 0.862050 0.632599
O O3 0.305587 0.896388 0.610635
O O4 0.365597 0.090026 0.681164
O O5 0.815640 0.326738 0.884523
O O6 0.937848 0.274727 0.877466
O O7 0.000000 0.953315 0.077370
O O8 0.000000 0.230467 0.016073
O O9 0.726880 0.500000 0.500000
O O10 0.750000 0.750000 0.500000
#
# Coordination Sequence:
#
# PCOD9482087 Si02
#       5
#    16  16   8  16   8
#     4  11  24  41  66  95 127 171 210 262 320 381
#     4  11  24  42  65  94 130 167 213 260 320 382
#     4   9  19  38  69  92 123 163 214 258 312 372
#     4  12  25  42  65  93 125 165 217 265 317 378
#     4   9  19  40  66  93 124 164 211 260 311 370
#
# _framework density 18.814772000000001
#
# number of rings (size 3 to 8) (size 9 to 14) (size 15 to 20)
#    0.000    1.250    2.500    3.000    7.000    2.000 
#    0.000    0.625    0.000    0.000    0.000    0.000 
#    0.000    0.000    0.000    0.000    0.000    0.000 
#
# Total GULP energy -178323.428904 kJ/mol
# GULP energy per Si atom -5572.607153 kJ/mol
# Density = 1.877195 g / cm^3
# Si number density = 18.814772 Si / 1000 Ang^3
#
#
#
# Elastic Constant Matrix: (Units=GPa)
#
#
# Indices 1 2 3 4 5 6 
#
# 1 152.8491 51.8391 90.7233 0.0000 0.0000 0.0000
# 2 51.8391 112.1127 77.6420 0.0000 0.0000 0.0000
# 3 90.7233 77.6420 179.8012 0.0000 0.0000 0.0000
# 4 0.0000 0.0000 0.0000 42.4040 0.0000 0.0000
# 5 0.0000 0.0000 0.0000 0.0000 21.9129 0.0000
# 6 0.0000 0.0000 0.0000 0.0000 0.0000 22.3997
#
#
#
# Elastic Compliance Matrix: (Units=1/GPa)
#
#
# Indices 1 2 3 4 5 6 
#
# 1 0.009521 -0.001534 -0.004142 0.000000 0.000000 0.000000
# 2 -0.001534 0.012972 -0.004828 0.000000 0.000000 0.000000
# 3 -0.004142 -0.004828 0.009736 0.000000 0.000000 0.000000
# 4 0.000000 0.000000 0.000000 0.023583 0.000000 0.000000
# 5 0.000000 0.000000 0.000000 0.000000 0.045635 0.000000
# 6 0.000000 0.000000 0.000000 0.000000 0.000000 0.044643
#
#
# Mechanical properties :
#
#
# Convention : Reuss Voigt Hill
#
# Bulk Modulus (GPa) = 89.10548 98.35245 93.72896
# Shear Modulus (GPa) = 29.26750 32.31391 30.79071
#
# Velocity S-wave (km/s) = 3.94834 4.14874 4.04978
# Velocity P-wave (km/s) = 8.26123 8.67968 8.47304
#
# Compressibility (1/GPa) = 0.01122265
#
# Stress axis : x y z
#
# Youngs Moduli (GPa) = 105.03194 77.08764 102.71079
#
# Poissons Ratio (x) = 0.11826 0.42538
# Poissons Ratio (y) = 0.16114 0.49585
# Poissons Ratio (z) = 0.43499 0.37215
#
# Static dielectric constant tensor:
#      x y z
#    x 1.652720 0.000000 0.000000 
#    y 0.000000 1.603270 0.000000 
#    z 0.000000 0.000000 1.585000 
# 
# From -- ./inp_files/26944.got.cif
#   From: 2010.05.17/outbox.cif.g08.bks.cpg/sg64_14_cif.got.tgz:26944.got - 2010.06.03 16:29:19.
