data_PCOD9482891
_publ_section_title
;
Structure prediction by ZEFSAII (Michael W. Deem and Ramdas Pophale) SiO2 
 PCOD9482891
Probable space group: C M M M
;
_chemical_formula_sum "Si O2"
_cell_formula_units_Z 96
_cell_length_a 14.778107
_cell_length_b 26.677430
_cell_length_c 12.072871
_cell_angle_alpha 90.000000
_cell_angle_beta 90.000000
_cell_angle_gamma 90.000000
_cell_volume 4759.631783
_symmetry_space_group_name_H-M "C M M M"
_symmetry_group_IT_number 65
_symmetry_cell_setting 'orthorhombic'
loop_
_space_group_symop_operation_xyz
x,y,z
-x,-y,z
x,-y,-z
-x,y,-z
-x,-y,-z
x,y,-z
-x,y,z
x,-y,z
1/2+x,1/2+y,z
1/2-x,1/2-y,z
1/2+x,1/2-y,-z
1/2-x,1/2+y,-z
1/2-x,1/2-y,-z
1/2+x,1/2+y,-z
1/2-x,1/2+y,z
1/2+x,1/2-y,z
loop_
_atom_site_type_symbol
_atom_site_label
_atom_site_fract_x
_atom_site_fract_y
_atom_site_fract_z
Si Si1 0.628126 0.204993 0.500000
Si Si2 0.897974 0.345339 0.734519
Si Si3 0.389285 0.943122 0.371909
Si Si4 0.389708 0.555478 0.128779
Si Si5 0.889335 0.747820 0.871717
Si Si6 0.390816 0.347254 0.739357
Si Si7 0.840076 0.817470 0.500000
O O1 0.595440 0.180192 0.613305
O O2 0.735104 0.196041 0.500000
O O3 0.608524 0.264025 0.500000
O O4 0.855584 0.399449 0.709064
O O5 0.856417 0.303703 0.814996
O O6 0.000000 0.354567 0.776536
O O7 0.362321 0.933256 0.500000
O O8 0.500000 0.941096 0.371257
O O9 0.363412 0.000000 0.343302
O O10 0.500000 0.555717 0.131545
O O11 0.360698 0.500000 0.167215
O O12 0.358597 0.602894 0.198795
O O13 0.364080 0.561275 0.000000
O O14 0.860859 0.796177 0.800725
O O15 0.000000 0.746938 0.867559
O O16 0.863383 0.751940 0.000000
O O17 0.500000 0.347123 0.743812
O O18 0.362428 0.345925 0.612180
#
# Coordination Sequence:
#
# PCOD9482891 Si02
#       7
#     8  16  16  16  16  16   8
#     4  11  21  33  46  65  96 128 151 188 237 284
#     4  10  17  28  50  71  91 119 151 185 223 280
#     4   8  13  21  37  65  94 113 138 179 217 252
#     4   8  14  26  47  75 101 124 156 199 240 274
#     4   9  17  27  43  70  95 114 146 194 235 265
#     4  10  18  30  49  69  93 126 162 195 230 279
#     4  11  23  33  44  65  98 130 153 192 239 284
#
# _framework density 20.169629
#
# number of rings (size 3 to 8) (size 9 to 14) (size 15 to 20)
#    0.000    2.667    2.500    2.000    0.000    2.667 
#    0.000    0.417    0.000    7.500    0.000    3.500 
#    0.000    0.000    0.000    0.000    0.000    0.000 
#
# Total GULP energy -267804.199023 kJ/mol
# GULP energy per Si atom -5579.254146 kJ/mol
# Density = 2.012372 g / cm^3
# Si number density = 20.169629 Si / 1000 Ang^3
#
#
#
# Elastic Constant Matrix: (Units=GPa)
#
#
# Indices 1 2 3 4 5 6 
#
# 1 49.0761 9.8973 -0.7328 0.0000 0.0000 0.0000
# 2 9.8973 199.7598 95.2551 0.0000 0.0000 0.0000
# 3 -0.7328 95.2551 127.5343 0.0000 0.0000 0.0000
# 4 0.0000 0.0000 0.0000 38.6953 0.0000 0.0000
# 5 0.0000 0.0000 0.0000 0.0000 -135.6748 0.0000
# 6 0.0000 0.0000 0.0000 0.0000 0.0000 -0.8138
#
#
#
# Elastic Compliance Matrix: (Units=1/GPa)
#
#
# Indices 1 2 3 4 5 6 
#
# 1 0.020737 -0.001684 0.001377 0.000000 0.000000 0.000000
# 2 -0.001684 0.007912 -0.005919 0.000000 0.000000 0.000000
# 3 0.001377 -0.005919 0.012270 0.000000 0.000000 0.000000
# 4 0.000000 0.000000 0.000000 0.025843 0.000000 0.000000
# 5 0.000000 0.000000 0.000000 0.000000 -0.007371 0.000000
# 6 0.000000 0.000000 0.000000 0.000000 0.000000 -1.228732
#
#
# Mechanical properties :
#
#
# Convention : Reuss Voigt Hill
#
# Bulk Modulus (GPa) = 35.12938 65.02325 50.07631
# Shear Modulus (GPa) = -4.35768 -1.42862 -2.89315
#
# Velocity S-wave (km/s) = -1.47146 -0.84252 -1.19897
# Velocity P-wave (km/s) = 3.81678 5.60015 4.79216
#
# Compressibility (1/GPa) = 0.02846621
#
# Stress axis : x y z
#
# Youngs Moduli (GPa) = 48.22370 126.39093 81.50021
#
# Poissons Ratio (x) = 0.21284 -0.11222
# Poissons Ratio (y) = 0.08121 0.48241
# Poissons Ratio (z) = -0.06640 0.74812
#
# Static dielectric constant tensor:
#      x y z
#    x 1.721280 0.000000 0.000000 
#    y 0.000000 1.737310 0.000000 
#    z 0.000000 0.000000 1.674160 
# 
# From -- ./inp_files/29250.got.cif
#   From: 2010.05.17/outbox.cif.g08.bks.cpg/sg65_15_cif.got.tgz:29250.got - 2010.06.03 17:01:31.
