data_PCOD9482401
_publ_section_title
;
Structure prediction by ZEFSAII (Michael W. Deem and Ramdas Pophale) SiO2 
 PCOD9482401
Probable space group: C M C A
;
_chemical_formula_sum "Si O2"
_cell_formula_units_Z 52
_cell_length_a 21.000000
_cell_length_b 9.000000
_cell_length_c 27.000000
_cell_angle_alpha 90.000000
_cell_angle_beta 90.000000
_cell_angle_gamma 90.000000
_cell_volume 5103.000000
_symmetry_space_group_name_H-M "C M C A"
_symmetry_group_IT_number 64
_symmetry_cell_setting 'orthorhombic'
loop_
_space_group_symop_operation_xyz
x,y,z
-x,1/2-y,1/2+z
x,-y,-z
-x,1/2+y,1/2-z
-x,-y,-z
x,1/2+y,1/2-z
-x,y,z
x,1/2-y,1/2+z
1/2+x,1/2+y,z
1/2-x,-y,1/2+z
1/2+x,1/2-y,-z
1/2-x,y,1/2-z
1/2-x,1/2-y,-z
1/2+x,y,1/2-z
1/2-x,1/2+y,z
1/2+x,-y,1/2+z
loop_
_atom_site_type_symbol
_atom_site_label
_atom_site_fract_x
_atom_site_fract_y
_atom_site_fract_z
Si Si1 0.573716 0.054796 0.944146
Si Si2 0.500000 0.986005 0.751098
Si Si3 0.278730 0.559287 0.862059
Si Si4 0.874890 0.886825 0.297498
Si Si5 0.000000 0.198849 0.819420
Si Si6 0.250000 0.085656 0.750000
Si Si7 0.124436 0.170870 0.363396
Si Si8 0.840174 0.255340 0.608703
O O1 0.500000 0.072864 0.927920
O O2 0.614354 0.204807 0.935668
O O3 0.606855 0.928129 0.910798
O O4 0.574377 0.000000 0.000000
O O5 0.500000 0.825078 0.775168
O O6 0.561859 0.076935 0.768507
O O7 0.500000 0.024511 0.693602
O O8 0.269647 0.516522 0.803579
O O9 0.322526 0.704546 0.866290
O O10 0.213891 0.627334 0.884624
O O11 0.307620 0.416104 0.889567
O O12 0.815393 0.833065 0.264970
O O13 0.882198 0.770180 0.341636
O O14 0.860667 0.049766 0.320898
O O15 0.938263 0.240344 0.849442
#
# Coordination Sequence:
#
# PCOD9482401 Si02
#       8
#    16   8  16  16   8   8  16  16
#     4  10  21  43  72  92 114 159 212 259 330 413
#     4  10  20  32  48  74 110 161 203 248 308 355
#     4  11  22  38  60  91 131 168 211 257 299 371
#     4   9  20  33  53  76 117 162 210 258 292 358
#     4  10  20  34  51  78 119 161 203 250 301 365
#     4  10  20  34  54  84 118 172 222 244 282 362
#     4  10  20  38  58  85 121 158 204 260 323 360
#     4  10  22  38  59  91 122 162 204 256 319 363
#
# _framework density 10.190084000000001
#
# number of rings (size 3 to 8) (size 9 to 14) (size 15 to 20)
#    0.000    2.000    0.769    3.692    3.231    9.231 
#    1.385    3.846    0.000    1.846    0.000    0.000 
#    0.000    0.000    0.000    0.000    0.000    0.000 
#
# Total GULP energy -289500.484663 kJ/mol
# GULP energy per Si atom -5567.317013 kJ/mol
# Density = 1.016689 g / cm^3
# Si number density = 10.190084 Si / 1000 Ang^3
#
#
#
# Elastic Constant Matrix: (Units=GPa)
#
#
# Indices 1 2 3 4 5 6 
#
# 1 117.9926 45.1564 33.6483 0.0000 0.0000 0.0000
# 2 45.1564 53.8519 13.4973 0.0000 0.0000 0.0000
# 3 33.6483 13.4973 46.5799 0.0000 0.0000 0.0000
# 4 0.0000 0.0000 0.0000 13.3985 0.0000 0.0000
# 5 0.0000 0.0000 0.0000 0.0000 29.8386 0.0000
# 6 0.0000 0.0000 0.0000 0.0000 0.0000 19.4880
#
#
#
# Elastic Compliance Matrix: (Units=1/GPa)
#
#
# Indices 1 2 3 4 5 6 
#
# 1 0.014581 -0.010337 -0.007537 0.000000 0.000000 0.000000
# 2 -0.010337 0.027352 -0.000458 0.000000 0.000000 0.000000
# 3 -0.007537 -0.000458 0.027046 0.000000 0.000000 0.000000
# 4 0.000000 0.000000 0.000000 0.074635 0.000000 0.000000
# 5 0.000000 0.000000 0.000000 0.000000 0.033514 0.000000
# 6 0.000000 0.000000 0.000000 0.000000 0.000000 0.051314
#
#
# Mechanical properties :
#
#
# Convention : Reuss Voigt Hill
#
# Bulk Modulus (GPa) = 30.94710 44.78094 37.86402
# Shear Modulus (GPa) = 18.12392 20.95319 19.53855
#
# Velocity S-wave (km/s) = 2.98534 3.20990 3.09965
# Velocity P-wave (km/s) = 5.20585 5.97984 5.60622
#
# Compressibility (1/GPa) = 0.03231321
#
# Stress axis : x y z
#
# Youngs Moduli (GPa) = 68.58405 36.55994 36.97377
#
# Poissons Ratio (x) = 0.37793 0.27869
# Poissons Ratio (y) = 0.70896 0.01695
# Poissons Ratio (z) = 0.51695 0.01676
#
# Static dielectric constant tensor:
#      x y z
#    x 1.841670 0.000000 0.000000 
#    y 0.000000 1.709960 0.000000 
#    z 0.000000 0.000000 1.770700 
# 
# From -- ./inp_files/50806.got.cif
#   From: 2010.05.17/outbox.ucp.g08.bks.cvg/sg64_26_cif.got.tgz:50806.got - 2010.06.11 16:36:46.
