data_PCOD9482000
_publ_section_title
;
Structure prediction by ZEFSAII (Michael W. Deem and Ramdas Pophale) SiO2 
 PCOD9482000
Probable space group: C M C A
;
_chemical_formula_sum "Si O2"
_cell_formula_units_Z 80
_cell_length_a 26.696906
_cell_length_b 15.742668
_cell_length_c 8.985494
_cell_angle_alpha 90.000000
_cell_angle_beta 90.000000
_cell_angle_gamma 90.000000
_cell_volume 3776.428161
_symmetry_space_group_name_H-M "C M C A"
_symmetry_group_IT_number 64
_symmetry_cell_setting 'orthorhombic'
loop_
_space_group_symop_operation_xyz
x,y,z
-x,1/2-y,1/2+z
x,-y,-z
-x,1/2+y,1/2-z
-x,-y,-z
x,1/2+y,1/2-z
-x,y,z
x,1/2-y,1/2+z
1/2+x,1/2+y,z
1/2-x,-y,1/2+z
1/2+x,1/2-y,-z
1/2-x,y,1/2-z
1/2-x,1/2-y,-z
1/2+x,y,1/2-z
1/2-x,1/2+y,z
1/2+x,-y,1/2+z
loop_
_atom_site_type_symbol
_atom_site_label
_atom_site_fract_x
_atom_site_fract_y
_atom_site_fract_z
Si Si1 0.390853 0.195615 0.571279
Si Si2 0.726288 0.172620 0.589093
Si Si3 0.214906 0.554881 0.122456
Si Si4 0.557687 0.470895 0.173629
Si Si5 0.384833 0.135161 0.232101
O O1 0.332599 0.180245 0.605829
O O2 0.420631 0.124572 0.665848
O O3 0.394595 0.175961 0.395222
O O4 0.402767 0.292689 0.616202
O O5 0.750000 0.170848 0.750000
O O6 0.750000 0.250000 0.500000
O O7 0.744235 0.096611 0.485758
O O8 0.250000 0.515427 0.250000
O O9 0.174034 0.616315 0.198821
O O10 0.185069 0.500000 0.000000
O O11 0.500000 0.470797 0.221383
O O12 0.588459 0.542908 0.262875
O O13 0.559836 0.500000 0.000000
#
# Coordination Sequence:
#
# PCOD9482000 Si02
#       5
#    16  16  16  16  16
#     4  11  23  41  68  94 135 178 225 273 343 408
#     4  12  23  38  61  94 137 178 223 272 331 411
#     4  12  26  40  60  95 138 183 229 272 336 409
#     4   9  22  44  68  94 129 173 229 288 341 401
#     4  11  24  41  66 100 130 176 223 277 340 408
#
# _framework density 21.184037
#
# number of rings (size 3 to 8) (size 9 to 14) (size 15 to 20)
#    0.000    1.000    4.000    2.400    5.600    0.800 
#    0.000    0.000    0.000    4.200    0.000    0.000 
#    0.000    0.000    0.000    0.000    0.000    0.000 
#
# Total GULP energy -223189.302815 kJ/mol
# GULP energy per Si atom -5579.732570 kJ/mol
# Density = 2.113582 g / cm^3
# Si number density = 21.184037 Si / 1000 Ang^3
#
#
#
# Elastic Constant Matrix: (Units=GPa)
#
#
# Indices 1 2 3 4 5 6 
#
# 1 80.9530 25.3154 17.5061 0.0000 0.0000 0.0000
# 2 25.3154 109.0131 48.5115 0.0000 0.0000 0.0000
# 3 17.5061 48.5115 113.4728 0.0000 0.0000 0.0000
# 4 0.0000 0.0000 0.0000 39.5646 0.0000 0.0000
# 5 0.0000 0.0000 0.0000 0.0000 12.7166 0.0000
# 6 0.0000 0.0000 0.0000 0.0000 0.0000 23.7915
#
#
#
# Elastic Compliance Matrix: (Units=1/GPa)
#
#
# Indices 1 2 3 4 5 6 
#
# 1 0.013396 -0.002706 -0.000910 0.000000 0.000000 0.000000
# 2 -0.002706 0.011875 -0.004659 0.000000 0.000000 0.000000
# 3 -0.000910 -0.004659 0.010945 0.000000 0.000000 0.000000
# 4 0.000000 0.000000 0.000000 0.025275 0.000000 0.000000
# 5 0.000000 0.000000 0.000000 0.000000 0.078637 0.000000
# 6 0.000000 0.000000 0.000000 0.000000 0.000000 0.042032
#
#
# Mechanical properties :
#
#
# Convention : Reuss Voigt Hill
#
# Bulk Modulus (GPa) = 50.85003 54.01164 52.43084
# Shear Modulus (GPa) = 24.35874 29.35495 26.85685
#
# Velocity S-wave (km/s) = 3.39464 3.72655 3.56446
# Velocity P-wave (km/s) = 6.27860 6.63837 6.46099
#
# Compressibility (1/GPa) = 0.01966567
#
# Stress axis : x y z
#
# Youngs Moduli (GPa) = 74.65031 84.21049 91.36613
#
# Poissons Ratio (x) = 0.22787 0.08313
# Poissons Ratio (y) = 0.20200 0.42570
# Poissons Ratio (z) = 0.06792 0.39236
#
# Static dielectric constant tensor:
#      x y z
#    x 1.744480 0.000000 0.000000 
#    y 0.000000 1.970250 0.000000 
#    z 0.000000 0.000000 1.852240 
# 
# From -- ./inp_files/10231.got.cif
#   From: 2010.05.17/outbox.cif.g08.bks.cpg/sg64_6_cif.got.tgz:10231.got - 2010.06.03 16:29:19.
