data_PCOD9482081
_publ_section_title
;
Structure prediction by ZEFSAII (Michael W. Deem and Ramdas Pophale) SiO2 
 PCOD9482081
Probable space group: C M C A
;
_chemical_formula_sum "Si O2"
_cell_formula_units_Z 72
_cell_length_a 14.105439
_cell_length_b 19.242861
_cell_length_c 13.562579
_cell_angle_alpha 90.000000
_cell_angle_beta 90.000000
_cell_angle_gamma 90.000000
_cell_volume 3681.277283
_symmetry_space_group_name_H-M "C M C A"
_symmetry_group_IT_number 64
_symmetry_cell_setting 'orthorhombic'
loop_
_space_group_symop_operation_xyz
x,y,z
-x,1/2-y,1/2+z
x,-y,-z
-x,1/2+y,1/2-z
-x,-y,-z
x,1/2+y,1/2-z
-x,y,z
x,1/2-y,1/2+z
1/2+x,1/2+y,z
1/2-x,-y,1/2+z
1/2+x,1/2-y,-z
1/2-x,y,1/2-z
1/2-x,1/2-y,-z
1/2+x,y,1/2-z
1/2-x,1/2+y,z
1/2+x,-y,1/2+z
loop_
_atom_site_type_symbol
_atom_site_label
_atom_site_fract_x
_atom_site_fract_y
_atom_site_fract_z
Si Si1 0.692292 0.087209 0.849807
Si Si2 0.500000 0.927155 0.265641
Si Si3 0.000000 0.276409 0.376329
Si Si4 0.000000 0.795593 0.823246
Si Si5 0.851133 0.227294 0.536392
Si Si6 0.000000 0.557888 0.407153
Si Si7 0.678486 0.500000 0.000000
O O1 0.750000 0.109901 0.750000
O O2 0.592567 0.063830 0.802470
O O3 0.755885 0.031678 0.912335
O O4 0.663493 0.148177 0.926306
O O5 0.500000 0.853052 0.325333
O O6 0.500000 0.987043 0.346535
O O7 0.000000 0.223553 0.288148
O O8 0.913502 0.255123 0.445519
O O9 0.000000 0.876524 0.839017
O O10 0.906428 0.762907 0.873035
O O11 0.750000 0.250000 0.500000
O O12 0.100574 0.557774 0.465402
#
# Coordination Sequence:
#
# PCOD9482081 Si02
#       7
#    16   8   8   8  16   8   8
#     4  12  24  45  71 105 139 190 236 292 361 435
#     4  12  23  45  74  93 144 196 226 279 370 432
#     4  11  24  45  65 101 142 180 233 296 357 429
#     4  11  24  43  66 101 139 177 235 293 361 407
#     4  11  24  40  69 101 134 182 237 291 350 425
#     4  11  25  44  70  99 134 192 231 292 343 432
#     4  11  26  43  70 104 140 181 248 283 354 426
#
# _framework density 19.558430000000001
#
# number of rings (size 3 to 8) (size 9 to 14) (size 15 to 20)
#    0.000    0.667    4.444    3.333    6.222    2.222 
#    0.000    0.000    0.000    0.000    0.000    0.000 
#    0.000    0.000    0.000    0.000    0.000    0.000 
#
# Total GULP energy -200527.725784 kJ/mol
# GULP energy per Si atom -5570.214605 kJ/mol
# Density = 1.951391 g / cm^3
# Si number density = 19.558430 Si / 1000 Ang^3
#
#
#
# Elastic Constant Matrix: (Units=GPa)
#
#
# Indices 1 2 3 4 5 6 
#
# 1 181.3868 25.7624 53.8871 0.0000 0.0000 0.0000
# 2 25.7624 66.9089 10.1086 0.0000 0.0000 0.0000
# 3 53.8871 10.1086 77.8889 0.0000 0.0000 0.0000
# 4 0.0000 0.0000 0.0000 47.7718 0.0000 0.0000
# 5 0.0000 0.0000 0.0000 0.0000 3.6545 0.0000
# 6 0.0000 0.0000 0.0000 0.0000 0.0000 19.3031
#
#
#
# Elastic Compliance Matrix: (Units=1/GPa)
#
#
# Indices 1 2 3 4 5 6 
#
# 1 0.007208 -0.002062 -0.004719 0.000000 0.000000 0.000000
# 2 -0.002062 0.015835 -0.000628 0.000000 0.000000 0.000000
# 3 -0.004719 -0.000628 0.016185 0.000000 0.000000 0.000000
# 4 0.000000 0.000000 0.000000 0.020933 0.000000 0.000000
# 5 0.000000 0.000000 0.000000 0.000000 0.273636 0.000000
# 6 0.000000 0.000000 0.000000 0.000000 0.000000 0.051805
#
#
# Mechanical properties :
#
#
# Convention : Reuss Voigt Hill
#
# Bulk Modulus (GPa) = 40.96942 56.18897 48.57919
# Shear Modulus (GPa) = 12.23819 29.90764 21.07291
#
# Velocity S-wave (km/s) = 2.50416 3.91467 3.28599
# Velocity P-wave (km/s) = 5.41791 7.01598 6.26808
#
# Compressibility (1/GPa) = 0.02440845
#
# Stress axis : x y z
#
# Youngs Moduli (GPa) = 138.73502 63.15247 61.78461
#
# Poissons Ratio (x) = 0.13024 0.29157
# Poissons Ratio (y) = 0.28612 0.03881
# Poissons Ratio (z) = 0.65471 0.03967
#
# Static dielectric constant tensor:
#      x y z
#    x 1.689470 0.000000 0.000000 
#    y 0.000000 1.706360 0.000000 
#    z 0.000000 0.000000 2.663390 
# 
# From -- ./inp_files/23586.got.cif
#   From: 2010.05.17/outbox.cif.g08.bks.cpg/sg64_12_cif.got.tgz:23586.got - 2010.06.03 16:29:19.
