data_PCOD9482346
_publ_section_title
;
Structure prediction by ZEFSAII (Michael W. Deem and Ramdas Pophale) SiO2 
 PCOD9482346
Probable space group: C M C A
;
_chemical_formula_sum "Si O2"
_cell_formula_units_Z 96
_cell_length_a 11.210879
_cell_length_b 13.552180
_cell_length_c 24.713144
_cell_angle_alpha 90.000000
_cell_angle_beta 90.000000
_cell_angle_gamma 90.000000
_cell_volume 3754.713691
_symmetry_space_group_name_H-M "C M C A"
_symmetry_group_IT_number 64
_symmetry_cell_setting 'orthorhombic'
loop_
_space_group_symop_operation_xyz
x,y,z
-x,1/2-y,1/2+z
x,-y,-z
-x,1/2+y,1/2-z
-x,-y,-z
x,1/2+y,1/2-z
-x,y,z
x,1/2-y,1/2+z
1/2+x,1/2+y,z
1/2-x,-y,1/2+z
1/2+x,1/2-y,-z
1/2-x,y,1/2-z
1/2-x,1/2-y,-z
1/2+x,y,1/2-z
1/2-x,1/2+y,z
1/2+x,-y,1/2+z
loop_
_atom_site_type_symbol
_atom_site_label
_atom_site_fract_x
_atom_site_fract_y
_atom_site_fract_z
Si Si1 0.869025 0.136619 0.538200
Si Si2 0.874163 0.857696 0.589980
Si Si3 0.368541 0.526738 0.782864
Si Si4 0.128880 0.788396 0.779121
Si Si5 0.630635 0.119711 0.598013
Si Si6 0.628741 0.175633 0.394319
O O1 0.871938 0.124129 0.474079
O O2 0.748673 0.093846 0.563691
O O3 0.864937 0.253379 0.553652
O O4 0.000000 0.101752 0.558537
O O5 0.871153 0.739652 0.600191
O O6 0.745682 0.890393 0.610654
O O7 0.000000 0.894416 0.613274
O O8 0.500000 0.551849 0.758953
O O9 0.250000 0.553325 0.750000
O O10 0.368663 0.407432 0.784811
O O11 0.363344 0.576683 0.841674
O O12 0.250000 0.760128 0.750000
O O13 0.129636 0.754062 0.841429
O O14 0.000000 0.764432 0.753554
O O15 0.500000 0.092786 0.574062
O O16 0.500000 0.125067 0.394622
#
# Coordination Sequence:
#
# PCOD9482346 Si02
#       6
#    16  16  16  16  16  16
#     4   9  17  29  46  67  90 117 146 175 212 259
#     4   9  17  29  46  67  90 117 146 175 212 259
#     4   9  18  32  48  65  86 114 148 183 218 257
#     4   9  18  32  48  65  86 114 148 183 218 257
#     4   9  16  27  45  67  88 112 144 180 216 256
#     4   9  16  27  45  67  88 112 144 180 216 256
#
# _framework density 25.567862999999999
#
# number of rings (size 3 to 8) (size 9 to 14) (size 15 to 20)
#    0.000    3.000    0.000    2.000    0.000    3.333 
#    0.000    3.333    0.000   22.000    0.000   23.333 
#    0.000    0.000    0.000    0.000    0.000    0.000 
#
# Total GULP energy -268083.783835 kJ/mol
# GULP energy per Si atom -5585.078830 kJ/mol
# Density = 2.550967 g / cm^3
# Si number density = 25.567863 Si / 1000 Ang^3
#
#
#
# Elastic Constant Matrix: (Units=GPa)
#
#
# Indices 1 2 3 4 5 6 
#
# 1 357.6926 -3.2109 65.9456 0.0000 0.0000 0.0000
# 2 -3.2109 89.8076 0.8014 0.0000 0.0000 0.0000
# 3 65.9456 0.8014 44.6491 0.0000 0.0000 0.0000
# 4 0.0000 0.0000 0.0000 29.4932 0.0000 0.0000
# 5 0.0000 0.0000 0.0000 0.0000 44.6057 0.0000
# 6 0.0000 0.0000 0.0000 0.0000 0.0000 -32.4640
#
#
#
# Elastic Compliance Matrix: (Units=1/GPa)
#
#
# Indices 1 2 3 4 5 6 
#
# 1 0.003845 0.000188 -0.005682 0.000000 0.000000 0.000000
# 2 0.000188 0.011146 -0.000478 0.000000 0.000000 0.000000
# 3 -0.005682 -0.000478 0.030798 0.000000 0.000000 0.000000
# 4 0.000000 0.000000 0.000000 0.033906 0.000000 0.000000
# 5 0.000000 0.000000 0.000000 0.000000 0.022419 0.000000
# 6 0.000000 0.000000 0.000000 0.000000 0.000000 -0.030803
#
#
# Mechanical properties :
#
#
# Convention : Reuss Voigt Hill
#
# Bulk Modulus (GPa) = 29.54666 68.80238 49.17452
# Shear Modulus (GPa) = 52.88965 36.90119 44.89542
#
# Velocity S-wave (km/s) = 4.55312 3.80315 4.19493
# Velocity P-wave (km/s) = 6.26278 6.80099 6.53743
#
# Compressibility (1/GPa) = 0.03384478
#
# Stress axis : x y z
#
# Youngs Moduli (GPa) = 260.07735 89.71898 32.46944
#
# Poissons Ratio (x) = -0.01688 0.18450
# Poissons Ratio (y) = -0.04894 0.01552
# Poissons Ratio (z) = 1.47786 0.04288
#
# Static dielectric constant tensor:
#      x y z
#    x 2.109460 0.000000 0.000000 
#    y 0.000000 2.006870 0.000000 
#    z 0.000000 0.000000 2.018360 
# 
# From -- ./inp_files/44188.got.cif
#   From: 2010.05.17/outbox.cif.g08.bks.cpg/sg64_23_cif.got.tgz:44188.got - 2010.06.03 16:29:19.
