data_PCOD9482932
_publ_section_title
;
Structure prediction by ZEFSAII (Michael W. Deem and Ramdas Pophale) SiO2 
 PCOD9482932
Probable space group: C M M M
;
_chemical_formula_sum "Si O2"
_cell_formula_units_Z 104
_cell_length_a 19.358990
_cell_length_b 16.285060
_cell_length_c 16.951460
_cell_angle_alpha 90.000000
_cell_angle_beta 90.000000
_cell_angle_gamma 90.000000
_cell_volume 5344.156500
_symmetry_space_group_name_H-M "C M M M"
_symmetry_group_IT_number 65
_symmetry_cell_setting 'orthorhombic'
loop_
_space_group_symop_operation_xyz
x,y,z
-x,-y,z
x,-y,-z
-x,y,-z
-x,-y,-z
x,y,-z
-x,y,z
x,-y,z
1/2+x,1/2+y,z
1/2-x,1/2-y,z
1/2+x,1/2-y,-z
1/2-x,1/2+y,-z
1/2-x,1/2-y,-z
1/2+x,1/2+y,-z
1/2-x,1/2+y,z
1/2+x,1/2-y,z
loop_
_atom_site_type_symbol
_atom_site_label
_atom_site_fract_x
_atom_site_fract_y
_atom_site_fract_z
Si Si1 0.664204 0.598335 0.000000
Si Si2 0.656363 0.599008 0.660410
Si Si3 0.169542 0.846642 0.170644
Si Si4 0.922261 0.401681 0.311670
Si Si5 0.702234 0.100336 0.589144
Si Si6 0.323556 0.902271 0.000000
Si Si7 0.671113 0.151065 0.167129
Si Si8 0.920031 0.100174 0.500000
O O1 0.637530 0.627311 0.914017
O O2 0.662896 0.500000 0.000000
O O3 0.744067 0.629214 0.000000
O O4 0.655215 0.500000 0.659703
O O5 0.634069 0.625696 0.747812
O O6 0.735426 0.627242 0.645302
O O7 0.614990 0.627020 0.582412
O O8 0.249207 0.880280 0.173067
O O9 0.173010 0.748777 0.173175
O O10 0.927198 0.500000 0.320566
O O11 0.872031 0.370641 0.380951
O O12 0.878990 0.384453 0.232939
O O13 0.000000 0.368200 0.310952
O O14 0.716701 0.125642 0.500000
O O15 0.702159 0.000000 0.590349
O O16 0.355900 0.871974 0.919339
O O17 0.321359 0.000000 0.000000
O O18 0.000000 0.122709 0.500000
O O19 0.914831 0.000000 0.500000
#
# Coordination Sequence:
#
# PCOD9482932 Si02
#       8
#     8  16  16  16  16   8  16   8
#     4   9  17  29  47  79 112 133 169 222 270 321
#     4  10  17  29  52  80 106 139 181 222 269 325
#     4  10  19  30  50  76 107 145 177 218 274 327
#     4  10  20  33  51  74 103 140 181 227 271 315
#     4   9  16  28  49  76 102 132 176 225 270 319
#     4   9  17  29  50  74 100 138 176 221 277 324
#     4  10  19  32  48  72 106 138 179 223 267 324
#     4   9  18  32  52  81 111 135 172 229 279 320
#
# _framework density 19.460508000000001
#
# number of rings (size 3 to 8) (size 9 to 14) (size 15 to 20)
#    0.000    2.385    2.308    1.385    0.000    3.385 
#    0.000    2.692    1.692    3.231    0.000    1.615 
#    0.000    4.923    0.000    0.000    0.000    0.000 
#
# Total GULP energy -289773.243286 kJ/mol
# GULP energy per Si atom -5572.562371 kJ/mol
# Density = 1.941622 g / cm^3
# Si number density = 19.460508 Si / 1000 Ang^3
#
#
#
# Elastic Constant Matrix: (Units=GPa)
#
#
# Indices 1 2 3 4 5 6 
#
# 1 57.8429 4.4498 28.9989 0.0000 0.0000 0.0000
# 2 4.4498 14.6280 8.1944 0.0000 0.0000 0.0000
# 3 28.9989 8.1944 167.4805 0.0000 0.0000 0.0000
# 4 0.0000 0.0000 0.0000 -99.5396 0.0000 0.0000
# 5 0.0000 0.0000 0.0000 0.0000 -49.7546 0.0000
# 6 0.0000 0.0000 0.0000 0.0000 0.0000 19.4245
#
#
#
# Elastic Compliance Matrix: (Units=1/GPa)
#
#
# Indices 1 2 3 4 5 6 
#
# 1 0.019166 -0.004083 -0.003119 0.000000 0.000000 0.000000
# 2 -0.004083 0.071159 -0.002775 0.000000 0.000000 0.000000
# 3 -0.003119 -0.002775 0.006647 0.000000 0.000000 0.000000
# 4 0.000000 0.000000 0.000000 -0.010046 0.000000 0.000000
# 5 0.000000 0.000000 0.000000 0.000000 -0.020099 0.000000
# 6 0.000000 0.000000 0.000000 0.000000 0.000000 0.051481
#
#
# Mechanical properties :
#
#
# Convention : Reuss Voigt Hill
#
# Bulk Modulus (GPa) = 12.98399 35.91529 24.44964
# Shear Modulus (GPa) = 30.50020 -12.75340 8.87340
#
# Velocity S-wave (km/s) = 3.96319 -2.56275 2.13766
# Velocity P-wave (km/s) = 5.25633 3.12067 4.32248
#
# Compressibility (1/GPa) = 0.07701791
#
# Stress axis : x y z
#
# Youngs Moduli (GPa) = 52.17607 14.05312 150.45276
#
# Poissons Ratio (x) = 0.05738 0.46922
# Poissons Ratio (y) = 0.21305 0.41745
# Poissons Ratio (z) = 0.16272 0.03899
#
# Static dielectric constant tensor:
#      x y z
#    x 1.683810 0.000000 0.000000 
#    y 0.000000 1.674780 0.000000 
#    z 0.000000 0.000000 1.717480 
# 
# From -- ./inp_files/44459.got.cif
#   From: 2010.05.17/outbox.cif.g08.bks.cpg/sg65_23_cif.got.tgz:44459.got - 2010.06.03 17:01:31.
