data_PCOD9482777
_publ_section_title
;
Structure prediction by ZEFSAII (Michael W. Deem and Ramdas Pophale) SiO2 
 PCOD9482777
Probable space group: C M M M
;
_chemical_formula_sum "Si O2"
_cell_formula_units_Z 120
_cell_length_a 25.369120
_cell_length_b 23.469398
_cell_length_c 14.205036
_cell_angle_alpha 90.000000
_cell_angle_beta 90.000000
_cell_angle_gamma 90.000000
_cell_volume 8457.649658
_symmetry_space_group_name_H-M "C M M M"
_symmetry_group_IT_number 65
_symmetry_cell_setting 'orthorhombic'
loop_
_space_group_symop_operation_xyz
x,y,z
-x,-y,z
x,-y,-z
-x,y,-z
-x,-y,-z
x,y,-z
-x,y,z
x,-y,z
1/2+x,1/2+y,z
1/2-x,1/2-y,z
1/2+x,1/2-y,-z
1/2-x,1/2+y,-z
1/2-x,1/2-y,-z
1/2+x,1/2+y,-z
1/2-x,1/2+y,z
1/2+x,1/2-y,z
loop_
_atom_site_type_symbol
_atom_site_label
_atom_site_fract_x
_atom_site_fract_y
_atom_site_fract_z
Si Si1 0.342400 0.567894 0.706951
Si Si2 0.830854 0.276735 0.612659
Si Si3 0.500000 0.432531 0.890327
Si Si4 0.439494 0.729251 0.103440
Si Si5 0.773851 0.159975 0.386288
Si Si6 0.939981 0.131917 0.612615
Si Si7 0.111957 0.889260 0.890467
Si Si8 0.440873 0.238712 0.690549
O O1 0.338933 0.500000 0.699116
O O2 0.294797 0.602504 0.659483
O O3 0.394904 0.591668 0.654344
O O4 0.346820 0.587127 0.816146
O O5 0.830464 0.275859 0.500000
O O6 0.812016 0.213025 0.641877
O O7 0.784883 0.320328 0.641805
O O8 0.889640 0.289479 0.645868
O O9 0.500000 0.500000 0.886439
O O10 0.555466 0.411792 0.852695
O O11 0.500000 0.414341 0.000000
O O12 0.500000 0.705300 0.106348
O O13 0.397303 0.678467 0.110068
O O14 0.435706 0.766055 0.196802
O O15 0.433993 0.756292 0.000000
O O16 0.775904 0.155595 0.500000
O O17 0.931834 0.139492 0.500000
O O18 0.937547 0.194173 0.661527
O O19 0.000000 0.110270 0.626625
O O20 0.119505 0.907020 0.000000
O O21 0.500000 0.219927 0.662149
#
# Coordination Sequence:
#
# PCOD9482777 Si02
#       8
#    16  16   8  16  16  16  16  16
#     4  12  23  31  43  60  82 113 147 181 217 256
#     4   9  16  29  49  65  81 107 141 180 215 254
#     4   9  16  24  34  48  67  95 135 183 220 238
#     4   9  15  24  39  58  83 114 145 175 207 247
#     4   9  18  32  47  62  79 107 148 183 213 248
#     4  10  20  31  40  55  83 113 140 170 206 250
#     4  10  18  29  41  54  75 106 147 188 216 244
#     4  10  17  26  44  68  90 111 135 171 221 264
#
# _framework density 14.188338999999999
#
# number of rings (size 3 to 8) (size 9 to 14) (size 15 to 20)
#    0.000    2.200    3.333    2.000    0.933    2.933 
#    0.000    0.667    0.000    0.800    0.000    3.733 
#    0.000    0.533    0.000    2.933    0.000    0.000 
#
# Total GULP energy -334139.903319 kJ/mol
# GULP energy per Si atom -5568.998389 kJ/mol
# Density = 1.415605 g / cm^3
# Si number density = 14.188339 Si / 1000 Ang^3
#
#
#
# Elastic Constant Matrix: (Units=GPa)
#
#
# Indices 1 2 3 4 5 6 
#
# 1 89.3207 24.5847 25.8619 0.0000 0.0000 0.0000
# 2 24.5847 23.7658 12.9278 0.0000 0.0000 0.0000
# 3 25.8619 12.9278 58.2698 0.0000 0.0000 0.0000
# 4 0.0000 0.0000 0.0000 9.5699 0.0000 0.0000
# 5 0.0000 0.0000 0.0000 0.0000 16.8307 0.0000
# 6 0.0000 0.0000 0.0000 0.0000 0.0000 15.2522
#
#
#
# Elastic Compliance Matrix: (Units=1/GPa)
#
#
# Indices 1 2 3 4 5 6 
#
# 1 0.016435 -0.014823 -0.004006 0.000000 0.000000 0.000000
# 2 -0.014823 0.061220 -0.007004 0.000000 0.000000 0.000000
# 3 -0.004006 -0.007004 0.020493 0.000000 0.000000 0.000000
# 4 0.000000 0.000000 0.000000 0.104494 0.000000 0.000000
# 5 0.000000 0.000000 0.000000 0.000000 0.059415 0.000000
# 6 0.000000 0.000000 0.000000 0.000000 0.000000 0.065564
#
#
# Mechanical properties :
#
#
# Convention : Reuss Voigt Hill
#
# Bulk Modulus (GPa) = 21.51246 33.12277 27.31761
# Shear Modulus (GPa) = 12.66522 15.52935 14.09729
#
# Velocity S-wave (km/s) = 2.99097 3.31193 3.15553
# Velocity P-wave (km/s) = 5.20796 6.16611 5.70718
#
# Compressibility (1/GPa) = 0.04648470
#
# Stress axis : x y z
#
# Youngs Moduli (GPa) = 60.84480 16.33441 48.79631
#
# Poissons Ratio (x) = 0.24212 0.19547
# Poissons Ratio (y) = 0.90187 0.34176
# Poissons Ratio (z) = 0.24374 0.11440
#
# Static dielectric constant tensor:
#      x y z
#    x 1.495270 0.000000 0.000000 
#    y 0.000000 1.450630 0.000000 
#    z 0.000000 0.000000 1.507520 
# 
# From -- ./inp_files/46090.got.cif
#   From: 2010.05.17/outbox.cif.g08.bks.cpg/sg65_24_cif.got.tgz:46090.got - 2010.06.03 17:01:31.
