data_PCOD9482104
_publ_section_title
;
Structure prediction by ZEFSAII (Michael W. Deem and Ramdas Pophale) SiO2 
 PCOD9482104
Probable space group: C M C A
;
_chemical_formula_sum "Si O2"
_cell_formula_units_Z 80
_cell_length_a 16.710322
_cell_length_b 26.054254
_cell_length_c 7.345544
_cell_angle_alpha 90.000000
_cell_angle_beta 90.000000
_cell_angle_gamma 90.000000
_cell_volume 3198.066027
_symmetry_space_group_name_H-M "C M C A"
_symmetry_group_IT_number 64
_symmetry_cell_setting 'orthorhombic'
loop_
_space_group_symop_operation_xyz
x,y,z
-x,1/2-y,1/2+z
x,-y,-z
-x,1/2+y,1/2-z
-x,-y,-z
x,1/2+y,1/2-z
-x,y,z
x,1/2-y,1/2+z
1/2+x,1/2+y,z
1/2-x,-y,1/2+z
1/2+x,1/2-y,-z
1/2-x,y,1/2-z
1/2-x,1/2-y,-z
1/2+x,y,1/2-z
1/2-x,1/2+y,z
1/2+x,-y,1/2+z
loop_
_atom_site_type_symbol
_atom_site_label
_atom_site_fract_x
_atom_site_fract_y
_atom_site_fract_z
Si Si1 0.186947 0.205854 0.568548
Si Si2 0.588458 0.125063 0.309652
Si Si3 0.636397 0.551803 0.902826
Si Si4 0.906771 0.287645 0.434798
Si Si5 0.812871 0.913295 0.486395
O O1 0.250000 0.250000 0.500000
O O2 0.156383 0.200354 0.775927
O O3 0.106117 0.227833 0.477973
O O4 0.139442 0.088787 0.324584
O O5 0.500000 0.129399 0.230948
O O6 0.587776 0.096911 0.503588
O O7 0.615737 0.181047 0.380490
O O8 0.792887 0.147652 0.523120
O O9 0.728173 0.558840 0.971698
O O10 0.638935 0.562652 0.685599
O O11 0.607182 0.500000 0.000000
O O12 0.000000 0.202363 0.892873
#
# Coordination Sequence:
#
# PCOD9482104 Si02
#       5
#    16  16  16  16  16
#     4  12  24  41  69 106 152 195 250 310 363 446
#     4  11  25  46  72 107 148 191 248 311 377 458
#     4  11  26  48  76 103 140 192 250 318 386 451
#     4  11  24  43  68 104 154 212 252 297 375 461
#     4  11  26  45  73 111 144 191 254 313 378 453
#
# _framework density 25.01512
#
# number of rings (size 3 to 8) (size 9 to 14) (size 15 to 20)
#    0.000    0.800    2.000    4.200    8.400    6.000 
#    0.000    1.000    0.000    0.000    0.000    0.000 
#    0.000    0.000    0.000    0.000    0.000    0.000 
#
# Total GULP energy -223073.485399 kJ/mol
# GULP energy per Si atom -5576.837135 kJ/mol
# Density = 2.495818 g / cm^3
# Si number density = 25.015120 Si / 1000 Ang^3
#
#
#
# Elastic Constant Matrix: (Units=GPa)
#
#
# Indices 1 2 3 4 5 6 
#
# 1 40.5814 -12.7494 23.5584 0.0000 0.0000 0.0000
# 2 -12.7494 106.1359 11.2200 0.0000 0.0000 0.0000
# 3 23.5584 11.2200 140.0026 0.0000 0.0000 0.0000
# 4 0.0000 0.0000 0.0000 40.6888 0.0000 0.0000
# 5 0.0000 0.0000 0.0000 0.0000 4.3772 0.0000
# 6 0.0000 0.0000 0.0000 0.0000 0.0000 768.4984
#
#
#
# Elastic Compliance Matrix: (Units=1/GPa)
#
#
# Indices 1 2 3 4 5 6 
#
# 1 0.028917 0.004022 -0.005188 0.000000 0.000000 0.000000
# 2 0.004022 0.010062 -0.001483 0.000000 0.000000 0.000000
# 3 -0.005188 -0.001483 0.008135 0.000000 0.000000 0.000000
# 4 0.000000 0.000000 0.000000 0.024577 0.000000 0.000000
# 5 0.000000 0.000000 0.000000 0.000000 0.228458 0.000000
# 6 0.000000 0.000000 0.000000 0.000000 0.000000 0.001301
#
#
# Mechanical properties :
#
#
# Convention : Reuss Voigt Hill
#
# Bulk Modulus (GPa) = 23.91481 36.75312 30.33396
# Shear Modulus (GPa) = 15.59154 180.35892 97.97523
#
# Velocity S-wave (km/s) = 2.49928 8.50038 6.26510
# Velocity P-wave (km/s) = 4.23195 10.53880 8.03043
#
# Compressibility (1/GPa) = 0.04181510
#
# Stress axis : x y z
#
# Youngs Moduli (GPa) = 34.58129 99.38561 122.93127
#
# Poissons Ratio (x) = -0.39974 0.63780
# Poissons Ratio (y) = -0.13909 0.18233
# Poissons Ratio (z) = 0.17942 0.14741
#
# Static dielectric constant tensor:
#      x y z
#    x 2.099830 0.000000 0.000000 
#    y 0.000000 1.994470 0.000000 
#    z 0.000000 0.000000 2.096830 
# 
# From -- ./inp_files/7029.got.cif
#   From: 2010.05.17/outbox.cif.g08.bks.cpg/sg64_4_cif.got.tgz:7029.got - 2010.06.03 16:29:19.
