data_PCOD9482195
_publ_section_title
;
Structure prediction by ZEFSAII (Michael W. Deem and Ramdas Pophale) SiO2 
 PCOD9482195
Probable space group: C M C A
;
_chemical_formula_sum "Si O2"
_cell_formula_units_Z 64
_cell_length_a 10.376159
_cell_length_b 20.798956
_cell_length_c 14.763586
_cell_angle_alpha 90.000000
_cell_angle_beta 90.000000
_cell_angle_gamma 90.000000
_cell_volume 3186.177838
_symmetry_space_group_name_H-M "C M C A"
_symmetry_group_IT_number 64
_symmetry_cell_setting 'orthorhombic'
loop_
_space_group_symop_operation_xyz
x,y,z
-x,1/2-y,1/2+z
x,-y,-z
-x,1/2+y,1/2-z
-x,-y,-z
x,1/2+y,1/2-z
-x,y,z
x,1/2-y,1/2+z
1/2+x,1/2+y,z
1/2-x,-y,1/2+z
1/2+x,1/2-y,-z
1/2-x,y,1/2-z
1/2-x,1/2-y,-z
1/2+x,y,1/2-z
1/2-x,1/2+y,z
1/2+x,-y,1/2+z
loop_
_atom_site_type_symbol
_atom_site_label
_atom_site_fract_x
_atom_site_fract_y
_atom_site_fract_z
Si Si1 0.500000 0.686126 0.711193
Si Si2 0.748147 0.855511 0.644135
Si Si3 0.750000 0.099710 0.750000
Si Si4 0.500000 0.778894 0.881997
Si Si5 0.347279 0.505216 0.108792
Si Si6 0.500000 0.712308 0.062565
O O1 0.372334 0.643788 0.725400
O O2 0.500000 0.744068 0.784596
O O3 0.500000 0.719326 0.613304
O O4 0.750000 0.838608 0.750000
O O5 0.876029 0.823585 0.605369
O O6 0.733101 0.931775 0.635881
O O7 0.625255 0.825520 0.594967
O O8 0.708419 0.054633 0.665416
O O9 0.500000 0.722950 0.956048
O O10 0.500000 0.513013 0.131609
O O11 0.338773 0.500000 0.000000
#
# Coordination Sequence:
#
# PCOD9482195 Si02
#       6
#     8  16   8   8  16   8
#     4  12  26  44  66 102 144 174 224 280 346 406
#     4  12  23  46  71  98 137 180 230 283 335 400
#     4  12  26  44  72  98 140 182 220 280 348 402
#     4  12  28  43  70 104 138 179 229 283 339 402
#     4  11  26  46  71 101 136 182 228 279 344 407
#     4  12  26  45  70  98 138 185 225 277 339 406
#
# _framework density 20.086763000000001
#
# number of rings (size 3 to 8) (size 9 to 14) (size 15 to 20)
#    0.000    0.250    6.250    2.250    7.000    1.000 
#    0.000    1.250    0.000    0.000    0.000    0.000 
#    0.000    0.000    0.000    0.000    0.000    0.000 
#
# Total GULP energy -179073.454196 kJ/mol
# GULP energy per Si atom -5596.045444 kJ/mol
# Density = 2.004104 g / cm^3
# Si number density = 20.086763 Si / 1000 Ang^3
#
#
#
# Elastic Constant Matrix: (Units=GPa)
#
#
# Indices 1 2 3 4 5 6 
#
# 1 128.2933 33.1851 -7.7801 0.0000 0.0000 0.0000
# 2 33.1851 79.3266 -20.3119 0.0000 0.0000 0.0000
# 3 -7.7801 -20.3119 46.6420 0.0000 0.0000 0.0000
# 4 0.0000 0.0000 0.0000 22.6117 0.0000 0.0000
# 5 0.0000 0.0000 0.0000 0.0000 59.4518 0.0000
# 6 0.0000 0.0000 0.0000 0.0000 0.0000 65.4630
#
#
#
# Elastic Compliance Matrix: (Units=1/GPa)
#
#
# Indices 1 2 3 4 5 6 
#
# 1 0.008741 -0.003696 -0.000151 0.000000 0.000000 0.000000
# 2 -0.003696 0.015751 0.006243 0.000000 0.000000 0.000000
# 3 -0.000151 0.006243 0.024133 0.000000 0.000000 0.000000
# 4 0.000000 0.000000 0.000000 0.044225 0.000000 0.000000
# 5 0.000000 0.000000 0.000000 0.000000 0.016820 0.000000
# 6 0.000000 0.000000 0.000000 0.000000 0.000000 0.015276
#
#
# Mechanical properties :
#
#
# Convention : Reuss Voigt Hill
#
# Bulk Modulus (GPa) = 18.72061 29.38311 24.05186
# Shear Modulus (GPa) = 36.24231 46.11655 41.17943
#
# Velocity S-wave (km/s) = 4.25230 4.79672 4.53269
# Velocity P-wave (km/s) = 5.78356 6.73334 6.27644
#
# Compressibility (1/GPa) = 0.05341707
#
# Stress axis : x y z
#
# Youngs Moduli (GPa) = 114.39835 63.48973 41.43649
#
# Poissons Ratio (x) = 0.23463 0.00627
# Poissons Ratio (y) = 0.42277 -0.25868
# Poissons Ratio (z) = 0.01730 -0.39635
#
# Static dielectric constant tensor:
#      x y z
#    x 1.672850 0.000000 0.000000 
#    y 0.000000 1.686420 0.000000 
#    z 0.000000 0.000000 1.697490 
# 
# From -- ./inp_files/20951.got.cif
#   From: 2010.05.17/outbox.cif.g08.bks.cpg/sg64_11_cif.got.tgz:20951.got - 2010.06.03 16:29:19.
