data_PCOD9482653
_publ_section_title
;
Structure prediction by ZEFSAII (Michael W. Deem and Ramdas Pophale) SiO2 
 PCOD9482653
Probable space group: C M M M
;
_chemical_formula_sum "Si O2"
_cell_formula_units_Z 80
_cell_length_a 34.188341
_cell_length_b 20.139563
_cell_length_c 7.815082
_cell_angle_alpha 90.000000
_cell_angle_beta 90.000000
_cell_angle_gamma 90.000000
_cell_volume 5380.982864
_symmetry_space_group_name_H-M "C M M M"
_symmetry_group_IT_number 65
_symmetry_cell_setting 'orthorhombic'
loop_
_space_group_symop_operation_xyz
x,y,z
-x,-y,z
x,-y,-z
-x,y,-z
-x,-y,-z
x,y,-z
-x,y,z
x,-y,z
1/2+x,1/2+y,z
1/2-x,1/2-y,z
1/2+x,1/2-y,-z
1/2-x,1/2+y,-z
1/2-x,1/2-y,-z
1/2+x,1/2+y,-z
1/2-x,1/2+y,z
1/2+x,1/2-y,z
loop_
_atom_site_type_symbol
_atom_site_label
_atom_site_fract_x
_atom_site_fract_y
_atom_site_fract_z
Si Si1 0.956124 0.076249 0.293674
Si Si2 0.625094 0.628602 0.797017
Si Si3 0.741062 0.000000 0.195848
Si Si4 0.326934 0.500000 0.691954
Si Si5 0.689019 0.273619 0.791846
Si Si6 0.233375 0.645856 0.790485
O O1 0.956288 0.074848 0.500000
O O2 0.920779 0.122878 0.238676
O O3 0.000000 0.094645 0.236723
O O4 0.948547 0.000000 0.235585
O O5 0.646415 0.564364 0.719458
O O6 0.648355 0.693802 0.735752
O O7 0.630824 0.623990 0.000000
O O8 0.728824 0.070789 0.273002
O O9 0.788432 0.000000 0.192741
O O10 0.726668 0.000000 0.000000
O O11 0.311469 0.500000 0.500000
O O12 0.724407 0.323327 0.742307
O O13 0.701293 0.200006 0.734983
O O14 0.689096 0.271305 0.000000
O O15 0.233421 0.643776 0.000000
#
# Coordination Sequence:
#
# PCOD9482653 Si02
#       6
#    16  16   8   8  16  16
#     4   9  18  31  43  56  78 104 124 150 195 236
#     4  11  19  28  43  59  74  97 134 168 190 222
#     4  10  16  26  44  59  71  96 139 171 186 220
#     4  12  22  28  35  53  80 104 128 162 203 232
#     4   8  14  23  36  56  80  99 119 157 201 226
#     4   8  13  22  37  57  78  98 123 159 196 223
#
# _framework density 14.867171000000001
#
# number of rings (size 3 to 8) (size 9 to 14) (size 15 to 20)
#    0.000    2.600    3.000    3.300    0.000    0.400 
#    0.000    1.000    0.000    3.600    0.000    0.000 
#    0.000    0.000    0.000    0.900    0.000   22.000 
#
# Total GULP energy -222868.463051 kJ/mol
# GULP energy per Si atom -5571.711576 kJ/mol
# Density = 1.483333 g / cm^3
# Si number density = 14.867171 Si / 1000 Ang^3
#
#
#
# Elastic Constant Matrix: (Units=GPa)
#
#
# Indices 1 2 3 4 5 6 
#
# 1 97.8240 59.7987 1.0068 0.0000 0.0000 0.0000
# 2 59.7987 126.9222 3.9675 0.0000 0.0000 0.0000
# 3 1.0068 3.9675 24.9994 0.0000 0.0000 0.0000
# 4 0.0000 0.0000 0.0000 24.1015 0.0000 0.0000
# 5 0.0000 0.0000 0.0000 0.0000 51.0897 0.0000
# 6 0.0000 0.0000 0.0000 0.0000 0.0000 26.3404
#
#
#
# Elastic Compliance Matrix: (Units=1/GPa)
#
#
# Indices 1 2 3 4 5 6 
#
# 1 0.014364 -0.006783 0.000498 0.000000 0.000000 0.000000
# 2 -0.006783 0.011121 -0.001492 0.000000 0.000000 0.000000
# 3 0.000498 -0.001492 0.040218 0.000000 0.000000 0.000000
# 4 0.000000 0.000000 0.000000 0.041491 0.000000 0.000000
# 5 0.000000 0.000000 0.000000 0.000000 0.019573 0.000000
# 6 0.000000 0.000000 0.000000 0.000000 0.000000 0.037965
#
#
# Mechanical properties :
#
#
# Convention : Reuss Voigt Hill
#
# Bulk Modulus (GPa) = 19.94054 42.14351 31.04203
# Shear Modulus (GPa) = 25.38054 32.63783 29.00918
#
# Velocity S-wave (km/s) = 4.13625 4.69048 4.42206
# Velocity P-wave (km/s) = 6.02105 7.59884 6.85549
#
# Compressibility (1/GPa) = 0.05014908
#
# Stress axis : x y z
#
# Youngs Moduli (GPa) = 69.62035 89.91837 24.86469
#
# Poissons Ratio (x) = 0.60991 -0.01238
# Poissons Ratio (y) = 0.47223 0.03709
# Poissons Ratio (z) = -0.03467 0.13414
#
# Static dielectric constant tensor:
#      x y z
#    x 1.489230 0.000000 0.000000 
#    y 0.000000 1.508390 0.000000 
#    z 0.000000 0.000000 1.546030 
# 
# From -- ./inp_files/18448.got.cif
#   From: 2010.05.17/outbox.cif.g08.bks.cpg/sg65_10_cif.got.tgz:18448.got - 2010.06.03 17:01:31.
