data_PCOD9482408
_publ_section_title
;
Structure prediction by ZEFSAII (Michael W. Deem and Ramdas Pophale) SiO2 
 PCOD9482408
Probable space group: C M C A
;
_chemical_formula_sum "Si O2"
_cell_formula_units_Z 48
_cell_length_a 9.000000
_cell_length_b 27.000000
_cell_length_c 21.000000
_cell_angle_alpha 90.000000
_cell_angle_beta 90.000000
_cell_angle_gamma 90.000000
_cell_volume 5103.000000
_symmetry_space_group_name_H-M "C M C A"
_symmetry_group_IT_number 64
_symmetry_cell_setting 'orthorhombic'
loop_
_space_group_symop_operation_xyz
x,y,z
-x,1/2-y,1/2+z
x,-y,-z
-x,1/2+y,1/2-z
-x,-y,-z
x,1/2+y,1/2-z
-x,y,z
x,1/2-y,1/2+z
1/2+x,1/2+y,z
1/2-x,-y,1/2+z
1/2+x,1/2-y,-z
1/2-x,y,1/2-z
1/2-x,1/2-y,-z
1/2+x,y,1/2-z
1/2-x,1/2+y,z
1/2+x,-y,1/2+z
loop_
_atom_site_type_symbol
_atom_site_label
_atom_site_fract_x
_atom_site_fract_y
_atom_site_fract_z
Si Si1 0.178715 0.157192 0.951684
Si Si2 0.177179 0.612308 0.184109
Si Si3 0.820349 0.284660 0.323382
Si Si4 0.677826 0.995167 0.183163
Si Si5 0.679051 0.308276 0.581822
Si Si6 0.320864 0.458410 0.052889
O O1 0.219339 0.173627 0.878324
O O2 0.215427 0.099020 0.963032
O O3 0.000000 0.163507 0.955482
O O4 0.249133 0.188369 0.010977
O O5 0.250000 0.630450 0.250000
O O6 0.210531 0.554102 0.177629
O O7 0.223008 0.642565 0.121646
O O8 0.000000 0.618125 0.190359
O O9 0.750000 0.286465 0.250000
O O10 0.784594 0.235599 0.366865
O O11 0.000000 0.285989 0.314262
O O12 0.500000 0.988609 0.185362
O O13 0.750000 0.978043 0.250000
O O14 0.746526 0.970431 0.120671
O O15 0.500000 0.306492 0.573172
O O16 0.500000 0.461480 0.059068
O O17 0.276463 0.500000 0.000000
#
# Coordination Sequence:
#
# PCOD9482408 Si02
#       6
#    16  16  16  16  16  16
#     4  10  22  38  56  81 111 142 180 224 269 321
#     4   9  18  31  49  77 109 140 178 223 270 322
#     4  10  22  39  58  82 111 142 179 221 264 318
#     4  10  20  34  53  77 107 142 181 226 274 326
#     4  10  20  35  56  82 110 140 177 220 267 321
#     4  10  21  37  56  79 109 145 185 229 275 323
#
# _framework density 9.4062319999999993
#
# number of rings (size 3 to 8) (size 9 to 14) (size 15 to 20)
#    0.000    2.167    0.000    2.500    0.000    4.333 
#    0.000    1.667    0.000    0.000    0.000    0.000 
#    0.000    0.000    0.000    0.000    0.000    0.000 
#
# Total GULP energy -267551.849469 kJ/mol
# GULP energy per Si atom -5573.996864 kJ/mol
# Density = 0.938482 g / cm^3
# Si number density = 9.406232 Si / 1000 Ang^3
#
#
#
# Elastic Constant Matrix: (Units=GPa)
#
#
# Indices 1 2 3 4 5 6 
#
# 1 29.4270 27.3487 41.2403 0.0000 0.0000 0.0000
# 2 27.3487 87.1017 59.2500 0.0000 0.0000 0.0000
# 3 41.2403 59.2500 190.7046 0.0000 0.0000 0.0000
# 4 0.0000 0.0000 0.0000 40.4185 0.0000 0.0000
# 5 0.0000 0.0000 0.0000 0.0000 50.2029 0.0000
# 6 0.0000 0.0000 0.0000 0.0000 0.0000 16.4573
#
#
#
# Elastic Compliance Matrix: (Units=1/GPa)
#
#
# Indices 1 2 3 4 5 6 
#
# 1 0.057363 -0.012138 -0.008634 0.000000 0.000000 0.000000
# 2 -0.012138 0.017126 -0.002696 0.000000 0.000000 0.000000
# 3 -0.008634 -0.002696 0.007948 0.000000 0.000000 0.000000
# 4 0.000000 0.000000 0.000000 0.024741 0.000000 0.000000
# 5 0.000000 0.000000 0.000000 0.000000 0.019919 0.000000
# 6 0.000000 0.000000 0.000000 0.000000 0.000000 0.060763
#
#
# Mechanical properties :
#
#
# Convention : Reuss Voigt Hill
#
# Bulk Modulus (GPa) = 28.16768 62.54570 45.35669
# Shear Modulus (GPa) = 20.27325 33.37536 26.82431
#
# Velocity S-wave (km/s) = 3.28632 4.21659 3.78018
# Velocity P-wave (km/s) = 5.42266 7.55151 6.57383
#
# Compressibility (1/GPa) = 0.03550168
#
# Stress axis : x y z
#
# Youngs Moduli (GPa) = 17.43284 58.39097 125.81201
#
# Poissons Ratio (x) = 0.70876 1.08622
# Poissons Ratio (y) = 0.21160 0.33918
# Poissons Ratio (z) = 0.15051 0.15742
#
# Static dielectric constant tensor:
#      x y z
#    x 1.633080 0.000000 0.000000 
#    y 0.000000 1.718740 0.000000 
#    z 0.000000 0.000000 1.636630 
# 
# From -- ./inp_files/37055.got.cif
#   From: 2010.05.17/outbox.ucp.g08.bks.cvg/sg64_19_cif.got.tgz:37055.got - 2010.06.11 16:36:46.
