data_PCOD9482148
_publ_section_title
;
Structure prediction by ZEFSAII (Michael W. Deem and Ramdas Pophale) SiO2 
 PCOD9482148
Probable space group: C M C A
;
_chemical_formula_sum "Si O2"
_cell_formula_units_Z 48
_cell_length_a 15.833955
_cell_length_b 17.396241
_cell_length_c 7.576041
_cell_angle_alpha 90.000000
_cell_angle_beta 90.000000
_cell_angle_gamma 90.000000
_cell_volume 2086.830321
_symmetry_space_group_name_H-M "C M C A"
_symmetry_group_IT_number 64
_symmetry_cell_setting 'orthorhombic'
loop_
_space_group_symop_operation_xyz
x,y,z
-x,1/2-y,1/2+z
x,-y,-z
-x,1/2+y,1/2-z
-x,-y,-z
x,1/2+y,1/2-z
-x,y,z
x,1/2-y,1/2+z
1/2+x,1/2+y,z
1/2-x,-y,1/2+z
1/2+x,1/2-y,-z
1/2-x,y,1/2-z
1/2-x,1/2-y,-z
1/2+x,y,1/2-z
1/2-x,1/2+y,z
1/2+x,-y,1/2+z
loop_
_atom_site_type_symbol
_atom_site_label
_atom_site_fract_x
_atom_site_fract_y
_atom_site_fract_z
Si Si1 0.165576 0.643862 0.072214
Si Si2 0.405401 0.797928 0.290205
Si Si3 0.641992 0.415514 0.924911
O O1 0.157065 0.727988 0.163057
O O2 0.260012 0.611573 0.055045
O O3 0.121295 0.589756 0.217485
O O4 0.124854 0.655739 0.881554
O O5 0.500000 0.767437 0.260016
O O6 0.406267 0.854404 0.456250
O O7 0.631129 0.500000 0.000000
#
# Coordination Sequence:
#
# PCOD9482148 Si02
#       3
#    16  16  16
#     4  11  25  43  73 102 136 182 237 285 341 417
#     4  12  25  44  72 104 141 181 231 290 354 422
#     4  11  27  45  71 103 140 183 236 296 347 411
#
# _framework density 23.001391999999999
#
# number of rings (size 3 to 8) (size 9 to 14) (size 15 to 20)
#    0.000    0.667    3.333    3.000   14.000    2.000 
#    0.000    1.667    0.000    0.000    0.000    0.000 
#    0.000    0.000    0.000    0.000    0.000    0.000 
#
# Total GULP energy -134317.483862 kJ/mol
# GULP energy per Si atom -5596.561828 kJ/mol
# Density = 2.294904 g / cm^3
# Si number density = 23.001392 Si / 1000 Ang^3
#
#
#
# Elastic Constant Matrix: (Units=GPa)
#
#
# Indices 1 2 3 4 5 6 
#
# 1 35.7275 -11.3415 -4.2250 0.0000 0.0000 0.0000
# 2 -11.3415 85.1234 -20.1639 0.0000 0.0000 0.0000
# 3 -4.2250 -20.1639 107.2603 0.0000 0.0000 0.0000
# 4 0.0000 0.0000 0.0000 3.2611 0.0000 0.0000
# 5 0.0000 0.0000 0.0000 0.0000 -21.5755 0.0000
# 6 0.0000 0.0000 0.0000 0.0000 0.0000 -7.2068
#
#
#
# Elastic Compliance Matrix: (Units=1/GPa)
#
#
# Indices 1 2 3 4 5 6 
#
# 1 0.029629 0.004421 0.001998 0.000000 0.000000 0.000000
# 2 0.004421 0.012955 0.002610 0.000000 0.000000 0.000000
# 3 0.001998 0.002610 0.009892 0.000000 0.000000 0.000000
# 4 0.000000 0.000000 0.000000 0.306649 0.000000 0.000000
# 5 0.000000 0.000000 0.000000 0.000000 -0.046349 0.000000
# 6 0.000000 0.000000 0.000000 0.000000 0.000000 -0.138758
#
#
# Mechanical properties :
#
#
# Convention : Reuss Voigt Hill
#
# Bulk Modulus (GPa) = 14.17751 17.40558 15.79155
# Shear Modulus (GPa) = 27.85943 12.48519 20.17231
#
# Velocity S-wave (km/s) = 3.48401 2.33234 2.96464
# Velocity P-wave (km/s) = 4.72881 3.85184 4.31267
#
# Compressibility (1/GPa) = 0.07053426
#
# Stress axis : x y z
#
# Youngs Moduli (GPa) = 33.75027 77.19120 101.08783
#
# Poissons Ratio (x) = -0.34127 -0.20200
# Poissons Ratio (y) = -0.14921 -0.26379
# Poissons Ratio (z) = -0.06744 -0.20143
#
# Static dielectric constant tensor:
#      x y z
#    x 1.900930 0.000000 0.000000 
#    y 0.000000 1.814340 0.000000 
#    z 0.000000 0.000000 1.882570 
# 
# From -- ./inp_files/5009.got.cif
#   From: 2010.05.17/outbox.cif.g08.bks.cpg/sg64_3_cif.got.tgz:5009.got - 2010.06.03 16:29:19.
