data_PCOD9482819
_publ_section_title
;
Structure prediction by ZEFSAII (Michael W. Deem and Ramdas Pophale) SiO2 
 PCOD9482819
Probable space group: C M M M
;
_chemical_formula_sum "Si O2"
_cell_formula_units_Z 64
_cell_length_a 7.669131
_cell_length_b 26.172101
_cell_length_c 18.003546
_cell_angle_alpha 90.000000
_cell_angle_beta 90.000000
_cell_angle_gamma 90.000000
_cell_volume 3613.622623
_symmetry_space_group_name_H-M "C M M M"
_symmetry_group_IT_number 65
_symmetry_cell_setting 'orthorhombic'
loop_
_space_group_symop_operation_xyz
x,y,z
-x,-y,z
x,-y,-z
-x,y,-z
-x,-y,-z
x,y,-z
-x,y,z
x,-y,z
1/2+x,1/2+y,z
1/2-x,1/2-y,z
1/2+x,1/2-y,-z
1/2-x,1/2+y,-z
1/2-x,1/2-y,-z
1/2+x,1/2+y,-z
1/2-x,1/2+y,z
1/2+x,1/2-y,z
loop_
_atom_site_type_symbol
_atom_site_label
_atom_site_fract_x
_atom_site_fract_y
_atom_site_fract_z
Si Si1 0.795805 0.937896 0.000000
Si Si2 0.714004 0.500000 0.414565
Si Si3 0.293335 0.596034 0.682044
Si Si4 0.786757 0.059872 0.161467
Si Si5 0.207119 0.691542 0.583630
O O1 0.722147 0.922386 0.080271
O O2 0.000000 0.923137 0.000000
O O3 0.790448 0.000000 0.000000
O O4 0.500000 0.500000 0.415398
O O5 0.770645 0.500000 0.500000
O O6 0.773598 0.550431 0.370637
O O7 0.500000 0.587112 0.687765
O O8 0.225711 0.590294 0.766063
O O9 0.268201 0.649965 0.642428
O O10 0.000000 0.061688 0.158033
O O11 0.741936 0.000000 0.171895
O O12 0.278506 0.681680 0.500000
O O13 0.250000 0.750000 0.603068
O O14 0.000000 0.687109 0.579808
#
# Coordination Sequence:
#
# PCOD9482819 Si02
#       5
#     8   8  16  16  16
#     4   7  10  16  30  54  88 123 150 179 216 250
#     4   9  16  24  37  60  90 122 151 177 211 259
#     4  10  17  27  45  68  93 120 152 186 220 260
#     4   8  12  20  35  60  92 123 152 182 214 255
#     4  10  21  36  51  66  85 112 149 191 232 271
#
# _framework density 17.710757999999998
#
# number of rings (size 3 to 8) (size 9 to 14) (size 15 to 20)
#    0.000    3.000    1.250    3.000    0.000    2.500 
#    0.000    0.625    0.000    2.250    0.000    1.750 
#    0.000    3.000    0.000    0.000    0.000    0.000 
#
# Total GULP energy -178279.244818 kJ/mol
# GULP energy per Si atom -5571.226401 kJ/mol
# Density = 1.767045 g / cm^3
# Si number density = 17.710758 Si / 1000 Ang^3
#
#
#
# Elastic Constant Matrix: (Units=GPa)
#
#
# Indices 1 2 3 4 5 6 
#
# 1 27.9349 -7.7701 7.3260 0.0000 0.0000 0.0000
# 2 -7.7701 79.4916 92.0523 0.0000 0.0000 0.0000
# 3 7.3260 92.0523 215.6802 0.0000 0.0000 0.0000
# 4 0.0000 0.0000 0.0000 19.8670 0.0000 0.0000
# 5 0.0000 0.0000 0.0000 0.0000 0.7217 0.0000
# 6 0.0000 0.0000 0.0000 0.0000 0.0000 6.9095
#
#
#
# Elastic Compliance Matrix: (Units=1/GPa)
#
#
# Indices 1 2 3 4 5 6 
#
# 1 0.040433 0.010959 -0.006051 0.000000 0.000000 0.000000
# 2 0.010959 0.027844 -0.012256 0.000000 0.000000 0.000000
# 3 -0.006051 -0.012256 0.010073 0.000000 0.000000 0.000000
# 4 0.000000 0.000000 0.000000 0.050335 0.000000 0.000000
# 5 0.000000 0.000000 0.000000 0.000000 1.385603 0.000000
# 6 0.000000 0.000000 0.000000 0.000000 0.000000 0.144728
#
#
# Mechanical properties :
#
#
# Convention : Reuss Voigt Hill
#
# Bulk Modulus (GPa) = 15.70998 56.25812 35.98405
# Shear Modulus (GPa) = 2.94998 20.93287 11.94142
#
# Velocity S-wave (km/s) = 1.29200 3.44165 2.59944
# Velocity P-wave (km/s) = 3.33395 6.90124 5.41952
#
# Compressibility (1/GPa) = 0.06365379
#
# Stress axis : x y z
#
# Youngs Moduli (GPa) = 24.73255 35.91476 99.27672
#
# Poissons Ratio (x) = -0.39359 0.60069
# Poissons Ratio (y) = -0.27104 1.21673
# Poissons Ratio (z) = 0.14965 0.44017
#
# Static dielectric constant tensor:
#      x y z
#    x 1.663690 0.000000 0.000000 
#    y 0.000000 1.605360 0.000000 
#    z 0.000000 0.000000 1.666910 
# 
# From -- ./inp_files/49051.got.cif
#   From: 2010.05.17/outbox.cif.g08.bks.cpg/sg65_25_cif.got.tgz:49051.got - 2010.06.03 17:01:31.
