data_PCOD9482686
_publ_section_title
;
Structure prediction by ZEFSAII (Michael W. Deem and Ramdas Pophale) SiO2 
 PCOD9482686
Probable space group: C M M M
;
_chemical_formula_sum "Si O2"
_cell_formula_units_Z 78
_cell_length_a 25.343616
_cell_length_b 14.716183
_cell_length_c 11.697471
_cell_angle_alpha 90.000000
_cell_angle_beta 90.000000
_cell_angle_gamma 90.000000
_cell_volume 4362.703885
_symmetry_space_group_name_H-M "C M M M"
_symmetry_group_IT_number 65
_symmetry_cell_setting 'orthorhombic'
loop_
_space_group_symop_operation_xyz
x,y,z
-x,-y,z
x,-y,-z
-x,y,-z
-x,-y,-z
x,y,-z
-x,y,z
x,-y,z
1/2+x,1/2+y,z
1/2-x,1/2-y,z
1/2+x,1/2-y,-z
1/2-x,1/2+y,-z
1/2-x,1/2-y,-z
1/2+x,1/2+y,-z
1/2-x,1/2+y,z
1/2+x,1/2-y,z
loop_
_atom_site_type_symbol
_atom_site_label
_atom_site_fract_x
_atom_site_fract_y
_atom_site_fract_z
Si Si1 0.392599 0.605991 0.137191
Si Si2 0.000000 0.892753 0.250213
Si Si3 0.810070 0.741568 0.862461
Si Si4 0.914398 0.337392 0.500000
Si Si5 0.500000 0.889705 0.132376
Si Si6 0.388526 0.890330 0.254337
Si Si7 0.500000 0.000000 0.500000
Si Si8 0.500000 0.318212 0.500000
O O1 0.384416 0.500000 0.168655
O O2 0.446344 0.642297 0.193635
O O3 0.344220 0.669972 0.170565
O O4 0.398714 0.609515 0.000000
O O5 0.000000 0.875099 0.384274
O O6 0.000000 0.000000 0.225282
O O7 0.750000 0.750000 0.821228
O O8 0.842357 0.654431 0.819431
O O9 0.808891 0.738136 0.000000
O O10 0.884068 0.349308 0.381288
O O11 0.954935 0.421211 0.500000
O O12 0.948680 0.246137 0.500000
O O13 0.446363 0.865934 0.200612
O O14 0.500000 0.000000 0.128097
O O15 0.500000 0.857122 0.000000
O O16 0.385783 0.000000 0.257160
#
# Coordination Sequence:
#
# PCOD9482686 Si02
#       8
#    16   8  16   8   8  16   2   4
#     4   9  18  34  56  78 103 136 174 220 271 322
#     4  10  19  33  52  81 111 135 173 219 269 328
#     4  10  22  38  55  79 109 142 185 230 275 331
#     4  11  21  33  53  78 110 147 192 214 262 330
#     4   9  18  30  48  78 111 140 170 210 269 336
#     4  11  21  35  56  80 112 148 184 226 275 331
#     4  10  16  32  50  76 112 144 170 220 256 318
#     4  11  21  29  49  76 112 154 171 203 263 319
#
# _framework density 17.878820000000001
#
# number of rings (size 3 to 8) (size 9 to 14) (size 15 to 20)
#    0.000    1.949    1.026    3.538    1.436    4.103 
#    0.000    3.590    0.000    0.000    0.000    2.872 
#    0.000    0.000    0.000    0.000    0.000    0.000 
#
# Total GULP energy -217395.511474 kJ/mol
# GULP energy per Si atom -5574.243884 kJ/mol
# Density = 1.783813 g / cm^3
# Si number density = 17.878820 Si / 1000 Ang^3
#
#
#
# Elastic Constant Matrix: (Units=GPa)
#
#
# Indices 1 2 3 4 5 6 
#
# 1 150.7359 44.1304 43.0249 0.0000 0.0000 0.0000
# 2 44.1304 51.8042 18.5712 0.0000 0.0000 0.0000
# 3 43.0249 18.5712 56.2407 0.0000 0.0000 0.0000
# 4 0.0000 0.0000 0.0000 7.9729 0.0000 0.0000
# 5 0.0000 0.0000 0.0000 0.0000 175.8713 0.0000
# 6 0.0000 0.0000 0.0000 0.0000 0.0000 18.4197
#
#
#
# Elastic Compliance Matrix: (Units=1/GPa)
#
#
# Indices 1 2 3 4 5 6 
#
# 1 0.010182 -0.006671 -0.005586 0.000000 0.000000 0.000000
# 2 -0.006671 0.026266 -0.003570 0.000000 0.000000 0.000000
# 3 -0.005586 -0.003570 0.023233 0.000000 0.000000 0.000000
# 4 0.000000 0.000000 0.000000 0.125424 0.000000 0.000000
# 5 0.000000 0.000000 0.000000 0.000000 0.005686 0.000000
# 6 0.000000 0.000000 0.000000 0.000000 0.000000 0.054290
#
#
# Mechanical properties :
#
#
# Convention : Reuss Voigt Hill
#
# Bulk Modulus (GPa) = 35.68054 52.24821 43.96437
# Shear Modulus (GPa) = 17.47780 50.65639 34.06710
#
# Velocity S-wave (km/s) = 3.13000 5.32867 4.36988
# Velocity P-wave (km/s) = 5.75002 8.19430 7.07846
#
# Compressibility (1/GPa) = 0.02802648
#
# Stress axis : x y z
#
# Youngs Moduli (GPa) = 98.21615 38.07217 43.04184
#
# Poissons Ratio (x) = 0.25397 0.24045
# Poissons Ratio (y) = 0.65518 0.15366
# Poissons Ratio (z) = 0.54867 0.13592
#
# Static dielectric constant tensor:
#      x y z
#    x 1.597560 0.000000 0.000000 
#    y 0.000000 1.623730 0.000000 
#    z 0.000000 0.000000 1.659290 
# 
# From -- ./inp_files/30507.got.cif
#   From: 2010.05.17/outbox.cif.g08.bks.cpg/sg65_16_cif.got.tgz:30507.got - 2010.06.03 17:01:31.
