data_PCOD9482747
_publ_section_title
;
Structure prediction by ZEFSAII (Michael W. Deem and Ramdas Pophale) SiO2 
 PCOD9482747
Probable space group: C M M M
;
_chemical_formula_sum "Si O2"
_cell_formula_units_Z 104
_cell_length_a 8.669264
_cell_length_b 28.789197
_cell_length_c 27.164177
_cell_angle_alpha 90.000000
_cell_angle_beta 90.000000
_cell_angle_gamma 90.000000
_cell_volume 6779.666511
_symmetry_space_group_name_H-M "C M M M"
_symmetry_group_IT_number 65
_symmetry_cell_setting 'orthorhombic'
loop_
_space_group_symop_operation_xyz
x,y,z
-x,-y,z
x,-y,-z
-x,y,-z
-x,-y,-z
x,y,-z
-x,y,z
x,-y,z
1/2+x,1/2+y,z
1/2-x,1/2-y,z
1/2+x,1/2-y,-z
1/2-x,1/2+y,-z
1/2-x,1/2-y,-z
1/2+x,1/2+y,-z
1/2-x,1/2+y,z
1/2+x,1/2-y,z
loop_
_atom_site_type_symbol
_atom_site_label
_atom_site_fract_x
_atom_site_fract_y
_atom_site_fract_z
Si Si1 0.174756 0.556335 0.000000
Si Si2 0.315835 0.697644 0.242792
Si Si3 0.815211 0.197349 0.446002
Si Si4 0.184010 0.945751 0.105201
Si Si5 0.684190 0.802706 0.345521
Si Si6 0.815154 0.358667 0.151212
Si Si7 0.186044 0.697912 0.054460
O O1 0.258984 0.568443 0.050550
O O2 0.167269 0.500000 0.000000
O O3 0.000000 0.575044 0.000000
O O4 0.500000 0.700393 0.245429
O O5 0.250000 0.750000 0.236226
O O6 0.249705 0.677959 0.294373
O O7 0.261383 0.666448 0.197452
O O8 0.779099 0.176513 0.500000
O O9 0.750000 0.250000 0.447729
O O10 0.743144 0.175508 0.396783
O O11 0.000000 0.199438 0.440794
O O12 0.263150 0.911582 0.143806
O O13 0.000000 0.941558 0.107686
O O14 0.225061 0.000000 0.112286
O O15 0.500000 0.801476 0.344637
O O16 0.750000 0.750000 0.345901
O O17 0.764750 0.332276 0.101064
O O18 0.000000 0.355569 0.155212
O O19 0.250000 0.750000 0.059435
O O20 0.000000 0.699623 0.055174
O O21 0.233264 0.680274 0.000000
#
# Coordination Sequence:
#
# PCOD9482747 Si02
#       7
#     8  16  16  16  16  16  16
#     4   9  17  31  51  71  90 113 138 167 207 255
#     4  11  21  34  49  65  89 117 152 192 232 270
#     4   9  15  22  33  51  76 106 141 180 222 264
#     4  10  21  36  52  72  96 118 143 177 218 267
#     4  10  17  26  40  57  79 108 145 185 227 266
#     4  11  22  34  51  71  91 115 149 184 222 272
#     4   9  19  34  49  66  88 113 140 174 214 259
#
# _framework density 15.339988
#
# number of rings (size 3 to 8) (size 9 to 14) (size 15 to 20)
#    0.000    2.077    0.000    6.692    1.077    5.231 
#    0.000    0.000    0.000    0.000    0.000    0.000 
#    0.000    0.000    0.000    0.000    0.000    0.769 
#
# Total GULP energy -290009.571186 kJ/mol
# GULP energy per Si atom -5577.107138 kJ/mol
# Density = 1.530507 g / cm^3
# Si number density = 15.339988 Si / 1000 Ang^3
#
#
#
# Elastic Constant Matrix: (Units=GPa)
#
#
# Indices 1 2 3 4 5 6 
#
# 1 94.6353 24.6525 58.0768 0.0000 0.0000 0.0000
# 2 24.6525 41.8381 44.5634 0.0000 0.0000 0.0000
# 3 58.0768 44.5634 150.5433 0.0000 0.0000 0.0000
# 4 0.0000 0.0000 0.0000 4.8167 0.0000 0.0000
# 5 0.0000 0.0000 0.0000 0.0000 28.1989 0.0000
# 6 0.0000 0.0000 0.0000 0.0000 0.0000 16.5502
#
#
#
# Elastic Compliance Matrix: (Units=1/GPa)
#
#
# Indices 1 2 3 4 5 6 
#
# 1 0.014227 -0.003705 -0.004392 0.000000 0.000000 0.000000
# 2 -0.003705 0.035873 -0.009190 0.000000 0.000000 0.000000
# 3 -0.004392 -0.009190 0.011057 0.000000 0.000000 0.000000
# 4 0.000000 0.000000 0.000000 0.207610 0.000000 0.000000
# 5 0.000000 0.000000 0.000000 0.000000 0.035462 0.000000
# 6 0.000000 0.000000 0.000000 0.000000 0.000000 0.060422
#
#
# Mechanical properties :
#
#
# Convention : Reuss Voigt Hill
#
# Bulk Modulus (GPa) = 37.61640 60.17799 48.89720
# Shear Modulus (GPa) = 12.25230 20.56143 16.40686
#
# Velocity S-wave (km/s) = 2.82922 3.66509 3.27394
# Velocity P-wave (km/s) = 5.93698 7.56473 6.79974
#
# Compressibility (1/GPa) = 0.02658415
#
# Stress axis : x y z
#
# Youngs Moduli (GPa) = 70.28734 27.87595 90.43923
#
# Poissons Ratio (x) = 0.10329 0.39719
# Poissons Ratio (y) = 0.26044 0.83110
# Poissons Ratio (z) = 0.30869 0.25617
#
# Static dielectric constant tensor:
#      x y z
#    x 1.513140 0.000000 0.000000 
#    y 0.000000 1.494620 0.000000 
#    z 0.000000 0.000000 1.558890 
# 
# From -- ./inp_files/68149.got.cif
#   From: 2010.05.17/outbox.cif.g08.bks.cpg/sg65_35_cif.got.tgz:68149.got - 2010.06.03 17:01:31.
