data_PCOD9482939
_publ_section_title
;
Structure prediction by ZEFSAII (Michael W. Deem and Ramdas Pophale) SiO2 
 PCOD9482939
Probable space group: C M M M
;
_chemical_formula_sum "Si O2"
_cell_formula_units_Z 84
_cell_length_a 21.164801
_cell_length_b 14.618046
_cell_length_c 16.440909
_cell_angle_alpha 90.000000
_cell_angle_beta 90.000000
_cell_angle_gamma 90.000000
_cell_volume 5086.620523
_symmetry_space_group_name_H-M "C M M M"
_symmetry_group_IT_number 65
_symmetry_cell_setting 'orthorhombic'
loop_
_space_group_symop_operation_xyz
x,y,z
-x,-y,z
x,-y,-z
-x,y,-z
-x,-y,-z
x,y,-z
-x,y,z
x,-y,z
1/2+x,1/2+y,z
1/2-x,1/2-y,z
1/2+x,1/2-y,-z
1/2-x,1/2+y,-z
1/2-x,1/2-y,-z
1/2+x,1/2+y,-z
1/2-x,1/2+y,z
1/2+x,1/2-y,z
loop_
_atom_site_type_symbol
_atom_site_label
_atom_site_fract_x
_atom_site_fract_y
_atom_site_fract_z
Si Si1 0.315672 0.500000 0.841432
Si Si2 0.823959 0.000000 0.500000
Si Si3 0.072801 0.797513 0.679019
Si Si4 0.227305 0.353587 0.088705
Si Si5 0.071227 0.842884 0.500000
Si Si6 0.310347 0.820174 0.738160
Si Si7 0.256100 0.000000 0.667411
Si Si8 0.073965 0.000000 0.741763
O O1 0.287947 0.585881 0.888574
O O2 0.288916 0.500000 0.748248
O O3 0.389315 0.500000 0.826543
O O4 0.871616 0.085819 0.500000
O O5 0.781741 0.000000 0.417610
O O6 0.075244 0.785449 0.582148
O O7 0.126601 0.735603 0.718302
O O8 0.000000 0.781251 0.706051
O O9 0.087956 0.905068 0.695285
O O10 0.250000 0.250000 0.083628
O O11 0.185135 0.359025 0.169564
O O12 0.201622 0.380827 0.000000
O O13 0.000000 0.886188 0.500000
O O14 0.250000 0.750000 0.734179
O O15 0.295827 0.906341 0.679625
O O16 0.000000 0.000000 0.754938
#
# Coordination Sequence:
#
# PCOD9482939 Si02
#       8
#     8   4  16  16   8  16   8   8
#     4  10  17  30  46  67  99 128 155 197 251 296
#     4  12  19  30  48  72 107 134 166 214 260 288
#     4  10  20  33  50  73 101 136 173 209 249 296
#     4   9  17  28  47  71  91 119 158 197 240 294
#     4  10  19  29  46  72 101 134 172 205 243 300
#     4  10  19  34  52  71 100 130 165 210 257 302
#     4  10  22  32  46  72  97 130 168 207 255 300
#     4  10  18  28  46  72  99 131 170 204 246 301
#
# _framework density 16.513911
#
# number of rings (size 3 to 8) (size 9 to 14) (size 15 to 20)
#    0.000    2.095    0.000    6.714    0.000    2.286 
#    0.000    2.381    0.000    1.714    0.000   13.333 
#    0.000    4.571    0.000    0.190    0.000    0.000 
#
# Total GULP energy -233898.329027 kJ/mol
# GULP energy per Si atom -5569.007834 kJ/mol
# Density = 1.647632 g / cm^3
# Si number density = 16.513911 Si / 1000 Ang^3
#
#
#
# Elastic Constant Matrix: (Units=GPa)
#
#
# Indices 1 2 3 4 5 6 
#
# 1 78.6741 36.9856 50.9910 0.0000 0.0000 0.0000
# 2 36.9856 74.5040 33.2668 0.0000 0.0000 0.0000
# 3 50.9910 33.2668 113.4002 0.0000 0.0000 0.0000
# 4 0.0000 0.0000 0.0000 16.4929 0.0000 0.0000
# 5 0.0000 0.0000 0.0000 0.0000 15.2010 0.0000
# 6 0.0000 0.0000 0.0000 0.0000 0.0000 27.8616
#
#
#
# Elastic Compliance Matrix: (Units=1/GPa)
#
#
# Indices 1 2 3 4 5 6 
#
# 1 0.020725 -0.007051 -0.007251 0.000000 0.000000 0.000000
# 2 -0.007051 0.017844 -0.002064 0.000000 0.000000 0.000000
# 3 -0.007251 -0.002064 0.012684 0.000000 0.000000 0.000000
# 4 0.000000 0.000000 0.000000 0.060632 0.000000 0.000000
# 5 0.000000 0.000000 0.000000 0.000000 0.065785 0.000000
# 6 0.000000 0.000000 0.000000 0.000000 0.000000 0.035892
#
#
# Mechanical properties :
#
#
# Convention : Reuss Voigt Hill
#
# Bulk Modulus (GPa) = 53.99097 56.56279 55.27688
# Shear Modulus (GPa) = 19.80457 21.60007 20.70232
#
# Velocity S-wave (km/s) = 3.46680 3.62054 3.54450
# Velocity P-wave (km/s) = 6.98499 7.19748 7.09203
#
# Compressibility (1/GPa) = 0.01852162
#
# Stress axis : x y z
#
# Youngs Moduli (GPa) = 48.25190 56.04126 78.83866
#
# Poissons Ratio (x) = 0.39513 0.57162
# Poissons Ratio (y) = 0.34021 0.16274
# Poissons Ratio (z) = 0.34985 0.11568
#
# Static dielectric constant tensor:
#      x y z
#    x 1.562330 0.000000 0.000000 
#    y 0.000000 1.591260 0.000000 
#    z 0.000000 0.000000 1.600710 
# 
# From -- ./inp_files/44079.got.cif
#   From: 2010.05.17/outbox.cif.g08.bks.cpg/sg65_23_cif.got.tgz:44079.got - 2010.06.03 17:01:31.
