data_PCOD9482476
_publ_section_title
;
Structure prediction by ZEFSAII (Michael W. Deem and Ramdas Pophale) SiO2 
 PCOD9482476
Probable space group: C M C A
;
_chemical_formula_sum "Si O2"
_cell_formula_units_Z 48
_cell_length_a 9.000000
_cell_length_b 24.000000
_cell_length_c 24.000000
_cell_angle_alpha 90.000000
_cell_angle_beta 90.000000
_cell_angle_gamma 90.000000
_cell_volume 5184.000000
_symmetry_space_group_name_H-M "C M C A"
_symmetry_group_IT_number 64
_symmetry_cell_setting 'orthorhombic'
loop_
_space_group_symop_operation_xyz
x,y,z
-x,1/2-y,1/2+z
x,-y,-z
-x,1/2+y,1/2-z
-x,-y,-z
x,1/2+y,1/2-z
-x,y,z
x,1/2-y,1/2+z
1/2+x,1/2+y,z
1/2-x,-y,1/2+z
1/2+x,1/2-y,-z
1/2-x,y,1/2-z
1/2-x,1/2-y,-z
1/2+x,y,1/2-z
1/2-x,1/2+y,z
1/2+x,-y,1/2+z
loop_
_atom_site_type_symbol
_atom_site_label
_atom_site_fract_x
_atom_site_fract_y
_atom_site_fract_z
Si Si1 0.674602 0.254564 0.060343
Si Si2 0.175897 0.941845 0.810355
Si Si3 0.326677 0.864584 0.093860
Si Si4 0.176595 0.065903 0.003168
Si Si5 0.173086 0.949067 0.309165
Si Si6 0.673220 0.369698 0.604289
O O1 0.500000 0.267554 0.054077
O O2 0.756883 0.303617 0.092824
O O3 0.688534 0.194958 0.089582
O O4 0.750000 0.250000 0.000000
O O5 0.250000 0.939998 0.750000
O O6 0.229273 0.888656 0.843965
O O7 0.000000 0.945642 0.807655
O O8 0.243087 0.998438 0.836949
O O9 0.500000 0.862372 0.076297
O O10 0.234343 0.902634 0.051370
O O11 0.318166 0.894956 0.152874
O O12 0.000000 0.074463 0.010803
O O13 0.266248 0.094044 0.053154
O O14 0.204407 0.000000 0.000000
O O15 0.250000 0.939355 0.250000
O O16 0.000000 0.963831 0.301606
O O17 0.500000 0.381964 0.614428
#
# Coordination Sequence:
#
# PCOD9482476 Si02
#       6
#    16  16  16  16  16  16
#     4  11  23  39  61  85 115 155 198 242 291 350
#     4  11  22  38  62  89 119 155 194 240 292 350
#     4  11  23  38  58  85 117 155 196 240 292 348
#     4  11  23  36  55  85 117 151 191 239 294 350
#     4  10  21  38  61  88 119 155 195 240 292 350
#     4  11  23  39  59  85 116 153 195 241 293 348
#
# _framework density 9.2592590000000001
#
# number of rings (size 3 to 8) (size 9 to 14) (size 15 to 20)
#    0.000    1.167    1.667    6.000    0.000    8.667 
#    0.000    0.833    0.000    2.000    0.000    0.000 
#    0.000    0.000    0.000    0.000    0.000    0.000 
#
# Total GULP energy -268215.417107 kJ/mol
# GULP energy per Si atom -5587.821190 kJ/mol
# Density = 0.923818 g / cm^3
# Si number density = 9.259259 Si / 1000 Ang^3
#
#
#
# Elastic Constant Matrix: (Units=GPa)
#
#
# Indices 1 2 3 4 5 6 
#
# 1 143.8458 68.1920 33.8941 0.0000 0.0000 0.0000
# 2 68.1920 86.1353 27.0904 0.0000 0.0000 0.0000
# 3 33.8941 27.0904 48.3890 0.0000 0.0000 0.0000
# 4 0.0000 0.0000 0.0000 234.9936 0.0000 0.0000
# 5 0.0000 0.0000 0.0000 0.0000 26.6648 0.0000
# 6 0.0000 0.0000 0.0000 0.0000 0.0000 33.9524
#
#
#
# Elastic Compliance Matrix: (Units=1/GPa)
#
#
# Indices 1 2 3 4 5 6 
#
# 1 0.011632 -0.008066 -0.003631 0.000000 0.000000 0.000000
# 2 -0.008066 0.019685 -0.005370 0.000000 0.000000 0.000000
# 3 -0.003631 -0.005370 0.026216 0.000000 0.000000 0.000000
# 4 0.000000 0.000000 0.000000 0.004255 0.000000 0.000000
# 5 0.000000 0.000000 0.000000 0.000000 0.037503 0.000000
# 6 0.000000 0.000000 0.000000 0.000000 0.000000 0.029453
#
#
# Mechanical properties :
#
#
# Convention : Reuss Voigt Hill
#
# Bulk Modulus (GPa) = 42.74216 59.63588 51.18902
# Shear Modulus (GPa) = 29.29494 69.06842 49.18168
#
# Velocity S-wave (km/s) = 3.98166 6.11375 5.15905
# Velocity P-wave (km/s) = 6.65350 9.06149 7.94920
#
# Compressibility (1/GPa) = 0.02339610
#
# Stress axis : x y z
#
# Youngs Moduli (GPa) = 85.97328 50.80087 38.14471
#
# Poissons Ratio (x) = 0.40978 0.13852
# Poissons Ratio (y) = 0.69350 0.20485
# Poissons Ratio (z) = 0.31220 0.27281
#
# Static dielectric constant tensor:
#      x y z
#    x 1.618760 0.000000 0.000000 
#    y 0.000000 1.624920 0.000000 
#    z 0.000000 0.000000 1.705080 
# 
# From -- ./inp_files/43047.got.cif
#   From: 2010.05.17/outbox.ucp.g08.bks.cvg/sg64_22_cif.got.tgz:43047.got - 2010.06.11 16:36:46.
