data_PCOD9482251
_publ_section_title
;
Structure prediction by ZEFSAII (Michael W. Deem and Ramdas Pophale) SiO2 
 PCOD9482251
Probable space group: C M C A
;
_chemical_formula_sum "Si O2"
_cell_formula_units_Z 96
_cell_length_a 8.963582
_cell_length_b 24.153550
_cell_length_c 26.306291
_cell_angle_alpha 90.000000
_cell_angle_beta 90.000000
_cell_angle_gamma 90.000000
_cell_volume 5695.373190
_symmetry_space_group_name_H-M "C M C A"
_symmetry_group_IT_number 64
_symmetry_cell_setting 'orthorhombic'
loop_
_space_group_symop_operation_xyz
x,y,z
-x,1/2-y,1/2+z
x,-y,-z
-x,1/2+y,1/2-z
-x,-y,-z
x,1/2+y,1/2-z
-x,y,z
x,1/2-y,1/2+z
1/2+x,1/2+y,z
1/2-x,-y,1/2+z
1/2+x,1/2-y,-z
1/2-x,y,1/2-z
1/2-x,1/2-y,-z
1/2+x,y,1/2-z
1/2-x,1/2+y,z
1/2+x,-y,1/2+z
loop_
_atom_site_type_symbol
_atom_site_label
_atom_site_fract_x
_atom_site_fract_y
_atom_site_fract_z
Si Si1 0.677272 0.231141 0.946399
Si Si2 0.169829 0.076009 0.471017
Si Si3 0.173015 0.326871 0.887579
Si Si4 0.322981 0.487710 0.383118
Si Si5 0.680360 0.916542 0.805442
Si Si6 0.175077 0.113016 0.929986
O O1 0.500000 0.229377 0.952676
O O2 0.726450 0.275911 0.904385
O O3 0.738983 0.171180 0.930884
O O4 0.750000 0.250000 0.000000
O O5 0.174468 0.128851 0.433719
O O6 0.285584 0.085438 0.515615
O O7 0.000000 0.072328 0.491926
O O8 0.196420 0.023590 0.434856
O O9 0.221584 0.362259 0.838519
O O10 0.000000 0.309321 0.881114
O O11 0.500000 0.477311 0.378012
O O12 0.275706 0.528896 0.337779
O O13 0.235613 0.430679 0.388806
O O14 0.500000 0.916849 0.803046
O O15 0.750000 0.916171 0.750000
O O16 0.000000 0.122212 0.924760
#
# Coordination Sequence:
#
# PCOD9482251 Si02
#       6
#    16  16  16  16  16  16
#     4  12  23  35  52  75 106 146 184 221 262 314
#     4   9  17  31  51  71 101 143 178 213 258 308
#     4   9  18  34  54  78 107 141 180 219 262 314
#     4   9  19  35  52  74 104 141 178 214 265 319
#     4   9  19  36  60  85 108 137 172 218 274 323
#     4  12  23  32  47  74 107 144 181 218 260 308
#
# _framework density 16.855786999999999
#
# number of rings (size 3 to 8) (size 9 to 14) (size 15 to 20)
#    0.000    2.000    1.667    5.500    0.000    4.000 
#    0.000    3.333    0.000    1.000    0.000    7.000 
#    0.000    0.000    0.000    0.000    0.000    0.000 
#
# Total GULP energy -267945.686278 kJ/mol
# GULP energy per Si atom -5582.201797 kJ/mol
# Density = 1.681742 g / cm^3
# Si number density = 16.855787 Si / 1000 Ang^3
#
#
#
# Elastic Constant Matrix: (Units=GPa)
#
#
# Indices 1 2 3 4 5 6 
#
# 1 101.9552 73.2392 42.6882 0.0000 0.0000 0.0000
# 2 73.2392 124.0080 52.9908 0.0000 0.0000 0.0000
# 3 42.6882 52.9908 94.9195 0.0000 0.0000 0.0000
# 4 0.0000 0.0000 0.0000 8.5830 0.0000 0.0000
# 5 0.0000 0.0000 0.0000 0.0000 28.1882 0.0000
# 6 0.0000 0.0000 0.0000 0.0000 0.0000 27.8336
#
#
#
# Elastic Compliance Matrix: (Units=1/GPa)
#
#
# Indices 1 2 3 4 5 6 
#
# 1 0.017573 -0.009195 -0.002770 0.000000 0.000000 0.000000
# 2 -0.009195 0.015402 -0.004463 0.000000 0.000000 0.000000
# 3 -0.002770 -0.004463 0.014272 0.000000 0.000000 0.000000
# 4 0.000000 0.000000 0.000000 0.116509 0.000000 0.000000
# 5 0.000000 0.000000 0.000000 0.000000 0.035476 0.000000
# 6 0.000000 0.000000 0.000000 0.000000 0.000000 0.035928
#
#
# Mechanical properties :
#
#
# Convention : Reuss Voigt Hill
#
# Bulk Modulus (GPa) = 69.48549 73.19100 71.33824
# Shear Modulus (GPa) = 18.32751 23.05193 20.68972
#
# Velocity S-wave (km/s) = 3.30102 3.70212 3.50731
# Velocity P-wave (km/s) = 7.47275 7.86068 7.66917
#
# Compressibility (1/GPa) = 0.01439149
#
# Stress axis : x y z
#
# Youngs Moduli (GPa) = 56.90462 64.92752 70.06482
#
# Poissons Ratio (x) = 0.59702 0.19407
# Poissons Ratio (y) = 0.52325 0.31270
# Poissons Ratio (z) = 0.15762 0.28977
#
# Static dielectric constant tensor:
#      x y z
#    x 1.565660 0.000000 0.000000 
#    y 0.000000 1.589020 0.000000 
#    z 0.000000 0.000000 1.558390 
# 
# From -- ./inp_files/48357.got.cif
#   From: 2010.05.17/outbox.cif.g08.bks.cpg/sg64_25_cif.got.tgz:48357.got - 2010.06.03 16:29:19.
