data_PCOD9482151
_publ_section_title
;
Structure prediction by ZEFSAII (Michael W. Deem and Ramdas Pophale) SiO2 
 PCOD9482151
Probable space group: C M C A
;
_chemical_formula_sum "Si O2"
_cell_formula_units_Z 112
_cell_length_a 26.893968
_cell_length_b 14.980029
_cell_length_c 12.075340
_cell_angle_alpha 90.000000
_cell_angle_beta 90.000000
_cell_angle_gamma 90.000000
_cell_volume 4864.821455
_symmetry_space_group_name_H-M "C M C A"
_symmetry_group_IT_number 64
_symmetry_cell_setting 'orthorhombic'
loop_
_space_group_symop_operation_xyz
x,y,z
-x,1/2-y,1/2+z
x,-y,-z
-x,1/2+y,1/2-z
-x,-y,-z
x,1/2+y,1/2-z
-x,y,z
x,1/2-y,1/2+z
1/2+x,1/2+y,z
1/2-x,-y,1/2+z
1/2+x,1/2-y,-z
1/2-x,y,1/2-z
1/2-x,1/2-y,-z
1/2+x,y,1/2-z
1/2-x,1/2+y,z
1/2+x,-y,1/2+z
loop_
_atom_site_type_symbol
_atom_site_label
_atom_site_fract_x
_atom_site_fract_y
_atom_site_fract_z
Si Si1 0.148196 0.684248 0.284965
Si Si2 0.555446 0.600951 0.541037
Si Si3 0.944713 0.809079 0.671119
Si Si4 0.166747 0.385576 0.291716
Si Si5 0.690445 0.961836 0.883706
Si Si6 0.203637 0.097148 0.018199
Si Si7 0.942620 0.399149 0.298330
O O1 0.089105 0.668083 0.275649
O O2 0.157426 0.788136 0.260379
O O3 0.169160 0.619829 0.188460
O O4 0.172053 0.657370 0.400227
O O5 0.552866 0.500000 0.500000
O O6 0.500000 0.641397 0.547250
O O7 0.580026 0.656191 0.442656
O O8 0.570340 0.598334 0.667314
O O9 0.947971 0.703119 0.664754
O O10 0.000000 0.848134 0.682265
O O11 0.188294 0.455791 0.202976
O O12 0.204353 0.367450 0.393476
O O13 0.113251 0.423572 0.339338
O O14 0.743892 0.925277 0.924154
O O15 0.666919 0.000000 0.000000
O O16 0.180420 0.000000 0.000000
O O17 0.000000 0.437797 0.312996
#
# Coordination Sequence:
#
# PCOD9482151 Si02
#       7
#    16  16  16  16  16  16  16
#     4  11  25  44  71 106 137 185 244 283 349 434
#     4   9  18  31  54  88 125 169 222 279 326 382
#     4   9  20  37  60  95 141 181 225 286 342 401
#     4  11  26  45  73 104 144 187 235 294 352 424
#     4  11  27  47  71 101 137 183 232 298 368 414
#     4  11  25  50  68  95 146 186 225 299 360 419
#     4   9  20  38  61  96 138 182 229 278 341 413
#
# _framework density 23.022428999999999
#
# number of rings (size 3 to 8) (size 9 to 14) (size 15 to 20)
#    0.000    1.857    1.429    0.429    8.000    4.000 
#    7.714    2.143    0.000    0.857    0.000    0.000 
#    0.000    0.000    0.000    0.000    0.000    0.000 
#
# Total GULP energy -312030.122295 kJ/mol
# GULP energy per Si atom -5571.966470 kJ/mol
# Density = 2.297003 g / cm^3
# Si number density = 23.022429 Si / 1000 Ang^3
#
#
#
# Elastic Constant Matrix: (Units=GPa)
#
#
# Indices 1 2 3 4 5 6 
#
# 1 117.1446 16.6614 42.9515 0.0000 0.0000 0.0000
# 2 16.6614 54.3586 17.2280 0.0000 0.0000 0.0000
# 3 42.9515 17.2280 66.8795 0.0000 0.0000 0.0000
# 4 0.0000 0.0000 0.0000 35.7001 0.0000 0.0000
# 5 0.0000 0.0000 0.0000 0.0000 39.7422 0.0000
# 6 0.0000 0.0000 0.0000 0.0000 0.0000 15.3531
#
#
#
# Elastic Compliance Matrix: (Units=1/GPa)
#
#
# Indices 1 2 3 4 5 6 
#
# 1 0.011244 -0.001261 -0.006897 0.000000 0.000000 0.000000
# 2 -0.001261 0.020173 -0.004387 0.000000 0.000000 0.000000
# 3 -0.006897 -0.004387 0.020512 0.000000 0.000000 0.000000
# 4 0.000000 0.000000 0.000000 0.028011 0.000000 0.000000
# 5 0.000000 0.000000 0.000000 0.000000 0.025162 0.000000
# 6 0.000000 0.000000 0.000000 0.000000 0.000000 0.065134
#
#
# Mechanical properties :
#
#
# Convention : Reuss Voigt Hill
#
# Bulk Modulus (GPa) = 37.25712 43.56272 40.40992
# Shear Modulus (GPa) = 24.47723 28.92851 26.70287
#
# Velocity S-wave (km/s) = 3.26420 3.54861 3.40937
# Velocity P-wave (km/s) = 5.51586 5.97939 5.75230
#
# Compressibility (1/GPa) = 0.02684050
#
# Stress axis : x y z
#
# Youngs Moduli (GPa) = 88.93260 49.57089 48.75312
#
# Poissons Ratio (x) = 0.06250 0.33623
# Poissons Ratio (y) = 0.11212 0.21387
# Poissons Ratio (z) = 0.61334 0.21746
#
# Static dielectric constant tensor:
#      x y z
#    x 1.992700 0.000000 0.000000 
#    y 0.000000 1.826910 0.000000 
#    z 0.000000 0.000000 1.950170 
# 
# From -- ./inp_files/19869.got.cif
#   From: 2010.05.17/outbox.cif.g08.bks.cpg/sg64_10_cif.got.tgz:19869.got - 2010.06.03 16:29:19.
