data_PCOD9482314
_publ_section_title
;
Structure prediction by ZEFSAII (Michael W. Deem and Ramdas Pophale) SiO2 
 PCOD9482314
Probable space group: C M C A
;
_chemical_formula_sum "Si O2"
_cell_formula_units_Z 48
_cell_length_a 17.816024
_cell_length_b 10.354300
_cell_length_c 9.776806
_cell_angle_alpha 90.000000
_cell_angle_beta 90.000000
_cell_angle_gamma 90.000000
_cell_volume 1803.551427
_symmetry_space_group_name_H-M "C M C A"
_symmetry_group_IT_number 64
_symmetry_cell_setting 'orthorhombic'
loop_
_space_group_symop_operation_xyz
x,y,z
-x,1/2-y,1/2+z
x,-y,-z
-x,1/2+y,1/2-z
-x,-y,-z
x,1/2+y,1/2-z
-x,y,z
x,1/2-y,1/2+z
1/2+x,1/2+y,z
1/2-x,-y,1/2+z
1/2+x,1/2-y,-z
1/2-x,y,1/2-z
1/2-x,1/2-y,-z
1/2+x,y,1/2-z
1/2-x,1/2+y,z
1/2+x,-y,1/2+z
loop_
_atom_site_type_symbol
_atom_site_label
_atom_site_fract_x
_atom_site_fract_y
_atom_site_fract_z
Si Si1 0.918128 0.007410 0.722552
Si Si2 0.708741 0.910632 0.390143
Si Si3 0.414761 0.718267 0.500114
O O1 0.853961 0.991501 0.831581
O O2 0.907898 0.144317 0.644764
O O3 0.000000 0.008135 0.786359
O O4 0.916971 0.895134 0.612149
O O5 0.750000 0.868804 0.250000
O O6 0.658923 0.799588 0.460448
O O7 0.753282 0.000000 0.500000
O O8 0.500000 0.776256 0.498181
#
# Coordination Sequence:
#
# PCOD9482314 Si02
#       3
#    16  16  16
#     4   9  21  45  75 107 140 178 234 304 367 420
#     4  12  29  46  69 103 150 195 244 293 353 429
#     4   9  21  45  76 105 138 181 237 302 361 424
#
# _framework density 26.614158
#
# number of rings (size 3 to 8) (size 9 to 14) (size 15 to 20)
#    0.000    2.000    0.000    3.000    9.333    5.333 
#    0.000    0.000    0.000    0.000    0.000    0.000 
#    0.000    0.000    0.000    0.000    0.000    0.000 
#
# Total GULP energy -134257.511380 kJ/mol
# GULP energy per Si atom -5594.062974 kJ/mol
# Density = 2.655358 g / cm^3
# Si number density = 26.614158 Si / 1000 Ang^3
#
#
#
# Elastic Constant Matrix: (Units=GPa)
#
#
# Indices 1 2 3 4 5 6 
#
# 1 129.9346 38.0811 19.2562 0.0000 0.0000 0.0000
# 2 38.0811 99.9539 57.8580 0.0000 0.0000 0.0000
# 3 19.2562 57.8580 79.1123 0.0000 0.0000 0.0000
# 4 0.0000 0.0000 0.0000 34.5001 0.0000 0.0000
# 5 0.0000 0.0000 0.0000 0.0000 25.8789 0.0000
# 6 0.0000 0.0000 0.0000 0.0000 0.0000 20.4013
#
#
#
# Elastic Compliance Matrix: (Units=1/GPa)
#
#
# Indices 1 2 3 4 5 6 
#
# 1 0.008676 -0.003612 0.000530 0.000000 0.000000 0.000000
# 2 -0.003612 0.018853 -0.012909 0.000000 0.000000 0.000000
# 3 0.000530 -0.012909 0.021952 0.000000 0.000000 0.000000
# 4 0.000000 0.000000 0.000000 0.028985 0.000000 0.000000
# 5 0.000000 0.000000 0.000000 0.000000 0.038641 0.000000
# 6 0.000000 0.000000 0.000000 0.000000 0.000000 0.049017
#
#
# Mechanical properties :
#
#
# Convention : Reuss Voigt Hill
#
# Bulk Modulus (GPa) = 57.14560 59.93237 58.53899
# Shear Modulus (GPa) = 24.51702 29.07643 26.79673
#
# Velocity S-wave (km/s) = 3.03842 3.30891 3.17655
# Velocity P-wave (km/s) = 5.81617 6.09642 5.95795
#
# Compressibility (1/GPa) = 0.01749916
#
# Stress axis : x y z
#
# Youngs Moduli (GPa) = 115.25598 53.04181 45.55412
#
# Poissons Ratio (x) = 0.19161 -0.02415
# Poissons Ratio (y) = 0.41635 0.58805
# Poissons Ratio (z) = -0.06109 0.68470
#
# Static dielectric constant tensor:
#      x y z
#    x 2.120330 0.000000 0.000000 
#    y 0.000000 2.098690 0.000000 
#    z 0.000000 0.000000 2.072490 
# 
# From -- ./inp_files/15193.got.cif
#   From: 2010.05.17/outbox.cif.g08.bks.cpg/sg64_8_cif.got.tgz:15193.got - 2010.06.03 16:29:19.
