data_PCOD9482839
_publ_section_title
;
Structure prediction by ZEFSAII (Michael W. Deem and Ramdas Pophale) SiO2 
 PCOD9482839
Probable space group: C M M M
;
_chemical_formula_sum "Si O2"
_cell_formula_units_Z 80
_cell_length_a 14.319370
_cell_length_b 23.632866
_cell_length_c 14.204924
_cell_angle_alpha 90.000000
_cell_angle_beta 90.000000
_cell_angle_gamma 90.000000
_cell_volume 4807.056404
_symmetry_space_group_name_H-M "C M M M"
_symmetry_group_IT_number 65
_symmetry_cell_setting 'orthorhombic'
loop_
_space_group_symop_operation_xyz
x,y,z
-x,-y,z
x,-y,-z
-x,y,-z
-x,-y,-z
x,y,-z
-x,y,z
x,-y,z
1/2+x,1/2+y,z
1/2-x,1/2-y,z
1/2+x,1/2-y,-z
1/2-x,1/2+y,-z
1/2-x,1/2-y,-z
1/2+x,1/2+y,-z
1/2-x,1/2+y,z
1/2+x,1/2-y,z
loop_
_atom_site_type_symbol
_atom_site_label
_atom_site_fract_x
_atom_site_fract_y
_atom_site_fract_z
Si Si1 0.860605 0.259656 0.395423
Si Si2 0.105244 0.221811 0.808493
Si Si3 0.713564 0.169896 0.889030
Si Si4 0.887950 0.434989 0.805111
Si Si5 0.889813 0.605643 0.602939
O O1 0.894113 0.243086 0.500000
O O2 0.750000 0.250000 0.393924
O O3 0.897537 0.227282 0.304600
O O4 0.879852 0.326661 0.384604
O O5 0.185016 0.178215 0.841269
O O6 0.145470 0.281859 0.846143
O O7 0.000000 0.211459 0.843196
O O8 0.667386 0.109859 0.867166
O O9 0.722715 0.179357 0.000000
O O10 0.873235 0.500000 0.831827
O O11 0.855837 0.424821 0.696827
O O12 0.000000 0.423579 0.809665
O O13 0.849010 0.590858 0.500000
O O14 0.000000 0.592916 0.598488
#
# Coordination Sequence:
#
# PCOD9482839 Si02
#       5
#    16  16  16  16  16
#     4  10  17  27  47  75 108 140 168 199 243 301
#     4  11  20  34  55  77 104 136 170 208 257 310
#     4  11  23  37  51  73 102 132 174 222 265 305
#     4  10  20  34  53  76 102 134 171 212 261 314
#     4   9  16  27  44  68 100 134 164 196 240 298
#
# _framework density 16.642201
#
# number of rings (size 3 to 8) (size 9 to 14) (size 15 to 20)
#    0.000    1.800    4.000    2.400    0.000    4.800 
#    0.000    3.000    0.000    0.600    0.000    1.400 
#    0.000    0.000    0.000   11.200    0.000    0.200 
#
# Total GULP energy -223004.197346 kJ/mol
# GULP energy per Si atom -5575.104934 kJ/mol
# Density = 1.660432 g / cm^3
# Si number density = 16.642201 Si / 1000 Ang^3
#
#
#
# Elastic Constant Matrix: (Units=GPa)
#
#
# Indices 1 2 3 4 5 6 
#
# 1 99.3227 31.3074 32.5456 0.0000 0.0000 0.0000
# 2 31.3074 59.9474 32.0720 0.0000 0.0000 0.0000
# 3 32.5456 32.0720 102.0060 0.0000 0.0000 0.0000
# 4 0.0000 0.0000 0.0000 -0.9172 0.0000 0.0000
# 5 0.0000 0.0000 0.0000 0.0000 -0.3034 0.0000
# 6 0.0000 0.0000 0.0000 0.0000 0.0000 22.8221
#
#
#
# Elastic Compliance Matrix: (Units=1/GPa)
#
#
# Indices 1 2 3 4 5 6 
#
# 1 0.012495 -0.005281 -0.002326 0.000000 0.000000 0.000000
# 2 -0.005281 0.022287 -0.005322 0.000000 0.000000 0.000000
# 3 -0.002326 -0.005322 0.012219 0.000000 0.000000 0.000000
# 4 0.000000 0.000000 0.000000 -1.090294 0.000000 0.000000
# 5 0.000000 0.000000 0.000000 0.000000 -3.296463 0.000000
# 6 0.000000 0.000000 0.000000 0.000000 0.000000 0.043817
#
#
# Mechanical properties :
#
#
# Convention : Reuss Voigt Hill
#
# Bulk Modulus (GPa) = 47.29987 50.34737 48.82362
# Shear Modulus (GPa) = -1.17287 15.34371 7.08542
#
# Velocity S-wave (km/s) = -0.84041 3.03970 2.06561
# Velocity P-wave (km/s) = 5.24801 6.52979 5.92367
#
# Compressibility (1/GPa) = 0.02114171
#
# Stress axis : x y z
#
# Youngs Moduli (GPa) = 80.03170 44.86974 81.84020
#
# Poissons Ratio (x) = 0.23696 0.19038
# Poissons Ratio (y) = 0.42265 0.43558
# Poissons Ratio (z) = 0.18617 0.23881
#
# Static dielectric constant tensor:
#      x y z
#    x 1.588100 0.000000 0.000000 
#    y 0.000000 1.544310 0.000000 
#    z 0.000000 0.000000 1.615210 
# 
# From -- ./inp_files/40036.got.cif
#   From: 2010.05.17/outbox.cif.g08.bks.cpg/sg65_21_cif.got.tgz:40036.got - 2010.06.03 17:01:31.
