data_PCOD9482523
_publ_section_title
;
Structure prediction by ZEFSAII (Michael W. Deem and Ramdas Pophale) SiO2 
 PCOD9482523
Probable space group: C M C A
;
_chemical_formula_sum "Si O2"
_cell_formula_units_Z 32
_cell_length_a 18.000000
_cell_length_b 15.000000
_cell_length_c 12.000000
_cell_angle_alpha 90.000000
_cell_angle_beta 90.000000
_cell_angle_gamma 90.000000
_cell_volume 3240.000000
_symmetry_space_group_name_H-M "C M C A"
_symmetry_group_IT_number 64
_symmetry_cell_setting 'orthorhombic'
loop_
_space_group_symop_operation_xyz
x,y,z
-x,1/2-y,1/2+z
x,-y,-z
-x,1/2+y,1/2-z
-x,-y,-z
x,1/2+y,1/2-z
-x,y,z
x,1/2-y,1/2+z
1/2+x,1/2+y,z
1/2-x,-y,1/2+z
1/2+x,1/2-y,-z
1/2-x,y,1/2-z
1/2-x,1/2-y,-z
1/2+x,y,1/2-z
1/2-x,1/2+y,z
1/2+x,-y,1/2+z
loop_
_atom_site_type_symbol
_atom_site_label
_atom_site_fract_x
_atom_site_fract_y
_atom_site_fract_z
Si Si1 0.834015 0.908916 0.536353
Si Si2 0.172910 0.850246 0.284771
Si Si3 0.912537 0.822562 0.739331
Si Si4 0.173300 0.026745 0.124337
O O1 0.818486 0.866323 0.416538
O O2 0.881106 0.848352 0.617845
O O3 0.758217 0.939637 0.600251
O O4 0.875036 0.000000 0.500000
O O5 0.250000 0.804333 0.250000
O O6 0.108219 0.779843 0.263684
O O7 0.168370 0.941146 0.209005
O O8 0.871683 0.891287 0.823206
O O9 0.000000 0.836321 0.745232
O O10 0.146165 0.000000 0.000000
#
# Coordination Sequence:
#
# PCOD9482523 Si02
#       4
#    16  16  16  16
#     4  11  22  46  75 100 127 177 235 293 337 395
#     4  12  23  43  74 104 132 174 233 291 343 394
#     4  12  29  44  62 102 148 185 223 273 347 426
#     4  11  23  45  75 100 129 176 237 296 341 392
#
# _framework density 9.8765429999999999
#
# number of rings (size 3 to 8) (size 9 to 14) (size 15 to 20)
#    0.000    0.500    7.500    2.250    3.500    5.000 
#    0.000    0.000    0.000    0.000    0.000    0.000 
#    0.000    0.000    0.000    0.000    0.000    0.000 
#
# Total GULP energy -178711.942147 kJ/mol
# GULP energy per Si atom -5584.748192 kJ/mol
# Density = 0.985406 g / cm^3
# Si number density = 9.876543 Si / 1000 Ang^3
#
#
#
# Elastic Constant Matrix: (Units=GPa)
#
#
# Indices 1 2 3 4 5 6 
#
# 1 95.7933 56.2633 54.4713 0.0000 0.0000 0.0000
# 2 56.2633 109.4383 58.1905 0.0000 0.0000 0.0000
# 3 54.4713 58.1905 160.2521 0.0000 0.0000 0.0000
# 4 0.0000 0.0000 0.0000 29.6989 0.0000 0.0000
# 5 0.0000 0.0000 0.0000 0.0000 6.6369 0.0000
# 6 0.0000 0.0000 0.0000 0.0000 0.0000 6.2687
#
#
#
# Elastic Compliance Matrix: (Units=1/GPa)
#
#
# Indices 1 2 3 4 5 6 
#
# 1 0.016076 -0.006642 -0.003053 0.000000 0.000000 0.000000
# 2 -0.006642 0.014068 -0.002851 0.000000 0.000000 0.000000
# 3 -0.003053 -0.002851 0.008313 0.000000 0.000000 0.000000
# 4 0.000000 0.000000 0.000000 0.033671 0.000000 0.000000
# 5 0.000000 0.000000 0.000000 0.000000 0.150673 0.000000
# 6 0.000000 0.000000 0.000000 0.000000 0.000000 0.159522
#
#
# Mechanical properties :
#
#
# Convention : Reuss Voigt Hill
#
# Bulk Modulus (GPa) = 74.81294 78.14820 76.48057
# Shear Modulus (GPa) = 12.13980 21.62481 16.88231
#
# Velocity S-wave (km/s) = 2.48176 3.31230 2.92664
# Velocity P-wave (km/s) = 6.79474 7.36728 7.08679
#
# Compressibility (1/GPa) = 0.01336667
#
# Stress axis : x y z
#
# Youngs Moduli (GPa) = 62.20498 71.08383 120.29404
#
# Poissons Ratio (x) = 0.47211 0.36722
# Poissons Ratio (y) = 0.41314 0.34293
# Poissons Ratio (z) = 0.18989 0.20264
#
# Static dielectric constant tensor:
#      x y z
#    x 1.679130 0.000000 0.000000 
#    y 0.000000 1.731850 0.000000 
#    z 0.000000 0.000000 1.735620 
# 
# From -- ./inp_files/15445.got.cif
#   From: 2010.05.17/outbox.ucp.g08.bks.cvg/sg64_8_cif.got.tgz:15445.got - 2010.06.11 16:36:46.
