data_PCOD9482726
_publ_section_title
;
Structure prediction by ZEFSAII (Michael W. Deem and Ramdas Pophale) SiO2 
 PCOD9482726
Probable space group: C M M M
;
_chemical_formula_sum "Si O2"
_cell_formula_units_Z 72
_cell_length_a 7.571856
_cell_length_b 41.034572
_cell_length_c 13.478799
_cell_angle_alpha 90.000000
_cell_angle_beta 90.000000
_cell_angle_gamma 90.000000
_cell_volume 4187.968930
_symmetry_space_group_name_H-M "C M M M"
_symmetry_group_IT_number 65
_symmetry_cell_setting 'orthorhombic'
loop_
_space_group_symop_operation_xyz
x,y,z
-x,-y,z
x,-y,-z
-x,y,-z
-x,-y,-z
x,y,-z
-x,y,z
x,-y,z
1/2+x,1/2+y,z
1/2-x,1/2-y,z
1/2+x,1/2-y,-z
1/2-x,1/2+y,-z
1/2-x,1/2-y,-z
1/2+x,1/2+y,-z
1/2-x,1/2+y,z
1/2+x,1/2-y,z
loop_
_atom_site_type_symbol
_atom_site_label
_atom_site_fract_x
_atom_site_fract_y
_atom_site_fract_z
Si Si1 0.784513 0.962242 0.388710
Si Si2 0.212969 0.356121 0.884701
Si Si3 0.291168 0.425230 0.803623
Si Si4 0.788760 0.715011 0.113835
Si Si5 0.283606 0.462179 0.000000
O O1 0.725720 0.953303 0.500000
O O2 0.720516 0.939522 0.299439
O O3 0.000000 0.961206 0.390215
O O4 0.736364 0.000000 0.370026
O O5 0.269146 0.386853 0.820557
O O6 0.272138 0.320266 0.847637
O O7 0.000000 0.356299 0.886517
O O8 0.271677 0.360188 0.000000
O O9 0.500000 0.432113 0.802325
O O10 0.220782 0.443751 0.901121
O O11 0.750000 0.750000 0.162225
O O12 0.000000 0.713179 0.109086
O O13 0.720504 0.716538 0.000000
O O14 0.233302 0.500000 0.000000
O O15 0.500000 0.461017 0.000000
#
# Coordination Sequence:
#
# PCOD9482726 Si02
#       5
#    16  16  16  16   8
#     4   8  14  25  41  60  80 102 131 170 213 248
#     4   9  17  28  39  53  81 115 137 157 196 243
#     4  10  17  25  40  61  80 102 135 170 201 236
#     4   8  14  24  37  53  73 102 136 164 190 224
#     4   9  16  24  35  55  80 101 126 165 204 231
#
# _framework density 17.192104
#
# number of rings (size 3 to 8) (size 9 to 14) (size 15 to 20)
#    0.000    3.222    1.111    2.667    0.000    3.556 
#    0.000    2.222    0.000    4.000    0.000    1.556 
#    0.000    0.889    0.000    2.000    0.000    3.111 
#
# Total GULP energy -200438.196616 kJ/mol
# GULP energy per Si atom -5567.727684 kJ/mol
# Density = 1.715297 g / cm^3
# Si number density = 17.192104 Si / 1000 Ang^3
#
#
#
# Elastic Constant Matrix: (Units=GPa)
#
#
# Indices 1 2 3 4 5 6 
#
# 1 34.6256 -3.7040 7.9280 0.0000 0.0000 0.0000
# 2 -3.7040 164.7156 90.9874 0.0000 0.0000 0.0000
# 3 7.9280 90.9874 111.4042 0.0000 0.0000 0.0000
# 4 0.0000 0.0000 0.0000 14.9201 0.0000 0.0000
# 5 0.0000 0.0000 0.0000 0.0000 -0.4668 0.0000
# 6 0.0000 0.0000 0.0000 0.0000 0.0000 7.5447
#
#
#
# Elastic Compliance Matrix: (Units=1/GPa)
#
#
# Indices 1 2 3 4 5 6 
#
# 1 0.030381 0.003421 -0.004956 0.000000 0.000000 0.000000
# 2 0.003421 0.011447 -0.009592 0.000000 0.000000 0.000000
# 3 -0.004956 -0.009592 0.017163 0.000000 0.000000 0.000000
# 4 0.000000 0.000000 0.000000 0.067024 0.000000 0.000000
# 5 0.000000 0.000000 0.000000 0.000000 -2.142043 0.000000
# 6 0.000000 0.000000 0.000000 0.000000 0.000000 0.132543
#
#
# Mechanical properties :
#
#
# Convention : Reuss Voigt Hill
#
# Bulk Modulus (GPa) = 27.22111 55.68537 41.45324
# Shear Modulus (GPa) = -2.70419 18.76852 8.03217
#
# Velocity S-wave (km/s) = -1.25552 3.30766 2.16383
# Velocity P-wave (km/s) = 3.71027 6.85915 5.51425
#
# Compressibility (1/GPa) = 0.03673619
#
# Stress axis : x y z
#
# Youngs Moduli (GPa) = 32.91529 87.36131 58.26359
#
# Poissons Ratio (x) = -0.29884 0.28875
# Poissons Ratio (y) = -0.11260 0.55888
# Poissons Ratio (z) = 0.16312 0.83800
#
# Static dielectric constant tensor:
#      x y z
#    x 1.655800 0.000000 0.000000 
#    y 0.000000 1.620950 0.000000 
#    z 0.000000 0.000000 1.565750 
# 
# From -- ./inp_files/22690.got.cif
#   From: 2010.05.17/outbox.cif.g08.bks.cpg/sg65_12_cif.got.tgz:22690.got - 2010.06.03 17:01:31.
