data_PCOD9482165
_publ_section_title
;
Structure prediction by ZEFSAII (Michael W. Deem and Ramdas Pophale) SiO2 
 PCOD9482165
Probable space group: C M C A
;
_chemical_formula_sum "Si O2"
_cell_formula_units_Z 72
_cell_length_a 28.330208
_cell_length_b 12.885164
_cell_length_c 9.504604
_cell_angle_alpha 90.000000
_cell_angle_beta 90.000000
_cell_angle_gamma 90.000000
_cell_volume 3469.554716
_symmetry_space_group_name_H-M "C M C A"
_symmetry_group_IT_number 64
_symmetry_cell_setting 'orthorhombic'
loop_
_space_group_symop_operation_xyz
x,y,z
-x,1/2-y,1/2+z
x,-y,-z
-x,1/2+y,1/2-z
-x,-y,-z
x,1/2+y,1/2-z
-x,y,z
x,1/2-y,1/2+z
1/2+x,1/2+y,z
1/2-x,-y,1/2+z
1/2+x,1/2-y,-z
1/2-x,y,1/2-z
1/2-x,1/2-y,-z
1/2+x,y,1/2-z
1/2-x,1/2+y,z
1/2+x,-y,1/2+z
loop_
_atom_site_type_symbol
_atom_site_label
_atom_site_fract_x
_atom_site_fract_y
_atom_site_fract_z
Si Si1 0.500000 0.396493 0.915368
Si Si2 0.080695 0.768678 0.479485
Si Si3 0.000000 0.905012 0.600333
Si Si4 0.717461 0.798281 0.623333
Si Si5 0.335581 0.500000 0.000000
Si Si6 0.862403 0.165353 0.783938
O O1 0.500000 0.435352 0.758554
O O2 0.500000 0.500000 0.000000
O O3 0.452854 0.329016 0.942807
O O4 0.046319 0.840115 0.567870
O O5 0.123194 0.737761 0.583362
O O6 0.097812 0.823283 0.336476
O O7 0.000000 0.000000 0.500000
O O8 0.750000 0.836573 0.750000
O O9 0.750000 0.750000 0.500000
O O10 0.683044 0.712942 0.700469
O O11 0.691982 0.899691 0.559821
O O12 0.359659 0.447228 0.139426
#
# Coordination Sequence:
#
# PCOD9482165 Si02
#       6
#     8  16   8  16   8  16
#     4  11  26  42  73 102 142 199 241 293 369 441
#     4  11  25  46  70 100 151 184 240 307 360 427
#     4  11  26  42  67 105 141 192 236 297 365 432
#     4  12  26  49  72 107 146 184 241 307 366 449
#     4  12  28  44  82 103 138 204 242 293 394 440
#     4  12  25  48  73 107 145 192 247 309 362 456
#
# _framework density 20.751942
#
# number of rings (size 3 to 8) (size 9 to 14) (size 15 to 20)
#    0.000    0.444    6.667    0.000    7.778    1.778 
#    0.000    0.000    0.000    0.000    0.000    0.000 
#    0.000    0.000    0.000    0.000    0.000    0.000 
#
# Total GULP energy -200823.387918 kJ/mol
# GULP energy per Si atom -5578.427442 kJ/mol
# Density = 2.070471 g / cm^3
# Si number density = 20.751942 Si / 1000 Ang^3
#
#
#
# Elastic Constant Matrix: (Units=GPa)
#
#
# Indices 1 2 3 4 5 6 
#
# 1 87.2630 49.3852 60.6723 0.0000 0.0000 0.0000
# 2 49.3852 121.7048 79.0859 0.0000 0.0000 0.0000
# 3 60.6723 79.0859 207.5417 0.0000 0.0000 0.0000
# 4 0.0000 0.0000 0.0000 54.5261 0.0000 0.0000
# 5 0.0000 0.0000 0.0000 0.0000 127.6895 0.0000
# 6 0.0000 0.0000 0.0000 0.0000 0.0000 18.5300
#
#
#
# Elastic Compliance Matrix: (Units=1/GPa)
#
#
# Indices 1 2 3 4 5 6 
#
# 1 0.016131 -0.004627 -0.002953 0.000000 0.000000 0.000000
# 2 -0.004627 0.012248 -0.003315 0.000000 0.000000 0.000000
# 3 -0.002953 -0.003315 0.006945 0.000000 0.000000 0.000000
# 4 0.000000 0.000000 0.000000 0.018340 0.000000 0.000000
# 5 0.000000 0.000000 0.000000 0.000000 0.007831 0.000000
# 6 0.000000 0.000000 0.000000 0.000000 0.000000 0.053966
#
#
# Mechanical properties :
#
#
# Convention : Reuss Voigt Hill
#
# Bulk Modulus (GPa) = 73.88096 88.31068 81.09582
# Shear Modulus (GPa) = 35.27055 55.30688 45.28871
#
# Velocity S-wave (km/s) = 4.12712 5.16810 4.67667
# Velocity P-wave (km/s) = 7.64134 8.84648 8.26590
#
# Compressibility (1/GPa) = 0.01353529
#
# Stress axis : x y z
#
# Youngs Moduli (GPa) = 61.99230 81.64589 143.99880
#
# Poissons Ratio (x) = 0.37778 0.42516
# Poissons Ratio (y) = 0.28684 0.47730
# Poissons Ratio (z) = 0.18303 0.27062
#
# Static dielectric constant tensor:
#      x y z
#    x 1.826460 0.000000 0.000000 
#    y 0.000000 1.771460 0.000000 
#    z 0.000000 0.000000 1.644170 
# 
# From -- ./inp_files/10067.got.cif
#   From: 2010.05.17/outbox.cif.g08.bks.cpg/sg64_6_cif.got.tgz:10067.got - 2010.06.03 16:29:19.
