data_PCOD9482099
_publ_section_title
;
Structure prediction by ZEFSAII (Michael W. Deem and Ramdas Pophale) SiO2 
 PCOD9482099
Probable space group: C M C A
;
_chemical_formula_sum "Si O2"
_cell_formula_units_Z 56
_cell_length_a 14.299631
_cell_length_b 18.570251
_cell_length_c 9.678539
_cell_angle_alpha 90.000000
_cell_angle_beta 90.000000
_cell_angle_gamma 90.000000
_cell_volume 2570.114128
_symmetry_space_group_name_H-M "C M C A"
_symmetry_group_IT_number 64
_symmetry_cell_setting 'orthorhombic'
loop_
_space_group_symop_operation_xyz
x,y,z
-x,1/2-y,1/2+z
x,-y,-z
-x,1/2+y,1/2-z
-x,-y,-z
x,1/2+y,1/2-z
-x,y,z
x,1/2-y,1/2+z
1/2+x,1/2+y,z
1/2-x,-y,1/2+z
1/2+x,1/2-y,-z
1/2-x,y,1/2-z
1/2-x,1/2-y,-z
1/2+x,y,1/2-z
1/2-x,1/2+y,z
1/2+x,-y,1/2+z
loop_
_atom_site_type_symbol
_atom_site_label
_atom_site_fract_x
_atom_site_fract_y
_atom_site_fract_z
Si Si1 0.107791 0.402823 0.775252
Si Si2 0.250000 0.018939 0.750000
Si Si3 0.603629 0.102310 0.558285
Si Si4 0.181346 0.752058 0.128792
O O1 0.176680 0.465438 0.824791
O O2 0.116469 0.401899 0.607239
O O3 0.139458 0.325504 0.833488
O O4 0.000000 0.415629 0.810257
O O5 0.313622 0.063998 0.643151
O O6 0.500000 0.072380 0.592031
O O7 0.606950 0.186024 0.600127
O O8 0.250000 0.775496 0.250000
O O9 0.250000 0.750000 0.000000
#
# Coordination Sequence:
#
# PCOD9482099 Si02
#       4
#    16   8  16  16
#     4  11  24  44  70 101 136 178 230 285 340 407
#     4  12  22  40  66  96 136 182 230 280 340 408
#     4  11  24  42  68  99 135 181 230 281 342 410
#     4  12  22  43  72  99 133 179 223 280 342 398
#
# _framework density 21.788914999999999
#
# number of rings (size 3 to 8) (size 9 to 14) (size 15 to 20)
#    0.000    0.571    5.714    2.571    0.000    2.286 
#    0.000    0.000    0.000    8.571    0.000    0.000 
#    0.000    0.000    0.000    0.000    0.000    0.000 
#
# Total GULP energy -156648.194115 kJ/mol
# GULP energy per Si atom -5594.578361 kJ/mol
# Density = 2.173932 g / cm^3
# Si number density = 21.788915 Si / 1000 Ang^3
#
#
#
# Elastic Constant Matrix: (Units=GPa)
#
#
# Indices 1 2 3 4 5 6 
#
# 1 201.3182 79.8157 59.8692 0.0000 0.0000 0.0000
# 2 79.8157 150.4061 34.7372 0.0000 0.0000 0.0000
# 3 59.8692 34.7372 98.1715 0.0000 0.0000 0.0000
# 4 0.0000 0.0000 0.0000 23.1418 0.0000 0.0000
# 5 0.0000 0.0000 0.0000 0.0000 33.4556 0.0000
# 6 0.0000 0.0000 0.0000 0.0000 0.0000 26.5005
#
#
#
# Elastic Compliance Matrix: (Units=1/GPa)
#
#
# Indices 1 2 3 4 5 6 
#
# 1 0.007147 -0.003034 -0.003285 0.000000 0.000000 0.000000
# 2 -0.003034 0.008528 -0.001167 0.000000 0.000000 0.000000
# 3 -0.003285 -0.001167 0.012603 0.000000 0.000000 0.000000
# 4 0.000000 0.000000 0.000000 0.043212 0.000000 0.000000
# 5 0.000000 0.000000 0.000000 0.000000 0.029890 0.000000
# 6 0.000000 0.000000 0.000000 0.000000 0.000000 0.037735
#
#
# Mechanical properties :
#
#
# Convention : Reuss Voigt Hill
#
# Bulk Modulus (GPa) = 75.15867 88.74890 81.95378
# Shear Modulus (GPa) = 31.54107 34.98448 33.26278
#
# Velocity S-wave (km/s) = 3.80883 4.01135 3.91140
# Velocity P-wave (km/s) = 7.34246 7.89140 7.62188
#
# Compressibility (1/GPa) = 0.01330518
#
# Stress axis : x y z
#
# Youngs Moduli (GPa) = 139.91758 117.25597 79.34817
#
# Poissons Ratio (x) = 0.35576 0.26066
# Poissons Ratio (y) = 0.42451 0.09263
# Poissons Ratio (z) = 0.45963 0.13689
#
# Static dielectric constant tensor:
#      x y z
#    x 1.815320 0.000000 0.000000 
#    y 0.000000 1.829420 0.000000 
#    z 0.000000 0.000000 1.757640 
# 
# From -- ./inp_files/5336.got.cif
#   From: 2010.05.17/outbox.cif.g08.bks.cpg/sg64_3_cif.got.tgz:5336.got - 2010.06.03 16:29:19.
