data_PCOD9482302
_publ_section_title
;
Structure prediction by ZEFSAII (Michael W. Deem and Ramdas Pophale) SiO2 
 PCOD9482302
Probable space group: C M C A
;
_chemical_formula_sum "Si O2"
_cell_formula_units_Z 68
_cell_length_a 21.636360
_cell_length_b 8.561921
_cell_length_c 15.144748
_cell_angle_alpha 90.000000
_cell_angle_beta 90.000000
_cell_angle_gamma 90.000000
_cell_volume 2805.546470
_symmetry_space_group_name_H-M "C M C A"
_symmetry_group_IT_number 64
_symmetry_cell_setting 'orthorhombic'
loop_
_space_group_symop_operation_xyz
x,y,z
-x,1/2-y,1/2+z
x,-y,-z
-x,1/2+y,1/2-z
-x,-y,-z
x,1/2+y,1/2-z
-x,y,z
x,1/2-y,1/2+z
1/2+x,1/2+y,z
1/2-x,-y,1/2+z
1/2+x,1/2-y,-z
1/2-x,y,1/2-z
1/2-x,1/2-y,-z
1/2+x,y,1/2-z
1/2-x,1/2+y,z
1/2+x,-y,1/2+z
loop_
_atom_site_type_symbol
_atom_site_label
_atom_site_fract_x
_atom_site_fract_y
_atom_site_fract_z
Si Si1 0.729466 0.275024 0.350908
Si Si2 0.570445 0.277860 0.191638
Si Si3 0.833284 0.082409 0.408225
Si Si4 0.399159 0.382793 0.868455
Si Si5 0.000000 0.000000 0.000000
O O1 0.750000 0.243707 0.250000
O O2 0.787660 0.230813 0.411308
O O3 0.706126 0.452194 0.356410
O O4 0.670503 0.173738 0.381145
O O5 0.500000 0.295894 0.159432
O O6 0.606131 0.142278 0.140547
O O7 0.573360 0.232233 0.293821
O O8 0.601265 0.443654 0.173011
O O9 0.847853 0.000000 0.500000
O O10 0.444870 0.395375 0.950888
#
# Coordination Sequence:
#
# PCOD9482302 Si02
#       5
#    16  16  16  16   4
#     4  12  26  48  76 110 150 208 259 322 394 467
#     4  12  25  50  72 108 153 203 254 313 385 472
#     4  12  28  46  74 111 154 202 261 325 386 456
#     4  12  27  48  79 110 154 199 258 314 393 462
#     4  12  28  48  80 122 154 208 246 338 384 468
#
# _framework density 24.237703
#
# number of rings (size 3 to 8) (size 9 to 14) (size 15 to 20)
#    0.000    0.000    4.706    4.235    4.941    0.471 
#    2.118    0.000    0.000    0.000    0.000    0.000 
#    0.000    0.000    0.000    0.000    0.000    0.000 
#
# Total GULP energy -190091.796910 kJ/mol
# GULP energy per Si atom -5590.935203 kJ/mol
# Density = 2.418254 g / cm^3
# Si number density = 24.237703 Si / 1000 Ang^3
#
#
#
# Elastic Constant Matrix: (Units=GPa)
#
#
# Indices 1 2 3 4 5 6 
#
# 1 107.2454 14.2923 8.5024 0.0000 0.0000 0.0000
# 2 14.2923 102.9546 -1.9128 0.0000 0.0000 0.0000
# 3 8.5024 -1.9128 52.3118 0.0000 0.0000 0.0000
# 4 0.0000 0.0000 0.0000 26.9933 0.0000 0.0000
# 5 0.0000 0.0000 0.0000 0.0000 48.4777 0.0000
# 6 0.0000 0.0000 0.0000 0.0000 0.0000 28.4179
#
#
#
# Elastic Compliance Matrix: (Units=1/GPa)
#
#
# Indices 1 2 3 4 5 6 
#
# 1 0.009635 -0.001368 -0.001616 0.000000 0.000000 0.000000
# 2 -0.001368 0.009914 0.000585 0.000000 0.000000 0.000000
# 3 -0.001616 0.000585 0.019400 0.000000 0.000000 0.000000
# 4 0.000000 0.000000 0.000000 0.037046 0.000000 0.000000
# 5 0.000000 0.000000 0.000000 0.000000 0.020628 0.000000
# 6 0.000000 0.000000 0.000000 0.000000 0.000000 0.035189
#
#
# Mechanical properties :
#
#
# Convention : Reuss Voigt Hill
#
# Bulk Modulus (GPa) = 29.28154 33.80839 31.54497
# Shear Modulus (GPa) = 33.78531 36.88644 35.33587
#
# Velocity S-wave (km/s) = 3.73757 3.90534 3.82237
# Velocity P-wave (km/s) = 5.54374 5.85786 5.70296
#
# Compressibility (1/GPa) = 0.03415121
#
# Stress axis : x y z
#
# Youngs Moduli (GPa) = 103.79076 100.87023 51.54587
#
# Poissons Ratio (x) = 0.13794 0.08330
# Poissons Ratio (y) = 0.14194 -0.03014
# Poissons Ratio (z) = 0.16772 -0.05899
#
# Static dielectric constant tensor:
#      x y z
#    x 2.107450 0.000000 0.000000 
#    y 0.000000 1.923010 0.000000 
#    z 0.000000 0.000000 2.090290 
# 
# From -- ./inp_files/33931.got.cif
#   From: 2010.05.17/outbox.cif.g08.bks.cpg/sg64_17_cif.got.tgz:33931.got - 2010.06.03 16:29:19.
