data_PCOD9482907
_publ_section_title
;
Structure prediction by ZEFSAII (Michael W. Deem and Ramdas Pophale) SiO2 
 PCOD9482907
Probable space group: C M M M
;
_chemical_formula_sum "Si O2"
_cell_formula_units_Z 120
_cell_length_a 31.371813
_cell_length_b 19.661038
_cell_length_c 10.608696
_cell_angle_alpha 90.000000
_cell_angle_beta 90.000000
_cell_angle_gamma 90.000000
_cell_volume 6543.469233
_symmetry_space_group_name_H-M "C M M M"
_symmetry_group_IT_number 65
_symmetry_cell_setting 'orthorhombic'
loop_
_space_group_symop_operation_xyz
x,y,z
-x,-y,z
x,-y,-z
-x,y,-z
-x,-y,-z
x,y,-z
-x,y,z
x,-y,z
1/2+x,1/2+y,z
1/2-x,1/2-y,z
1/2+x,1/2-y,-z
1/2-x,1/2+y,-z
1/2-x,1/2-y,-z
1/2+x,1/2+y,-z
1/2-x,1/2+y,z
1/2+x,1/2-y,z
loop_
_atom_site_type_symbol
_atom_site_label
_atom_site_fract_x
_atom_site_fract_y
_atom_site_fract_z
Si Si1 0.450592 0.926111 0.652451
Si Si2 0.695211 0.369022 0.348636
Si Si3 0.604898 0.419438 0.255770
Si Si4 0.212366 0.425036 0.651562
Si Si5 0.548228 0.684516 0.138993
Si Si6 0.048489 0.082105 0.500000
Si Si7 0.816992 0.720769 0.646857
Si Si8 0.417684 0.219153 0.646440
O O1 0.450529 0.928745 0.500000
O O2 0.500000 0.917653 0.691044
O O3 0.424216 0.859579 0.683370
O O4 0.435096 0.000000 0.697584
O O5 0.687045 0.367042 0.500000
O O6 0.653342 0.398527 0.283106
O O7 0.737084 0.414089 0.329812
O O8 0.703488 0.291031 0.305055
O O9 0.602049 0.500000 0.236279
O O10 0.582584 0.375442 0.148731
O O11 0.576268 0.400227 0.378274
O O12 0.204177 0.426537 0.500000
O O13 0.199238 0.500000 0.699846
O O14 0.191940 0.354398 0.700950
O O15 0.500000 0.657583 0.152944
O O16 0.557722 0.736180 0.252069
O O17 0.551307 0.716871 0.000000
O O18 0.000000 0.109054 0.500000
O O19 0.045447 0.000000 0.500000
O O20 0.803341 0.715970 0.500000
O O21 0.867540 0.734578 0.650702
O O22 0.431969 0.228697 0.500000
#
# Coordination Sequence:
#
# PCOD9482907 Si02
#       8
#    16  16  16  16  16   8  16  16
#     4   8  14  25  43  71 104 133 165 210 264 316
#     4  10  17  29  47  72 107 143 177 218 267 320
#     4  11  21  34  53  76 101 135 180 224 267 318
#     4   9  17  27  42  69 109 150 177 207 263 325
#     4  11  25  41  55  75 107 145 181 222 272 325
#     4   9  18  30  46  74 105 128 161 219 276 311
#     4   9  17  28  44  70 103 137 176 217 260 312
#     4  10  19  33  55  81 106 141 184 226 269 317
#
# _framework density 18.338895999999998
#
# number of rings (size 3 to 8) (size 9 to 14) (size 15 to 20)
#    0.000    2.333    2.000    2.000    0.933    4.533 
#    0.000    3.333    0.000    0.400    0.000    3.733 
#    0.000    1.067    0.000    0.000    0.000    0.000 
#
# Total GULP energy -334291.619909 kJ/mol
# GULP energy per Si atom -5571.526998 kJ/mol
# Density = 1.829716 g / cm^3
# Si number density = 18.338896 Si / 1000 Ang^3
#
#
#
# Elastic Constant Matrix: (Units=GPa)
#
#
# Indices 1 2 3 4 5 6 
#
# 1 28.8712 -5.8374 13.0555 0.0000 0.0000 0.0000
# 2 -5.8374 95.2249 16.9533 0.0000 0.0000 0.0000
# 3 13.0555 16.9533 46.7655 0.0000 0.0000 0.0000
# 4 0.0000 0.0000 0.0000 5.5731 0.0000 0.0000
# 5 0.0000 0.0000 0.0000 0.0000 8.9386 0.0000
# 6 0.0000 0.0000 0.0000 0.0000 0.0000 30.7253
#
#
#
# Elastic Compliance Matrix: (Units=1/GPa)
#
#
# Indices 1 2 3 4 5 6 
#
# 1 0.041715 0.004950 -0.013440 0.000000 0.000000 0.000000
# 2 0.004950 0.011813 -0.005664 0.000000 0.000000 0.000000
# 3 -0.013440 -0.005664 0.027189 0.000000 0.000000 0.000000
# 4 0.000000 0.000000 0.000000 0.179432 0.000000 0.000000
# 5 0.000000 0.000000 0.000000 0.000000 0.111875 0.000000
# 6 0.000000 0.000000 0.000000 0.000000 0.000000 0.032546
#
#
# Mechanical properties :
#
#
# Convention : Reuss Voigt Hill
#
# Bulk Modulus (GPa) = 19.08102 24.35607 21.71854
# Shear Modulus (GPa) = 11.10250 18.82674 14.96462
#
# Velocity S-wave (km/s) = 2.46317 3.20754 2.85968
# Velocity P-wave (km/s) = 4.30312 5.19881 4.77203
#
# Compressibility (1/GPa) = 0.05240810
#
# Stress axis : x y z
#
# Youngs Moduli (GPa) = 23.97225 84.64997 36.77986
#
# Poissons Ratio (x) = -0.41901 0.49432
# Poissons Ratio (y) = -0.11866 0.20834
# Poissons Ratio (z) = 0.32219 0.47949
#
# Static dielectric constant tensor:
#      x y z
#    x 1.652300 0.000000 0.000000 
#    y 0.000000 1.691050 0.000000 
#    z 0.000000 0.000000 1.608760 
# 
# From -- ./inp_files/34277.got.cif
#   From: 2010.05.17/outbox.cif.g08.bks.cpg/sg65_18_cif.got.tgz:34277.got - 2010.06.03 17:01:31.
