data_PCOD9482375
_publ_section_title
;
Structure prediction by ZEFSAII (Michael W. Deem and Ramdas Pophale) SiO2 
 PCOD9482375
Probable space group: C M C A
;
_chemical_formula_sum "Si O2"
_cell_formula_units_Z 40
_cell_length_a 9.000000
_cell_length_b 27.000000
_cell_length_c 18.000000
_cell_angle_alpha 90.000000
_cell_angle_beta 90.000000
_cell_angle_gamma 90.000000
_cell_volume 4374.000000
_symmetry_space_group_name_H-M "C M C A"
_symmetry_group_IT_number 64
_symmetry_cell_setting 'orthorhombic'
loop_
_space_group_symop_operation_xyz
x,y,z
-x,1/2-y,1/2+z
x,-y,-z
-x,1/2+y,1/2-z
-x,-y,-z
x,1/2+y,1/2-z
-x,y,z
x,1/2-y,1/2+z
1/2+x,1/2+y,z
1/2-x,-y,1/2+z
1/2+x,1/2-y,-z
1/2-x,y,1/2-z
1/2-x,1/2-y,-z
1/2+x,y,1/2-z
1/2-x,1/2+y,z
1/2+x,-y,1/2+z
loop_
_atom_site_type_symbol
_atom_site_label
_atom_site_fract_x
_atom_site_fract_y
_atom_site_fract_z
Si Si1 0.320940 0.198686 0.168890
Si Si2 0.677374 0.191865 0.668785
Si Si3 0.826834 0.900594 0.588898
Si Si4 0.170321 0.000712 0.909351
Si Si5 0.171495 0.100993 0.589690
O O1 0.500000 0.197059 0.174849
O O2 0.250000 0.194899 0.250000
O O3 0.282733 0.253305 0.138203
O O4 0.272816 0.151560 0.121144
O O5 0.500000 0.188956 0.675124
O O6 0.750000 0.188387 0.750000
O O7 0.737600 0.147001 0.620556
O O8 0.819569 0.898648 0.499714
O O9 0.000000 0.907262 0.609030
O O10 0.736778 0.948373 0.615540
O O11 0.263270 0.048347 0.884664
O O12 0.000000 0.006055 0.886853
O O13 0.175376 0.000000 0.000000
O O14 0.000000 0.105536 0.611740
#
# Coordination Sequence:
#
# PCOD9482375 Si02
#       5
#    16  16  16  16  16
#     4   9  19  35  53  73 100 134 168 204 248 297
#     4  10  20  35  53  73 100 133 168 206 249 297
#     4   9  18  33  52  75 103 133 166 205 251 301
#     4   9  17  30  49  74 102 131 165 206 251 297
#     4  10  19  32  52  76 102 133 167 205 250 299
#
# _framework density 9.1449470000000002
#
# number of rings (size 3 to 8) (size 9 to 14) (size 15 to 20)
#    0.000    2.600    0.000    1.800    0.000    5.600 
#    0.000    1.000    0.000    2.400    0.000    0.000 
#    0.000    0.000    0.000    0.000    0.000    0.000 
#
# Total GULP energy -222989.908066 kJ/mol
# GULP energy per Si atom -5574.747702 kJ/mol
# Density = 0.912413 g / cm^3
# Si number density = 9.144947 Si / 1000 Ang^3
#
#
#
# Elastic Constant Matrix: (Units=GPa)
#
#
# Indices 1 2 3 4 5 6 
#
# 1 77.4476 74.4807 19.6863 0.0000 0.0000 0.0000
# 2 74.4807 176.8367 28.4463 0.0000 0.0000 0.0000
# 3 19.6863 28.4463 1.3966 0.0000 0.0000 0.0000
# 4 0.0000 0.0000 0.0000 49.6015 0.0000 0.0000
# 5 0.0000 0.0000 0.0000 0.0000 19.9983 0.0000
# 6 0.0000 0.0000 0.0000 0.0000 0.0000 32.3700
#
#
#
# Elastic Compliance Matrix: (Units=1/GPa)
#
#
# Indices 1 2 3 4 5 6 
#
# 1 0.015444 -0.012525 0.037428 0.000000 0.000000 0.000000
# 2 -0.012525 0.007674 0.020241 0.000000 0.000000 0.000000
# 3 0.037428 0.020241 -0.223824 0.000000 0.000000 0.000000
# 4 0.000000 0.000000 0.000000 0.020161 0.000000 0.000000
# 5 0.000000 0.000000 0.000000 0.000000 0.050004 0.000000
# 6 0.000000 0.000000 0.000000 0.000000 0.000000 0.030893
#
#
# Mechanical properties :
#
#
# Convention : Reuss Voigt Hill
#
# Bulk Modulus (GPa) = -9.05641 55.65637 23.29998
# Shear Modulus (GPa) = -22.05157 29.26512 3.60678
#
# Velocity S-wave (km/s) = -3.47604 4.00443 1.40580
# Velocity P-wave (km/s) = 4.59052 7.20255 3.92453
#
# Compressibility (1/GPa) = -0.11041902
#
# Stress axis : x y z
#
# Youngs Moduli (GPa) = 64.75117 130.30174 -4.46779
#
# Poissons Ratio (x) = 1.63208 0.16722
# Poissons Ratio (y) = 0.81104 0.09043
# Poissons Ratio (z) = -2.42352 -2.63739
#
# Static dielectric constant tensor:
#      x y z
#    x 1.618480 0.000000 0.000000 
#    y 0.000000 1.634080 0.000000 
#    z 0.000000 0.000000 1.609220 
# 
# From -- ./inp_files/29752.got.cif
#   From: 2010.05.17/outbox.ucp.g08.bks.cvg/sg64_15_cif.got.tgz:29752.got - 2010.06.11 16:36:46.
