data_PCOD9482529
_publ_section_title
;
Structure prediction by ZEFSAII (Michael W. Deem and Ramdas Pophale) SiO2 
 PCOD9482529
Probable space group: C M M M
;
_chemical_formula_sum "Si O2"
_cell_formula_units_Z 48
_cell_length_a 5.414355
_cell_length_b 14.452334
_cell_length_c 28.915864
_cell_angle_alpha 90.000000
_cell_angle_beta 90.000000
_cell_angle_gamma 90.000000
_cell_volume 2262.668291
_symmetry_space_group_name_H-M "C M M M"
_symmetry_group_IT_number 65
_symmetry_cell_setting 'orthorhombic'
loop_
_space_group_symop_operation_xyz
x,y,z
-x,-y,z
x,-y,-z
-x,y,-z
-x,-y,-z
x,y,-z
-x,y,z
x,-y,z
1/2+x,1/2+y,z
1/2-x,1/2-y,z
1/2+x,1/2-y,-z
1/2-x,1/2+y,-z
1/2-x,1/2-y,-z
1/2+x,1/2+y,-z
1/2-x,1/2+y,z
1/2+x,1/2-y,z
loop_
_atom_site_type_symbol
_atom_site_label
_atom_site_fract_x
_atom_site_fract_y
_atom_site_fract_z
Si Si1 0.000000 0.809096 0.000000
Si Si2 0.000000 0.187928 0.500000
Si Si3 0.500000 0.637996 0.701980
Si Si4 0.000000 0.812264 0.600723
Si Si5 0.000000 0.651284 0.259448
Si Si6 0.500000 0.886824 0.846163
Si Si7 0.500000 0.610187 0.101516
O O1 0.750000 0.750000 0.000000
O O2 0.000000 0.865045 0.047718
O O3 0.750000 0.250000 0.500000
O O4 0.000000 0.139663 0.550196
O O5 0.500000 0.627629 0.646945
O O6 0.249309 0.602961 0.724229
O O7 0.500000 0.748034 0.715646
O O8 0.250000 0.750000 0.603123
O O9 0.000000 0.657956 0.204412
O O10 0.252628 0.859148 0.873634
O O11 0.500000 0.000000 0.840896
O O12 0.500000 0.500000 0.105530
#
# Coordination Sequence:
#
# PCOD9482529 Si02
#       7
#     4   4   8   8   8   8   8
#     4  12  25  44  61  94 122 136 170 222 273 298
#     4   8  16  20  34  52  74 118 156 196 240 272
#     4  10  17  28  43  65  97 129 159 191 249 316
#     4  10  14  25  36  54  85 119 160 196 233 299
#     4  10  18  30  44  69  94 126 162 194 244 286
#     4  10  21  38  58  79 102 134 180 216 241 287
#     4  10  22  43  65  82 107 150 181 206 256 321
#
# _framework density 21.213889999999999
#
# number of rings (size 3 to 8) (size 9 to 14) (size 15 to 20)
#    0.000    2.000    3.333    2.250    0.000    0.000 
#   18.000    3.333    0.000    0.000    0.000    0.000 
#    0.000    0.000    0.000    8.250    0.000    0.000 
#
# Total GULP energy -133950.775341 kJ/mol
# GULP energy per Si atom -5581.282306 kJ/mol
# Density = 2.116561 g / cm^3
# Si number density = 21.213890 Si / 1000 Ang^3
#
#
#
# Elastic Constant Matrix: (Units=GPa)
#
#
# Indices 1 2 3 4 5 6 
#
# 1 231.1955 10.6959 78.7408 0.0000 0.0000 0.0000
# 2 10.6959 61.9849 5.3883 0.0000 0.0000 0.0000
# 3 78.7408 5.3883 235.7519 0.0000 0.0000 0.0000
# 4 0.0000 0.0000 0.0000 -41.2938 0.0000 0.0000
# 5 0.0000 0.0000 0.0000 0.0000 42.8345 0.0000
# 6 0.0000 0.0000 0.0000 0.0000 0.0000 -17.7308
#
#
#
# Elastic Compliance Matrix: (Units=1/GPa)
#
#
# Indices 1 2 3 4 5 6 
#
# 1 0.004911 -0.000706 -0.001624 0.000000 0.000000 0.000000
# 2 -0.000706 0.016267 -0.000136 0.000000 0.000000 0.000000
# 3 -0.001624 -0.000136 0.004787 0.000000 0.000000 0.000000
# 4 0.000000 0.000000 0.000000 -0.024217 0.000000 0.000000
# 5 0.000000 0.000000 0.000000 0.000000 0.023346 0.000000
# 6 0.000000 0.000000 0.000000 0.000000 0.000000 -0.056399
#
#
# Mechanical properties :
#
#
# Convention : Reuss Voigt Hill
#
# Bulk Modulus (GPa) = 47.54554 79.84248 63.69401
# Shear Modulus (GPa) = -258.24620 25.70247 -116.27187
#
# Velocity S-wave (km/s) = -11.04531 3.48456 -7.41136
# Velocity P-wave (km/s) = 11.84077 7.34222 6.56870
#
# Compressibility (1/GPa) = 0.02103247
#
# Stress axis : x y z
#
# Youngs Moduli (GPa) = 203.61683 61.47546 208.88467
#
# Poissons Ratio (x) = 0.04342 0.33927
# Poissons Ratio (y) = 0.14381 0.02839
# Poissons Ratio (z) = 0.33071 0.00835
#
# Static dielectric constant tensor:
#      x y z
#    x 1.763410 0.000000 0.000000 
#    y 0.000000 1.847690 0.000000 
#    z 0.000000 0.000000 1.759720 
# 
# From -- ./inp_files/72349.got.cif
#   From: 2010.05.17/outbox.cif.g08.bks.cpg/sg65_37_cif.got.tgz:72349.got - 2010.06.03 17:01:31.
