data_PCOD9482873
_publ_section_title
;
Structure prediction by ZEFSAII (Michael W. Deem and Ramdas Pophale) SiO2 
 PCOD9482873
Probable space group: C M M M
;
_chemical_formula_sum "Si O2"
_cell_formula_units_Z 104
_cell_length_a 23.170371
_cell_length_b 30.720130
_cell_length_c 8.855755
_cell_angle_alpha 90.000000
_cell_angle_beta 90.000000
_cell_angle_gamma 90.000000
_cell_volume 6303.498153
_symmetry_space_group_name_H-M "C M M M"
_symmetry_group_IT_number 65
_symmetry_cell_setting 'orthorhombic'
loop_
_space_group_symop_operation_xyz
x,y,z
-x,-y,z
x,-y,-z
-x,y,-z
-x,-y,-z
x,y,-z
-x,y,z
x,-y,z
1/2+x,1/2+y,z
1/2-x,1/2-y,z
1/2+x,1/2-y,-z
1/2-x,1/2+y,-z
1/2-x,1/2-y,-z
1/2+x,1/2+y,-z
1/2-x,1/2+y,z
1/2+x,1/2-y,z
loop_
_atom_site_type_symbol
_atom_site_label
_atom_site_fract_x
_atom_site_fract_y
_atom_site_fract_z
Si Si1 0.500000 0.450040 0.816335
Si Si2 0.654795 0.050453 0.180495
Si Si3 0.432380 0.119070 0.320171
Si Si4 0.066922 0.194774 0.184053
Si Si5 0.429920 0.790268 0.174432
Si Si6 0.114593 0.102901 0.817083
Si Si7 0.720195 0.550662 0.319407
O O1 0.500000 0.500000 0.764329
O O2 0.442225 0.424557 0.771145
O O3 0.500000 0.450392 0.000000
O O4 0.606599 0.082757 0.242725
O O5 0.717059 0.060959 0.251602
O O6 0.641610 0.000000 0.219537
O O7 0.658337 0.053810 0.000000
O O8 0.428110 0.115463 0.500000
O O9 0.500000 0.114066 0.277367
O O10 0.413457 0.167360 0.268235
O O11 0.088392 0.242556 0.232280
O O12 0.103739 0.152942 0.228998
O O13 0.000000 0.188622 0.231105
O O14 0.066103 0.195937 0.000000
O O15 0.500000 0.788210 0.174369
O O16 0.411614 0.795737 0.000000
O O17 0.170924 0.081232 0.747654
O O18 0.118222 0.101426 0.000000
O O19 0.722086 0.554206 0.500000
O O20 0.707372 0.500000 0.280135
#
# Coordination Sequence:
#
# PCOD9482873 Si02
#       7
#     8  16  16  16  16  16  16
#     4   9  16  24  39  67  99 129 163 209 258 297
#     4  10  21  37  57  78  98 125 165 207 242 283
#     4  10  20  33  51  78 110 138 161 188 234 292
#     4   8  13  24  44  71  99 128 165 211 256 293
#     4   8  14  26  46  70  98 132 168 203 240 285
#     4  10  17  28  48  72  98 128 169 215 255 297
#     4  10  21  36  51  68  95 132 170 206 249 301
#
# _framework density 16.498774000000001
#
# number of rings (size 3 to 8) (size 9 to 14) (size 15 to 20)
#    0.000    2.692    0.769    2.769    0.000    3.692 
#    0.000    2.692    0.000    3.231    0.000    6.462 
#    0.000    0.000    0.000    0.000    0.000    0.000 
#
# Total GULP energy -289838.078747 kJ/mol
# GULP energy per Si atom -5573.809207 kJ/mol
# Density = 1.646122 g / cm^3
# Si number density = 16.498774 Si / 1000 Ang^3
#
#
#
# Elastic Constant Matrix: (Units=GPa)
#
#
# Indices 1 2 3 4 5 6 
#
# 1 90.7973 90.3532 37.9950 0.0000 0.0000 0.0000
# 2 90.3532 152.8602 45.7887 0.0000 0.0000 0.0000
# 3 37.9950 45.7887 32.8252 0.0000 0.0000 0.0000
# 4 0.0000 0.0000 0.0000 14.6252 0.0000 0.0000
# 5 0.0000 0.0000 0.0000 0.0000 17.9973 0.0000
# 6 0.0000 0.0000 0.0000 0.0000 0.0000 13.9598
#
#
#
# Elastic Compliance Matrix: (Units=1/GPa)
#
#
# Indices 1 2 3 4 5 6 
#
# 1 0.032114 -0.013480 -0.018368 0.000000 0.000000 0.000000
# 2 -0.013480 0.016896 -0.007965 0.000000 0.000000 0.000000
# 3 -0.018368 -0.007965 0.062837 0.000000 0.000000 0.000000
# 4 0.000000 0.000000 0.000000 0.068375 0.000000 0.000000
# 5 0.000000 0.000000 0.000000 0.000000 0.055564 0.000000
# 6 0.000000 0.000000 0.000000 0.000000 0.000000 0.071634
#
#
# Mechanical properties :
#
#
# Convention : Reuss Voigt Hill
#
# Bulk Modulus (GPa) = 31.03729 69.41741 50.22735
# Shear Modulus (GPa) = 12.56958 16.13952 14.35455
#
# Velocity S-wave (km/s) = 2.76316 3.13105 2.95284
# Velocity P-wave (km/s) = 5.38821 7.43216 6.49114
#
# Compressibility (1/GPa) = 0.03221931
#
# Stress axis : x y z
#
# Youngs Moduli (GPa) = 31.13921 59.18692 15.91426
#
# Poissons Ratio (x) = 0.79783 0.29232
# Poissons Ratio (y) = 0.41975 0.12676
# Poissons Ratio (z) = 0.57197 0.47144
#
# Static dielectric constant tensor:
#      x y z
#    x 1.521100 0.000000 0.000000 
#    y 0.000000 1.571560 0.000000 
#    z 0.000000 0.000000 1.550280 
# 
# From -- ./inp_files/14701.got.cif
#   From: 2010.05.17/outbox.cif.g08.bks.cpg/sg65_8_cif.got.tgz:14701.got - 2010.06.03 17:01:31.
