data_PCOD9482164
_publ_section_title
;
Structure prediction by ZEFSAII (Michael W. Deem and Ramdas Pophale) SiO2 
 PCOD9482164
Probable space group: C M C A
;
_chemical_formula_sum "Si O2"
_cell_formula_units_Z 72
_cell_length_a 10.097172
_cell_length_b 10.083575
_cell_length_c 25.640492
_cell_angle_alpha 90.000000
_cell_angle_beta 90.000000
_cell_angle_gamma 90.000000
_cell_volume 2610.601850
_symmetry_space_group_name_H-M "C M C A"
_symmetry_group_IT_number 64
_symmetry_cell_setting 'orthorhombic'
loop_
_space_group_symop_operation_xyz
x,y,z
-x,1/2-y,1/2+z
x,-y,-z
-x,1/2+y,1/2-z
-x,-y,-z
x,1/2+y,1/2-z
-x,y,z
x,1/2-y,1/2+z
1/2+x,1/2+y,z
1/2-x,-y,1/2+z
1/2+x,1/2-y,-z
1/2-x,y,1/2-z
1/2-x,1/2-y,-z
1/2+x,y,1/2-z
1/2-x,1/2+y,z
1/2+x,-y,1/2+z
loop_
_atom_site_type_symbol
_atom_site_label
_atom_site_fract_x
_atom_site_fract_y
_atom_site_fract_z
Si Si1 0.000000 0.344840 0.371135
Si Si2 0.500000 0.611059 0.307861
Si Si3 0.000000 0.835385 0.413082
Si Si4 0.784158 0.946543 0.552354
Si Si5 0.000000 0.781337 0.797295
Si Si6 0.500000 0.267585 0.019933
Si Si7 0.220047 0.466539 0.664092
O O1 0.000000 0.372688 0.432991
O O2 0.133114 0.402351 0.345247
O O3 0.000000 0.188384 0.362567
O O4 0.500000 0.732253 0.265736
O O5 0.364596 0.526863 0.309786
O O6 0.000000 0.797900 0.352212
O O7 0.000000 0.719714 0.457312
O O8 0.124351 0.931184 0.426827
O O9 0.718339 0.903670 0.605987
O O10 0.873575 0.825952 0.532194
O O11 0.712898 0.000000 0.500000
O O12 0.869292 0.870403 0.802200
#
# Coordination Sequence:
#
# PCOD9482164 Si02
#       7
#     8   8   8  16   8   8  16
#     4  11  25  45  76 114 137 187 248 294 367 436
#     4  12  25  55  71  95 151 194 234 315 360 422
#     4   9  20  37  69 110 139 193 241 285 366 443
#     4   9  18  37  69 107 150 191 226 289 375 435
#     4  11  27  47  67 103 140 186 256 304 351 425
#     4   9  17  40  70 104 155 186 228 301 363 433
#     4  11  25  47  70 103 143 186 240 297 364 426
#
# _framework density 27.579847000000001
#
# number of rings (size 3 to 8) (size 9 to 14) (size 15 to 20)
#    0.000    1.778    2.222    2.667    3.111    1.778 
#   12.000    6.667    0.000    0.000    0.000    0.000 
#    0.000    0.000    0.000    0.000    0.000    0.000 
#
# Total GULP energy -201172.733333 kJ/mol
# GULP energy per Si atom -5588.131481 kJ/mol
# Density = 2.751707 g / cm^3
# Si number density = 27.579847 Si / 1000 Ang^3
#
#
#
# Elastic Constant Matrix: (Units=GPa)
#
#
# Indices 1 2 3 4 5 6 
#
# 1 141.1219 33.7004 46.0445 0.0000 0.0000 0.0000
# 2 33.7004 51.2542 32.1984 0.0000 0.0000 0.0000
# 3 46.0445 32.1984 212.3295 0.0000 0.0000 0.0000
# 4 0.0000 0.0000 0.0000 54.8811 0.0000 0.0000
# 5 0.0000 0.0000 0.0000 0.0000 32.6394 0.0000
# 6 0.0000 0.0000 0.0000 0.0000 0.0000 214.2362
#
#
#
# Elastic Compliance Matrix: (Units=1/GPa)
#
#
# Indices 1 2 3 4 5 6 
#
# 1 0.008640 -0.004978 -0.001119 0.000000 0.000000 0.000000
# 2 -0.004978 0.024433 -0.002626 0.000000 0.000000 0.000000
# 3 -0.001119 -0.002626 0.005350 0.000000 0.000000 0.000000
# 4 0.000000 0.000000 0.000000 0.018221 0.000000 0.000000
# 5 0.000000 0.000000 0.000000 0.000000 0.030638 0.000000
# 6 0.000000 0.000000 0.000000 0.000000 0.000000 0.004668
#
#
# Mechanical properties :
#
#
# Convention : Reuss Voigt Hill
#
# Bulk Modulus (GPa) = 47.66740 69.84358 58.75549
# Shear Modulus (GPa) = 42.95980 79.86880 61.41430
#
# Velocity S-wave (km/s) = 3.95099 5.38721 4.72400
# Velocity P-wave (km/s) = 6.17533 8.00469 7.14877
#
# Compressibility (1/GPa) = 0.02097870
#
# Stress axis : x y z
#
# Youngs Moduli (GPa) = 115.74278 40.92797 186.90136
#
# Poissons Ratio (x) = 0.20374 0.20909
# Poissons Ratio (y) = 0.57617 0.49073
# Poissons Ratio (z) = 0.12948 0.10746
#
# Static dielectric constant tensor:
#      x y z
#    x 2.551990 0.000000 0.000000 
#    y 0.000000 2.158770 0.000000 
#    z 0.000000 0.000000 2.132750 
# 
# From -- ./inp_files/49098.got.cif
#   From: 2010.05.17/outbox.cif.g08.bks.cpg/sg64_25_cif.got.tgz:49098.got - 2010.06.03 16:29:19.
