data_PCOD9482463
_publ_section_title
;
Structure prediction by ZEFSAII (Michael W. Deem and Ramdas Pophale) SiO2 
 PCOD9482463
Probable space group: C M C A
;
_chemical_formula_sum "Si O2"
_cell_formula_units_Z 56
_cell_length_a 15.000000
_cell_length_b 30.000000
_cell_length_c 12.000000
_cell_angle_alpha 90.000000
_cell_angle_beta 90.000000
_cell_angle_gamma 90.000000
_cell_volume 5400.000000
_symmetry_space_group_name_H-M "C M C A"
_symmetry_group_IT_number 64
_symmetry_cell_setting 'orthorhombic'
loop_
_space_group_symop_operation_xyz
x,y,z
-x,1/2-y,1/2+z
x,-y,-z
-x,1/2+y,1/2-z
-x,-y,-z
x,1/2+y,1/2-z
-x,y,z
x,1/2-y,1/2+z
1/2+x,1/2+y,z
1/2-x,-y,1/2+z
1/2+x,1/2-y,-z
1/2-x,y,1/2-z
1/2-x,1/2-y,-z
1/2+x,y,1/2-z
1/2-x,1/2+y,z
1/2+x,-y,1/2+z
loop_
_atom_site_type_symbol
_atom_site_label
_atom_site_fract_x
_atom_site_fract_y
_atom_site_fract_z
Si Si1 0.765195 0.465965 0.893258
Si Si2 0.104811 0.785439 0.113518
Si Si3 0.151058 0.184329 0.359979
Si Si4 0.101568 0.924115 0.010305
Si Si5 0.103247 0.394555 0.006307
Si Si6 0.608445 0.877099 0.264313
Si Si7 0.859981 0.332424 0.611762
O O1 0.750000 0.472909 0.750000
O O2 0.793552 0.500000 0.000000
O O3 0.667181 0.453886 0.937713
O O4 0.833798 0.425065 0.924686
O O5 0.149585 0.737818 0.132949
O O6 0.137383 0.828064 0.188165
O O7 0.000000 0.780516 0.138271
O O8 0.115208 0.796472 0.982256
O O9 0.103516 0.155431 0.455366
O O10 0.109972 0.173225 0.238856
O O11 0.253279 0.168807 0.374505
O O12 0.133138 0.912401 0.137303
O O13 0.000000 0.940313 0.015855
O O14 0.104895 0.877350 0.944321
O O15 0.134865 0.390337 0.137202
O O16 0.000000 0.410904 0.006621
O O17 0.500000 0.875969 0.264122
#
# Coordination Sequence:
#
# PCOD9482463 Si02
#       7
#    16  16  16  16  16  16  16
#     4  12  29  49  74 110 142 175 229 284 348 430
#     4  10  21  36  56  89 130 176 229 282 329 392
#     4  11  22  36  59  89 129 175 226 279 334 402
#     4  10  21  44  74  97 130 177 225 280 342 413
#     4  11  24  44  71 101 140 184 229 285 351 414
#     4   8  19  39  65  99 135 179 234 281 336 410
#     4  10  21  39  57  85 126 168 223 276 333 401
#
# _framework density 10.370369999999999
#
# number of rings (size 3 to 8) (size 9 to 14) (size 15 to 20)
#    0.000    1.714    1.429    3.000    4.000    4.571 
#    0.000    0.000    0.000    0.000    0.000    0.000 
#    0.000    0.000    0.000    0.000    0.000    0.000 
#
# Total GULP energy -311769.986233 kJ/mol
# GULP energy per Si atom -5567.321183 kJ/mol
# Density = 1.034677 g / cm^3
# Si number density = 10.370370 Si / 1000 Ang^3
#
#
#
# Elastic Constant Matrix: (Units=GPa)
#
#
# Indices 1 2 3 4 5 6 
#
# 1 86.7656 6.7465 9.9199 0.0000 0.0000 0.0000
# 2 6.7465 52.2227 22.3552 0.0000 0.0000 0.0000
# 3 9.9199 22.3552 167.7927 0.0000 0.0000 0.0000
# 4 0.0000 0.0000 0.0000 27.9228 0.0000 0.0000
# 5 0.0000 0.0000 0.0000 0.0000 -19.9543 0.0000
# 6 0.0000 0.0000 0.0000 0.0000 0.0000 24.1730
#
#
#
# Elastic Compliance Matrix: (Units=1/GPa)
#
#
# Indices 1 2 3 4 5 6 
#
# 1 0.011685 -0.001287 -0.000519 0.000000 0.000000 0.000000
# 2 -0.001287 0.020449 -0.002648 0.000000 0.000000 0.000000
# 3 -0.000519 -0.002648 0.006343 0.000000 0.000000 0.000000
# 4 0.000000 0.000000 0.000000 0.035813 0.000000 0.000000
# 5 0.000000 0.000000 0.000000 0.000000 -0.050114 0.000000
# 6 0.000000 0.000000 0.000000 0.000000 0.000000 0.041368
#
#
# Mechanical properties :
#
#
# Convention : Reuss Voigt Hill
#
# Bulk Modulus (GPa) = 33.82140 42.75827 38.28983
# Shear Modulus (GPa) = 59.30562 24.27893 41.79228
#
# Velocity S-wave (km/s) = 5.35312 3.42510 4.49373
# Velocity P-wave (km/s) = 7.38579 6.02512 6.73988
#
# Compressibility (1/GPa) = 0.02956708
#
# Stress axis : x y z
#
# Youngs Moduli (GPa) = 85.58156 48.90279 157.64727
#
# Poissons Ratio (x) = 0.06295 0.08187
# Poissons Ratio (y) = 0.11016 0.41750
# Poissons Ratio (z) = 0.04444 0.12951
#
# Static dielectric constant tensor:
#      x y z
#    x 1.785220 0.000000 0.000000 
#    y 0.000000 1.800700 0.000000 
#    z 0.000000 0.000000 1.780580 
# 
# From -- ./inp_files/14983.got.cif
#   From: 2010.05.17/outbox.ucp.g08.bks.cvg/sg64_8_cif.got.tgz:14983.got - 2010.06.11 16:36:46.
