data_PCOD9482207
_publ_section_title
;
Structure prediction by ZEFSAII (Michael W. Deem and Ramdas Pophale) SiO2 
 PCOD9482207
Probable space group: C M C A
;
_chemical_formula_sum "Si O2"
_cell_formula_units_Z 48
_cell_length_a 17.856733
_cell_length_b 21.392767
_cell_length_c 5.130871
_cell_angle_alpha 90.000000
_cell_angle_beta 90.000000
_cell_angle_gamma 90.000000
_cell_volume 1960.018009
_symmetry_space_group_name_H-M "C M C A"
_symmetry_group_IT_number 64
_symmetry_cell_setting 'orthorhombic'
loop_
_space_group_symop_operation_xyz
x,y,z
-x,1/2-y,1/2+z
x,-y,-z
-x,1/2+y,1/2-z
-x,-y,-z
x,1/2+y,1/2-z
-x,y,z
x,1/2-y,1/2+z
1/2+x,1/2+y,z
1/2-x,-y,1/2+z
1/2+x,1/2-y,-z
1/2-x,y,1/2-z
1/2-x,1/2-y,-z
1/2+x,y,1/2-z
1/2-x,1/2+y,z
1/2+x,-y,1/2+z
loop_
_atom_site_type_symbol
_atom_site_label
_atom_site_fract_x
_atom_site_fract_y
_atom_site_fract_z
Si Si1 0.500000 0.153032 0.734424
Si Si2 0.500000 0.427506 0.751379
Si Si3 0.840562 0.791541 0.099291
Si Si4 0.750000 0.595589 0.750000
Si Si5 0.866963 0.500000 0.000000
O O1 0.500000 0.129721 0.035671
O O2 0.572906 0.190353 0.643773
O O3 0.500000 0.092713 0.549196
O O4 0.575551 0.465713 0.693883
O O5 0.824749 0.754321 0.363728
O O6 0.795297 0.856042 0.067989
O O7 0.687787 0.552003 0.619710
#
# Coordination Sequence:
#
# PCOD9482207 Si02
#       5
#     8   8  16   8   8
#     4  12  24  50  78 109 147 203 257 312 369 459
#     4  11  26  51  76 111 155 199 255 306 381 451
#     4  12  27  50  76 110 152 200 255 312 376 452
#     4  12  28  46  78 116 154 202 250 318 392 446
#     4  11  28  48  78 117 152 206 248 321 374 472
#
# _framework density 24.489568999999999
#
# number of rings (size 3 to 8) (size 9 to 14) (size 15 to 20)
#    0.000    0.333    3.333    4.000    4.667    2.667 
#    0.000    0.000    0.000    0.000    0.000    0.000 
#    0.000    0.000    0.000    0.000    0.000    0.000 
#
# Total GULP energy -134568.104761 kJ/mol
# GULP energy per Si atom -5607.004365 kJ/mol
# Density = 2.443383 g / cm^3
# Si number density = 24.489569 Si / 1000 Ang^3
#
#
#
# Elastic Constant Matrix: (Units=GPa)
#
#
# Indices 1 2 3 4 5 6 
#
# 1 203.7315 77.6617 26.5090 0.0000 0.0000 0.0000
# 2 77.6617 139.3571 40.0440 0.0000 0.0000 0.0000
# 3 26.5090 40.0440 97.9838 0.0000 0.0000 0.0000
# 4 0.0000 0.0000 0.0000 40.1212 0.0000 0.0000
# 5 0.0000 0.0000 0.0000 0.0000 19.8305 0.0000
# 6 0.0000 0.0000 0.0000 0.0000 0.0000 66.2356
#
#
#
# Elastic Compliance Matrix: (Units=1/GPa)
#
#
# Indices 1 2 3 4 5 6 
#
# 1 0.006240 -0.003391 -0.000303 0.000000 0.000000 0.000000
# 2 -0.003391 0.009973 -0.003158 0.000000 0.000000 0.000000
# 3 -0.000303 -0.003158 0.011578 0.000000 0.000000 0.000000
# 4 0.000000 0.000000 0.000000 0.024924 0.000000 0.000000
# 5 0.000000 0.000000 0.000000 0.000000 0.050427 0.000000
# 6 0.000000 0.000000 0.000000 0.000000 0.000000 0.015098
#
#
# Mechanical properties :
#
#
# Convention : Reuss Voigt Hill
#
# Bulk Modulus (GPa) = 70.98079 81.05575 76.01827
# Shear Modulus (GPa) = 36.59234 45.02797 40.81015
#
# Velocity S-wave (km/s) = 3.86968 4.29261 4.08662
# Velocity P-wave (km/s) = 7.00092 7.59859 7.30587
#
# Compressibility (1/GPa) = 0.01408832
#
# Stress axis : x y z
#
# Youngs Moduli (GPa) = 160.24843 100.27115 86.36763
#
# Poissons Ratio (x) = 0.33999 0.02613
# Poissons Ratio (y) = 0.54335 0.27278
# Poissons Ratio (z) = 0.04849 0.31670
#
# Static dielectric constant tensor:
#      x y z
#    x 1.954300 0.000000 0.000000 
#    y 0.000000 1.927650 0.000000 
#    z 0.000000 0.000000 1.894840 
# 
# From -- ./inp_files/1135.got.cif
#   From: 2010.05.17/outbox.cif.g08.bks.cpg/sg64_1_cif.got.tgz:1135.got - 2010.06.03 16:29:19.
