data_PCOD9482457
_publ_section_title
;
Structure prediction by ZEFSAII (Michael W. Deem and Ramdas Pophale) SiO2 
 PCOD9482457
Probable space group: C M C A
;
_chemical_formula_sum "Si O2"
_cell_formula_units_Z 58
_cell_length_a 24.000000
_cell_length_b 27.000000
_cell_length_c 9.000000
_cell_angle_alpha 90.000000
_cell_angle_beta 90.000000
_cell_angle_gamma 90.000000
_cell_volume 5832.000000
_symmetry_space_group_name_H-M "C M C A"
_symmetry_group_IT_number 64
_symmetry_cell_setting 'orthorhombic'
loop_
_space_group_symop_operation_xyz
x,y,z
-x,1/2-y,1/2+z
x,-y,-z
-x,1/2+y,1/2-z
-x,-y,-z
x,1/2+y,1/2-z
-x,y,z
x,1/2-y,1/2+z
1/2+x,1/2+y,z
1/2-x,-y,1/2+z
1/2+x,1/2-y,-z
1/2-x,y,1/2-z
1/2-x,1/2-y,-z
1/2+x,y,1/2-z
1/2-x,1/2+y,z
1/2+x,-y,1/2+z
loop_
_atom_site_type_symbol
_atom_site_label
_atom_site_fract_x
_atom_site_fract_y
_atom_site_fract_z
Si Si1 0.200909 0.463997 0.141814
Si Si2 0.561356 0.648323 0.635093
Si Si3 0.904740 0.939074 0.152100
Si Si4 0.641229 0.324431 0.603428
Si Si5 0.000000 0.000000 0.000000
Si Si6 0.243859 0.851591 0.420424
Si Si7 0.134570 0.142907 0.061367
Si Si8 0.066317 0.274573 0.389188
O O1 0.250000 0.483530 0.250000
O O2 0.146827 0.457979 0.247958
O O3 0.221326 0.408688 0.090273
O O4 0.192756 0.500000 0.000000
O O5 0.500000 0.649538 0.569503
O O6 0.567253 0.604668 0.752446
O O7 0.606296 0.641815 0.509147
O O8 0.570681 0.698741 0.728237
O O9 0.885180 0.910420 0.001335
O O10 0.950726 0.978784 0.111096
O O11 0.701264 0.320966 0.523833
O O12 0.642370 0.349631 0.763809
O O13 0.605668 0.273513 0.609838
O O14 0.250000 0.833740 0.250000
O O15 0.305419 0.849388 0.486575
O O16 0.091237 0.184851 0.003522
O O17 0.000000 0.265125 0.415936
#
# Coordination Sequence:
#
# PCOD9482457 Si02
#       8
#    16  16  16  16   4  16  16  16
#     4  11  24  45  74 103 135 183 235 288 354 427
#     4  10  20  41  66  89 135 183 226 272 338 402
#     4  11  23  48  66  98 135 183 220 287 355 413
#     4  12  23  37  66 105 133 175 232 280 333 411
#     4  12  28  44  78 100 140 180 238 286 364 424
#     4  11  22  45  67  94 134 182 219 281 351 408
#     4  11  24  42  69  97 140 177 225 285 344 410
#     4  10  23  43  67  96 137 187 232 276 331 411
#
# _framework density 9.9451300000000007
#
# number of rings (size 3 to 8) (size 9 to 14) (size 15 to 20)
#    0.000    1.103    4.828    2.483    1.931    4.966 
#    0.000    1.724    0.000    0.000    0.000    0.000 
#    0.000    0.000    0.000    0.000    0.000    0.000 
#
# Total GULP energy -323446.957813 kJ/mol
# GULP energy per Si atom -5576.671686 kJ/mol
# Density = 0.992249 g / cm^3
# Si number density = 9.945130 Si / 1000 Ang^3
#
#
#
# Elastic Constant Matrix: (Units=GPa)
#
#
# Indices 1 2 3 4 5 6 
#
# 1 137.3761 29.3474 45.1916 0.0000 0.0000 0.0000
# 2 29.3474 51.7811 27.5281 0.0000 0.0000 0.0000
# 3 45.1916 27.5281 121.7316 0.0000 0.0000 0.0000
# 4 0.0000 0.0000 0.0000 15.3977 0.0000 0.0000
# 5 0.0000 0.0000 0.0000 0.0000 14.4876 0.0000
# 6 0.0000 0.0000 0.0000 0.0000 0.0000 22.7344
#
#
#
# Elastic Compliance Matrix: (Units=1/GPa)
#
#
# Indices 1 2 3 4 5 6 
#
# 1 0.008884 -0.003730 -0.002454 0.000000 0.000000 0.000000
# 2 -0.003730 0.023517 -0.003933 0.000000 0.000000 0.000000
# 3 -0.002454 -0.003933 0.010015 0.000000 0.000000 0.000000
# 4 0.000000 0.000000 0.000000 0.064945 0.000000 0.000000
# 5 0.000000 0.000000 0.000000 0.000000 0.069025 0.000000
# 6 0.000000 0.000000 0.000000 0.000000 0.000000 0.043986
#
#
# Mechanical properties :
#
#
# Convention : Reuss Voigt Hill
#
# Bulk Modulus (GPa) = 45.08460 57.22478 51.15469
# Shear Modulus (GPa) = 20.16121 24.44538 22.30329
#
# Velocity S-wave (km/s) = 3.18720 3.50953 3.35224
# Velocity P-wave (km/s) = 6.02164 6.72719 6.38417
#
# Compressibility (1/GPa) = 0.02218052
#
# Stress axis : x y z
#
# Youngs Moduli (GPa) = 112.56785 42.52221 99.84562
#
# Poissons Ratio (x) = 0.15861 0.24506
# Poissons Ratio (y) = 0.41988 0.39273
# Poissons Ratio (z) = 0.27629 0.16726
#
# Static dielectric constant tensor:
#      x y z
#    x 1.707340 0.000000 0.000000 
#    y 0.000000 1.720750 0.000000 
#    z 0.000000 0.000000 1.713470 
# 
# From -- ./inp_files/9723.got.cif
#   From: 2010.05.17/outbox.ucp.g08.bks.cvg/sg64_5_cif.got.tgz:9723.got - 2010.06.11 16:36:46.
