data_PCOD9482590
_publ_section_title
;
Structure prediction by ZEFSAII (Michael W. Deem and Ramdas Pophale) SiO2 
 PCOD9482590
Probable space group: C M M M
;
_chemical_formula_sum "Si O2"
_cell_formula_units_Z 80
_cell_length_a 18.335653
_cell_length_b 8.720898
_cell_length_c 26.916995
_cell_angle_alpha 90.000000
_cell_angle_beta 90.000000
_cell_angle_gamma 90.000000
_cell_volume 4304.117930
_symmetry_space_group_name_H-M "C M M M"
_symmetry_group_IT_number 65
_symmetry_cell_setting 'orthorhombic'
loop_
_space_group_symop_operation_xyz
x,y,z
-x,-y,z
x,-y,-z
-x,y,-z
-x,-y,-z
x,y,-z
-x,y,z
x,-y,z
1/2+x,1/2+y,z
1/2-x,1/2-y,z
1/2+x,1/2-y,-z
1/2-x,1/2+y,-z
1/2-x,1/2-y,-z
1/2+x,1/2+y,-z
1/2-x,1/2+y,z
1/2+x,1/2-y,z
loop_
_atom_site_type_symbol
_atom_site_label
_atom_site_fract_x
_atom_site_fract_y
_atom_site_fract_z
Si Si1 0.831830 0.316621 0.789205
Si Si2 0.832302 0.683684 0.899179
Si Si3 0.832967 0.817167 0.000000
Si Si4 0.168673 0.184450 0.595298
Si Si5 0.915807 0.184916 0.695472
Si Si6 0.085850 0.683586 0.500000
O O1 0.827046 0.500000 0.785862
O O2 0.750000 0.250000 0.785058
O O3 0.862624 0.279231 0.844420
O O4 0.880237 0.252397 0.744918
O O5 0.829547 0.500000 0.904943
O O6 0.750000 0.750000 0.897213
O O7 0.867055 0.756366 0.948549
O O8 0.750000 0.750000 0.000000
O O9 0.829571 0.000000 0.000000
O O10 0.250000 0.250000 0.593886
O O11 0.129515 0.230865 0.646687
O O12 0.123715 0.247481 0.548680
O O13 0.170770 0.000000 0.593024
O O14 0.000000 0.231900 0.690490
O O15 0.913285 0.000000 0.698426
O O16 0.094612 0.500000 0.500000
O O17 0.000000 0.719906 0.500000
#
# Coordination Sequence:
#
# PCOD9482590 Si02
#       6
#    16  16   8  16  16   8
#     4  10  20  33  52  77 105 140 179 221 269 321
#     4   9  16  26  40  62  94 130 168 210 259 313
#     4  10  16  22  36  60  91 128 167 208 259 313
#     4  11  23  40  62  87 116 149 186 226 271 322
#     4  10  22  39  58  81 109 142 180 223 272 324
#     4  11  24  41  62  89 119 151 188 229 272 317
#
# _framework density 18.586850999999999
#
# number of rings (size 3 to 8) (size 9 to 14) (size 15 to 20)
#    0.000    1.900    0.000    5.700    0.000    7.600 
#    0.000    0.000    0.000    0.000    0.000    0.700 
#    0.000    5.600    0.000    0.000    0.000    0.000 
#
# Total GULP energy -223286.238179 kJ/mol
# GULP energy per Si atom -5582.155954 kJ/mol
# Density = 1.854455 g / cm^3
# Si number density = 18.586851 Si / 1000 Ang^3
#
#
#
# Elastic Constant Matrix: (Units=GPa)
#
#
# Indices 1 2 3 4 5 6 
#
# 1 103.9115 43.7804 87.1309 0.0000 0.0000 0.0000
# 2 43.7804 71.5744 72.2226 0.0000 0.0000 0.0000
# 3 87.1309 72.2226 225.7924 0.0000 0.0000 0.0000
# 4 0.0000 0.0000 0.0000 78.0538 0.0000 0.0000
# 5 0.0000 0.0000 0.0000 0.0000 -45.3549 0.0000
# 6 0.0000 0.0000 0.0000 0.0000 0.0000 15.3892
#
#
#
# Elastic Compliance Matrix: (Units=1/GPa)
#
#
# Indices 1 2 3 4 5 6 
#
# 1 0.015369 -0.005045 -0.004317 0.000000 0.000000 0.000000
# 2 -0.005045 0.022286 -0.005182 0.000000 0.000000 0.000000
# 3 -0.004317 -0.005182 0.007752 0.000000 0.000000 0.000000
# 4 0.000000 0.000000 0.000000 0.012812 0.000000 0.000000
# 5 0.000000 0.000000 0.000000 0.000000 -0.022048 0.000000
# 6 0.000000 0.000000 0.000000 0.000000 0.000000 0.064981
#
#
# Mechanical properties :
#
#
# Convention : Reuss Voigt Hill
#
# Bulk Modulus (GPa) = 61.27437 89.72734 75.50086
# Shear Modulus (GPa) = 36.85202 22.82727 29.83965
#
# Velocity S-wave (km/s) = 4.45757 3.50829 4.01111
# Velocity P-wave (km/s) = 7.71566 8.04924 7.88421
#
# Compressibility (1/GPa) = 0.01632004
#
# Stress axis : x y z
#
# Youngs Moduli (GPa) = 65.06628 44.87161 128.99512
#
# Poissons Ratio (x) = 0.22636 0.55689
# Poissons Ratio (y) = 0.32823 0.66842
# Poissons Ratio (z) = 0.28090 0.23251
#
# Static dielectric constant tensor:
#      x y z
#    x 1.603000 0.000000 0.000000 
#    y 0.000000 1.620130 0.000000 
#    z 0.000000 0.000000 1.673330 
# 
# From -- ./inp_files/75064.got.cif
#   From: 2010.05.17/outbox.cif.g08.bks.cpg/sg65_38_cif.got.tgz:75064.got - 2010.06.03 17:01:31.
