data_PCOD9482928
_publ_section_title
;
Structure prediction by ZEFSAII (Michael W. Deem and Ramdas Pophale) SiO2 
 PCOD9482928
Probable space group: C M M M
;
_chemical_formula_sum "Si O2"
_cell_formula_units_Z 120
_cell_length_a 8.193932
_cell_length_b 28.708511
_cell_length_c 26.646679
_cell_angle_alpha 90.000000
_cell_angle_beta 90.000000
_cell_angle_gamma 90.000000
_cell_volume 6268.247175
_symmetry_space_group_name_H-M "C M M M"
_symmetry_group_IT_number 65
_symmetry_cell_setting 'orthorhombic'
loop_
_space_group_symop_operation_xyz
x,y,z
-x,-y,z
x,-y,-z
-x,y,-z
-x,-y,-z
x,y,-z
-x,y,z
x,-y,z
1/2+x,1/2+y,z
1/2-x,1/2-y,z
1/2+x,1/2-y,-z
1/2-x,1/2+y,-z
1/2-x,1/2-y,-z
1/2+x,1/2+y,-z
1/2-x,1/2+y,z
1/2+x,1/2-y,z
loop_
_atom_site_type_symbol
_atom_site_label
_atom_site_fract_x
_atom_site_fract_y
_atom_site_fract_z
Si Si1 0.804825 0.802444 0.131105
Si Si2 0.302469 0.901322 0.890796
Si Si3 0.802220 0.552610 0.792412
Si Si4 0.805431 0.696731 0.554058
Si Si5 0.807656 0.852780 0.654412
Si Si6 0.803918 0.500000 0.940735
Si Si7 0.197294 0.197842 0.753649
Si Si8 0.196949 0.551369 0.678438
O O1 0.750000 0.750000 0.115455
O O2 0.751532 0.848042 0.099060
O O3 0.742459 0.809304 0.189012
O O4 0.000000 0.802044 0.131980
O O5 0.500000 0.901262 0.893276
O O6 0.244048 0.911802 0.833875
O O7 0.247822 0.948935 0.919832
O O8 0.761226 0.500000 0.808721
O O9 0.743984 0.558621 0.735871
O O10 0.000000 0.555035 0.791312
O O11 0.746551 0.676739 0.500000
O O12 0.750000 0.750000 0.554935
O O13 0.747945 0.674276 0.605487
O O14 0.000000 0.694588 0.553849
O O15 0.739530 0.834760 0.708357
O O16 0.760956 0.906194 0.647117
O O17 0.000000 0.847693 0.658386
O O18 0.000000 0.500000 0.930988
O O19 0.774924 0.500000 0.000000
O O20 0.250000 0.250000 0.739648
O O21 0.000000 0.194781 0.755549
O O22 0.248484 0.500000 0.662247
O O23 0.000000 0.552209 0.679362
#
# Coordination Sequence:
#
# PCOD9482928 Si02
#       8
#    16  16  16  16  16   8  16  16
#     4  10  20  34  50  72 105 141 178 215 254 305
#     4  10  17  29  52  77 103 137 176 216 258 307
#     4   8  13  24  44  71  99 131 172 211 246 293
#     4  10  21  37  56  77 100 125 157 200 249 298
#     4  11  21  32  49  73 101 133 167 203 248 300
#     4   9  18  32  53  83 113 139 171 215 266 317
#     4   9  19  32  46  69 102 137 170 204 244 295
#     4   9  18  31  47  68  97 132 170 209 247 291
#
# _framework density 19.144107999999999
#
# number of rings (size 3 to 8) (size 9 to 14) (size 15 to 20)
#    0.000    2.467    0.667    3.200    0.000    3.733 
#    0.000    0.333    0.000    2.400    0.000    2.800 
#    0.000    0.000    0.000    0.000    0.000    0.000 
#
# Total GULP energy -334166.011914 kJ/mol
# GULP energy per Si atom -5569.433532 kJ/mol
# Density = 1.910053 g / cm^3
# Si number density = 19.144108 Si / 1000 Ang^3
#
#
#
# Elastic Constant Matrix: (Units=GPa)
#
#
# Indices 1 2 3 4 5 6 
#
# 1 16.6236 13.0407 10.9311 0.0000 0.0000 0.0000
# 2 13.0407 153.5841 51.1654 0.0000 0.0000 0.0000
# 3 10.9311 51.1654 29.2786 0.0000 0.0000 0.0000
# 4 0.0000 0.0000 0.0000 15.6252 0.0000 0.0000
# 5 0.0000 0.0000 0.0000 0.0000 -4.1301 0.0000
# 6 0.0000 0.0000 0.0000 0.0000 0.0000 24.3808
#
#
#
# Elastic Compliance Matrix: (Units=1/GPa)
#
#
# Indices 1 2 3 4 5 6 
#
# 1 0.083543 0.007892 -0.044982 0.000000 0.000000 0.000000
# 2 0.007892 0.016329 -0.031482 0.000000 0.000000 0.000000
# 3 -0.044982 -0.031482 0.105964 0.000000 0.000000 0.000000
# 4 0.000000 0.000000 0.000000 0.063999 0.000000 0.000000
# 5 0.000000 0.000000 0.000000 0.000000 -0.242125 0.000000
# 6 0.000000 0.000000 0.000000 0.000000 0.000000 0.041016
#
#
# Mechanical properties :
#
#
# Convention : Reuss Voigt Hill
#
# Bulk Modulus (GPa) = 14.55770 38.86229 26.71000
# Shear Modulus (GPa) = 21.85617 15.46513 18.66065
#
# Velocity S-wave (km/s) = 3.38252 2.84531 3.12548
# Velocity P-wave (km/s) = 4.78289 5.58018 5.19684
#
# Compressibility (1/GPa) = 0.06869219
#
# Stress axis : x y z
#
# Youngs Moduli (GPa) = 11.96987 61.24102 9.43714
#
# Poissons Ratio (x) = -0.48331 0.42450
# Poissons Ratio (y) = -0.09447 0.29710
# Poissons Ratio (z) = 0.53843 1.92798
#
# Static dielectric constant tensor:
#      x y z
#    x 1.681840 0.000000 0.000000 
#    y 0.000000 1.694150 0.000000 
#    z 0.000000 0.000000 1.684080 
# 
# From -- ./inp_files/73938.got.cif
#   From: 2010.05.17/outbox.cif.g08.bks.cpg/sg65_37_cif.got.tgz:73938.got - 2010.06.03 17:01:31.
