data_PCOD9482687
_publ_section_title
;
Structure prediction by ZEFSAII (Michael W. Deem and Ramdas Pophale) SiO2 
 PCOD9482687
Probable space group: C M M M
;
_chemical_formula_sum "Si O2"
_cell_formula_units_Z 92
_cell_length_a 17.561612
_cell_length_b 16.515103
_cell_length_c 16.775292
_cell_angle_alpha 90.000000
_cell_angle_beta 90.000000
_cell_angle_gamma 90.000000
_cell_volume 4865.368655
_symmetry_space_group_name_H-M "C M M M"
_symmetry_group_IT_number 65
_symmetry_cell_setting 'orthorhombic'
loop_
_space_group_symop_operation_xyz
x,y,z
-x,-y,z
x,-y,-z
-x,y,-z
-x,-y,-z
x,y,-z
-x,y,z
x,-y,z
1/2+x,1/2+y,z
1/2-x,1/2-y,z
1/2+x,1/2-y,-z
1/2-x,1/2+y,-z
1/2-x,1/2-y,-z
1/2+x,1/2+y,-z
1/2-x,1/2+y,z
1/2+x,1/2-y,z
loop_
_atom_site_type_symbol
_atom_site_label
_atom_site_fract_x
_atom_site_fract_y
_atom_site_fract_z
Si Si1 0.084812 0.356145 0.323011
Si Si2 0.393062 0.791334 0.500000
Si Si3 0.408132 0.592638 0.092812
Si Si4 0.000000 0.909672 0.324045
Si Si5 0.756274 0.407761 0.500000
Si Si6 0.368372 0.308455 0.241247
Si Si7 0.000000 0.857689 0.500000
Si Si8 0.253658 0.588082 0.322260
O O1 0.079590 0.325610 0.414752
O O2 0.105436 0.281347 0.264473
O O3 0.161626 0.409048 0.322708
O O4 0.000000 0.388531 0.302976
O O5 0.307737 0.826826 0.500000
O O6 0.425213 0.700651 0.500000
O O7 0.500000 0.596031 0.099066
O O8 0.385452 0.500000 0.114716
O O9 0.375605 0.661184 0.150781
O O10 0.388279 0.604796 0.000000
O O11 0.927131 0.863939 0.290558
O O12 0.000000 0.906588 0.418986
O O13 0.000000 0.000000 0.293305
O O14 0.793851 0.500000 0.500000
O O15 0.717504 0.405594 0.413905
O O16 0.287006 0.337091 0.274019
O O17 0.278124 0.500000 0.290966
#
# Coordination Sequence:
#
# PCOD9482687 Si02
#       8
#    16   8  16   8   8  16   4  16
#     4  11  20  35  55  75 102 139 180 221 265 309
#     4  10  16  32  51  69  97 133 175 226 266 300
#     4   9  17  30  51  78 107 138 169 206 257 315
#     4  12  23  32  49  71 106 149 175 208 249 306
#     4   8  18  34  48  69  98 132 179 222 265 304
#     4  12  20  35  53  79 107 134 175 209 260 316
#     4  12  19  34  43  68 106 138 186 212 247 304
#     4  10  22  35  52  76 104 139 178 223 264 306
#
# _framework density 18.909153
#
# number of rings (size 3 to 8) (size 9 to 14) (size 15 to 20)
#    0.000    1.565    4.348    2.739    0.000    1.739 
#    0.000    4.565    0.000    2.087    0.000    0.000 
#    0.000    0.000    0.000    7.304    0.000    0.000 
#
# Total GULP energy -256301.511231 kJ/mol
# GULP energy per Si atom -5571.771983 kJ/mol
# Density = 1.886611 g / cm^3
# Si number density = 18.909153 Si / 1000 Ang^3
#
#
#
# Elastic Constant Matrix: (Units=GPa)
#
#
# Indices 1 2 3 4 5 6 
#
# 1 66.2822 7.4582 10.3887 0.0000 0.0000 0.0000
# 2 7.4582 61.4946 22.1809 0.0000 0.0000 0.0000
# 3 10.3887 22.1809 100.1381 0.0000 0.0000 0.0000
# 4 0.0000 0.0000 0.0000 6.3308 0.0000 0.0000
# 5 0.0000 0.0000 0.0000 0.0000 18.0538 0.0000
# 6 0.0000 0.0000 0.0000 0.0000 0.0000 14.3207
#
#
#
# Elastic Compliance Matrix: (Units=1/GPa)
#
#
# Indices 1 2 3 4 5 6 
#
# 1 0.015448 -0.001408 -0.001291 0.000000 0.000000 0.000000
# 2 -0.001408 0.017802 -0.003797 0.000000 0.000000 0.000000
# 3 -0.001291 -0.003797 0.010961 0.000000 0.000000 0.000000
# 4 0.000000 0.000000 0.000000 0.157957 0.000000 0.000000
# 5 0.000000 0.000000 0.000000 0.000000 0.055390 0.000000
# 6 0.000000 0.000000 0.000000 0.000000 0.000000 0.069829
#
#
# Mechanical properties :
#
#
# Convention : Reuss Voigt Hill
#
# Bulk Modulus (GPa) = 32.03155 34.21896 33.12525
# Shear Modulus (GPa) = 14.25373 20.26686 17.26029
#
# Velocity S-wave (km/s) = 2.74852 3.27739 3.02454
# Velocity P-wave (km/s) = 5.20086 5.69715 5.45465
#
# Compressibility (1/GPa) = 0.03121922
#
# Stress axis : x y z
#
# Youngs Moduli (GPa) = 64.73434 56.17353 91.23094
#
# Poissons Ratio (x) = 0.07909 0.11776
# Poissons Ratio (y) = 0.09114 0.34642
# Poissons Ratio (z) = 0.08356 0.21330
#
# Static dielectric constant tensor:
#      x y z
#    x 1.741410 0.000000 0.000000 
#    y 0.000000 1.672620 0.000000 
#    z 0.000000 0.000000 1.644050 
# 
# From -- ./inp_files/54549.got.cif
#   From: 2010.05.17/outbox.cif.g08.bks.cpg/sg65_28_cif.got.tgz:54549.got - 2010.06.03 17:01:31.
