data_PCOD9482362
_publ_section_title
;
Structure prediction by ZEFSAII (Michael W. Deem and Ramdas Pophale) SiO2 
 PCOD9482362
Probable space group: C M C A
;
_chemical_formula_sum "Si O2"
_cell_formula_units_Z 48
_cell_length_a 9.000000
_cell_length_b 27.000000
_cell_length_c 24.000000
_cell_angle_alpha 90.000000
_cell_angle_beta 90.000000
_cell_angle_gamma 90.000000
_cell_volume 5832.000000
_symmetry_space_group_name_H-M "C M C A"
_symmetry_group_IT_number 64
_symmetry_cell_setting 'orthorhombic'
loop_
_space_group_symop_operation_xyz
x,y,z
-x,1/2-y,1/2+z
x,-y,-z
-x,1/2+y,1/2-z
-x,-y,-z
x,1/2+y,1/2-z
-x,y,z
x,1/2-y,1/2+z
1/2+x,1/2+y,z
1/2-x,-y,1/2+z
1/2+x,1/2-y,-z
1/2-x,y,1/2-z
1/2-x,1/2-y,-z
1/2+x,y,1/2-z
1/2-x,1/2+y,z
1/2+x,-y,1/2+z
loop_
_atom_site_type_symbol
_atom_site_label
_atom_site_fract_x
_atom_site_fract_y
_atom_site_fract_z
Si Si1 0.323319 0.373395 0.407362
Si Si2 0.178835 0.310695 0.311319
Si Si3 0.823305 0.058719 0.996862
Si Si4 0.831422 0.370197 0.595332
Si Si5 0.321601 0.303968 0.688447
Si Si6 0.331755 0.300242 0.009891
O O1 0.500000 0.377807 0.400557
O O2 0.247271 0.353393 0.350741
O O3 0.257184 0.420338 0.441518
O O4 0.274583 0.330808 0.450112
O O5 0.250000 0.315065 0.250000
O O6 0.212469 0.253367 0.330273
O O7 0.000000 0.315337 0.309266
O O8 0.000000 0.071329 0.991951
O O9 0.773621 0.084649 0.055503
O O10 0.806929 0.000000 0.000000
O O11 0.740128 0.345733 0.645974
O O12 0.841432 0.327542 0.548950
O O13 0.000000 0.382582 0.614278
O O14 0.500000 0.307802 0.692185
O O15 0.250000 0.309838 0.750000
O O16 0.500000 0.296112 0.032912
O O17 0.250000 0.250000 0.000000
#
# Coordination Sequence:
#
# PCOD9482362 Si02
#       6
#    16  16  16  16  16  16
#     4  11  21  32  49  74 103 134 168 207 252 305
#     4  10  20  34  51  73 103 139 177 211 247 295
#     4   9  19  37  58  77  99 130 167 212 266 313
#     4   9  18  31  48  71  98 127 162 203 248 299
#     4  10  20  32  49  72 101 137 172 205 241 288
#     4  10  19  30  45  68  99 133 166 203 248 299
#
# _framework density 8.2304530000000007
#
# number of rings (size 3 to 8) (size 9 to 14) (size 15 to 20)
#    0.000    2.167    0.000    5.000    0.000    8.333 
#    0.000    0.000    0.000    1.000    0.000    4.667 
#    0.000    0.000    0.000    0.000    0.000    0.000 
#
# Total GULP energy -267289.550849 kJ/mol
# GULP energy per Si atom -5568.532309 kJ/mol
# Density = 0.821172 g / cm^3
# Si number density = 8.230453 Si / 1000 Ang^3
#
#
#
# Elastic Constant Matrix: (Units=GPa)
#
#
# Indices 1 2 3 4 5 6 
#
# 1 93.2578 42.4623 45.4864 0.0000 0.0000 0.0000
# 2 42.4623 92.8346 41.2356 0.0000 0.0000 0.0000
# 3 45.4864 41.2356 94.2550 0.0000 0.0000 0.0000
# 4 0.0000 0.0000 0.0000 20.1037 0.0000 0.0000
# 5 0.0000 0.0000 0.0000 0.0000 31.0455 0.0000
# 6 0.0000 0.0000 0.0000 0.0000 0.0000 20.3035
#
#
#
# Elastic Compliance Matrix: (Units=1/GPa)
#
#
# Indices 1 2 3 4 5 6 
#
# 1 0.015504 -0.004677 -0.005436 0.000000 0.000000 0.000000
# 2 -0.004677 0.014781 -0.004209 0.000000 0.000000 0.000000
# 3 -0.005436 -0.004209 0.015074 0.000000 0.000000 0.000000
# 4 0.000000 0.000000 0.000000 0.049742 0.000000 0.000000
# 5 0.000000 0.000000 0.000000 0.000000 0.032211 0.000000
# 6 0.000000 0.000000 0.000000 0.000000 0.000000 0.049253
#
#
# Mechanical properties :
#
#
# Convention : Reuss Voigt Hill
#
# Bulk Modulus (GPa) = 59.82789 59.85734 59.84261
# Shear Modulus (GPa) = 23.72140 24.36810 24.04475
#
# Velocity S-wave (km/s) = 3.80027 3.85172 3.82608
# Velocity P-wave (km/s) = 7.46193 7.49822 7.48010
#
# Compressibility (1/GPa) = 0.01671461
#
# Stress axis : x y z
#
# Youngs Moduli (GPa) = 64.50050 67.65539 66.33771
#
# Poissons Ratio (x) = 0.31641 0.36060
# Poissons Ratio (y) = 0.30166 0.27925
# Poissons Ratio (z) = 0.35062 0.28479
#
# Static dielectric constant tensor:
#      x y z
#    x 1.566020 0.000000 0.000000 
#    y 0.000000 1.531300 0.000000 
#    z 0.000000 0.000000 1.549530 
# 
# From -- ./inp_files/43175.got.cif
#   From: 2010.05.17/outbox.ucp.g08.bks.cvg/sg64_22_cif.got.tgz:43175.got - 2010.06.11 16:36:46.
