data_PCOD9482462
_publ_section_title
;
Structure prediction by ZEFSAII (Michael W. Deem and Ramdas Pophale) SiO2 
 PCOD9482462
Probable space group: C M C A
;
_chemical_formula_sum "Si O2"
_cell_formula_units_Z 58
_cell_length_a 9.000000
_cell_length_b 24.000000
_cell_length_c 30.000000
_cell_angle_alpha 90.000000
_cell_angle_beta 90.000000
_cell_angle_gamma 90.000000
_cell_volume 6480.000000
_symmetry_space_group_name_H-M "C M C A"
_symmetry_group_IT_number 64
_symmetry_cell_setting 'orthorhombic'
loop_
_space_group_symop_operation_xyz
x,y,z
-x,1/2-y,1/2+z
x,-y,-z
-x,1/2+y,1/2-z
-x,-y,-z
x,1/2+y,1/2-z
-x,y,z
x,1/2-y,1/2+z
1/2+x,1/2+y,z
1/2-x,-y,1/2+z
1/2+x,1/2-y,-z
1/2-x,y,1/2-z
1/2-x,1/2-y,-z
1/2+x,y,1/2-z
1/2-x,1/2+y,z
1/2+x,-y,1/2+z
loop_
_atom_site_type_symbol
_atom_site_label
_atom_site_fract_x
_atom_site_fract_y
_atom_site_fract_z
Si Si1 0.836486 0.089136 0.940768
Si Si2 0.675247 0.668356 0.205276
Si Si3 0.823502 0.236753 0.634732
Si Si4 0.174990 0.945339 0.352131
Si Si5 0.822966 0.350740 0.298026
Si Si6 0.821875 0.284531 0.459819
Si Si7 0.000000 0.500000 0.500000
Si Si8 0.824043 0.451336 0.795127
O O1 0.728274 0.069159 0.901765
O O2 0.791481 0.148596 0.961610
O O3 0.000000 0.099808 0.918694
O O4 0.872537 0.041414 0.976906
O O5 0.500000 0.662322 0.213634
O O6 0.750000 0.693283 0.250000
O O7 0.694943 0.706155 0.162012
O O8 0.750110 0.608612 0.198322
O O9 0.743608 0.191438 0.665627
O O10 0.748231 0.236169 0.586604
O O11 0.000000 0.224953 0.630941
O O12 0.270000 0.909894 0.317066
O O13 0.000000 0.932327 0.346991
O O14 0.198373 0.009053 0.337443
O O15 0.750000 0.340646 0.250000
O O16 0.000000 0.346389 0.295038
O O17 0.750000 0.250000 0.500000
O O18 0.000000 0.277306 0.460288
O O19 0.750000 0.475165 0.750000
O O20 0.000000 0.445689 0.787686
#
# Coordination Sequence:
#
# PCOD9482462 Si02
#       8
#    16  16  16  16  16  16   4  16
#     4   9  20  41  66  90 117 159 203 257 323 382
#     4  10  21  37  58  84 118 163 208 252 305 361
#     4  11  23  40  61  90 122 161 207 256 313 376
#     4  11  22  37  60  90 123 160 204 255 312 375
#     4  12  24  37  58  90 127 168 209 252 307 374
#     4  11  23  41  65  93 124 160 207 258 325 388
#     4   8  20  44  70  92 120 156 210 266 308 400
#     4  10  21  36  55  82 119 161 207 253 303 360
#
# _framework density 8.9506169999999994
#
# number of rings (size 3 to 8) (size 9 to 14) (size 15 to 20)
#    0.414    1.103    1.379    4.966    0.000    7.172 
#    2.483    0.345    0.000    0.000    0.000    0.000 
#    0.000    0.000    0.000    0.000    0.000    0.000 
#
# Total GULP energy -323127.829459 kJ/mol
# GULP energy per Si atom -5571.169473 kJ/mol
# Density = 0.893025 g / cm^3
# Si number density = 8.950617 Si / 1000 Ang^3
#
#
#
# Elastic Constant Matrix: (Units=GPa)
#
#
# Indices 1 2 3 4 5 6 
#
# 1 126.2009 60.3892 72.2892 0.0000 0.0000 0.0000
# 2 60.3892 95.3108 72.3697 0.0000 0.0000 0.0000
# 3 72.2892 72.3697 144.1004 0.0000 0.0000 0.0000
# 4 0.0000 0.0000 0.0000 11.1209 0.0000 0.0000
# 5 0.0000 0.0000 0.0000 0.0000 36.3802 0.0000
# 6 0.0000 0.0000 0.0000 0.0000 0.0000 24.3359
#
#
#
# Elastic Compliance Matrix: (Units=1/GPa)
#
#
# Indices 1 2 3 4 5 6 
#
# 1 0.012485 -0.005099 -0.003702 0.000000 0.000000 0.000000
# 2 -0.005099 0.019042 -0.007005 0.000000 0.000000 0.000000
# 3 -0.003702 -0.007005 0.012315 0.000000 0.000000 0.000000
# 4 0.000000 0.000000 0.000000 0.089921 0.000000 0.000000
# 5 0.000000 0.000000 0.000000 0.000000 0.027487 0.000000
# 6 0.000000 0.000000 0.000000 0.000000 0.000000 0.041091
#
#
# Mechanical properties :
#
#
# Convention : Reuss Voigt Hill
#
# Bulk Modulus (GPa) = 81.77625 86.18983 83.98304
# Shear Modulus (GPa) = 21.00577 25.07168 23.03873
#
# Velocity S-wave (km/s) = 3.42925 3.74646 3.59136
# Velocity P-wave (km/s) = 7.83969 8.18331 8.01334
#
# Compressibility (1/GPa) = 0.01222849
#
# Stress axis : x y z
#
# Youngs Moduli (GPa) = 80.09916 52.51580 81.20291
#
# Poissons Ratio (x) = 0.26779 0.30062
# Poissons Ratio (y) = 0.40845 0.56883
# Poissons Ratio (z) = 0.29653 0.36788
#
# Static dielectric constant tensor:
#      x y z
#    x 1.608080 0.000000 0.000000 
#    y 0.000000 1.647790 0.000000 
#    z 0.000000 0.000000 1.581730 
# 
# From -- ./inp_files/52287.got.cif
#   From: 2010.05.17/outbox.ucp.g08.bks.cvg/sg64_27_cif.got.tgz:52287.got - 2010.06.11 16:36:46.
