data_PCOD9482126
_publ_section_title
;
Structure prediction by ZEFSAII (Michael W. Deem and Ramdas Pophale) SiO2 
 PCOD9482126
Probable space group: C M C A
;
_chemical_formula_sum "Si O2"
_cell_formula_units_Z 48
_cell_length_a 25.336975
_cell_length_b 9.567029
_cell_length_c 8.553789
_cell_angle_alpha 90.000000
_cell_angle_beta 90.000000
_cell_angle_gamma 90.000000
_cell_volume 2073.434815
_symmetry_space_group_name_H-M "C M C A"
_symmetry_group_IT_number 64
_symmetry_cell_setting 'orthorhombic'
loop_
_space_group_symop_operation_xyz
x,y,z
-x,1/2-y,1/2+z
x,-y,-z
-x,1/2+y,1/2-z
-x,-y,-z
x,1/2+y,1/2-z
-x,y,z
x,1/2-y,1/2+z
1/2+x,1/2+y,z
1/2-x,-y,1/2+z
1/2+x,1/2-y,-z
1/2-x,y,1/2-z
1/2-x,1/2-y,-z
1/2+x,y,1/2-z
1/2-x,1/2+y,z
1/2+x,-y,1/2+z
loop_
_atom_site_type_symbol
_atom_site_label
_atom_site_fract_x
_atom_site_fract_y
_atom_site_fract_z
Si Si1 0.784465 0.858992 0.096914
Si Si2 0.061135 0.561217 0.791616
Si Si3 0.397083 0.784426 0.901446
O O1 0.750000 0.893984 0.250000
O O2 0.750000 0.750000 0.000000
O O3 0.839184 0.777923 0.124596
O O4 0.794276 0.000000 0.000000
O O5 0.065259 0.655451 0.638806
O O6 0.089590 0.649714 0.930022
O O7 0.000000 0.536613 0.829689
O O8 0.090869 0.413929 0.785838
#
# Coordination Sequence:
#
# PCOD9482126 Si02
#       3
#    16  16  16
#     4  12  29  49  77 110 149 197 250 312 378 446
#     4  11  24  46  73 106 149 193 242 303 365 440
#     4  11  26  44  72 106 144 189 246 297 369 438
#
# _framework density 23.149992000000001
#
# number of rings (size 3 to 8) (size 9 to 14) (size 15 to 20)
#    0.000    0.667    0.000    7.000   18.667    0.000 
#    0.000    3.333    0.000    0.000    0.000    0.000 
#    0.000    0.000    0.000    0.000    0.000    0.000 
#
# Total GULP energy -134391.059319 kJ/mol
# GULP energy per Si atom -5599.627472 kJ/mol
# Density = 2.309730 g / cm^3
# Si number density = 23.149992 Si / 1000 Ang^3
#
#
#
# Elastic Constant Matrix: (Units=GPa)
#
#
# Indices 1 2 3 4 5 6 
#
# 1 188.1489 93.5348 40.3695 0.0000 0.0000 0.0000
# 2 93.5348 205.9085 50.2875 0.0000 0.0000 0.0000
# 3 40.3695 50.2875 51.6604 0.0000 0.0000 0.0000
# 4 0.0000 0.0000 0.0000 56.3482 0.0000 0.0000
# 5 0.0000 0.0000 0.0000 0.0000 30.8734 0.0000
# 6 0.0000 0.0000 0.0000 0.0000 0.0000 -107.5819
#
#
#
# Elastic Compliance Matrix: (Units=1/GPa)
#
#
# Indices 1 2 3 4 5 6 
#
# 1 0.007254 -0.002507 -0.003228 0.000000 0.000000 0.000000
# 2 -0.002507 0.007237 -0.005086 0.000000 0.000000 0.000000
# 3 -0.003228 -0.005086 0.026831 0.000000 0.000000 0.000000
# 4 0.000000 0.000000 0.000000 0.017747 0.000000 0.000000
# 5 0.000000 0.000000 0.000000 0.000000 0.032390 0.000000
# 6 0.000000 0.000000 0.000000 0.000000 0.000000 -0.009295
#
#
# Mechanical properties :
#
#
# Convention : Reuss Voigt Hill
#
# Bulk Modulus (GPa) = 50.81387 90.45571 70.63479
# Shear Modulus (GPa) = 45.30371 13.36301 29.33336
#
# Velocity S-wave (km/s) = 4.42856 2.40518 3.56350
# Velocity P-wave (km/s) = 6.93880 6.84630 6.89270
#
# Compressibility (1/GPa) = 0.01967967
#
# Stress axis : x y z
#
# Youngs Moduli (GPa) = 137.86002 138.17249 37.27033
#
# Poissons Ratio (x) = 0.34634 0.12032
# Poissons Ratio (y) = 0.34556 0.18957
# Poissons Ratio (z) = 0.44506 0.70278
#
# Static dielectric constant tensor:
#      x y z
#    x 1.977500 0.000000 0.000000 
#    y 0.000000 1.818830 0.000000 
#    z 0.000000 0.000000 1.871500 
# 
# From -- ./inp_files/10793.got.cif
#   From: 2010.05.17/outbox.cif.g08.bks.cpg/sg64_6_cif.got.tgz:10793.got - 2010.06.03 16:29:19.
