data_PCOD9482691
_publ_section_title
;
Structure prediction by ZEFSAII (Michael W. Deem and Ramdas Pophale) SiO2 
 PCOD9482691
Probable space group: C M M M
;
_chemical_formula_sum "Si O2"
_cell_formula_units_Z 96
_cell_length_a 22.425340
_cell_length_b 26.439083
_cell_length_c 9.424913
_cell_angle_alpha 90.000000
_cell_angle_beta 90.000000
_cell_angle_gamma 90.000000
_cell_volume 5588.082053
_symmetry_space_group_name_H-M "C M M M"
_symmetry_group_IT_number 65
_symmetry_cell_setting 'orthorhombic'
loop_
_space_group_symop_operation_xyz
x,y,z
-x,-y,z
x,-y,-z
-x,y,-z
-x,-y,-z
x,y,-z
-x,y,z
x,-y,z
1/2+x,1/2+y,z
1/2-x,1/2-y,z
1/2+x,1/2-y,-z
1/2-x,1/2+y,-z
1/2-x,1/2-y,-z
1/2+x,1/2+y,-z
1/2-x,1/2+y,z
1/2+x,1/2-y,z
loop_
_atom_site_type_symbol
_atom_site_label
_atom_site_fract_x
_atom_site_fract_y
_atom_site_fract_z
Si Si1 0.234612 0.557598 0.670238
Si Si2 0.500000 0.939579 0.337303
Si Si3 0.250000 0.250000 0.245254
Si Si4 0.623909 0.788584 0.156892
Si Si5 0.067474 0.202228 0.671287
Si Si6 0.882279 0.591388 0.168106
Si Si7 0.315029 0.649751 0.664451
O O1 0.223966 0.564915 0.500000
O O2 0.256374 0.500000 0.688967
O O3 0.173471 0.565115 0.755415
O O4 0.280132 0.601150 0.722469
O O5 0.500000 0.919993 0.500000
O O6 0.557967 0.923179 0.250234
O O7 0.500000 0.000000 0.344810
O O8 0.308162 0.231242 0.162539
O O9 0.274140 0.299719 0.326756
O O10 0.586017 0.757030 0.269589
O O11 0.624986 0.848158 0.182528
O O12 0.598933 0.779208 0.000000
O O13 0.070080 0.203388 0.500000
O O14 0.120145 0.164940 0.724696
O O15 0.000000 0.189050 0.713031
O O16 0.885052 0.579249 0.000000
O O17 0.325106 0.637868 0.500000
#
# Coordination Sequence:
#
# PCOD9482691 Si02
#       7
#    16   8   8  16  16  16  16
#     4  10  20  35  55  79 106 137 174 217 263 312
#     4  11  25  43  59  75  97 135 185 227 262 305
#     4  10  16  32  52  74 103 138 165 210 253 314
#     4  10  21  33  50  76 107 137 167 208 256 310
#     4   9  19  34  52  75 103 138 177 214 255 309
#     4  11  23  38  55  78 106 138 175 218 265 311
#     4   9  17  30  51  78 105 135 172 216 262 310
#
# _framework density 17.179418999999999
#
# number of rings (size 3 to 8) (size 9 to 14) (size 15 to 20)
#    0.000    2.083    1.667    1.750    1.167    5.333 
#    0.000    0.000    0.000    0.500    0.000    3.500 
#    0.000    0.000    0.000    5.833    0.000    5.833 
#
# Total GULP energy -267476.445592 kJ/mol
# GULP energy per Si atom -5572.425950 kJ/mol
# Density = 1.714032 g / cm^3
# Si number density = 17.179419 Si / 1000 Ang^3
#
#
#
# Elastic Constant Matrix: (Units=GPa)
#
#
# Indices 1 2 3 4 5 6 
#
# 1 116.0452 50.7940 30.9471 0.0000 0.0000 0.0000
# 2 50.7940 95.9410 33.6577 0.0000 0.0000 0.0000
# 3 30.9471 33.6577 52.0949 0.0000 0.0000 0.0000
# 4 0.0000 0.0000 0.0000 12.0309 0.0000 0.0000
# 5 0.0000 0.0000 0.0000 0.0000 10.9146 0.0000
# 6 0.0000 0.0000 0.0000 0.0000 0.0000 16.8028
#
#
#
# Elastic Compliance Matrix: (Units=1/GPa)
#
#
# Indices 1 2 3 4 5 6 
#
# 1 0.011782 -0.004891 -0.003839 0.000000 0.000000 0.000000
# 2 -0.004891 0.015508 -0.007114 0.000000 0.000000 0.000000
# 3 -0.003839 -0.007114 0.026073 0.000000 0.000000 0.000000
# 4 0.000000 0.000000 0.000000 0.083120 0.000000 0.000000
# 5 0.000000 0.000000 0.000000 0.000000 0.091621 0.000000
# 6 0.000000 0.000000 0.000000 0.000000 0.000000 0.059514
#
#
# Mechanical properties :
#
#
# Convention : Reuss Voigt Hill
#
# Bulk Modulus (GPa) = 46.13722 54.98651 50.56186
# Shear Modulus (GPa) = 15.31252 17.86181 16.58716
#
# Velocity S-wave (km/s) = 2.98875 3.22797 3.11066
# Velocity P-wave (km/s) = 6.23094 6.78010 6.51131
#
# Compressibility (1/GPa) = 0.02167448
#
# Stress axis : x y z
#
# Youngs Moduli (GPa) = 84.87567 64.48199 38.35420
#
# Poissons Ratio (x) = 0.31537 0.14725
# Poissons Ratio (y) = 0.41511 0.27286
# Poissons Ratio (z) = 0.32585 0.45874
#
# Static dielectric constant tensor:
#      x y z
#    x 1.586940 0.000000 0.000000 
#    y 0.000000 1.588660 0.000000 
#    z 0.000000 0.000000 1.591530 
# 
# From -- ./inp_files/14668.got.cif
#   From: 2010.05.17/outbox.cif.g08.bks.cpg/sg65_8_cif.got.tgz:14668.got - 2010.06.03 17:01:31.
