data_PCOD9482122
_publ_section_title
;
Structure prediction by ZEFSAII (Michael W. Deem and Ramdas Pophale) SiO2 
 PCOD9482122
Probable space group: C M C A
;
_chemical_formula_sum "Si O2"
_cell_formula_units_Z 96
_cell_length_a 22.552452
_cell_length_b 14.356293
_cell_length_c 14.256756
_cell_angle_alpha 90.000000
_cell_angle_beta 90.000000
_cell_angle_gamma 90.000000
_cell_volume 4615.904313
_symmetry_space_group_name_H-M "C M C A"
_symmetry_group_IT_number 64
_symmetry_cell_setting 'orthorhombic'
loop_
_space_group_symop_operation_xyz
x,y,z
-x,1/2-y,1/2+z
x,-y,-z
-x,1/2+y,1/2-z
-x,-y,-z
x,1/2+y,1/2-z
-x,y,z
x,1/2-y,1/2+z
1/2+x,1/2+y,z
1/2-x,-y,1/2+z
1/2+x,1/2-y,-z
1/2-x,y,1/2-z
1/2-x,1/2-y,-z
1/2+x,y,1/2-z
1/2-x,1/2+y,z
1/2+x,-y,1/2+z
loop_
_atom_site_type_symbol
_atom_site_label
_atom_site_fract_x
_atom_site_fract_y
_atom_site_fract_z
Si Si1 0.378399 0.499402 0.233037
Si Si2 0.500000 0.517900 0.342902
Si Si3 0.679003 0.409724 0.937142
Si Si4 0.190429 0.874483 0.632816
Si Si5 0.131346 0.717711 0.963307
Si Si6 0.319682 0.188149 0.753126
Si Si7 0.000000 0.655282 0.986960
O O1 0.442376 0.511384 0.278240
O O2 0.368522 0.561496 0.141385
O O3 0.333038 0.536218 0.312449
O O4 0.359657 0.394131 0.211249
O O5 0.500000 0.430492 0.413760
O O6 0.500000 0.609397 0.409090
O O7 0.740042 0.382457 0.886033
O O8 0.656148 0.319101 0.991360
O O9 0.690265 0.500000 0.000000
O O10 0.157815 0.858597 0.534142
O O11 0.176013 0.784517 0.696415
O O12 0.156536 0.701161 0.859022
O O13 0.060547 0.711159 0.969451
O O14 0.250000 0.161695 0.750000
#
# Coordination Sequence:
#
# PCOD9482122 Si02
#       7
#    16   8  16  16  16  16   8
#     4  12  25  44  71 106 142 189 243 304 362 438
#     4  11  24  45  72 101 141 188 249 303 360 448
#     4  12  27  46  70 107 151 191 237 297 379 448
#     4  12  25  46  70 109 148 187 239 300 368 436
#     4  12  25  44  75 105 143 192 244 302 364 432
#     4  12  24  43  69 108 147 183 236 300 364 438
#     4  11  24  47  70 105 141 186 252 298 363 443
#
# _framework density 20.797657999999998
#
# number of rings (size 3 to 8) (size 9 to 14) (size 15 to 20)
#    0.000    0.167    6.667    3.000    4.667    0.667 
#    0.000    5.833    0.000    0.000    0.000    0.000 
#    0.000    0.000    0.000    0.000    0.000    0.000 
#
# Total GULP energy -268732.280759 kJ/mol
# GULP energy per Si atom -5598.589182 kJ/mol
# Density = 2.075032 g / cm^3
# Si number density = 20.797658 Si / 1000 Ang^3
#
#
#
# Elastic Constant Matrix: (Units=GPa)
#
#
# Indices 1 2 3 4 5 6 
#
# 1 140.2952 19.8162 23.3126 0.0000 0.0000 0.0000
# 2 19.8162 81.0479 12.0753 0.0000 0.0000 0.0000
# 3 23.3126 12.0753 81.5630 0.0000 0.0000 0.0000
# 4 0.0000 0.0000 0.0000 34.7694 0.0000 0.0000
# 5 0.0000 0.0000 0.0000 0.0000 48.6894 0.0000
# 6 0.0000 0.0000 0.0000 0.0000 0.0000 3.0349
#
#
#
# Elastic Compliance Matrix: (Units=1/GPa)
#
#
# Indices 1 2 3 4 5 6 
#
# 1 0.007677 -0.001585 -0.001960 0.000000 0.000000 0.000000
# 2 -0.001585 0.012944 -0.001463 0.000000 0.000000 0.000000
# 3 -0.001960 -0.001463 0.013037 0.000000 0.000000 0.000000
# 4 0.000000 0.000000 0.000000 0.028761 0.000000 0.000000
# 5 0.000000 0.000000 0.000000 0.000000 0.020538 0.000000
# 6 0.000000 0.000000 0.000000 0.000000 0.000000 0.329503
#
#
# Mechanical properties :
#
#
# Convention : Reuss Voigt Hill
#
# Bulk Modulus (GPa) = 42.29698 45.92381 44.11039
# Shear Modulus (GPa) = 11.61825 33.81221 22.71523
#
# Velocity S-wave (km/s) = 2.36611 4.03646 3.30843
# Velocity P-wave (km/s) = 5.27694 6.62217 5.98746
#
# Compressibility (1/GPa) = 0.02364235
#
# Stress axis : x y z
#
# Youngs Moduli (GPa) = 130.25314 77.25613 76.70342
#
# Poissons Ratio (x) = 0.12246 0.15031
# Poissons Ratio (y) = 0.20647 0.11224
# Poissons Ratio (z) = 0.25526 0.11305
#
# Static dielectric constant tensor:
#      x y z
#    x 1.697180 0.000000 0.000000 
#    y 0.000000 1.746510 0.000000 
#    z 0.000000 0.000000 1.752820 
# 
# From -- ./inp_files/26385.got.cif
#   From: 2010.05.17/outbox.cif.g08.bks.cpg/sg64_14_cif.got.tgz:26385.got - 2010.06.03 16:29:19.
