data_PCOD9482864
_publ_section_title
;
Structure prediction by ZEFSAII (Michael W. Deem and Ramdas Pophale) SiO2 
 PCOD9482864
Probable space group: C M M M
;
_chemical_formula_sum "Si O2"
_cell_formula_units_Z 56
_cell_length_a 11.248023
_cell_length_b 14.627382
_cell_length_c 17.508036
_cell_angle_alpha 90.000000
_cell_angle_beta 90.000000
_cell_angle_gamma 90.000000
_cell_volume 2880.581916
_symmetry_space_group_name_H-M "C M M M"
_symmetry_group_IT_number 65
_symmetry_cell_setting 'orthorhombic'
loop_
_space_group_symop_operation_xyz
x,y,z
-x,-y,z
x,-y,-z
-x,y,-z
-x,-y,-z
x,y,-z
-x,y,z
x,-y,z
1/2+x,1/2+y,z
1/2-x,1/2-y,z
1/2+x,1/2-y,-z
1/2-x,1/2+y,-z
1/2-x,1/2-y,-z
1/2+x,1/2+y,-z
1/2-x,1/2+y,z
1/2+x,1/2-y,z
loop_
_atom_site_type_symbol
_atom_site_label
_atom_site_fract_x
_atom_site_fract_y
_atom_site_fract_z
Si Si1 0.856953 0.105212 0.587050
Si Si2 0.630330 0.638622 0.910550
Si Si3 0.250000 0.750000 0.297321
Si Si4 0.129900 0.661175 0.843379
O O1 0.820415 0.128844 0.500000
O O2 0.805431 0.173087 0.649127
O O3 0.000000 0.108932 0.589409
O O4 0.821637 0.000000 0.601443
O O5 0.500000 0.605633 0.883127
O O6 0.750279 0.608532 0.867614
O O7 0.626294 0.748565 0.897471
O O8 0.640178 0.618094 0.000000
O O9 0.155032 0.703095 0.240331
O O10 0.000000 0.616749 0.847655
#
# Coordination Sequence:
#
# PCOD9482864 Si02
#       4
#    16  16   8  16
#     4   9  18  32  50  72  95 122 162 207 247 293
#     4   8  13  21  33  52  83 120 156 197 238 275
#     4  10  17  28  47  68  96 128 158 198 247 294
#     4   9  16  23  35  59  89 122 158 192 234 290
#
# _framework density 19.440515999999999
#
# number of rings (size 3 to 8) (size 9 to 14) (size 15 to 20)
#    0.000    3.429    0.000    3.857    0.000    2.857 
#    0.000    0.000    0.000    3.429    0.000   10.000 
#    0.000   73.143    0.000  438.857    0.000   34.286 
#
# Total GULP energy -155905.749274 kJ/mol
# GULP energy per Si atom -5568.062474 kJ/mol
# Density = 1.939627 g / cm^3
# Si number density = 19.440516 Si / 1000 Ang^3
#
#
#
# Elastic Constant Matrix: (Units=GPa)
#
#
# Indices 1 2 3 4 5 6 
#
# 1 185.8183 28.4453 54.8739 0.0000 0.0000 0.0000
# 2 28.4453 60.7883 39.7105 0.0000 0.0000 0.0000
# 3 54.8739 39.7105 104.7604 0.0000 0.0000 0.0000
# 4 0.0000 0.0000 0.0000 -29.3021 0.0000 0.0000
# 5 0.0000 0.0000 0.0000 0.0000 -46.3773 0.0000
# 6 0.0000 0.0000 0.0000 0.0000 0.0000 -2.9032
#
#
#
# Elastic Compliance Matrix: (Units=1/GPa)
#
#
# Indices 1 2 3 4 5 6 
#
# 1 0.006419 -0.001073 -0.002955 0.000000 0.000000 0.000000
# 2 -0.001073 0.022044 -0.007794 0.000000 0.000000 0.000000
# 3 -0.002955 -0.007794 0.014048 0.000000 0.000000 0.000000
# 4 0.000000 0.000000 0.000000 -0.034127 0.000000 0.000000
# 5 0.000000 0.000000 0.000000 0.000000 -0.021562 0.000000
# 6 0.000000 0.000000 0.000000 0.000000 0.000000 -0.344445
#
#
# Mechanical properties :
#
#
# Convention : Reuss Voigt Hill
#
# Bulk Modulus (GPa) = 53.00518 66.38071 59.69294
# Shear Modulus (GPa) = -15.25831 -0.49404 -7.87618
#
# Velocity S-wave (km/s) = -2.80460 -0.50466 -2.01500
# Velocity P-wave (km/s) = 4.10327 5.82066 5.03572
#
# Compressibility (1/GPa) = 0.01886608
#
# Stress axis : x y z
#
# Youngs Moduli (GPa) = 155.79726 45.36359 71.18422
#
# Poissons Ratio (x) = 0.04867 0.21038
# Poissons Ratio (y) = 0.16715 0.55481
# Poissons Ratio (z) = 0.46044 0.35357
#
# Static dielectric constant tensor:
#      x y z
#    x 1.739680 0.000000 0.000000 
#    y 0.000000 1.674350 0.000000 
#    z 0.000000 0.000000 1.660690 
# 
# From -- ./inp_files/37623.got.cif
#   From: 2010.05.17/outbox.cif.g08.bks.cpg/sg65_19_cif.got.tgz:37623.got - 2010.06.03 17:01:31.
