data_PCOD9482063
_publ_section_title
;
Structure prediction by ZEFSAII (Michael W. Deem and Ramdas Pophale) SiO2 
 PCOD9482063
Probable space group: C M C A
;
_chemical_formula_sum "Si O2"
_cell_formula_units_Z 104
_cell_length_a 25.615546
_cell_length_b 9.142194
_cell_length_c 20.275237
_cell_angle_alpha 90.000000
_cell_angle_beta 90.000000
_cell_angle_gamma 90.000000
_cell_volume 4748.101450
_symmetry_space_group_name_H-M "C M C A"
_symmetry_group_IT_number 64
_symmetry_cell_setting 'orthorhombic'
loop_
_space_group_symop_operation_xyz
x,y,z
-x,1/2-y,1/2+z
x,-y,-z
-x,1/2+y,1/2-z
-x,-y,-z
x,1/2+y,1/2-z
-x,y,z
x,1/2-y,1/2+z
1/2+x,1/2+y,z
1/2-x,-y,1/2+z
1/2+x,1/2-y,-z
1/2-x,y,1/2-z
1/2-x,1/2-y,-z
1/2+x,y,1/2-z
1/2-x,1/2+y,z
1/2+x,-y,1/2+z
loop_
_atom_site_type_symbol
_atom_site_label
_atom_site_fract_x
_atom_site_fract_y
_atom_site_fract_z
Si Si1 0.376332 0.250509 0.261253
Si Si2 0.684312 0.651923 0.856644
Si Si3 0.837075 0.384570 0.054357
Si Si4 0.089909 0.999274 0.661422
Si Si5 0.718115 0.167076 0.359416
Si Si6 0.899743 0.334668 0.471870
Si Si7 0.000000 0.677112 0.087332
O O1 0.352027 0.360739 0.207371
O O2 0.400485 0.120595 0.218315
O O3 0.417557 0.343052 0.304100
O O4 0.328712 0.201429 0.308221
O O5 0.716250 0.504699 0.869803
O O6 0.725295 0.778126 0.838896
O O7 0.646799 0.677208 0.918405
O O8 0.858751 0.475083 0.116631
O O9 0.795720 0.263538 0.076562
O O10 0.819017 0.500000 0.000000
O O11 0.885237 0.287491 0.026456
O O12 0.045267 0.937060 0.614942
O O13 0.900511 0.500000 0.500000
O O14 0.953752 0.288605 0.438694
#
# Coordination Sequence:
#
# PCOD9482063 Si02
#       7
#    16  16  16  16  16  16   8
#     4  11  23  47  68 100 147 181 234 298 363 437
#     4  12  25  44  69 106 146 191 239 301 358 447
#     4  11  23  46  70 100 147 184 234 297 363 435
#     4  11  25  43  75 103 136 188 235 304 356 428
#     4  11  27  40  72 105 140 193 240 284 376 435
#     4  12  26  47  72 103 149 192 247 308 363 426
#     4  12  25  47  76 104 136 192 247 294 364 422
#
# _framework density 21.903490000000001
#
# number of rings (size 3 to 8) (size 9 to 14) (size 15 to 20)
#    0.000    0.615    6.154    0.692    6.462    4.308 
#    0.000    0.000    0.000    0.000    0.000    0.000 
#    0.000    0.000    0.000    0.000    0.000    0.000 
#
# Total GULP energy -289680.615072 kJ/mol
# GULP energy per Si atom -5570.781059 kJ/mol
# Density = 2.185364 g / cm^3
# Si number density = 21.903490 Si / 1000 Ang^3
#
#
#
# Elastic Constant Matrix: (Units=GPa)
#
#
# Indices 1 2 3 4 5 6 
#
# 1 37.6992 18.6410 -23.4681 0.0000 0.0000 0.0000
# 2 18.6410 115.3604 21.5120 0.0000 0.0000 0.0000
# 3 -23.4681 21.5120 30.2332 0.0000 0.0000 0.0000
# 4 0.0000 0.0000 0.0000 44.6483 0.0000 0.0000
# 5 0.0000 0.0000 0.0000 0.0000 7.0362 0.0000
# 6 0.0000 0.0000 0.0000 0.0000 0.0000 32.5411
#
#
#
# Elastic Compliance Matrix: (Units=1/GPa)
#
#
# Indices 1 2 3 4 5 6 
#
# 1 0.142847 -0.050454 0.146783 0.000000 0.000000 0.000000
# 2 -0.050454 0.027815 -0.058956 0.000000 0.000000 0.000000
# 3 0.146783 -0.058956 0.188963 0.000000 0.000000 0.000000
# 4 0.000000 0.000000 0.000000 0.022397 0.000000 0.000000
# 5 0.000000 0.000000 0.000000 0.000000 0.142122 0.000000
# 6 0.000000 0.000000 0.000000 0.000000 0.000000 0.030730
#
#
# Mechanical properties :
#
#
# Convention : Reuss Voigt Hill
#
# Bulk Modulus (GPa) = 2.30217 24.07361 13.18789
# Shear Modulus (GPa) = 8.00104 27.95232 17.97668
#
# Velocity S-wave (km/s) = 1.91332 3.57621 2.86793
# Velocity P-wave (km/s) = 2.43606 5.29783 4.12319
#
# Compressibility (1/GPa) = 0.43437190
#
# Stress axis : x y z
#
# Youngs Moduli (GPa) = 7.00049 35.95165 5.29203
#
# Poissons Ratio (x) = 1.81391 -0.77678
# Poissons Ratio (y) = 0.35320 0.31200
# Poissons Ratio (z) = -1.02755 2.11955
#
# Static dielectric constant tensor:
#      x y z
#    x 1.766040 0.000000 0.000000 
#    y 0.000000 1.818560 0.000000 
#    z 0.000000 0.000000 1.862240 
# 
# From -- ./inp_files/41871.got.cif
#   From: 2010.05.17/outbox.cif.g08.bks.cpg/sg64_21_cif.got.tgz:41871.got - 2010.06.03 16:29:19.
