data_PCOD9482582
_publ_section_title
;
Structure prediction by ZEFSAII (Michael W. Deem and Ramdas Pophale) SiO2 
 PCOD9482582
Probable space group: C M M M
;
_chemical_formula_sum "Si O2"
_cell_formula_units_Z 88
_cell_length_a 8.830455
_cell_length_b 20.020205
_cell_length_c 29.212864
_cell_angle_alpha 90.000000
_cell_angle_beta 90.000000
_cell_angle_gamma 90.000000
_cell_volume 5164.469759
_symmetry_space_group_name_H-M "C M M M"
_symmetry_group_IT_number 65
_symmetry_cell_setting 'orthorhombic'
loop_
_space_group_symop_operation_xyz
x,y,z
-x,-y,z
x,-y,-z
-x,y,-z
-x,-y,-z
x,y,-z
-x,y,z
x,-y,z
1/2+x,1/2+y,z
1/2-x,1/2-y,z
1/2+x,1/2-y,-z
1/2-x,1/2+y,-z
1/2-x,1/2-y,-z
1/2+x,1/2+y,-z
1/2-x,1/2+y,z
1/2+x,1/2-y,z
loop_
_atom_site_type_symbol
_atom_site_label
_atom_site_fract_x
_atom_site_fract_y
_atom_site_fract_z
Si Si1 0.819233 0.824325 0.305871
Si Si2 0.180978 0.822963 0.947626
Si Si3 0.817868 0.422217 0.126109
Si Si4 0.318824 0.174382 0.500000
Si Si5 0.682538 0.077659 0.230982
Si Si6 0.818673 0.175286 0.592077
O O1 0.750000 0.750000 0.301614
O O2 0.755432 0.872966 0.267336
O O3 0.785709 0.852130 0.357194
O O4 0.000000 0.818599 0.302170
O O5 0.250000 0.750000 0.938656
O O6 0.242201 0.875184 0.911016
O O7 0.000000 0.819050 0.945048
O O8 0.222923 0.841699 0.000000
O O9 0.779316 0.500000 0.118435
O O10 0.774590 0.405400 0.178527
O O11 0.000000 0.416227 0.123007
O O12 0.250000 0.250000 0.500000
O O13 0.257036 0.143050 0.452768
O O14 0.000000 0.322336 0.500000
O O15 0.500000 0.082002 0.233900
O O16 0.724116 0.000000 0.239106
O O17 0.750000 0.250000 0.594175
O O18 0.000000 0.178505 0.585730
#
# Coordination Sequence:
#
# PCOD9482582 Si02
#       6
#    16  16  16   8  16  16
#     4  10  20  32  49  73 100 131 166 205 248 295
#     4  10  21  36  54  77 105 136 169 205 246 292
#     4   9  19  36  56  77 101 131 167 205 247 295
#     4  10  16  22  36  58  85 120 157 192 237 289
#     4   9  19  36  55  74  99 131 166 205 248 295
#     4   9  16  26  39  59  89 122 156 195 239 286
#
# _framework density 17.039501999999999
#
# number of rings (size 3 to 8) (size 9 to 14) (size 15 to 20)
#    0.000    2.545    0.000    4.636    0.000    5.818 
#    0.000    3.636    0.000    0.000    0.000    0.636 
#    0.000    5.091    0.000    0.000    0.000    0.000 
#
# Total GULP energy -245232.859991 kJ/mol
# GULP energy per Si atom -5573.474091 kJ/mol
# Density = 1.700072 g / cm^3
# Si number density = 17.039502 Si / 1000 Ang^3
#
#
#
# Elastic Constant Matrix: (Units=GPa)
#
#
# Indices 1 2 3 4 5 6 
#
# 1 69.2156 42.0611 75.4304 0.0000 0.0000 0.0000
# 2 42.0611 66.1764 99.2297 0.0000 0.0000 0.0000
# 3 75.4304 99.2297 194.4196 0.0000 0.0000 0.0000
# 4 0.0000 0.0000 0.0000 -22.8338 0.0000 0.0000
# 5 0.0000 0.0000 0.0000 0.0000 31.7795 0.0000
# 6 0.0000 0.0000 0.0000 0.0000 0.0000 26.2005
#
#
#
# Elastic Compliance Matrix: (Units=1/GPa)
#
#
# Indices 1 2 3 4 5 6 
#
# 1 0.025554 -0.005861 -0.006923 0.000000 0.000000 0.000000
# 2 -0.005861 0.065733 -0.031276 0.000000 0.000000 0.000000
# 3 -0.006923 -0.031276 0.023792 0.000000 0.000000 0.000000
# 4 0.000000 0.000000 0.000000 -0.043795 0.000000 0.000000
# 5 0.000000 0.000000 0.000000 0.000000 0.031467 0.000000
# 6 0.000000 0.000000 0.000000 0.000000 0.000000 0.038167
#
#
# Mechanical properties :
#
#
# Convention : Reuss Voigt Hill
#
# Bulk Modulus (GPa) = 37.09181 84.80600 60.94891
# Shear Modulus (GPa) = 21.00624 14.56859 17.78742
#
# Velocity S-wave (km/s) = 3.51493 2.92719 3.23444
# Velocity P-wave (km/s) = 6.18776 7.82962 7.05660
#
# Compressibility (1/GPa) = 0.02696013
#
# Stress axis : x y z
#
# Youngs Moduli (GPa) = 39.13324 15.21297 42.03060
#
# Poissons Ratio (x) = 0.08916 0.29097
# Poissons Ratio (y) = 0.22936 1.31453
# Poissons Ratio (z) = 0.27091 0.47580
#
# Static dielectric constant tensor:
#      x y z
#    x 1.567700 0.000000 0.000000 
#    y 0.000000 1.538560 0.000000 
#    z 0.000000 0.000000 1.617110 
# 
# From -- ./inp_files/67538.got.cif
#   From: 2010.05.17/outbox.cif.g08.bks.cpg/sg65_34_cif.got.tgz:67538.got - 2010.06.03 17:01:31.
