data_PCOD9482134
_publ_section_title
;
Structure prediction by ZEFSAII (Michael W. Deem and Ramdas Pophale) SiO2 
 PCOD9482134
Probable space group: C M C A
;
_chemical_formula_sum "Si O2"
_cell_formula_units_Z 40
_cell_length_a 9.656831
_cell_length_b 10.583807
_cell_length_c 14.201428
_cell_angle_alpha 90.000000
_cell_angle_beta 90.000000
_cell_angle_gamma 90.000000
_cell_volume 1451.471655
_symmetry_space_group_name_H-M "C M C A"
_symmetry_group_IT_number 64
_symmetry_cell_setting 'orthorhombic'
loop_
_space_group_symop_operation_xyz
x,y,z
-x,1/2-y,1/2+z
x,-y,-z
-x,1/2+y,1/2-z
-x,-y,-z
x,1/2+y,1/2-z
-x,y,z
x,1/2-y,1/2+z
1/2+x,1/2+y,z
1/2-x,-y,1/2+z
1/2+x,1/2-y,-z
1/2-x,y,1/2-z
1/2-x,1/2-y,-z
1/2+x,y,1/2-z
1/2-x,1/2+y,z
1/2+x,-y,1/2+z
loop_
_atom_site_type_symbol
_atom_site_label
_atom_site_fract_x
_atom_site_fract_y
_atom_site_fract_z
Si Si1 0.500000 0.014456 0.888810
Si Si2 0.227099 0.722544 0.861112
Si Si3 0.500000 0.087304 0.310436
Si Si4 0.500000 0.127578 0.565540
O O1 0.635929 0.098804 0.876030
O O2 0.500000 0.909390 0.804179
O O3 0.500000 0.000000 0.000000
O O4 0.250000 0.718637 0.750000
O O5 0.130304 0.846926 0.862114
O O6 0.360832 0.711908 0.928997
O O7 0.500000 0.939828 0.332124
O O8 0.500000 0.000000 0.500000
#
# Coordination Sequence:
#
# PCOD9482134 Si02
#       4
#     8  16   8   8
#     4  11  24  50  78 110 154 203 261 321 382 464
#     4  11  24  49  72 110 147 198 259 299 389 477
#     4  11  26  47  76 101 153 205 238 326 390 438
#     4  12  26  49  77 113 155 194 255 323 378 464
#
# _framework density 27.558236999999998
#
# number of rings (size 3 to 8) (size 9 to 14) (size 15 to 20)
#    0.000    0.800    4.000    2.400    5.600    1.600 
#   14.400    0.000    0.000    0.000    0.000    0.000 
#    0.000    0.000    0.000    0.000    0.000    0.000 
#
# Total GULP energy -111835.433283 kJ/mol
# GULP energy per Si atom -5591.771664 kJ/mol
# Density = 2.749551 g / cm^3
# Si number density = 27.558237 Si / 1000 Ang^3
#
#
#
# Elastic Constant Matrix: (Units=GPa)
#
#
# Indices 1 2 3 4 5 6 
#
# 1 198.2313 69.5052 43.4584 0.0000 0.0000 0.0000
# 2 69.5052 102.9110 51.3777 0.0000 0.0000 0.0000
# 3 43.4584 51.3777 145.1245 0.0000 0.0000 0.0000
# 4 0.0000 0.0000 0.0000 62.0302 0.0000 0.0000
# 5 0.0000 0.0000 0.0000 0.0000 36.0653 0.0000
# 6 0.0000 0.0000 0.0000 0.0000 0.0000 43.1522
#
#
#
# Elastic Compliance Matrix: (Units=1/GPa)
#
#
# Indices 1 2 3 4 5 6 
#
# 1 0.006638 -0.004240 -0.000487 0.000000 0.000000 0.000000
# 2 -0.004240 0.014512 -0.003868 0.000000 0.000000 0.000000
# 3 -0.000487 -0.003868 0.008406 0.000000 0.000000 0.000000
# 4 0.000000 0.000000 0.000000 0.016121 0.000000 0.000000
# 5 0.000000 0.000000 0.000000 0.000000 0.027727 0.000000
# 6 0.000000 0.000000 0.000000 0.000000 0.000000 0.023174
#
#
# Mechanical properties :
#
#
# Convention : Reuss Voigt Hill
#
# Bulk Modulus (GPa) = 80.86579 86.10550 83.48565
# Shear Modulus (GPa) = 42.41247 47.04457 44.72852
#
# Velocity S-wave (km/s) = 3.92728 4.13618 4.03309
# Velocity P-wave (km/s) = 7.06909 7.35686 7.21441
#
# Compressibility (1/GPa) = 0.01236617
#
# Stress axis : x y z
#
# Youngs Moduli (GPa) = 150.64593 68.90836 118.96751
#
# Poissons Ratio (x) = 0.29220 0.05789
# Poissons Ratio (y) = 0.63879 0.46014
# Poissons Ratio (z) = 0.07331 0.26652
#
# Static dielectric constant tensor:
#      x y z
#    x 2.352770 0.000000 0.000000 
#    y 0.000000 2.153700 0.000000 
#    z 0.000000 0.000000 2.297220 
# 
# From -- ./inp_files/21492.got.cif
#   From: 2010.05.17/outbox.cif.g08.bks.cpg/sg64_11_cif.got.tgz:21492.got - 2010.06.03 16:29:19.
