data_PCOD9482916
_publ_section_title
;
Structure prediction by ZEFSAII (Michael W. Deem and Ramdas Pophale) SiO2 
 PCOD9482916
Probable space group: C M M M
;
_chemical_formula_sum "Si O2"
_cell_formula_units_Z 104
_cell_length_a 17.751149
_cell_length_b 27.025848
_cell_length_c 12.697317
_cell_angle_alpha 90.000000
_cell_angle_beta 90.000000
_cell_angle_gamma 90.000000
_cell_volume 6091.409013
_symmetry_space_group_name_H-M "C M M M"
_symmetry_group_IT_number 65
_symmetry_cell_setting 'orthorhombic'
loop_
_space_group_symop_operation_xyz
x,y,z
-x,-y,z
x,-y,-z
-x,y,-z
-x,-y,-z
x,y,-z
-x,y,z
x,-y,z
1/2+x,1/2+y,z
1/2-x,1/2-y,z
1/2+x,1/2-y,-z
1/2-x,1/2+y,-z
1/2-x,1/2-y,-z
1/2+x,1/2+y,-z
1/2-x,1/2+y,z
1/2+x,1/2-y,z
loop_
_atom_site_type_symbol
_atom_site_label
_atom_site_fract_x
_atom_site_fract_y
_atom_site_fract_z
Si Si1 0.743089 0.308833 0.500000
Si Si2 0.694877 0.055940 0.694675
Si Si3 0.357088 0.810982 0.122979
Si Si4 0.917340 0.786418 0.500000
Si Si5 0.585983 0.277249 0.267754
Si Si6 0.586925 0.059857 0.500000
Si Si7 0.770103 0.154442 0.277284
Si Si8 0.915508 0.420403 0.122235
O O1 0.750000 0.250000 0.500000
O O2 0.653777 0.322542 0.500000
O O3 0.768745 0.326754 0.386262
O O4 0.636958 0.072788 0.602318
O O5 0.761265 0.095490 0.712122
O O6 0.645416 0.056899 0.800563
O O7 0.719768 0.000000 0.670948
O O8 0.392029 0.765513 0.186882
O O9 0.279452 0.825767 0.180354
O O10 0.407080 0.860778 0.130175
O O11 0.347023 0.799088 0.000000
O O12 0.911391 0.757842 0.610536
O O13 0.000000 0.810379 0.500000
O O14 0.500000 0.293532 0.248619
O O15 0.647883 0.320944 0.265336
O O16 0.500000 0.078572 0.500000
O O17 0.581646 0.000000 0.500000
O O18 0.000000 0.435135 0.152527
O O19 0.903225 0.433403 0.000000
#
# Coordination Sequence:
#
# PCOD9482916 Si02
#       8
#     8  16  16   8  16   8  16  16
#     4  10  17  29  50  73  95 122 158 194 233 282
#     4  10  20  33  49  69  96 131 167 203 244 287
#     4  10  20  33  49  72 103 134 160 191 241 304
#     4   8  16  29  44  66  92 117 150 191 230 267
#     4  10  19  32  51  72  96 127 162 202 247 295
#     4   9  17  30  49  73  99 125 156 196 242 293
#     4  10  20  33  50  72  98 130 167 206 245 290
#     4   9  18  32  49  70  96 125 159 198 238 285
#
# _framework density 17.073224
#
# number of rings (size 3 to 8) (size 9 to 14) (size 15 to 20)
#    0.000    2.385    0.000    3.692    0.000    3.385 
#    0.000    1.538    0.000    7.846    0.000    0.000 
#    0.000    8.000    0.000    9.077    0.000    0.000 
#
# Total GULP energy -289571.827012 kJ/mol
# GULP energy per Si atom -5568.688981 kJ/mol
# Density = 1.703437 g / cm^3
# Si number density = 17.073224 Si / 1000 Ang^3
#
#
#
# Elastic Constant Matrix: (Units=GPa)
#
#
# Indices 1 2 3 4 5 6 
#
# 1 84.3651 40.1633 20.9489 0.0000 0.0000 0.0000
# 2 40.1633 88.2355 31.6054 0.0000 0.0000 0.0000
# 3 20.9489 31.6054 92.1478 0.0000 0.0000 0.0000
# 4 0.0000 0.0000 0.0000 18.9768 0.0000 0.0000
# 5 0.0000 0.0000 0.0000 0.0000 17.9498 0.0000
# 6 0.0000 0.0000 0.0000 0.0000 0.0000 2.9524
#
#
#
# Elastic Compliance Matrix: (Units=1/GPa)
#
#
# Indices 1 2 3 4 5 6 
#
# 1 0.015255 -0.006500 -0.001239 0.000000 0.000000 0.000000
# 2 -0.006500 0.015690 -0.003904 0.000000 0.000000 0.000000
# 3 -0.001239 -0.003904 0.012473 0.000000 0.000000 0.000000
# 4 0.000000 0.000000 0.000000 0.052696 0.000000 0.000000
# 5 0.000000 0.000000 0.000000 0.000000 0.055711 0.000000
# 6 0.000000 0.000000 0.000000 0.000000 0.000000 0.338710
#
#
# Mechanical properties :
#
#
# Convention : Reuss Voigt Hill
#
# Bulk Modulus (GPa) = 49.66980 50.02040 49.84510
# Shear Modulus (GPa) = 9.60555 19.44452 14.52504
#
# Velocity S-wave (km/s) = 2.37451 3.37841 2.91993
# Velocity P-wave (km/s) = 6.05583 6.67678 6.37387
#
# Compressibility (1/GPa) = 0.02013296
#
# Stress axis : x y z
#
# Youngs Moduli (GPa) = 65.55067 63.73299 80.17523
#
# Poissons Ratio (x) = 0.41428 0.09931
# Poissons Ratio (y) = 0.42610 0.31299
# Poissons Ratio (z) = 0.08119 0.24880
#
# Static dielectric constant tensor:
#      x y z
#    x 1.600200 0.000000 0.000000 
#    y 0.000000 1.591760 0.000000 
#    z 0.000000 0.000000 1.611300 
# 
# From -- ./inp_files/27778.got.cif
#   From: 2010.05.17/outbox.cif.g08.bks.cpg/sg65_14_cif.got.tgz:27778.got - 2010.06.03 17:01:31.
