data_PCOD9482183
_publ_section_title
;
Structure prediction by ZEFSAII (Michael W. Deem and Ramdas Pophale) SiO2 
 PCOD9482183
Probable space group: C M C A
;
_chemical_formula_sum "Si O2"
_cell_formula_units_Z 72
_cell_length_a 14.338719
_cell_length_b 22.924561
_cell_length_c 9.563494
_cell_angle_alpha 90.000000
_cell_angle_beta 90.000000
_cell_angle_gamma 90.000000
_cell_volume 3143.605004
_symmetry_space_group_name_H-M "C M C A"
_symmetry_group_IT_number 64
_symmetry_cell_setting 'orthorhombic'
loop_
_space_group_symop_operation_xyz
x,y,z
-x,1/2-y,1/2+z
x,-y,-z
-x,1/2+y,1/2-z
-x,-y,-z
x,1/2+y,1/2-z
-x,y,z
x,1/2-y,1/2+z
1/2+x,1/2+y,z
1/2-x,-y,1/2+z
1/2+x,1/2-y,-z
1/2-x,y,1/2-z
1/2-x,1/2-y,-z
1/2+x,y,1/2-z
1/2-x,1/2+y,z
1/2+x,-y,1/2+z
loop_
_atom_site_type_symbol
_atom_site_label
_atom_site_fract_x
_atom_site_fract_y
_atom_site_fract_z
Si Si1 0.331809 0.134971 0.139292
Si Si2 0.500000 0.154190 0.569129
Si Si3 0.700551 0.946952 0.099315
Si Si4 0.320430 0.734691 0.875437
Si Si5 0.000000 0.954129 0.275181
Si Si6 0.000000 0.578778 0.287931
O O1 0.250000 0.130115 0.250000
O O2 0.365971 0.201439 0.150445
O O3 0.411635 0.092337 0.191688
O O4 0.293795 0.112594 0.990338
O O5 0.595110 0.191485 0.588652
O O6 0.500000 0.104749 0.687039
O O7 0.500000 0.121371 0.420488
O O8 0.750000 0.945177 0.250000
O O9 0.592156 0.955928 0.132347
O O10 0.735291 0.000000 0.000000
O O11 0.250000 0.717336 0.750000
O O12 0.250000 0.750000 0.000000
O O13 0.000000 0.989199 0.823789
#
# Coordination Sequence:
#
# PCOD9482183 Si02
#       6
#    16   8  16  16   8   8
#     4  11  25  48  77 107 152 201 247 315 390 457
#     4  12  28  47  77 117 144 209 262 319 385 469
#     4  12  27  48  77 110 153 200 255 315 385 468
#     4  11  27  49  75 111 155 198 258 323 384 457
#     4  12  29  45  74 108 157 193 257 312 384 451
#     4  12  25  51  72 106 155 199 254 314 397 450
#
# _framework density 22.903641
#
# number of rings (size 3 to 8) (size 9 to 14) (size 15 to 20)
#    0.000    0.444    2.222    5.333    9.333    0.889 
#    0.000    0.000    0.000    0.000    0.000    0.000 
#    0.000    0.000    0.000    0.000    0.000    0.000 
#
# Total GULP energy -201584.207530 kJ/mol
# GULP energy per Si atom -5599.561320 kJ/mol
# Density = 2.285151 g / cm^3
# Si number density = 22.903641 Si / 1000 Ang^3
#
#
#
# Elastic Constant Matrix: (Units=GPa)
#
#
# Indices 1 2 3 4 5 6 
#
# 1 104.3855 70.3220 55.4567 0.0000 0.0000 0.0000
# 2 70.3220 156.5120 62.7351 0.0000 0.0000 0.0000
# 3 55.4567 62.7351 174.6369 0.0000 0.0000 0.0000
# 4 0.0000 0.0000 0.0000 33.2407 0.0000 0.0000
# 5 0.0000 0.0000 0.0000 0.0000 29.8579 0.0000
# 6 0.0000 0.0000 0.0000 0.0000 0.0000 -53.3747
#
#
#
# Elastic Compliance Matrix: (Units=1/GPa)
#
#
# Indices 1 2 3 4 5 6 
#
# 1 0.014746 -0.005547 -0.002690 0.000000 0.000000 0.000000
# 2 -0.005547 0.009551 -0.001669 0.000000 0.000000 0.000000
# 3 -0.002690 -0.001669 0.007180 0.000000 0.000000 0.000000
# 4 0.000000 0.000000 0.000000 0.030084 0.000000 0.000000
# 5 0.000000 0.000000 0.000000 0.000000 0.033492 0.000000
# 6 0.000000 0.000000 0.000000 0.000000 0.000000 -0.018735
#
#
# Mechanical properties :
#
#
# Convention : Reuss Voigt Hill
#
# Bulk Modulus (GPa) = 85.73571 90.28466 88.01018
# Shear Modulus (GPa) = 49.99090 18.41281 34.20186
#
# Velocity S-wave (km/s) = 4.67697 2.83843 3.86851
# Velocity P-wave (km/s) = 8.16577 7.08853 7.64614
#
# Compressibility (1/GPa) = 0.01166375
#
# Stress axis : x y z
#
# Youngs Moduli (GPa) = 67.81497 104.70237 139.27457
#
# Poissons Ratio (x) = 0.58081 0.37463
# Poissons Ratio (y) = 0.37619 0.23251
# Poissons Ratio (z) = 0.18241 0.17479
#
# Static dielectric constant tensor:
#      x y z
#    x 1.776090 0.000000 0.000000 
#    y 0.000000 1.964190 0.000000 
#    z 0.000000 0.000000 1.876830 
# 
# From -- ./inp_files/5876.got.cif
#   From: 2010.05.17/outbox.cif.g08.bks.cpg/sg64_3_cif.got.tgz:5876.got - 2010.06.03 16:29:19.
