data_PCOD9482215
_publ_section_title
;
Structure prediction by ZEFSAII (Michael W. Deem and Ramdas Pophale) SiO2 
 PCOD9482215
Probable space group: C M C A
;
_chemical_formula_sum "Si O2"
_cell_formula_units_Z 84
_cell_length_a 14.907004
_cell_length_b 26.044566
_cell_length_c 8.057471
_cell_angle_alpha 90.000000
_cell_angle_beta 90.000000
_cell_angle_gamma 90.000000
_cell_volume 3128.284508
_symmetry_space_group_name_H-M "C M C A"
_symmetry_group_IT_number 64
_symmetry_cell_setting 'orthorhombic'
loop_
_space_group_symop_operation_xyz
x,y,z
-x,1/2-y,1/2+z
x,-y,-z
-x,1/2+y,1/2-z
-x,-y,-z
x,1/2+y,1/2-z
-x,y,z
x,1/2-y,1/2+z
1/2+x,1/2+y,z
1/2-x,-y,1/2+z
1/2+x,1/2-y,-z
1/2-x,y,1/2-z
1/2-x,1/2-y,-z
1/2+x,y,1/2-z
1/2-x,1/2+y,z
1/2+x,-y,1/2+z
loop_
_atom_site_type_symbol
_atom_site_label
_atom_site_fract_x
_atom_site_fract_y
_atom_site_fract_z
Si Si1 0.604893 0.735350 0.023907
Si Si2 0.183772 0.451763 0.913537
Si Si3 0.357102 0.859649 0.723579
Si Si4 0.108702 0.172663 0.710910
Si Si5 0.143246 0.576388 0.605251
Si Si6 0.000000 0.000000 0.000000
O O1 0.500000 0.741570 0.987832
O O2 0.609796 0.697810 0.185221
O O3 0.644315 0.704140 0.871229
O O4 0.641324 0.792208 0.059531
O O5 0.250000 0.461635 0.750000
O O6 0.122505 0.402787 0.863344
O O7 0.258298 0.438806 0.051128
O O8 0.135962 0.500000 0.000000
O O9 0.250000 0.854299 0.750000
O O10 0.387883 0.889856 0.556365
O O11 0.136355 0.115055 0.742852
O O12 0.000000 0.173186 0.709205
O O13 0.078416 0.528261 0.611341
#
# Coordination Sequence:
#
# PCOD9482215 Si02
#       6
#    16  16  16  16  16   4
#     4   9  17  30  51  67  92 123 158 194 237 281
#     4   9  17  32  49  67  95 128 165 194 237 288
#     4   8  17  32  48  68  94 131 163 185 233 301
#     4   9  16  29  46  71  95 122 153 195 238 286
#     4   9  17  27  46  74  95 121 158 201 242 278
#     4  12  16  24  52  76 102 112 166 212 240 264
#
# _framework density 26.851777999999999
#
# number of rings (size 3 to 8) (size 9 to 14) (size 15 to 20)
#    0.000    3.429    1.905    0.000    1.333    0.000 
#    0.000   10.476    0.000    0.571    0.000    0.000 
#    0.000    0.000    0.000    0.000    0.000    0.000 
#
# Total GULP energy -233985.354734 kJ/mol
# GULP energy per Si atom -5571.079875 kJ/mol
# Density = 2.679066 g / cm^3
# Si number density = 26.851778 Si / 1000 Ang^3
#
#
#
# Elastic Constant Matrix: (Units=GPa)
#
#
# Indices 1 2 3 4 5 6 
#
# 1 72.4629 -4.1871 10.1467 0.0000 0.0000 0.0000
# 2 -4.1871 109.7135 19.0012 0.0000 0.0000 0.0000
# 3 10.1467 19.0012 102.4486 0.0000 0.0000 0.0000
# 4 0.0000 0.0000 0.0000 36.3095 0.0000 0.0000
# 5 0.0000 0.0000 0.0000 0.0000 14.3015 0.0000
# 6 0.0000 0.0000 0.0000 0.0000 0.0000 10.3671
#
#
#
# Elastic Compliance Matrix: (Units=1/GPa)
#
#
# Indices 1 2 3 4 5 6 
#
# 1 0.014063 0.000804 -0.001542 0.000000 0.000000 0.000000
# 2 0.000804 0.009463 -0.001835 0.000000 0.000000 0.000000
# 3 -0.001542 -0.001835 0.010254 0.000000 0.000000 0.000000
# 4 0.000000 0.000000 0.000000 0.027541 0.000000 0.000000
# 5 0.000000 0.000000 0.000000 0.000000 0.069923 0.000000
# 6 0.000000 0.000000 0.000000 0.000000 0.000000 0.096459
#
#
# Mechanical properties :
#
#
# Convention : Reuss Voigt Hill
#
# Bulk Modulus (GPa) = 34.92369 37.17185 36.04777
# Shear Modulus (GPa) = 20.62769 29.50657 25.06713
#
# Velocity S-wave (km/s) = 2.77466 3.31851 3.05870
# Velocity P-wave (km/s) = 4.82694 5.34386 5.09196
#
# Compressibility (1/GPa) = 0.02863385
#
# Stress axis : x y z
#
# Youngs Moduli (GPa) = 71.11110 105.67391 97.52300
#
# Poissons Ratio (x) = -0.08493 0.15037
# Poissons Ratio (y) = -0.05715 0.17893
# Poissons Ratio (z) = 0.10964 0.19388
#
# Static dielectric constant tensor:
#      x y z
#    x 1.992970 0.000000 0.000000 
#    y 0.000000 2.267220 0.000000 
#    z 0.000000 0.000000 2.225470 
# 
# From -- ./inp_files/17276.got.cif
#   From: 2010.05.17/outbox.cif.g08.bks.cpg/sg64_9_cif.got.tgz:17276.got - 2010.06.03 16:29:19.
