data_PCOD9482763
_publ_section_title
;
Structure prediction by ZEFSAII (Michael W. Deem and Ramdas Pophale) SiO2 
 PCOD9482763
Probable space group: C M M M
;
_chemical_formula_sum "Si O2"
_cell_formula_units_Z 112
_cell_length_a 27.205916
_cell_length_b 33.795465
_cell_length_c 9.262378
_cell_angle_alpha 90.000000
_cell_angle_beta 90.000000
_cell_angle_gamma 90.000000
_cell_volume 8516.169169
_symmetry_space_group_name_H-M "C M M M"
_symmetry_group_IT_number 65
_symmetry_cell_setting 'orthorhombic'
loop_
_space_group_symop_operation_xyz
x,y,z
-x,-y,z
x,-y,-z
-x,y,-z
-x,-y,-z
x,y,-z
-x,y,z
x,-y,z
1/2+x,1/2+y,z
1/2-x,1/2-y,z
1/2+x,1/2-y,-z
1/2-x,1/2+y,-z
1/2-x,1/2-y,-z
1/2+x,1/2+y,-z
1/2-x,1/2+y,z
1/2+x,1/2-y,z
loop_
_atom_site_type_symbol
_atom_site_label
_atom_site_fract_x
_atom_site_fract_y
_atom_site_fract_z
Si Si1 0.797541 0.279242 0.166212
Si Si2 0.555902 0.340170 0.329433
Si Si3 0.762089 0.842718 0.669119
Si Si4 0.916914 0.920121 0.169058
Si Si5 0.299487 0.500000 0.666492
Si Si6 0.919220 0.000000 0.333542
Si Si7 0.355987 0.284185 0.669034
Si Si8 0.702128 0.579690 0.830584
O O1 0.750000 0.250000 0.167978
O O2 0.781070 0.317252 0.257597
O O3 0.840703 0.253831 0.238860
O O4 0.807761 0.289141 0.000000
O O5 0.565400 0.348196 0.500000
O O6 0.500000 0.326240 0.314415
O O7 0.562564 0.380792 0.243013
O O8 0.595314 0.307347 0.282856
O O9 0.752751 0.849768 0.500000
O O10 0.811180 0.815573 0.679432
O O11 0.773562 0.882897 0.753260
O O12 0.857388 0.917310 0.180781
O O13 0.933679 0.959932 0.250763
O O14 0.929493 0.922234 0.000000
O O15 0.283710 0.500000 0.500000
O O16 0.359348 0.500000 0.666485
O O17 0.283638 0.460706 0.750320
O O18 0.935541 0.000000 0.500000
O O19 0.360737 0.273406 0.500000
O O20 0.714121 0.578499 0.000000
#
# Coordination Sequence:
#
# PCOD9482763 Si02
#       8
#    16  16  16  16   8   8  16  16
#     4   9  17  27  40  59  81 101 122 150 187 231
#     4  10  20  33  47  61  77  99 128 159 193 237
#     4  10  17  26  42  61  80 102 127 155 188 230
#     4  10  19  30  44  60  78  96 120 156 199 240
#     4   9  17  27  39  56  76 101 131 159 189 229
#     4   9  17  29  46  60  73  93 121 154 194 243
#     4   9  17  29  43  58  77 100 125 154 190 231
#     4  10  18  27  40  58  80 103 127 158 195 233
#
# _framework density 13.151453
#
# number of rings (size 3 to 8) (size 9 to 14) (size 15 to 20)
#    0.000    2.429    1.429    2.143    0.000    6.000 
#    0.000    0.357    0.000    2.143    0.000    0.000 
#    0.000    0.000    0.000    0.000    0.000    0.000 
#
# Total GULP energy -312273.768763 kJ/mol
# GULP energy per Si atom -5576.317299 kJ/mol
# Density = 1.312152 g / cm^3
# Si number density = 13.151453 Si / 1000 Ang^3
#
#
#
# Elastic Constant Matrix: (Units=GPa)
#
#
# Indices 1 2 3 4 5 6 
#
# 1 42.1305 37.1639 35.6074 0.0000 0.0000 0.0000
# 2 37.1639 75.9000 60.7505 0.0000 0.0000 0.0000
# 3 35.6074 60.7505 106.0145 0.0000 0.0000 0.0000
# 4 0.0000 0.0000 0.0000 21.7798 0.0000 0.0000
# 5 0.0000 0.0000 0.0000 0.0000 10.1601 0.0000
# 6 0.0000 0.0000 0.0000 0.0000 0.0000 4.7494
#
#
#
# Elastic Compliance Matrix: (Units=1/GPa)
#
#
# Indices 1 2 3 4 5 6 
#
# 1 0.042855 -0.017480 -0.004377 0.000000 0.000000 0.000000
# 2 -0.017480 0.031468 -0.012162 0.000000 0.000000 0.000000
# 3 -0.004377 -0.012162 0.017872 0.000000 0.000000 0.000000
# 4 0.000000 0.000000 0.000000 0.045914 0.000000 0.000000
# 5 0.000000 0.000000 0.000000 0.000000 0.098425 0.000000
# 6 0.000000 0.000000 0.000000 0.000000 0.000000 0.210553
#
#
# Mechanical properties :
#
#
# Convention : Reuss Voigt Hill
#
# Bulk Modulus (GPa) = 41.39486 54.56538 47.98012
# Shear Modulus (GPa) = 9.55702 13.37273 11.46488
#
# Velocity S-wave (km/s) = 2.69864 3.19223 2.95576
# Velocity P-wave (km/s) = 6.42293 7.42746 6.94339
#
# Compressibility (1/GPa) = 0.02415759
#
# Stress axis : x y z
#
# Youngs Moduli (GPa) = 23.33477 31.77791 55.95423
#
# Poissons Ratio (x) = 0.55548 0.24490
# Poissons Ratio (y) = 0.40790 0.68049
# Poissons Ratio (z) = 0.10213 0.38647
#
# Static dielectric constant tensor:
#      x y z
#    x 1.409520 0.000000 0.000000 
#    y 0.000000 1.408990 0.000000 
#    z 0.000000 0.000000 1.440950 
# 
# From -- ./inp_files/19229.got.cif
#   From: 2010.05.17/outbox.cif.g08.bks.cpg/sg65_10_cif.got.tgz:19229.got - 2010.06.03 17:01:31.
