data_PCOD9482472
_publ_section_title
;
Structure prediction by ZEFSAII (Michael W. Deem and Ramdas Pophale) SiO2 
 PCOD9482472
Probable space group: C M C A
;
_chemical_formula_sum "Si O2"
_cell_formula_units_Z 56
_cell_length_a 15.000000
_cell_length_b 24.000000
_cell_length_c 15.000000
_cell_angle_alpha 90.000000
_cell_angle_beta 90.000000
_cell_angle_gamma 90.000000
_cell_volume 5400.000000
_symmetry_space_group_name_H-M "C M C A"
_symmetry_group_IT_number 64
_symmetry_cell_setting 'orthorhombic'
loop_
_space_group_symop_operation_xyz
x,y,z
-x,1/2-y,1/2+z
x,-y,-z
-x,1/2+y,1/2-z
-x,-y,-z
x,1/2+y,1/2-z
-x,y,z
x,1/2-y,1/2+z
1/2+x,1/2+y,z
1/2-x,-y,1/2+z
1/2+x,1/2-y,-z
1/2-x,y,1/2-z
1/2-x,1/2-y,-z
1/2+x,y,1/2-z
1/2-x,1/2+y,z
1/2+x,-y,1/2+z
loop_
_atom_site_type_symbol
_atom_site_label
_atom_site_fract_x
_atom_site_fract_y
_atom_site_fract_z
Si Si1 0.106107 0.174700 0.107527
Si Si2 0.397282 0.739182 0.749541
Si Si3 0.402103 0.848685 0.876286
Si Si4 0.199655 0.868883 0.170317
Si Si5 0.851277 0.569321 0.273551
Si Si6 0.252857 0.684373 0.510765
Si Si7 0.602448 0.026294 0.591119
O O1 0.136527 0.230860 0.159099
O O2 0.143071 0.122207 0.160812
O O3 0.000000 0.173094 0.107800
O O4 0.149853 0.170862 0.011782
O O5 0.500000 0.724388 0.734321
O O6 0.395209 0.792347 0.816556
O O7 0.350759 0.685297 0.790189
O O8 0.500000 0.847415 0.919396
O O9 0.395292 0.903651 0.814702
O O10 0.320294 0.843482 0.942428
O O11 0.250000 0.898555 0.250000
O O12 0.271869 0.841620 0.105169
O O13 0.146032 0.916546 0.121147
O O14 0.750000 0.555883 0.250000
O O15 0.892227 0.518303 0.328208
O O16 0.250000 0.750000 0.500000
O O17 0.500000 0.038514 0.570852
O O18 0.642481 0.000000 0.500000
#
# Coordination Sequence:
#
# PCOD9482472 Si02
#       7
#    16  16  16  16  16  16  16
#     4  10  21  37  62  98 129 164 213 264 323 383
#     4   9  19  36  59  89 131 170 202 252 319 387
#     4  10  21  38  62  95 130 169 218 267 318 377
#     4  12  25  41  61  89 130 171 210 261 330 395
#     4  11  20  38  68  95 126 161 212 272 323 383
#     4  12  23  38  62  94 130 173 218 265 318 386
#     4  11  25  44  66  94 125 164 218 275 329 391
#
# _framework density 10.370369999999999
#
# number of rings (size 3 to 8) (size 9 to 14) (size 15 to 20)
#    0.000    1.286    2.857    4.714    0.000    2.857 
#    0.000    1.429    0.000    0.000    0.000    3.000 
#    0.000    0.000    0.000    0.000    0.000    0.000 
#
# Total GULP energy -312174.800559 kJ/mol
# GULP energy per Si atom -5574.550010 kJ/mol
# Density = 1.034677 g / cm^3
# Si number density = 10.370370 Si / 1000 Ang^3
#
#
#
# Elastic Constant Matrix: (Units=GPa)
#
#
# Indices 1 2 3 4 5 6 
#
# 1 57.8074 22.7217 37.8234 0.0000 0.0000 0.0000
# 2 22.7217 119.1878 52.5010 0.0000 0.0000 0.0000
# 3 37.8234 52.5010 88.2497 0.0000 0.0000 0.0000
# 4 0.0000 0.0000 0.0000 22.4749 0.0000 0.0000
# 5 0.0000 0.0000 0.0000 0.0000 4.2599 0.0000
# 6 0.0000 0.0000 0.0000 0.0000 0.0000 5.3484
#
#
#
# Elastic Compliance Matrix: (Units=1/GPa)
#
#
# Indices 1 2 3 4 5 6 
#
# 1 0.024041 -0.000060 -0.010268 0.000000 0.000000 0.000000
# 2 -0.000060 0.011370 -0.006738 0.000000 0.000000 0.000000
# 3 -0.010268 -0.006738 0.019741 0.000000 0.000000 0.000000
# 4 0.000000 0.000000 0.000000 0.044494 0.000000 0.000000
# 5 0.000000 0.000000 0.000000 0.000000 0.234746 0.000000
# 6 0.000000 0.000000 0.000000 0.000000 0.000000 0.186972
#
#
# Mechanical properties :
#
#
# Convention : Reuss Voigt Hill
#
# Bulk Modulus (GPa) = 47.57654 54.59300 51.08477
# Shear Modulus (GPa) = 8.88886 16.56324 12.72605
#
# Velocity S-wave (km/s) = 2.07244 2.82899 2.47974
# Velocity P-wave (km/s) = 5.35865 6.08684 5.73432
#
# Compressibility (1/GPa) = 0.02101876
#
# Stress axis : x y z
#
# Youngs Moduli (GPa) = 41.59592 87.95307 50.65608
#
# Poissons Ratio (x) = 0.00529 0.52014
# Poissons Ratio (y) = 0.00250 0.34133
# Poissons Ratio (z) = 0.42711 0.59265
#
# Static dielectric constant tensor:
#      x y z
#    x 1.772190 0.000000 0.000000 
#    y 0.000000 0.623440 0.000000 
#    z 0.000000 0.000000 1.976010 
# 
# From -- ./inp_files/24187.got.cif
#   From: 2010.05.17/outbox.ucp.g08.bks.cvg/sg64_13_cif.got.tgz:24187.got - 2010.06.11 16:36:46.
