data_PCOD9482234
_publ_section_title
;
Structure prediction by ZEFSAII (Michael W. Deem and Ramdas Pophale) SiO2 
 PCOD9482234
Probable space group: C M C A
;
_chemical_formula_sum "Si O2"
_cell_formula_units_Z 88
_cell_length_a 23.107857
_cell_length_b 14.626592
_cell_length_c 12.592791
_cell_angle_alpha 90.000000
_cell_angle_beta 90.000000
_cell_angle_gamma 90.000000
_cell_volume 4256.227310
_symmetry_space_group_name_H-M "C M C A"
_symmetry_group_IT_number 64
_symmetry_cell_setting 'orthorhombic'
loop_
_space_group_symop_operation_xyz
x,y,z
-x,1/2-y,1/2+z
x,-y,-z
-x,1/2+y,1/2-z
-x,-y,-z
x,1/2+y,1/2-z
-x,y,z
x,1/2-y,1/2+z
1/2+x,1/2+y,z
1/2-x,-y,1/2+z
1/2+x,1/2-y,-z
1/2-x,y,1/2-z
1/2-x,1/2-y,-z
1/2+x,y,1/2-z
1/2-x,1/2+y,z
1/2+x,-y,1/2+z
loop_
_atom_site_type_symbol
_atom_site_label
_atom_site_fract_x
_atom_site_fract_y
_atom_site_fract_z
Si Si1 0.682211 0.841258 0.272252
Si Si2 0.500000 0.108144 0.856699
Si Si3 0.373013 0.848509 0.719251
Si Si4 0.615736 0.605920 0.985953
Si Si5 0.622349 0.017905 0.878066
Si Si6 0.000000 0.728349 0.523950
Si Si7 0.500000 0.777319 0.753463
O O1 0.750000 0.848134 0.250000
O O2 0.661154 0.737202 0.265412
O O3 0.657248 0.880386 0.383874
O O4 0.653392 0.896260 0.175596
O O5 0.555355 0.046821 0.874648
O O6 0.500000 0.165128 0.746603
O O7 0.500000 0.200772 0.926590
O O8 0.354495 0.868338 0.598245
O O9 0.440829 0.820837 0.711972
O O10 0.367196 0.932785 0.799728
O O11 0.598571 0.500000 0.000000
O O12 0.558340 0.668118 0.973486
O O13 0.639256 0.000000 0.000000
O O14 0.000000 0.797429 0.621997
#
# Coordination Sequence:
#
# PCOD9482234 Si02
#       7
#    16   8  16  16  16   8   8
#     4  12  29  50  72 100 138 193 249 297 353 421
#     4  12  22  42  68 108 145 183 224 286 366 440
#     4  12  25  46  73 106 144 190 233 299 368 429
#     4  12  24  46  72 108 147 184 243 301 364 431
#     4  12  26  47  73 105 146 184 237 296 365 436
#     4  12  21  38  74 106 151 189 225 290 370 435
#     4  12  21  38  72 103 146 182 224 279 365 437
#
# _framework density 20.675587
#
# number of rings (size 3 to 8) (size 9 to 14) (size 15 to 20)
#    0.000    0.000    7.273    2.182    2.545    2.182 
#    0.000    0.000    0.000    0.000    0.000    0.000 
#    0.000    0.000    0.000    0.000    0.000    0.000 
#
# Total GULP energy -245926.490546 kJ/mol
# GULP energy per Si atom -5589.238422 kJ/mol
# Density = 2.062853 g / cm^3
# Si number density = 20.675587 Si / 1000 Ang^3
#
#
#
# Elastic Constant Matrix: (Units=GPa)
#
#
# Indices 1 2 3 4 5 6 
#
# 1 106.7912 16.7327 27.0279 0.0000 0.0000 0.0000
# 2 16.7327 86.5902 8.2955 0.0000 0.0000 0.0000
# 3 27.0279 8.2955 107.5804 0.0000 0.0000 0.0000
# 4 0.0000 0.0000 0.0000 39.5771 0.0000 0.0000
# 5 0.0000 0.0000 0.0000 0.0000 5.9079 0.0000
# 6 0.0000 0.0000 0.0000 0.0000 0.0000 63.7114
#
#
#
# Elastic Compliance Matrix: (Units=1/GPa)
#
#
# Indices 1 2 3 4 5 6 
#
# 1 0.010256 -0.001748 -0.002442 0.000000 0.000000 0.000000
# 2 -0.001748 0.011932 -0.000481 0.000000 0.000000 0.000000
# 3 -0.002442 -0.000481 0.009946 0.000000 0.000000 0.000000
# 4 0.000000 0.000000 0.000000 0.025267 0.000000 0.000000
# 5 0.000000 0.000000 0.000000 0.000000 0.169266 0.000000
# 6 0.000000 0.000000 0.000000 0.000000 0.000000 0.015696
#
#
# Mechanical properties :
#
#
# Convention : Reuss Voigt Hill
#
# Bulk Modulus (GPa) = 43.87337 45.00821 44.44079
# Shear Modulus (GPa) = 19.28251 38.43299 28.85775
#
# Velocity S-wave (km/s) = 3.05720 4.31613 3.74001
# Velocity P-wave (km/s) = 5.80757 6.83042 6.33966
#
# Compressibility (1/GPa) = 0.02279287
#
# Stress axis : x y z
#
# Youngs Moduli (GPa) = 97.50427 83.80474 100.54349
#
# Poissons Ratio (x) = 0.14648 0.24551
# Poissons Ratio (y) = 0.17043 0.04836
# Poissons Ratio (z) = 0.23809 0.04031
#
# Static dielectric constant tensor:
#      x y z
#    x 1.931530 0.000000 0.000000 
#    y 0.000000 1.748070 0.000000 
#    z 0.000000 0.000000 1.887300 
# 
# From -- ./inp_files/18274.got.cif
#   From: 2010.05.17/outbox.cif.g08.bks.cpg/sg64_10_cif.got.tgz:18274.got - 2010.06.03 16:29:19.
