data_PCOD9482646
_publ_section_title
;
Structure prediction by ZEFSAII (Michael W. Deem and Ramdas Pophale) SiO2 
 PCOD9482646
Probable space group: C M M M
;
_chemical_formula_sum "Si O2"
_cell_formula_units_Z 96
_cell_length_a 14.711595
_cell_length_b 14.127178
_cell_length_c 24.299435
_cell_angle_alpha 90.000000
_cell_angle_beta 90.000000
_cell_angle_gamma 90.000000
_cell_volume 5050.232280
_symmetry_space_group_name_H-M "C M M M"
_symmetry_group_IT_number 65
_symmetry_cell_setting 'orthorhombic'
loop_
_space_group_symop_operation_xyz
x,y,z
-x,-y,z
x,-y,-z
-x,y,-z
-x,-y,-z
x,y,-z
-x,y,z
x,-y,z
1/2+x,1/2+y,z
1/2-x,1/2-y,z
1/2+x,1/2-y,-z
1/2-x,1/2+y,-z
1/2-x,1/2-y,-z
1/2+x,1/2+y,-z
1/2-x,1/2+y,z
1/2+x,1/2-y,z
loop_
_atom_site_type_symbol
_atom_site_label
_atom_site_fract_x
_atom_site_fract_y
_atom_site_fract_z
Si Si1 0.303197 0.386432 0.168302
Si Si2 0.500000 0.388909 0.125148
Si Si3 0.000000 0.389042 0.199019
Si Si4 0.889448 0.609449 0.500000
Si Si5 0.806167 0.613970 0.940538
Si Si6 0.315589 0.113492 0.732713
Si Si7 0.000000 0.701249 0.080952
Si Si8 0.106743 0.383935 0.379721
O O1 0.291423 0.500000 0.168916
O O2 0.408964 0.368923 0.159395
O O3 0.248533 0.354768 0.113736
O O4 0.262621 0.351937 0.226001
O O5 0.500000 0.500000 0.109316
O O6 0.500000 0.314337 0.075607
O O7 0.089875 0.373634 0.234679
O O8 0.000000 0.325280 0.145542
O O9 0.000000 0.500000 0.181396
O O10 0.858822 0.500000 0.500000
O O11 0.863762 0.650280 0.440455
O O12 0.000000 0.607967 0.500000
O O13 0.814204 0.500000 0.937318
O O14 0.906828 0.656835 0.940156
O O15 0.762041 0.636163 0.000000
O O16 0.332079 0.150108 0.671093
O O17 0.302463 0.000000 0.726722
O O18 0.108580 0.500000 0.380719
O O19 0.000000 0.359610 0.370605
#
# Coordination Sequence:
#
# PCOD9482646 Si02
#       8
#    16   8   8   8  16  16   8  16
#     4   9  18  35  54  70  94 128 165 203 243 286
#     4  10  24  43  56  67  91 132 176 210 238 274
#     4  10  16  25  43  76 108 121 143 189 247 308
#     4   7  10  14  20  38  78 129 172 194 210 258
#     4  10  20  35  57  85 110 125 145 188 247 302
#     4   9  14  22  41  65  94 126 157 196 243 293
#     4  12  21  33  55  78 102 129 153 188 246 301
#     4   8  11  15  26  49  84 128 166 192 224 275
#
# _framework density 19.009025999999999
#
# number of rings (size 3 to 8) (size 9 to 14) (size 15 to 20)
#    0.000    2.750    2.500    2.000    0.000    1.333 
#    0.000    2.917    0.000    5.500    0.000    0.000 
#    0.000    0.667    0.000   13.833    0.000   12.667 
#
# Total GULP energy -267541.458865 kJ/mol
# GULP energy per Si atom -5573.780393 kJ/mol
# Density = 1.896576 g / cm^3
# Si number density = 19.009026 Si / 1000 Ang^3
#
#
#
# Elastic Constant Matrix: (Units=GPa)
#
#
# Indices 1 2 3 4 5 6 
#
# 1 87.2469 14.5405 54.6046 0.0000 0.0000 0.0000
# 2 14.5405 58.7604 20.2334 0.0000 0.0000 0.0000
# 3 54.6046 20.2334 183.2150 0.0000 0.0000 0.0000
# 4 0.0000 0.0000 0.0000 -4.8751 0.0000 0.0000
# 5 0.0000 0.0000 0.0000 0.0000 -50.9774 0.0000
# 6 0.0000 0.0000 0.0000 0.0000 0.0000 -13.8532
#
#
#
# Elastic Compliance Matrix: (Units=1/GPa)
#
#
# Indices 1 2 3 4 5 6 
#
# 1 0.014349 -0.002160 -0.004038 0.000000 0.000000 0.000000
# 2 -0.002160 0.018016 -0.001346 0.000000 0.000000 0.000000
# 3 -0.004038 -0.001346 0.006810 0.000000 0.000000 0.000000
# 4 0.000000 0.000000 0.000000 -0.205126 0.000000 0.000000
# 5 0.000000 0.000000 0.000000 0.000000 -0.019617 0.000000
# 6 0.000000 0.000000 0.000000 0.000000 0.000000 -0.072185
#
#
# Mechanical properties :
#
#
# Convention : Reuss Voigt Hill
#
# Bulk Modulus (GPa) = 41.51561 56.44212 48.97886
# Shear Modulus (GPa) = -21.30968 2.04845 -9.63061
#
# Velocity S-wave (km/s) = -3.35181 1.03921 -2.25329
# Velocity P-wave (km/s) = 2.62828 5.58540 4.36489
#
# Compressibility (1/GPa) = 0.02408733
#
# Stress axis : x y z
#
# Youngs Moduli (GPa) = 69.69151 55.50549 146.83991
#
# Poissons Ratio (x) = 0.11991 0.59293
# Poissons Ratio (y) = 0.15055 0.19761
# Poissons Ratio (z) = 0.28141 0.07470
#
# Static dielectric constant tensor:
#      x y z
#    x 1.654020 0.000000 0.000000 
#    y 0.000000 1.665330 0.000000 
#    z 0.000000 0.000000 1.715850 
# 
# From -- ./inp_files/69931.got.cif
#   From: 2010.05.17/outbox.cif.g08.bks.cpg/sg65_35_cif.got.tgz:69931.got - 2010.06.03 17:01:31.
