data_PCOD9482360
_publ_section_title
;
Structure prediction by ZEFSAII (Michael W. Deem and Ramdas Pophale) SiO2 
 PCOD9482360
Probable space group: C M C A
;
_chemical_formula_sum "Si O2"
_cell_formula_units_Z 64
_cell_length_a 27.000000
_cell_length_b 24.000000
_cell_length_c 12.000000
_cell_angle_alpha 90.000000
_cell_angle_beta 90.000000
_cell_angle_gamma 90.000000
_cell_volume 7776.000000
_symmetry_space_group_name_H-M "C M C A"
_symmetry_group_IT_number 64
_symmetry_cell_setting 'orthorhombic'
loop_
_space_group_symop_operation_xyz
x,y,z
-x,1/2-y,1/2+z
x,-y,-z
-x,1/2+y,1/2-z
-x,-y,-z
x,1/2+y,1/2-z
-x,y,z
x,1/2-y,1/2+z
1/2+x,1/2+y,z
1/2-x,-y,1/2+z
1/2+x,1/2-y,-z
1/2-x,y,1/2-z
1/2-x,1/2-y,-z
1/2+x,y,1/2-z
1/2-x,1/2+y,z
1/2+x,-y,1/2+z
loop_
_atom_site_type_symbol
_atom_site_label
_atom_site_fract_x
_atom_site_fract_y
_atom_site_fract_z
Si Si1 0.095583 0.539095 0.849463
Si Si2 0.182480 0.874032 0.389451
Si Si3 0.058307 0.417703 0.928599
Si Si4 0.629991 0.024916 0.617970
Si Si5 0.805990 0.722271 0.706474
Si Si6 0.698453 0.577937 0.193973
Si Si7 0.706699 0.878634 0.446741
Si Si8 0.854058 0.839118 0.633166
O O1 0.148244 0.571344 0.869213
O O2 0.086178 0.474199 0.883875
O O3 0.090865 0.539449 0.715282
O O4 0.061877 0.573946 0.936645
O O5 0.175870 0.824103 0.298459
O O6 0.239880 0.892196 0.392907
O O7 0.170061 0.848414 0.511008
O O8 0.089754 0.363768 0.886625
O O9 0.000000 0.417127 0.897043
O O10 0.665296 0.975853 0.665850
O O11 0.610773 0.000000 0.500000
O O12 0.664249 0.078906 0.594885
O O13 0.750000 0.738339 0.750000
O O14 0.802770 0.684543 0.594202
O O15 0.839804 0.776894 0.679703
O O16 0.750000 0.560725 0.250000
O O17 0.670478 0.618402 0.279270
O O18 0.708885 0.611239 0.079093
#
# Coordination Sequence:
#
# PCOD9482360 Si02
#       8
#    16  16  16  16  16  16  16  16
#     4  10  18  35  59  84 109 135 184 227 291 341
#     4  10  21  34  52  80 116 154 193 230 265 321
#     4  10  22  39  63  86 106 134 178 248 303 340
#     4  10  21  33  50  80 116 156 180 223 274 338
#     4  10  22  34  53  77 118 160 195 226 264 320
#     4  11  21  32  50  79 115 151 195 229 265 324
#     4  10  21  35  48  76 118 164 192 219 262 321
#     4  11  22  36  54  82 105 150 195 235 278 326
#
# _framework density 8.2304530000000007
#
# number of rings (size 3 to 8) (size 9 to 14) (size 15 to 20)
#    0.000    1.750    3.750    1.125    3.500    1.000 
#    4.500    0.000    0.000    5.250    0.000    0.000 
#    0.000    0.000    0.000    0.000    0.000    0.000 
#
# Total GULP energy -356478.906672 kJ/mol
# GULP energy per Si atom -5569.982917 kJ/mol
# Density = 0.821172 g / cm^3
# Si number density = 8.230453 Si / 1000 Ang^3
#
#
#
# Elastic Constant Matrix: (Units=GPa)
#
#
# Indices 1 2 3 4 5 6 
#
# 1 66.6180 32.4334 16.6843 0.0000 0.0000 0.0000
# 2 32.4334 88.8201 19.2085 0.0000 0.0000 0.0000
# 3 16.6843 19.2085 108.6098 0.0000 0.0000 0.0000
# 4 0.0000 0.0000 0.0000 30.2753 0.0000 0.0000
# 5 0.0000 0.0000 0.0000 0.0000 17.1843 0.0000
# 6 0.0000 0.0000 0.0000 0.0000 0.0000 18.0404
#
#
#
# Elastic Compliance Matrix: (Units=1/GPa)
#
#
# Indices 1 2 3 4 5 6 
#
# 1 0.018560 -0.006406 -0.001718 0.000000 0.000000 0.000000
# 2 -0.006406 0.013917 -0.001477 0.000000 0.000000 0.000000
# 3 -0.001718 -0.001477 0.009733 0.000000 0.000000 0.000000
# 4 0.000000 0.000000 0.000000 0.033030 0.000000 0.000000
# 5 0.000000 0.000000 0.000000 0.000000 0.058193 0.000000
# 6 0.000000 0.000000 0.000000 0.000000 0.000000 0.055431
#
#
# Mechanical properties :
#
#
# Convention : Reuss Voigt Hill
#
# Bulk Modulus (GPa) = 43.46475 44.52226 43.99350
# Shear Modulus (GPa) = 23.17653 26.14811 24.66232
#
# Velocity S-wave (km/s) = 3.75637 3.98992 3.87490
# Velocity P-wave (km/s) = 6.72874 6.95212 6.84134
#
# Compressibility (1/GPa) = 0.02300715
#
# Stress axis : x y z
#
# Youngs Moduli (GPa) = 53.87944 71.85295 102.74850
#
# Poissons Ratio (x) = 0.46027 0.17654
# Poissons Ratio (y) = 0.34514 0.15180
# Poissons Ratio (z) = 0.09258 0.10615
#
# Static dielectric constant tensor:
#      x y z
#    x 1.549430 0.000000 0.000000 
#    y 0.000000 1.545930 0.000000 
#    z 0.000000 0.000000 1.606090 
# 
# From -- ./inp_files/19400.got.cif
#   From: 2010.05.17/outbox.ucp.g08.bks.cvg/sg64_10_cif.got.tgz:19400.got - 2010.06.11 16:36:46.
