data_PCOD9482521
_publ_section_title
;
Structure prediction by ZEFSAII (Michael W. Deem and Ramdas Pophale) SiO2 
 PCOD9482521
Probable space group: C M C A
;
_chemical_formula_sum "Si O2"
_cell_formula_units_Z 32
_cell_length_a 9.000000
_cell_length_b 24.000000
_cell_length_c 15.000000
_cell_angle_alpha 90.000000
_cell_angle_beta 90.000000
_cell_angle_gamma 90.000000
_cell_volume 3240.000000
_symmetry_space_group_name_H-M "C M C A"
_symmetry_group_IT_number 64
_symmetry_cell_setting 'orthorhombic'
loop_
_space_group_symop_operation_xyz
x,y,z
-x,1/2-y,1/2+z
x,-y,-z
-x,1/2+y,1/2-z
-x,-y,-z
x,1/2+y,1/2-z
-x,y,z
x,1/2-y,1/2+z
1/2+x,1/2+y,z
1/2-x,-y,1/2+z
1/2+x,1/2-y,-z
1/2-x,y,1/2-z
1/2-x,1/2-y,-z
1/2+x,y,1/2-z
1/2-x,1/2+y,z
1/2+x,-y,1/2+z
loop_
_atom_site_type_symbol
_atom_site_label
_atom_site_fract_x
_atom_site_fract_y
_atom_site_fract_z
Si Si1 0.825639 0.066322 0.994966
Si Si2 0.175622 0.128695 0.342554
Si Si3 0.676135 0.632811 0.661271
Si Si4 0.175388 0.744841 0.596444
O O1 0.765502 0.095845 0.082946
O O2 0.000000 0.079109 0.980855
O O3 0.727605 0.093328 0.917911
O O4 0.808821 0.000000 0.000000
O O5 0.250000 0.113769 0.250000
O O6 0.191392 0.195166 0.357677
O O7 0.000000 0.115955 0.346375
O O8 0.500000 0.636437 0.667676
O O9 0.750000 0.609884 0.750000
O O10 0.743318 0.694227 0.644923
O O11 0.250000 0.750000 0.500000
O O12 0.000000 0.732497 0.588698
#
# Coordination Sequence:
#
# PCOD9482521 Si02
#       4
#    16  16  16  16
#     4  11  25  45  68  93 124 165 214 268 321 377
#     4  11  24  41  65  96 129 169 210 257 315 376
#     4  12  25  42  66  96 130 170 213 262 318 377
#     4  11  22  38  64  97 132 169 209 256 316 380
#
# _framework density 9.8765429999999999
#
# number of rings (size 3 to 8) (size 9 to 14) (size 15 to 20)
#    0.000    0.750    2.500    5.250    0.000    8.000 
#    0.000    0.000    0.000    0.000    0.000    0.000 
#    0.000    0.000    0.000    0.000    0.000    0.000 
#
# Total GULP energy -179000.519148 kJ/mol
# GULP energy per Si atom -5593.766223 kJ/mol
# Density = 0.985406 g / cm^3
# Si number density = 9.876543 Si / 1000 Ang^3
#
#
#
# Elastic Constant Matrix: (Units=GPa)
#
#
# Indices 1 2 3 4 5 6 
#
# 1 164.4840 54.1191 50.2932 0.0000 0.0000 0.0000
# 2 54.1191 65.8218 19.3412 0.0000 0.0000 0.0000
# 3 50.2932 19.3412 136.3046 0.0000 0.0000 0.0000
# 4 0.0000 0.0000 0.0000 381.2973 0.0000 0.0000
# 5 0.0000 0.0000 0.0000 0.0000 18.8050 0.0000
# 6 0.0000 0.0000 0.0000 0.0000 0.0000 47.9237
#
#
#
# Elastic Compliance Matrix: (Units=1/GPa)
#
#
# Indices 1 2 3 4 5 6 
#
# 1 0.009015 -0.006714 -0.002373 0.000000 0.000000 0.000000
# 2 -0.006714 0.020855 -0.000482 0.000000 0.000000 0.000000
# 3 -0.002373 -0.000482 0.008281 0.000000 0.000000 0.000000
# 4 0.000000 0.000000 0.000000 0.002623 0.000000 0.000000
# 5 0.000000 0.000000 0.000000 0.000000 0.053177 0.000000
# 6 0.000000 0.000000 0.000000 0.000000 0.000000 0.020866
#
#
# Mechanical properties :
#
#
# Convention : Reuss Voigt Hill
#
# Bulk Modulus (GPa) = 52.60189 68.23527 60.41858
# Shear Modulus (GPa) = 35.63990 105.79567 70.71778
#
# Velocity S-wave (km/s) = 4.25228 7.32635 5.98987
# Velocity P-wave (km/s) = 7.12718 10.30467 8.85954
#
# Compressibility (1/GPa) = 0.01901072
#
# Stress axis : x y z
#
# Youngs Moduli (GPa) = 110.93237 47.95078 120.76422
#
# Poissons Ratio (x) = 0.32196 0.28662
# Poissons Ratio (y) = 0.74484 0.05818
# Poissons Ratio (z) = 0.26329 0.02310
#
# Static dielectric constant tensor:
#      x y z
#    x 1.643420 0.000000 0.000000 
#    y 0.000000 1.695180 0.000000 
#    z 0.000000 0.000000 1.627380 
# 
# From -- ./inp_files/20839.got.cif
#   From: 2010.05.17/outbox.ucp.g08.bks.cvg/sg64_11_cif.got.tgz:20839.got - 2010.06.11 16:36:46.
