data_PCOD9482579
_publ_section_title
;
Structure prediction by ZEFSAII (Michael W. Deem and Ramdas Pophale) SiO2 
 PCOD9482579
Probable space group: C M M M
;
_chemical_formula_sum "Si O2"
_cell_formula_units_Z 88
_cell_length_a 8.832789
_cell_length_b 14.992758
_cell_length_c 30.805179
_cell_angle_alpha 90.000000
_cell_angle_beta 90.000000
_cell_angle_gamma 90.000000
_cell_volume 4079.464177
_symmetry_space_group_name_H-M "C M M M"
_symmetry_group_IT_number 65
_symmetry_cell_setting 'orthorhombic'
loop_
_space_group_symop_operation_xyz
x,y,z
-x,-y,z
x,-y,-z
-x,y,-z
-x,-y,-z
x,y,-z
-x,y,z
x,-y,z
1/2+x,1/2+y,z
1/2-x,1/2-y,z
1/2+x,1/2-y,-z
1/2-x,1/2+y,-z
1/2-x,1/2-y,-z
1/2+x,1/2+y,-z
1/2-x,1/2+y,z
1/2+x,1/2-y,z
loop_
_atom_site_type_symbol
_atom_site_label
_atom_site_fract_x
_atom_site_fract_y
_atom_site_fract_z
Si Si1 0.178896 0.608327 0.547137
Si Si2 0.819964 0.347994 0.817910
Si Si3 0.681814 0.605536 0.364124
Si Si4 0.318464 0.351091 0.000000
Si Si5 0.330387 0.394516 0.728736
Si Si6 0.317391 0.149218 0.087828
O O1 0.237914 0.639629 0.500000
O O2 0.196197 0.500000 0.546686
O O3 0.255451 0.643349 0.590922
O O4 0.000000 0.626452 0.549220
O O5 0.750000 0.250000 0.818998
O O6 0.761827 0.386233 0.772761
O O7 0.780197 0.391127 0.864735
O O8 0.000000 0.343905 0.816812
O O9 0.500000 0.612656 0.363697
O O10 0.721530 0.500000 0.365564
O O11 0.735507 0.640909 0.317009
O O12 0.250000 0.250000 0.000000
O O13 0.256068 0.392084 0.955232
O O14 0.500000 0.348084 0.000000
O O15 0.500000 0.356633 0.735556
O O16 0.346201 0.500000 0.721355
O O17 0.500000 0.152316 0.083004
O O18 0.250000 0.250000 0.089578
#
# Coordination Sequence:
#
# PCOD9482579 Si02
#       6
#    16  16  16   8  16  16
#     4   8  13  20  30  47  73 104 136 171 213 258
#     4  10  20  32  48  69  93 122 154 189 228 270
#     4   8  14  24  37  54  77 107 142 177 215 259
#     4  10  16  22  36  58  83 112 143 174 213 261
#     4   9  18  32  48  66  91 122 154 190 230 270
#     4   9  16  26  39  58  85 114 143 177 218 261
#
# _framework density 21.571460999999999
#
# number of rings (size 3 to 8) (size 9 to 14) (size 15 to 20)
#    0.000    3.091    0.000    4.636    0.000    3.636 
#    0.000    3.636    0.000    0.000    0.000    0.636 
#    0.000    5.818    0.000    2.364    0.000    5.273 
#
# Total GULP energy -245017.258395 kJ/mol
# GULP energy per Si atom -5568.574054 kJ/mol
# Density = 2.152236 g / cm^3
# Si number density = 21.571461 Si / 1000 Ang^3
#
#
#
# Elastic Constant Matrix: (Units=GPa)
#
#
# Indices 1 2 3 4 5 6 
#
# 1 61.5583 3.8071 81.5229 0.0000 0.0000 0.0000
# 2 3.8071 41.6592 18.5132 0.0000 0.0000 0.0000
# 3 81.5229 18.5132 296.1240 0.0000 0.0000 0.0000
# 4 0.0000 0.0000 0.0000 26.5589 0.0000 0.0000
# 5 0.0000 0.0000 0.0000 0.0000 46.4283 0.0000
# 6 0.0000 0.0000 0.0000 0.0000 0.0000 5.0090
#
#
#
# Elastic Compliance Matrix: (Units=1/GPa)
#
#
# Indices 1 2 3 4 5 6 
#
# 1 0.025592 0.000815 -0.007097 0.000000 0.000000 0.000000
# 2 0.000815 0.024716 -0.001770 0.000000 0.000000 0.000000
# 3 -0.007097 -0.001770 0.005441 0.000000 0.000000 0.000000
# 4 0.000000 0.000000 0.000000 0.037652 0.000000 0.000000
# 5 0.000000 0.000000 0.000000 0.000000 0.021539 0.000000
# 6 0.000000 0.000000 0.000000 0.000000 0.000000 0.199641
#
#
# Mechanical properties :
#
#
# Convention : Reuss Voigt Hill
#
# Bulk Modulus (GPa) = 25.22227 67.44754 46.33490
# Shear Modulus (GPa) = 14.53913 35.29914 24.91913
#
# Velocity S-wave (km/s) = 2.59896 4.04961 3.40250
# Velocity P-wave (km/s) = 4.55236 7.29388 6.07966
#
# Compressibility (1/GPa) = 0.03964751
#
# Stress axis : x y z
#
# Youngs Moduli (GPa) = 39.07402 40.45922 183.78063
#
# Poissons Ratio (x) = -0.03297 1.30421
# Poissons Ratio (y) = -0.03184 0.32521
# Poissons Ratio (z) = 0.27729 0.07159
#
# Static dielectric constant tensor:
#      x y z
#    x 1.738320 0.000000 0.000000 
#    y 0.000000 1.901200 0.000000 
#    z 0.000000 0.000000 1.898540 
# 
# From -- ./inp_files/76775.got.cif
#   From: 2010.05.17/outbox.cif.g08.bks.cpg/sg65_39_cif.got.tgz:76775.got - 2010.06.03 17:01:31.
