data_PCOD9482383
_publ_section_title
;
Structure prediction by ZEFSAII (Michael W. Deem and Ramdas Pophale) SiO2 
 PCOD9482383
Probable space group: C M C A
;
_chemical_formula_sum "Si O2"
_cell_formula_units_Z 40
_cell_length_a 9.000000
_cell_length_b 27.000000
_cell_length_c 18.000000
_cell_angle_alpha 90.000000
_cell_angle_beta 90.000000
_cell_angle_gamma 90.000000
_cell_volume 4374.000000
_symmetry_space_group_name_H-M "C M C A"
_symmetry_group_IT_number 64
_symmetry_cell_setting 'orthorhombic'
loop_
_space_group_symop_operation_xyz
x,y,z
-x,1/2-y,1/2+z
x,-y,-z
-x,1/2+y,1/2-z
-x,-y,-z
x,1/2+y,1/2-z
-x,y,z
x,1/2-y,1/2+z
1/2+x,1/2+y,z
1/2-x,-y,1/2+z
1/2+x,1/2-y,-z
1/2-x,y,1/2-z
1/2-x,1/2-y,-z
1/2+x,y,1/2-z
1/2-x,1/2+y,z
1/2+x,-y,1/2+z
loop_
_atom_site_type_symbol
_atom_site_label
_atom_site_fract_x
_atom_site_fract_y
_atom_site_fract_z
Si Si1 0.821178 0.552908 0.832048
Si Si2 0.180796 0.453113 0.667942
Si Si3 0.677903 0.145438 0.414282
Si Si4 0.678320 0.646877 0.909515
Si Si5 0.180413 0.747349 0.917101
O O1 0.750000 0.555570 0.750000
O O2 0.750404 0.502969 0.866422
O O3 0.762488 0.601149 0.873451
O O4 0.000000 0.550294 0.828977
O O5 0.250000 0.449716 0.750000
O O6 0.231347 0.403903 0.625199
O O7 0.000000 0.456560 0.670293
O O8 0.500000 0.144392 0.406945
O O9 0.708273 0.144180 0.502060
O O10 0.723504 0.199225 0.383162
O O11 0.500000 0.645027 0.897897
O O12 0.746712 0.698862 0.881682
O O13 0.000000 0.743373 0.920799
O O14 0.250000 0.750000 0.000000
#
# Coordination Sequence:
#
# PCOD9482383 Si02
#       5
#    16  16  16  16  16
#     4  11  22  37  54  75 101 134 169 209 256 307
#     4  10  19  35  54  74 100 135 171 208 251 302
#     4   8  17  32  53  76 103 136 171 207 252 303
#     4  10  19  34  54  78 103 134 172 213 256 304
#     4   9  16  30  50  75 104 137 171 209 255 306
#
# _framework density 9.1449470000000002
#
# number of rings (size 3 to 8) (size 9 to 14) (size 15 to 20)
#    0.000    2.400    0.000    6.000    0.000    0.800 
#    0.000   17.000    0.000    2.400    0.000    0.000 
#    0.000    0.000    0.000    0.000    0.000    0.000 
#
# Total GULP energy -222807.142185 kJ/mol
# GULP energy per Si atom -5570.178555 kJ/mol
# Density = 0.912413 g / cm^3
# Si number density = 9.144947 Si / 1000 Ang^3
#
#
#
# Elastic Constant Matrix: (Units=GPa)
#
#
# Indices 1 2 3 4 5 6 
#
# 1 120.5224 66.1379 23.0761 0.0000 0.0000 0.0000
# 2 66.1379 228.8258 51.0784 0.0000 0.0000 0.0000
# 3 23.0761 51.0784 10.4735 0.0000 0.0000 0.0000
# 4 0.0000 0.0000 0.0000 45.6601 0.0000 0.0000
# 5 0.0000 0.0000 0.0000 0.0000 21.3286 0.0000
# 6 0.0000 0.0000 0.0000 0.0000 0.0000 34.7374
#
#
#
# Elastic Compliance Matrix: (Units=1/GPa)
#
#
# Indices 1 2 3 4 5 6 
#
# 1 0.005687 -0.013012 0.050927 0.000000 0.000000 0.000000
# 2 -0.013012 -0.019538 0.123955 0.000000 0.000000 0.000000
# 3 0.050927 0.123955 -0.621248 0.000000 0.000000 0.000000
# 4 0.000000 0.000000 0.000000 0.021901 0.000000 0.000000
# 5 0.000000 0.000000 0.000000 0.000000 0.046885 0.000000
# 6 0.000000 0.000000 0.000000 0.000000 0.000000 0.028787
#
#
# Mechanical properties :
#
#
# Convention : Reuss Voigt Hill
#
# Bulk Modulus (GPa) = -3.21173 71.15629 33.97228
# Shear Modulus (GPa) = -5.18106 34.98049 14.89972
#
# Velocity S-wave (km/s) = -1.68490 4.37803 2.85729
# Velocity P-wave (km/s) = 2.35479 8.03401 5.43140
#
# Compressibility (1/GPa) = -0.31135831
#
# Stress axis : x y z
#
# Youngs Moduli (GPa) = 175.85391 -51.18142 -1.60966
#
# Poissons Ratio (x) = -0.66595 0.08198
# Poissons Ratio (y) = 2.28812 0.19953
# Poissons Ratio (z) = -8.95572 6.34420
#
# Static dielectric constant tensor:
#      x y z
#    x 1.603990 0.000000 0.000000 
#    y 0.000000 1.714380 0.000000 
#    z 0.000000 0.000000 1.790190 
# 
# From -- ./inp_files/29779.got.cif
#   From: 2010.05.17/outbox.ucp.g08.bks.cvg/sg64_15_cif.got.tgz:29779.got - 2010.06.11 16:36:46.
