data_PCOD9482018
_publ_section_title
;
Structure prediction by ZEFSAII (Michael W. Deem and Ramdas Pophale) SiO2 
 PCOD9482018
Probable space group: C M C A
;
_chemical_formula_sum "Si O2"
_cell_formula_units_Z 40
_cell_length_a 13.810238
_cell_length_b 25.301761
_cell_length_c 4.943463
_cell_angle_alpha 90.000000
_cell_angle_beta 90.000000
_cell_angle_gamma 90.000000
_cell_volume 1727.361359
_symmetry_space_group_name_H-M "C M C A"
_symmetry_group_IT_number 64
_symmetry_cell_setting 'orthorhombic'
loop_
_space_group_symop_operation_xyz
x,y,z
-x,1/2-y,1/2+z
x,-y,-z
-x,1/2+y,1/2-z
-x,-y,-z
x,1/2+y,1/2-z
-x,y,z
x,1/2-y,1/2+z
1/2+x,1/2+y,z
1/2-x,-y,1/2+z
1/2+x,1/2-y,-z
1/2-x,y,1/2-z
1/2-x,1/2-y,-z
1/2+x,y,1/2-z
1/2-x,1/2+y,z
1/2+x,-y,1/2+z
loop_
_atom_site_type_symbol
_atom_site_label
_atom_site_fract_x
_atom_site_fract_y
_atom_site_fract_z
Si Si1 0.000000 0.785173 0.451967
Si Si2 0.366192 0.965783 0.755657
Si Si3 0.819359 0.357253 0.991366
O O1 0.901447 0.817808 0.403699
O O2 0.000000 0.765681 0.760156
O O3 0.250000 0.967786 0.750000
O O4 0.378333 0.904747 0.839419
O O5 0.397897 0.000000 0.500000
O O6 0.401157 0.000000 0.000000
O O7 0.750000 0.335760 0.750000
O O8 0.750000 0.373843 0.250000
#
# Coordination Sequence:
#
# PCOD9482018 Si02
#       3
#     8  16  16
#     4  12  28  46  66  96 131 170 229 292 334 384
#     4   9  16  30  56  91 125 161 201 247 308 382
#     4  11  23  42  68  97 132 176 220 269 334 399
#
# _framework density 23.156707999999998
#
# number of rings (size 3 to 8) (size 9 to 14) (size 15 to 20)
#    0.000    1.600    0.000    8.400    0.000    4.800 
#    0.000    2.000    0.000    0.000    0.000   33.600 
#    0.000    0.000    0.000    0.000    0.000    0.000 
#
# Total GULP energy -111414.908644 kJ/mol
# GULP energy per Si atom -5570.745432 kJ/mol
# Density = 2.310400 g / cm^3
# Si number density = 23.156708 Si / 1000 Ang^3
#
#
#
# Elastic Constant Matrix: (Units=GPa)
#
#
# Indices 1 2 3 4 5 6 
#
# 1 122.8678 32.7776 3.4194 0.0000 0.0000 0.0000
# 2 32.7776 73.8279 9.0800 0.0000 0.0000 0.0000
# 3 3.4194 9.0800 138.8391 0.0000 0.0000 0.0000
# 4 0.0000 0.0000 0.0000 40.4468 0.0000 0.0000
# 5 0.0000 0.0000 0.0000 0.0000 4.3385 0.0000
# 6 0.0000 0.0000 0.0000 0.0000 0.0000 61.0024
#
#
#
# Elastic Compliance Matrix: (Units=1/GPa)
#
#
# Indices 1 2 3 4 5 6 
#
# 1 0.009233 -0.004104 0.000041 0.000000 0.000000 0.000000
# 2 -0.004104 0.015479 -0.000911 0.000000 0.000000 0.000000
# 3 0.000041 -0.000911 0.007261 0.000000 0.000000 0.000000
# 4 0.000000 0.000000 0.000000 0.024724 0.000000 0.000000
# 5 0.000000 0.000000 0.000000 0.000000 0.230493 0.000000
# 6 0.000000 0.000000 0.000000 0.000000 0.000000 0.016393
#
#
# Mechanical properties :
#
#
# Convention : Reuss Voigt Hill
#
# Bulk Modulus (GPa) = 45.40436 47.34320 46.37378
# Shear Modulus (GPa) = 15.58251 40.50808 28.04529
#
# Velocity S-wave (km/s) = 2.59688 4.18700 3.48387
# Velocity P-wave (km/s) = 5.35179 6.62297 6.02102
#
# Compressibility (1/GPa) = 0.02202432
#
# Stress axis : x y z
#
# Youngs Moduli (GPa) = 108.31265 64.60292 137.71893
#
# Poissons Ratio (x) = 0.26513 -0.00565
# Poissons Ratio (y) = 0.44452 0.12550
# Poissons Ratio (z) = -0.00444 0.05887
#
# Static dielectric constant tensor:
#      x y z
#    x 1.870910 0.000000 0.000000 
#    y 0.000000 1.836800 0.000000 
#    z 0.000000 0.000000 1.814420 
# 
# From -- ./inp_files/572.got.cif
#   From: 2010.05.17/outbox.cif.g08.bks.cpg/sg64_1_cif.got.tgz:572.got - 2010.06.03 16:29:19.
