data_PCOD9482639
_publ_section_title
;
Structure prediction by ZEFSAII (Michael W. Deem and Ramdas Pophale) SiO2 
 PCOD9482639
Probable space group: C M M M
;
_chemical_formula_sum "Si O2"
_cell_formula_units_Z 48
_cell_length_a 24.077082
_cell_length_b 5.383168
_cell_length_c 23.955986
_cell_angle_alpha 90.000000
_cell_angle_beta 90.000000
_cell_angle_gamma 90.000000
_cell_volume 3104.958759
_symmetry_space_group_name_H-M "C M M M"
_symmetry_group_IT_number 65
_symmetry_cell_setting 'orthorhombic'
loop_
_space_group_symop_operation_xyz
x,y,z
-x,-y,z
x,-y,-z
-x,y,-z
-x,-y,-z
x,y,-z
-x,y,z
x,-y,z
1/2+x,1/2+y,z
1/2-x,1/2-y,z
1/2+x,1/2-y,-z
1/2-x,1/2+y,-z
1/2-x,1/2-y,-z
1/2+x,1/2+y,-z
1/2-x,1/2+y,z
1/2+x,1/2-y,z
loop_
_atom_site_type_symbol
_atom_site_label
_atom_site_fract_x
_atom_site_fract_y
_atom_site_fract_z
Si Si1 0.309548 0.000000 0.828350
Si Si2 0.127344 0.500000 0.398115
Si Si3 0.286463 0.000000 0.500000
Si Si4 0.566424 0.500000 0.433598
Si Si5 0.784935 0.500000 0.303311
Si Si6 0.183162 0.000000 0.124225
Si Si7 0.212804 0.000000 0.000000
O O1 0.297924 0.000000 0.762706
O O2 0.249223 0.000000 0.859359
O O3 0.339156 0.750354 0.848270
O O4 0.174691 0.500000 0.445726
O O5 0.091826 0.250140 0.407338
O O6 0.159430 0.500000 0.339602
O O7 0.250000 0.250000 0.500000
O O8 0.500000 0.500000 0.428056
O O9 0.579851 0.500000 0.500000
O O10 0.750000 0.750000 0.315998
O O11 0.179273 0.000000 0.057720
O O12 0.250000 0.250000 0.000000
#
# Coordination Sequence:
#
# PCOD9482639 Si02
#       7
#     8   8   4   8   8   8   4
#     4  10  16  27  39  52  79 116 155 190 223 251
#     4  12  23  37  54  78  98 121 161 190 231 302
#     4  12  22  36  49  70 107 134 146 182 228 272
#     4  11  22  41  62  77  92 115 147 201 255 292
#     4  12  21  33  48  68  96 134 163 188 226 268
#     4  10  16  25  36  53  77 108 160 203 235 253
#     4  12  16  20  34  52  72 102 144 218 246 246
#
# _framework density 15.459142999999999
#
# number of rings (size 3 to 8) (size 9 to 14) (size 15 to 20)
#    0.000    0.833    8.333    3.500    0.000    1.333 
#    0.000    0.000    0.000    0.000    0.000    0.000 
#    0.000    0.000    0.000    0.000    0.000    0.000 
#
# Total GULP energy -133902.322301 kJ/mol
# GULP energy per Si atom -5579.263429 kJ/mol
# Density = 1.542396 g / cm^3
# Si number density = 15.459143 Si / 1000 Ang^3
#
#
#
# Elastic Constant Matrix: (Units=GPa)
#
#
# Indices 1 2 3 4 5 6 
#
# 1 48.8072 45.3896 34.4938 0.0000 0.0000 0.0000
# 2 45.3896 192.8629 35.4383 0.0000 0.0000 0.0000
# 3 34.4938 35.4383 92.4766 0.0000 0.0000 0.0000
# 4 0.0000 0.0000 0.0000 16.1530 0.0000 0.0000
# 5 0.0000 0.0000 0.0000 0.0000 0.8985 0.0000
# 6 0.0000 0.0000 0.0000 0.0000 0.0000 21.5086
#
#
#
# Elastic Compliance Matrix: (Units=1/GPa)
#
#
# Indices 1 2 3 4 5 6 
#
# 1 0.033148 -0.005948 -0.010085 0.000000 0.000000 0.000000
# 2 -0.005948 0.006645 -0.000328 0.000000 0.000000 0.000000
# 3 -0.010085 -0.000328 0.014701 0.000000 0.000000 0.000000
# 4 0.000000 0.000000 0.000000 0.061908 0.000000 0.000000
# 5 0.000000 0.000000 0.000000 0.000000 1.113016 0.000000
# 6 0.000000 0.000000 0.000000 0.000000 0.000000 0.046493
#
#
# Mechanical properties :
#
#
# Convention : Reuss Voigt Hill
#
# Bulk Modulus (GPa) = 45.93012 62.75447 54.34229
# Shear Modulus (GPa) = 3.79971 22.30034 13.05003
#
# Velocity S-wave (km/s) = 1.56947 3.80219 2.90860
# Velocity P-wave (km/s) = 5.74974 7.74322 6.81971
#
# Compressibility (1/GPa) = 0.02177221
#
# Stress axis : x y z
#
# Youngs Moduli (GPa) = 30.16815 150.48590 68.02372
#
# Poissons Ratio (x) = 0.89511 0.68599
# Poissons Ratio (y) = 0.17944 0.02230
# Poissons Ratio (z) = 0.30423 0.04934
#
# Static dielectric constant tensor:
#      x y z
#    x 1.471060 0.000000 0.000000 
#    y 0.000000 2.047680 0.000000 
#    z 0.000000 0.000000 1.516420 
# 
# From -- ./inp_files/58352.got.cif
#   From: 2010.05.17/outbox.cif.g08.bks.cpg/sg65_30_cif.got.tgz:58352.got - 2010.06.03 17:01:31.
