data_PCOD9482203
_publ_section_title
;
Structure prediction by ZEFSAII (Michael W. Deem and Ramdas Pophale) SiO2 
 PCOD9482203
Probable space group: C M C A
;
_chemical_formula_sum "Si O2"
_cell_formula_units_Z 48
_cell_length_a 25.489659
_cell_length_b 8.356672
_cell_length_c 9.013736
_cell_angle_alpha 90.000000
_cell_angle_beta 90.000000
_cell_angle_gamma 90.000000
_cell_volume 1920.004365
_symmetry_space_group_name_H-M "C M C A"
_symmetry_group_IT_number 64
_symmetry_cell_setting 'orthorhombic'
loop_
_space_group_symop_operation_xyz
x,y,z
-x,1/2-y,1/2+z
x,-y,-z
-x,1/2+y,1/2-z
-x,-y,-z
x,1/2+y,1/2-z
-x,y,z
x,1/2-y,1/2+z
1/2+x,1/2+y,z
1/2-x,-y,1/2+z
1/2+x,1/2-y,-z
1/2-x,y,1/2-z
1/2-x,1/2-y,-z
1/2+x,y,1/2-z
1/2-x,1/2+y,z
1/2+x,-y,1/2+z
loop_
_atom_site_type_symbol
_atom_site_label
_atom_site_fract_x
_atom_site_fract_y
_atom_site_fract_z
Si Si1 0.442328 0.399330 0.852053
Si Si2 0.784593 0.857117 0.890373
Si Si3 0.125960 0.108137 0.636723
O O1 0.500000 0.391773 0.778833
O O2 0.422701 0.224494 0.897706
O O3 0.398094 0.487826 0.755981
O O4 0.446696 0.500000 0.000000
O O5 0.750000 0.916693 0.750000
O O6 0.827704 0.732275 0.827193
O O7 0.750000 0.750000 0.000000
O O8 0.804453 0.000000 0.000000
O O9 0.143444 0.000000 0.500000
#
# Coordination Sequence:
#
# PCOD9482203 Si02
#       3
#    16  16  16
#     4  11  26  48  78 116 158 208 269 334 411 490
#     4  12  30  52  81 121 167 218 277 343 416 500
#     4  12  28  49  78 116 158 211 268 338 412 492
#
# _framework density 24.999943999999999
#
# number of rings (size 3 to 8) (size 9 to 14) (size 15 to 20)
#    0.000    0.333    0.000    6.000   18.667    5.333 
#    0.000    0.000    0.000    0.000    0.000    0.000 
#    0.000    0.000    0.000    0.000    0.000    0.000 
#
# Total GULP energy -134378.703907 kJ/mol
# GULP energy per Si atom -5599.112663 kJ/mol
# Density = 2.494304 g / cm^3
# Si number density = 24.999944 Si / 1000 Ang^3
#
#
#
# Elastic Constant Matrix: (Units=GPa)
#
#
# Indices 1 2 3 4 5 6 
#
# 1 128.1165 45.5477 34.7748 0.0000 0.0000 0.0000
# 2 45.5477 141.1344 23.2584 0.0000 0.0000 0.0000
# 3 34.7748 23.2584 84.9052 0.0000 0.0000 0.0000
# 4 0.0000 0.0000 0.0000 51.3234 0.0000 0.0000
# 5 0.0000 0.0000 0.0000 0.0000 40.8501 0.0000
# 6 0.0000 0.0000 0.0000 0.0000 0.0000 59.8592
#
#
#
# Elastic Compliance Matrix: (Units=1/GPa)
#
#
# Indices 1 2 3 4 5 6 
#
# 1 0.009593 -0.002564 -0.003227 0.000000 0.000000 0.000000
# 2 -0.002564 0.008106 -0.001170 0.000000 0.000000 0.000000
# 3 -0.003227 -0.001170 0.013420 0.000000 0.000000 0.000000
# 4 0.000000 0.000000 0.000000 0.019484 0.000000 0.000000
# 5 0.000000 0.000000 0.000000 0.000000 0.024480 0.000000
# 6 0.000000 0.000000 0.000000 0.000000 0.000000 0.016706
#
#
# Mechanical properties :
#
#
# Convention : Reuss Voigt Hill
#
# Bulk Modulus (GPa) = 58.15081 62.36866 60.25973
# Shear Modulus (GPa) = 44.86622 47.11155 45.98889
#
# Velocity S-wave (km/s) = 4.24093 4.34575 4.29366
# Velocity P-wave (km/s) = 6.87688 7.08396 6.98119
#
# Compressibility (1/GPa) = 0.01719666
#
# Stress axis : x y z
#
# Youngs Moduli (GPa) = 104.24522 123.36841 74.51615
#
# Poissons Ratio (x) = 0.31633 0.24043
# Poissons Ratio (y) = 0.26730 0.08720
# Poissons Ratio (z) = 0.33635 0.14437
#
# Static dielectric constant tensor:
#      x y z
#    x 2.096210 0.000000 0.000000 
#    y 0.000000 1.924420 0.000000 
#    z 0.000000 0.000000 1.927160 
# 
# From -- ./inp_files/10791.got.cif
#   From: 2010.05.17/outbox.cif.g08.bks.cpg/sg64_6_cif.got.tgz:10791.got - 2010.06.03 16:29:19.
