data_PCOD9482359
_publ_section_title
;
Structure prediction by ZEFSAII (Michael W. Deem and Ramdas Pophale) SiO2 
 PCOD9482359
Probable space group: C M C A
;
_chemical_formula_sum "Si O2"
_cell_formula_units_Z 56
_cell_length_a 15.000000
_cell_length_b 30.000000
_cell_length_c 12.000000
_cell_angle_alpha 90.000000
_cell_angle_beta 90.000000
_cell_angle_gamma 90.000000
_cell_volume 5400.000000
_symmetry_space_group_name_H-M "C M C A"
_symmetry_group_IT_number 64
_symmetry_cell_setting 'orthorhombic'
loop_
_space_group_symop_operation_xyz
x,y,z
-x,1/2-y,1/2+z
x,-y,-z
-x,1/2+y,1/2-z
-x,-y,-z
x,1/2+y,1/2-z
-x,y,z
x,1/2-y,1/2+z
1/2+x,1/2+y,z
1/2-x,-y,1/2+z
1/2+x,1/2-y,-z
1/2-x,y,1/2-z
1/2-x,1/2-y,-z
1/2+x,y,1/2-z
1/2-x,1/2+y,z
1/2+x,-y,1/2+z
loop_
_atom_site_type_symbol
_atom_site_label
_atom_site_fract_x
_atom_site_fract_y
_atom_site_fract_z
Si Si1 0.609258 0.952820 0.552076
Si Si2 0.109395 0.380292 0.998736
Si Si3 0.107749 0.809688 0.224154
Si Si4 0.273405 0.294034 0.429546
Si Si5 0.597471 0.402258 0.148915
Si Si6 0.606951 0.051999 0.191373
Si Si7 0.338785 0.956238 0.176741
O O1 0.500000 0.952614 0.549025
O O2 0.644721 0.915308 0.465818
O O3 0.635444 0.945327 0.679289
O O4 0.638281 0.000000 0.500000
O O5 0.122357 0.402977 0.877638
O O6 0.000000 0.371291 0.014735
O O7 0.173017 0.336419 0.014514
O O8 0.138844 0.421128 0.080378
O O9 0.173927 0.803980 0.118775
O O10 0.157954 0.785381 0.325937
O O11 0.122726 0.863230 0.234497
O O12 0.000000 0.800099 0.218386
O O13 0.250000 0.250000 0.500000
O O14 0.500000 0.386759 0.112278
O O15 0.592098 0.446553 0.222748
O O16 0.500000 0.044277 0.186317
O O17 0.653523 0.007567 0.142706
O O18 0.250000 0.946788 0.250000
#
# Coordination Sequence:
#
# PCOD9482359 Si02
#       7
#    16  16  16  16  16  16  16
#     4   9  16  30  54  83 121 172 232 289 334 394
#     4  11  23  42  69 100 142 191 244 302 371 444
#     4  10  22  43  71 101 137 178 228 287 360 444
#     4  11  24  44  70 106 139 172 231 306 371 435
#     4  10  18  33  60  89 119 167 231 286 334 405
#     4  10  21  39  60  92 137 190 244 295 358 431
#     4  12  22  35  56  93 137 186 241 292 345 415
#
# _framework density 10.370369999999999
#
# number of rings (size 3 to 8) (size 9 to 14) (size 15 to 20)
#    0.000    1.571    2.857    3.000    0.000    2.286 
#    7.714    2.857    0.000    1.714    0.000    0.000 
#    0.000    0.000    0.000    0.000    0.000    0.143 
#
# Total GULP energy -311738.640315 kJ/mol
# GULP energy per Si atom -5566.761434 kJ/mol
# Density = 1.034677 g / cm^3
# Si number density = 10.370370 Si / 1000 Ang^3
#
#
#
# Elastic Constant Matrix: (Units=GPa)
#
#
# Indices 1 2 3 4 5 6 
#
# 1 124.0055 41.1725 34.7586 0.0000 0.0000 0.0000
# 2 41.1725 110.3326 58.2159 0.0000 0.0000 0.0000
# 3 34.7586 58.2159 119.5646 0.0000 0.0000 0.0000
# 4 0.0000 0.0000 0.0000 44.7299 0.0000 0.0000
# 5 0.0000 0.0000 0.0000 0.0000 29.9797 0.0000
# 6 0.0000 0.0000 0.0000 0.0000 0.0000 27.2714
#
#
#
# Elastic Compliance Matrix: (Units=1/GPa)
#
#
# Indices 1 2 3 4 5 6 
#
# 1 0.009370 -0.002771 -0.001375 0.000000 0.000000 0.000000
# 2 -0.002771 0.013017 -0.005532 0.000000 0.000000 0.000000
# 3 -0.001375 -0.005532 0.011457 0.000000 0.000000 0.000000
# 4 0.000000 0.000000 0.000000 0.022356 0.000000 0.000000
# 5 0.000000 0.000000 0.000000 0.000000 0.033356 0.000000
# 6 0.000000 0.000000 0.000000 0.000000 0.000000 0.036668
#
#
# Mechanical properties :
#
#
# Convention : Reuss Voigt Hill
#
# Bulk Modulus (GPa) = 69.02602 69.13297 69.07949
# Shear Modulus (GPa) = 33.24277 35.04657 34.14467
#
# Velocity S-wave (km/s) = 4.00781 4.11511 4.06182
# Velocity P-wave (km/s) = 7.40063 7.48219 7.44152
#
# Compressibility (1/GPa) = 0.01448729
#
# Stress axis : x y z
#
# Youngs Moduli (GPa) = 106.72909 76.82498 87.28372
#
# Poissons Ratio (x) = 0.21289 0.11998
# Poissons Ratio (y) = 0.29576 0.48287
# Poissons Ratio (z) = 0.14670 0.42501
#
# Static dielectric constant tensor:
#      x y z
#    x 1.873630 0.000000 0.000000 
#    y 0.000000 1.791290 0.000000 
#    z 0.000000 0.000000 1.827170 
# 
# From -- ./inp_files/14988.got.cif
#   From: 2010.05.17/outbox.ucp.g08.bks.cvg/sg64_8_cif.got.tgz:14988.got - 2010.06.11 16:36:46.
