data_PCOD9482176
_publ_section_title
;
Structure prediction by ZEFSAII (Michael W. Deem and Ramdas Pophale) SiO2 
 PCOD9482176
Probable space group: C M C A
;
_chemical_formula_sum "Si O2"
_cell_formula_units_Z 64
_cell_length_a 22.743829
_cell_length_b 8.797280
_cell_length_c 14.592581
_cell_angle_alpha 90.000000
_cell_angle_beta 90.000000
_cell_angle_gamma 90.000000
_cell_volume 2919.739525
_symmetry_space_group_name_H-M "C M C A"
_symmetry_group_IT_number 64
_symmetry_cell_setting 'orthorhombic'
loop_
_space_group_symop_operation_xyz
x,y,z
-x,1/2-y,1/2+z
x,-y,-z
-x,1/2+y,1/2-z
-x,-y,-z
x,1/2+y,1/2-z
-x,y,z
x,1/2-y,1/2+z
1/2+x,1/2+y,z
1/2-x,-y,1/2+z
1/2+x,1/2-y,-z
1/2-x,y,1/2-z
1/2-x,1/2-y,-z
1/2+x,y,1/2-z
1/2-x,1/2+y,z
1/2+x,-y,1/2+z
loop_
_atom_site_type_symbol
_atom_site_label
_atom_site_fract_x
_atom_site_fract_y
_atom_site_fract_z
Si Si1 0.859100 0.370104 0.133345
Si Si2 0.271725 0.128337 0.571254
Si Si3 0.065942 0.679973 0.509349
Si Si4 0.878178 0.215492 0.321279
O O1 0.789112 0.404635 0.124140
O O2 0.874659 0.254355 0.214800
O O3 0.882281 0.536464 0.159338
O O4 0.888091 0.291404 0.043508
O O5 0.250000 0.250000 0.500000
O O6 0.320396 0.200333 0.636421
O O7 0.293053 0.000000 0.500000
O O8 0.077075 0.500000 0.500000
O O9 0.070721 0.712975 0.617398
O O10 0.000000 0.712185 0.475067
#
# Coordination Sequence:
#
# PCOD9482176 Si02
#       4
#    16  16  16  16
#     4  12  26  43  67 102 135 180 224 275 337 398
#     4  12  23  41  69  98 137 179 221 271 332 395
#     4  11  25  47  72  96 128 173 224 284 345 404
#     4  12  26  42  68 100 138 178 225 277 334 402
#
# _framework density 21.919764000000001
#
# number of rings (size 3 to 8) (size 9 to 14) (size 15 to 20)
#    0.000    0.250    5.000    3.750    3.500    5.000 
#    0.000    0.000    0.000    0.000    0.000    0.000 
#    0.000    0.000    0.000    0.000    0.000    0.000 
#
# Total GULP energy -178636.345926 kJ/mol
# GULP energy per Si atom -5582.385810 kJ/mol
# Density = 2.186987 g / cm^3
# Si number density = 21.919764 Si / 1000 Ang^3
#
#
#
# Elastic Constant Matrix: (Units=GPa)
#
#
# Indices 1 2 3 4 5 6 
#
# 1 108.1322 14.4583 4.1792 0.0000 0.0000 0.0000
# 2 14.4583 78.7547 -13.1805 0.0000 0.0000 0.0000
# 3 4.1792 -13.1805 81.3669 0.0000 0.0000 0.0000
# 4 0.0000 0.0000 0.0000 37.5779 0.0000 0.0000
# 5 0.0000 0.0000 0.0000 0.0000 -5.8052 0.0000
# 6 0.0000 0.0000 0.0000 0.0000 0.0000 14.9421
#
#
#
# Elastic Compliance Matrix: (Units=1/GPa)
#
#
# Indices 1 2 3 4 5 6 
#
# 1 0.009530 -0.001883 -0.000794 0.000000 0.000000 0.000000
# 2 -0.001883 0.013423 0.002271 0.000000 0.000000 0.000000
# 3 -0.000794 0.002271 0.012699 0.000000 0.000000 0.000000
# 4 0.000000 0.000000 0.000000 0.026611 0.000000 0.000000
# 5 0.000000 0.000000 0.000000 0.000000 -0.172259 0.000000
# 6 0.000000 0.000000 0.000000 0.000000 0.000000 0.066925
#
#
# Mechanical properties :
#
#
# Convention : Reuss Voigt Hill
#
# Bulk Modulus (GPa) = 28.70219 31.01866 29.86043
# Shear Modulus (GPa) = -163.16098 26.86275 -68.14912
#
# Velocity S-wave (km/s) = -8.63696 3.50452 -5.58191
# Velocity P-wave (km/s) = 9.29194 5.52786 5.28124
#
# Compressibility (1/GPa) = 0.03484055
#
# Stress axis : x y z
#
# Youngs Moduli (GPa) = 104.92774 74.49695 78.74815
#
# Poissons Ratio (x) = 0.14025 0.06256
# Poissons Ratio (y) = 0.19754 -0.17885
# Poissons Ratio (z) = 0.08336 -0.16919
#
# Static dielectric constant tensor:
#      x y z
#    x 2.043710 0.000000 0.000000 
#    y 0.000000 1.934090 0.000000 
#    z 0.000000 0.000000 1.774620 
# 
# From -- ./inp_files/26925.got.cif
#   From: 2010.05.17/outbox.cif.g08.bks.cpg/sg64_14_cif.got.tgz:26925.got - 2010.06.03 16:29:19.
