data_PCOD9482111
_publ_section_title
;
Structure prediction by ZEFSAII (Michael W. Deem and Ramdas Pophale) SiO2 
 PCOD9482111
Probable space group: C M C A
;
_chemical_formula_sum "Si O2"
_cell_formula_units_Z 56
_cell_length_a 18.571386
_cell_length_b 8.536650
_cell_length_c 15.806088
_cell_angle_alpha 90.000000
_cell_angle_beta 90.000000
_cell_angle_gamma 90.000000
_cell_volume 2505.856448
_symmetry_space_group_name_H-M "C M C A"
_symmetry_group_IT_number 64
_symmetry_cell_setting 'orthorhombic'
loop_
_space_group_symop_operation_xyz
x,y,z
-x,1/2-y,1/2+z
x,-y,-z
-x,1/2+y,1/2-z
-x,-y,-z
x,1/2+y,1/2-z
-x,y,z
x,1/2-y,1/2+z
1/2+x,1/2+y,z
1/2-x,-y,1/2+z
1/2+x,1/2-y,-z
1/2-x,y,1/2-z
1/2-x,1/2-y,-z
1/2+x,y,1/2-z
1/2-x,1/2+y,z
1/2+x,-y,1/2+z
loop_
_atom_site_type_symbol
_atom_site_label
_atom_site_fract_x
_atom_site_fract_y
_atom_site_fract_z
Si Si1 0.706705 0.820449 0.137205
Si Si2 0.000000 0.614812 0.717049
Si Si3 0.375668 0.500000 0.500000
Si Si4 0.000000 0.432328 0.874273
Si Si5 0.658443 0.474296 0.190015
O O1 0.684766 0.645884 0.163190
O O2 0.675980 0.933874 0.211853
O O3 0.792263 0.849651 0.139808
O O4 0.672892 0.876241 0.049821
O O5 0.000000 0.589200 0.818115
O O6 0.926536 0.544488 0.679759
O O7 0.000000 0.796430 0.694457
O O8 0.430025 0.576708 0.432483
#
# Coordination Sequence:
#
# PCOD9482111 Si02
#       5
#    16   8   8   8  16
#     4  11  24  45  72 102 143 186 244 292 352 422
#     4  12  24  45  80 104 136 188 245 291 336 450
#     4  11  26  44  70 107 152 182 228 307 368 404
#     4  11  26  45  76 106 145 187 236 292 366 416
#     4  11  24  43  76 102 138 193 247 281 347 437
#
# _framework density 22.347648
#
# number of rings (size 3 to 8) (size 9 to 14) (size 15 to 20)
#    0.000    0.857    2.857    5.143    4.000    2.286 
#    0.000    1.429    0.000    0.000    0.000    0.000 
#    0.000    0.000    0.000    0.000    0.000    0.000 
#
# Total GULP energy -156741.494577 kJ/mol
# GULP energy per Si atom -5597.910521 kJ/mol
# Density = 2.229678 g / cm^3
# Si number density = 22.347648 Si / 1000 Ang^3
#
#
#
# Elastic Constant Matrix: (Units=GPa)
#
#
# Indices 1 2 3 4 5 6 
#
# 1 206.2467 29.8937 34.9266 0.0000 0.0000 0.0000
# 2 29.8937 77.8976 26.3622 0.0000 0.0000 0.0000
# 3 34.9266 26.3622 90.8716 0.0000 0.0000 0.0000
# 4 0.0000 0.0000 0.0000 15.6743 0.0000 0.0000
# 5 0.0000 0.0000 0.0000 0.0000 42.8779 0.0000
# 6 0.0000 0.0000 0.0000 0.0000 0.0000 19.7715
#
#
#
# Elastic Compliance Matrix: (Units=1/GPa)
#
#
# Indices 1 2 3 4 5 6 
#
# 1 0.005340 -0.001502 -0.001617 0.000000 0.000000 0.000000
# 2 -0.001502 0.014657 -0.003675 0.000000 0.000000 0.000000
# 3 -0.001617 -0.003675 0.012692 0.000000 0.000000 0.000000
# 4 0.000000 0.000000 0.000000 0.063799 0.000000 0.000000
# 5 0.000000 0.000000 0.000000 0.000000 0.023322 0.000000
# 6 0.000000 0.000000 0.000000 0.000000 0.000000 0.050578
#
#
# Mechanical properties :
#
#
# Convention : Reuss Voigt Hill
#
# Bulk Modulus (GPa) = 52.35003 61.93121 57.14062
# Shear Modulus (GPa) = 26.26841 34.58697 30.42769
#
# Velocity S-wave (km/s) = 3.43219 3.93832 3.69394
# Velocity P-wave (km/s) = 6.25961 6.96084 6.61952
#
# Compressibility (1/GPa) = 0.01910219
#
# Stress axis : x y z
#
# Youngs Moduli (GPa) = 187.26374 68.22462 78.78979
#
# Poissons Ratio (x) = 0.10248 0.12738
# Poissons Ratio (y) = 0.28130 0.28954
# Poissons Ratio (z) = 0.30275 0.25071
#
# Static dielectric constant tensor:
#      x y z
#    x 1.868880 0.000000 0.000000 
#    y 0.000000 1.812550 0.000000 
#    z 0.000000 0.000000 1.816180 
# 
# From -- ./inp_files/25943.got.cif
#   From: 2010.05.17/outbox.cif.g08.bks.cpg/sg64_13_cif.got.tgz:25943.got - 2010.06.03 16:29:19.
