data_PCOD9482921
_publ_section_title
;
Structure prediction by ZEFSAII (Michael W. Deem and Ramdas Pophale) SiO2 
 PCOD9482921
Probable space group: C M M M
;
_chemical_formula_sum "Si O2"
_cell_formula_units_Z 88
_cell_length_a 14.759889
_cell_length_b 21.791783
_cell_length_c 14.297221
_cell_angle_alpha 90.000000
_cell_angle_beta 90.000000
_cell_angle_gamma 90.000000
_cell_volume 4598.619615
_symmetry_space_group_name_H-M "C M M M"
_symmetry_group_IT_number 65
_symmetry_cell_setting 'orthorhombic'
loop_
_space_group_symop_operation_xyz
x,y,z
-x,-y,z
x,-y,-z
-x,y,-z
-x,-y,-z
x,y,-z
-x,y,z
x,-y,z
1/2+x,1/2+y,z
1/2-x,1/2-y,z
1/2+x,1/2-y,-z
1/2-x,1/2+y,-z
1/2-x,1/2-y,-z
1/2+x,1/2+y,-z
1/2-x,1/2+y,z
1/2+x,1/2-y,z
loop_
_atom_site_type_symbol
_atom_site_label
_atom_site_fract_x
_atom_site_fract_y
_atom_site_fract_z
Si Si1 0.101445 0.341835 0.214022
Si Si2 0.357418 0.761929 0.394488
Si Si3 0.101608 0.120182 0.607411
Si Si4 0.105860 0.215854 0.890729
Si Si5 0.895506 0.000000 0.888511
Si Si6 0.207354 0.109039 0.789332
O O1 0.110601 0.307493 0.314222
O O2 0.113117 0.286624 0.139259
O O3 0.184645 0.388144 0.204429
O O4 0.000000 0.367084 0.204469
O O5 0.374363 0.784979 0.500000
O O6 0.250000 0.750000 0.384399
O O7 0.400060 0.694406 0.386465
O O8 0.124331 0.104766 0.500000
O O9 0.173300 0.098831 0.683615
O O10 0.000000 0.097458 0.628396
O O11 0.168738 0.174418 0.825508
O O12 0.000000 0.197793 0.876607
O O13 0.127892 0.207600 0.000000
O O14 0.841863 0.941104 0.852099
O O15 0.000000 0.000000 0.855222
O O16 0.897301 0.000000 0.000000
#
# Coordination Sequence:
#
# PCOD9482921 Si02
#       6
#    16  16  16  16   8  16
#     4  11  22  35  53  83 118 153 191 230 280 341
#     4  10  17  29  50  81 122 162 195 227 273 335
#     4  10  19  31  52  83 118 153 186 226 281 341
#     4  10  20  34  55  83 113 143 178 226 288 349
#     4  11  26  46  68  90 108 137 188 242 292 348
#     4  12  22  38  59  82 112 151 190 237 284 335
#
# _framework density 19.136178000000001
#
# number of rings (size 3 to 8) (size 9 to 14) (size 15 to 20)
#    0.000    1.364    3.636    3.273    0.000    4.727 
#    0.000    0.909    0.000    2.182    0.000    0.000 
#    0.000    2.909    0.000    0.000    0.000    0.000 
#
# Total GULP energy -245892.261941 kJ/mol
# GULP energy per Si atom -5588.460499 kJ/mol
# Density = 1.909262 g / cm^3
# Si number density = 19.136178 Si / 1000 Ang^3
#
#
#
# Elastic Constant Matrix: (Units=GPa)
#
#
# Indices 1 2 3 4 5 6 
#
# 1 154.6220 32.9912 42.3191 0.0000 0.0000 0.0000
# 2 32.9912 24.5596 8.3079 0.0000 0.0000 0.0000
# 3 42.3191 8.3079 87.3827 0.0000 0.0000 0.0000
# 4 0.0000 0.0000 0.0000 17.0739 0.0000 0.0000
# 5 0.0000 0.0000 0.0000 0.0000 20.7523 0.0000
# 6 0.0000 0.0000 0.0000 0.0000 0.0000 -11.8562
#
#
#
# Elastic Compliance Matrix: (Units=1/GPa)
#
#
# Indices 1 2 3 4 5 6 
#
# 1 0.010119 -0.012332 -0.003728 0.000000 0.000000 0.000000
# 2 -0.012332 0.057099 0.000544 0.000000 0.000000 0.000000
# 3 -0.003728 0.000544 0.013198 0.000000 0.000000 0.000000
# 4 0.000000 0.000000 0.000000 0.058569 0.000000 0.000000
# 5 0.000000 0.000000 0.000000 0.000000 0.048188 0.000000
# 6 0.000000 0.000000 0.000000 0.000000 0.000000 -0.084344
#
#
# Mechanical properties :
#
#
# Convention : Reuss Voigt Hill
#
# Bulk Modulus (GPa) = 20.24996 48.20007 34.22502
# Shear Modulus (GPa) = 33.26213 17.39041 25.32627
#
# Velocity S-wave (km/s) = 4.17367 3.01785 3.64191
# Velocity P-wave (km/s) = 5.81645 6.11440 5.96728
#
# Compressibility (1/GPa) = 0.04938280
#
# Stress axis : x y z
#
# Youngs Moduli (GPa) = 98.82466 17.51353 75.77051
#
# Poissons Ratio (x) = 0.21597 0.28248
# Poissons Ratio (y) = 1.21868 -0.04119
# Poissons Ratio (z) = 0.36843 -0.00952
#
# Static dielectric constant tensor:
#      x y z
#    x 1.694210 0.000000 0.000000 
#    y 0.000000 1.685470 0.000000 
#    z 0.000000 0.000000 1.676850 
# 
# From -- ./inp_files/40193.got.cif
#   From: 2010.05.17/outbox.cif.g08.bks.cpg/sg65_21_cif.got.tgz:40193.got - 2010.06.03 17:01:31.
