data_PCOD9482327
_publ_section_title
;
Structure prediction by ZEFSAII (Michael W. Deem and Ramdas Pophale) SiO2 
 PCOD9482327
Probable space group: C M C A
;
_chemical_formula_sum "Si O2"
_cell_formula_units_Z 96
_cell_length_a 7.515853
_cell_length_b 28.644006
_cell_length_c 24.731585
_cell_angle_alpha 90.000000
_cell_angle_beta 90.000000
_cell_angle_gamma 90.000000
_cell_volume 5324.317969
_symmetry_space_group_name_H-M "C M C A"
_symmetry_group_IT_number 64
_symmetry_cell_setting 'orthorhombic'
loop_
_space_group_symop_operation_xyz
x,y,z
-x,1/2-y,1/2+z
x,-y,-z
-x,1/2+y,1/2-z
-x,-y,-z
x,1/2+y,1/2-z
-x,y,z
x,1/2-y,1/2+z
1/2+x,1/2+y,z
1/2-x,-y,1/2+z
1/2+x,1/2-y,-z
1/2-x,y,1/2-z
1/2-x,1/2-y,-z
1/2+x,y,1/2-z
1/2-x,1/2+y,z
1/2+x,-y,1/2+z
loop_
_atom_site_type_symbol
_atom_site_label
_atom_site_fract_x
_atom_site_fract_y
_atom_site_fract_z
Si Si1 0.786855 0.572266 0.689043
Si Si2 0.282993 0.981489 0.415574
Si Si3 0.782961 0.927650 0.975750
Si Si4 0.287694 0.322707 0.977441
Si Si5 0.786766 0.178927 0.810957
Si Si6 0.214015 0.731674 0.583747
O O1 0.750000 0.556113 0.750000
O O2 0.720166 0.539113 0.641252
O O3 0.718731 0.625587 0.683751
O O4 0.000000 0.574608 0.683165
O O5 0.500000 0.982277 0.414558
O O6 0.233395 0.947282 0.465064
O O7 0.224765 0.033442 0.432444
O O8 0.719714 0.874886 0.967771
O O9 0.000000 0.927407 0.974291
O O10 0.500000 0.326751 0.983910
O O11 0.255624 0.285124 0.930473
O O12 0.218886 0.299526 0.033203
O O13 0.750000 0.195257 0.750000
O O14 0.720104 0.211524 0.859365
O O15 0.000000 0.176635 0.816215
O O16 0.000000 0.727974 0.583798
#
# Coordination Sequence:
#
# PCOD9482327 Si02
#       6
#    16  16  16  16  16  16
#     4   9  16  26  41  61  83 106 131 161 198 238
#     4   8  13  22  39  62  84 104 129 163 200 234
#     4   8  13  22  39  63  84 102 130 167 199 229
#     4   9  16  26  42  63  84 106 134 166 198 236
#     4   9  17  28  42  60  82 107 134 165 201 240
#     4   9  17  28  41  59  84 110 133 162 203 243
#
# _framework density 18.030477999999999
#
# number of rings (size 3 to 8) (size 9 to 14) (size 15 to 20)
#    0.000    3.333    0.000    2.000    0.000    4.667 
#    0.000    0.000    0.000    5.000    0.000    7.000 
#    0.000    0.000    0.000    0.000    0.000    0.000 
#
# Total GULP energy -267493.850862 kJ/mol
# GULP energy per Si atom -5572.788560 kJ/mol
# Density = 1.798944 g / cm^3
# Si number density = 18.030478 Si / 1000 Ang^3
#
#
#
# Elastic Constant Matrix: (Units=GPa)
#
#
# Indices 1 2 3 4 5 6 
#
# 1 44.9569 5.5380 -0.1641 0.0000 0.0000 0.0000
# 2 5.5380 165.6519 111.4648 0.0000 0.0000 0.0000
# 3 -0.1641 111.4648 161.8292 0.0000 0.0000 0.0000
# 4 0.0000 0.0000 0.0000 22.7992 0.0000 0.0000
# 5 0.0000 0.0000 0.0000 0.0000 14.5193 0.0000
# 6 0.0000 0.0000 0.0000 0.0000 0.0000 101.4058
#
#
#
# Elastic Compliance Matrix: (Units=1/GPa)
#
#
# Indices 1 2 3 4 5 6 
#
# 1 0.022423 -0.001426 0.001005 0.000000 0.000000 0.000000
# 2 -0.001426 0.011342 -0.007814 0.000000 0.000000 0.000000
# 3 0.001005 -0.007814 0.011562 0.000000 0.000000 0.000000
# 4 0.000000 0.000000 0.000000 0.043861 0.000000 0.000000
# 5 0.000000 0.000000 0.000000 0.000000 0.068874 0.000000
# 6 0.000000 0.000000 0.000000 0.000000 0.000000 0.009861
#
#
# Mechanical properties :
#
#
# Convention : Reuss Voigt Hill
#
# Bulk Modulus (GPa) = 34.65251 67.34615 50.99933
# Shear Modulus (GPa) = 25.77158 44.78482 35.27820
#
# Velocity S-wave (km/s) = 3.78476 4.98922 4.42813
# Velocity P-wave (km/s) = 6.19352 8.40370 7.38180
#
# Compressibility (1/GPa) = 0.02885794
#
# Stress axis : x y z
#
# Youngs Moduli (GPa) = 44.59743 88.16687 86.48812
#
# Poissons Ratio (x) = 0.12570 -0.08690
# Poissons Ratio (y) = 0.06358 0.67579
# Poissons Ratio (z) = -0.04481 0.68891
#
# Static dielectric constant tensor:
#      x y z
#    x 1.701200 0.000000 0.000000 
#    y 0.000000 1.615980 0.000000 
#    z 0.000000 0.000000 1.605870 
# 
# From -- ./inp_files/31109.got.cif
#   From: 2010.05.17/outbox.cif.g08.bks.cpg/sg64_16_cif.got.tgz:31109.got - 2010.06.03 16:29:19.
