data_PCOD9482236
_publ_section_title
;
Structure prediction by ZEFSAII (Michael W. Deem and Ramdas Pophale) SiO2 
 PCOD9482236
Probable space group: C M C A
;
_chemical_formula_sum "Si O2"
_cell_formula_units_Z 56
_cell_length_a 18.668954
_cell_length_b 13.278220
_cell_length_c 9.055010
_cell_angle_alpha 90.000000
_cell_angle_beta 90.000000
_cell_angle_gamma 90.000000
_cell_volume 2244.650761
_symmetry_space_group_name_H-M "C M C A"
_symmetry_group_IT_number 64
_symmetry_cell_setting 'orthorhombic'
loop_
_space_group_symop_operation_xyz
x,y,z
-x,1/2-y,1/2+z
x,-y,-z
-x,1/2+y,1/2-z
-x,-y,-z
x,1/2+y,1/2-z
-x,y,z
x,1/2-y,1/2+z
1/2+x,1/2+y,z
1/2-x,-y,1/2+z
1/2+x,1/2-y,-z
1/2-x,y,1/2-z
1/2-x,1/2-y,-z
1/2+x,y,1/2-z
1/2-x,1/2+y,z
1/2+x,-y,1/2+z
loop_
_atom_site_type_symbol
_atom_site_label
_atom_site_fract_x
_atom_site_fract_y
_atom_site_fract_z
Si Si1 0.750000 0.430948 0.750000
Si Si2 0.500000 0.611160 0.073896
Si Si3 0.345981 0.386888 0.311005
Si Si4 0.842861 0.306443 0.512509
Si Si5 0.500000 0.024081 0.830162
O O1 0.694630 0.508087 0.673613
O O2 0.796017 0.368920 0.630896
O O3 0.573443 0.666191 0.035106
O O4 0.500000 0.581951 0.245377
O O5 0.500000 0.500000 0.000000
O O6 0.334719 0.309784 0.444184
O O7 0.429388 0.413157 0.293834
O O8 0.323612 0.335111 0.155189
O O9 0.500000 0.000000 0.000000
#
# Coordination Sequence:
#
# PCOD9482236 Si02
#       5
#     8   8  16  16   8
#     4  12  26  48  74 104 148 202 250 304 376 444
#     4  12  21  50  78 103 147 197 242 302 376 436
#     4  12  28  49  75 113 149 196 250 308 375 446
#     4  12  27  47  78 108 151 196 248 311 372 447
#     4  12  27  46  78 113 147 193 245 307 370 442
#
# _framework density 24.948201000000001
#
# number of rings (size 3 to 8) (size 9 to 14) (size 15 to 20)
#    0.000    0.000    5.714    2.571    4.000    9.143 
#    0.000    0.000    0.000    0.000    0.000    0.000 
#    0.000    0.000    0.000    0.000    0.000    0.000 
#
# Total GULP energy -157242.947300 kJ/mol
# GULP energy per Si atom -5615.819546 kJ/mol
# Density = 2.489142 g / cm^3
# Si number density = 24.948201 Si / 1000 Ang^3
#
#
#
# Elastic Constant Matrix: (Units=GPa)
#
#
# Indices 1 2 3 4 5 6 
#
# 1 187.3045 56.0298 20.9099 0.0000 0.0000 0.0000
# 2 56.0298 112.5586 17.3696 0.0000 0.0000 0.0000
# 3 20.9099 17.3696 132.9778 0.0000 0.0000 0.0000
# 4 0.0000 0.0000 0.0000 46.7671 0.0000 0.0000
# 5 0.0000 0.0000 0.0000 0.0000 31.9778 0.0000
# 6 0.0000 0.0000 0.0000 0.0000 0.0000 44.4103
#
#
#
# Elastic Compliance Matrix: (Units=1/GPa)
#
#
# Indices 1 2 3 4 5 6 
#
# 1 0.006319 -0.003054 -0.000595 0.000000 0.000000 0.000000
# 2 -0.003054 0.010543 -0.000897 0.000000 0.000000 0.000000
# 3 -0.000595 -0.000897 0.007731 0.000000 0.000000 0.000000
# 4 0.000000 0.000000 0.000000 0.021383 0.000000 0.000000
# 5 0.000000 0.000000 0.000000 0.000000 0.031272 0.000000
# 6 0.000000 0.000000 0.000000 0.000000 0.000000 0.022517
#
#
# Mechanical properties :
#
#
# Convention : Reuss Voigt Hill
#
# Bulk Modulus (GPa) = 64.50917 69.05107 66.78012
# Shear Modulus (GPa) = 43.85141 47.19981 45.52561
#
# Velocity S-wave (km/s) = 4.19704 4.35433 4.27641
# Velocity P-wave (km/s) = 7.02853 7.28135 7.15606
#
# Compressibility (1/GPa) = 0.01550167
#
# Stress axis : x y z
#
# Youngs Moduli (GPa) = 158.25950 94.85237 129.35399
#
# Poissons Ratio (x) = 0.28964 0.07693
# Poissons Ratio (y) = 0.48326 0.11602
# Poissons Ratio (z) = 0.09412 0.08508
#
# Static dielectric constant tensor:
#      x y z
#    x 1.991400 0.000000 0.000000 
#    y 0.000000 1.915360 0.000000 
#    z 0.000000 0.000000 1.980310 
# 
# From -- ./inp_files/7666.got.cif
#   From: 2010.05.17/outbox.cif.g08.bks.cpg/sg64_4_cif.got.tgz:7666.got - 2010.06.03 16:29:19.
