data_PCOD9482229
_publ_section_title
;
Structure prediction by ZEFSAII (Michael W. Deem and Ramdas Pophale) SiO2 
 PCOD9482229
Probable space group: C M C A
;
_chemical_formula_sum "Si O2"
_cell_formula_units_Z 68
_cell_length_a 8.976418
_cell_length_b 19.200057
_cell_length_c 17.975648
_cell_angle_alpha 90.000000
_cell_angle_beta 90.000000
_cell_angle_gamma 90.000000
_cell_volume 3098.062259
_symmetry_space_group_name_H-M "C M C A"
_symmetry_group_IT_number 64
_symmetry_cell_setting 'orthorhombic'
loop_
_space_group_symop_operation_xyz
x,y,z
-x,1/2-y,1/2+z
x,-y,-z
-x,1/2+y,1/2-z
-x,-y,-z
x,1/2+y,1/2-z
-x,y,z
x,1/2-y,1/2+z
1/2+x,1/2+y,z
1/2-x,-y,1/2+z
1/2+x,1/2-y,-z
1/2-x,y,1/2-z
1/2-x,1/2-y,-z
1/2+x,y,1/2-z
1/2-x,1/2+y,z
1/2+x,-y,1/2+z
loop_
_atom_site_type_symbol
_atom_site_label
_atom_site_fract_x
_atom_site_fract_y
_atom_site_fract_z
Si Si1 0.172955 0.233744 0.169778
Si Si2 0.761968 0.098477 0.078701
Si Si3 0.682218 0.355372 0.077455
Si Si4 0.500000 0.500000 0.000000
Si Si5 0.332768 0.477110 0.327272
O O1 0.250000 0.233301 0.250000
O O2 0.177974 0.157352 0.133606
O O3 0.269249 0.285128 0.117975
O O4 0.000000 0.256447 0.174231
O O5 0.656212 0.048330 0.125642
O O6 0.729673 0.138127 0.000917
O O7 0.875108 0.041593 0.047776
O O8 0.500000 0.360953 0.066511
O O9 0.738305 0.418534 0.129116
O O10 0.500000 0.450313 0.313874
O O11 0.250000 0.491602 0.250000
#
# Coordination Sequence:
#
# PCOD9482229 Si02
#       5
#    16  16  16   4  16
#     4  12  27  46  69 103 142 185 235 290 350 419
#     4  12  24  44  76 101 140 183 234 289 354 423
#     4  12  24  46  73 101 140 188 235 292 358 426
#     4  12  20  48  74 104 144 180 226 292 354 422
#     4  12  27  43  69 102 141 186 238 298 358 425
#
# _framework density 21.949204999999999
#
# number of rings (size 3 to 8) (size 9 to 14) (size 15 to 20)
#    0.000    0.000    4.706    4.235    1.647    6.588 
#    0.000    0.000    0.000    0.000    0.000    0.000 
#    0.000    0.000    0.000    0.000    0.000    0.000 
#
# Total GULP energy -189368.908280 kJ/mol
# GULP energy per Si atom -5569.673773 kJ/mol
# Density = 2.189925 g / cm^3
# Si number density = 21.949205 Si / 1000 Ang^3
#
#
#
# Elastic Constant Matrix: (Units=GPa)
#
#
# Indices 1 2 3 4 5 6 
#
# 1 99.3390 30.4368 6.4662 0.0000 0.0000 0.0000
# 2 30.4368 89.7350 10.3595 0.0000 0.0000 0.0000
# 3 6.4662 10.3595 70.1437 0.0000 0.0000 0.0000
# 4 0.0000 0.0000 0.0000 119.3856 0.0000 0.0000
# 5 0.0000 0.0000 0.0000 0.0000 12.0309 0.0000
# 6 0.0000 0.0000 0.0000 0.0000 0.0000 21.0944
#
#
#
# Elastic Compliance Matrix: (Units=1/GPa)
#
#
# Indices 1 2 3 4 5 6 
#
# 1 0.011250 -0.003760 -0.000482 0.000000 0.000000 0.000000
# 2 -0.003760 0.012594 -0.001513 0.000000 0.000000 0.000000
# 3 -0.000482 -0.001513 0.014524 0.000000 0.000000 0.000000
# 4 0.000000 0.000000 0.000000 0.008376 0.000000 0.000000
# 5 0.000000 0.000000 0.000000 0.000000 0.083119 0.000000
# 6 0.000000 0.000000 0.000000 0.000000 0.000000 0.047406
#
#
# Mechanical properties :
#
#
# Convention : Reuss Voigt Hill
#
# Bulk Modulus (GPa) = 37.23318 39.30473 38.26896
# Shear Modulus (GPa) = 25.28658 44.63251 34.95955
#
# Velocity S-wave (km/s) = 3.39787 4.51427 3.99525
# Velocity P-wave (km/s) = 5.69159 6.71695 6.22542
#
# Compressibility (1/GPa) = 0.02685776
#
# Stress axis : x y z
#
# Youngs Moduli (GPa) = 88.88886 79.40257 68.84980
#
# Poissons Ratio (x) = 0.29857 0.03317
# Poissons Ratio (y) = 0.33424 0.10420
# Poissons Ratio (z) = 0.04282 0.12017
#
# Static dielectric constant tensor:
#      x y z
#    x 1.766510 0.000000 0.000000 
#    y 0.000000 1.848370 0.000000 
#    z 0.000000 0.000000 1.819790 
# 
# From -- ./inp_files/29338.got.cif
#   From: 2010.05.17/outbox.cif.g08.bks.cpg/sg64_15_cif.got.tgz:29338.got - 2010.06.03 16:29:19.
