data_PCOD9482333
_publ_section_title
;
Structure prediction by ZEFSAII (Michael W. Deem and Ramdas Pophale) SiO2 
 PCOD9482333
Probable space group: C M C A
;
_chemical_formula_sum "Si O2"
_cell_formula_units_Z 96
_cell_length_a 23.206227
_cell_length_b 22.812250
_cell_length_c 7.939917
_cell_angle_alpha 90.000000
_cell_angle_beta 90.000000
_cell_angle_gamma 90.000000
_cell_volume 4203.282901
_symmetry_space_group_name_H-M "C M C A"
_symmetry_group_IT_number 64
_symmetry_cell_setting 'orthorhombic'
loop_
_space_group_symop_operation_xyz
x,y,z
-x,1/2-y,1/2+z
x,-y,-z
-x,1/2+y,1/2-z
-x,-y,-z
x,1/2+y,1/2-z
-x,y,z
x,1/2-y,1/2+z
1/2+x,1/2+y,z
1/2-x,-y,1/2+z
1/2+x,1/2-y,-z
1/2-x,y,1/2-z
1/2-x,1/2-y,-z
1/2+x,y,1/2-z
1/2-x,1/2+y,z
1/2+x,-y,1/2+z
loop_
_atom_site_type_symbol
_atom_site_label
_atom_site_fract_x
_atom_site_fract_y
_atom_site_fract_z
Si Si1 0.733300 0.571057 0.493031
Si Si2 0.343795 0.428904 0.184863
Si Si3 0.567068 0.158510 0.449792
Si Si4 0.067700 0.728918 0.100202
Si Si5 0.133886 0.435148 0.758184
Si Si6 0.069139 0.611845 0.923109
O O1 0.733385 0.500000 0.500000
O O2 0.694230 0.588945 0.651443
O O3 0.798981 0.587321 0.536216
O O4 0.695445 0.587747 0.330396
O O5 0.354509 0.498850 0.197052
O O6 0.405673 0.403364 0.239779
O O7 0.500000 0.143622 0.481679
O O8 0.592751 0.206169 0.580740
O O9 0.600952 0.101623 0.384584
O O10 0.569989 0.200337 0.282965
O O11 0.088415 0.677118 0.978253
O O12 0.000000 0.609541 0.924075
O O13 0.093486 0.430257 0.926867
O O14 0.000000 0.762833 0.561095
#
# Coordination Sequence:
#
# PCOD9482333 Si02
#       6
#    16  16  16  16  16  16
#     4   8  15  28  43  60  84 114 149 184 223 276
#     4   9  16  26  43  66  88 114 147 186 236 288
#     4   9  16  28  46  69  97 128 163 203 244 289
#     4   8  15  27  43  63  90 127 164 193 230 286
#     4   9  16  26  44  68  90 113 152 200 239 280
#     4   9  16  26  42  66  94 120 147 186 238 291
#
# _framework density 22.839292
#
# number of rings (size 3 to 8) (size 9 to 14) (size 15 to 20)
#    0.000    3.333    0.000    3.000    0.000    2.000 
#    0.000    1.667    0.000    1.500    0.000   16.333 
#    0.000    4.000    0.000    0.000    0.000    0.000 
#
# Total GULP energy -267588.493367 kJ/mol
# GULP energy per Si atom -5574.760278 kJ/mol
# Density = 2.278731 g / cm^3
# Si number density = 22.839292 Si / 1000 Ang^3
#
#
#
# Elastic Constant Matrix: (Units=GPa)
#
#
# Indices 1 2 3 4 5 6 
#
# 1 132.1398 30.7486 23.0624 0.0000 0.0000 0.0000
# 2 30.7486 71.0845 5.9615 0.0000 0.0000 0.0000
# 3 23.0624 5.9615 69.0522 0.0000 0.0000 0.0000
# 4 0.0000 0.0000 0.0000 33.2721 0.0000 0.0000
# 5 0.0000 0.0000 0.0000 0.0000 50.6333 0.0000
# 6 0.0000 0.0000 0.0000 0.0000 0.0000 -11.7081
#
#
#
# Elastic Compliance Matrix: (Units=1/GPa)
#
#
# Indices 1 2 3 4 5 6 
#
# 1 0.008872 -0.003615 -0.002651 0.000000 0.000000 0.000000
# 2 -0.003615 0.015644 -0.000143 0.000000 0.000000 0.000000
# 3 -0.002651 -0.000143 0.015380 0.000000 0.000000 0.000000
# 4 0.000000 0.000000 0.000000 0.030055 0.000000 0.000000
# 5 0.000000 0.000000 0.000000 0.000000 0.019750 0.000000
# 6 0.000000 0.000000 0.000000 0.000000 0.000000 -0.085411
#
#
# Mechanical properties :
#
#
# Convention : Reuss Voigt Hill
#
# Bulk Modulus (GPa) = 36.93275 43.53574 40.23424
# Shear Modulus (GPa) = 191.33192 28.60640 109.96916
#
# Velocity S-wave (km/s) = 9.16270 3.54292 6.94648
# Velocity P-wave (km/s) = 11.32015 5.98661 9.05498
#
# Compressibility (1/GPa) = 0.02707624
#
# Stress axis : x y z
#
# Youngs Moduli (GPa) = 112.71852 63.92394 65.02157
#
# Poissons Ratio (x) = 0.23110 0.17236
# Poissons Ratio (y) = 0.40750 0.00931
# Poissons Ratio (z) = 0.29880 0.00915
#
# Static dielectric constant tensor:
#      x y z
#    x 1.881720 0.000000 0.000000 
#    y 0.000000 1.899340 0.000000 
#    z 0.000000 0.000000 2.081880 
# 
# From -- ./inp_files/9484.got.cif
#   From: 2010.05.17/outbox.cif.g08.bks.cpg/sg64_5_cif.got.tgz:9484.got - 2010.06.03 16:29:19.
