data_PCOD9482217
_publ_section_title
;
Structure prediction by ZEFSAII (Michael W. Deem and Ramdas Pophale) SiO2 
 PCOD9482217
Probable space group: C M C A
;
_chemical_formula_sum "Si O2"
_cell_formula_units_Z 88
_cell_length_a 14.475532
_cell_length_b 10.795911
_cell_length_c 32.040559
_cell_angle_alpha 90.000000
_cell_angle_beta 90.000000
_cell_angle_gamma 90.000000
_cell_volume 5007.188186
_symmetry_space_group_name_H-M "C M C A"
_symmetry_group_IT_number 64
_symmetry_cell_setting 'orthorhombic'
loop_
_space_group_symop_operation_xyz
x,y,z
-x,1/2-y,1/2+z
x,-y,-z
-x,1/2+y,1/2-z
-x,-y,-z
x,1/2+y,1/2-z
-x,y,z
x,1/2-y,1/2+z
1/2+x,1/2+y,z
1/2-x,-y,1/2+z
1/2+x,1/2-y,-z
1/2-x,y,1/2-z
1/2-x,1/2-y,-z
1/2+x,y,1/2-z
1/2-x,1/2+y,z
1/2+x,-y,1/2+z
loop_
_atom_site_type_symbol
_atom_site_label
_atom_site_fract_x
_atom_site_fract_y
_atom_site_fract_z
Si Si1 0.889684 0.234681 0.592937
Si Si2 0.396240 0.241854 0.813343
Si Si3 0.895466 0.537364 0.683940
Si Si4 0.257327 0.875682 0.026924
Si Si5 0.750000 0.861806 0.250000
Si Si6 0.889647 0.526020 0.589309
O O1 0.869245 0.195250 0.640576
O O2 0.838361 0.149731 0.559993
O O3 0.862808 0.379880 0.587170
O O4 0.000000 0.229470 0.588078
O O5 0.500000 0.195374 0.802973
O O6 0.402605 0.389268 0.817754
O O7 0.320720 0.212248 0.779080
O O8 0.818073 0.568311 0.717856
O O9 0.870805 0.574756 0.636372
O O10 0.000000 0.584786 0.693757
O O11 0.165448 0.900204 0.054280
O O12 0.250000 0.750000 0.000000
O O13 0.272842 0.000000 0.000000
O O14 0.000000 0.532601 0.583279
#
# Coordination Sequence:
#
# PCOD9482217 Si02
#       6
#    16  16  16  16   8  16
#     4   9  19  38  58  76 107 151 187 222 275 332
#     4   9  19  34  52  75 106 144 182 218 266 326
#     4   9  19  34  52  76 106 143 185 220 258 323
#     4  12  23  36  57  90 114 137 181 233 281 330
#     4  12  18  28  52  84 110 136 174 228 278 306
#     4   9  19  38  59  76 105 152 193 220 264 335
#
# _framework density 17.574733999999999
#
# number of rings (size 3 to 8) (size 9 to 14) (size 15 to 20)
#    0.000    2.182    1.818    4.364    0.000    1.455 
#    0.000    0.000    0.000    0.000    0.000    0.000 
#    0.000    0.000    0.000    0.000    0.000    0.000 
#
# Total GULP energy -245164.600664 kJ/mol
# GULP energy per Si atom -5571.922742 kJ/mol
# Density = 1.753473 g / cm^3
# Si number density = 17.574734 Si / 1000 Ang^3
#
#
#
# Elastic Constant Matrix: (Units=GPa)
#
#
# Indices 1 2 3 4 5 6 
#
# 1 83.1659 31.2857 75.7285 0.0000 0.0000 0.0000
# 2 31.2857 57.3379 55.9404 0.0000 0.0000 0.0000
# 3 75.7285 55.9404 142.7233 0.0000 0.0000 0.0000
# 4 0.0000 0.0000 0.0000 25.2739 0.0000 0.0000
# 5 0.0000 0.0000 0.0000 0.0000 -14.5721 0.0000
# 6 0.0000 0.0000 0.0000 0.0000 0.0000 28.4011
#
#
#
# Elastic Compliance Matrix: (Units=1/GPa)
#
#
# Indices 1 2 3 4 5 6 
#
# 1 0.023304 -0.001055 -0.011951 0.000000 0.000000 0.000000
# 2 -0.001055 0.028287 -0.010527 0.000000 0.000000 0.000000
# 3 -0.011951 -0.010527 0.017474 0.000000 0.000000 0.000000
# 4 0.000000 0.000000 0.000000 0.039566 0.000000 0.000000
# 5 0.000000 0.000000 0.000000 0.000000 -0.068624 0.000000
# 6 0.000000 0.000000 0.000000 0.000000 0.000000 0.035210
#
#
# Mechanical properties :
#
#
# Convention : Reuss Voigt Hill
#
# Bulk Modulus (GPa) = 45.46063 67.68183 56.57123
# Shear Modulus (GPa) = 38.57553 15.83873 27.20713
#
# Velocity S-wave (km/s) = 4.69010 3.00529 3.93884
# Velocity P-wave (km/s) = 7.43321 7.11596 7.27631
#
# Compressibility (1/GPa) = 0.02199706
#
# Stress axis : x y z
#
# Youngs Moduli (GPa) = 42.91191 35.35220 57.22844
#
# Poissons Ratio (x) = 0.03731 0.68394
# Poissons Ratio (y) = 0.04529 0.60244
# Poissons Ratio (z) = 0.51284 0.37215
#
# Static dielectric constant tensor:
#      x y z
#    x 1.545380 0.000000 0.000000 
#    y 0.000000 1.580590 0.000000 
#    z 0.000000 0.000000 1.627980 
# 
# From -- ./inp_files/52664.got.cif
#   From: 2010.05.17/outbox.cif.g08.bks.cpg/sg64_27_cif.got.tgz:52664.got - 2010.06.03 16:29:19.
