data_PCOD9482068
_publ_section_title
;
Structure prediction by ZEFSAII (Michael W. Deem and Ramdas Pophale) SiO2 
 PCOD9482068
Probable space group: C M C A
;
_chemical_formula_sum "Si O2"
_cell_formula_units_Z 116
_cell_length_a 29.017018
_cell_length_b 10.650717
_cell_length_c 17.019932
_cell_angle_alpha 90.000000
_cell_angle_beta 90.000000
_cell_angle_gamma 90.000000
_cell_volume 5260.044823
_symmetry_space_group_name_H-M "C M C A"
_symmetry_group_IT_number 64
_symmetry_cell_setting 'orthorhombic'
loop_
_space_group_symop_operation_xyz
x,y,z
-x,1/2-y,1/2+z
x,-y,-z
-x,1/2+y,1/2-z
-x,-y,-z
x,1/2+y,1/2-z
-x,y,z
x,1/2-y,1/2+z
1/2+x,1/2+y,z
1/2-x,-y,1/2+z
1/2+x,1/2-y,-z
1/2-x,y,1/2-z
1/2-x,1/2-y,-z
1/2+x,y,1/2-z
1/2-x,1/2+y,z
1/2+x,-y,1/2+z
loop_
_atom_site_type_symbol
_atom_site_label
_atom_site_fract_x
_atom_site_fract_y
_atom_site_fract_z
Si Si1 0.278571 0.967171 0.320245
Si Si2 0.360410 0.291280 0.241289
Si Si3 0.923260 0.707853 0.477128
Si Si4 0.446951 0.116848 0.828949
Si Si5 0.500000 0.500000 0.000000
Si Si6 0.885343 0.096798 0.392896
Si Si7 0.797719 0.084254 0.567004
Si Si8 0.167835 0.668251 0.407758
O O1 0.250000 0.033254 0.250000
O O2 0.298176 0.060591 0.384290
O O3 0.321646 0.888894 0.287386
O O4 0.238422 0.891118 0.363727
O O5 0.410551 0.350095 0.260191
O O6 0.366350 0.184670 0.176222
O O7 0.344706 0.233912 0.324414
O O8 0.942146 0.782146 0.399961
O O9 0.960264 0.610953 0.508803
O O10 0.904282 0.813932 0.537494
O O11 0.879450 0.629225 0.446834
O O12 0.500000 0.111324 0.803479
O O13 0.428258 0.986162 0.863615
O O14 0.843965 0.996450 0.410983
O O15 0.811709 0.221644 0.538501
O O16 0.775908 0.000000 0.500000
#
# Coordination Sequence:
#
# PCOD9482068 Si02
#       8
#    16  16  16  16   4  16  16  16
#     4  12  26  42  69 102 144 195 245 294 366 440
#     4  11  25  44  67 102 144 191 236 307 363 423
#     4  11  25  47  75  98 149 185 234 303 360 438
#     4  11  23  47  74 102 136 190 243 296 363 436
#     4  12  28  48  70 124 132 188 244 292 380 436
#     4  12  24  45  72 106 140 188 243 293 362 440
#     4  12  24  44  70 104 140 186 250 297 353 438
#     4  11  24  45  69  97 144 193 231 305 362 422
#
# _framework density 22.053044
#
# number of rings (size 3 to 8) (size 9 to 14) (size 15 to 20)
#    0.000    0.552    6.207    2.069    6.759    2.759 
#    0.000    0.000    0.000    0.000    0.000    0.000 
#    0.000    0.000    0.000    0.000    0.000    0.000 
#
# Total GULP energy -323561.014147 kJ/mol
# GULP energy per Si atom -5578.638175 kJ/mol
# Density = 2.200285 g / cm^3
# Si number density = 22.053044 Si / 1000 Ang^3
#
#
#
# Elastic Constant Matrix: (Units=GPa)
#
#
# Indices 1 2 3 4 5 6 
#
# 1 169.3763 50.0396 26.0372 0.0000 0.0000 0.0000
# 2 50.0396 82.0834 9.1696 0.0000 0.0000 0.0000
# 3 26.0372 9.1696 29.3406 0.0000 0.0000 0.0000
# 4 0.0000 0.0000 0.0000 27.2113 0.0000 0.0000
# 5 0.0000 0.0000 0.0000 0.0000 16.8024 0.0000
# 6 0.0000 0.0000 0.0000 0.0000 0.0000 29.8157
#
#
#
# Elastic Compliance Matrix: (Units=1/GPa)
#
#
# Indices 1 2 3 4 5 6 
#
# 1 0.008058 -0.004262 -0.005818 0.000000 0.000000 0.000000
# 2 -0.004262 0.014878 -0.000867 0.000000 0.000000 0.000000
# 3 -0.005818 -0.000867 0.039517 0.000000 0.000000 0.000000
# 4 0.000000 0.000000 0.000000 0.036749 0.000000 0.000000
# 5 0.000000 0.000000 0.000000 0.000000 0.059515 0.000000
# 6 0.000000 0.000000 0.000000 0.000000 0.000000 0.033539
#
#
# Mechanical properties :
#
#
# Convention : Reuss Voigt Hill
#
# Bulk Modulus (GPa) = 24.65695 50.14368 37.40032
# Shear Modulus (GPa) = 21.96147 27.80280 24.88213
#
# Velocity S-wave (km/s) = 3.15913 3.55452 3.36264
# Velocity P-wave (km/s) = 4.95094 6.29550 5.66326
#
# Compressibility (1/GPa) = 0.04055651
#
# Stress axis : x y z
#
# Youngs Moduli (GPa) = 124.10618 67.21386 25.30559
#
# Poissons Ratio (x) = 0.28647 0.14724
# Poissons Ratio (y) = 0.52895 0.02195
# Poissons Ratio (z) = 0.72210 0.05830
#
# Static dielectric constant tensor:
#      x y z
#    x 1.788670 0.000000 0.000000 
#    y 0.000000 1.797970 0.000000 
#    z 0.000000 0.000000 1.859100 
# 
# From -- ./inp_files/35516.got.cif
#   From: 2010.05.17/outbox.cif.g08.bks.cpg/sg64_18_cif.got.tgz:35516.got - 2010.06.03 16:29:19.
