data_PCOD9482693
_publ_section_title
;
Structure prediction by ZEFSAII (Michael W. Deem and Ramdas Pophale) SiO2 
 PCOD9482693
Probable space group: C M M M
;
_chemical_formula_sum "Si O2"
_cell_formula_units_Z 68
_cell_length_a 19.265335
_cell_length_b 15.104584
_cell_length_c 11.692042
_cell_angle_alpha 90.000000
_cell_angle_beta 90.000000
_cell_angle_gamma 90.000000
_cell_volume 3402.324251
_symmetry_space_group_name_H-M "C M M M"
_symmetry_group_IT_number 65
_symmetry_cell_setting 'orthorhombic'
loop_
_space_group_symop_operation_xyz
x,y,z
-x,-y,z
x,-y,-z
-x,y,-z
-x,-y,-z
x,y,-z
-x,y,z
x,-y,z
1/2+x,1/2+y,z
1/2-x,1/2-y,z
1/2+x,1/2-y,-z
1/2-x,1/2+y,-z
1/2-x,1/2-y,-z
1/2+x,1/2+y,-z
1/2-x,1/2+y,z
1/2+x,1/2-y,z
loop_
_atom_site_type_symbol
_atom_site_label
_atom_site_fract_x
_atom_site_fract_y
_atom_site_fract_z
Si Si1 0.080779 0.392882 0.500000
Si Si2 0.000000 0.500000 0.193080
Si Si3 0.419792 0.679519 0.739360
Si Si4 0.391194 0.500000 0.131427
Si Si5 0.274607 0.000000 0.865773
Si Si6 0.874183 0.635405 0.243813
Si Si7 0.584677 0.602497 0.500000
O O1 0.077282 0.500000 0.500000
O O2 0.117279 0.366374 0.382093
O O3 0.000000 0.361547 0.500000
O O4 0.060973 0.422938 0.198993
O O5 0.500000 0.708431 0.728213
O O6 0.417364 0.589094 0.809504
O O7 0.379304 0.762396 0.791225
O O8 0.393144 0.653002 0.613637
O O9 0.307882 0.500000 0.140396
O O10 0.411685 0.500000 0.000000
O O11 0.306980 0.085088 0.802356
O O12 0.295380 0.000000 0.000000
O O13 0.607463 0.500000 0.500000
O O14 0.500000 0.600652 0.500000
#
# Coordination Sequence:
#
# PCOD9482693 Si02
#       7
#     8   4  16   8   8  16   8
#     4  11  15  29  59  93 133 158 182 231 298 376
#     4  10  16  33  53  90 128 152 181 229 296 354
#     4  11  21  37  65  97 126 151 197 254 306 364
#     4  11  26  46  63  79 113 167 215 259 300 349
#     4  10  25  46  61  79 117 169 216 248 294 366
#     4  11  20  35  63  95 125 161 195 239 302 363
#     4   9  17  33  57  92 128 165 185 227 305 369
#
# _framework density 19.986336000000001
#
# number of rings (size 3 to 8) (size 9 to 14) (size 15 to 20)
#    0.000    1.412    5.882    1.059    0.000    3.765 
#    0.000    9.412    0.000    2.824    0.000    0.000 
#    0.000    0.000    0.000    0.000    0.000    0.000 
#
# Total GULP energy -189374.453024 kJ/mol
# GULP energy per Si atom -5569.836854 kJ/mol
# Density = 1.994085 g / cm^3
# Si number density = 19.986336 Si / 1000 Ang^3
#
#
#
# Elastic Constant Matrix: (Units=GPa)
#
#
# Indices 1 2 3 4 5 6 
#
# 1 39.2996 7.9784 14.2406 0.0000 0.0000 0.0000
# 2 7.9784 168.5046 24.6091 0.0000 0.0000 0.0000
# 3 14.2406 24.6091 80.5667 0.0000 0.0000 0.0000
# 4 0.0000 0.0000 0.0000 -16.2017 0.0000 0.0000
# 5 0.0000 0.0000 0.0000 0.0000 8.9688 0.0000
# 6 0.0000 0.0000 0.0000 0.0000 0.0000 -125.1901
#
#
#
# Elastic Compliance Matrix: (Units=1/GPa)
#
#
# Indices 1 2 3 4 5 6 
#
# 1 0.027247 -0.000614 -0.004629 0.000000 0.000000 0.000000
# 2 -0.000614 0.006225 -0.001793 0.000000 0.000000 0.000000
# 3 -0.004629 -0.001793 0.013778 0.000000 0.000000 0.000000
# 4 0.000000 0.000000 0.000000 -0.061722 0.000000 0.000000
# 5 0.000000 0.000000 0.000000 0.000000 0.111497 0.000000
# 6 0.000000 0.000000 0.000000 0.000000 0.000000 -0.007988
#
#
# Mechanical properties :
#
#
# Convention : Reuss Voigt Hill
#
# Bulk Modulus (GPa) = 30.13920 42.44745 36.29333
# Shear Modulus (GPa) = 43.79446 -10.38174 16.70636
#
# Velocity S-wave (km/s) = 4.68613 -2.28160 2.89431
# Velocity P-wave (km/s) = 6.66276 3.78727 5.41921
#
# Compressibility (1/GPa) = 0.03317938
#
# Stress axis : x y z
#
# Youngs Moduli (GPa) = 36.70070 160.62985 72.58013
#
# Poissons Ratio (x) = 0.09865 0.33594
# Poissons Ratio (y) = 0.02254 0.13014
# Poissons Ratio (z) = 0.16987 0.28801
#
# Static dielectric constant tensor:
#      x y z
#    x 1.676610 0.000000 0.000000 
#    y 0.000000 1.722500 0.000000 
#    z 0.000000 0.000000 1.734190 
# 
# From -- ./inp_files/28384.got.cif
#   From: 2010.05.17/outbox.cif.g08.bks.cpg/sg65_15_cif.got.tgz:28384.got - 2010.06.03 17:01:31.
