data_PCOD9482561
_publ_section_title
;
Structure prediction by ZEFSAII (Michael W. Deem and Ramdas Pophale) SiO2 
 PCOD9482561
Probable space group: C M M M
;
_chemical_formula_sum "Si O2"
_cell_formula_units_Z 60
_cell_length_a 5.462848
_cell_length_b 14.624471
_cell_length_c 34.672454
_cell_angle_alpha 90.000000
_cell_angle_beta 90.000000
_cell_angle_gamma 90.000000
_cell_volume 2770.026112
_symmetry_space_group_name_H-M "C M M M"
_symmetry_group_IT_number 65
_symmetry_cell_setting 'orthorhombic'
loop_
_space_group_symop_operation_xyz
x,y,z
-x,-y,z
x,-y,-z
-x,y,-z
-x,-y,-z
x,y,-z
-x,y,z
x,-y,z
1/2+x,1/2+y,z
1/2-x,1/2-y,z
1/2+x,1/2-y,-z
1/2-x,1/2+y,-z
1/2-x,1/2-y,-z
1/2+x,1/2+y,-z
1/2-x,1/2+y,z
1/2+x,1/2-y,z
loop_
_atom_site_type_symbol
_atom_site_label
_atom_site_fract_x
_atom_site_fract_y
_atom_site_fract_z
Si Si1 0.000000 0.189411 0.000000
Si Si2 0.500000 0.148541 0.701594
Si Si3 0.500000 0.111756 0.790610
Si Si4 0.500000 0.356855 0.577820
Si Si5 0.000000 0.351754 0.545973
Si Si6 0.500000 0.690271 0.916071
Si Si7 0.500000 0.391328 0.167492
Si Si8 0.500000 0.356711 0.669718
O O1 0.250000 0.250000 0.000000
O O2 0.000000 0.141362 0.041838
O O3 0.500000 0.150839 0.747580
O O4 0.500000 0.250396 0.683337
O O5 0.750080 0.104087 0.686819
O O6 0.747658 0.140797 0.812674
O O7 0.500000 0.000000 0.787993
O O8 0.749992 0.395828 0.560679
O O9 0.500000 0.250386 0.564294
O O10 0.500000 0.361682 0.623770
O O11 0.000000 0.344243 0.500000
O O12 0.750000 0.750000 0.914747
O O13 0.500000 0.630843 0.877670
O O14 0.500000 0.500000 0.172324
#
# Coordination Sequence:
#
# PCOD9482561 Si02
#       8
#     4   8   8   8   8   8   8   8
#     4   8  16  30  53  74 111 140 168 206 260 302
#     4  10  18  32  45  65  87 114 156 194 233 284
#     4  10  21  37  54  69  95 134 167 199 254 304
#     4  10  16  25  36  51  78 112 147 175 223 278
#     4  10  16  22  33  51  75 110 155 182 200 255
#     4  10  19  35  54  84 107 140 176 216 253 306
#     4  10  21  38  54  74 105 139 170 210 259 315
#     4  10  19  30  45  65  90 119 150 192 245 284
#
# _framework density 21.660446
#
# number of rings (size 3 to 8) (size 9 to 14) (size 15 to 20)
#    0.000    2.133    0.000    7.600    0.000    0.000 
#   14.400    0.333    0.000    0.000    0.000    8.400 
#    0.000    0.000    0.000    0.000    0.000  375.333 
#
# Total GULP energy -167487.894721 kJ/mol
# GULP energy per Si atom -5582.929824 kJ/mol
# Density = 2.161115 g / cm^3
# Si number density = 21.660446 Si / 1000 Ang^3
#
#
#
# Elastic Constant Matrix: (Units=GPa)
#
#
# Indices 1 2 3 4 5 6 
#
# 1 257.5635 15.2768 92.8806 0.0000 0.0000 0.0000
# 2 15.2768 55.3945 -2.3635 0.0000 0.0000 0.0000
# 3 92.8806 -2.3635 227.7652 0.0000 0.0000 0.0000
# 4 0.0000 0.0000 0.0000 -135.2049 0.0000 0.0000
# 5 0.0000 0.0000 0.0000 0.0000 46.2460 0.0000
# 6 0.0000 0.0000 0.0000 0.0000 0.0000 -17.6684
#
#
#
# Elastic Compliance Matrix: (Units=1/GPa)
#
#
# Indices 1 2 3 4 5 6 
#
# 1 0.004653 -0.001365 -0.001912 0.000000 0.000000 0.000000
# 2 -0.001365 0.018461 0.000748 0.000000 0.000000 0.000000
# 3 -0.001912 0.000748 0.005178 0.000000 0.000000 0.000000
# 4 0.000000 0.000000 0.000000 -0.007396 0.000000 0.000000
# 5 0.000000 0.000000 0.000000 0.000000 0.021623 0.000000
# 6 0.000000 0.000000 0.000000 0.000000 0.000000 -0.056598
#
#
# Mechanical properties :
#
#
# Convention : Reuss Voigt Hill
#
# Bulk Modulus (GPa) = 43.03878 83.59010 63.31444
# Shear Modulus (GPa) = -3910.96405 7.66984 -1951.64710
#
# Velocity S-wave (km/s) = -42.53820 1.88378 -30.04954
# Velocity P-wave (km/s) = 48.91576 6.58835 34.27350
#
# Compressibility (1/GPa) = 0.02323486
#
# Stress axis : x y z
#
# Youngs Moduli (GPa) = 214.92413 54.16934 193.13390
#
# Poissons Ratio (x) = 0.07393 0.36918
# Poissons Ratio (y) = 0.29331 -0.14448
# Poissons Ratio (z) = 0.41083 -0.04052
#
# Static dielectric constant tensor:
#      x y z
#    x 1.887380 0.000000 0.000000 
#    y 0.000000 1.772030 0.000000 
#    z 0.000000 0.000000 1.731110 
# 
# From -- ./inp_files/72371.got.cif
#   From: 2010.05.17/outbox.cif.g08.bks.cpg/sg65_37_cif.got.tgz:72371.got - 2010.06.03 17:01:31.
