data_PCOD9482636
_publ_section_title
;
Structure prediction by ZEFSAII (Michael W. Deem and Ramdas Pophale) SiO2 
 PCOD9482636
Probable space group: C M M M
;
_chemical_formula_sum "Si O2"
_cell_formula_units_Z 116
_cell_length_a 17.576191
_cell_length_b 25.782829
_cell_length_c 15.181215
_cell_angle_alpha 90.000000
_cell_angle_beta 90.000000
_cell_angle_gamma 90.000000
_cell_volume 6879.579006
_symmetry_space_group_name_H-M "C M M M"
_symmetry_group_IT_number 65
_symmetry_cell_setting 'orthorhombic'
loop_
_space_group_symop_operation_xyz
x,y,z
-x,-y,z
x,-y,-z
-x,y,-z
-x,-y,-z
x,y,-z
-x,y,z
x,-y,z
1/2+x,1/2+y,z
1/2-x,1/2-y,z
1/2+x,1/2-y,-z
1/2-x,1/2+y,-z
1/2-x,1/2-y,-z
1/2+x,1/2+y,-z
1/2-x,1/2+y,z
1/2+x,1/2-y,z
loop_
_atom_site_type_symbol
_atom_site_label
_atom_site_fract_x
_atom_site_fract_y
_atom_site_fract_z
Si Si1 0.907523 0.796677 0.598978
Si Si2 0.141503 0.000000 0.500000
Si Si3 0.410359 0.749885 0.777867
Si Si4 0.088349 0.558051 0.893369
Si Si5 0.590614 0.583751 0.360427
Si Si6 0.090372 0.057961 0.154464
Si Si7 0.849916 0.164467 0.097584
Si Si8 0.169540 0.663821 0.104053
O O1 0.881524 0.784116 0.500000
O O2 0.881783 0.759460 0.678185
O O3 0.888807 0.856389 0.622203
O O4 0.000000 0.794522 0.599228
O O5 0.134990 0.954764 0.576539
O O6 0.500000 0.760736 0.775581
O O7 0.395805 0.696206 0.829771
O O8 0.369301 0.794068 0.833699
O O9 0.110671 0.500000 0.862768
O O10 0.141279 0.606326 0.868674
O O11 0.000000 0.567223 0.867392
O O12 0.089239 0.556571 0.000000
O O13 0.500000 0.577375 0.381092
O O14 0.600627 0.568707 0.258595
O O15 0.130909 0.104028 0.104018
O O16 0.000000 0.060658 0.136786
O O17 0.116900 0.000000 0.132673
O O18 0.759954 0.170371 0.111047
O O19 0.869513 0.184256 0.000000
O O20 0.149328 0.671126 0.000000
#
# Coordination Sequence:
#
# PCOD9482636 Si02
#       8
#    16   4  16  16  16  16  16  16
#     4   9  17  29  47  72 100 126 157 202 257 308
#     4  12  17  20  44  76  98 124 164 218 267 302
#     4  11  21  34  54  76  98 128 167 213 258 298
#     4   8  14  27  49  75 100 123 150 195 254 305
#     4  10  16  24  40  67  97 124 157 203 255 297
#     4  10  20  33  48  69  99 133 174 216 249 289
#     4  11  23  36  49  67  97 139 177 209 251 299
#     4  10  21  35  51  73 101 133 170 209 250 304
#
# _framework density 16.861495999999999
#
# number of rings (size 3 to 8) (size 9 to 14) (size 15 to 20)
#    0.000    2.069    2.759    2.690    0.000    4.414 
#    0.000    2.069    0.000    1.655    0.000    0.000 
#    0.000    0.552    0.000    5.103    0.000    0.138 
#
# Total GULP energy -322968.071395 kJ/mol
# GULP energy per Si atom -5568.415024 kJ/mol
# Density = 1.682312 g / cm^3
# Si number density = 16.861496 Si / 1000 Ang^3
#
#
#
# Elastic Constant Matrix: (Units=GPa)
#
#
# Indices 1 2 3 4 5 6 
#
# 1 13.3870 10.4670 18.7916 0.0000 0.0000 0.0000
# 2 10.4670 81.7350 33.2143 0.0000 0.0000 0.0000
# 3 18.7916 33.2143 70.3064 0.0000 0.0000 0.0000
# 4 0.0000 0.0000 0.0000 25.9895 0.0000 0.0000
# 5 0.0000 0.0000 0.0000 0.0000 4.7006 0.0000
# 6 0.0000 0.0000 0.0000 0.0000 0.0000 -6.7691
#
#
#
# Elastic Compliance Matrix: (Units=1/GPa)
#
#
# Indices 1 2 3 4 5 6 
#
# 1 0.120104 -0.002891 -0.030736 0.000000 0.000000 0.000000
# 2 -0.002891 0.015211 -0.006413 0.000000 0.000000 0.000000
# 3 -0.030736 -0.006413 0.025468 0.000000 0.000000 0.000000
# 4 0.000000 0.000000 0.000000 0.038477 0.000000 0.000000
# 5 0.000000 0.000000 0.000000 0.000000 0.212737 0.000000
# 6 0.000000 0.000000 0.000000 0.000000 0.000000 -0.147730
#
#
# Mechanical properties :
#
#
# Convention : Reuss Voigt Hill
#
# Bulk Modulus (GPa) = 12.39100 32.26381 22.32741
# Shear Modulus (GPa) = 13.46805 11.64791 12.55798
#
# Velocity S-wave (km/s) = 2.82927 2.63116 2.73201
# Velocity P-wave (km/s) = 4.24708 5.32980 4.81895
#
# Compressibility (1/GPa) = 0.08070371
#
# Stress axis : x y z
#
# Youngs Moduli (GPa) = 8.32610 65.74182 39.26420
#
# Poissons Ratio (x) = 0.19003 1.20683
# Poissons Ratio (y) = 0.02407 0.25182
# Poissons Ratio (z) = 0.25591 0.42163
#
# Static dielectric constant tensor:
#      x y z
#    x 1.557000 0.000000 0.000000 
#    y 0.000000 1.582660 0.000000 
#    z 0.000000 0.000000 1.582990 
# 
# From -- ./inp_files/43188.got.cif
#   From: 2010.05.17/outbox.cif.g08.bks.cpg/sg65_22_cif.got.tgz:43188.got - 2010.06.03 17:01:31.
