data_PCOD9482283
_publ_section_title
;
Structure prediction by ZEFSAII (Michael W. Deem and Ramdas Pophale) SiO2 
 PCOD9482283
Probable space group: C M C A
;
_chemical_formula_sum "Si O2"
_cell_formula_units_Z 48
_cell_length_a 15.859153
_cell_length_b 24.254949
_cell_length_c 4.984930
_cell_angle_alpha 90.000000
_cell_angle_beta 90.000000
_cell_angle_gamma 90.000000
_cell_volume 1917.517865
_symmetry_space_group_name_H-M "C M C A"
_symmetry_group_IT_number 64
_symmetry_cell_setting 'orthorhombic'
loop_
_space_group_symop_operation_xyz
x,y,z
-x,1/2-y,1/2+z
x,-y,-z
-x,1/2+y,1/2-z
-x,-y,-z
x,1/2+y,1/2-z
-x,y,z
x,1/2-y,1/2+z
1/2+x,1/2+y,z
1/2-x,-y,1/2+z
1/2+x,1/2-y,-z
1/2-x,y,1/2-z
1/2-x,1/2-y,-z
1/2+x,y,1/2-z
1/2-x,1/2+y,z
1/2+x,-y,1/2+z
loop_
_atom_site_type_symbol
_atom_site_label
_atom_site_fract_x
_atom_site_fract_y
_atom_site_fract_z
Si Si1 0.690021 0.000000 0.000000
Si Si2 0.250000 0.162309 0.750000
Si Si3 0.405190 0.609544 0.449367
Si Si4 0.378464 0.287594 0.916089
O O1 0.750000 0.016960 0.750000
O O2 0.631158 0.950959 0.886112
O O3 0.167010 0.131013 0.651125
O O4 0.282963 0.197352 0.501702
O O5 0.500000 0.606002 0.560409
O O6 0.407932 0.654036 0.207700
O O7 0.403226 0.257836 0.194489
#
# Coordination Sequence:
#
# PCOD9482283 Si02
#       4
#     8   8  16  16
#     4  12  27  56  87 114 154 210 271 336 409 484
#     4  12  24  50  82 116 164 220 270 324 402 482
#     4  12  29  50  80 123 164 212 269 337 405 479
#     4  12  26  48  79 114 160 214 265 322 393 470
#
# _framework density 25.032364000000001
#
# number of rings (size 3 to 8) (size 9 to 14) (size 15 to 20)
#    0.000    0.000    5.000    4.500    0.000    2.667 
#    0.000    1.667    0.000    0.000    0.000    0.000 
#    0.000    0.000    0.000    0.000    0.000    0.000 
#
# Total GULP energy -133872.957366 kJ/mol
# GULP energy per Si atom -5578.039890 kJ/mol
# Density = 2.497539 g / cm^3
# Si number density = 25.032364 Si / 1000 Ang^3
#
#
#
# Elastic Constant Matrix: (Units=GPa)
#
#
# Indices 1 2 3 4 5 6 
#
# 1 220.4155 71.8782 58.2666 0.0000 0.0000 0.0000
# 2 71.8782 164.5317 19.2923 0.0000 0.0000 0.0000
# 3 58.2666 19.2923 144.7572 0.0000 0.0000 0.0000
# 4 0.0000 0.0000 0.0000 8.8795 0.0000 0.0000
# 5 0.0000 0.0000 0.0000 0.0000-1033.4899 0.0000
# 6 0.0000 0.0000 0.0000 0.0000 0.0000 76.4305
#
#
#
# Elastic Compliance Matrix: (Units=1/GPa)
#
#
# Indices 1 2 3 4 5 6 
#
# 1 0.005828 -0.002307 -0.002038 0.000000 0.000000 0.000000
# 2 -0.002307 0.007088 -0.000016 0.000000 0.000000 0.000000
# 3 -0.002038 -0.000016 0.007731 0.000000 0.000000 0.000000
# 4 0.000000 0.000000 0.000000 0.112618 0.000000 0.000000
# 5 0.000000 0.000000 0.000000 0.000000 -0.000968 0.000000
# 6 0.000000 0.000000 0.000000 0.000000 0.000000 0.013084
#
#
# Mechanical properties :
#
#
# Convention : Reuss Voigt Hill
#
# Bulk Modulus (GPa) = 83.86773 92.06429 87.96601
# Shear Modulus (GPa) = 31.62987 -164.28484 -66.32748
#
# Velocity S-wave (km/s) = 3.55851 -8.10996 -5.15308
# Velocity P-wave (km/s) = 7.10355 7.13003 0.43407
#
# Compressibility (1/GPa) = 0.01192354
#
# Stress axis : x y z
#
# Youngs Moduli (GPa) = 171.58312 141.09127 129.35385
#
# Poissons Ratio (x) = 0.32551 0.26368
# Poissons Ratio (y) = 0.39585 0.00207
# Poissons Ratio (z) = 0.34976 0.00225
#
# Static dielectric constant tensor:
#      x y z
#    x 2.045900 0.000000 0.000000 
#    y 0.000000 2.054730 0.000000 
#    z 0.000000 0.000000 2.006400 
# 
# From -- ./inp_files/800.got.cif
#   From: 2010.05.17/outbox.cif.g08.bks.cpg/sg64_1_cif.got.tgz:800.got - 2010.06.03 16:29:19.
