data_PCOD9482913
_publ_section_title
;
Structure prediction by ZEFSAII (Michael W. Deem and Ramdas Pophale) SiO2 
 PCOD9482913
Probable space group: C M M M
;
_chemical_formula_sum "Si O2"
_cell_formula_units_Z 56
_cell_length_a 11.518813
_cell_length_b 14.247473
_cell_length_c 13.758908
_cell_angle_alpha 90.000000
_cell_angle_beta 90.000000
_cell_angle_gamma 90.000000
_cell_volume 2258.029114
_symmetry_space_group_name_H-M "C M M M"
_symmetry_group_IT_number 65
_symmetry_cell_setting 'orthorhombic'
loop_
_space_group_symop_operation_xyz
x,y,z
-x,-y,z
x,-y,-z
-x,y,-z
-x,-y,-z
x,y,-z
-x,y,z
x,-y,z
1/2+x,1/2+y,z
1/2-x,1/2-y,z
1/2+x,1/2-y,-z
1/2-x,1/2+y,-z
1/2-x,1/2-y,-z
1/2+x,1/2+y,-z
1/2-x,1/2+y,z
1/2+x,1/2-y,z
loop_
_atom_site_type_symbol
_atom_site_label
_atom_site_fract_x
_atom_site_fract_y
_atom_site_fract_z
Si Si1 0.000000 0.347362 0.171000
Si Si2 0.246344 0.636945 0.188445
Si Si3 0.500000 0.368028 0.888150
Si Si4 0.189765 0.103870 0.394963
Si Si5 0.500000 0.767471 0.610052
O O1 0.123512 0.392114 0.142187
O O2 0.000000 0.244214 0.123463
O O3 0.000000 0.325421 0.288989
O O4 0.250000 0.750000 0.179173
O O5 0.374803 0.602989 0.156657
O O6 0.233333 0.609325 0.300652
O O7 0.500000 0.394258 0.000000
O O8 0.248813 0.110709 0.500000
O O9 0.106287 0.193038 0.386445
O O10 0.132748 0.000000 0.393191
O O11 0.500000 0.809638 0.500000
#
# Coordination Sequence:
#
# PCOD9482913 Si02
#       5
#     8  16   8  16   8
#     4  10  20  33  52  83 110 142 177 219 272 319
#     4  10  19  35  54  78 110 143 181 223 264 321
#     4  10  20  35  56  82 107 135 177 230 282 325
#     4  10  19  31  51  79 111 148 184 220 263 312
#     4  10  17  29  49  77 109 142 179 222 264 312
#
# _framework density 24.800388000000002
#
# number of rings (size 3 to 8) (size 9 to 14) (size 15 to 20)
#    0.000    2.000    5.714    0.429    0.000    8.571 
#    0.000    0.714    0.000    3.429    0.000    0.000 
#    0.000   20.571    0.000    0.000    0.000    0.000 
#
# Total GULP energy -156077.055707 kJ/mol
# GULP energy per Si atom -5574.180561 kJ/mol
# Density = 2.474394 g / cm^3
# Si number density = 24.800388 Si / 1000 Ang^3
#
#
#
# Elastic Constant Matrix: (Units=GPa)
#
#
# Indices 1 2 3 4 5 6 
#
# 1 224.8354 41.8028 44.3292 0.0000 0.0000 0.0000
# 2 41.8028 91.4025 8.5956 0.0000 0.0000 0.0000
# 3 44.3292 8.5956 98.3939 0.0000 0.0000 0.0000
# 4 0.0000 0.0000 0.0000 -11.4165 0.0000 0.0000
# 5 0.0000 0.0000 0.0000 0.0000 -1.0791 0.0000
# 6 0.0000 0.0000 0.0000 0.0000 0.0000 -81.1300
#
#
#
# Elastic Compliance Matrix: (Units=1/GPa)
#
#
# Indices 1 2 3 4 5 6 
#
# 1 0.005291 -0.002214 -0.002190 0.000000 0.000000 0.000000
# 2 -0.002214 0.011958 -0.000047 0.000000 0.000000 0.000000
# 3 -0.002190 -0.000047 0.011154 0.000000 0.000000 0.000000
# 4 0.000000 0.000000 0.000000 -0.087592 0.000000 0.000000
# 5 0.000000 0.000000 0.000000 0.000000 -0.926660 0.000000
# 6 0.000000 0.000000 0.000000 0.000000 0.000000 -0.012326
#
#
# Mechanical properties :
#
#
# Convention : Reuss Voigt Hill
#
# Bulk Modulus (GPa) = 51.28219 67.12078 59.20148
# Shear Modulus (GPa) = -5.08765 2.60181 -1.24292
#
# Velocity S-wave (km/s) = -1.43384 1.02537 -0.70870
# Velocity P-wave (km/s) = 4.24048 5.34088 4.82217
#
# Compressibility (1/GPa) = 0.01949995
#
# Stress axis : x y z
#
# Youngs Moduli (GPa) = 188.99319 83.62886 89.65234
#
# Poissons Ratio (x) = 0.18515 0.19638
# Poissons Ratio (y) = 0.41842 0.00423
# Poissons Ratio (z) = 0.41398 0.00394
#
# Static dielectric constant tensor:
#      x y z
#    x 2.081810 0.000000 0.000000 
#    y 0.000000 1.959060 0.000000 
#    z 0.000000 0.000000 1.940510 
# 
# From -- ./inp_files/37657.got.cif
#   From: 2010.05.17/outbox.cif.g08.bks.cpg/sg65_19_cif.got.tgz:37657.got - 2010.06.03 17:01:31.
