data_PCOD9482834
_publ_section_title
;
Structure prediction by ZEFSAII (Michael W. Deem and Ramdas Pophale) SiO2 
 PCOD9482834
Probable space group: C M M M
;
_chemical_formula_sum "Si O2"
_cell_formula_units_Z 120
_cell_length_a 20.300188
_cell_length_b 13.856641
_cell_length_c 23.056191
_cell_angle_alpha 90.000000
_cell_angle_beta 90.000000
_cell_angle_gamma 90.000000
_cell_volume 6485.531701
_symmetry_space_group_name_H-M "C M M M"
_symmetry_group_IT_number 65
_symmetry_cell_setting 'orthorhombic'
loop_
_space_group_symop_operation_xyz
x,y,z
-x,-y,z
x,-y,-z
-x,y,-z
-x,-y,-z
x,y,-z
-x,y,z
x,-y,z
1/2+x,1/2+y,z
1/2-x,1/2-y,z
1/2+x,1/2-y,-z
1/2-x,1/2+y,-z
1/2-x,1/2-y,-z
1/2+x,1/2+y,-z
1/2-x,1/2+y,z
1/2+x,1/2-y,z
loop_
_atom_site_type_symbol
_atom_site_label
_atom_site_fract_x
_atom_site_fract_y
_atom_site_fract_z
Si Si1 0.693634 0.112913 0.733583
Si Si2 0.870325 0.690497 0.379888
Si Si3 0.576726 0.886714 0.930390
Si Si4 0.245306 0.109834 0.433418
Si Si5 0.844470 0.889841 0.760891
Si Si6 0.923150 0.500000 0.435084
Si Si7 0.608824 0.606742 0.365068
Si Si8 0.826864 0.276108 0.847535
O O1 0.655573 0.175261 0.685793
O O2 0.771789 0.132871 0.734976
O O3 0.672563 0.141182 0.798120
O O4 0.684056 0.000000 0.720820
O O5 0.803278 0.683431 0.417804
O O6 0.907192 0.595859 0.399915
O O7 0.912662 0.787840 0.386795
O O8 0.500000 0.867148 0.914349
O O9 0.628048 0.815949 0.898965
O O10 0.590051 0.000000 0.916374
O O11 0.581707 0.877329 0.000000
O O12 0.223586 0.120917 0.500000
O O13 0.183770 0.109519 0.389904
O O14 0.272960 0.000000 0.427078
O O15 0.891262 0.887920 0.704781
O O16 0.855898 0.816398 0.813115
O O17 0.842195 0.000000 0.782287
O O18 0.892834 0.500000 0.500000
O O19 0.000000 0.500000 0.442840
O O20 0.582531 0.500000 0.381980
O O21 0.750000 0.250000 0.862094
#
# Coordination Sequence:
#
# PCOD9482834 Si02
#       8
#    16  16  16  16  16   8  16  16
#     4  10  17  27  46  76 108 144 178 221 275 340
#     4  12  19  32  55  71 101 140 178 222 282 339
#     4   9  19  38  62  87 119 157 193 237 296 351
#     4  10  19  29  44  72 104 136 174 213 264 334
#     4   9  17  29  45  72 112 152 183 217 270 329
#     4  11  26  44  58  74  96 132 187 245 302 355
#     4  10  20  31  47  74 109 143 174 213 263 335
#     4  10  19  30  53  84 116 154 195 236 285 342
#
# _framework density 18.502723
#
# number of rings (size 3 to 8) (size 9 to 14) (size 15 to 20)
#    0.000    1.933    4.000    1.600    0.000    2.400 
#    0.000    0.667    0.000    1.200    0.000    3.733 
#    0.000    0.000    0.000    0.000    0.000    0.000 
#
# Total GULP energy -334334.217718 kJ/mol
# GULP energy per Si atom -5572.236962 kJ/mol
# Density = 1.846061 g / cm^3
# Si number density = 18.502723 Si / 1000 Ang^3
#
#
#
# Elastic Constant Matrix: (Units=GPa)
#
#
# Indices 1 2 3 4 5 6 
#
# 1 47.1063 26.1622 32.8313 0.0000 0.0000 0.0000
# 2 26.1622 145.6978 33.6499 0.0000 0.0000 0.0000
# 3 32.8313 33.6499 79.1652 0.0000 0.0000 0.0000
# 4 0.0000 0.0000 0.0000 45.1082 0.0000 0.0000
# 5 0.0000 0.0000 0.0000 0.0000 1.6704 0.0000
# 6 0.0000 0.0000 0.0000 0.0000 0.0000 11.3499
#
#
#
# Elastic Compliance Matrix: (Units=1/GPa)
#
#
# Indices 1 2 3 4 5 6 
#
# 1 0.030906 -0.002871 -0.011597 0.000000 0.000000 0.000000
# 2 -0.002871 0.007877 -0.002158 0.000000 0.000000 0.000000
# 3 -0.011597 -0.002158 0.018358 0.000000 0.000000 0.000000
# 4 0.000000 0.000000 0.000000 0.022169 0.000000 0.000000
# 5 0.000000 0.000000 0.000000 0.000000 0.598673 0.000000
# 6 0.000000 0.000000 0.000000 0.000000 0.000000 0.088107
#
#
# Mechanical properties :
#
#
# Convention : Reuss Voigt Hill
#
# Bulk Modulus (GPa) = 41.85803 50.80624 46.33214
# Shear Modulus (GPa) = 6.19344 23.58075 14.88710
#
# Velocity S-wave (km/s) = 1.83155 3.57381 2.83961
# Velocity P-wave (km/s) = 5.21004 6.67442 5.98717
#
# Compressibility (1/GPa) = 0.02389028
#
# Stress axis : x y z
#
# Youngs Moduli (GPa) = 32.35645 126.94529 54.47128
#
# Poissons Ratio (x) = 0.36449 0.63169
# Poissons Ratio (y) = 0.09290 0.11753
# Poissons Ratio (z) = 0.37523 0.27390
#
# Static dielectric constant tensor:
#      x y z
#    x 1.650350 0.000000 0.000000 
#    y 0.000000 1.730890 0.000000 
#    z 0.000000 0.000000 1.624100 
# 
# From -- ./inp_files/64755.got.cif
#   From: 2010.05.17/outbox.cif.g08.bks.cpg/sg65_33_cif.got.tgz:64755.got - 2010.06.03 17:01:31.
