data_PCOD9482871
_publ_section_title
;
Structure prediction by ZEFSAII (Michael W. Deem and Ramdas Pophale) SiO2 
 PCOD9482871
Probable space group: C M M M
;
_chemical_formula_sum "Si O2"
_cell_formula_units_Z 104
_cell_length_a 24.864856
_cell_length_b 28.952138
_cell_length_c 8.929222
_cell_angle_alpha 90.000000
_cell_angle_beta 90.000000
_cell_angle_gamma 90.000000
_cell_volume 6428.064253
_symmetry_space_group_name_H-M "C M M M"
_symmetry_group_IT_number 65
_symmetry_cell_setting 'orthorhombic'
loop_
_space_group_symop_operation_xyz
x,y,z
-x,-y,z
x,-y,-z
-x,y,-z
-x,-y,-z
x,y,-z
-x,y,z
x,-y,z
1/2+x,1/2+y,z
1/2-x,1/2-y,z
1/2+x,1/2-y,-z
1/2-x,1/2+y,-z
1/2-x,1/2-y,-z
1/2+x,1/2+y,-z
1/2-x,1/2+y,z
1/2+x,1/2-y,z
loop_
_atom_site_type_symbol
_atom_site_label
_atom_site_fract_x
_atom_site_fract_y
_atom_site_fract_z
Si Si1 0.858310 0.445690 0.680204
Si Si2 0.938309 0.000000 0.317997
Si Si3 0.565271 0.775297 0.327733
Si Si4 0.063049 0.628393 0.821058
Si Si5 0.236571 0.053180 0.682014
Si Si6 0.563388 0.321085 0.179016
Si Si7 0.625049 0.407066 0.681520
O O1 0.861842 0.440561 0.500000
O O2 0.866789 0.500000 0.713791
O O3 0.901144 0.412814 0.757342
O O4 0.796996 0.433781 0.727378
O O5 0.907411 0.046579 0.273813
O O6 0.938691 0.000000 0.500000
O O7 0.000000 0.000000 0.266217
O O8 0.583004 0.774796 0.500000
O O9 0.500000 0.775423 0.325908
O O10 0.581606 0.822639 0.247388
O O11 0.581310 0.728404 0.244238
O O12 0.000000 0.621787 0.780656
O O13 0.066540 0.630345 0.000000
O O14 0.236460 0.052667 0.500000
O O15 0.186987 0.085009 0.728263
O O16 0.226517 0.000000 0.728642
O O17 0.500000 0.327532 0.218005
O O18 0.597508 0.362526 0.248182
O O19 0.567565 0.320666 0.000000
O O20 0.622939 0.403699 0.500000
#
# Coordination Sequence:
#
# PCOD9482871 Si02
#       7
#    16   8  16  16  16  16  16
#     4   9  18  32  51  74 100 130 165 202 237 279
#     4   9  16  24  39  67  97 123 156 201 246 286
#     4   9  17  31  52  74  94 121 161 202 237 283
#     4  10  20  33  50  74 104 133 157 187 236 292
#     4   8  14  28  49  71  93 122 164 210 249 281
#     4  10  20  32  45  66  99 133 162 197 245 295
#     4  10  17  28  48  70  93 124 165 209 247 287
#
# _framework density 16.179054000000001
#
# number of rings (size 3 to 8) (size 9 to 14) (size 15 to 20)
#    0.000    2.692    0.769    2.769    0.000    4.923 
#    0.000    2.692    0.000    3.231    0.000    6.462 
#    0.000    0.000    0.000    0.000    0.000    0.000 
#
# Total GULP energy -289814.540072 kJ/mol
# GULP energy per Si atom -5573.356540 kJ/mol
# Density = 1.614223 g / cm^3
# Si number density = 16.179054 Si / 1000 Ang^3
#
#
#
# Elastic Constant Matrix: (Units=GPa)
#
#
# Indices 1 2 3 4 5 6 
#
# 1 101.7508 87.0844 42.8775 0.0000 0.0000 0.0000
# 2 87.0844 141.4214 53.7200 0.0000 0.0000 0.0000
# 3 42.8775 53.7200 41.6419 0.0000 0.0000 0.0000
# 4 0.0000 0.0000 0.0000 -51.7034 0.0000 0.0000
# 5 0.0000 0.0000 0.0000 0.0000 14.5203 0.0000
# 6 0.0000 0.0000 0.0000 0.0000 0.0000 7.2198
#
#
#
# Elastic Compliance Matrix: (Units=1/GPa)
#
#
# Indices 1 2 3 4 5 6 
#
# 1 0.022933 -0.010102 -0.010581 0.000000 0.000000 0.000000
# 2 -0.010102 0.018316 -0.013226 0.000000 0.000000 0.000000
# 3 -0.010581 -0.013226 0.051972 0.000000 0.000000 0.000000
# 4 0.000000 0.000000 0.000000 -0.019341 0.000000 0.000000
# 5 0.000000 0.000000 0.000000 0.000000 0.068869 0.000000
# 6 0.000000 0.000000 0.000000 0.000000 0.000000 0.138508
#
#
# Mechanical properties :
#
#
# Convention : Reuss Voigt Hill
#
# Bulk Modulus (GPa) = 39.36776 72.46419 55.91598
# Shear Modulus (GPa) = 13.98432 0.74948 7.36690
#
# Velocity S-wave (km/s) = 2.94317 0.68136 2.13617
# Velocity P-wave (km/s) = 5.99458 6.74575 6.38123
#
# Compressibility (1/GPa) = 0.02540149
#
# Stress axis : x y z
#
# Youngs Moduli (GPa) = 43.60554 54.59676 19.24119
#
# Poissons Ratio (x) = 0.55156 0.20359
# Poissons Ratio (y) = 0.44052 0.25449
# Poissons Ratio (z) = 0.46138 0.72212
#
# Static dielectric constant tensor:
#      x y z
#    x 1.541900 0.000000 0.000000 
#    y 0.000000 1.517620 0.000000 
#    z 0.000000 0.000000 1.540950 
# 
# From -- ./inp_files/14805.got.cif
#   From: 2010.05.17/outbox.cif.g08.bks.cpg/sg65_8_cif.got.tgz:14805.got - 2010.06.03 17:01:31.
