data_PCOD9482802
_publ_section_title
;
Structure prediction by ZEFSAII (Michael W. Deem and Ramdas Pophale) SiO2 
 PCOD9482802
Probable space group: C M M M
;
_chemical_formula_sum "Si O2"
_cell_formula_units_Z 72
_cell_length_a 37.314910
_cell_length_b 8.884134
_cell_length_c 14.835744
_cell_angle_alpha 90.000000
_cell_angle_beta 90.000000
_cell_angle_gamma 90.000000
_cell_volume 4918.207294
_symmetry_space_group_name_H-M "C M M M"
_symmetry_group_IT_number 65
_symmetry_cell_setting 'orthorhombic'
loop_
_space_group_symop_operation_xyz
x,y,z
-x,-y,z
x,-y,-z
-x,y,-z
-x,-y,-z
x,y,-z
-x,y,z
x,-y,z
1/2+x,1/2+y,z
1/2-x,1/2-y,z
1/2+x,1/2-y,-z
1/2-x,1/2+y,-z
1/2-x,1/2-y,-z
1/2+x,1/2+y,-z
1/2-x,1/2+y,z
1/2+x,1/2-y,z
loop_
_atom_site_type_symbol
_atom_site_label
_atom_site_fract_x
_atom_site_fract_y
_atom_site_fract_z
Si Si1 0.571626 0.682442 0.288868
Si Si2 0.862016 0.320023 0.394394
Si Si3 0.458305 0.316901 0.100450
Si Si4 0.500000 0.316985 0.603384
Si Si5 0.286809 0.326821 0.609576
O O1 0.573840 0.500000 0.291570
O O2 0.606489 0.750478 0.335039
O O3 0.565264 0.730736 0.185377
O O4 0.536015 0.727938 0.344491
O O5 0.867306 0.276878 0.500000
O O6 0.862497 0.500000 0.389324
O O7 0.823053 0.259514 0.365314
O O8 0.500000 0.273618 0.114527
O O9 0.457989 0.500000 0.100451
O O10 0.447326 0.267300 0.000000
O O11 0.500000 0.500000 0.602734
O O12 0.500000 0.265058 0.500000
O O13 0.285756 0.324804 0.500000
O O14 0.288461 0.500000 0.638310
O O15 0.250000 0.250000 0.640901
#
# Coordination Sequence:
#
# PCOD9482802 Si02
#       5
#    16  16  16   8  16
#     4  10  17  27  43  62  82 109 145 182 220 260
#     4  10  20  31  41  57  85 119 150 180 214 251
#     4   8  13  23  41  64  85 103 132 179 229 270
#     4   9  16  24  36  56  80 107 143 183 214 245
#     4   9  16  27  44  64  85 111 143 177 212 251
#
# _framework density 14.639480000000001
#
# number of rings (size 3 to 8) (size 9 to 14) (size 15 to 20)
#    0.000    2.778    1.111    2.667    0.000    4.889 
#    0.000    0.556    0.000    2.667    0.000    1.556 
#    0.000    0.889    0.000    2.444    0.000    3.556 
#
# Total GULP energy -200532.258477 kJ/mol
# GULP energy per Si atom -5570.340513 kJ/mol
# Density = 1.460616 g / cm^3
# Si number density = 14.639480 Si / 1000 Ang^3
#
#
#
# Elastic Constant Matrix: (Units=GPa)
#
#
# Indices 1 2 3 4 5 6 
#
# 1 140.3598 39.2494 71.5007 0.0000 0.0000 0.0000
# 2 39.2494 32.0650 29.4000 0.0000 0.0000 0.0000
# 3 71.5007 29.4000 102.0659 0.0000 0.0000 0.0000
# 4 0.0000 0.0000 0.0000 8.5016 0.0000 0.0000
# 5 0.0000 0.0000 0.0000 0.0000 4.4870 0.0000
# 6 0.0000 0.0000 0.0000 0.0000 0.0000 21.4434
#
#
#
# Elastic Compliance Matrix: (Units=1/GPa)
#
#
# Indices 1 2 3 4 5 6 
#
# 1 0.013241 -0.010467 -0.006261 0.000000 0.000000 0.000000
# 2 -0.010467 0.050654 -0.007258 0.000000 0.000000 0.000000
# 3 -0.006261 -0.007258 0.016274 0.000000 0.000000 0.000000
# 4 0.000000 0.000000 0.000000 0.117625 0.000000 0.000000
# 5 0.000000 0.000000 0.000000 0.000000 0.222867 0.000000
# 6 0.000000 0.000000 0.000000 0.000000 0.000000 0.046634
#
#
# Mechanical properties :
#
#
# Convention : Reuss Voigt Hill
#
# Bulk Modulus (GPa) = 31.05883 61.64344 46.35114
# Shear Modulus (GPa) = 9.50571 15.84243 12.67407
#
# Velocity S-wave (km/s) = 2.55094 3.29321 2.94555
# Velocity P-wave (km/s) = 5.47159 7.52724 6.58018
#
# Compressibility (1/GPa) = 0.03219696
#
# Stress axis : x y z
#
# Youngs Moduli (GPa) = 75.52471 19.74172 61.44762
#
# Poissons Ratio (x) = 0.20664 0.38469
# Poissons Ratio (y) = 0.79053 0.44600
# Poissons Ratio (z) = 0.47282 0.14329
#
# Static dielectric constant tensor:
#      x y z
#    x 1.464050 0.000000 0.000000 
#    y 0.000000 1.493520 0.000000 
#    z 0.000000 0.000000 1.483720 
# 
# From -- ./inp_files/47486.got.cif
#   From: 2010.05.17/outbox.cif.g08.bks.cpg/sg65_24_cif.got.tgz:47486.got - 2010.06.03 17:01:31.
