data_PCOD9482875
_publ_section_title
;
Structure prediction by ZEFSAII (Michael W. Deem and Ramdas Pophale) SiO2 
 PCOD9482875
Probable space group: C M M M
;
_chemical_formula_sum "Si O2"
_cell_formula_units_Z 68
_cell_length_a 22.119237
_cell_length_b 14.040417
_cell_length_c 12.096238
_cell_angle_alpha 90.000000
_cell_angle_beta 90.000000
_cell_angle_gamma 90.000000
_cell_volume 3756.647726
_symmetry_space_group_name_H-M "C M M M"
_symmetry_group_IT_number 65
_symmetry_cell_setting 'orthorhombic'
loop_
_space_group_symop_operation_xyz
x,y,z
-x,-y,z
x,-y,-z
-x,y,-z
-x,-y,-z
x,y,-z
-x,y,z
x,-y,z
1/2+x,1/2+y,z
1/2-x,1/2-y,z
1/2+x,1/2-y,-z
1/2-x,1/2+y,-z
1/2-x,1/2-y,-z
1/2+x,1/2+y,-z
1/2-x,1/2+y,z
1/2+x,1/2-y,z
loop_
_atom_site_type_symbol
_atom_site_label
_atom_site_fract_x
_atom_site_fract_y
_atom_site_fract_z
Si Si1 0.572003 0.280348 0.873349
Si Si2 0.391388 0.385974 0.664469
Si Si3 0.650210 0.115750 0.500000
Si Si4 0.500000 0.333094 0.500000
Si Si5 0.429978 0.887945 0.709535
Si Si6 0.712519 0.384280 0.500000
O O1 0.500000 0.300810 0.871763
O O2 0.604296 0.352736 0.790322
O O3 0.579699 0.176996 0.816353
O O4 0.592356 0.283007 0.000000
O O5 0.398498 0.500000 0.654431
O O6 0.446852 0.341366 0.596047
O O7 0.328390 0.359088 0.605823
O O8 0.613379 0.142352 0.609653
O O9 0.718871 0.150912 0.500000
O O10 0.650587 0.000000 0.500000
O O11 0.500000 0.876341 0.672602
O O12 0.420916 0.000000 0.732257
O O13 0.716582 0.500000 0.500000
#
# Coordination Sequence:
#
# PCOD9482875 Si02
#       6
#    16  16   8   4  16   8
#     4  10  21  34  48  73 103 133 174 211 243 290
#     4  10  18  31  50  74 104 133 164 202 248 295
#     4   9  16  31  54  79 104 126 159 206 257 311
#     4  10  17  28  48  74  99 126 161 200 244 294
#     4   9  18  33  53  76 101 129 160 206 260 304
#     4   8  17  31  51  77 103 133 164 200 249 309
#
# _framework density 18.101244999999999
#
# number of rings (size 3 to 8) (size 9 to 14) (size 15 to 20)
#    0.000    2.588    1.176    2.118    0.000    4.235 
#    0.000    5.882    0.000    2.824    0.000    6.588 
#    0.000    0.000    0.000    0.000    0.000    0.000 
#
# Total GULP energy -189302.306624 kJ/mol
# GULP energy per Si atom -5567.714901 kJ/mol
# Density = 1.806005 g / cm^3
# Si number density = 18.101245 Si / 1000 Ang^3
#
#
#
# Elastic Constant Matrix: (Units=GPa)
#
#
# Indices 1 2 3 4 5 6 
#
# 1 96.7583 29.1415 65.7925 0.0000 0.0000 0.0000
# 2 29.1415 63.9366 20.2834 0.0000 0.0000 0.0000
# 3 65.7925 20.2834 164.7109 0.0000 0.0000 0.0000
# 4 0.0000 0.0000 0.0000 20.0489 0.0000 0.0000
# 5 0.0000 0.0000 0.0000 0.0000 12.0084 0.0000
# 6 0.0000 0.0000 0.0000 0.0000 0.0000 18.5844
#
#
#
# Elastic Compliance Matrix: (Units=1/GPa)
#
#
# Indices 1 2 3 4 5 6 
#
# 1 0.015804 -0.005412 -0.005646 0.000000 0.000000 0.000000
# 2 -0.005412 0.018130 -0.000071 0.000000 0.000000 0.000000
# 3 -0.005646 -0.000071 0.008335 0.000000 0.000000 0.000000
# 4 0.000000 0.000000 0.000000 0.049878 0.000000 0.000000
# 5 0.000000 0.000000 0.000000 0.000000 0.083275 0.000000
# 6 0.000000 0.000000 0.000000 0.000000 0.000000 0.053809
#
#
# Mechanical properties :
#
#
# Convention : Reuss Voigt Hill
#
# Bulk Modulus (GPa) = 49.97301 61.76005 55.86653
# Shear Modulus (GPa) = 19.36782 24.14092 21.75437
#
# Velocity S-wave (km/s) = 3.27459 3.65589 3.47048
# Velocity P-wave (km/s) = 6.47802 7.21208 6.85488
#
# Compressibility (1/GPa) = 0.02001080
#
# Stress axis : x y z
#
# Youngs Moduli (GPa) = 63.27315 55.15803 119.97020
#
# Poissons Ratio (x) = 0.29852 0.67741
# Poissons Ratio (y) = 0.34245 0.00849
# Poissons Ratio (z) = 0.35727 0.00390
#
# Static dielectric constant tensor:
#      x y z
#    x 1.604980 0.000000 0.000000 
#    y 0.000000 1.704150 0.000000 
#    z 0.000000 0.000000 1.598990 
# 
# From -- ./inp_files/28353.got.cif
#   From: 2010.05.17/outbox.cif.g08.bks.cpg/sg65_15_cif.got.tgz:28353.got - 2010.06.03 17:01:31.
