data_PCOD9482874
_publ_section_title
;
Structure prediction by ZEFSAII (Michael W. Deem and Ramdas Pophale) SiO2 
 PCOD9482874
Probable space group: C M M M
;
_chemical_formula_sum "Si O2"
_cell_formula_units_Z 72
_cell_length_a 22.418488
_cell_length_b 20.858790
_cell_length_c 7.683771
_cell_angle_alpha 90.000000
_cell_angle_beta 90.000000
_cell_angle_gamma 90.000000
_cell_volume 3593.104460
_symmetry_space_group_name_H-M "C M M M"
_symmetry_group_IT_number 65
_symmetry_cell_setting 'orthorhombic'
loop_
_space_group_symop_operation_xyz
x,y,z
-x,-y,z
x,-y,-z
-x,y,-z
-x,-y,-z
x,y,-z
-x,y,z
x,-y,z
1/2+x,1/2+y,z
1/2-x,1/2-y,z
1/2+x,1/2-y,-z
1/2-x,1/2+y,-z
1/2-x,1/2-y,-z
1/2+x,1/2+y,-z
1/2-x,1/2+y,z
1/2+x,1/2-y,z
loop_
_atom_site_type_symbol
_atom_site_label
_atom_site_fract_x
_atom_site_fract_y
_atom_site_fract_z
Si Si1 0.652227 0.500000 0.213557
Si Si2 0.568575 0.238753 0.706475
Si Si3 0.711022 0.000000 0.786530
Si Si4 0.067138 0.113591 0.208996
Si Si5 0.625970 0.885478 0.206898
Si Si6 0.500000 0.075732 0.799209
O O1 0.720616 0.500000 0.271227
O O2 0.615591 0.562659 0.271260
O O3 0.652964 0.500000 0.000000
O O4 0.566152 0.232622 0.500000
O O5 0.500000 0.224810 0.773173
O O6 0.581063 0.312604 0.750546
O O7 0.620792 0.191062 0.770336
O O8 0.676153 0.935056 0.729422
O O9 0.711782 0.000000 0.000000
O O10 0.000000 0.099943 0.275049
O O11 0.065081 0.107502 0.000000
O O12 0.561813 0.904615 0.285243
O O13 0.624412 0.897733 0.000000
O O14 0.500000 0.000000 0.808940
O O15 0.500000 0.099742 0.000000
#
# Coordination Sequence:
#
# PCOD9482874 Si02
#       6
#     8  16   8  16  16   8
#     4   9  17  32  53  78 102 120 154 209 252 286
#     4  10  20  32  47  72 104 131 159 202 249 287
#     4   9  18  30  49  76 101 128 164 205 244 281
#     4   9  17  31  54  79  99 123 156 197 249 302
#     4  10  17  28  48  72  99 131 165 198 237 287
#     4   9  14  22  41  69  95 120 157 200 233 273
#
# _framework density 20.038381000000001
#
# number of rings (size 3 to 8) (size 9 to 14) (size 15 to 20)
#    0.000    2.556    2.222    1.000    0.000    2.222 
#    0.000    2.222    0.000   14.000    0.000    0.000 
#    0.000    0.000    0.000    0.000    0.000    0.000 
#
# Total GULP energy -200524.166955 kJ/mol
# GULP energy per Si atom -5570.115749 kJ/mol
# Density = 1.999277 g / cm^3
# Si number density = 20.038381 Si / 1000 Ang^3
#
#
#
# Elastic Constant Matrix: (Units=GPa)
#
#
# Indices 1 2 3 4 5 6 
#
# 1 162.0212 117.1775 11.2578 0.0000 0.0000 0.0000
# 2 117.1775 163.0581 3.5956 0.0000 0.0000 0.0000
# 3 11.2578 3.5956 37.1362 0.0000 0.0000 0.0000
# 4 0.0000 0.0000 0.0000 -46.2345 0.0000 0.0000
# 5 0.0000 0.0000 0.0000 0.0000 25.7691 0.0000
# 6 0.0000 0.0000 0.0000 0.0000 0.0000 -2.9136
#
#
#
# Elastic Compliance Matrix: (Units=1/GPa)
#
#
# Indices 1 2 3 4 5 6 
#
# 1 0.013195 -0.009414 -0.003089 0.000000 0.000000 0.000000
# 2 -0.009414 0.012863 0.001609 0.000000 0.000000 0.000000
# 3 -0.003089 0.001609 0.027708 0.000000 0.000000 0.000000
# 4 0.000000 0.000000 0.000000 -0.021629 0.000000 0.000000
# 5 0.000000 0.000000 0.000000 0.000000 0.038806 0.000000
# 6 0.000000 0.000000 0.000000 0.000000 0.000000 -0.343217
#
#
# Mechanical properties :
#
#
# Convention : Reuss Voigt Hill
#
# Bulk Modulus (GPa) = 31.27184 69.58636 50.42910
# Shear Modulus (GPa) = -20.84858 10.66983 -5.08937
#
# Velocity S-wave (km/s) = -3.22907 2.31003 -1.59541
# Velocity P-wave (km/s) = 1.31807 6.47433 4.67195
#
# Compressibility (1/GPa) = 0.03197765
#
# Stress axis : x y z
#
# Youngs Moduli (GPa) = 75.78434 77.74408 36.09002
#
# Poissons Ratio (x) = 0.73191 0.11147
# Poissons Ratio (y) = 0.71346 -0.05805
# Poissons Ratio (z) = 0.23407 -0.12506
#
# Static dielectric constant tensor:
#      x y z
#    x 1.705730 0.000000 0.000000 
#    y 0.000000 1.759410 0.000000 
#    z 0.000000 0.000000 1.722800 
# 
# From -- ./inp_files/11310.got.cif
#   From: 2010.05.17/outbox.cif.g08.bks.cpg/sg65_6_cif.got.tgz:11310.got - 2010.06.03 17:01:31.
