data_PCOD9482239
_publ_section_title
;
Structure prediction by ZEFSAII (Michael W. Deem and Ramdas Pophale) SiO2 
 PCOD9482239
Probable space group: C M C A
;
_chemical_formula_sum "Si O2"
_cell_formula_units_Z 64
_cell_length_a 18.600505
_cell_length_b 20.508619
_cell_length_c 9.096703
_cell_angle_alpha 90.000000
_cell_angle_beta 90.000000
_cell_angle_gamma 90.000000
_cell_volume 3470.125390
_symmetry_space_group_name_H-M "C M C A"
_symmetry_group_IT_number 64
_symmetry_cell_setting 'orthorhombic'
loop_
_space_group_symop_operation_xyz
x,y,z
-x,1/2-y,1/2+z
x,-y,-z
-x,1/2+y,1/2-z
-x,-y,-z
x,1/2+y,1/2-z
-x,y,z
x,1/2-y,1/2+z
1/2+x,1/2+y,z
1/2-x,-y,1/2+z
1/2+x,1/2-y,-z
1/2-x,y,1/2-z
1/2-x,1/2-y,-z
1/2+x,y,1/2-z
1/2-x,1/2+y,z
1/2+x,-y,1/2+z
loop_
_atom_site_type_symbol
_atom_site_label
_atom_site_fract_x
_atom_site_fract_y
_atom_site_fract_z
Si Si1 0.285783 0.938295 0.409768
Si Si2 0.083324 0.522419 0.762069
Si Si3 0.915331 0.106448 0.438583
Si Si4 0.727354 0.184031 0.081142
O O1 0.250000 0.933779 0.250000
O O2 0.368031 0.952242 0.369154
O O3 0.269809 0.874693 0.502598
O O4 0.256621 0.000000 0.500000
O O5 0.102648 0.449494 0.817779
O O6 0.000000 0.521789 0.722907
O O7 0.091494 0.569809 0.904004
O O8 0.856965 0.163804 0.430262
O O9 0.000000 0.124392 0.421731
O O10 0.750000 0.188175 0.250000
O O11 0.750000 0.250000 0.000000
#
# Coordination Sequence:
#
# PCOD9482239 Si02
#       4
#    16  16  16  16
#     4  12  22  36  61  92 125 163 207 260 313 369
#     4   9  18  34  62  95 124 159 205 255 308 369
#     4   9  18  38  64  91 125 164 205 253 315 374
#     4  12  26  43  62  90 126 166 214 266 316 380
#
# _framework density 18.443137
#
# number of rings (size 3 to 8) (size 9 to 14) (size 15 to 20)
#    0.000    1.500    2.500    6.000    0.000    0.500 
#    0.000    3.750    0.000    0.000    0.000    0.000 
#    0.000    0.000    0.000    0.000    0.000    0.000 
#
# Total GULP energy -178743.308826 kJ/mol
# GULP energy per Si atom -5585.728401 kJ/mol
# Density = 1.840116 g / cm^3
# Si number density = 18.443137 Si / 1000 Ang^3
#
#
#
# Elastic Constant Matrix: (Units=GPa)
#
#
# Indices 1 2 3 4 5 6 
#
# 1 133.3557 70.9764 45.1527 0.0000 0.0000 0.0000
# 2 70.9764 158.8152 75.0679 0.0000 0.0000 0.0000
# 3 45.1527 75.0679 125.9800 0.0000 0.0000 0.0000
# 4 0.0000 0.0000 0.0000 36.6132 0.0000 0.0000
# 5 0.0000 0.0000 0.0000 0.0000 24.0442 0.0000
# 6 0.0000 0.0000 0.0000 0.0000 0.0000 27.8808
#
#
#
# Elastic Compliance Matrix: (Units=1/GPa)
#
#
# Indices 1 2 3 4 5 6 
#
# 1 0.009985 -0.003857 -0.001280 0.000000 0.000000 0.000000
# 2 -0.003857 0.010256 -0.004728 0.000000 0.000000 0.000000
# 3 -0.001280 -0.004728 0.011214 0.000000 0.000000 0.000000
# 4 0.000000 0.000000 0.000000 0.027313 0.000000 0.000000
# 5 0.000000 0.000000 0.000000 0.000000 0.041590 0.000000
# 6 0.000000 0.000000 0.000000 0.000000 0.000000 0.035867
#
#
# Mechanical properties :
#
#
# Convention : Reuss Voigt Hill
#
# Bulk Modulus (GPa) = 85.30458 88.94942 87.12700
# Shear Modulus (GPa) = 31.27647 32.83790 32.05719
#
# Velocity S-wave (km/s) = 4.12252 4.22417 4.17365
# Velocity P-wave (km/s) = 8.30743 8.49265 8.40055
#
# Compressibility (1/GPa) = 0.01172270
#
# Stress axis : x y z
#
# Youngs Moduli (GPa) = 100.14764 97.50819 89.17245
#
# Poissons Ratio (x) = 0.37612 0.11417
# Poissons Ratio (y) = 0.38630 0.42165
# Poissons Ratio (z) = 0.12822 0.46106
#
# Static dielectric constant tensor:
#      x y z
#    x 1.691460 0.000000 0.000000 
#    y 0.000000 1.595490 0.000000 
#    z 0.000000 0.000000 1.624360 
# 
# From -- ./inp_files/6565.got.cif
#   From: 2010.05.17/outbox.cif.g08.bks.cpg/sg64_4_cif.got.tgz:6565.got - 2010.06.03 16:29:19.
