data_PCOD9482850
_publ_section_title
;
Structure prediction by ZEFSAII (Michael W. Deem and Ramdas Pophale) SiO2 
 PCOD9482850
Probable space group: C M M M
;
_chemical_formula_sum "Si O2"
_cell_formula_units_Z 84
_cell_length_a 19.470005
_cell_length_b 12.940208
_cell_length_c 15.317453
_cell_angle_alpha 90.000000
_cell_angle_beta 90.000000
_cell_angle_gamma 90.000000
_cell_volume 3859.169703
_symmetry_space_group_name_H-M "C M M M"
_symmetry_group_IT_number 65
_symmetry_cell_setting 'orthorhombic'
loop_
_space_group_symop_operation_xyz
x,y,z
-x,-y,z
x,-y,-z
-x,y,-z
-x,-y,-z
x,y,-z
-x,y,z
x,-y,z
1/2+x,1/2+y,z
1/2-x,1/2-y,z
1/2+x,1/2-y,-z
1/2-x,1/2+y,-z
1/2-x,1/2-y,-z
1/2+x,1/2+y,-z
1/2-x,1/2+y,z
1/2+x,1/2-y,z
loop_
_atom_site_type_symbol
_atom_site_label
_atom_site_fract_x
_atom_site_fract_y
_atom_site_fract_z
Si Si1 0.781718 0.622538 0.101003
Si Si2 0.629621 0.380279 0.154722
Si Si3 0.926810 0.321448 0.899001
Si Si4 0.890803 0.000000 0.500000
Si Si5 0.648724 0.661044 0.648930
Si Si6 0.306152 0.116181 0.605346
O O1 0.775261 0.500000 0.101001
O O2 0.708558 0.657059 0.138240
O O3 0.855713 0.642700 0.144266
O O4 0.786205 0.656208 0.000000
O O5 0.622811 0.500000 0.129744
O O6 0.580980 0.302253 0.103805
O O7 0.618336 0.366207 0.257402
O O8 0.000000 0.352907 0.860138
O O9 0.926700 0.357260 0.000000
O O10 0.886282 0.908969 0.575688
O O11 0.649258 0.784348 0.631563
O O12 0.729927 0.629650 0.645699
O O13 0.296282 0.120883 0.500000
O O14 0.331044 0.000000 0.626739
#
# Coordination Sequence:
#
# PCOD9482850 Si02
#       6
#    16  16  16   4  16  16
#     4   9  19  36  57  82 113 145 183 233 288 345
#     4  11  22  34  53  84 114 148 186 236 289 342
#     4  10  22  39  57  79 110 150 192 233 282 342
#     4  12  16  34  46  72 115 156 185 226 288 346
#     4  11  19  29  46  72 110 149 183 228 281 338
#     4  10  17  28  43  66 102 146 185 221 273 339
#
# _framework density 21.766341000000001
#
# number of rings (size 3 to 8) (size 9 to 14) (size 15 to 20)
#    0.000    1.714    3.810    1.714    5.333    3.429 
#    0.000    2.857    0.000    0.000    0.000    1.333 
#    0.000    0.000    0.000    2.952    0.000    0.000 
#
# Total GULP energy -233834.682868 kJ/mol
# GULP energy per Si atom -5567.492449 kJ/mol
# Density = 2.171680 g / cm^3
# Si number density = 21.766341 Si / 1000 Ang^3
#
#
#
# Elastic Constant Matrix: (Units=GPa)
#
#
# Indices 1 2 3 4 5 6 
#
# 1 72.4393 9.2377 2.7734 0.0000 0.0000 0.0000
# 2 9.2377 105.1475 -12.8151 0.0000 0.0000 0.0000
# 3 2.7734 -12.8151 60.4100 0.0000 0.0000 0.0000
# 4 0.0000 0.0000 0.0000 23.7356 0.0000 0.0000
# 5 0.0000 0.0000 0.0000 0.0000 -2.1338 0.0000
# 6 0.0000 0.0000 0.0000 0.0000 0.0000 0.0652
#
#
#
# Elastic Compliance Matrix: (Units=1/GPa)
#
#
# Indices 1 2 3 4 5 6 
#
# 1 0.014012 -0.001344 -0.000928 0.000000 0.000000 0.000000
# 2 -0.001344 0.009892 0.002160 0.000000 0.000000 0.000000
# 3 -0.000928 0.002160 0.017054 0.000000 0.000000 0.000000
# 4 0.000000 0.000000 0.000000 0.042131 0.000000 0.000000
# 5 0.000000 0.000000 0.000000 0.000000 -0.468639 0.000000
# 6 0.000000 0.000000 0.000000 0.000000 0.000000 15.348144
#
#
# Mechanical properties :
#
#
# Convention : Reuss Voigt Hill
#
# Bulk Modulus (GPa) = 24.55015 26.26543 25.40779
# Shear Modulus (GPa) = 0.33386 20.25344 10.29365
#
# Velocity S-wave (km/s) = 0.39207 3.05371 2.17702
# Velocity P-wave (km/s) = 3.39240 4.95244 4.24471
#
# Compressibility (1/GPa) = 0.04073295
#
# Stress axis : x y z
#
# Youngs Moduli (GPa) = 71.36938 101.09373 58.63587
#
# Poissons Ratio (x) = 0.13588 0.05444
# Poissons Ratio (y) = 0.09593 -0.12666
# Poissons Ratio (z) = 0.06626 -0.21837
#
# Static dielectric constant tensor:
#      x y z
#    x 1.828290 0.000000 0.000000 
#    y 0.000000 1.856740 0.000000 
#    z 0.000000 0.000000 1.776260 
# 
# From -- ./inp_files/43993.got.cif
#   From: 2010.05.17/outbox.cif.g08.bks.cpg/sg65_22_cif.got.tgz:43993.got - 2010.06.03 17:01:31.
