data_PCOD9482570
_publ_section_title
;
Structure prediction by ZEFSAII (Michael W. Deem and Ramdas Pophale) SiO2 
 PCOD9482570
Probable space group: C M M M
;
_chemical_formula_sum "Si O2"
_cell_formula_units_Z 72
_cell_length_a 19.196287
_cell_length_b 8.367041
_cell_length_c 24.518200
_cell_angle_alpha 90.000000
_cell_angle_beta 90.000000
_cell_angle_gamma 90.000000
_cell_volume 3938.018163
_symmetry_space_group_name_H-M "C M M M"
_symmetry_group_IT_number 65
_symmetry_cell_setting 'orthorhombic'
loop_
_space_group_symop_operation_xyz
x,y,z
-x,-y,z
x,-y,-z
-x,y,-z
-x,-y,-z
x,y,-z
-x,y,z
x,-y,z
1/2+x,1/2+y,z
1/2-x,1/2-y,z
1/2+x,1/2-y,-z
1/2-x,1/2+y,-z
1/2-x,1/2-y,-z
1/2+x,1/2+y,-z
1/2-x,1/2+y,z
1/2+x,1/2-y,z
loop_
_atom_site_type_symbol
_atom_site_label
_atom_site_fract_x
_atom_site_fract_y
_atom_site_fract_z
Si Si1 0.329678 0.193204 0.766719
Si Si2 0.169878 0.691023 0.886436
Si Si3 0.171668 0.306895 0.561645
Si Si4 0.330312 0.311254 0.000000
Si Si5 0.579990 0.804368 0.336453
O O1 0.250000 0.250000 0.760464
O O2 0.357355 0.242172 0.826855
O O3 0.377028 0.248538 0.716694
O O4 0.328712 0.000000 0.766036
O O5 0.169458 0.500000 0.889012
O O6 0.250000 0.750000 0.886027
O O7 0.137514 0.753635 0.942780
O O8 0.153642 0.253855 0.500000
O O9 0.171525 0.500000 0.561791
O O10 0.250000 0.250000 0.573587
O O11 0.119228 0.252279 0.608555
O O12 0.250000 0.250000 0.000000
O O13 0.328004 0.500000 0.000000
O O14 0.500000 0.752841 0.335000
O O15 0.580318 0.000000 0.336267
#
# Coordination Sequence:
#
# PCOD9482570 Si02
#       5
#    16  16  16   8  16
#     4   9  17  28  44  64  85 114 148 182 221 262
#     4   9  15  23  35  54  80 107 137 172 212 257
#     4   9  17  29  47  70  93 119 150 183 220 261
#     4  10  16  22  34  54  81 110 137 167 211 259
#     4   9  17  29  45  66  91 117 148 186 224 261
#
# _framework density 18.283308999999999
#
# number of rings (size 3 to 8) (size 9 to 14) (size 15 to 20)
#    0.000    2.889    0.000    3.667    0.000    1.333 
#    0.000    2.222    0.000    2.667    0.000    3.889 
#    0.000    6.222    0.000    0.000    0.000    0.000 
#
# Total GULP energy -200501.956098 kJ/mol
# GULP energy per Si atom -5569.498780 kJ/mol
# Density = 1.824170 g / cm^3
# Si number density = 18.283309 Si / 1000 Ang^3
#
#
#
# Elastic Constant Matrix: (Units=GPa)
#
#
# Indices 1 2 3 4 5 6 
#
# 1 77.8210 9.8095 100.7226 0.0000 0.0000 0.0000
# 2 9.8095 24.8155 28.1024 0.0000 0.0000 0.0000
# 3 100.7226 28.1024 218.2662 0.0000 0.0000 0.0000
# 4 0.0000 0.0000 0.0000 13.8092 0.0000 0.0000
# 5 0.0000 0.0000 0.0000 0.0000 -1.9752 0.0000
# 6 0.0000 0.0000 0.0000 0.0000 0.0000 12.5295
#
#
#
# Elastic Compliance Matrix: (Units=1/GPa)
#
#
# Indices 1 2 3 4 5 6 
#
# 1 0.032394 0.004827 -0.015570 0.000000 0.000000 0.000000
# 2 0.004827 0.047895 -0.008394 0.000000 0.000000 0.000000
# 3 -0.015570 -0.008394 0.012847 0.000000 0.000000 0.000000
# 4 0.000000 0.000000 0.000000 0.072416 0.000000 0.000000
# 5 0.000000 0.000000 0.000000 0.000000 -0.506284 0.000000
# 6 0.000000 0.000000 0.000000 0.000000 0.000000 0.079812
#
#
# Mechanical properties :
#
#
# Convention : Reuss Voigt Hill
#
# Bulk Modulus (GPa) = 18.22747 66.46352 42.34549
# Shear Modulus (GPa) = -24.46679 17.02392 -3.72143
#
# Velocity S-wave (km/s) = -3.66211 3.05473 -1.42823
# Velocity P-wave (km/s) = 2.80898 6.99091 4.52672
#
# Compressibility (1/GPa) = 0.05486226
#
# Stress axis : x y z
#
# Youngs Moduli (GPa) = 30.87016 20.87888 77.83633
#
# Poissons Ratio (x) = -0.10079 1.21193
# Poissons Ratio (y) = -0.14902 0.65338
# Poissons Ratio (z) = 0.48065 0.17526
#
# Static dielectric constant tensor:
#      x y z
#    x 1.576510 0.000000 0.000000 
#    y 0.000000 1.626760 0.000000 
#    z 0.000000 0.000000 1.699690 
# 
# From -- ./inp_files/70342.got.cif
#   From: 2010.05.17/outbox.cif.g08.bks.cpg/sg65_36_cif.got.tgz:70342.got - 2010.06.03 17:01:31.
