data_PCOD9482758
_publ_section_title
;
Structure prediction by ZEFSAII (Michael W. Deem and Ramdas Pophale) SiO2 
 PCOD9482758
Probable space group: C M M M
;
_chemical_formula_sum "Si O2"
_cell_formula_units_Z 72
_cell_length_a 8.676522
_cell_length_b 18.103589
_cell_length_c 24.484822
_cell_angle_alpha 90.000000
_cell_angle_beta 90.000000
_cell_angle_gamma 90.000000
_cell_volume 3845.982509
_symmetry_space_group_name_H-M "C M M M"
_symmetry_group_IT_number 65
_symmetry_cell_setting 'orthorhombic'
loop_
_space_group_symop_operation_xyz
x,y,z
-x,-y,z
x,-y,-z
-x,y,-z
-x,-y,-z
x,y,-z
-x,y,z
x,-y,z
1/2+x,1/2+y,z
1/2-x,1/2-y,z
1/2+x,1/2-y,-z
1/2-x,1/2+y,-z
1/2-x,1/2-y,-z
1/2+x,1/2+y,-z
1/2-x,1/2+y,z
1/2+x,1/2-y,z
loop_
_atom_site_type_symbol
_atom_site_label
_atom_site_fract_x
_atom_site_fract_y
_atom_site_fract_z
Si Si1 0.815661 0.587241 0.611508
Si Si2 0.813915 0.332248 0.500000
Si Si3 0.316941 0.332819 0.716302
Si Si4 0.816229 0.333970 0.171073
Si Si5 0.815341 0.833831 0.059800
O O1 0.789862 0.500000 0.607734
O O2 0.765927 0.625885 0.555175
O O3 0.730672 0.621298 0.663401
O O4 0.000000 0.599641 0.618125
O O5 0.750000 0.250000 0.500000
O O6 0.000000 0.330663 0.500000
O O7 0.500000 0.328166 0.722153
O O8 0.250000 0.250000 0.709665
O O9 0.245717 0.366155 0.772081
O O10 0.750000 0.250000 0.171333
O O11 0.755614 0.368640 0.114491
O O12 0.000000 0.331542 0.171020
O O13 0.750000 0.750000 0.058070
O O14 0.000000 0.830509 0.065280
O O15 0.778706 0.867081 0.000000
#
# Coordination Sequence:
#
# PCOD9482758 Si02
#       5
#    16   8  16  16  16
#     4  10  21  38  58  80 108 140 174 212 257 307
#     4  10  21  37  59  85 111 142 175 210 252 300
#     4  11  21  34  52  74 102 135 175 218 262 312
#     4  10  17  26  41  61  88 123 165 210 257 307
#     4   9  15  22  33  52  82 120 160 202 251 306
#
# _framework density 18.720834
#
# number of rings (size 3 to 8) (size 9 to 14) (size 15 to 20)
#    0.000    2.000    0.000    8.333    0.000    5.778 
#    0.000    0.000    0.000    2.000    0.000    0.000 
#    0.000    0.889    0.000    9.333    0.000    7.778 
#
# Total GULP energy -200841.816125 kJ/mol
# GULP energy per Si atom -5578.939337 kJ/mol
# Density = 1.867823 g / cm^3
# Si number density = 18.720834 Si / 1000 Ang^3
#
#
#
# Elastic Constant Matrix: (Units=GPa)
#
#
# Indices 1 2 3 4 5 6 
#
# 1 123.7980 31.8095 84.7740 0.0000 0.0000 0.0000
# 2 31.8095 30.5121 39.9197 0.0000 0.0000 0.0000
# 3 84.7740 39.9197 218.9605 0.0000 0.0000 0.0000
# 4 0.0000 0.0000 0.0000 -8.7015 0.0000 0.0000
# 5 0.0000 0.0000 0.0000 0.0000 44.0285 0.0000
# 6 0.0000 0.0000 0.0000 0.0000 0.0000 16.3392
#
#
#
# Elastic Compliance Matrix: (Units=1/GPa)
#
#
# Indices 1 2 3 4 5 6 
#
# 1 0.012584 -0.008858 -0.003257 0.000000 0.000000 0.000000
# 2 -0.008858 0.049275 -0.005554 0.000000 0.000000 0.000000
# 3 -0.003257 -0.005554 0.006841 0.000000 0.000000 0.000000
# 4 0.000000 0.000000 0.000000 -0.114922 0.000000 0.000000
# 5 0.000000 0.000000 0.000000 0.000000 0.022713 0.000000
# 6 0.000000 0.000000 0.000000 0.000000 0.000000 0.061203
#
#
# Mechanical properties :
#
#
# Convention : Reuss Voigt Hill
#
# Bulk Modulus (GPa) = 29.97469 76.25301 53.11385
# Shear Modulus (GPa) = 59.41690 24.78439 42.10065
#
# Velocity S-wave (km/s) = 5.63979 3.64248 4.74737
# Velocity P-wave (km/s) = 7.64564 7.64920 7.64742
#
# Compressibility (1/GPa) = 0.03336148
#
# Stress axis : x y z
#
# Youngs Moduli (GPa) = 79.46527 20.29442 146.18327
#
# Poissons Ratio (x) = 0.17976 0.47616
# Poissons Ratio (y) = 0.70387 0.81192
# Poissons Ratio (z) = 0.25884 0.11272
#
# Static dielectric constant tensor:
#      x y z
#    x 1.632140 0.000000 0.000000 
#    y 0.000000 1.608410 0.000000 
#    z 0.000000 0.000000 1.712970 
# 
# From -- ./inp_files/67011.got.cif
#   From: 2010.05.17/outbox.cif.g08.bks.cpg/sg65_34_cif.got.tgz:67011.got - 2010.06.03 17:01:31.
