data_PCOD9482182
_publ_section_title
;
Structure prediction by ZEFSAII (Michael W. Deem and Ramdas Pophale) SiO2 
 PCOD9482182
Probable space group: C M C A
;
_chemical_formula_sum "Si O2"
_cell_formula_units_Z 52
_cell_length_a 14.861362
_cell_length_b 27.891045
_cell_length_c 5.116016
_cell_angle_alpha 90.000000
_cell_angle_beta 90.000000
_cell_angle_gamma 90.000000
_cell_volume 2120.583088
_symmetry_space_group_name_H-M "C M C A"
_symmetry_group_IT_number 64
_symmetry_cell_setting 'orthorhombic'
loop_
_space_group_symop_operation_xyz
x,y,z
-x,1/2-y,1/2+z
x,-y,-z
-x,1/2+y,1/2-z
-x,-y,-z
x,1/2+y,1/2-z
-x,y,z
x,1/2-y,1/2+z
1/2+x,1/2+y,z
1/2-x,-y,1/2+z
1/2+x,1/2-y,-z
1/2-x,y,1/2-z
1/2-x,1/2-y,-z
1/2+x,y,1/2-z
1/2-x,1/2+y,z
1/2+x,-y,1/2+z
loop_
_atom_site_type_symbol
_atom_site_label
_atom_site_fract_x
_atom_site_fract_y
_atom_site_fract_z
Si Si1 0.845268 0.651632 0.095790
Si Si2 0.000000 0.500000 0.500000
Si Si3 0.000000 0.216439 0.182691
Si Si4 0.144428 0.544548 0.183537
Si Si5 0.750000 0.715467 0.750000
O O1 0.750000 0.650927 0.250000
O O2 0.870690 0.596405 0.057858
O O3 0.914965 0.682718 0.259918
O O4 0.830113 0.679247 0.823483
O O5 0.920303 0.460802 0.570361
O O6 0.000000 0.257871 0.404376
O O7 0.250000 0.539289 0.250000
O O8 0.115851 0.500000 0.000000
O O9 0.750000 0.750000 0.500000
#
# Coordination Sequence:
#
# PCOD9482182 Si02
#       5
#    16   4   8  16   8
#     4  11  27  48  77 115 159 212 268 336 412 496
#     4  12  24  46  80 104 168 212 270 350 426 490
#     4  12  29  49  73 113 156 200 266 331 397 491
#     4  11  25  48  76 118 160 213 274 345 418 514
#     4  12  24  44  76 108 150 208 266 334 412 482
#
# _framework density 24.521556
#
# number of rings (size 3 to 8) (size 9 to 14) (size 15 to 20)
#    0.000    0.615    3.077    3.231    6.462    0.000 
#    5.538    0.000    0.000    0.000    0.000    0.000 
#    0.000    0.000    0.000    0.000    0.000    0.000 
#
# Total GULP energy -145067.327334 kJ/mol
# GULP energy per Si atom -5579.512590 kJ/mol
# Density = 2.446574 g / cm^3
# Si number density = 24.521556 Si / 1000 Ang^3
#
#
#
# Elastic Constant Matrix: (Units=GPa)
#
#
# Indices 1 2 3 4 5 6 
#
# 1 152.3161 35.7894 15.6501 0.0000 0.0000 0.0000
# 2 35.7894 233.9350 60.0066 0.0000 0.0000 0.0000
# 3 15.6501 60.0066 114.7164 0.0000 0.0000 0.0000
# 4 0.0000 0.0000 0.0000 40.2830 0.0000 0.0000
# 5 0.0000 0.0000 0.0000 0.0000 -109.3293 0.0000
# 6 0.0000 0.0000 0.0000 0.0000 0.0000 -25.1663
#
#
#
# Elastic Compliance Matrix: (Units=1/GPa)
#
#
# Indices 1 2 3 4 5 6 
#
# 1 0.006830 -0.000931 -0.000445 0.000000 0.000000 0.000000
# 2 -0.000931 0.005064 -0.002522 0.000000 0.000000 0.000000
# 3 -0.000445 -0.002522 0.010097 0.000000 0.000000 0.000000
# 4 0.000000 0.000000 0.000000 0.024824 0.000000 0.000000
# 5 0.000000 0.000000 0.000000 0.000000 -0.009147 0.000000
# 6 0.000000 0.000000 0.000000 0.000000 0.000000 -0.039736
#
#
# Mechanical properties :
#
#
# Convention : Reuss Voigt Hill
#
# Bulk Modulus (GPa) = 70.44432 80.42887 75.43659
# Shear Modulus (GPa) = 478.02193 7.12556 242.57375
#
# Velocity S-wave (km/s) = 13.97722 1.70650 9.95678
# Velocity P-wave (km/s) = 17.00804 6.06245 12.76767
#
# Compressibility (1/GPa) = 0.01419561
#
# Stress axis : x y z
#
# Youngs Moduli (GPa) = 146.41932 197.47289 99.03908
#
# Poissons Ratio (x) = 0.18380 0.04406
# Poissons Ratio (y) = 0.13628 0.24977
# Poissons Ratio (z) = 0.06514 0.49801
#
# Static dielectric constant tensor:
#      x y z
#    x 2.005440 0.000000 0.000000 
#    y 0.000000 1.943960 0.000000 
#    z 0.000000 0.000000 1.930640 
# 
# From -- ./inp_files/921.got.cif
#   From: 2010.05.17/outbox.cif.g08.bks.cpg/sg64_1_cif.got.tgz:921.got - 2010.06.03 16:29:19.
