data_PCOD9482226
_publ_section_title
;
Structure prediction by ZEFSAII (Michael W. Deem and Ramdas Pophale) SiO2 
 PCOD9482226
Probable space group: C M C A
;
_chemical_formula_sum "Si O2"
_cell_formula_units_Z 56
_cell_length_a 17.562079
_cell_length_b 22.406035
_cell_length_c 7.700103
_cell_angle_alpha 90.000000
_cell_angle_beta 90.000000
_cell_angle_gamma 90.000000
_cell_volume 3029.964017
_symmetry_space_group_name_H-M "C M C A"
_symmetry_group_IT_number 64
_symmetry_cell_setting 'orthorhombic'
loop_
_space_group_symop_operation_xyz
x,y,z
-x,1/2-y,1/2+z
x,-y,-z
-x,1/2+y,1/2-z
-x,-y,-z
x,1/2+y,1/2-z
-x,y,z
x,1/2-y,1/2+z
1/2+x,1/2+y,z
1/2-x,-y,1/2+z
1/2+x,1/2-y,-z
1/2-x,y,1/2-z
1/2-x,1/2-y,-z
1/2+x,y,1/2-z
1/2-x,1/2+y,z
1/2+x,-y,1/2+z
loop_
_atom_site_type_symbol
_atom_site_label
_atom_site_fract_x
_atom_site_fract_y
_atom_site_fract_z
Si Si1 0.589555 0.833776 0.207839
Si Si2 0.750000 0.861840 0.750000
Si Si3 0.834559 0.724246 0.460960
Si Si4 0.804096 0.435917 0.079986
O O1 0.500000 0.838197 0.235734
O O2 0.610286 0.778863 0.080893
O O3 0.634056 0.814900 0.382207
O O4 0.625369 0.894826 0.136990
O O5 0.820974 0.818927 0.796356
O O6 0.763873 0.900425 0.578156
O O7 0.750000 0.750000 0.500000
O O8 0.750000 0.442196 0.250000
O O9 0.824616 0.500000 0.000000
#
# Coordination Sequence:
#
# PCOD9482226 Si02
#       4
#    16   8  16  16
#     4  12  24  39  62 100 142 171 207 270 345 394
#     4  12  22  38  68  98 122 158 226 280 306 370
#     4  12  20  38  67  95 127 171 219 264 319 392
#     4  12  24  42  69  94 123 174 231 273 311 380
#
# _framework density 18.482068000000002
#
# number of rings (size 3 to 8) (size 9 to 14) (size 15 to 20)
#    0.000    0.000   10.000    0.857    0.000    0.571 
#    0.000    1.429    0.000    2.571    0.000    0.000 
#    0.000    0.000    0.000    0.000    0.000    0.000 
#
# Total GULP energy -156433.304380 kJ/mol
# GULP energy per Si atom -5586.903728 kJ/mol
# Density = 1.844000 g / cm^3
# Si number density = 18.482068 Si / 1000 Ang^3
#
#
#
# Elastic Constant Matrix: (Units=GPa)
#
#
# Indices 1 2 3 4 5 6 
#
# 1 122.2565 60.6832 47.8997 0.0000 0.0000 0.0000
# 2 60.6832 153.6163 59.3195 0.0000 0.0000 0.0000
# 3 47.8997 59.3195 133.0837 0.0000 0.0000 0.0000
# 4 0.0000 0.0000 0.0000 48.7447 0.0000 0.0000
# 5 0.0000 0.0000 0.0000 0.0000 20.8061 0.0000
# 6 0.0000 0.0000 0.0000 0.0000 0.0000 12.3619
#
#
#
# Elastic Compliance Matrix: (Units=1/GPa)
#
#
# Indices 1 2 3 4 5 6 
#
# 1 0.010770 -0.003331 -0.002392 0.000000 0.000000 0.000000
# 2 -0.003331 0.008893 -0.002765 0.000000 0.000000 0.000000
# 3 -0.002392 -0.002765 0.009607 0.000000 0.000000 0.000000
# 4 0.000000 0.000000 0.000000 0.020515 0.000000 0.000000
# 5 0.000000 0.000000 0.000000 0.000000 0.048063 0.000000
# 6 0.000000 0.000000 0.000000 0.000000 0.000000 0.080894
#
#
# Mechanical properties :
#
#
# Convention : Reuss Voigt Hill
#
# Bulk Modulus (GPa) = 81.33257 82.75127 82.04192
# Shear Modulus (GPa) = 25.02303 32.45281 28.73792
#
# Velocity S-wave (km/s) = 3.68354 4.19490 3.94751
# Velocity P-wave (km/s) = 7.88626 8.26644 8.07858
#
# Compressibility (1/GPa) = 0.01229520
#
# Stress axis : x y z
#
# Youngs Moduli (GPa) = 92.85158 112.44413 104.08655
#
# Poissons Ratio (x) = 0.37454 0.24894
# Poissons Ratio (y) = 0.30928 0.28782
# Poissons Ratio (z) = 0.22207 0.31093
#
# Static dielectric constant tensor:
#      x y z
#    x 1.592140 0.000000 0.000000 
#    y 0.000000 1.664750 0.000000 
#    z 0.000000 0.000000 1.721530 
# 
# From -- ./inp_files/6528.got.cif
#   From: 2010.05.17/outbox.cif.g08.bks.cpg/sg64_4_cif.got.tgz:6528.got - 2010.06.03 16:29:19.
