data_PCOD9482075
_publ_section_title
;
Structure prediction by ZEFSAII (Michael W. Deem and Ramdas Pophale) SiO2 
 PCOD9482075
Probable space group: C M C A
;
_chemical_formula_sum "Si O2"
_cell_formula_units_Z 80
_cell_length_a 27.108925
_cell_length_b 17.007824
_cell_length_c 7.262914
_cell_angle_alpha 90.000000
_cell_angle_beta 90.000000
_cell_angle_gamma 90.000000
_cell_volume 3348.666911
_symmetry_space_group_name_H-M "C M C A"
_symmetry_group_IT_number 64
_symmetry_cell_setting 'orthorhombic'
loop_
_space_group_symop_operation_xyz
x,y,z
-x,1/2-y,1/2+z
x,-y,-z
-x,1/2+y,1/2-z
-x,-y,-z
x,1/2+y,1/2-z
-x,y,z
x,1/2-y,1/2+z
1/2+x,1/2+y,z
1/2-x,-y,1/2+z
1/2+x,1/2-y,-z
1/2-x,y,1/2-z
1/2-x,1/2-y,-z
1/2+x,y,1/2-z
1/2-x,1/2+y,z
1/2+x,-y,1/2+z
loop_
_atom_site_type_symbol
_atom_site_label
_atom_site_fract_x
_atom_site_fract_y
_atom_site_fract_z
Si Si1 0.000000 0.433132 0.412486
Si Si2 0.296825 0.093751 0.987748
Si Si3 0.000000 0.947893 0.633501
Si Si4 0.599862 0.351876 0.575305
Si Si5 0.405705 0.330221 0.142125
Si Si6 0.689538 0.407117 0.048732
O O1 0.000000 0.528314 0.368276
O O2 0.047269 0.379762 0.416143
O O3 0.000000 0.453544 0.111237
O O4 0.342826 0.123907 0.107983
O O5 0.303166 0.106116 0.768574
O O6 0.241333 0.120036 0.038763
O O7 0.296829 0.000000 0.000000
O O8 0.945346 0.905313 0.642609
O O9 0.589144 0.262930 0.633872
O O10 0.599925 0.353117 0.354106
O O11 0.359933 0.357977 0.016876
O O12 0.682315 0.500000 0.000000
#
# Coordination Sequence:
#
# PCOD9482075 Si02
#       6
#     8  16   8  16  16  16
#     4  12  27  42  66  94 119 158 208 258 303 369
#     4   9  19  36  61  89 118 162 208 250 311 364
#     4  12  23  44  66  88 119 162 208 253 303 373
#     4  11  24  39  62  88 125 163 201 254 309 370
#     4  11  24  41  59  90 125 160 202 251 313 366
#     4   9  19  37  60  88 122 157 207 261 298 367
#
# _framework density 23.890105999999999
#
# number of rings (size 3 to 8) (size 9 to 14) (size 15 to 20)
#    0.000    1.600    2.000    1.800    5.600    2.400 
#    0.000    0.000    0.000    0.000    0.000    0.000 
#    0.000    0.000    0.000    0.000    0.000    0.000 
#
# Total GULP energy -223148.660946 kJ/mol
# GULP energy per Si atom -5578.716524 kJ/mol
# Density = 2.383573 g / cm^3
# Si number density = 23.890106 Si / 1000 Ang^3
#
#
#
# Elastic Constant Matrix: (Units=GPa)
#
#
# Indices 1 2 3 4 5 6 
#
# 1 261.3512 113.2232 53.3432 0.0000 0.0000 0.0000
# 2 113.2232 103.5008 14.2409 0.0000 0.0000 0.0000
# 3 53.3432 14.2409 62.1988 0.0000 0.0000 0.0000
# 4 0.0000 0.0000 0.0000 42.0116 0.0000 0.0000
# 5 0.0000 0.0000 0.0000 0.0000 -3.7620 0.0000
# 6 0.0000 0.0000 0.0000 0.0000 0.0000 3.7860
#
#
#
# Elastic Compliance Matrix: (Units=1/GPa)
#
#
# Indices 1 2 3 4 5 6 
#
# 1 0.008786 -0.008853 -0.005508 0.000000 0.000000 0.000000
# 2 -0.008853 0.018897 0.003266 0.000000 0.000000 0.000000
# 3 -0.005508 0.003266 0.020053 0.000000 0.000000 0.000000
# 4 0.000000 0.000000 0.000000 0.023803 0.000000 0.000000
# 5 0.000000 0.000000 0.000000 0.000000 -0.265815 0.000000
# 6 0.000000 0.000000 0.000000 0.000000 0.000000 0.264128
#
#
# Mechanical properties :
#
#
# Convention : Reuss Voigt Hill
#
# Bulk Modulus (GPa) = 39.14448 87.62948 63.38698
# Shear Modulus (GPa) = 49.72189 24.82336 37.27263
#
# Velocity S-wave (km/s) = 4.56705 3.22695 3.95418
# Velocity P-wave (km/s) = 6.65067 7.11647 6.88751
#
# Compressibility (1/GPa) = 0.02554639
#
# Stress axis : x y z
#
# Youngs Moduli (GPa) = 113.81757 52.91718 49.86675
#
# Poissons Ratio (x) = 0.46850 0.27467
# Poissons Ratio (y) = 1.00768 -0.16287
# Poissons Ratio (z) = 0.62691 -0.17284
#
# Static dielectric constant tensor:
#      x y z
#    x 1.919130 0.000000 0.000000 
#    y 0.000000 1.824320 0.000000 
#    z 0.000000 0.000000 4.676430 
# 
# From -- ./inp_files/10250.got.cif
#   From: 2010.05.17/outbox.cif.g08.bks.cpg/sg64_6_cif.got.tgz:10250.got - 2010.06.03 16:29:19.
