data_PCOD9482566
_publ_section_title
;
Structure prediction by ZEFSAII (Michael W. Deem and Ramdas Pophale) SiO2 
 PCOD9482566
Probable space group: C M M M
;
_chemical_formula_sum "Si O2"
_cell_formula_units_Z 104
_cell_length_a 8.410794
_cell_length_b 24.392867
_cell_length_c 29.739705
_cell_angle_alpha 90.000000
_cell_angle_beta 90.000000
_cell_angle_gamma 90.000000
_cell_volume 6101.498380
_symmetry_space_group_name_H-M "C M M M"
_symmetry_group_IT_number 65
_symmetry_cell_setting 'orthorhombic'
loop_
_space_group_symop_operation_xyz
x,y,z
-x,-y,z
x,-y,-z
-x,y,-z
-x,-y,-z
x,y,-z
-x,y,z
x,-y,z
1/2+x,1/2+y,z
1/2-x,1/2-y,z
1/2+x,1/2-y,-z
1/2-x,1/2+y,-z
1/2-x,1/2-y,-z
1/2+x,1/2+y,-z
1/2-x,1/2+y,z
1/2+x,1/2-y,z
loop_
_atom_site_type_symbol
_atom_site_label
_atom_site_fract_x
_atom_site_fract_y
_atom_site_fract_z
Si Si1 0.807245 0.500000 0.808708
Si Si2 0.692098 0.811995 0.865967
Si Si3 0.192314 0.687340 0.307590
Si Si4 0.309910 0.812841 0.406598
Si Si5 0.310631 0.500000 0.088512
Si Si6 0.807733 0.614992 0.949458
Si Si7 0.812031 0.186968 0.500000
Si Si8 0.805910 0.381013 0.221532
O O1 0.748721 0.500000 0.860021
O O2 0.755471 0.556068 0.784623
O O3 0.000000 0.500000 0.810130
O O4 0.500000 0.812150 0.866008
O O5 0.750000 0.750000 0.863656
O O6 0.747159 0.842609 0.911251
O O7 0.744136 0.846515 0.822306
O O8 0.250000 0.750000 0.302005
O O9 0.239777 0.665923 0.357331
O O10 0.248134 0.649247 0.266797
O O11 0.000000 0.688701 0.306731
O O12 0.500000 0.812922 0.409083
O O13 0.250000 0.750000 0.406189
O O14 0.245946 0.838374 0.452871
O O15 0.500000 0.500000 0.087619
O O16 0.247193 0.554456 0.064367
O O17 0.000000 0.615373 0.949048
O O18 0.754099 0.628453 0.000000
O O19 0.750000 0.250000 0.500000
O O20 0.000000 0.188913 0.500000
O O21 0.000000 0.380856 0.222109
#
# Coordination Sequence:
#
# PCOD9482566 Si02
#       8
#     8  16  16  16   8  16   8  16
#     4  10  18  35  59  74  94 128 161 192 232 286
#     4  10  20  34  52  74  99 128 162 195 231 278
#     4   9  17  28  43  66  93 123 156 191 230 278
#     4   9  15  23  35  53  82 116 151 187 227 269
#     4  12  23  35  54  81 106 122 151 201 251 284
#     4  10  21  38  58  76  97 131 167 193 229 289
#     4  10  16  22  34  52  78 113 156 193 225 264
#     4   9  17  31  52  73  92 120 160 196 230 279
#
# _framework density 17.044993000000002
#
# number of rings (size 3 to 8) (size 9 to 14) (size 15 to 20)
#    0.000    2.308    1.538    3.462    0.000    2.769 
#    0.000    0.769    0.000    0.000    0.000    0.000 
#    0.000    0.615    0.000    7.846    0.000    1.538 
#
# Total GULP energy -289889.642566 kJ/mol
# GULP energy per Si atom -5574.800819 kJ/mol
# Density = 1.700620 g / cm^3
# Si number density = 17.044993 Si / 1000 Ang^3
#
#
#
# Elastic Constant Matrix: (Units=GPa)
#
#
# Indices 1 2 3 4 5 6 
#
# 1 19.8169 10.0187 28.1589 0.0000 0.0000 0.0000
# 2 10.0187 107.6745 79.1297 0.0000 0.0000 0.0000
# 3 28.1589 79.1297 202.3653 0.0000 0.0000 0.0000
# 4 0.0000 0.0000 0.0000 -4.9190 0.0000 0.0000
# 5 0.0000 0.0000 0.0000 0.0000 11.4153 0.0000
# 6 0.0000 0.0000 0.0000 0.0000 0.0000 15.5750
#
#
#
# Elastic Compliance Matrix: (Units=1/GPa)
#
#
# Indices 1 2 3 4 5 6 
#
# 1 0.062949 0.000814 -0.009078 0.000000 0.000000 0.000000
# 2 0.000814 0.013043 -0.005213 0.000000 0.000000 0.000000
# 3 -0.009078 -0.005213 0.008243 0.000000 0.000000 0.000000
# 4 0.000000 0.000000 0.000000 -0.203291 0.000000 0.000000
# 5 0.000000 0.000000 0.000000 0.000000 0.087602 0.000000
# 6 0.000000 0.000000 0.000000 0.000000 0.000000 0.064206
#
#
# Mechanical properties :
#
#
# Convention : Reuss Voigt Hill
#
# Bulk Modulus (GPa) = 17.45765 62.71902 40.08833
# Shear Modulus (GPa) = 63.45245 18.58420 41.01833
#
# Velocity S-wave (km/s) = 6.10797 3.30556 4.91090
# Velocity P-wave (km/s) = 7.74644 7.17251 7.46500
#
# Compressibility (1/GPa) = 0.05728149
#
# Stress axis : x y z
#
# Youngs Moduli (GPa) = 15.88576 76.67098 121.31185
#
# Poissons Ratio (x) = -0.06240 1.10122
# Poissons Ratio (y) = -0.01293 0.63243
# Poissons Ratio (z) = 0.14420 0.39971
#
# Static dielectric constant tensor:
#      x y z
#    x 1.578960 0.000000 0.000000 
#    y 0.000000 1.536990 0.000000 
#    z 0.000000 0.000000 1.626790 
# 
# From -- ./inp_files/77066.got.cif
#   From: 2010.05.17/outbox.cif.g08.bks.cpg/sg65_39_cif.got.tgz:77066.got - 2010.06.03 17:01:31.
