data_PCOD9482048
_publ_section_title
;
Structure prediction by ZEFSAII (Michael W. Deem and Ramdas Pophale) SiO2 
 PCOD9482048
Probable space group: C M C A
;
_chemical_formula_sum "Si O2"
_cell_formula_units_Z 64
_cell_length_a 9.162800
_cell_length_b 21.694620
_cell_length_c 13.446904
_cell_angle_alpha 90.000000
_cell_angle_beta 90.000000
_cell_angle_gamma 90.000000
_cell_volume 2673.022159
_symmetry_space_group_name_H-M "C M C A"
_symmetry_group_IT_number 64
_symmetry_cell_setting 'orthorhombic'
loop_
_space_group_symop_operation_xyz
x,y,z
-x,1/2-y,1/2+z
x,-y,-z
-x,1/2+y,1/2-z
-x,-y,-z
x,1/2+y,1/2-z
-x,y,z
x,1/2-y,1/2+z
1/2+x,1/2+y,z
1/2-x,-y,1/2+z
1/2+x,1/2-y,-z
1/2-x,y,1/2-z
1/2-x,1/2-y,-z
1/2+x,y,1/2-z
1/2-x,1/2+y,z
1/2+x,-y,1/2+z
loop_
_atom_site_type_symbol
_atom_site_label
_atom_site_fract_x
_atom_site_fract_y
_atom_site_fract_z
Si Si1 0.182080 0.960698 0.658870
Si Si2 0.163180 0.787274 0.082295
Si Si3 0.000000 0.402905 0.714227
Si Si4 0.750000 0.803281 0.750000
Si Si5 0.334349 0.907050 0.059272
O O1 0.354583 0.956287 0.708576
O O2 0.214760 0.925857 0.552183
O O3 0.000000 0.929127 0.665365
O O4 0.164621 0.031495 0.625780
O O5 0.169829 0.741588 0.174725
O O6 0.235964 0.852953 0.101664
O O7 0.000000 0.798148 0.047995
O O8 0.250000 0.750000 0.000000
O O9 0.869750 0.349702 0.705366
O O10 0.500000 0.883560 0.053839
#
# Coordination Sequence:
#
# PCOD9482048 Si02
#       5
#    16  16   8   8  16
#     4  11  23  44  75 109 143 192 246 309 376 445
#     4  12  29  49  73 109 151 200 250 311 379 450
#     4  12  22  43  74 107 138 192 252 295 366 446
#     4  12  28  46  72 106 150 192 250 304 376 450
#     4  11  24  47  75 108 146 195 250 308 378 453
#
# _framework density 23.942936
#
# number of rings (size 3 to 8) (size 9 to 14) (size 15 to 20)
#    0.000    0.500    5.000    3.000    5.250    0.000 
#    2.250    1.250    0.000    0.000    0.000    0.000 
#    0.000    0.000    0.000    0.000    0.000    0.000 
#
# Total GULP energy -178177.114386 kJ/mol
# GULP energy per Si atom -5568.034825 kJ/mol
# Density = 2.388844 g / cm^3
# Si number density = 23.942936 Si / 1000 Ang^3
#
#
#
# Elastic Constant Matrix: (Units=GPa)
#
#
# Indices 1 2 3 4 5 6 
#
# 1 199.1275 55.5061 28.8036 0.0000 0.0000 0.0000
# 2 55.5061 178.9772 37.7381 0.0000 0.0000 0.0000
# 3 28.8036 37.7381 92.4245 0.0000 0.0000 0.0000
# 4 0.0000 0.0000 0.0000 32.6906 0.0000 0.0000
# 5 0.0000 0.0000 0.0000 0.0000 39.8248 0.0000
# 6 0.0000 0.0000 0.0000 0.0000 0.0000 38.3793
#
#
#
# Elastic Compliance Matrix: (Units=1/GPa)
#
#
# Indices 1 2 3 4 5 6 
#
# 1 0.005604 -0.001499 -0.001134 0.000000 0.000000 0.000000
# 2 -0.001499 0.006514 -0.002193 0.000000 0.000000 0.000000
# 3 -0.001134 -0.002193 0.012069 0.000000 0.000000 0.000000
# 4 0.000000 0.000000 0.000000 0.030590 0.000000 0.000000
# 5 0.000000 0.000000 0.000000 0.000000 0.025110 0.000000
# 6 0.000000 0.000000 0.000000 0.000000 0.000000 0.026056
#
#
# Mechanical properties :
#
#
# Convention : Reuss Voigt Hill
#
# Bulk Modulus (GPa) = 68.80061 79.40279 74.10170
# Shear Modulus (GPa) = 41.51472 45.41105 43.46289
#
# Velocity S-wave (km/s) = 4.16853 4.35976 4.26522
# Velocity P-wave (km/s) = 7.20878 7.65367 7.43456
#
# Compressibility (1/GPa) = 0.01453475
#
# Stress axis : x y z
#
# Youngs Moduli (GPa) = 178.45164 153.50443 82.85988
#
# Poissons Ratio (x) = 0.23006 0.09400
# Poissons Ratio (y) = 0.26744 0.18170
# Poissons Ratio (z) = 0.20244 0.33662
#
# Static dielectric constant tensor:
#      x y z
#    x 1.775730 0.000000 0.000000 
#    y 0.000000 1.813310 0.000000 
#    z 0.000000 0.000000 1.931340 
# 
# From -- ./inp_files/29291.got.cif
#   From: 2010.05.17/outbox.cif.g08.bks.cpg/sg64_15_cif.got.tgz:29291.got - 2010.06.03 16:29:19.
