data_PCOD9482057
_publ_section_title
;
Structure prediction by ZEFSAII (Michael W. Deem and Ramdas Pophale) SiO2 
 PCOD9482057
Probable space group: C M C A
;
_chemical_formula_sum "Si O2"
_cell_formula_units_Z 64
_cell_length_a 16.354962
_cell_length_b 11.436046
_cell_length_c 14.785347
_cell_angle_alpha 90.000000
_cell_angle_beta 90.000000
_cell_angle_gamma 90.000000
_cell_volume 2765.393607
_symmetry_space_group_name_H-M "C M C A"
_symmetry_group_IT_number 64
_symmetry_cell_setting 'orthorhombic'
loop_
_space_group_symop_operation_xyz
x,y,z
-x,1/2-y,1/2+z
x,-y,-z
-x,1/2+y,1/2-z
-x,-y,-z
x,1/2+y,1/2-z
-x,y,z
x,1/2-y,1/2+z
1/2+x,1/2+y,z
1/2-x,-y,1/2+z
1/2+x,1/2-y,-z
1/2-x,y,1/2-z
1/2-x,1/2-y,-z
1/2+x,y,1/2-z
1/2-x,1/2+y,z
1/2+x,-y,1/2+z
loop_
_atom_site_type_symbol
_atom_site_label
_atom_site_fract_x
_atom_site_fract_y
_atom_site_fract_z
Si Si1 0.092418 0.248415 0.383323
Si Si2 0.170628 0.518212 0.097761
Si Si3 0.650750 0.384986 0.952820
Si Si4 0.662794 0.780422 0.205746
O O1 0.117030 0.117158 0.355545
O O2 0.149661 0.293207 0.464387
O O3 0.107159 0.316309 0.290587
O O4 0.000000 0.256640 0.415378
O O5 0.260030 0.570629 0.077372
O O6 0.179076 0.397269 0.148847
O O7 0.130301 0.500000 0.000000
O O8 0.623695 0.314698 0.862933
O O9 0.609820 0.500000 0.000000
O O10 0.750000 0.741984 0.250000
#
# Coordination Sequence:
#
# PCOD9482057 Si02
#       4
#    16  16  16  16
#     4  12  28  46  68 106 148 185 229 287 360 420
#     4  11  23  45  75 100 135 184 242 293 342 416
#     4  11  25  46  74 102 137 183 238 293 344 411
#     4  12  25  44  74 107 135 181 243 294 344 410
#
# _framework density 23.143179
#
# number of rings (size 3 to 8) (size 9 to 14) (size 15 to 20)
#    0.000    0.500    5.000    3.750    7.000    3.000 
#    0.000    0.000    0.000    0.000    0.000    0.000 
#    0.000    0.000    0.000    0.000    0.000    0.000 
#
# Total GULP energy -178672.604219 kJ/mol
# GULP energy per Si atom -5583.518882 kJ/mol
# Density = 2.309050 g / cm^3
# Si number density = 23.143179 Si / 1000 Ang^3
#
#
#
# Elastic Constant Matrix: (Units=GPa)
#
#
# Indices 1 2 3 4 5 6 
#
# 1 43.5448 17.6559 8.9314 0.0000 0.0000 0.0000
# 2 17.6559 76.7728 40.1206 0.0000 0.0000 0.0000
# 3 8.9314 40.1206 150.7989 0.0000 0.0000 0.0000
# 4 0.0000 0.0000 0.0000 46.3067 0.0000 0.0000
# 5 0.0000 0.0000 0.0000 0.0000 -0.0267 0.0000
# 6 0.0000 0.0000 0.0000 0.0000 0.0000 4.5041
#
#
#
# Elastic Compliance Matrix: (Units=1/GPa)
#
#
# Indices 1 2 3 4 5 6 
#
# 1 0.025327 -0.005855 0.000058 0.000000 0.000000 0.000000
# 2 -0.005855 0.016482 -0.004038 0.000000 0.000000 0.000000
# 3 0.000058 -0.004038 0.007702 0.000000 0.000000 0.000000
# 4 0.000000 0.000000 0.000000 0.021595 0.000000 0.000000
# 5 0.000000 0.000000 0.000000 0.000000-37.474264 0.000000
# 6 0.000000 0.000000 0.000000 0.000000 0.000000 0.222020
#
#
# Mechanical properties :
#
#
# Convention : Reuss Voigt Hill
#
# Bulk Modulus (GPa) = 33.51136 44.94803 39.22970
# Shear Modulus (GPa) = -0.13458 23.78405 11.82473
#
# Velocity S-wave (km/s) = -0.24141 3.20924 2.26285
# Velocity P-wave (km/s) = 3.79918 5.76161 4.88006
#
# Compressibility (1/GPa) = 0.02984063
#
# Stress axis : x y z
#
# Youngs Moduli (GPa) = 39.48367 60.67106 129.83002
#
# Poissons Ratio (x) = 0.35521 -0.00748
# Poissons Ratio (y) = 0.23116 0.52431
# Poissons Ratio (z) = -0.00227 0.24502
#
# Static dielectric constant tensor:
#      x y z
#    x 1.885960 0.000000 0.000000 
#    y 0.000000 1.984330 0.000000 
#    z 0.000000 0.000000 1.966760 
# 
# From -- ./inp_files/24852.got.cif
#   From: 2010.05.17/outbox.cif.g08.bks.cpg/sg64_13_cif.got.tgz:24852.got - 2010.06.03 16:29:19.
