data_PCOD9482058
_publ_section_title
;
Structure prediction by ZEFSAII (Michael W. Deem and Ramdas Pophale) SiO2 
 PCOD9482058
Probable space group: C M C A
;
_chemical_formula_sum "Si O2"
_cell_formula_units_Z 48
_cell_length_a 18.120275
_cell_length_b 14.100826
_cell_length_c 7.651514
_cell_angle_alpha 90.000000
_cell_angle_beta 90.000000
_cell_angle_gamma 90.000000
_cell_volume 1955.044806
_symmetry_space_group_name_H-M "C M C A"
_symmetry_group_IT_number 64
_symmetry_cell_setting 'orthorhombic'
loop_
_space_group_symop_operation_xyz
x,y,z
-x,1/2-y,1/2+z
x,-y,-z
-x,1/2+y,1/2-z
-x,-y,-z
x,1/2+y,1/2-z
-x,y,z
x,1/2-y,1/2+z
1/2+x,1/2+y,z
1/2-x,-y,1/2+z
1/2+x,1/2-y,-z
1/2-x,y,1/2-z
1/2-x,1/2-y,-z
1/2+x,y,1/2-z
1/2-x,1/2+y,z
1/2+x,-y,1/2+z
loop_
_atom_site_type_symbol
_atom_site_label
_atom_site_fract_x
_atom_site_fract_y
_atom_site_fract_z
Si Si1 0.719264 0.896555 0.946652
Si Si2 0.117901 0.390652 0.453910
Si Si3 0.419384 0.203795 0.909684
O O1 0.750000 0.894876 0.750000
O O2 0.793256 0.881270 0.058971
O O3 0.652609 0.826494 0.981984
O O4 0.690519 0.000000 0.000000
O O5 0.101901 0.500000 0.500000
O O6 0.088593 0.317694 0.599548
O O7 0.085890 0.351827 0.272727
O O8 0.500000 0.182961 0.987558
#
# Coordination Sequence:
#
# PCOD9482058 Si02
#       3
#    16  16  16
#     4  11  23  45  75 104 140 191 246 296 354 430
#     4  11  25  48  75 103 143 193 245 294 352 431
#     4  12  26  44  71 107 145 186 236 300 368 426
#
# _framework density 24.551869
#
# number of rings (size 3 to 8) (size 9 to 14) (size 15 to 20)
#    0.000    0.667    0.000    9.000    0.000    3.333 
#    0.000    1.667    0.000    1.000    0.000    0.000 
#    0.000    0.000    0.000    0.000    0.000    0.000 
#
# Total GULP energy -134419.335721 kJ/mol
# GULP energy per Si atom -5600.805655 kJ/mol
# Density = 2.449599 g / cm^3
# Si number density = 24.551869 Si / 1000 Ang^3
#
#
#
# Elastic Constant Matrix: (Units=GPa)
#
#
# Indices 1 2 3 4 5 6 
#
# 1 124.8626 85.9157 24.4417 0.0000 0.0000 0.0000
# 2 85.9157 212.9554 69.4877 0.0000 0.0000 0.0000
# 3 24.4417 69.4877 117.4191 0.0000 0.0000 0.0000
# 4 0.0000 0.0000 0.0000 37.1536 0.0000 0.0000
# 5 0.0000 0.0000 0.0000 0.0000 29.3610 0.0000
# 6 0.0000 0.0000 0.0000 0.0000 0.0000 -110.3601
#
#
#
# Elastic Compliance Matrix: (Units=1/GPa)
#
#
# Indices 1 2 3 4 5 6 
#
# 1 0.011103 -0.004617 0.000421 0.000000 0.000000 0.000000
# 2 -0.004617 0.007739 -0.003619 0.000000 0.000000 0.000000
# 3 0.000421 -0.003619 0.010571 0.000000 0.000000 0.000000
# 4 0.000000 0.000000 0.000000 0.026915 0.000000 0.000000
# 5 0.000000 0.000000 0.000000 0.000000 0.034059 0.000000
# 6 0.000000 0.000000 0.000000 0.000000 0.000000 -0.009061
#
#
# Mechanical properties :
#
#
# Convention : Reuss Voigt Hill
#
# Bulk Modulus (GPa) = 72.55154 90.54747 81.54951
# Shear Modulus (GPa) = 49.23664 9.59036 29.41350
#
# Velocity S-wave (km/s) = 4.48304 1.97855 3.46499
# Velocity P-wave (km/s) = 7.51075 6.49459 7.02108
#
# Compressibility (1/GPa) = 0.01378331
#
# Stress axis : x y z
#
# Youngs Moduli (GPa) = 90.06414 129.20912 94.60203
#
# Poissons Ratio (x) = 0.59655 -0.03983
# Poissons Ratio (y) = 0.41582 0.34237
# Poissons Ratio (z) = -0.03792 0.46762
#
# Static dielectric constant tensor:
#      x y z
#    x 1.896610 0.000000 0.000000 
#    y 0.000000 1.951020 0.000000 
#    z 0.000000 0.000000 2.022330 
# 
# From -- ./inp_files/6186.got.cif
#   From: 2010.05.17/outbox.cif.g08.bks.cpg/sg64_4_cif.got.tgz:6186.got - 2010.06.03 16:29:19.
