data_PCOD9482807
_publ_section_title
;
Structure prediction by ZEFSAII (Michael W. Deem and Ramdas Pophale) SiO2 
 PCOD9482807
Probable space group: C M M M
;
_chemical_formula_sum "Si O2"
_cell_formula_units_Z 82
_cell_length_a 27.050087
_cell_length_b 8.638970
_cell_length_c 19.979998
_cell_angle_alpha 90.000000
_cell_angle_beta 90.000000
_cell_angle_gamma 90.000000
_cell_volume 4669.023637
_symmetry_space_group_name_H-M "C M M M"
_symmetry_group_IT_number 65
_symmetry_cell_setting 'orthorhombic'
loop_
_space_group_symop_operation_xyz
x,y,z
-x,-y,z
x,-y,-z
-x,y,-z
-x,-y,-z
x,y,-z
-x,y,z
x,-y,z
1/2+x,1/2+y,z
1/2-x,1/2-y,z
1/2+x,1/2-y,-z
1/2-x,1/2+y,-z
1/2-x,1/2-y,-z
1/2+x,1/2+y,-z
1/2-x,1/2+y,z
1/2+x,1/2-y,z
loop_
_atom_site_type_symbol
_atom_site_label
_atom_site_fract_x
_atom_site_fract_y
_atom_site_fract_z
Si Si1 0.596570 0.815335 0.298131
Si Si2 0.596587 0.315507 0.147246
Si Si3 0.000000 0.320568 0.920148
Si Si4 0.300704 0.314893 0.295828
Si Si5 0.000000 0.171354 0.638384
Si Si6 0.800936 0.315088 0.856623
Si Si7 0.000000 0.000000 0.500000
O O1 0.591268 0.752667 0.222242
O O2 0.647729 0.743519 0.326215
O O3 0.548979 0.760209 0.338902
O O4 0.600492 0.000000 0.296459
O O5 0.600646 0.500000 0.151351
O O6 0.548706 0.263015 0.106978
O O7 0.647185 0.247461 0.115748
O O8 0.000000 0.500000 0.897311
O O9 0.000000 0.318183 0.000000
O O10 0.299352 0.500000 0.292939
O O11 0.250000 0.250000 0.327102
O O12 0.301439 0.246846 0.220161
O O13 0.000000 0.132160 0.559971
O O14 0.000000 0.000000 0.672498
O O15 0.800071 0.500000 0.856531
O O16 0.750000 0.250000 0.887158
#
# Coordination Sequence:
#
# PCOD9482807 Si02
#       7
#    16  16   8  16   8  16   2
#     4  11  20  32  53  82 113 141 175 223 269 316
#     4  11  21  34  53  80 109 141 179 220 270 319
#     4  11  24  41  57  73 100 139 181 224 272 326
#     4  10  17  27  43  71 110 145 174 209 262 319
#     4  10  20  38  55  77 101 138 178 215 266 311
#     4  10  17  28  46  71 105 142 174 212 264 320
#     4   8  24  40  62  72 108 140 184 216 264 314
#
# _framework density 17.562557999999999
#
# number of rings (size 3 to 8) (size 9 to 14) (size 15 to 20)
#    0.293    1.268    0.000   11.707    0.000    0.780 
#    0.000    0.976    0.000    0.585    0.000    0.683 
#    0.000    0.000    0.000    0.000    0.000    0.000 
#
# Total GULP energy -228469.891945 kJ/mol
# GULP energy per Si atom -5572.436389 kJ/mol
# Density = 1.752258 g / cm^3
# Si number density = 17.562558 Si / 1000 Ang^3
#
#
#
# Elastic Constant Matrix: (Units=GPa)
#
#
# Indices 1 2 3 4 5 6 
#
# 1 202.6819 82.2296 35.9711 0.0000 0.0000 0.0000
# 2 82.2296 203.7464 22.8385 0.0000 0.0000 0.0000
# 3 35.9711 22.8385 29.8095 0.0000 0.0000 0.0000
# 4 0.0000 0.0000 0.0000 13.4095 0.0000 0.0000
# 5 0.0000 0.0000 0.0000 0.0000 -17.2229 0.0000
# 6 0.0000 0.0000 0.0000 0.0000 0.0000 35.1938
#
#
#
# Elastic Compliance Matrix: (Units=1/GPa)
#
#
# Indices 1 2 3 4 5 6 
#
# 1 0.006982 -0.002049 -0.006855 0.000000 0.000000 0.000000
# 2 -0.002049 0.005971 -0.002101 0.000000 0.000000 0.000000
# 3 -0.006855 -0.002101 0.043428 0.000000 0.000000 0.000000
# 4 0.000000 0.000000 0.000000 0.074574 0.000000 0.000000
# 5 0.000000 0.000000 0.000000 0.000000 -0.058062 0.000000
# 6 0.000000 0.000000 0.000000 0.000000 0.000000 0.028414
#
#
# Mechanical properties :
#
#
# Convention : Reuss Voigt Hill
#
# Bulk Modulus (GPa) = 29.09576 79.81290 54.45433
# Shear Modulus (GPa) = 37.09911 25.95601 31.52756
#
# Velocity S-wave (km/s) = 4.60107 3.84854 4.24153
# Velocity P-wave (km/s) = 6.69547 8.08034 7.42029
#
# Compressibility (1/GPa) = 0.03436927
#
# Stress axis : x y z
#
# Youngs Moduli (GPa) = 143.22794 167.48349 23.02658
#
# Poissons Ratio (x) = 0.34324 0.15784
# Poissons Ratio (y) = 0.29353 0.04839
# Poissons Ratio (z) = 0.98181 0.35195
#
# Static dielectric constant tensor:
#      x y z
#    x 1.666330 0.000000 0.000000 
#    y 0.000000 1.593510 0.000000 
#    z 0.000000 0.000000 1.553990 
# 
# From -- ./inp_files/65705.got.cif
#   From: 2010.05.17/outbox.cif.g08.bks.cpg/sg65_33_cif.got.tgz:65705.got - 2010.06.03 17:01:31.
