data_PCOD9482069
_publ_section_title
;
Structure prediction by ZEFSAII (Michael W. Deem and Ramdas Pophale) SiO2 
 PCOD9482069
Probable space group: C M C A
;
_chemical_formula_sum "Si O2"
_cell_formula_units_Z 68
_cell_length_a 13.886762
_cell_length_b 19.356840
_cell_length_c 8.933170
_cell_angle_alpha 90.000000
_cell_angle_beta 90.000000
_cell_angle_gamma 90.000000
_cell_volume 2401.270311
_symmetry_space_group_name_H-M "C M C A"
_symmetry_group_IT_number 64
_symmetry_cell_setting 'orthorhombic'
loop_
_space_group_symop_operation_xyz
x,y,z
-x,1/2-y,1/2+z
x,-y,-z
-x,1/2+y,1/2-z
-x,-y,-z
x,1/2+y,1/2-z
-x,y,z
x,1/2-y,1/2+z
1/2+x,1/2+y,z
1/2-x,-y,1/2+z
1/2+x,1/2-y,-z
1/2-x,y,1/2-z
1/2-x,1/2-y,-z
1/2+x,y,1/2-z
1/2-x,1/2+y,z
1/2+x,-y,1/2+z
loop_
_atom_site_type_symbol
_atom_site_label
_atom_site_fract_x
_atom_site_fract_y
_atom_site_fract_z
Si Si1 0.636992 0.032493 0.224488
Si Si2 0.684568 0.321688 0.066956
Si Si3 0.393779 0.881445 0.151468
Si Si4 0.388866 0.185396 0.228744
Si Si5 0.500000 0.000000 0.500000
O O1 0.750000 0.029265 0.250000
O O2 0.615240 0.108438 0.159058
O O3 0.582150 0.027290 0.380907
O O4 0.609642 0.963600 0.135283
O O5 0.705784 0.154306 0.900928
O O6 0.657170 0.322188 0.893383
O O7 0.615922 0.370558 0.166886
O O8 0.661263 0.246261 0.135836
O O9 0.500000 0.853777 0.108164
O O10 0.500000 0.204618 0.246266
#
# Coordination Sequence:
#
# PCOD9482069 Si02
#       5
#    16  16  16  16   4
#     4  12  26  46  84 125 160 219 291 346 423 523
#     4  11  27  49  80 116 164 217 275 343 428 510
#     4  11  23  47  74 116 157 211 272 341 415 506
#     4  12  26  52  82 120 165 223 280 352 429 517
#     4  12  24  52  88 112 164 240 264 360 434 508
#
# _framework density 28.318345000000001
#
# number of rings (size 3 to 8) (size 9 to 14) (size 15 to 20)
#    0.000    0.471    4.706    3.529    3.294    3.765 
#    4.235    3.529    2.588    2.118    0.000    0.000 
#    0.000    0.000    0.000    0.000    0.000    0.000 
#
# Total GULP energy -190531.131123 kJ/mol
# GULP energy per Si atom -5603.856798 kJ/mol
# Density = 2.825389 g / cm^3
# Si number density = 28.318345 Si / 1000 Ang^3
#
#
#
# Elastic Constant Matrix: (Units=GPa)
#
#
# Indices 1 2 3 4 5 6 
#
# 1 320.0570 63.1632 55.3441 0.0000 0.0000 0.0000
# 2 63.1632 266.1725 72.5593 0.0000 0.0000 0.0000
# 3 55.3441 72.5593 144.2283 0.0000 0.0000 0.0000
# 4 0.0000 0.0000 0.0000 72.5968 0.0000 0.0000
# 5 0.0000 0.0000 0.0000 0.0000 55.0093 0.0000
# 6 0.0000 0.0000 0.0000 0.0000 0.0000 6.1203
#
#
#
# Elastic Compliance Matrix: (Units=1/GPa)
#
#
# Indices 1 2 3 4 5 6 
#
# 1 0.003408 -0.000524 -0.001044 0.000000 0.000000 0.000000
# 2 -0.000524 0.004435 -0.002030 0.000000 0.000000 0.000000
# 3 -0.001044 -0.002030 0.008355 0.000000 0.000000 0.000000
# 4 0.000000 0.000000 0.000000 0.013775 0.000000 0.000000
# 5 0.000000 0.000000 0.000000 0.000000 0.018179 0.000000
# 6 0.000000 0.000000 0.000000 0.000000 0.000000 0.163392
#
#
# Mechanical properties :
#
#
# Convention : Reuss Voigt Hill
#
# Bulk Modulus (GPa) = 111.08706 123.62123 117.35414
# Shear Modulus (GPa) = 22.54884 62.70468 42.62676
#
# Velocity S-wave (km/s) = 2.82487 4.71072 3.88399
# Velocity P-wave (km/s) = 7.06774 8.56368 7.85142
#
# Compressibility (1/GPa) = 0.00900195
#
# Stress axis : x y z
#
# Youngs Moduli (GPa) = 293.38827 225.49398 119.68374
#
# Poissons Ratio (x) = 0.11820 0.12497
# Poissons Ratio (y) = 0.15379 0.24295
# Poissons Ratio (z) = 0.30636 0.45773
#
# Static dielectric constant tensor:
#      x y z
#    x 1.994660 0.000000 0.000000 
#    y 0.000000 2.243560 0.000000 
#    z 0.000000 0.000000 2.316060 
# 
# From -- ./inp_files/6716.got.cif
#   From: 2010.05.17/outbox.cif.g08.bks.cpg/sg64_4_cif.got.tgz:6716.got - 2010.06.03 16:29:19.
