data_PCOD9482881
_publ_section_title
;
Structure prediction by ZEFSAII (Michael W. Deem and Ramdas Pophale) SiO2 
 PCOD9482881
Probable space group: C M M M
;
_chemical_formula_sum "Si O2"
_cell_formula_units_Z 128
_cell_length_a 24.563950
_cell_length_b 17.480478
_cell_length_c 18.929255
_cell_angle_alpha 90.000000
_cell_angle_beta 90.000000
_cell_angle_gamma 90.000000
_cell_volume 8128.024997
_symmetry_space_group_name_H-M "C M M M"
_symmetry_group_IT_number 65
_symmetry_cell_setting 'orthorhombic'
loop_
_space_group_symop_operation_xyz
x,y,z
-x,-y,z
x,-y,-z
-x,y,-z
-x,-y,-z
x,y,-z
-x,y,z
x,-y,z
1/2+x,1/2+y,z
1/2-x,1/2-y,z
1/2+x,1/2-y,-z
1/2-x,1/2+y,-z
1/2-x,1/2-y,-z
1/2+x,1/2+y,-z
1/2-x,1/2+y,z
1/2+x,1/2-y,z
loop_
_atom_site_type_symbol
_atom_site_label
_atom_site_fract_x
_atom_site_fract_y
_atom_site_fract_z
Si Si1 0.659043 0.828846 0.723732
Si Si2 0.154820 0.085722 0.629027
Si Si3 0.437076 0.784273 0.082488
Si Si4 0.437252 0.910450 0.202945
Si Si5 0.859697 0.813425 0.827720
Si Si6 0.561255 0.589381 0.267273
Si Si7 0.770103 0.088454 0.770439
Si Si8 0.815222 0.750519 0.421987
O O1 0.606394 0.880066 0.740686
O O2 0.654263 0.754371 0.773155
O O3 0.713436 0.872833 0.748530
O O4 0.662661 0.798976 0.643467
O O5 0.094070 0.094239 0.659646
O O6 0.192887 0.089183 0.699246
O O7 0.167887 0.160579 0.584710
O O8 0.161682 0.000000 0.598287
O O9 0.500000 0.756142 0.094049
O O10 0.430652 0.858100 0.133068
O O11 0.389935 0.724957 0.105852
O O12 0.432138 0.802945 0.000000
O O13 0.500000 0.900618 0.226683
O O14 0.428494 0.000000 0.188114
O O15 0.905798 0.864558 0.790808
O O16 0.804918 0.864626 0.828836
O O17 0.500000 0.617323 0.273736
O O18 0.561340 0.500000 0.247705
O O19 0.762583 0.000000 0.791038
O O20 0.830380 0.721467 0.500000
O O21 0.750000 0.750000 0.415650
#
# Coordination Sequence:
#
# PCOD9482881 Si02
#       8
#    16  16  16  16  16  16  16  16
#     4  11  18  32  50  74  99 124 160 213 255 297
#     4   9  17  30  45  66  94 125 161 200 241 290
#     4   9  18  31  49  77 109 136 162 198 245 294
#     4   9  19  34  54  78  99 128 167 206 249 294
#     4  10  17  28  49  71  98 128 165 203 245 289
#     4   9  16  26  44  69  94 123 161 203 241 279
#     4  10  18  29  49  71  93 126 166 206 251 292
#     4  11  20  32  48  70 102 133 161 201 254 308
#
# _framework density 15.747983
#
# number of rings (size 3 to 8) (size 9 to 14) (size 15 to 20)
#    0.000    2.250    3.750    2.250    0.000    1.000 
#    0.000    1.250    0.000   10.500    0.000    7.000 
#    0.000    0.000    0.000    0.000    0.000    0.000 
#
# Total GULP energy -356304.731336 kJ/mol
# GULP energy per Si atom -5567.261427 kJ/mol
# Density = 1.571214 g / cm^3
# Si number density = 15.747983 Si / 1000 Ang^3
#
#
#
# Elastic Constant Matrix: (Units=GPa)
#
#
# Indices 1 2 3 4 5 6 
#
# 1 99.9685 51.4766 42.3516 0.0000 0.0000 0.0000
# 2 51.4766 84.4254 33.4756 0.0000 0.0000 0.0000
# 3 42.3516 33.4756 79.2702 0.0000 0.0000 0.0000
# 4 0.0000 0.0000 0.0000 11.9711 0.0000 0.0000
# 5 0.0000 0.0000 0.0000 0.0000 70.7689 0.0000
# 6 0.0000 0.0000 0.0000 0.0000 0.0000 20.7800
#
#
#
# Elastic Compliance Matrix: (Units=1/GPa)
#
#
# Indices 1 2 3 4 5 6 
#
# 1 0.016316 -0.007798 -0.005424 0.000000 0.000000 0.000000
# 2 -0.007798 0.017954 -0.003416 0.000000 0.000000 0.000000
# 3 -0.005424 -0.003416 0.016956 0.000000 0.000000 0.000000
# 4 0.000000 0.000000 0.000000 0.083534 0.000000 0.000000
# 5 0.000000 0.000000 0.000000 0.000000 0.014130 0.000000
# 6 0.000000 0.000000 0.000000 0.000000 0.000000 0.048123
#
#
# Mechanical properties :
#
#
# Convention : Reuss Voigt Hill
#
# Bulk Modulus (GPa) = 55.71023 57.58574 56.64799
# Shear Modulus (GPa) = 21.16198 29.79471 25.47835
#
# Velocity S-wave (km/s) = 3.66975 4.35440 4.02665
# Velocity P-wave (km/s) = 7.30815 7.86940 7.59396
#
# Compressibility (1/GPa) = 0.01795002
#
# Stress axis : x y z
#
# Youngs Moduli (GPa) = 61.28766 55.69897 58.97755
#
# Poissons Ratio (x) = 0.43433 0.31992
# Poissons Ratio (y) = 0.47791 0.20145
# Poissons Ratio (z) = 0.33245 0.19025
#
# Static dielectric constant tensor:
#      x y z
#    x 1.544730 0.000000 0.000000 
#    y 0.000000 1.552430 0.000000 
#    z 0.000000 0.000000 1.506700 
# 
# From -- ./inp_files/56989.got.cif
#   From: 2010.05.17/outbox.cif.g08.bks.cpg/sg65_29_cif.got.tgz:56989.got - 2010.06.03 17:01:31.
