data_PCOD9482731
_publ_section_title
;
Structure prediction by ZEFSAII (Michael W. Deem and Ramdas Pophale) SiO2 
 PCOD9482731
Probable space group: C M M M
;
_chemical_formula_sum "Si O2"
_cell_formula_units_Z 96
_cell_length_a 29.714125
_cell_length_b 26.907766
_cell_length_c 8.955225
_cell_angle_alpha 90.000000
_cell_angle_beta 90.000000
_cell_angle_gamma 90.000000
_cell_volume 7160.067066
_symmetry_space_group_name_H-M "C M M M"
_symmetry_group_IT_number 65
_symmetry_cell_setting 'orthorhombic'
loop_
_space_group_symop_operation_xyz
x,y,z
-x,-y,z
x,-y,-z
-x,y,-z
-x,-y,-z
x,y,-z
-x,y,z
x,-y,z
1/2+x,1/2+y,z
1/2-x,1/2-y,z
1/2+x,1/2-y,-z
1/2-x,1/2+y,-z
1/2-x,1/2-y,-z
1/2+x,1/2+y,-z
1/2-x,1/2+y,z
1/2+x,1/2-y,z
loop_
_atom_site_type_symbol
_atom_site_label
_atom_site_fract_x
_atom_site_fract_y
_atom_site_fract_z
Si Si1 0.719507 0.199798 0.326939
Si Si2 0.139817 0.942728 0.177335
Si Si3 0.448679 0.598446 0.678273
Si Si4 0.645272 0.258236 0.177516
Si Si5 0.806263 0.853801 0.320077
Si Si6 0.449829 0.292866 0.821878
O O1 0.707654 0.192101 0.500000
O O2 0.750000 0.250000 0.319644
O O3 0.675063 0.212413 0.235005
O O4 0.754210 0.157080 0.277653
O O5 0.089941 0.932488 0.240979
O O6 0.173188 0.904258 0.257114
O O7 0.152063 0.000000 0.204024
O O8 0.139865 0.933243 0.000000
O O9 0.442341 0.596536 0.500000
O O10 0.500000 0.582301 0.712088
O O11 0.444459 0.655293 0.734648
O O12 0.664776 0.308100 0.254149
O O13 0.592195 0.257526 0.212758
O O14 0.650907 0.262857 0.000000
O O15 0.809040 0.852235 0.500000
O O16 0.500000 0.273264 0.789817
O O17 0.447646 0.303825 0.000000
#
# Coordination Sequence:
#
# PCOD9482731 Si02
#       6
#    16  16  16  16  16  16
#     4   8  16  28  41  59  81 103 125 155 198 238
#     4  11  23  35  46  60  77 100 130 166 211 254
#     4  10  20  32  46  61  75  97 131 169 208 247
#     4  10  17  25  42  64  82 104 132 161 195 236
#     4  10  19  31  45  59  78 102 128 163 203 242
#     4   9  17  28  41  58  82 109 134 162 198 237
#
# _framework density 13.407696
#
# number of rings (size 3 to 8) (size 9 to 14) (size 15 to 20)
#    0.000    2.333    1.667    3.000    0.000    7.000 
#    0.000    1.667    0.000    0.000    0.000    0.000 
#    0.000    0.000    0.000    0.000    0.000    0.833 
#
# Total GULP energy -267464.077763 kJ/mol
# GULP energy per Si atom -5572.168287 kJ/mol
# Density = 1.337718 g / cm^3
# Si number density = 13.407696 Si / 1000 Ang^3
#
#
#
# Elastic Constant Matrix: (Units=GPa)
#
#
# Indices 1 2 3 4 5 6 
#
# 1 101.4805 50.5471 47.4090 0.0000 0.0000 0.0000
# 2 50.5471 47.9218 30.3971 0.0000 0.0000 0.0000
# 3 47.4090 30.3971 48.2428 0.0000 0.0000 0.0000
# 4 0.0000 0.0000 0.0000 10.5178 0.0000 0.0000
# 5 0.0000 0.0000 0.0000 0.0000 21.2384 0.0000
# 6 0.0000 0.0000 0.0000 0.0000 0.0000 18.4109
#
#
#
# Elastic Compliance Matrix: (Units=1/GPa)
#
#
# Indices 1 2 3 4 5 6 
#
# 1 0.024980 -0.017952 -0.013237 0.000000 0.000000 0.000000
# 2 -0.017952 0.047661 -0.012389 0.000000 0.000000 0.000000
# 3 -0.013237 -0.012389 0.041542 0.000000 0.000000 0.000000
# 4 0.000000 0.000000 0.000000 0.095077 0.000000 0.000000
# 5 0.000000 0.000000 0.000000 0.000000 0.047085 0.000000
# 6 0.000000 0.000000 0.000000 0.000000 0.000000 0.054316
#
#
# Mechanical properties :
#
#
# Convention : Reuss Voigt Hill
#
# Bulk Modulus (GPa) = 36.99834 50.48350 43.74092
# Shear Modulus (GPa) = 12.29028 14.65287 13.47158
#
# Velocity S-wave (km/s) = 3.03092 3.30945 3.17324
# Velocity P-wave (km/s) = 6.31691 7.23447 6.79121
#
# Compressibility (1/GPa) = 0.02702824
#
# Stress axis : x y z
#
# Youngs Moduli (GPa) = 40.03211 20.98136 24.07175
#
# Poissons Ratio (x) = 0.37666 0.31863
# Poissons Ratio (y) = 0.71867 0.29822
# Poissons Ratio (z) = 0.52990 0.25993
#
# Static dielectric constant tensor:
#      x y z
#    x 1.468680 0.000000 0.000000 
#    y 0.000000 1.411210 0.000000 
#    z 0.000000 0.000000 1.449590 
# 
# From -- ./inp_files/16930.got.cif
#   From: 2010.05.17/outbox.cif.g08.bks.cpg/sg65_9_cif.got.tgz:16930.got - 2010.06.03 17:01:31.
