data_PCOD9482614
_publ_section_title
;
Structure prediction by ZEFSAII (Michael W. Deem and Ramdas Pophale) SiO2 
 PCOD9482614
Probable space group: C M M M
;
_chemical_formula_sum "Si O2"
_cell_formula_units_Z 72
_cell_length_a 24.031079
_cell_length_b 8.581462
_cell_length_c 21.503550
_cell_angle_alpha 90.000000
_cell_angle_beta 90.000000
_cell_angle_gamma 90.000000
_cell_volume 4434.500599
_symmetry_space_group_name_H-M "C M M M"
_symmetry_group_IT_number 65
_symmetry_cell_setting 'orthorhombic'
loop_
_space_group_symop_operation_xyz
x,y,z
-x,-y,z
x,-y,-z
-x,y,-z
-x,-y,-z
x,y,-z
-x,y,z
x,-y,z
1/2+x,1/2+y,z
1/2-x,1/2-y,z
1/2+x,1/2-y,-z
1/2-x,1/2+y,-z
1/2-x,1/2-y,-z
1/2+x,1/2+y,-z
1/2-x,1/2+y,z
1/2+x,1/2-y,z
loop_
_atom_site_type_symbol
_atom_site_label
_atom_site_fract_x
_atom_site_fract_y
_atom_site_fract_z
Si Si1 0.313639 0.685977 0.500000
Si Si2 0.379762 0.311515 0.117559
Si Si3 0.186591 0.686036 0.371533
Si Si4 0.686901 0.312538 0.240740
Si Si5 0.187787 0.314504 0.000000
Si Si6 0.000000 0.810242 0.072519
O O1 0.312086 0.500000 0.500000
O O2 0.250000 0.750000 0.500000
O O3 0.339077 0.748132 0.435426
O O4 0.378453 0.500000 0.114382
O O5 0.351514 0.266563 0.182642
O O6 0.443463 0.260872 0.106659
O O7 0.343955 0.246396 0.060749
O O8 0.187497 0.500000 0.373507
O O9 0.250000 0.750000 0.370597
O O10 0.163669 0.746210 0.305868
O O11 0.689639 0.500000 0.244724
O O12 0.750000 0.250000 0.231589
O O13 0.250000 0.250000 0.000000
O O14 0.188808 0.500000 0.000000
O O15 0.000000 0.000000 0.071609
O O16 0.000000 0.760120 0.000000
#
# Coordination Sequence:
#
# PCOD9482614 Si02
#       6
#     8  16  16  16   8   8
#     4  10  16  24  38  58  86 119 158 195 226 264
#     4  10  20  35  54  73  94 123 159 197 239 288
#     4  10  17  26  40  59  87 122 158 191 229 273
#     4  10  19  30  45  66  93 124 158 193 235 281
#     4  12  24  35  50  71  97 124 156 194 237 286
#     4   9  16  32  58  76  92 119 156 197 242 290
#
# _framework density 16.236326999999999
#
# number of rings (size 3 to 8) (size 9 to 14) (size 15 to 20)
#    0.000    1.889    1.111    8.000    0.000    3.556 
#    0.000    1.111    0.000    0.000    0.000    0.000 
#    0.000    0.889    0.000   10.444    0.000    3.111 
#
# Total GULP energy -200767.994837 kJ/mol
# GULP energy per Si atom -5576.888745 kJ/mol
# Density = 1.619937 g / cm^3
# Si number density = 16.236327 Si / 1000 Ang^3
#
#
#
# Elastic Constant Matrix: (Units=GPa)
#
#
# Indices 1 2 3 4 5 6 
#
# 1 91.8979 23.4902 67.8820 0.0000 0.0000 0.0000
# 2 23.4902 78.2900 58.1593 0.0000 0.0000 0.0000
# 3 67.8820 58.1593 198.5361 0.0000 0.0000 0.0000
# 4 0.0000 0.0000 0.0000 27.0164 0.0000 0.0000
# 5 0.0000 0.0000 0.0000 0.0000 -0.8195 0.0000
# 6 0.0000 0.0000 0.0000 0.0000 0.0000 10.7773
#
#
#
# Elastic Compliance Matrix: (Units=1/GPa)
#
#
# Indices 1 2 3 4 5 6 
#
# 1 0.014604 -0.000859 -0.004741 0.000000 0.000000 0.000000
# 2 -0.000859 0.016376 -0.004503 0.000000 0.000000 0.000000
# 3 -0.004741 -0.004503 0.007977 0.000000 0.000000 0.000000
# 4 0.000000 0.000000 0.000000 0.037014 0.000000 0.000000
# 5 0.000000 0.000000 0.000000 0.000000 -1.220297 0.000000
# 6 0.000000 0.000000 0.000000 0.000000 0.000000 0.092788
#
#
# Mechanical properties :
#
#
# Convention : Reuss Voigt Hill
#
# Bulk Modulus (GPa) = 53.33711 74.19856 63.76783
# Shear Modulus (GPa) = -4.87767 22.00769 8.56501
#
# Velocity S-wave (km/s) = -1.73513 3.68565 2.29927
# Velocity P-wave (km/s) = 5.37657 7.99439 6.81241
#
# Compressibility (1/GPa) = 0.01874867
#
# Stress axis : x y z
#
# Youngs Moduli (GPa) = 68.47602 61.06365 125.35642
#
# Poissons Ratio (x) = 0.05248 0.59437
# Poissons Ratio (y) = 0.05885 0.56454
# Poissons Ratio (z) = 0.32467 0.27500
#
# Static dielectric constant tensor:
#      x y z
#    x 1.517190 0.000000 0.000000 
#    y 0.000000 1.541290 0.000000 
#    z 0.000000 0.000000 1.592910 
# 
# From -- ./inp_files/70758.got.cif
#   From: 2010.05.17/outbox.cif.g08.bks.cpg/sg65_36_cif.got.tgz:70758.got - 2010.06.03 17:01:31.
