data_PCOD9482110
_publ_section_title
;
Structure prediction by ZEFSAII (Michael W. Deem and Ramdas Pophale) SiO2 
 PCOD9482110
Probable space group: C M C A
;
_chemical_formula_sum "Si O2"
_cell_formula_units_Z 104
_cell_length_a 26.946359
_cell_length_b 7.927676
_cell_length_c 21.584243
_cell_angle_alpha 90.000000
_cell_angle_beta 90.000000
_cell_angle_gamma 90.000000
_cell_volume 4610.869234
_symmetry_space_group_name_H-M "C M C A"
_symmetry_group_IT_number 64
_symmetry_cell_setting 'orthorhombic'
loop_
_space_group_symop_operation_xyz
x,y,z
-x,1/2-y,1/2+z
x,-y,-z
-x,1/2+y,1/2-z
-x,-y,-z
x,1/2+y,1/2-z
-x,y,z
x,1/2-y,1/2+z
1/2+x,1/2+y,z
1/2-x,-y,1/2+z
1/2+x,1/2-y,-z
1/2-x,y,1/2-z
1/2-x,1/2-y,-z
1/2+x,y,1/2-z
1/2-x,1/2+y,z
1/2+x,-y,1/2+z
loop_
_atom_site_type_symbol
_atom_site_label
_atom_site_fract_x
_atom_site_fract_y
_atom_site_fract_z
Si Si1 0.500000 0.029559 0.824840
Si Si2 0.082654 0.215801 0.356953
Si Si3 0.198569 0.184810 0.529587
Si Si4 0.500000 0.559589 0.813446
Si Si5 0.589811 0.206352 0.001628
Si Si6 0.000000 0.818407 0.914948
Si Si7 0.315975 0.319357 0.198106
Si Si8 0.206112 0.709672 0.329477
O O1 0.500000 0.976952 0.753562
O O2 0.500000 0.218773 0.848965
O O3 0.449275 0.954366 0.852636
O O4 0.080144 0.262930 0.428624
O O5 0.138729 0.224330 0.334257
O O6 0.051411 0.338248 0.312917
O O7 0.250000 0.250000 0.500000
O O8 0.145667 0.266780 0.512789
O O9 0.199635 0.204582 0.603757
O O10 0.194701 0.000000 0.500000
O O11 0.500000 0.499397 0.884629
O O12 0.548219 0.275088 0.955110
O O13 0.587479 0.000000 0.000000
O O14 0.265026 0.222474 0.182781
O O15 0.310902 0.513612 0.175059
O O16 0.319927 0.309080 0.272822
#
# Coordination Sequence:
#
# PCOD9482110 Si02
#       8
#     8  16  16   8  16   8  16  16
#     4  11  24  47  75  95 142 178 238 289 356 438
#     4  11  25  46  69 102 142 179 234 294 356 423
#     4  11  25  44  69 104 142 185 239 293 356 431
#     4  11  28  44  63 112 137 178 226 303 359 417
#     4  11  24  43  74  98 131 189 234 291 349 429
#     4  12  23  46  74 101 135 184 243 291 360 434
#     4  11  25  44  74 102 147 187 238 292 358 423
#     4  11  24  45  69 107 142 193 240 295 351 429
#
# _framework density 22.555399000000001
#
# number of rings (size 3 to 8) (size 9 to 14) (size 15 to 20)
#    0.000    0.923    1.538    5.769    4.308    6.154 
#    0.000    0.000    0.000    0.000    0.000    0.000 
#    0.000    0.000    0.000    0.000    0.000    0.000 
#
# Total GULP energy -290306.514215 kJ/mol
# GULP energy per Si atom -5582.817581 kJ/mol
# Density = 2.250406 g / cm^3
# Si number density = 22.555399 Si / 1000 Ang^3
#
#
#
# Elastic Constant Matrix: (Units=GPa)
#
#
# Indices 1 2 3 4 5 6 
#
# 1 122.8029 30.7836 53.0181 0.0000 0.0000 0.0000
# 2 30.7836 20.5179 21.3389 0.0000 0.0000 0.0000
# 3 53.0181 21.3389 173.0962 0.0000 0.0000 0.0000
# 4 0.0000 0.0000 0.0000 34.4800 0.0000 0.0000
# 5 0.0000 0.0000 0.0000 0.0000 47.8763 0.0000
# 6 0.0000 0.0000 0.0000 0.0000 0.0000 54.0428
#
#
#
# Elastic Compliance Matrix: (Units=1/GPa)
#
#
# Indices 1 2 3 4 5 6 
#
# 1 0.013570 -0.018395 -0.001889 0.000000 0.000000 0.000000
# 2 -0.018395 0.080841 -0.004332 0.000000 0.000000 0.000000
# 3 -0.001889 -0.004332 0.006890 0.000000 0.000000 0.000000
# 4 0.000000 0.000000 0.000000 0.029002 0.000000 0.000000
# 5 0.000000 0.000000 0.000000 0.000000 0.020887 0.000000
# 6 0.000000 0.000000 0.000000 0.000000 0.000000 0.018504
#
#
# Mechanical properties :
#
#
# Convention : Reuss Voigt Hill
#
# Bulk Modulus (GPa) = 19.20479 58.52202 38.86340
# Shear Modulus (GPa) = 21.16126 41.36491 31.26308
#
# Velocity S-wave (km/s) = 3.06631 4.28708 3.72702
# Velocity P-wave (km/s) = 4.59014 7.10687 5.98235
#
# Compressibility (1/GPa) = 0.05207036
#
# Stress axis : x y z
#
# Youngs Moduli (GPa) = 73.69417 12.36991 145.14604
#
# Poissons Ratio (x) = 0.22754 0.27412
# Poissons Ratio (y) = 1.35558 0.62874
# Poissons Ratio (z) = 0.13918 0.05358
#
# Static dielectric constant tensor:
#      x y z
#    x 1.742740 0.000000 0.000000 
#    y 0.000000 1.892930 0.000000 
#    z 0.000000 0.000000 1.803020 
# 
# From -- ./inp_files/41915.got.cif
#   From: 2010.05.17/outbox.cif.g08.bks.cpg/sg64_21_cif.got.tgz:41915.got - 2010.06.03 16:29:19.
