data_PCOD9482273
_publ_section_title
;
Structure prediction by ZEFSAII (Michael W. Deem and Ramdas Pophale) SiO2 
 PCOD9482273
Probable space group: C M C A
;
_chemical_formula_sum "Si O2"
_cell_formula_units_Z 52
_cell_length_a 15.314385
_cell_length_b 17.886935
_cell_length_c 6.881452
_cell_angle_alpha 90.000000
_cell_angle_beta 90.000000
_cell_angle_gamma 90.000000
_cell_volume 1885.018317
_symmetry_space_group_name_H-M "C M C A"
_symmetry_group_IT_number 64
_symmetry_cell_setting 'orthorhombic'
loop_
_space_group_symop_operation_xyz
x,y,z
-x,1/2-y,1/2+z
x,-y,-z
-x,1/2+y,1/2-z
-x,-y,-z
x,1/2+y,1/2-z
-x,y,z
x,1/2-y,1/2+z
1/2+x,1/2+y,z
1/2-x,-y,1/2+z
1/2+x,1/2-y,-z
1/2-x,y,1/2-z
1/2-x,1/2-y,-z
1/2+x,y,1/2-z
1/2-x,1/2+y,z
1/2+x,-y,1/2+z
loop_
_atom_site_type_symbol
_atom_site_label
_atom_site_fract_x
_atom_site_fract_y
_atom_site_fract_z
Si Si1 0.000000 0.500000 0.500000
Si Si2 0.845270 0.851778 0.652750
Si Si3 0.901645 0.309150 0.447762
Si Si4 0.154150 0.554821 0.784137
O O1 0.076734 0.516646 0.665555
O O2 0.750000 0.851164 0.750000
O O3 0.863299 0.773608 0.542484
O O4 0.860324 0.920524 0.507753
O O5 0.906738 0.846097 0.840285
O O6 0.842712 0.363931 0.323352
O O7 0.000000 0.306889 0.364826
O O8 0.250000 0.520619 0.750000
#
# Coordination Sequence:
#
# PCOD9482273 Si02
#       4
#     4  16  16  16
#     4  12  32  60  86 118 160 246 324 376 448 514
#     4  12  24  42  78 125 172 225 274 353 458 543
#     4  12  24  40  75 127 176 218 272 348 447 553
#     4  12  27  55  82 115 171 222 300 377 443 542
#
# _framework density 27.585937999999999
#
# number of rings (size 3 to 8) (size 9 to 14) (size 15 to 20)
#    0.000    0.000    7.692    2.769    4.308    0.000 
#    5.538    1.538    0.000    0.000    0.000    0.000 
#    0.000    0.000    0.000    0.000    0.000    0.000 
#
# Total GULP energy -145440.585112 kJ/mol
# GULP energy per Si atom -5593.868658 kJ/mol
# Density = 2.752315 g / cm^3
# Si number density = 27.585938 Si / 1000 Ang^3
#
#
#
# Elastic Constant Matrix: (Units=GPa)
#
#
# Indices 1 2 3 4 5 6 
#
# 1 262.8977 48.5080 77.7474 0.0000 0.0000 0.0000
# 2 48.5080 146.7568 35.4939 0.0000 0.0000 0.0000
# 3 77.7474 35.4939 184.9854 0.0000 0.0000 0.0000
# 4 0.0000 0.0000 0.0000 61.6156 0.0000 0.0000
# 5 0.0000 0.0000 0.0000 0.0000 58.3698 0.0000
# 6 0.0000 0.0000 0.0000 0.0000 0.0000 196.7169
#
#
#
# Elastic Compliance Matrix: (Units=1/GPa)
#
#
# Indices 1 2 3 4 5 6 
#
# 1 0.004501 -0.001080 -0.001685 0.000000 0.000000 0.000000
# 2 -0.001080 0.007405 -0.000967 0.000000 0.000000 0.000000
# 3 -0.001685 -0.000967 0.006299 0.000000 0.000000 0.000000
# 4 0.000000 0.000000 0.000000 0.016230 0.000000 0.000000
# 5 0.000000 0.000000 0.000000 0.000000 0.017132 0.000000
# 6 0.000000 0.000000 0.000000 0.000000 0.000000 0.005083
#
#
# Mechanical properties :
#
#
# Convention : Reuss Voigt Hill
#
# Bulk Modulus (GPa) = 93.09110 102.01538 97.55324
# Shear Modulus (GPa) = 73.86089 92.19984 83.03037
#
# Velocity S-wave (km/s) = 5.18005 5.78751 5.49219
# Velocity P-wave (km/s) = 8.34245 9.04000 8.69822
#
# Compressibility (1/GPa) = 0.01074216
#
# Stress axis : x y z
#
# Youngs Moduli (GPa) = 222.15890 135.04546 158.74737
#
# Poissons Ratio (x) = 0.14590 0.26742
# Poissons Ratio (y) = 0.24002 0.15347
# Poissons Ratio (z) = 0.37424 0.13055
#
# Static dielectric constant tensor:
#      x y z
#    x 2.025480 0.000000 0.000000 
#    y 0.000000 2.267390 0.000000 
#    z 0.000000 0.000000 2.201400 
# 
# From -- ./inp_files/6383.got.cif
#   From: 2010.05.17/outbox.cif.g08.bks.cpg/sg64_4_cif.got.tgz:6383.got - 2010.06.03 16:29:19.
