data_PCOD9482540
_publ_section_title
;
Structure prediction by ZEFSAII (Michael W. Deem and Ramdas Pophale) SiO2 
 PCOD9482540
Probable space group: C M M M
;
_chemical_formula_sum "Si O2"
_cell_formula_units_Z 104
_cell_length_a 22.135970
_cell_length_b 15.103922
_cell_length_c 19.028210
_cell_angle_alpha 90.000000
_cell_angle_beta 90.000000
_cell_angle_gamma 90.000000
_cell_volume 6361.891052
_symmetry_space_group_name_H-M "C M M M"
_symmetry_group_IT_number 65
_symmetry_cell_setting 'orthorhombic'
loop_
_space_group_symop_operation_xyz
x,y,z
-x,-y,z
x,-y,-z
-x,y,-z
-x,-y,-z
x,y,-z
-x,y,z
x,-y,z
1/2+x,1/2+y,z
1/2-x,1/2-y,z
1/2+x,1/2-y,-z
1/2-x,1/2+y,-z
1/2-x,1/2-y,-z
1/2+x,1/2+y,-z
1/2-x,1/2+y,z
1/2+x,1/2-y,z
loop_
_atom_site_type_symbol
_atom_site_label
_atom_site_fract_x
_atom_site_fract_y
_atom_site_fract_z
Si Si1 0.930987 0.392747 0.000000
Si Si2 0.655981 0.902780 0.351320
Si Si3 0.269375 0.351221 0.579382
Si Si4 0.124240 0.604881 0.149054
Si Si5 0.071812 0.721168 0.278461
Si Si6 0.740435 0.144699 0.781889
Si Si7 0.356388 0.401139 0.291233
O O1 0.898964 0.367486 0.072528
O O2 0.931774 0.500000 0.000000
O O3 0.000000 0.361383 0.000000
O O4 0.704483 0.898623 0.413391
O O5 0.605040 0.828922 0.343271
O O6 0.700364 0.886166 0.284764
O O7 0.628666 0.000000 0.346341
O O8 0.292567 0.358775 0.500000
O O9 0.250000 0.250000 0.594601
O O10 0.317778 0.382649 0.637092
O O11 0.110549 0.500000 0.160665
O O12 0.093243 0.665835 0.209149
O O13 0.196591 0.617849 0.155040
O O14 0.097835 0.820720 0.278520
O O15 0.000000 0.719410 0.283455
O O16 0.750000 0.250000 0.779552
O O17 0.805806 0.103268 0.770321
O O18 0.382262 0.500000 0.294569
#
# Coordination Sequence:
#
# PCOD9482540 Si02
#       7
#     8  16  16  16  16  16  16
#     4   9  18  32  49  74 109 141 167 196 239 301
#     4  10  18  30  49  75 102 125 156 202 254 303
#     4  10  18  32  55  79 102 129 161 204 260 315
#     4  10  19  32  53  80 105 131 163 204 253 306
#     4  11  21  34  50  71 100 134 173 210 244 295
#     4  10  15  29  50  71 101 128 157 200 253 300
#     4  11  20  33  52  73 101 133 167 214 260 293
#
# _framework density 16.347341
#
# number of rings (size 3 to 8) (size 9 to 14) (size 15 to 20)
#    0.000    1.769    4.615    5.538    0.000    3.385 
#    0.000    0.385    0.000    1.846    0.000    2.692 
#    0.000    1.846    0.000    0.000    0.000    0.000 
#
# Total GULP energy -289572.176459 kJ/mol
# GULP energy per Si atom -5568.695701 kJ/mol
# Density = 1.631013 g / cm^3
# Si number density = 16.347341 Si / 1000 Ang^3
#
#
#
# Elastic Constant Matrix: (Units=GPa)
#
#
# Indices 1 2 3 4 5 6 
#
# 1 72.7339 29.1401 8.2082 0.0000 0.0000 0.0000
# 2 29.1401 129.2292 14.3240 0.0000 0.0000 0.0000
# 3 8.2082 14.3240 59.2523 0.0000 0.0000 0.0000
# 4 0.0000 0.0000 0.0000 11.9135 0.0000 0.0000
# 5 0.0000 0.0000 0.0000 0.0000 14.7917 0.0000
# 6 0.0000 0.0000 0.0000 0.0000 0.0000 10.0353
#
#
#
# Elastic Compliance Matrix: (Units=1/GPa)
#
#
# Indices 1 2 3 4 5 6 
#
# 1 0.015213 -0.003285 -0.001313 0.000000 0.000000 0.000000
# 2 -0.003285 0.008661 -0.001639 0.000000 0.000000 0.000000
# 3 -0.001313 -0.001639 0.017455 0.000000 0.000000 0.000000
# 4 0.000000 0.000000 0.000000 0.083939 0.000000 0.000000
# 5 0.000000 0.000000 0.000000 0.000000 0.067606 0.000000
# 6 0.000000 0.000000 0.000000 0.000000 0.000000 0.099648
#
#
# Mechanical properties :
#
#
# Convention : Reuss Voigt Hill
#
# Bulk Modulus (GPa) = 34.65605 40.50667 37.58136
# Shear Modulus (GPa) = 15.89254 21.31762 18.60508
#
# Velocity S-wave (km/s) = 3.12136 3.61507 3.37725
# Velocity P-wave (km/s) = 5.85118 6.50058 6.18441
#
# Compressibility (1/GPa) = 0.02885499
#
# Stress axis : x y z
#
# Youngs Moduli (GPa) = 65.73327 115.46656 57.28997
#
# Poissons Ratio (x) = 0.37929 0.07524
# Poissons Ratio (y) = 0.21592 0.09388
# Poissons Ratio (z) = 0.08633 0.18920
#
# Static dielectric constant tensor:
#      x y z
#    x 1.556460 0.000000 0.000000 
#    y 0.000000 1.608890 0.000000 
#    z 0.000000 0.000000 1.584340 
# 
# From -- ./inp_files/55865.got.cif
#   From: 2010.05.17/outbox.cif.g08.bks.cpg/sg65_28_cif.got.tgz:55865.got - 2010.06.03 17:01:31.
