data_PCOD9482012
_publ_section_title
;
Structure prediction by ZEFSAII (Michael W. Deem and Ramdas Pophale) SiO2 
 PCOD9482012
Probable space group: C M C A
;
_chemical_formula_sum "Si O2"
_cell_formula_units_Z 64
_cell_length_a 16.380456
_cell_length_b 9.435789
_cell_length_c 20.522301
_cell_angle_alpha 90.000000
_cell_angle_beta 90.000000
_cell_angle_gamma 90.000000
_cell_volume 3171.978693
_symmetry_space_group_name_H-M "C M C A"
_symmetry_group_IT_number 64
_symmetry_cell_setting 'orthorhombic'
loop_
_space_group_symop_operation_xyz
x,y,z
-x,1/2-y,1/2+z
x,-y,-z
-x,1/2+y,1/2-z
-x,-y,-z
x,1/2+y,1/2-z
-x,y,z
x,1/2-y,1/2+z
1/2+x,1/2+y,z
1/2-x,-y,1/2+z
1/2+x,1/2-y,-z
1/2-x,y,1/2-z
1/2-x,1/2-y,-z
1/2+x,y,1/2-z
1/2-x,1/2+y,z
1/2+x,-y,1/2+z
loop_
_atom_site_type_symbol
_atom_site_label
_atom_site_fract_x
_atom_site_fract_y
_atom_site_fract_z
Si Si1 0.185203 0.354668 0.177748
Si Si2 0.325079 0.846469 0.023866
Si Si3 0.500000 0.268536 0.007261
Si Si4 0.000000 0.510955 0.388546
Si Si5 0.651982 0.469970 0.793147
O O1 0.164953 0.343175 0.101834
O O2 0.274347 0.428388 0.182616
O O3 0.132299 0.463274 0.222116
O O4 0.178216 0.195245 0.206362
O O5 0.413872 0.812168 0.993932
O O6 0.250000 0.750000 0.000000
O O7 0.300581 0.000000 0.000000
O O8 0.500000 0.364861 0.942051
O O9 0.500000 0.368377 0.069945
O O10 0.078199 0.519260 0.342760
#
# Coordination Sequence:
#
# PCOD9482012 Si02
#       5
#    16  16   8   8  16
#     4  11  23  42  66 100 132 178 231 278 352 413
#     4  12  26  44  73 104 141 187 233 295 356 426
#     4  11  25  45  67  99 144 175 236 289 350 422
#     4  11  24  43  69  99 133 183 224 290 356 407
#     4  11  23  42  67  95 136 176 227 292 338 426
#
# _framework density 20.176680000000001
#
# number of rings (size 3 to 8) (size 9 to 14) (size 15 to 20)
#    0.000    0.750    2.500    6.375    3.500    4.000 
#    0.000    0.000    0.000    0.000    0.000    0.000 
#    0.000    0.000    0.000    0.000    0.000    0.000 
#
# Total GULP energy -178688.412981 kJ/mol
# GULP energy per Si atom -5584.012906 kJ/mol
# Density = 2.013076 g / cm^3
# Si number density = 20.176680 Si / 1000 Ang^3
#
#
#
# Elastic Constant Matrix: (Units=GPa)
#
#
# Indices 1 2 3 4 5 6 
#
# 1 96.9167 64.8132 21.4358 0.0000 0.0000 0.0000
# 2 64.8132 197.2557 63.8126 0.0000 0.0000 0.0000
# 3 21.4358 63.8126 116.7606 0.0000 0.0000 0.0000
# 4 0.0000 0.0000 0.0000 20.0210 0.0000 0.0000
# 5 0.0000 0.0000 0.0000 0.0000 42.9008 0.0000
# 6 0.0000 0.0000 0.0000 0.0000 0.0000 6.4425
#
#
#
# Elastic Compliance Matrix: (Units=1/GPa)
#
#
# Indices 1 2 3 4 5 6 
#
# 1 0.013224 -0.004324 -0.000064 0.000000 0.000000 0.000000
# 2 -0.004324 0.007572 -0.003345 0.000000 0.000000 0.000000
# 3 -0.000064 -0.003345 0.010404 0.000000 0.000000 0.000000
# 4 0.000000 0.000000 0.000000 0.049947 0.000000 0.000000
# 5 0.000000 0.000000 0.000000 0.000000 0.023310 0.000000
# 6 0.000000 0.000000 0.000000 0.000000 0.000000 0.155219
#
#
# Mechanical properties :
#
#
# Convention : Reuss Voigt Hill
#
# Bulk Modulus (GPa) = 63.55592 79.00626 71.28109
# Shear Modulus (GPa) = 17.83239 31.26429 24.54834
#
# Velocity S-wave (km/s) = 2.97612 3.94067 3.49186
# Velocity P-wave (km/s) = 6.58618 7.74257 7.18767
#
# Compressibility (1/GPa) = 0.01573418
#
# Stress axis : x y z
#
# Youngs Moduli (GPa) = 75.61848 132.05838 96.11414
#
# Poissons Ratio (x) = 0.57106 0.00620
# Poissons Ratio (y) = 0.32700 0.32147
# Poissons Ratio (z) = 0.00488 0.44169
#
# Static dielectric constant tensor:
#      x y z
#    x 1.778720 0.000000 0.000000 
#    y 0.000000 1.723560 0.000000 
#    z 0.000000 0.000000 1.722230 
# 
# From -- ./inp_files/39831.got.cif
#   From: 2010.05.17/outbox.cif.g08.bks.cpg/sg64_20_cif.got.tgz:39831.got - 2010.06.03 16:29:19.
