data_PCOD9482374
_publ_section_title
;
Structure prediction by ZEFSAII (Michael W. Deem and Ramdas Pophale) SiO2 
 PCOD9482374
Probable space group: C M C A
;
_chemical_formula_sum "Si O2"
_cell_formula_units_Z 48
_cell_length_a 9.000000
_cell_length_b 27.000000
_cell_length_c 21.000000
_cell_angle_alpha 90.000000
_cell_angle_beta 90.000000
_cell_angle_gamma 90.000000
_cell_volume 5103.000000
_symmetry_space_group_name_H-M "C M C A"
_symmetry_group_IT_number 64
_symmetry_cell_setting 'orthorhombic'
loop_
_space_group_symop_operation_xyz
x,y,z
-x,1/2-y,1/2+z
x,-y,-z
-x,1/2+y,1/2-z
-x,-y,-z
x,1/2+y,1/2-z
-x,y,z
x,1/2-y,1/2+z
1/2+x,1/2+y,z
1/2-x,-y,1/2+z
1/2+x,1/2-y,-z
1/2-x,y,1/2-z
1/2-x,1/2-y,-z
1/2+x,y,1/2-z
1/2-x,1/2+y,z
1/2+x,-y,1/2+z
loop_
_atom_site_type_symbol
_atom_site_label
_atom_site_fract_x
_atom_site_fract_y
_atom_site_fract_z
Si Si1 0.332846 0.484856 0.075524
Si Si2 0.674107 0.852965 0.687799
Si Si3 0.834466 0.393272 0.043393
Si Si4 0.324822 0.790634 0.455126
Si Si5 0.674849 0.746007 0.812280
Si Si6 0.837377 0.923829 0.602039
O O1 0.500000 0.490942 0.098822
O O2 0.273793 0.429493 0.081008
O O3 0.220088 0.520960 0.110981
O O4 0.334949 0.500000 0.000000
O O5 0.500000 0.847973 0.695947
O O6 0.750000 0.876377 0.750000
O O7 0.749030 0.799528 0.680474
O O8 0.717111 0.886270 0.628547
O O9 0.759478 0.341131 0.033215
O O10 0.000000 0.389600 0.071005
O O11 0.848893 0.416251 0.973220
O O12 0.500000 0.793420 0.469131
O O13 0.250000 0.750000 0.500000
O O14 0.306762 0.779578 0.380143
O O15 0.500000 0.752101 0.800160
O O16 0.750000 0.722023 0.750000
O O17 0.000000 0.914010 0.630294
#
# Coordination Sequence:
#
# PCOD9482374 Si02
#       6
#    16  16  16  16  16  16
#     4   9  17  30  49  73 100 131 166 202 246 303
#     4  11  21  33  51  74 100 132 169 209 255 306
#     4  10  20  33  51  75 104 137 170 208 256 306
#     4  11  23  36  53  79 109 139 175 220 267 314
#     4  10  21  37  55  76 103 138 178 217 260 313
#     4  10  19  32  50  74 104 134 167 207 252 304
#
# _framework density 9.4062319999999993
#
# number of rings (size 3 to 8) (size 9 to 14) (size 15 to 20)
#    0.000    1.833    0.000    6.000    0.000   10.667 
#    0.000    0.000    0.000    1.000    0.000    4.667 
#    0.000    0.000    0.000    0.000    0.000    0.000 
#
# Total GULP energy -267504.039608 kJ/mol
# GULP energy per Si atom -5573.000825 kJ/mol
# Density = 0.938482 g / cm^3
# Si number density = 9.406232 Si / 1000 Ang^3
#
#
#
# Elastic Constant Matrix: (Units=GPa)
#
#
# Indices 1 2 3 4 5 6 
#
# 1 117.7859 45.5969 37.6392 0.0000 0.0000 0.0000
# 2 45.5969 80.0343 -5.7401 0.0000 0.0000 0.0000
# 3 37.6392 -5.7401 8.8855 0.0000 0.0000 0.0000
# 4 0.0000 0.0000 0.0000 4.5523 0.0000 0.0000
# 5 0.0000 0.0000 0.0000 0.0000 26.3944 0.0000
# 6 0.0000 0.0000 0.0000 0.0000 0.0000 104.6825
#
#
#
# Elastic Compliance Matrix: (Units=1/GPa)
#
#
# Indices 1 2 3 4 5 6 
#
# 1 -0.009462 0.008666 0.045678 0.000000 0.000000 0.000000
# 2 0.008666 0.005163 -0.033376 0.000000 0.000000 0.000000
# 3 0.045678 -0.033376 -0.102510 0.000000 0.000000 0.000000
# 4 0.000000 0.000000 0.000000 0.219667 0.000000 0.000000
# 5 0.000000 0.000000 0.000000 0.000000 0.037887 0.000000
# 6 0.000000 0.000000 0.000000 0.000000 0.000000 0.009553
#
#
# Mechanical properties :
#
#
# Convention : Reuss Voigt Hill
#
# Bulk Modulus (GPa) = -15.41530 40.18864 12.38667
# Shear Modulus (GPa) = 51.68652 35.73983 43.71317
#
# Velocity S-wave (km/s) = 5.24731 4.36339 4.82563
# Velocity P-wave (km/s) = 5.33857 6.84067 6.13576
#
# Compressibility (1/GPa) = -0.06487061
#
# Stress axis : x y z
#
# Youngs Moduli (GPa) = -105.69015 193.66734 -9.75512
#
# Poissons Ratio (x) = -1.67841 0.44559
# Poissons Ratio (y) = 0.91596 -0.32558
# Poissons Ratio (z) = 4.82771 6.46376
#
# Static dielectric constant tensor:
#      x y z
#    x 1.669370 0.000000 0.000000 
#    y 0.000000 1.623570 0.000000 
#    z 0.000000 0.000000 1.734980 
# 
# From -- ./inp_files/37109.got.cif
#   From: 2010.05.17/outbox.ucp.g08.bks.cvg/sg64_19_cif.got.tgz:37109.got - 2010.06.11 16:36:46.
