data_PCOD9482882
_publ_section_title
;
Structure prediction by ZEFSAII (Michael W. Deem and Ramdas Pophale) SiO2 
 PCOD9482882
Probable space group: C M M M
;
_chemical_formula_sum "Si O2"
_cell_formula_units_Z 80
_cell_length_a 25.860159
_cell_length_b 21.343069
_cell_length_c 7.790354
_cell_angle_alpha 90.000000
_cell_angle_beta 90.000000
_cell_angle_gamma 90.000000
_cell_volume 4299.770265
_symmetry_space_group_name_H-M "C M M M"
_symmetry_group_IT_number 65
_symmetry_cell_setting 'orthorhombic'
loop_
_space_group_symop_operation_xyz
x,y,z
-x,-y,z
x,-y,-z
-x,y,-z
-x,-y,-z
x,y,-z
-x,y,z
x,-y,z
1/2+x,1/2+y,z
1/2-x,1/2-y,z
1/2+x,1/2-y,-z
1/2-x,1/2+y,-z
1/2-x,1/2-y,-z
1/2+x,1/2+y,-z
1/2-x,1/2+y,z
1/2+x,1/2-y,z
loop_
_atom_site_type_symbol
_atom_site_label
_atom_site_fract_x
_atom_site_fract_y
_atom_site_fract_z
Si Si1 0.111022 0.751084 0.798069
Si Si2 0.000000 0.105209 0.290335
Si Si3 0.500000 0.752133 0.295056
Si Si4 0.273856 0.568175 0.202069
Si Si5 0.784309 0.309487 0.790229
Si Si6 0.887389 0.895560 0.698941
O O1 0.054358 0.722259 0.770552
O O2 0.157189 0.706299 0.738466
O O3 0.112895 0.819495 0.710407
O O4 0.118796 0.763581 0.000000
O O5 0.943566 0.081627 0.232900
O O6 0.000000 0.101331 0.500000
O O7 0.000000 0.178734 0.242179
O O8 0.500000 0.754311 0.500000
O O9 0.262253 0.500000 0.278089
O O10 0.241802 0.626770 0.274329
O O11 0.335201 0.580743 0.215664
O O12 0.261577 0.565833 0.000000
O O13 0.750000 0.250000 0.738006
O O14 0.783035 0.311464 0.000000
O O15 0.884668 0.913826 0.500000
#
# Coordination Sequence:
#
# PCOD9482882 Si02
#       6
#    16   8   8  16  16  16
#     4  10  17  28  49  72  96 127 163 196 238 290
#     4   7  14  27  42  60  85 121 154 187 227 270
#     4   9  17  29  43  68 105 128 151 195 247 287
#     4  10  20  34  50  68  93 127 163 201 246 294
#     4   9  16  29  49  72  97 122 157 204 244 280
#     4  10  18  30  47  67  95 126 160 202 246 282
#
# _framework density 18.605646
#
# number of rings (size 3 to 8) (size 9 to 14) (size 15 to 20)
#    0.000    2.600    2.000    2.700    0.000    0.400 
#    0.000    5.000    0.000    3.000    0.000    0.700 
#    0.000    5.600    0.000    0.000    0.000    0.000 
#
# Total GULP energy -222962.136119 kJ/mol
# GULP energy per Si atom -5574.053403 kJ/mol
# Density = 1.856330 g / cm^3
# Si number density = 18.605646 Si / 1000 Ang^3
#
#
#
# Elastic Constant Matrix: (Units=GPa)
#
#
# Indices 1 2 3 4 5 6 
#
# 1 142.0718 68.8408 -2.9150 0.0000 0.0000 0.0000
# 2 68.8408 107.8679 0.2423 0.0000 0.0000 0.0000
# 3 -2.9150 0.2423 27.3690 0.0000 0.0000 0.0000
# 4 0.0000 0.0000 0.0000 -15.8270 0.0000 0.0000
# 5 0.0000 0.0000 0.0000 0.0000 140.3943 0.0000
# 6 0.0000 0.0000 0.0000 0.0000 0.0000 3.7580
#
#
#
# Elastic Compliance Matrix: (Units=1/GPa)
#
#
# Indices 1 2 3 4 5 6 
#
# 1 0.010226 -0.006529 0.001147 0.000000 0.000000 0.000000
# 2 -0.006529 0.013439 -0.000814 0.000000 0.000000 0.000000
# 3 0.001147 -0.000814 0.036667 0.000000 0.000000 0.000000
# 4 0.000000 0.000000 0.000000 -0.063183 0.000000 0.000000
# 5 0.000000 0.000000 0.000000 0.000000 0.007123 0.000000
# 6 0.000000 0.000000 0.000000 0.000000 0.000000 0.266097
#
#
# Mechanical properties :
#
#
# Convention : Reuss Voigt Hill
#
# Bulk Modulus (GPa) = 20.85956 45.51610 33.18783
# Shear Modulus (GPa) = 16.73697 39.74111 28.23904
#
# Velocity S-wave (km/s) = 3.00253 4.62667 3.90008
# Velocity P-wave (km/s) = 4.82245 7.28410 6.17714
#
# Compressibility (1/GPa) = 0.04793965
#
# Stress axis : x y z
#
# Youngs Moduli (GPa) = 97.79359 74.41085 27.27248
#
# Poissons Ratio (x) = 0.48579 -0.03128
# Poissons Ratio (y) = 0.63845 0.02221
# Poissons Ratio (z) = -0.11216 0.06059
#
# Static dielectric constant tensor:
#      x y z
#    x 1.682560 0.000000 0.000000 
#    y 0.000000 1.642420 0.000000 
#    z 0.000000 0.000000 1.674280 
# 
# From -- ./inp_files/14207.got.cif
#   From: 2010.05.17/outbox.cif.g08.bks.cpg/sg65_8_cif.got.tgz:14207.got - 2010.06.03 17:01:31.
