data_PCOD9482684
_publ_section_title
;
Structure prediction by ZEFSAII (Michael W. Deem and Ramdas Pophale) SiO2 
 PCOD9482684
Probable space group: C M M M
;
_chemical_formula_sum "Si O2"
_cell_formula_units_Z 88
_cell_length_a 20.051657
_cell_length_b 17.319316
_cell_length_c 15.135890
_cell_angle_alpha 90.000000
_cell_angle_beta 90.000000
_cell_angle_gamma 90.000000
_cell_volume 5256.406772
_symmetry_space_group_name_H-M "C M M M"
_symmetry_group_IT_number 65
_symmetry_cell_setting 'orthorhombic'
loop_
_space_group_symop_operation_xyz
x,y,z
-x,-y,z
x,-y,-z
-x,y,-z
-x,-y,-z
x,y,-z
-x,y,z
x,-y,z
1/2+x,1/2+y,z
1/2-x,1/2-y,z
1/2+x,1/2-y,-z
1/2-x,1/2+y,-z
1/2-x,1/2-y,-z
1/2+x,1/2+y,-z
1/2-x,1/2+y,z
1/2+x,1/2-y,z
loop_
_atom_site_type_symbol
_atom_site_label
_atom_site_fract_x
_atom_site_fract_y
_atom_site_fract_z
Si Si1 0.372802 0.908134 0.597206
Si Si2 0.364711 0.138270 0.786109
Si Si3 0.726621 0.337923 0.402081
Si Si4 0.079061 0.500000 0.099236
Si Si5 0.707928 0.408637 0.226297
Si Si6 0.672800 0.720553 0.898700
O O1 0.400673 0.886486 0.500000
O O2 0.394497 0.865523 0.686965
O O3 0.293897 0.888992 0.592121
O O4 0.382290 0.000000 0.609191
O O5 0.398607 0.074969 0.847499
O O6 0.287037 0.111732 0.779287
O O7 0.365334 0.220119 0.834765
O O8 0.695321 0.337822 0.500000
O O9 0.750000 0.250000 0.382646
O O10 0.686119 0.371628 0.320116
O O11 0.000000 0.500000 0.093450
O O12 0.107929 0.500000 0.000000
O O13 0.699281 0.500000 0.224450
O O14 0.673901 0.363238 0.146105
O O15 0.750000 0.750000 0.899363
O O16 0.649453 0.721547 0.000000
#
# Coordination Sequence:
#
# PCOD9482684 Si02
#       6
#    16  16  16   8  16  16
#     4   9  15  23  38  57  74  98 133 166 200 244
#     4  10  16  31  44  57  82 113 137 170 216 253
#     4   9  15  22  33  52  78 108 142 176 206 243
#     4  11  22  32  45  65  83 107 148 186 214 254
#     4  10  17  26  40  60  82 110 143 174 210 256
#     4   9  18  28  39  56  77 106 142 175 205 251
#
# _framework density 16.741474
#
# number of rings (size 3 to 8) (size 9 to 14) (size 15 to 20)
#    0.000    2.455    1.818    4.909    0.000    2.182 
#    0.000    0.000    0.000    1.091    0.000    0.000 
#    0.000    0.727    0.000    3.818    0.000    0.000 
#
# Total GULP energy -244949.194390 kJ/mol
# GULP energy per Si atom -5567.027145 kJ/mol
# Density = 1.670337 g / cm^3
# Si number density = 16.741474 Si / 1000 Ang^3
#
#
#
# Elastic Constant Matrix: (Units=GPa)
#
#
# Indices 1 2 3 4 5 6 
#
# 1 5.3277 1.2605 7.9495 0.0000 0.0000 0.0000
# 2 1.2605 110.9310 74.3845 0.0000 0.0000 0.0000
# 3 7.9495 74.3845 185.1620 0.0000 0.0000 0.0000
# 4 0.0000 0.0000 0.0000 30.7406 0.0000 0.0000
# 5 0.0000 0.0000 0.0000 0.0000 1.9279 0.0000
# 6 0.0000 0.0000 0.0000 0.0000 0.0000 0.0845
#
#
#
# Elastic Compliance Matrix: (Units=1/GPa)
#
#
# Indices 1 2 3 4 5 6 
#
# 1 0.202418 0.004828 -0.010630 0.000000 0.000000 0.000000
# 2 0.004828 0.012453 -0.005210 0.000000 0.000000 0.000000
# 3 -0.010630 -0.005210 0.007950 0.000000 0.000000 0.000000
# 4 0.000000 0.000000 0.000000 0.032530 0.000000 0.000000
# 5 0.000000 0.000000 0.000000 0.000000 0.518712 0.000000
# 6 0.000000 0.000000 0.000000 0.000000 0.000000 11.839124
#
#
# Mechanical properties :
#
#
# Convention : Reuss Voigt Hill
#
# Bulk Modulus (GPa) = 4.98015 52.06773 28.52394
# Shear Modulus (GPa) = 0.39363 21.07232 10.73298
#
# Velocity S-wave (km/s) = 0.48542 3.55165 2.53474
# Velocity P-wave (km/s) = 1.81532 6.92730 5.06374
#
# Compressibility (1/GPa) = 0.20079714
#
# Stress axis : x y z
#
# Youngs Moduli (GPa) = 4.94027 80.29942 125.78484
#
# Poissons Ratio (x) = -0.38766 1.33706
# Poissons Ratio (y) = -0.02385 0.65535
# Poissons Ratio (z) = 0.05251 0.41837
#
# Static dielectric constant tensor:
#      x y z
#    x 1.533170 0.000000 0.000000 
#    y 0.000000 1.542560 0.000000 
#    z 0.000000 0.000000 1.653620 
# 
# From -- ./inp_files/43002.got.cif
#   From: 2010.05.17/outbox.cif.g08.bks.cpg/sg65_22_cif.got.tgz:43002.got - 2010.06.03 17:01:31.
