data_PCOD9482647
_publ_section_title
;
Structure prediction by ZEFSAII (Michael W. Deem and Ramdas Pophale) SiO2 
 PCOD9482647
Probable space group: C M M M
;
_chemical_formula_sum "Si O2"
_cell_formula_units_Z 96
_cell_length_a 22.989349
_cell_length_b 17.606719
_cell_length_c 12.488756
_cell_angle_alpha 90.000000
_cell_angle_beta 90.000000
_cell_angle_gamma 90.000000
_cell_volume 5055.036398
_symmetry_space_group_name_H-M "C M M M"
_symmetry_group_IT_number 65
_symmetry_cell_setting 'orthorhombic'
loop_
_space_group_symop_operation_xyz
x,y,z
-x,-y,z
x,-y,-z
-x,y,-z
-x,-y,-z
x,y,-z
-x,y,z
x,-y,z
1/2+x,1/2+y,z
1/2-x,1/2-y,z
1/2+x,1/2-y,-z
1/2-x,1/2+y,-z
1/2-x,1/2-y,-z
1/2+x,1/2+y,-z
1/2-x,1/2+y,z
1/2+x,1/2-y,z
loop_
_atom_site_type_symbol
_atom_site_label
_atom_site_fract_x
_atom_site_fract_y
_atom_site_fract_z
Si Si1 0.335180 0.591155 0.878814
Si Si2 0.433047 0.406992 0.720483
Si Si3 0.235442 0.334268 0.744184
Si Si4 0.110990 0.593073 0.736656
Si Si5 0.745116 0.125055 0.500000
Si Si6 0.000000 0.407795 0.878215
Si Si7 0.378200 0.412884 0.500000
Si Si8 0.612938 0.084581 0.500000
O O1 0.338052 0.500000 0.884315
O O2 0.393806 0.618365 0.819997
O O3 0.282116 0.612234 0.801582
O O4 0.328452 0.620137 0.000000
O O5 0.500000 0.383920 0.726357
O O6 0.431652 0.500000 0.720388
O O7 0.403395 0.379427 0.609871
O O8 0.250000 0.250000 0.783274
O O9 0.171244 0.366442 0.767186
O O10 0.243004 0.334415 0.615164
O O11 0.118766 0.500000 0.735655
O O12 0.058239 0.613125 0.814351
O O13 0.096705 0.618472 0.614541
O O14 0.808407 0.086689 0.500000
O O15 0.683706 0.080690 0.500000
O O16 0.000000 0.500000 0.880988
O O17 0.000000 0.380042 0.000000
O O18 0.398599 0.500000 0.500000
O O19 0.587871 0.000000 0.500000
#
# Coordination Sequence:
#
# PCOD9482647 Si02
#       8
#    16  16  16  16   8   8   8   8
#     4  10  21  36  54  77 104 140 186 228 268 315
#     4   9  17  29  48  77 108 137 173 221 273 318
#     4  11  22  36  56  81 112 144 178 222 274 329
#     4   9  18  33  55  82 110 140 177 221 269 323
#     4  10  18  31  51  76 106 143 178 214 269 328
#     4   9  18  33  55  83 109 136 174 220 273 324
#     4  10  16  25  49  79 107 136 172 221 271 321
#     4   8  15  26  46  79 110 135 169 212 264 323
#
# _framework density 18.990960999999999
#
# number of rings (size 3 to 8) (size 9 to 14) (size 15 to 20)
#    0.000    2.417    1.667    1.250    0.000    4.000 
#    0.000    5.000    1.833    0.000    0.000    0.000 
#    0.000    0.000    0.000    0.000    0.000    0.000 
#
# Total GULP energy -267329.029927 kJ/mol
# GULP energy per Si atom -5569.354790 kJ/mol
# Density = 1.894774 g / cm^3
# Si number density = 18.990961 Si / 1000 Ang^3
#
#
#
# Elastic Constant Matrix: (Units=GPa)
#
#
# Indices 1 2 3 4 5 6 
#
# 1 141.5595 15.5573 90.2958 0.0000 0.0000 0.0000
# 2 15.5573 21.3760 16.7766 0.0000 0.0000 0.0000
# 3 90.2958 16.7766 140.7076 0.0000 0.0000 0.0000
# 4 0.0000 0.0000 0.0000 -0.1467 0.0000 0.0000
# 5 0.0000 0.0000 0.0000 0.0000 6.4921 0.0000
# 6 0.0000 0.0000 0.0000 0.0000 0.0000 -1.3643
#
#
#
# Elastic Compliance Matrix: (Units=1/GPa)
#
#
# Indices 1 2 3 4 5 6 
#
# 1 0.012132 -0.003000 -0.007427 0.000000 0.000000 0.000000
# 2 -0.003000 0.052353 -0.004317 0.000000 0.000000 0.000000
# 3 -0.007427 -0.004317 0.012388 0.000000 0.000000 0.000000
# 4 0.000000 0.000000 0.000000 -6.818932 0.000000 0.000000
# 5 0.000000 0.000000 0.000000 0.000000 0.154033 0.000000
# 6 0.000000 0.000000 0.000000 0.000000 0.000000 -0.732968
#
#
# Mechanical properties :
#
#
# Convention : Reuss Voigt Hill
#
# Bulk Modulus (GPa) = 21.10428 60.98917 41.04672
# Shear Modulus (GPa) = -0.68722 13.06379 6.18829
#
# Velocity S-wave (km/s) = -0.60221 2.62562 1.80710
# Velocity P-wave (km/s) = 3.26395 6.43245 5.10048
#
# Compressibility (1/GPa) = 0.04738375
#
# Stress axis : x y z
#
# Youngs Moduli (GPa) = 82.42951 19.10120 80.72293
#
# Poissons Ratio (x) = 0.05730 0.59957
# Poissons Ratio (y) = 0.24728 0.34847
# Poissons Ratio (z) = 0.61224 0.08246
#
# Static dielectric constant tensor:
#      x y z
#    x 1.634140 0.000000 0.000000 
#    y 0.000000 1.661530 0.000000 
#    z 0.000000 0.000000 1.675960 
# 
# From -- ./inp_files/30878.got.cif
#   From: 2010.05.17/outbox.cif.g08.bks.cpg/sg65_16_cif.got.tgz:30878.got - 2010.06.03 17:01:31.
