data_PCOD9482498
_publ_section_title
;
Structure prediction by ZEFSAII (Michael W. Deem and Ramdas Pophale) SiO2 
 PCOD9482498
Probable space group: C M C A
;
_chemical_formula_sum "Si O2"
_cell_formula_units_Z 36
_cell_length_a 24.000000
_cell_length_b 12.000000
_cell_length_c 15.000000
_cell_angle_alpha 90.000000
_cell_angle_beta 90.000000
_cell_angle_gamma 90.000000
_cell_volume 4320.000000
_symmetry_space_group_name_H-M "C M C A"
_symmetry_group_IT_number 64
_symmetry_cell_setting 'orthorhombic'
loop_
_space_group_symop_operation_xyz
x,y,z
-x,1/2-y,1/2+z
x,-y,-z
-x,1/2+y,1/2-z
-x,-y,-z
x,1/2+y,1/2-z
-x,y,z
x,1/2-y,1/2+z
1/2+x,1/2+y,z
1/2-x,-y,1/2+z
1/2+x,1/2-y,-z
1/2-x,y,1/2-z
1/2-x,1/2-y,-z
1/2+x,y,1/2-z
1/2-x,1/2+y,z
1/2+x,-y,1/2+z
loop_
_atom_site_type_symbol
_atom_site_label
_atom_site_fract_x
_atom_site_fract_y
_atom_site_fract_z
Si Si1 0.139116 0.749934 0.675546
Si Si2 0.068208 0.304471 0.147206
Si Si3 0.250000 0.878101 0.250000
Si Si4 0.837569 0.004968 0.608749
Si Si5 0.066191 0.632457 0.519628
O O1 0.097502 0.741334 0.761732
O O2 0.199623 0.694706 0.703233
O O3 0.148664 0.878610 0.643330
O O4 0.107408 0.680761 0.596439
O O5 0.108006 0.412255 0.122391
O O6 0.000000 0.326681 0.156835
O O7 0.073321 0.211101 0.068466
O O8 0.214018 0.947036 0.327530
O O9 0.825843 0.000000 0.500000
O O10 0.076792 0.500000 0.500000
O O11 0.000000 0.641077 0.545426
#
# Coordination Sequence:
#
# PCOD9482498 Si02
#       5
#    16  16   8  16  16
#     4  11  23  43  63  90 125 166 207 258 311 368
#     4  10  23  40  63  95 127 163 205 252 312 377
#     4  10  26  42  62  92 124 164 216 256 312 374
#     4  11  23  44  66  94 124 163 213 264 312 365
#     4  10  22  40  63  93 125 162 202 246 311 380
#
# _framework density 8.3333329999999997
#
# number of rings (size 3 to 8) (size 9 to 14) (size 15 to 20)
#    0.000    1.556    2.222    1.333    6.222    4.000 
#    0.000    0.000    0.000    0.000    0.000    0.000 
#    0.000    0.000    0.000    0.000    0.000    0.000 
#
# Total GULP energy -200535.390523 kJ/mol
# GULP energy per Si atom -5570.427515 kJ/mol
# Density = 0.831437 g / cm^3
# Si number density = 8.333333 Si / 1000 Ang^3
#
#
#
# Elastic Constant Matrix: (Units=GPa)
#
#
# Indices 1 2 3 4 5 6 
#
# 1 168.5007 76.1601 76.0594 0.0000 0.0000 0.0000
# 2 76.1601 166.6944 72.6104 0.0000 0.0000 0.0000
# 3 76.0594 72.6104 158.4367 0.0000 0.0000 0.0000
# 4 0.0000 0.0000 0.0000 41.6750 0.0000 0.0000
# 5 0.0000 0.0000 0.0000 0.0000 47.0049 0.0000
# 6 0.0000 0.0000 0.0000 0.0000 0.0000 40.5746
#
#
#
# Elastic Compliance Matrix: (Units=1/GPa)
#
#
# Indices 1 2 3 4 5 6 
#
# 1 0.008389 -0.002597 -0.002837 0.000000 0.000000 0.000000
# 2 -0.002597 0.008299 -0.002557 0.000000 0.000000 0.000000
# 3 -0.002837 -0.002557 0.008845 0.000000 0.000000 0.000000
# 4 0.000000 0.000000 0.000000 0.023995 0.000000 0.000000
# 5 0.000000 0.000000 0.000000 0.000000 0.021274 0.000000
# 6 0.000000 0.000000 0.000000 0.000000 0.000000 0.024646
#
#
# Mechanical properties :
#
#
# Convention : Reuss Voigt Hill
#
# Bulk Modulus (GPa) = 104.69014 104.81018 104.75016
# Shear Modulus (GPa) = 43.62425 43.77103 43.69764
#
# Velocity S-wave (km/s) = 5.12166 5.13027 5.12596
# Velocity P-wave (km/s) = 9.89574 9.90533 9.90053
#
# Compressibility (1/GPa) = 0.00955200
#
# Stress axis : x y z
#
# Youngs Moduli (GPa) = 119.20134 120.49282 113.05331
#
# Poissons Ratio (x) = 0.31293 0.32074
# Poissons Ratio (y) = 0.30957 0.28905
# Poissons Ratio (z) = 0.33819 0.30807
#
# Static dielectric constant tensor:
#      x y z
#    x 1.568170 0.000000 0.000000 
#    y 0.000000 1.569950 0.000000 
#    z 0.000000 0.000000 1.582540 
# 
# From -- ./inp_files/27011.got.cif
#   From: 2010.05.17/outbox.ucp.g08.bks.cvg/sg64_14_cif.got.tgz:27011.got - 2010.06.11 16:36:46.
