data_PCOD9482238
_publ_section_title
;
Structure prediction by ZEFSAII (Michael W. Deem and Ramdas Pophale) SiO2 
 PCOD9482238
Probable space group: C M C A
;
_chemical_formula_sum "Si O2"
_cell_formula_units_Z 56
_cell_length_a 9.227319
_cell_length_b 10.294431
_cell_length_c 21.238110
_cell_angle_alpha 90.000000
_cell_angle_beta 90.000000
_cell_angle_gamma 90.000000
_cell_volume 2017.408043
_symmetry_space_group_name_H-M "C M C A"
_symmetry_group_IT_number 64
_symmetry_cell_setting 'orthorhombic'
loop_
_space_group_symop_operation_xyz
x,y,z
-x,1/2-y,1/2+z
x,-y,-z
-x,1/2+y,1/2-z
-x,-y,-z
x,1/2+y,1/2-z
-x,y,z
x,1/2-y,1/2+z
1/2+x,1/2+y,z
1/2-x,-y,1/2+z
1/2+x,1/2-y,-z
1/2-x,y,1/2-z
1/2-x,1/2-y,-z
1/2+x,y,1/2-z
1/2-x,1/2+y,z
1/2+x,-y,1/2+z
loop_
_atom_site_type_symbol
_atom_site_label
_atom_site_fract_x
_atom_site_fract_y
_atom_site_fract_z
Si Si1 0.000000 0.496521 0.703995
Si Si2 0.751381 0.412268 0.632983
Si Si3 0.000000 0.114095 0.663716
Si Si4 0.000000 0.289270 0.034200
Si Si5 0.500000 0.288214 0.102007
Si Si6 0.245144 0.000000 0.500000
O O1 0.858971 0.407783 0.692476
O O2 0.000000 0.599574 0.760759
O O3 0.000000 0.585221 0.642772
O O4 0.642199 0.530383 0.647519
O O5 0.643005 0.292176 0.622338
O O6 0.816098 0.444586 0.563591
O O7 0.000000 0.227456 0.610216
O O8 0.138654 0.382040 0.020414
O O9 0.000000 0.195115 0.973442
#
# Coordination Sequence:
#
# PCOD9482238 Si02
#       6
#     8  16   8   8   8   8
#     4  12  22  35  63  94 121 157 201 252 308 360
#     4   9  19  38  61  86 121 157 195 250 301 354
#     4   9  18  37  59  81 122 167 195 241 307 359
#     4   7  12  30  60  80 107 164 204 231 293 360
#     4   9  20  41  64  87 120 161 204 248 300 359
#     4   7  12  29  58  82 110 152 192 242 298 344
#
# _framework density 27.758391
#
# number of rings (size 3 to 8) (size 9 to 14) (size 15 to 20)
#    0.000    3.143    0.000    4.286    0.000    0.571 
#    0.000   27.143    0.000    6.857    0.000    0.000 
#    0.000    0.000    0.000    0.000    0.000    0.000 
#
# Total GULP energy -156525.761824 kJ/mol
# GULP energy per Si atom -5590.205779 kJ/mol
# Density = 2.769521 g / cm^3
# Si number density = 27.758391 Si / 1000 Ang^3
#
#
#
# Elastic Constant Matrix: (Units=GPa)
#
#
# Indices 1 2 3 4 5 6 
#
# 1 111.7269 16.3697 67.9265 0.0000 0.0000 0.0000
# 2 16.3697 45.7708 46.5233 0.0000 0.0000 0.0000
# 3 67.9265 46.5233 216.9428 0.0000 0.0000 0.0000
# 4 0.0000 0.0000 0.0000 50.8233 0.0000 0.0000
# 5 0.0000 0.0000 0.0000 0.0000 46.7316 0.0000
# 6 0.0000 0.0000 0.0000 0.0000 0.0000 31.6756
#
#
#
# Elastic Compliance Matrix: (Units=1/GPa)
#
#
# Indices 1 2 3 4 5 6 
#
# 1 0.011066 -0.000557 -0.003345 0.000000 0.000000 0.000000
# 2 -0.000557 0.027966 -0.005823 0.000000 0.000000 0.000000
# 3 -0.003345 -0.005823 0.006906 0.000000 0.000000 0.000000
# 4 0.000000 0.000000 0.000000 0.019676 0.000000 0.000000
# 5 0.000000 0.000000 0.000000 0.000000 0.021399 0.000000
# 6 0.000000 0.000000 0.000000 0.000000 0.000000 0.031570
#
#
# Mechanical properties :
#
#
# Convention : Reuss Voigt Hill
#
# Bulk Modulus (GPa) = 37.75501 70.67548 54.21524
# Shear Modulus (GPa) = 34.04560 42.08750 38.06655
#
# Velocity S-wave (km/s) = 3.50594 3.89808 3.70720
# Velocity P-wave (km/s) = 5.47902 6.76581 6.15613
#
# Compressibility (1/GPa) = 0.02648655
#
# Stress axis : x y z
#
# Youngs Moduli (GPa) = 90.36781 35.75793 144.80933
#
# Poissons Ratio (x) = 0.01993 0.48443
# Poissons Ratio (y) = 0.05037 0.84319
# Poissons Ratio (z) = 0.30231 0.20821
#
# Static dielectric constant tensor:
#      x y z
#    x 2.267240 0.000000 0.000000 
#    y 0.000000 2.164370 0.000000 
#    z 0.000000 0.000000 2.148650 
# 
# From -- ./inp_files/37688.got.cif
#   From: 2010.05.17/outbox.cif.g08.bks.cpg/sg64_19_cif.got.tgz:37688.got - 2010.06.03 16:29:19.
