data_PCOD9482796
_publ_section_title
;
Structure prediction by ZEFSAII (Michael W. Deem and Ramdas Pophale) SiO2 
 PCOD9482796
Probable space group: C M M M
;
_chemical_formula_sum "Si O2"
_cell_formula_units_Z 72
_cell_length_a 25.314281
_cell_length_b 10.454486
_cell_length_c 18.657109
_cell_angle_alpha 90.000000
_cell_angle_beta 90.000000
_cell_angle_gamma 90.000000
_cell_volume 4937.562782
_symmetry_space_group_name_H-M "C M M M"
_symmetry_group_IT_number 65
_symmetry_cell_setting 'orthorhombic'
loop_
_space_group_symop_operation_xyz
x,y,z
-x,-y,z
x,-y,-z
-x,y,-z
-x,-y,-z
x,y,-z
-x,y,z
x,-y,z
1/2+x,1/2+y,z
1/2-x,1/2-y,z
1/2+x,1/2-y,-z
1/2-x,1/2+y,-z
1/2-x,1/2-y,-z
1/2+x,1/2+y,-z
1/2-x,1/2+y,z
1/2+x,1/2-y,z
loop_
_atom_site_type_symbol
_atom_site_label
_atom_site_fract_x
_atom_site_fract_y
_atom_site_fract_z
Si Si1 0.599645 0.653087 0.322001
Si Si2 0.203502 0.851447 0.583690
Si Si3 0.564050 0.000000 0.917265
Si Si4 0.064138 0.751269 0.827569
Si Si5 0.000000 0.844989 0.418904
Si Si6 0.563928 0.500000 0.918939
O O1 0.593882 0.500000 0.306404
O O2 0.654561 0.671183 0.363344
O O3 0.591930 0.730310 0.248752
O O4 0.552130 0.690621 0.375167
O O5 0.186543 0.838712 0.500000
O O6 0.250000 0.750000 0.596126
O O7 0.220741 0.000000 0.592732
O O8 0.578744 0.874730 0.872061
O O9 0.500000 0.000000 0.921035
O O10 0.582850 0.000000 0.000000
O O11 0.078383 0.873521 0.875802
O O12 0.000000 0.751803 0.816593
O O13 0.000000 0.796148 0.500000
O O14 0.000000 0.000000 0.422472
O O15 0.500000 0.500000 0.922611
O O16 0.584145 0.500000 0.000000
#
# Coordination Sequence:
#
# PCOD9482796 Si02
#       6
#    16  16   8  16   8   8
#     4  10  17  27  45  69  97 122 152 192 232 276
#     4   9  18  33  51  69  91 121 158 199 238 272
#     4   9  18  30  42  58  89 130 167 189 214 270
#     4  10  17  27  42  63  93 126 153 189 231 267
#     4   9  16  24  40  67  96 125 153 183 223 277
#     4   9  16  24  40  62  87 120 155 183 222 274
#
# _framework density 14.582093
#
# number of rings (size 3 to 8) (size 9 to 14) (size 15 to 20)
#    0.000    2.556    2.222    1.333    0.000    5.333 
#    2.000    0.000    0.000    0.000    0.000    0.778 
#    0.000    5.333    0.000    0.000    0.000    0.000 
#
# Total GULP energy -200505.080733 kJ/mol
# GULP energy per Si atom -5569.585576 kJ/mol
# Density = 1.454890 g / cm^3
# Si number density = 14.582093 Si / 1000 Ang^3
#
#
#
# Elastic Constant Matrix: (Units=GPa)
#
#
# Indices 1 2 3 4 5 6 
#
# 1 53.9312 41.6716 52.2773 0.0000 0.0000 0.0000
# 2 41.6716 107.1107 77.0545 0.0000 0.0000 0.0000
# 3 52.2773 77.0545 153.6691 0.0000 0.0000 0.0000
# 4 0.0000 0.0000 0.0000 18.7807 0.0000 0.0000
# 5 0.0000 0.0000 0.0000 0.0000 14.6262 0.0000
# 6 0.0000 0.0000 0.0000 0.0000 0.0000 9.8909
#
#
#
# Elastic Compliance Matrix: (Units=1/GPa)
#
#
# Indices 1 2 3 4 5 6 
#
# 1 0.030621 -0.006913 -0.006951 0.000000 0.000000 0.000000
# 2 -0.006913 0.016165 -0.005754 0.000000 0.000000 0.000000
# 3 -0.006951 -0.005754 0.011757 0.000000 0.000000 0.000000
# 4 0.000000 0.000000 0.000000 0.053246 0.000000 0.000000
# 5 0.000000 0.000000 0.000000 0.000000 0.068371 0.000000
# 6 0.000000 0.000000 0.000000 0.000000 0.000000 0.101103
#
#
# Mechanical properties :
#
#
# Convention : Reuss Voigt Hill
#
# Bulk Modulus (GPa) = 51.79125 72.96865 62.37995
# Shear Modulus (GPa) = 15.29359 18.24006 16.76683
#
# Velocity S-wave (km/s) = 3.24202 3.54058 3.39458
# Velocity P-wave (km/s) = 7.04332 8.17697 7.63122
#
# Compressibility (1/GPa) = 0.01930828
#
# Stress axis : x y z
#
# Youngs Moduli (GPa) = 32.65702 61.86241 85.05365
#
# Poissons Ratio (x) = 0.42765 0.59119
# Poissons Ratio (y) = 0.22576 0.48939
# Poissons Ratio (z) = 0.22699 0.35595
#
# Static dielectric constant tensor:
#      x y z
#    x 1.451190 0.000000 0.000000 
#    y 0.000000 1.484580 0.000000 
#    z 0.000000 0.000000 1.485050 
# 
# From -- ./inp_files/51318.got.cif
#   From: 2010.05.17/outbox.cif.g08.bks.cpg/sg65_26_cif.got.tgz:51318.got - 2010.06.03 17:01:31.
