data_PCOD9482194
_publ_section_title
;
Structure prediction by ZEFSAII (Michael W. Deem and Ramdas Pophale) SiO2 
 PCOD9482194
Probable space group: C M C A
;
_chemical_formula_sum "Si O2"
_cell_formula_units_Z 72
_cell_length_a 23.073116
_cell_length_b 16.335255
_cell_length_c 8.335486
_cell_angle_alpha 90.000000
_cell_angle_beta 90.000000
_cell_angle_gamma 90.000000
_cell_volume 3141.688297
_symmetry_space_group_name_H-M "C M C A"
_symmetry_group_IT_number 64
_symmetry_cell_setting 'orthorhombic'
loop_
_space_group_symop_operation_xyz
x,y,z
-x,1/2-y,1/2+z
x,-y,-z
-x,1/2+y,1/2-z
-x,-y,-z
x,1/2+y,1/2-z
-x,y,z
x,1/2-y,1/2+z
1/2+x,1/2+y,z
1/2-x,-y,1/2+z
1/2+x,1/2-y,-z
1/2-x,y,1/2-z
1/2-x,1/2-y,-z
1/2+x,y,1/2-z
1/2-x,1/2+y,z
1/2+x,-y,1/2+z
loop_
_atom_site_type_symbol
_atom_site_label
_atom_site_fract_x
_atom_site_fract_y
_atom_site_fract_z
Si Si1 0.720767 0.087966 0.423622
Si Si2 0.000000 0.207263 0.034804
Si Si3 0.627989 0.803052 0.452162
Si Si4 0.905139 0.000000 0.500000
Si Si5 0.167992 0.143111 0.609451
Si Si6 0.500000 0.123278 0.117740
O O1 0.750000 0.079680 0.250000
O O2 0.663221 0.142736 0.419568
O O3 0.768029 0.130808 0.540091
O O4 0.707678 0.000000 0.500000
O O5 0.000000 0.173256 0.215985
O O6 0.059736 0.178549 0.952801
O O7 0.000000 0.306412 0.019727
O O8 0.636541 0.708572 0.495560
O O9 0.658912 0.821808 0.285356
O O10 0.863522 0.055782 0.606767
O O11 0.945649 0.062496 0.402528
#
# Coordination Sequence:
#
# PCOD9482194 Si02
#       6
#    16   8  16   8  16   8
#     4  12  27  47  76 112 151 193 248 316 378 442
#     4  12  26  45  78 106 154 192 254 297 367 444
#     4  12  27  46  77 109 149 198 252 303 375 451
#     4  11  26  44  76 106 154 191 250 300 388 429
#     4  12  25  49  76 108 150 193 250 309 378 445
#     4  11  26  47  74 108 149 205 243 312 364 451
#
# _framework density 22.917611999999998
#
# number of rings (size 3 to 8) (size 9 to 14) (size 15 to 20)
#    0.000    0.222    3.333    5.333    3.111    0.889 
#    0.000    1.667    0.000    0.000    0.000    0.000 
#    0.000    0.000    0.000    0.000    0.000    0.000 
#
# Total GULP energy -201657.514903 kJ/mol
# GULP energy per Si atom -5601.597636 kJ/mol
# Density = 2.286545 g / cm^3
# Si number density = 22.917612 Si / 1000 Ang^3
#
#
#
# Elastic Constant Matrix: (Units=GPa)
#
#
# Indices 1 2 3 4 5 6 
#
# 1 163.3338 51.0110 18.5022 0.0000 0.0000 0.0000
# 2 51.0110 121.9512 54.3804 0.0000 0.0000 0.0000
# 3 18.5022 54.3804 102.1770 0.0000 0.0000 0.0000
# 4 0.0000 0.0000 0.0000 20.3610 0.0000 0.0000
# 5 0.0000 0.0000 0.0000 0.0000 -1.2722 0.0000
# 6 0.0000 0.0000 0.0000 0.0000 0.0000 -4.8914
#
#
#
# Elastic Compliance Matrix: (Units=1/GPa)
#
#
# Indices 1 2 3 4 5 6 
#
# 1 0.007054 -0.003122 0.000384 0.000000 0.000000 0.000000
# 2 -0.003122 0.012133 -0.005892 0.000000 0.000000 0.000000
# 3 0.000384 -0.005892 0.012853 0.000000 0.000000 0.000000
# 4 0.000000 0.000000 0.000000 0.049113 0.000000 0.000000
# 5 0.000000 0.000000 0.000000 0.000000 -0.786022 0.000000
# 6 0.000000 0.000000 0.000000 0.000000 0.000000 -0.204439
#
#
# Mechanical properties :
#
#
# Convention : Reuss Voigt Hill
#
# Bulk Modulus (GPa) = 67.65595 70.58324 69.11960
# Shear Modulus (GPa) = -5.63622 20.41070 7.38724
#
# Velocity S-wave (km/s) = -1.56993 2.98755 1.79733
# Velocity P-wave (km/s) = 5.12828 6.53958 5.87645
#
# Compressibility (1/GPa) = 0.01478067
#
# Stress axis : x y z
#
# Youngs Moduli (GPa) = 141.76524 82.41757 77.80084
#
# Poissons Ratio (x) = 0.25730 -0.02989
# Poissons Ratio (y) = 0.44258 0.45842
# Poissons Ratio (z) = -0.05447 0.48563
#
# Static dielectric constant tensor:
#      x y z
#    x 1.876670 0.000000 0.000000 
#    y 0.000000 1.834570 0.000000 
#    z 0.000000 0.000000 1.859690 
# 
# From -- ./inp_files/9164.got.cif
#   From: 2010.05.17/outbox.cif.g08.bks.cpg/sg64_5_cif.got.tgz:9164.got - 2010.06.03 16:29:19.
