data_PCOD9482128
_publ_section_title
;
Structure prediction by ZEFSAII (Michael W. Deem and Ramdas Pophale) SiO2 
 PCOD9482128
Probable space group: C M C A
;
_chemical_formula_sum "Si O2"
_cell_formula_units_Z 88
_cell_length_a 13.227798
_cell_length_b 11.384877
_cell_length_c 25.352961
_cell_angle_alpha 90.000000
_cell_angle_beta 90.000000
_cell_angle_gamma 90.000000
_cell_volume 3818.076146
_symmetry_space_group_name_H-M "C M C A"
_symmetry_group_IT_number 64
_symmetry_cell_setting 'orthorhombic'
loop_
_space_group_symop_operation_xyz
x,y,z
-x,1/2-y,1/2+z
x,-y,-z
-x,1/2+y,1/2-z
-x,-y,-z
x,1/2+y,1/2-z
-x,y,z
x,1/2-y,1/2+z
1/2+x,1/2+y,z
1/2-x,-y,1/2+z
1/2+x,1/2-y,-z
1/2-x,y,1/2-z
1/2-x,1/2-y,-z
1/2+x,y,1/2-z
1/2-x,1/2+y,z
1/2+x,-y,1/2+z
loop_
_atom_site_type_symbol
_atom_site_label
_atom_site_fract_x
_atom_site_fract_y
_atom_site_fract_z
Si Si1 0.677426 0.944645 0.293516
Si Si2 0.500000 0.892575 0.739077
Si Si3 0.174078 0.953105 0.379779
Si Si4 0.500000 0.292609 0.984766
Si Si5 0.211640 0.874023 0.022231
Si Si6 0.000000 0.775065 0.361341
Si Si7 0.500000 0.284756 0.164893
Si Si8 0.000000 0.613919 0.071330
O O1 0.750000 0.885609 0.250000
O O2 0.752236 0.006267 0.335580
O O3 0.600454 0.859536 0.323783
O O4 0.601452 0.030970 0.263431
O O5 0.500000 0.818142 0.685158
O O6 0.500000 0.817561 0.791760
O O7 0.248675 0.883579 0.418705
O O8 0.097577 0.857989 0.355594
O O9 0.099659 0.041609 0.411125
O O10 0.595482 0.361908 0.006866
O O11 0.500000 0.161312 0.011374
O O12 0.500000 0.277330 0.921216
O O13 0.250000 0.750000 0.000000
O O14 0.247336 0.000000 0.000000
O O15 0.500000 0.230062 0.107264
#
# Coordination Sequence:
#
# PCOD9482128 Si02
#       8
#    16   8  16   8  16   8   8   8
#     4  11  25  44  70 103 136 178 230 287 361 432
#     4  11  26  43  68 100 138 177 226 292 355 430
#     4  11  25  43  70  99 140 185 240 290 355 433
#     4  12  25  45  67 102 144 184 243 297 361 425
#     4  12  26  45  70 101 139 190 242 298 361 427
#     4  11  25  43  66  98 139 183 234 288 353 419
#     4  11  24  47  72 100 142 175 231 297 356 433
#     4  11  25  45  71 102 141 189 238 297 360 427
#
# _framework density 23.048258000000001
#
# number of rings (size 3 to 8) (size 9 to 14) (size 15 to 20)
#    0.000    0.727    1.818    4.636    2.545   10.909 
#    0.000    0.000    0.000    0.000    0.000    0.000 
#    0.000    0.000    0.000    0.000    0.000    0.000 
#
# Total GULP energy -246047.743051 kJ/mol
# GULP energy per Si atom -5591.994160 kJ/mol
# Density = 2.299580 g / cm^3
# Si number density = 23.048258 Si / 1000 Ang^3
#
#
#
# Elastic Constant Matrix: (Units=GPa)
#
#
# Indices 1 2 3 4 5 6 
#
# 1 105.2673 18.9553 10.5034 0.0000 0.0000 0.0000
# 2 18.9553 75.0248 5.5499 0.0000 0.0000 0.0000
# 3 10.5034 5.5499 61.1997 0.0000 0.0000 0.0000
# 4 0.0000 0.0000 0.0000 42.0230 0.0000 0.0000
# 5 0.0000 0.0000 0.0000 0.0000 29.5185 0.0000
# 6 0.0000 0.0000 0.0000 0.0000 0.0000 -4.3936
#
#
#
# Elastic Compliance Matrix: (Units=1/GPa)
#
#
# Indices 1 2 3 4 5 6 
#
# 1 0.010089 -0.002437 -0.001511 0.000000 0.000000 0.000000
# 2 -0.002437 0.014008 -0.000852 0.000000 0.000000 0.000000
# 3 -0.001511 -0.000852 0.016676 0.000000 0.000000 0.000000
# 4 0.000000 0.000000 0.000000 0.023797 0.000000 0.000000
# 5 0.000000 0.000000 0.000000 0.000000 0.033877 0.000000
# 6 0.000000 0.000000 0.000000 0.000000 0.000000 -0.227605
#
#
# Mechanical properties :
#
#
# Convention : Reuss Voigt Hill
#
# Bulk Modulus (GPa) = 32.07829 34.61210 33.34520
# Shear Modulus (GPa) = -45.80130 27.19513 -9.30308
#
# Velocity S-wave (km/s) = -4.46263 3.43872 -2.01125
# Velocity P-wave (km/s) = 3.55040 5.55124 3.01753
#
# Compressibility (1/GPa) = 0.03117373
#
# Stress axis : x y z
#
# Youngs Moduli (GPa) = 99.11563 71.38904 59.96477
#
# Poissons Ratio (x) = 0.17400 0.09058
# Poissons Ratio (y) = 0.24158 0.05109
# Poissons Ratio (z) = 0.14972 0.06082
#
# Static dielectric constant tensor:
#      x y z
#    x 1.839310 0.000000 0.000000 
#    y 0.000000 1.875300 0.000000 
#    z 0.000000 0.000000 1.868780 
# 
# From -- ./inp_files/52696.got.cif
#   From: 2010.05.17/outbox.cif.g08.bks.cpg/sg64_27_cif.got.tgz:52696.got - 2010.06.03 16:29:19.
