data_PCOD9482338
_publ_section_title
;
Structure prediction by ZEFSAII (Michael W. Deem and Ramdas Pophale) SiO2 
 PCOD9482338
Probable space group: C M C A
;
_chemical_formula_sum "Si O2"
_cell_formula_units_Z 104
_cell_length_a 24.772893
_cell_length_b 13.512661
_cell_length_c 12.015523
_cell_angle_alpha 90.000000
_cell_angle_beta 90.000000
_cell_angle_gamma 90.000000
_cell_volume 4022.168750
_symmetry_space_group_name_H-M "C M C A"
_symmetry_group_IT_number 64
_symmetry_cell_setting 'orthorhombic'
loop_
_space_group_symop_operation_xyz
x,y,z
-x,1/2-y,1/2+z
x,-y,-z
-x,1/2+y,1/2-z
-x,-y,-z
x,1/2+y,1/2-z
-x,y,z
x,1/2-y,1/2+z
1/2+x,1/2+y,z
1/2-x,-y,1/2+z
1/2+x,1/2-y,-z
1/2-x,y,1/2-z
1/2-x,1/2-y,-z
1/2+x,y,1/2-z
1/2-x,1/2+y,z
1/2+x,-y,1/2+z
loop_
_atom_site_type_symbol
_atom_site_label
_atom_site_fract_x
_atom_site_fract_y
_atom_site_fract_z
Si Si1 0.940763 0.641810 0.832126
Si Si2 0.356283 0.824144 0.351479
Si Si3 0.558813 0.380261 0.825491
Si Si4 0.438314 0.338994 0.576147
Si Si5 0.750000 0.682804 0.750000
Si Si6 0.709699 0.496511 0.619459
Si Si7 0.328120 0.537390 0.136289
O O1 0.893918 0.627476 0.744232
O O2 0.942769 0.761717 0.837417
O O3 0.000000 0.608246 0.794107
O O4 0.931457 0.608310 0.958091
O O5 0.393788 0.747171 0.414552
O O6 0.303569 0.769198 0.300848
O O7 0.334562 0.923998 0.407735
O O8 0.500000 0.417915 0.865101
O O9 0.563307 0.398651 0.691883
O O10 0.613987 0.413283 0.882361
O O11 0.500000 0.297258 0.573744
O O12 0.725850 0.608019 0.657085
O O13 0.682276 0.500000 0.500000
O O14 0.678869 0.459926 0.728156
O O15 0.766168 0.435640 0.605162
#
# Coordination Sequence:
#
# PCOD9482338 Si02
#       7
#    16  16  16  16   8  16  16
#     4   9  18  33  51  69  93 129 163 189 231 286
#     4   9  17  33  50  66  95 126 153 196 239 279
#     4   9  18  31  46  70 103 125 150 199 239 271
#     4   9  18  33  51  69  93 129 163 189 231 286
#     4   8  18  30  44  72  96 120 160 196 230 278
#     4   8  16  32  49  66  96 130 154 188 237 283
#     4   9  19  31  50  77  95 118 161 198 234 283
#
# _framework density 25.856698000000002
#
# number of rings (size 3 to 8) (size 9 to 14) (size 15 to 20)
#    0.000    3.692    0.000    1.385    0.000    6.154 
#    0.000    6.923    0.000    6.462    0.000    0.000 
#    0.000    0.000    0.000    0.000    0.000    0.000 
#
# Total GULP energy -290162.541424 kJ/mol
# GULP energy per Si atom -5580.048874 kJ/mol
# Density = 2.579785 g / cm^3
# Si number density = 25.856698 Si / 1000 Ang^3
#
#
#
# Elastic Constant Matrix: (Units=GPa)
#
#
# Indices 1 2 3 4 5 6 
#
# 1 188.7157 27.2830 -6.3212 0.0000 0.0000 0.0000
# 2 27.2830 53.5513 -24.2241 0.0000 0.0000 0.0000
# 3 -6.3212 -24.2241 89.1555 0.0000 0.0000 0.0000
# 4 0.0000 0.0000 0.0000 0.9258 0.0000 0.0000
# 5 0.0000 0.0000 0.0000 0.0000 28.0157 0.0000
# 6 0.0000 0.0000 0.0000 0.0000 0.0000 11.7927
#
#
#
# Elastic Compliance Matrix: (Units=1/GPa)
#
#
# Indices 1 2 3 4 5 6 
#
# 1 0.005736 -0.003122 -0.000442 0.000000 0.000000 0.000000
# 2 -0.003122 0.022990 0.006025 0.000000 0.000000 0.000000
# 3 -0.000442 0.006025 0.012822 0.000000 0.000000 0.000000
# 4 0.000000 0.000000 0.000000 1.080105 0.000000 0.000000
# 5 0.000000 0.000000 0.000000 0.000000 0.035694 0.000000
# 6 0.000000 0.000000 0.000000 0.000000 0.000000 0.084798
#
#
# Mechanical properties :
#
#
# Convention : Reuss Voigt Hill
#
# Bulk Modulus (GPa) = 21.51897 36.09975 28.80936
# Shear Modulus (GPa) = 3.99134 30.45917 17.22526
#
# Velocity S-wave (km/s) = 1.24378 3.43592 2.58385
# Velocity P-wave (km/s) = 3.22539 5.45275 4.47971
#
# Compressibility (1/GPa) = 0.04647063
#
# Stress axis : x y z
#
# Youngs Moduli (GPa) = 174.35222 43.49784 77.99029
#
# Poissons Ratio (x) = 0.13579 0.03444
# Poissons Ratio (y) = 0.54430 -0.46990
# Poissons Ratio (z) = 0.07699 -0.26208
#
# Static dielectric constant tensor:
#      x y z
#    x 2.041460 0.000000 0.000000 
#    y 0.000000 2.065190 0.000000 
#    z 0.000000 0.000000 2.226870 
# 
# From -- ./inp_files/27552.got.cif
#   From: 2010.05.17/outbox.cif.g08.bks.cpg/sg64_14_cif.got.tgz:27552.got - 2010.06.03 16:29:19.
