data_PCOD9482927
_publ_section_title
;
Structure prediction by ZEFSAII (Michael W. Deem and Ramdas Pophale) SiO2 
 PCOD9482927
Probable space group: C M M M
;
_chemical_formula_sum "Si O2"
_cell_formula_units_Z 128
_cell_length_a 18.462709
_cell_length_b 20.851167
_cell_length_c 21.093473
_cell_angle_alpha 90.000000
_cell_angle_beta 90.000000
_cell_angle_gamma 90.000000
_cell_volume 8120.333811
_symmetry_space_group_name_H-M "C M M M"
_symmetry_group_IT_number 65
_symmetry_cell_setting 'orthorhombic'
loop_
_space_group_symop_operation_xyz
x,y,z
-x,-y,z
x,-y,-z
-x,y,-z
-x,-y,-z
x,y,-z
-x,y,z
x,-y,z
1/2+x,1/2+y,z
1/2-x,1/2-y,z
1/2+x,1/2-y,-z
1/2-x,1/2+y,-z
1/2-x,1/2-y,-z
1/2+x,1/2+y,-z
1/2-x,1/2+y,z
1/2+x,1/2-y,z
loop_
_atom_site_type_symbol
_atom_site_label
_atom_site_fract_x
_atom_site_fract_y
_atom_site_fract_z
Si Si1 0.916336 0.113911 0.674062
Si Si2 0.913399 0.124872 0.816741
Si Si3 0.297185 0.184223 0.069939
Si Si4 0.201876 0.926698 0.426520
Si Si5 0.694353 0.191943 0.574600
Si Si6 0.336075 0.238108 0.194921
Si Si7 0.321175 0.427072 0.928272
Si Si8 0.915603 0.730721 0.677678
O O1 0.897618 0.096231 0.746841
O O2 0.863105 0.085091 0.622291
O O3 0.910958 0.191609 0.671733
O O4 0.000000 0.096299 0.662254
O O5 0.875007 0.194248 0.819008
O O6 0.880540 0.085285 0.874561
O O7 0.000000 0.132039 0.820960
O O8 0.250000 0.250000 0.068244
O O9 0.344247 0.193627 0.132925
O O10 0.242820 0.124735 0.078711
O O11 0.332040 0.178454 0.000000
O O12 0.178380 0.916522 0.500000
O O13 0.263804 0.874450 0.413606
O O14 0.227281 0.000000 0.420945
O O15 0.676988 0.196468 0.500000
O O16 0.750000 0.250000 0.589677
O O17 0.624664 0.200442 0.617987
O O18 0.250000 0.250000 0.205771
O O19 0.372798 0.212254 0.258523
O O20 0.294234 0.500000 0.923200
O O21 0.350581 0.418417 0.000000
O O22 0.000000 0.714229 0.681947
#
# Coordination Sequence:
#
# PCOD9482927 Si02
#       8
#    16  16  16  16  16  16  16  16
#     4   9  19  33  49  71 103 138 168 200 241 291
#     4  10  20  33  47  70 103 136 169 203 239 286
#     4   9  16  29  50  73  93 123 169 213 248 283
#     4  10  21  35  51  74 103 132 165 207 249 289
#     4  10  19  33  54  77  99 128 169 210 244 287
#     4  10  17  29  52  75  95 130 166 206 252 291
#     4  10  20  33  48  70 101 135 169 204 244 292
#     4  10  20  32  50  78 107 130 160 205 254 298
#
# _framework density 15.762899000000001
#
# number of rings (size 3 to 8) (size 9 to 14) (size 15 to 20)
#    0.000    2.250    3.750    1.500    1.750    1.750 
#    0.000    3.750    0.000    1.500    0.000    1.750 
#    0.000    1.500    0.000   12.500    0.000    0.000 
#
# Total GULP energy -356611.496772 kJ/mol
# GULP energy per Si atom -5572.054637 kJ/mol
# Density = 1.572702 g / cm^3
# Si number density = 15.762899 Si / 1000 Ang^3
#
#
#
# Elastic Constant Matrix: (Units=GPa)
#
#
# Indices 1 2 3 4 5 6 
#
# 1 68.7465 32.4998 62.4574 0.0000 0.0000 0.0000
# 2 32.4998 73.1269 39.8305 0.0000 0.0000 0.0000
# 3 62.4574 39.8305 106.2316 0.0000 0.0000 0.0000
# 4 0.0000 0.0000 0.0000 10.4576 0.0000 0.0000
# 5 0.0000 0.0000 0.0000 0.0000 10.7780 0.0000
# 6 0.0000 0.0000 0.0000 0.0000 0.0000 15.9675
#
#
#
# Elastic Compliance Matrix: (Units=1/GPa)
#
#
# Indices 1 2 3 4 5 6 
#
# 1 0.032671 -0.005099 -0.017297 0.000000 0.000000 0.000000
# 2 -0.005099 0.017980 -0.003744 0.000000 0.000000 0.000000
# 3 -0.017297 -0.003744 0.020986 0.000000 0.000000 0.000000
# 4 0.000000 0.000000 0.000000 0.095624 0.000000 0.000000
# 5 0.000000 0.000000 0.000000 0.000000 0.092782 0.000000
# 6 0.000000 0.000000 0.000000 0.000000 0.000000 0.062627
#
#
# Mechanical properties :
#
#
# Convention : Reuss Voigt Hill
#
# Bulk Modulus (GPa) = 51.65550 57.52005 54.58778
# Shear Modulus (GPa) = 13.10952 14.99509 14.05231
#
# Velocity S-wave (km/s) = 2.88700 3.08765 2.98901
# Velocity P-wave (km/s) = 6.62981 7.02007 6.82773
#
# Compressibility (1/GPa) = 0.01935902
#
# Stress axis : x y z
#
# Youngs Moduli (GPa) = 30.60816 55.61725 47.64998
#
# Poissons Ratio (x) = 0.28359 0.82419
# Poissons Ratio (y) = 0.15607 0.17838
# Poissons Ratio (z) = 0.52942 0.20821
#
# Static dielectric constant tensor:
#      x y z
#    x 1.493760 0.000000 0.000000 
#    y 0.000000 1.527350 0.000000 
#    z 0.000000 0.000000 1.564610 
# 
# From -- ./inp_files/64145.got.cif
#   From: 2010.05.17/outbox.cif.g08.bks.cpg/sg65_33_cif.got.tgz:64145.got - 2010.06.03 17:01:31.
