data_PCOD9482604
_publ_section_title
;
Structure prediction by ZEFSAII (Michael W. Deem and Ramdas Pophale) SiO2 
 PCOD9482604
Probable space group: C M M M
;
_chemical_formula_sum "Si O2"
_cell_formula_units_Z 88
_cell_length_a 31.694655
_cell_length_b 25.058464
_cell_length_c 7.349760
_cell_angle_alpha 90.000000
_cell_angle_beta 90.000000
_cell_angle_gamma 90.000000
_cell_volume 5837.321766
_symmetry_space_group_name_H-M "C M M M"
_symmetry_group_IT_number 65
_symmetry_cell_setting 'orthorhombic'
loop_
_space_group_symop_operation_xyz
x,y,z
-x,-y,z
x,-y,-z
-x,y,-z
-x,-y,-z
x,y,-z
-x,y,z
x,-y,z
1/2+x,1/2+y,z
1/2-x,1/2-y,z
1/2+x,1/2-y,-z
1/2-x,1/2+y,-z
1/2-x,1/2-y,-z
1/2+x,1/2+y,-z
1/2-x,1/2+y,z
1/2+x,1/2-y,z
loop_
_atom_site_type_symbol
_atom_site_label
_atom_site_fract_x
_atom_site_fract_y
_atom_site_fract_z
Si Si1 0.837997 0.178530 0.223146
Si Si2 0.752170 0.117655 0.223194
Si Si3 0.705365 0.781628 0.212588
Si Si4 0.911635 0.893844 0.788989
Si Si5 0.859026 0.000000 0.717411
Si Si6 0.500000 0.562305 0.776738
Si Si7 0.260418 0.500000 0.209395
O O1 0.798174 0.141100 0.275278
O O2 0.827980 0.238763 0.285599
O O3 0.881471 0.152333 0.286898
O O4 0.837944 0.178784 0.000000
O O5 0.716829 0.159996 0.285441
O O6 0.746869 0.057118 0.287172
O O7 0.752106 0.117646 0.000000
O O8 0.750000 0.750000 0.220841
O O9 0.694998 0.788999 0.000000
O O10 0.957475 0.908462 0.713660
O O11 0.884004 0.947765 0.779958
O O12 0.918588 0.880197 0.000000
O O13 0.857633 0.000000 0.500000
O O14 0.811363 0.000000 0.787341
O O15 0.500000 0.500000 0.722237
O O16 0.500000 0.561752 0.000000
O O17 0.246216 0.500000 0.000000
#
# Coordination Sequence:
#
# PCOD9482604 Si02
#       7
#    16  16  16  16   8   8   8
#     4   8  12  18  32  48  62  80 100 126 155 186
#     4   8  12  17  29  48  66  80  99 127 154 184
#     4   7  10  16  25  45  69  79  91 123 159 180
#     4  10  17  28  41  50  60  81 110 134 161 196
#     4  12  22  27  33  48  67  86 106 136 167 193
#     4   9  16  24  38  54  64  76 100 137 165 187
#     4  10  16  24  37  51  64  86 111 131 158 190
#
# _framework density 15.075405999999999
#
# number of rings (size 3 to 8) (size 9 to 14) (size 15 to 20)
#    0.000    3.182    2.727    3.000    0.000    0.000 
#    0.000    0.909    0.000    0.000    0.000    2.545 
#    0.000    0.000    0.000    0.000    0.000    0.909 
#
# Total GULP energy -245035.740407 kJ/mol
# GULP energy per Si atom -5568.994100 kJ/mol
# Density = 1.504109 g / cm^3
# Si number density = 15.075406 Si / 1000 Ang^3
#
#
#
# Elastic Constant Matrix: (Units=GPa)
#
#
# Indices 1 2 3 4 5 6 
#
# 1 82.3946 69.5324 3.5232 0.0000 0.0000 0.0000
# 2 69.5324 145.8210 4.6250 0.0000 0.0000 0.0000
# 3 3.5232 4.6250 57.5430 0.0000 0.0000 0.0000
# 4 0.0000 0.0000 0.0000 -20.4387 0.0000 0.0000
# 5 0.0000 0.0000 0.0000 0.0000 -118.4185 0.0000
# 6 0.0000 0.0000 0.0000 0.0000 0.0000 19.4064
#
#
#
# Elastic Compliance Matrix: (Units=1/GPa)
#
#
# Indices 1 2 3 4 5 6 
#
# 1 0.020322 -0.009675 -0.000467 0.000000 0.000000 0.000000
# 2 -0.009675 0.011482 -0.000330 0.000000 0.000000 0.000000
# 3 -0.000467 -0.000330 0.017433 0.000000 0.000000 0.000000
# 4 0.000000 0.000000 0.000000 -0.048927 0.000000 0.000000
# 5 0.000000 0.000000 0.000000 0.000000 -0.008445 0.000000
# 6 0.000000 0.000000 0.000000 0.000000 0.000000 0.051529
#
#
# Mechanical properties :
#
#
# Convention : Reuss Voigt Hill
#
# Bulk Modulus (GPa) = 35.34548 49.01331 42.17940
# Shear Modulus (GPa) = 67.77854 -10.01829 28.88012
#
# Velocity S-wave (km/s) = 6.71247 -2.58067 4.38163
# Velocity P-wave (km/s) = 9.14183 4.86856 7.32379
#
# Compressibility (1/GPa) = 0.02829216
#
# Stress axis : x y z
#
# Youngs Moduli (GPa) = 49.20892 87.09535 57.36100
#
# Poissons Ratio (x) = 0.84266 0.02676
# Poissons Ratio (y) = 0.47611 0.01895
# Poissons Ratio (z) = 0.02296 0.02878
#
# Static dielectric constant tensor:
#      x y z
#    x 1.483120 0.000000 0.000000 
#    y 0.000000 1.532990 0.000000 
#    z 0.000000 0.000000 1.550810 
# 
# From -- ./inp_files/19021.got.cif
#   From: 2010.05.17/outbox.cif.g08.bks.cpg/sg65_10_cif.got.tgz:19021.got - 2010.06.03 17:01:31.
