data_PCOD9482120
_publ_section_title
;
Structure prediction by ZEFSAII (Michael W. Deem and Ramdas Pophale) SiO2 
 PCOD9482120
Probable space group: C M C A
;
_chemical_formula_sum "Si O2"
_cell_formula_units_Z 48
_cell_length_a 20.898614
_cell_length_b 11.042305
_cell_length_c 8.939613
_cell_angle_alpha 90.000000
_cell_angle_beta 90.000000
_cell_angle_gamma 90.000000
_cell_volume 2062.984389
_symmetry_space_group_name_H-M "C M C A"
_symmetry_group_IT_number 64
_symmetry_cell_setting 'orthorhombic'
loop_
_space_group_symop_operation_xyz
x,y,z
-x,1/2-y,1/2+z
x,-y,-z
-x,1/2+y,1/2-z
-x,-y,-z
x,1/2+y,1/2-z
-x,y,z
x,1/2-y,1/2+z
1/2+x,1/2+y,z
1/2-x,-y,1/2+z
1/2+x,1/2-y,-z
1/2-x,y,1/2-z
1/2-x,1/2-y,-z
1/2+x,y,1/2-z
1/2-x,1/2+y,z
1/2+x,-y,1/2+z
loop_
_atom_site_type_symbol
_atom_site_label
_atom_site_fract_x
_atom_site_fract_y
_atom_site_fract_z
Si Si1 0.426063 0.620659 0.895433
Si Si2 0.239701 0.589804 0.396639
Si Si3 0.351623 0.193917 0.899540
O O1 0.500000 0.639233 0.850277
O O2 0.384202 0.625697 0.740490
O O3 0.426083 0.500000 0.000000
O O4 0.402339 0.733308 0.998166
O O5 0.200830 0.500000 0.500000
O O6 0.250000 0.512447 0.250000
O O7 0.303234 0.625244 0.486808
O O8 0.196635 0.700792 0.343645
#
# Coordination Sequence:
#
# PCOD9482120 Si02
#       3
#    16  16  16
#     4  11  25  45  73 106 143 190 244 296 353 427
#     4  11  25  41  69 105 142 185 232 293 359 433
#     4  11  24  45  69 101 145 188 231 295 361 421
#
# _framework density 23.267263
#
# number of rings (size 3 to 8) (size 9 to 14) (size 15 to 20)
#    0.000    1.000    3.333    2.000    9.333    0.000 
#    0.000    0.000    0.000    8.000    0.000    0.000 
#    0.000    0.000    0.000    0.000    0.000    0.000 
#
# Total GULP energy -133825.496213 kJ/mol
# GULP energy per Si atom -5576.062342 kJ/mol
# Density = 2.321431 g / cm^3
# Si number density = 23.267263 Si / 1000 Ang^3
#
#
#
# Elastic Constant Matrix: (Units=GPa)
#
#
# Indices 1 2 3 4 5 6 
#
# 1 193.1653 39.1037 74.0709 0.0000 0.0000 0.0000
# 2 39.1037 59.9103 24.4465 0.0000 0.0000 0.0000
# 3 74.0709 24.4465 178.4052 0.0000 0.0000 0.0000
# 4 0.0000 0.0000 0.0000 41.0380 0.0000 0.0000
# 5 0.0000 0.0000 0.0000 0.0000 36.5532 0.0000
# 6 0.0000 0.0000 0.0000 0.0000 0.0000 31.0824
#
#
#
# Elastic Compliance Matrix: (Units=1/GPa)
#
#
# Indices 1 2 3 4 5 6 
#
# 1 0.006776 -0.003468 -0.002338 0.000000 0.000000 0.000000
# 2 -0.003468 0.019456 -0.001226 0.000000 0.000000 0.000000
# 3 -0.002338 -0.001226 0.006744 0.000000 0.000000 0.000000
# 4 0.000000 0.000000 0.000000 0.024368 0.000000 0.000000
# 5 0.000000 0.000000 0.000000 0.000000 0.027357 0.000000
# 6 0.000000 0.000000 0.000000 0.000000 0.000000 0.032173
#
#
# Mechanical properties :
#
#
# Convention : Reuss Voigt Hill
#
# Bulk Modulus (GPa) = 52.88018 78.52479 65.70248
# Shear Modulus (GPa) = 36.43237 41.32537 38.87887
#
# Velocity S-wave (km/s) = 3.96134 4.21897 4.09218
# Velocity P-wave (km/s) = 6.61056 7.58652 7.11529
#
# Compressibility (1/GPa) = 0.01891068
#
# Stress axis : x y z
#
# Youngs Moduli (GPa) = 147.59041 51.39873 148.28388
#
# Poissons Ratio (x) = 0.17827 0.34666
# Poissons Ratio (y) = 0.51191 0.18179
# Poissons Ratio (z) = 0.34504 0.06301
#
# Static dielectric constant tensor:
#      x y z
#    x 1.894760 0.000000 0.000000 
#    y 0.000000 2.003150 0.000000 
#    z 0.000000 0.000000 1.766870 
# 
# From -- ./inp_files/8796.got.cif
#   From: 2010.05.17/outbox.cif.g08.bks.cpg/sg64_5_cif.got.tgz:8796.got - 2010.06.03 16:29:19.
