data_PCOD9482578
_publ_section_title
;
Structure prediction by ZEFSAII (Michael W. Deem and Ramdas Pophale) SiO2 
 PCOD9482578
Probable space group: C M M M
;
_chemical_formula_sum "Si O2"
_cell_formula_units_Z 64
_cell_length_a 8.838331
_cell_length_b 25.768183
_cell_length_c 18.478079
_cell_angle_alpha 90.000000
_cell_angle_beta 90.000000
_cell_angle_gamma 90.000000
_cell_volume 4208.340559
_symmetry_space_group_name_H-M "C M M M"
_symmetry_group_IT_number 65
_symmetry_cell_setting 'orthorhombic'
loop_
_space_group_symop_operation_xyz
x,y,z
-x,-y,z
x,-y,-z
-x,y,-z
-x,-y,-z
x,y,-z
-x,y,z
x,-y,z
1/2+x,1/2+y,z
1/2-x,1/2-y,z
1/2+x,1/2-y,-z
1/2-x,1/2+y,-z
1/2-x,1/2-y,-z
1/2+x,1/2+y,-z
1/2-x,1/2+y,z
1/2+x,1/2-y,z
loop_
_atom_site_type_symbol
_atom_site_label
_atom_site_fract_x
_atom_site_fract_y
_atom_site_fract_z
Si Si1 0.326020 0.000000 0.412187
Si Si2 0.819094 0.109086 0.585023
Si Si3 0.180887 0.692069 0.145379
Si Si4 0.180737 0.307698 0.692774
Si Si5 0.819012 0.808687 0.000000
O O1 0.243637 0.053036 0.390629
O O2 0.500000 0.000000 0.388135
O O3 0.324608 0.000000 0.500000
O O4 0.779178 0.116036 0.500000
O O5 0.748727 0.154270 0.633272
O O6 0.000000 0.109582 0.590625
O O7 0.250000 0.750000 0.148892
O O8 0.211820 0.670849 0.225781
O O9 0.000000 0.694833 0.134794
O O10 0.257296 0.666981 0.074699
O O11 0.250000 0.250000 0.686542
O O12 0.000000 0.303856 0.685147
O O13 0.750000 0.750000 0.000000
O O14 0.000000 0.806090 0.000000
#
# Coordination Sequence:
#
# PCOD9482578 Si02
#       5
#     8  16  16  16   8
#     4   9  17  31  51  71  89 110 141 184 229 269
#     4  10  20  33  49  68  90 117 149 186 227 269
#     4   9  16  26  39  56  80 110 144 180 217 257
#     4  10  20  32  46  64  89 122 155 187 224 266
#     4  10  16  22  36  56  78 107 142 177 214 256
#
# _framework density 15.207894
#
# number of rings (size 3 to 8) (size 9 to 14) (size 15 to 20)
#    0.000    2.375    0.000    5.250    0.000    6.500 
#    0.000    0.000    0.000    0.000    0.000    0.000 
#    0.000    1.000    0.000   10.500    0.000    5.750 
#
# Total GULP energy -178225.859116 kJ/mol
# GULP energy per Si atom -5569.558097 kJ/mol
# Density = 1.517328 g / cm^3
# Si number density = 15.207894 Si / 1000 Ang^3
#
#
#
# Elastic Constant Matrix: (Units=GPa)
#
#
# Indices 1 2 3 4 5 6 
#
# 1 94.6138 39.1443 65.5490 0.0000 0.0000 0.0000
# 2 39.1443 72.5378 58.9138 0.0000 0.0000 0.0000
# 3 65.5490 58.9138 116.7992 0.0000 0.0000 0.0000
# 4 0.0000 0.0000 0.0000 -1.4089 0.0000 0.0000
# 5 0.0000 0.0000 0.0000 0.0000 24.1529 0.0000
# 6 0.0000 0.0000 0.0000 0.0000 0.0000 23.5654
#
#
#
# Elastic Compliance Matrix: (Units=1/GPa)
#
#
# Indices 1 2 3 4 5 6 
#
# 1 0.017555 -0.002493 -0.008595 0.000000 0.000000 0.000000
# 2 -0.002493 0.023707 -0.010559 0.000000 0.000000 0.000000
# 3 -0.008595 -0.010559 0.018711 0.000000 0.000000 0.000000
# 4 0.000000 0.000000 0.000000 -0.709754 0.000000 0.000000
# 5 0.000000 0.000000 0.000000 0.000000 0.041403 0.000000
# 6 0.000000 0.000000 0.000000 0.000000 0.000000 0.042435
#
#
# Mechanical properties :
#
#
# Convention : Reuss Voigt Hill
#
# Bulk Modulus (GPa) = 59.95137 67.90722 63.92929
# Shear Modulus (GPa) = -9.66950 17.28478 3.80764
#
# Velocity S-wave (km/s) = -2.52428 3.37496 1.58403
# Velocity P-wave (km/s) = 5.56873 7.74188 6.74342
#
# Compressibility (1/GPa) = 0.01668019
#
# Stress axis : x y z
#
# Youngs Moduli (GPa) = 56.96339 42.18197 53.44482
#
# Poissons Ratio (x) = 0.10516 0.45934
# Poissons Ratio (y) = 0.14201 0.56430
# Poissons Ratio (z) = 0.48958 0.44538
#
# Static dielectric constant tensor:
#      x y z
#    x 1.505700 0.000000 0.000000 
#    y 0.000000 1.463110 0.000000 
#    z 0.000000 0.000000 1.561530 
# 
# From -- ./inp_files/36368.got.cif
#   From: 2010.05.17/outbox.cif.g08.bks.cpg/sg65_19_cif.got.tgz:36368.got - 2010.06.03 17:01:31.
