data_PCOD9482520
_publ_section_title
;
Structure prediction by ZEFSAII (Michael W. Deem and Ramdas Pophale) SiO2 
 PCOD9482520
Probable space group: C M C A
;
_chemical_formula_sum "Si O2"
_cell_formula_units_Z 56
_cell_length_a 30.000000
_cell_length_b 12.000000
_cell_length_c 15.000000
_cell_angle_alpha 90.000000
_cell_angle_beta 90.000000
_cell_angle_gamma 90.000000
_cell_volume 5400.000000
_symmetry_space_group_name_H-M "C M C A"
_symmetry_group_IT_number 64
_symmetry_cell_setting 'orthorhombic'
loop_
_space_group_symop_operation_xyz
x,y,z
-x,1/2-y,1/2+z
x,-y,-z
-x,1/2+y,1/2-z
-x,-y,-z
x,1/2+y,1/2-z
-x,y,z
x,1/2-y,1/2+z
1/2+x,1/2+y,z
1/2-x,-y,1/2+z
1/2+x,1/2-y,-z
1/2-x,y,1/2-z
1/2-x,1/2-y,-z
1/2+x,y,1/2-z
1/2-x,1/2+y,z
1/2+x,-y,1/2+z
loop_
_atom_site_type_symbol
_atom_site_label
_atom_site_fract_x
_atom_site_fract_y
_atom_site_fract_z
Si Si1 0.818258 0.994472 0.607111
Si Si2 0.417477 0.091827 0.118247
Si Si3 0.187255 0.845394 0.230189
Si Si4 0.948697 0.852610 0.430698
Si Si5 0.602007 0.297337 0.789378
Si Si6 0.751019 0.297840 0.601698
Si Si7 0.837042 0.550028 0.398668
O O1 0.807042 0.100263 0.669938
O O2 0.821676 0.000000 0.500000
O O3 0.866812 0.949975 0.633830
O O4 0.779133 0.906715 0.617568
O O5 0.427881 0.158398 0.207647
O O6 0.445960 0.981483 0.099769
O O7 0.422554 0.158038 0.025114
O O8 0.144589 0.764747 0.243657
O O9 0.226329 0.783258 0.173361
O O10 0.176365 0.949823 0.166706
O O11 0.924149 0.785724 0.353491
O O12 0.000000 0.819940 0.442951
O O13 0.619198 0.395481 0.854775
O O14 0.750000 0.250000 0.500000
O O15 0.800534 0.350001 0.609620
O O16 0.839537 0.500000 0.500000
#
# Coordination Sequence:
#
# PCOD9482520 Si02
#       7
#    16  16  16  16  16  16  16
#     4  12  24  44  68  99 137 185 241 294 350 414
#     4  11  21  44  71 104 141 178 232 291 348 429
#     4  12  25  47  68  99 140 185 244 289 349 421
#     4  11  25  45  75 108 139 182 233 297 365 437
#     4  12  25  44  75 105 136 192 232 287 366 431
#     4  12  28  44  67  99 140 191 241 295 351 409
#     4  12  27  45  66 102 144 188 237 300 347 410
#
# _framework density 10.370369999999999
#
# number of rings (size 3 to 8) (size 9 to 14) (size 15 to 20)
#    0.000    0.286    7.143    1.286    6.000    4.571 
#    0.000    0.000    0.000    0.429    0.000    0.000 
#    0.000    0.000    0.000    0.000    0.000    0.000 
#
# Total GULP energy -312746.856435 kJ/mol
# GULP energy per Si atom -5584.765293 kJ/mol
# Density = 1.034677 g / cm^3
# Si number density = 10.370370 Si / 1000 Ang^3
#
#
#
# Elastic Constant Matrix: (Units=GPa)
#
#
# Indices 1 2 3 4 5 6 
#
# 1 62.0524 5.9438 28.3298 0.0000 0.0000 0.0000
# 2 5.9438 82.4604 53.3875 0.0000 0.0000 0.0000
# 3 28.3298 53.3875 158.8781 0.0000 0.0000 0.0000
# 4 0.0000 0.0000 0.0000 59.1563 0.0000 0.0000
# 5 0.0000 0.0000 0.0000 0.0000 14.9913 0.0000
# 6 0.0000 0.0000 0.0000 0.0000 0.0000 15.0671
#
#
#
# Elastic Compliance Matrix: (Units=1/GPa)
#
#
# Indices 1 2 3 4 5 6 
#
# 1 0.017605 0.000976 -0.003467 0.000000 0.000000 0.000000
# 2 0.000976 0.015553 -0.005400 0.000000 0.000000 0.000000
# 3 -0.003467 -0.005400 0.008727 0.000000 0.000000 0.000000
# 4 0.000000 0.000000 0.000000 0.016904 0.000000 0.000000
# 5 0.000000 0.000000 0.000000 0.000000 0.066706 0.000000
# 6 0.000000 0.000000 0.000000 0.000000 0.000000 0.066370
#
#
# Mechanical properties :
#
#
# Convention : Reuss Voigt Hill
#
# Bulk Modulus (GPa) = 38.31170 53.19036 45.75103
# Shear Modulus (GPa) = 23.11090 32.22490 27.66790
#
# Velocity S-wave (km/s) = 3.34170 3.94598 3.65634
# Velocity P-wave (km/s) = 5.77937 6.81630 6.31914
#
# Compressibility (1/GPa) = 0.02610169
#
# Stress axis : x y z
#
# Youngs Moduli (GPa) = 56.80263 64.29636 114.58740
#
# Poissons Ratio (x) = -0.06273 0.39727
# Poissons Ratio (y) = -0.05542 0.61880
# Poissons Ratio (z) = 0.19693 0.34721
#
# Static dielectric constant tensor:
#      x y z
#    x 1.776240 0.000000 0.000000 
#    y 0.000000 1.767980 0.000000 
#    z 0.000000 0.000000 1.920580 
# 
# From -- ./inp_files/28403.got.cif
#   From: 2010.05.17/outbox.ucp.g08.bks.cvg/sg64_15_cif.got.tgz:28403.got - 2010.06.11 16:36:46.
