data_PCOD9482222
_publ_section_title
;
Structure prediction by ZEFSAII (Michael W. Deem and Ramdas Pophale) SiO2 
 PCOD9482222
Probable space group: C M C A
;
_chemical_formula_sum "Si O2"
_cell_formula_units_Z 104
_cell_length_a 10.457931
_cell_length_b 13.948909
_cell_length_c 35.048057
_cell_angle_alpha 90.000000
_cell_angle_beta 90.000000
_cell_angle_gamma 90.000000
_cell_volume 5112.695873
_symmetry_space_group_name_H-M "C M C A"
_symmetry_group_IT_number 64
_symmetry_cell_setting 'orthorhombic'
loop_
_space_group_symop_operation_xyz
x,y,z
-x,1/2-y,1/2+z
x,-y,-z
-x,1/2+y,1/2-z
-x,-y,-z
x,1/2+y,1/2-z
-x,y,z
x,1/2-y,1/2+z
1/2+x,1/2+y,z
1/2-x,-y,1/2+z
1/2+x,1/2-y,-z
1/2-x,y,1/2-z
1/2-x,1/2-y,-z
1/2+x,y,1/2-z
1/2-x,1/2+y,z
1/2+x,-y,1/2+z
loop_
_atom_site_type_symbol
_atom_site_label
_atom_site_fract_x
_atom_site_fract_y
_atom_site_fract_z
Si Si1 0.854505 0.897632 0.048546
Si Si2 0.851784 0.453211 0.191797
Si Si3 0.250000 0.688014 0.750000
Si Si4 0.354441 0.370461 0.961907
Si Si5 0.352869 0.585870 0.610171
Si Si6 0.352930 0.145986 0.100034
Si Si7 0.153840 0.167847 0.314248
O O1 0.746620 0.875211 0.079415
O O2 0.000000 0.873576 0.060069
O O3 0.853517 0.013578 0.043323
O O4 0.829089 0.854264 0.006716
O O5 0.842304 0.385253 0.227991
O O6 0.800980 0.403189 0.153350
O O7 0.798051 0.560472 0.196861
O O8 0.000000 0.467605 0.182411
O O9 0.196782 0.755768 0.716833
O O10 0.500000 0.338015 0.953198
O O11 0.245540 0.332795 0.933751
O O12 0.500000 0.620915 0.605906
O O13 0.356088 0.470115 0.604583
O O14 0.500000 0.174457 0.092483
O O15 0.309196 0.183968 0.141520
O O16 0.000000 0.168029 0.313972
#
# Coordination Sequence:
#
# PCOD9482222 Si02
#       7
#    16  16   8  16  16  16  16
#     4   8  13  21  35  60  95 129 161 203 251 294
#     4   9  19  35  52  73 104 137 170 214 264 311
#     4  12  20  32  56  80  98 128 172 216 264 324
#     4   8  13  21  35  60  95 129 161 203 251 294
#     4   8  14  26  43  62  90 131 171 204 245 301
#     4   8  14  26  43  62  90 131 171 204 245 301
#     4   9  19  35  52  73 104 137 170 214 264 311
#
# _framework density 20.341518000000001
#
# number of rings (size 3 to 8) (size 9 to 14) (size 15 to 20)
#    0.000    3.385    0.000    3.692    0.000    0.615 
#    0.000    6.154    0.000    7.385    0.000    1.077 
#    0.000    0.000    0.000    0.000    0.000    0.308 
#
# Total GULP energy -289802.809637 kJ/mol
# GULP energy per Si atom -5573.130955 kJ/mol
# Density = 2.029522 g / cm^3
# Si number density = 20.341518 Si / 1000 Ang^3
#
#
#
# Elastic Constant Matrix: (Units=GPa)
#
#
# Indices 1 2 3 4 5 6 
#
# 1 58.7231 12.6548 57.4097 0.0000 0.0000 0.0000
# 2 12.6548 80.6403 31.1932 0.0000 0.0000 0.0000
# 3 57.4097 31.1932 117.0005 0.0000 0.0000 0.0000
# 4 0.0000 0.0000 0.0000 17.6347 0.0000 0.0000
# 5 0.0000 0.0000 0.0000 0.0000 28.2569 0.0000
# 6 0.0000 0.0000 0.0000 0.0000 0.0000 -48.7276
#
#
#
# Elastic Compliance Matrix: (Units=1/GPa)
#
#
# Indices 1 2 3 4 5 6 
#
# 1 0.032834 0.001204 -0.016432 0.000000 0.000000 0.000000
# 2 0.001204 0.013871 -0.004289 0.000000 0.000000 0.000000
# 3 -0.016432 -0.004289 0.017753 0.000000 0.000000 0.000000
# 4 0.000000 0.000000 0.000000 0.056706 0.000000 0.000000
# 5 0.000000 0.000000 0.000000 0.000000 0.035390 0.000000
# 6 0.000000 0.000000 0.000000 0.000000 0.000000 -0.020522
#
#
# Mechanical properties :
#
#
# Convention : Reuss Voigt Hill
#
# Bulk Modulus (GPa) = 39.33275 50.98657 45.15966
# Shear Modulus (GPa) = 27.24202 9.77322 18.50762
#
# Velocity S-wave (km/s) = 3.66352 2.19431 3.01964
# Velocity P-wave (km/s) = 6.10519 5.61602 5.86571
#
# Compressibility (1/GPa) = 0.02542411
#
# Stress axis : x y z
#
# Youngs Moduli (GPa) = 30.45623 72.09393 56.32819
#
# Poissons Ratio (x) = -0.08677 0.92558
# Poissons Ratio (y) = -0.03666 0.24157
# Poissons Ratio (z) = 0.50045 0.30918
#
# Static dielectric constant tensor:
#      x y z
#    x 1.714380 0.000000 0.000000 
#    y 0.000000 1.774750 0.000000 
#    z 0.000000 0.000000 1.731380 
# 
# From -- ./inp_files/52855.got.cif
#   From: 2010.05.17/outbox.cif.g08.bks.cpg/sg64_27_cif.got.tgz:52855.got - 2010.06.03 16:29:19.
