data_PCOD9482052
_publ_section_title
;
Structure prediction by ZEFSAII (Michael W. Deem and Ramdas Pophale) SiO2 
 PCOD9482052
Probable space group: C M C A
;
_chemical_formula_sum "Si O2"
_cell_formula_units_Z 88
_cell_length_a 23.526380
_cell_length_b 12.465496
_cell_length_c 15.617858
_cell_angle_alpha 90.000000
_cell_angle_beta 90.000000
_cell_angle_gamma 90.000000
_cell_volume 4580.217914
_symmetry_space_group_name_H-M "C M C A"
_symmetry_group_IT_number 64
_symmetry_cell_setting 'orthorhombic'
loop_
_space_group_symop_operation_xyz
x,y,z
-x,1/2-y,1/2+z
x,-y,-z
-x,1/2+y,1/2-z
-x,-y,-z
x,1/2+y,1/2-z
-x,y,z
x,1/2-y,1/2+z
1/2+x,1/2+y,z
1/2-x,-y,1/2+z
1/2+x,1/2-y,-z
1/2-x,y,1/2-z
1/2-x,1/2-y,-z
1/2+x,y,1/2-z
1/2-x,1/2+y,z
1/2+x,-y,1/2+z
loop_
_atom_site_type_symbol
_atom_site_label
_atom_site_fract_x
_atom_site_fract_y
_atom_site_fract_z
Si Si1 0.000000 0.072897 0.832631
Si Si2 0.907707 0.204206 0.550225
Si Si3 0.779479 0.860296 0.482304
Si Si4 0.890506 0.049077 0.093558
Si Si5 0.000000 0.549690 0.866341
Si Si6 0.500000 0.702468 0.409106
Si Si7 0.234531 0.010497 0.150049
O O1 0.000000 0.045627 0.734286
O O2 0.000000 0.202484 0.840095
O O3 0.055269 0.017179 0.873926
O O4 0.846522 0.154226 0.530773
O O5 0.902119 0.322866 0.591414
O O6 0.945643 0.117853 0.601575
O O7 0.943813 0.223998 0.464647
O O8 0.750000 0.750000 0.500000
O O9 0.752032 0.897120 0.391429
O O10 0.765002 0.923181 0.571432
O O11 0.832745 0.029859 0.145094
O O12 0.877868 0.000000 0.000000
O O13 0.000000 0.425294 0.893898
O O14 0.250000 0.025225 0.250000
#
# Coordination Sequence:
#
# PCOD9482052 Si02
#       7
#     8  16  16  16   8   8  16
#     4  12  27  42  73  98 138 181 228 294 345 403
#     4  11  23  45  71  95 135 186 231 280 348 419
#     4  11  23  45  69  97 140 186 226 280 353 412
#     4  12  22  47  70 100 134 181 240 283 344 421
#     4  11  29  44  62 109 138 176 230 290 347 419
#     4  11  25  43  69  96 136 181 228 277 351 412
#     4  11  26  43  69 106 141 181 231 288 346 421
#
# _framework density 19.213059999999999
#
# number of rings (size 3 to 8) (size 9 to 14) (size 15 to 20)
#    0.000    0.727    5.455    2.455   10.182    0.727 
#    0.000    0.000    0.000    0.000    0.000    0.000 
#    0.000    0.000    0.000    0.000    0.000    0.000 
#
# Total GULP energy -245183.004072 kJ/mol
# GULP energy per Si atom -5572.341002 kJ/mol
# Density = 1.916933 g / cm^3
# Si number density = 19.213060 Si / 1000 Ang^3
#
#
#
# Elastic Constant Matrix: (Units=GPa)
#
#
# Indices 1 2 3 4 5 6 
#
# 1 164.8763 55.9411 53.6966 0.0000 0.0000 0.0000
# 2 55.9411 91.4131 23.2818 0.0000 0.0000 0.0000
# 3 53.6966 23.2818 117.9371 0.0000 0.0000 0.0000
# 4 0.0000 0.0000 0.0000 3.1614 0.0000 0.0000
# 5 0.0000 0.0000 0.0000 0.0000 518.6829 0.0000
# 6 0.0000 0.0000 0.0000 0.0000 0.0000 -33.4825
#
#
#
# Elastic Compliance Matrix: (Units=1/GPa)
#
#
# Indices 1 2 3 4 5 6 
#
# 1 0.008565 -0.004473 -0.003017 0.000000 0.000000 0.000000
# 2 -0.004473 0.013855 -0.000698 0.000000 0.000000 0.000000
# 3 -0.003017 -0.000698 0.009990 0.000000 0.000000 0.000000
# 4 0.000000 0.000000 0.000000 0.316318 0.000000 0.000000
# 5 0.000000 0.000000 0.000000 0.000000 0.001928 0.000000
# 6 0.000000 0.000000 0.000000 0.000000 0.000000 -0.029866
#
#
# Mechanical properties :
#
#
# Convention : Reuss Voigt Hill
#
# Bulk Modulus (GPa) = 62.36842 71.11839 66.74341
# Shear Modulus (GPa) = 14.59804 113.75947 64.17876
#
# Velocity S-wave (km/s) = 2.75943 7.70312 5.78586
# Velocity P-wave (km/s) = 6.53334 10.78023 8.91341
#
# Compressibility (1/GPa) = 0.01603376
#
# Stress axis : x y z
#
# Youngs Moduli (GPa) = 116.74858 72.17754 100.09538
#
# Poissons Ratio (x) = 0.32288 0.30196
# Poissons Ratio (y) = 0.52226 0.06990
# Poissons Ratio (z) = 0.35220 0.05040
#
# Static dielectric constant tensor:
#      x y z
#    x 1.174920 0.000000 0.000000 
#    y 0.000000 1.772150 0.000000 
#    z 0.000000 0.000000 1.651910 
# 
# From -- ./inp_files/27213.got.cif
#   From: 2010.05.17/outbox.cif.g08.bks.cpg/sg64_14_cif.got.tgz:27213.got - 2010.06.03 16:29:19.
