data_PCOD9482884
_publ_section_title
;
Structure prediction by ZEFSAII (Michael W. Deem and Ramdas Pophale) SiO2 
 PCOD9482884
Probable space group: C M M M
;
_chemical_formula_sum "Si O2"
_cell_formula_units_Z 96
_cell_length_a 21.334665
_cell_length_b 14.594152
_cell_length_c 14.952123
_cell_angle_alpha 90.000000
_cell_angle_beta 90.000000
_cell_angle_gamma 90.000000
_cell_volume 4655.513111
_symmetry_space_group_name_H-M "C M M M"
_symmetry_group_IT_number 65
_symmetry_cell_setting 'orthorhombic'
loop_
_space_group_symop_operation_xyz
x,y,z
-x,-y,z
x,-y,-z
-x,y,-z
-x,-y,-z
x,y,-z
-x,y,z
x,-y,z
1/2+x,1/2+y,z
1/2-x,1/2-y,z
1/2+x,1/2-y,-z
1/2-x,1/2+y,-z
1/2-x,1/2-y,-z
1/2+x,1/2+y,-z
1/2-x,1/2+y,z
1/2+x,1/2-y,z
loop_
_atom_site_type_symbol
_atom_site_label
_atom_site_fract_x
_atom_site_fract_y
_atom_site_fract_z
Si Si1 0.886570 0.105517 0.401039
Si Si2 0.570827 0.111918 0.102614
Si Si3 0.808171 0.112095 0.102275
Si Si4 0.687675 0.108706 0.213669
Si Si5 0.241267 0.358491 0.598477
Si Si6 0.430310 0.387871 0.210975
O O1 0.897424 0.147328 0.500000
O O2 0.811473 0.103850 0.385847
O O3 0.917494 0.145992 0.312363
O O4 0.907990 0.000000 0.406080
O O5 0.500000 0.141491 0.123871
O O6 0.623989 0.145068 0.170286
O O7 0.570212 0.000000 0.104317
O O8 0.585776 0.137744 0.000000
O O9 0.749683 0.143026 0.162531
O O10 0.873761 0.139939 0.146730
O O11 0.807638 0.000000 0.101879
O O12 0.802209 0.142501 0.000000
O O13 0.696633 0.121158 0.319031
O O14 0.686932 0.000000 0.197497
O O15 0.220085 0.389560 0.500000
O O16 0.250000 0.250000 0.595720
O O17 0.500000 0.362331 0.181110
O O18 0.428065 0.500000 0.214323
#
# Coordination Sequence:
#
# PCOD9482884 Si02
#       6
#    16  16  16  16  16  16
#     4   9  16  28  46  66  89 116 149 190 232 271
#     4   8  14  25  44  74 106 128 150 186 232 279
#     4   9  16  25  39  63  93 122 153 188 223 261
#     4  10  17  28  49  73  96 122 155 193 231 272
#     4  10  20  32  47  68  94 121 152 192 236 281
#     4   9  16  25  38  61  92 121 149 184 226 268
#
# _framework density 20.620712999999999
#
# number of rings (size 3 to 8) (size 9 to 14) (size 15 to 20)
#    0.000    2.833    1.667    1.500    0.000    3.667 
#    0.000    3.333    0.000    3.500    0.000    4.667 
#    0.000    0.000    0.000    0.000    0.000    0.000 
#
# Total GULP energy -267819.848164 kJ/mol
# GULP energy per Si atom -5579.580170 kJ/mol
# Density = 2.057378 g / cm^3
# Si number density = 20.620713 Si / 1000 Ang^3
#
#
#
# Elastic Constant Matrix: (Units=GPa)
#
#
# Indices 1 2 3 4 5 6 
#
# 1 145.3772 -1.3308 100.1895 0.0000 0.0000 0.0000
# 2 -1.3308 49.0294 -2.5538 0.0000 0.0000 0.0000
# 3 100.1895 -2.5538 146.8934 0.0000 0.0000 0.0000
# 4 0.0000 0.0000 0.0000 16.6746 0.0000 0.0000
# 5 0.0000 0.0000 0.0000 0.0000 70.6989 0.0000
# 6 0.0000 0.0000 0.0000 0.0000 0.0000 -14.3969
#
#
#
# Elastic Compliance Matrix: (Units=1/GPa)
#
#
# Indices 1 2 3 4 5 6 
#
# 1 0.012980 -0.000109 -0.008855 0.000000 0.000000 0.000000
# 2 -0.000109 0.020415 0.000429 0.000000 0.000000 0.000000
# 3 -0.008855 0.000429 0.012855 0.000000 0.000000 0.000000
# 4 0.000000 0.000000 0.000000 0.059971 0.000000 0.000000
# 5 0.000000 0.000000 0.000000 0.000000 0.014144 0.000000
# 6 0.000000 0.000000 0.000000 0.000000 0.000000 -0.069459
#
#
# Mechanical properties :
#
#
# Convention : Reuss Voigt Hill
#
# Bulk Modulus (GPa) = 34.26922 59.32331 46.79627
# Shear Modulus (GPa) = 64.34667 30.92833 47.63750
#
# Velocity S-wave (km/s) = 5.59219 3.87701 4.81164
# Velocity P-wave (km/s) = 7.63883 6.99092 7.32204
#
# Compressibility (1/GPa) = 0.02918070
#
# Stress axis : x y z
#
# Youngs Moduli (GPa) = 77.03884 48.98284 77.79117
#
# Poissons Ratio (x) = 0.00533 0.68886
# Poissons Ratio (y) = 0.00839 -0.03339
# Poissons Ratio (z) = 0.68220 -0.02102
#
# Static dielectric constant tensor:
#      x y z
#    x 1.727780 0.000000 0.000000 
#    y 0.000000 1.778560 0.000000 
#    z 0.000000 0.000000 1.748970 
# 
# From -- ./inp_files/44534.got.cif
#   From: 2010.05.17/outbox.cif.g08.bks.cpg/sg65_23_cif.got.tgz:44534.got - 2010.06.03 17:01:31.
