data_PCOD9482249
_publ_section_title
;
Structure prediction by ZEFSAII (Michael W. Deem and Ramdas Pophale) SiO2 
 PCOD9482249
Probable space group: C M C A
;
_chemical_formula_sum "Si O2"
_cell_formula_units_Z 48
_cell_length_a 14.341487
_cell_length_b 9.747312
_cell_length_c 16.493930
_cell_angle_alpha 90.000000
_cell_angle_beta 90.000000
_cell_angle_gamma 90.000000
_cell_volume 2305.702116
_symmetry_space_group_name_H-M "C M C A"
_symmetry_group_IT_number 64
_symmetry_cell_setting 'orthorhombic'
loop_
_space_group_symop_operation_xyz
x,y,z
-x,1/2-y,1/2+z
x,-y,-z
-x,1/2+y,1/2-z
-x,-y,-z
x,1/2+y,1/2-z
-x,y,z
x,1/2-y,1/2+z
1/2+x,1/2+y,z
1/2-x,-y,1/2+z
1/2+x,1/2-y,-z
1/2-x,y,1/2-z
1/2-x,1/2-y,-z
1/2+x,y,1/2-z
1/2-x,1/2+y,z
1/2+x,-y,1/2+z
loop_
_atom_site_type_symbol
_atom_site_label
_atom_site_fract_x
_atom_site_fract_y
_atom_site_fract_z
Si Si1 0.299881 0.025925 0.835135
Si Si2 0.000000 0.835147 0.994650
Si Si3 0.500000 0.567776 0.407731
Si Si4 0.196584 0.201297 0.079125
O O1 0.250000 0.992851 0.750000
O O2 0.290582 0.187538 0.850522
O O3 0.406090 0.976747 0.858055
O O4 0.235481 0.946021 0.898682
O O5 0.910157 0.798598 0.943514
O O6 0.000000 0.732719 0.072986
O O7 0.000000 0.000000 0.000000
O O8 0.500000 0.500000 0.500000
O O9 0.250000 0.250000 0.000000
#
# Coordination Sequence:
#
# PCOD9482249 Si02
#       4
#    16   8   8  16
#     4  12  26  44  69 108 148 190 234 312 378 428
#     4  12  24  41  74 112 132 188 267 304 343 430
#     4  12  22  49  76 104 145 200 249 293 367 456
#     4  12  23  44  71 103 142 192 255 296 357 451
#
# _framework density 20.817952999999999
#
# number of rings (size 3 to 8) (size 9 to 14) (size 15 to 20)
#    0.000    0.000    6.667    4.000    0.000    1.333 
#    0.000    6.667    0.000    0.000    0.000    0.000 
#    0.000    0.000    0.000    0.000    0.000    0.000 
#
# Total GULP energy -133984.428767 kJ/mol
# GULP energy per Si atom -5582.684532 kJ/mol
# Density = 2.077057 g / cm^3
# Si number density = 20.817953 Si / 1000 Ang^3
#
#
#
# Elastic Constant Matrix: (Units=GPa)
#
#
# Indices 1 2 3 4 5 6 
#
# 1 179.2613 10.0303 48.6719 0.0000 0.0000 0.0000
# 2 10.0303 106.6720 13.0499 0.0000 0.0000 0.0000
# 3 48.6719 13.0499 100.9362 0.0000 0.0000 0.0000
# 4 0.0000 0.0000 0.0000 38.0039 0.0000 0.0000
# 5 0.0000 0.0000 0.0000 0.0000 37.4586 0.0000
# 6 0.0000 0.0000 0.0000 0.0000 0.0000 23.8801
#
#
#
# Elastic Compliance Matrix: (Units=1/GPa)
#
#
# Indices 1 2 3 4 5 6 
#
# 1 0.006424 -0.000229 -0.003068 0.000000 0.000000 0.000000
# 2 -0.000229 0.009533 -0.001122 0.000000 0.000000 0.000000
# 3 -0.003068 -0.001122 0.011532 0.000000 0.000000 0.000000
# 4 0.000000 0.000000 0.000000 0.026313 0.000000 0.000000
# 5 0.000000 0.000000 0.000000 0.000000 0.026696 0.000000
# 6 0.000000 0.000000 0.000000 0.000000 0.000000 0.041876
#
#
# Mechanical properties :
#
#
# Convention : Reuss Voigt Hill
#
# Bulk Modulus (GPa) = 53.61632 58.93041 56.27336
# Shear Modulus (GPa) = 36.38211 40.87633 38.62922
#
# Velocity S-wave (km/s) = 4.18500 4.43596 4.31231
# Velocity P-wave (km/s) = 7.01164 7.38958 7.20309
#
# Compressibility (1/GPa) = 0.01865104
#
# Stress axis : x y z
#
# Youngs Moduli (GPa) = 155.65836 104.89514 86.71613
#
# Poissons Ratio (x) = 0.02399 0.26607
# Poissons Ratio (y) = 0.03560 0.09732
# Poissons Ratio (z) = 0.47760 0.11772
#
# Static dielectric constant tensor:
#      x y z
#    x 1.709900 0.000000 0.000000 
#    y 0.000000 1.785660 0.000000 
#    z 0.000000 0.000000 1.734390 
# 
# From -- ./inp_files/31447.got.cif
#   From: 2010.05.17/outbox.cif.g08.bks.cpg/sg64_16_cif.got.tgz:31447.got - 2010.06.03 16:29:19.
