data_PCOD9482389
_publ_section_title
;
Structure prediction by ZEFSAII (Michael W. Deem and Ramdas Pophale) SiO2 
 PCOD9482389
Probable space group: C M C A
;
_chemical_formula_sum "Si O2"
_cell_formula_units_Z 60
_cell_length_a 24.000000
_cell_length_b 12.000000
_cell_length_c 21.000000
_cell_angle_alpha 90.000000
_cell_angle_beta 90.000000
_cell_angle_gamma 90.000000
_cell_volume 6048.000000
_symmetry_space_group_name_H-M "C M C A"
_symmetry_group_IT_number 64
_symmetry_cell_setting 'orthorhombic'
loop_
_space_group_symop_operation_xyz
x,y,z
-x,1/2-y,1/2+z
x,-y,-z
-x,1/2+y,1/2-z
-x,-y,-z
x,1/2+y,1/2-z
-x,y,z
x,1/2-y,1/2+z
1/2+x,1/2+y,z
1/2-x,-y,1/2+z
1/2+x,1/2-y,-z
1/2-x,y,1/2-z
1/2-x,1/2-y,-z
1/2+x,y,1/2-z
1/2-x,1/2+y,z
1/2+x,-y,1/2+z
loop_
_atom_site_type_symbol
_atom_site_label
_atom_site_fract_x
_atom_site_fract_y
_atom_site_fract_z
Si Si1 0.563417 0.468141 0.162708
Si Si2 0.667726 0.730418 0.634554
Si Si3 0.665180 0.440730 0.778371
Si Si4 0.630123 0.143984 0.562256
Si Si5 0.274941 0.326838 0.561499
Si Si6 0.935665 0.181848 0.066998
Si Si7 0.778048 0.503857 0.836609
Si Si8 0.214014 0.500000 0.500000
O O1 0.500000 0.446847 0.181426
O O2 0.606080 0.499373 0.218451
O O3 0.592275 0.368502 0.124041
O O4 0.563697 0.573256 0.113217
O O5 0.720969 0.772467 0.594309
O O6 0.610318 0.732173 0.594917
O O7 0.687749 0.616322 0.664661
O O8 0.659763 0.824463 0.686892
O O9 0.714338 0.512284 0.813110
O O10 0.690866 0.419641 0.710191
O O11 0.670880 0.250982 0.561871
O O12 0.589287 0.149138 0.501567
O O13 0.669320 0.033088 0.555367
O O14 0.283358 0.444557 0.596815
O O15 0.249191 0.385362 0.499298
O O16 0.000000 0.220344 0.062701
#
# Coordination Sequence:
#
# PCOD9482389 Si02
#       8
#    16  16  16  16  16  16  16   8
#     4  10  19  35  58  83 110 140 187 241 280 316
#     4  10  19  37  55  78 112 143 179 226 274 335
#     4   9  20  36  55  85 106 139 183 229 275 330
#     4  12  20  33  54  83 117 142 182 233 277 333
#     4  11  23  32  53  85 115 146 183 220 282 336
#     4  10  20  34  53  78 107 148 187 223 273 329
#     4  10  21  36  57  81 115 146 177 222 284 339
#     4  12  20  34  51  84 117 150 182 232 280 328
#
# _framework density 9.9206350000000008
#
# number of rings (size 3 to 8) (size 9 to 14) (size 15 to 20)
#    0.000    1.600    2.667    4.000    1.867    6.400 
#    0.000    0.667    0.000    7.200    0.000    0.000 
#    0.000    0.000    0.000    0.000    0.000    0.000 
#
# Total GULP energy -334044.130894 kJ/mol
# GULP energy per Si atom -5567.402182 kJ/mol
# Density = 0.989806 g / cm^3
# Si number density = 9.920635 Si / 1000 Ang^3
#
#
#
# Elastic Constant Matrix: (Units=GPa)
#
#
# Indices 1 2 3 4 5 6 
#
# 1 117.5578 14.3906 -15.7583 0.0000 0.0000 0.0000
# 2 14.3906 26.3604 -23.8065 0.0000 0.0000 0.0000
# 3 -15.7583 -23.8065 2.4662 0.0000 0.0000 0.0000
# 4 0.0000 0.0000 0.0000 11.3393 0.0000 0.0000
# 5 0.0000 0.0000 0.0000 0.0000 23.1218 0.0000
# 6 0.0000 0.0000 0.0000 0.0000 0.0000 37.0529
#
#
#
# Elastic Compliance Matrix: (Units=1/GPa)
#
#
# Indices 1 2 3 4 5 6 
#
# 1 0.009082 -0.006148 -0.001318 0.000000 0.000000 0.000000
# 2 -0.006148 -0.000753 -0.046556 0.000000 0.000000 0.000000
# 3 -0.001318 -0.046556 -0.052347 0.000000 0.000000 0.000000
# 4 0.000000 0.000000 0.000000 0.088189 0.000000 0.000000
# 5 0.000000 0.000000 0.000000 0.000000 0.043249 0.000000
# 6 0.000000 0.000000 0.000000 0.000000 0.000000 0.026988
#
#
# Mechanical properties :
#
#
# Convention : Reuss Voigt Hill
#
# Bulk Modulus (GPa) = -6.57627 10.67069 2.04721
# Shear Modulus (GPa) = 29.10929 25.74002 27.42465
#
# Velocity S-wave (km/s) = 3.83444 3.60571 3.72183
# Velocity P-wave (km/s) = 4.03513 4.76703 4.41627
#
# Compressibility (1/GPa) = -0.15206195
#
# Stress axis : x y z
#
# Youngs Moduli (GPa) = 110.10244 -1327.85747 -19.10334
#
# Poissons Ratio (x) = -8.16430 -0.02518
# Poissons Ratio (y) = 0.67696 -0.88937
# Poissons Ratio (z) = 0.14510 -61.81956
#
# Static dielectric constant tensor:
#      x y z
#    x 1.688630 0.000000 0.000000 
#    y 0.000000 1.733270 0.000000 
#    z 0.000000 0.000000 2.157650 
# 
# From -- ./inp_files/41580.got.cif
#   From: 2010.05.17/outbox.ucp.g08.bks.cvg/sg64_21_cif.got.tgz:41580.got - 2010.06.11 16:36:46.
