data_PCOD9482914
_publ_section_title
;
Structure prediction by ZEFSAII (Michael W. Deem and Ramdas Pophale) SiO2 
 PCOD9482914
Probable space group: C M M M
;
_chemical_formula_sum "Si O2"
_cell_formula_units_Z 92
_cell_length_a 24.621717
_cell_length_b 8.288996
_cell_length_c 27.062878
_cell_angle_alpha 90.000000
_cell_angle_beta 90.000000
_cell_angle_gamma 90.000000
_cell_volume 5523.244198
_symmetry_space_group_name_H-M "C M M M"
_symmetry_group_IT_number 65
_symmetry_cell_setting 'orthorhombic'
loop_
_space_group_symop_operation_xyz
x,y,z
-x,-y,z
x,-y,-z
-x,y,-z
-x,-y,-z
x,y,-z
-x,y,z
x,-y,z
1/2+x,1/2+y,z
1/2-x,1/2-y,z
1/2+x,1/2-y,-z
1/2-x,1/2+y,-z
1/2-x,1/2-y,-z
1/2+x,1/2+y,-z
1/2-x,1/2+y,z
1/2+x,1/2-y,z
loop_
_atom_site_type_symbol
_atom_site_label
_atom_site_fract_x
_atom_site_fract_y
_atom_site_fract_z
Si Si1 0.066189 0.500000 0.442600
Si Si2 0.000000 0.684493 0.114493
Si Si3 0.500000 0.745934 0.000000
Si Si4 0.689330 0.809048 0.907008
Si Si5 0.434012 0.680950 0.383121
Si Si6 0.374262 0.680182 0.000000
Si Si7 0.606507 0.802223 0.829629
Si Si8 0.064326 0.693467 0.275665
O O1 0.081680 0.500000 0.500000
O O2 0.084188 0.665377 0.415601
O O3 0.000000 0.500000 0.440228
O O4 0.054931 0.755376 0.137596
O O5 0.000000 0.500000 0.132228
O O6 0.000000 0.679189 0.055186
O O7 0.560502 0.671763 0.000000
O O8 0.750000 0.750000 0.915762
O O9 0.649148 0.766462 0.951816
O O10 0.660809 0.745650 0.857042
O O11 0.692083 0.000000 0.903613
O O12 0.500000 0.681019 0.385683
O O13 0.415997 0.500000 0.397739
O O14 0.420240 0.717209 0.325999
O O15 0.351756 0.500000 0.000000
O O16 0.596820 0.755728 0.773071
O O17 0.607004 0.000000 0.830405
O O18 0.070555 0.500000 0.283111
O O19 0.000000 0.720823 0.266224
#
# Coordination Sequence:
#
# PCOD9482914 Si02
#       8
#     8   8   4  16  16   8  16  16
#     4   9  16  26  38  54  80 120 168 210 246 280
#     4  10  17  29  49  80 101 118 153 195 242 302
#     4  12  22  34  56  74 107 132 143 190 257 312
#     4  11  23  40  58  75  95 125 165 205 241 293
#     4   9  16  25  37  57  84 117 158 202 248 293
#     4  12  25  40  56  76 100 127 154 191 249 304
#     4   9  17  29  50  75  96 120 156 196 242 296
#     4   9  14  24  44  65  89 118 147 192 245 293
#
# _framework density 16.656877000000001
#
# number of rings (size 3 to 8) (size 9 to 14) (size 15 to 20)
#    0.000    2.174    3.478    1.304    0.000    1.043 
#    0.000    3.478    0.000    0.000    0.000    0.000 
#    0.000    0.000    0.000    0.000    0.000    0.870 
#
# Total GULP energy -256153.908674 kJ/mol
# GULP energy per Si atom -5568.563232 kJ/mol
# Density = 1.661897 g / cm^3
# Si number density = 16.656877 Si / 1000 Ang^3
#
#
#
# Elastic Constant Matrix: (Units=GPa)
#
#
# Indices 1 2 3 4 5 6 
#
# 1 66.5508 21.1954 27.3885 0.0000 0.0000 0.0000
# 2 21.1954 67.7530 46.0727 0.0000 0.0000 0.0000
# 3 27.3885 46.0727 112.1467 0.0000 0.0000 0.0000
# 4 0.0000 0.0000 0.0000 7.4733 0.0000 0.0000
# 5 0.0000 0.0000 0.0000 0.0000 6.3340 0.0000
# 6 0.0000 0.0000 0.0000 0.0000 0.0000 3.3071
#
#
#
# Elastic Compliance Matrix: (Units=1/GPa)
#
#
# Indices 1 2 3 4 5 6 
#
# 1 0.017290 -0.003521 -0.002776 0.000000 0.000000 0.000000
# 2 -0.003521 0.021198 -0.007849 0.000000 0.000000 0.000000
# 3 -0.002776 -0.007849 0.012819 0.000000 0.000000 0.000000
# 4 0.000000 0.000000 0.000000 0.133810 0.000000 0.000000
# 5 0.000000 0.000000 0.000000 0.000000 0.157879 0.000000
# 6 0.000000 0.000000 0.000000 0.000000 0.000000 0.302376
#
#
# Mechanical properties :
#
#
# Convention : Reuss Voigt Hill
#
# Bulk Modulus (GPa) = 43.44878 48.41820 45.93349
# Shear Modulus (GPa) = 7.33851 13.54247 10.44049
#
# Velocity S-wave (km/s) = 2.10125 2.85445 2.50631
# Velocity P-wave (km/s) = 5.65935 6.32416 6.00097
#
# Compressibility (1/GPa) = 0.02301561
#
# Stress axis : x y z
#
# Youngs Moduli (GPa) = 57.83693 47.17347 78.00706
#
# Poissons Ratio (x) = 0.16611 0.21654
# Poissons Ratio (y) = 0.20366 0.61227
# Poissons Ratio (z) = 0.16055 0.37026
#
# Static dielectric constant tensor:
#      x y z
#    x 1.540020 0.000000 0.000000 
#    y 0.000000 1.608140 0.000000 
#    z 0.000000 0.000000 1.549000 
# 
# From -- ./inp_files/75765.got.cif
#   From: 2010.05.17/outbox.cif.g08.bks.cpg/sg65_38_cif.got.tgz:75765.got - 2010.06.03 17:01:31.
