data_PCOD9482191
_publ_section_title
;
Structure prediction by ZEFSAII (Michael W. Deem and Ramdas Pophale) SiO2 
 PCOD9482191
Probable space group: C M C A
;
_chemical_formula_sum "Si O2"
_cell_formula_units_Z 56
_cell_length_a 19.058312
_cell_length_b 5.004140
_cell_length_c 24.072308
_cell_angle_alpha 90.000000
_cell_angle_beta 90.000000
_cell_angle_gamma 90.000000
_cell_volume 2295.787121
_symmetry_space_group_name_H-M "C M C A"
_symmetry_group_IT_number 64
_symmetry_cell_setting 'orthorhombic'
loop_
_space_group_symop_operation_xyz
x,y,z
-x,1/2-y,1/2+z
x,-y,-z
-x,1/2+y,1/2-z
-x,-y,-z
x,1/2+y,1/2-z
-x,y,z
x,1/2-y,1/2+z
1/2+x,1/2+y,z
1/2-x,-y,1/2+z
1/2+x,1/2-y,-z
1/2-x,y,1/2-z
1/2-x,1/2-y,-z
1/2+x,y,1/2-z
1/2-x,1/2+y,z
1/2+x,-y,1/2+z
loop_
_atom_site_type_symbol
_atom_site_label
_atom_site_fract_x
_atom_site_fract_y
_atom_site_fract_z
Si Si1 0.919087 0.204685 0.891152
Si Si2 0.584751 0.461646 0.281951
Si Si3 0.702529 0.804745 0.589950
Si Si4 0.131932 0.000000 0.500000
O O1 0.910039 0.362547 0.949524
O O2 0.000000 0.118977 0.884671
O O3 0.901302 0.407493 0.841297
O O4 0.867691 0.951889 0.889076
O O5 0.610812 0.671582 0.235511
O O6 0.500000 0.444365 0.278608
O O7 0.737188 0.519473 0.604239
O O8 0.679283 0.730407 0.527100
#
# Coordination Sequence:
#
# PCOD9482191 Si02
#       4
#    16  16  16   8
#     4  11  26  43  71 107 142 177 228 296 357 406
#     4   9  20  40  66  95 130 175 228 281 340 412
#     4  12  26  47  69  97 136 189 234 270 329 419
#     4  12  25  42  72 102 147 184 232 282 345 418
#
# _framework density 24.392506000000001
#
# number of rings (size 3 to 8) (size 9 to 14) (size 15 to 20)
#    0.000    1.143    2.857    2.143    4.000    3.429 
#    0.000    0.000    0.000    5.143    0.000    0.000 
#    0.000    0.000    0.000    0.000    0.000    0.000 
#
# Total GULP energy -156397.760976 kJ/mol
# GULP energy per Si atom -5585.634321 kJ/mol
# Density = 2.433699 g / cm^3
# Si number density = 24.392506 Si / 1000 Ang^3
#
#
#
# Elastic Constant Matrix: (Units=GPa)
#
#
# Indices 1 2 3 4 5 6 
#
# 1 124.5145 25.0258 28.1093 0.0000 0.0000 0.0000
# 2 25.0258 140.0408 22.8574 0.0000 0.0000 0.0000
# 3 28.1093 22.8574 110.4163 0.0000 0.0000 0.0000
# 4 0.0000 0.0000 0.0000 40.4078 0.0000 0.0000
# 5 0.0000 0.0000 0.0000 0.0000 11.7269 0.0000
# 6 0.0000 0.0000 0.0000 0.0000 0.0000 19.6052
#
#
#
# Elastic Compliance Matrix: (Units=1/GPa)
#
#
# Indices 1 2 3 4 5 6 
#
# 1 0.008724 -0.001238 -0.001964 0.000000 0.000000 0.000000
# 2 -0.001238 0.007566 -0.001251 0.000000 0.000000 0.000000
# 3 -0.001964 -0.001251 0.009816 0.000000 0.000000 0.000000
# 4 0.000000 0.000000 0.000000 0.024748 0.000000 0.000000
# 5 0.000000 0.000000 0.000000 0.000000 0.085274 0.000000
# 6 0.000000 0.000000 0.000000 0.000000 0.000000 0.051007
#
#
# Mechanical properties :
#
#
# Convention : Reuss Voigt Hill
#
# Bulk Modulus (GPa) = 58.14661 58.55072 58.34866
# Shear Modulus (GPa) = 24.78010 34.27989 29.52999
#
# Velocity S-wave (km/s) = 3.19076 3.75286 3.48317
# Velocity P-wave (km/s) = 6.12080 6.54479 6.33635
#
# Compressibility (1/GPa) = 0.01719791
#
# Stress axis : x y z
#
# Youngs Moduli (GPa) = 114.63211 132.16564 101.87733
#
# Poissons Ratio (x) = 0.16366 0.20013
# Poissons Ratio (y) = 0.14195 0.12745
# Poissons Ratio (z) = 0.22519 0.16535
#
# Static dielectric constant tensor:
#      x y z
#    x 1.951920 0.000000 0.000000 
#    y 0.000000 1.952740 0.000000 
#    z 0.000000 0.000000 2.009640 
# 
# From -- ./inp_files/46078.got.cif
#   From: 2010.05.17/outbox.cif.g08.bks.cpg/sg64_24_cif.got.tgz:46078.got - 2010.06.03 16:29:19.
