data_PCOD9482102
_publ_section_title
;
Structure prediction by ZEFSAII (Michael W. Deem and Ramdas Pophale) SiO2 
 PCOD9482102
Probable space group: C M C A
;
_chemical_formula_sum "Si O2"
_cell_formula_units_Z 64
_cell_length_a 10.241538
_cell_length_b 32.620610
_cell_length_c 9.681344
_cell_angle_alpha 90.000000
_cell_angle_beta 90.000000
_cell_angle_gamma 90.000000
_cell_volume 3234.393910
_symmetry_space_group_name_H-M "C M C A"
_symmetry_group_IT_number 64
_symmetry_cell_setting 'orthorhombic'
loop_
_space_group_symop_operation_xyz
x,y,z
-x,1/2-y,1/2+z
x,-y,-z
-x,1/2+y,1/2-z
-x,-y,-z
x,1/2+y,1/2-z
-x,y,z
x,1/2-y,1/2+z
1/2+x,1/2+y,z
1/2-x,-y,1/2+z
1/2+x,1/2-y,-z
1/2-x,y,1/2-z
1/2-x,1/2-y,-z
1/2+x,y,1/2-z
1/2-x,1/2+y,z
1/2+x,-y,1/2+z
loop_
_atom_site_type_symbol
_atom_site_label
_atom_site_fract_x
_atom_site_fract_y
_atom_site_fract_z
Si Si1 0.750000 0.607563 0.250000
Si Si2 0.250000 0.586786 0.750000
Si Si3 0.000000 0.290633 0.368793
Si Si4 0.000000 0.557177 0.139334
Si Si5 0.500000 0.461760 0.311655
Si Si6 0.237836 0.155096 0.980464
Si Si7 0.500000 0.706792 0.539487
O O1 0.869950 0.580615 0.190769
O O2 0.801285 0.636595 0.372528
O O3 0.374750 0.558007 0.759095
O O4 0.261656 0.616789 0.620104
O O5 0.873327 0.316678 0.413297
O O6 0.000000 0.284386 0.203947
O O7 0.000000 0.248082 0.450819
O O8 0.000000 0.510686 0.195143
O O9 0.000000 0.552179 0.972913
O O10 0.371154 0.180552 0.993288
#
# Coordination Sequence:
#
# PCOD9482102 Si02
#       7
#     8   8   8   8   8  16   8
#     4  12  25  44  69  98 136 174 224 274 335 392
#     4  12  21  46  69  98 124 184 220 274 321 394
#     4  12  26  44  66  99 130 172 219 269 332 397
#     4  11  24  45  62 104 138 173 216 282 330 400
#     4  11  24  42  71  95 139 175 220 274 340 386
#     4  12  25  43  69  94 132 170 223 270 321 397
#     4  12  26  45  67  96 135 170 217 273 332 391
#
# _framework density 19.787324000000002
#
# number of rings (size 3 to 8) (size 9 to 14) (size 15 to 20)
#    0.000    0.250    5.000    4.500    3.500    0.000 
#    0.000    1.250    0.000    0.000    0.000    0.000 
#    0.000    0.000    0.000    0.000    0.000    0.000 
#
# Total GULP energy -179124.808357 kJ/mol
# GULP energy per Si atom -5597.650261 kJ/mol
# Density = 1.974229 g / cm^3
# Si number density = 19.787324 Si / 1000 Ang^3
#
#
#
# Elastic Constant Matrix: (Units=GPa)
#
#
# Indices 1 2 3 4 5 6 
#
# 1 124.4710 45.7054 -25.5023 0.0000 0.0000 0.0000
# 2 45.7054 122.9467 31.8196 0.0000 0.0000 0.0000
# 3 -25.5023 31.8196 63.4768 0.0000 0.0000 0.0000
# 4 0.0000 0.0000 0.0000 24.7558 0.0000 0.0000
# 5 0.0000 0.0000 0.0000 0.0000 20.5261 0.0000
# 6 0.0000 0.0000 0.0000 0.0000 0.0000 23.2088
#
#
#
# Elastic Compliance Matrix: (Units=1/GPa)
#
#
# Indices 1 2 3 4 5 6 
#
# 1 0.012158 -0.006646 0.008216 0.000000 0.000000 0.000000
# 2 -0.006646 0.012979 -0.009176 0.000000 0.000000 0.000000
# 3 0.008216 -0.009176 0.023654 0.000000 0.000000 0.000000
# 4 0.000000 0.000000 0.000000 0.040395 0.000000 0.000000
# 5 0.000000 0.000000 0.000000 0.000000 0.048718 0.000000
# 6 0.000000 0.000000 0.000000 0.000000 0.000000 0.043087
#
#
# Mechanical properties :
#
#
# Convention : Reuss Voigt Hill
#
# Bulk Modulus (GPa) = 29.78069 46.10440 37.94255
# Shear Modulus (GPa) = 24.10838 30.95628 27.53233
#
# Velocity S-wave (km/s) = 3.49431 3.95960 3.73421
# Velocity P-wave (km/s) = 5.60030 6.65246 6.14892
#
# Compressibility (1/GPa) = 0.03357881
#
# Stress axis : x y z
#
# Youngs Moduli (GPa) = 82.25227 77.04673 42.27527
#
# Poissons Ratio (x) = 0.51205 -0.34733
# Poissons Ratio (y) = 0.54665 0.38793
# Poissons Ratio (z) = -0.67578 0.70700
#
# Static dielectric constant tensor:
#      x y z
#    x 1.637350 0.000000 0.000000 
#    y 0.000000 1.657400 0.000000 
#    z 0.000000 0.000000 1.713160 
# 
# From -- ./inp_files/4690.got.cif
#   From: 2010.05.17/outbox.cif.g08.bks.cpg/sg64_3_cif.got.tgz:4690.got - 2010.06.03 16:29:19.
