data_PCOD9482985
_publ_section_title
;
Structure prediction by ZEFSAII (Michael W. Deem and Ramdas Pophale) SiO2 
 PCOD9482985
Probable space group: C M M M
;
_chemical_formula_sum "Si O2"
_cell_formula_units_Z 80
_cell_length_a 15.076256
_cell_length_b 22.446285
_cell_length_c 13.318644
_cell_angle_alpha 90.000000
_cell_angle_beta 90.000000
_cell_angle_gamma 90.000000
_cell_volume 4507.108228
_symmetry_space_group_name_H-M "C M M M"
_symmetry_group_IT_number 65
_symmetry_cell_setting 'orthorhombic'
loop_
_space_group_symop_operation_xyz
x,y,z
-x,-y,z
x,-y,-z
-x,y,-z
-x,-y,-z
x,y,-z
-x,y,z
x,-y,z
1/2+x,1/2+y,z
1/2-x,1/2-y,z
1/2+x,1/2-y,-z
1/2-x,1/2+y,-z
1/2-x,1/2-y,-z
1/2+x,1/2+y,-z
1/2-x,1/2+y,z
1/2+x,1/2-y,z
loop_
_atom_site_type_symbol
_atom_site_label
_atom_site_fract_x
_atom_site_fract_y
_atom_site_fract_z
Si Si1 0.143129 0.755255 0.218358
Si Si2 0.104410 0.896236 0.220932
Si Si3 0.395128 0.396828 0.000000
Si Si4 0.254489 0.432008 0.383573
Si Si5 0.856533 0.244247 0.000000
Si Si6 0.599022 0.839070 0.616573
O O1 0.250000 0.750000 0.222210
O O2 0.115777 0.824343 0.225470
O O3 0.113031 0.731954 0.108061
O O4 0.106589 0.716380 0.308879
O O5 0.137242 0.917027 0.109721
O O6 0.163990 0.922544 0.308728
O O7 0.000000 0.910274 0.230608
O O8 0.381061 0.325514 0.000000
O O9 0.500000 0.408765 0.000000
O O10 0.280691 0.421588 0.500000
O O11 0.222900 0.500000 0.375901
O O12 0.175714 0.386228 0.359010
O O13 0.750000 0.250000 0.000000
O O14 0.610942 0.820704 0.500000
O O15 0.500000 0.865055 0.625341
#
# Coordination Sequence:
#
# PCOD9482985 Si02
#       6
#    16  16   8  16   8  16
#     4  10  17  31  53  80 111 138 167 205 253 308
#     4  10  19  33  54  80 109 139 168 205 254 307
#     4   8  16  30  49  73 103 137 171 202 239 297
#     4  10  22  39  56  74  98 133 177 220 261 305
#     4   8  16  26  46  76 105 138 168 197 242 302
#     4  10  21  36  54  77 104 135 173 216 260 307
#
# _framework density 17.749739999999999
#
# number of rings (size 3 to 8) (size 9 to 14) (size 15 to 20)
#    0.000    2.400    2.000    0.600    0.000    3.200 
#    0.000    3.500    0.000    1.800    0.000    0.000 
#    0.000    3.200    0.000    0.000    0.000    0.000 
#
# Total GULP energy -222880.314424 kJ/mol
# GULP energy per Si atom -5572.007861 kJ/mol
# Density = 1.770934 g / cm^3
# Si number density = 17.749740 Si / 1000 Ang^3
#
#
#
# Elastic Constant Matrix: (Units=GPa)
#
#
# Indices 1 2 3 4 5 6 
#
# 1 64.1469 2.2492 35.6561 0.0000 0.0000 0.0000
# 2 2.2492 36.8750 29.9888 0.0000 0.0000 0.0000
# 3 35.6561 29.9888 100.0025 0.0000 0.0000 0.0000
# 4 0.0000 0.0000 0.0000 8.4287 0.0000 0.0000
# 5 0.0000 0.0000 0.0000 0.0000 13.3139 0.0000
# 6 0.0000 0.0000 0.0000 0.0000 0.0000 -18.2409
#
#
#
# Elastic Compliance Matrix: (Units=1/GPa)
#
#
# Indices 1 2 3 4 5 6 
#
# 1 0.020460 0.006196 -0.009153 0.000000 0.000000 0.000000
# 2 0.006196 0.037742 -0.013527 0.000000 0.000000 0.000000
# 3 -0.009153 -0.013527 0.017320 0.000000 0.000000 0.000000
# 4 0.000000 0.000000 0.000000 0.118642 0.000000 0.000000
# 5 0.000000 0.000000 0.000000 0.000000 0.075110 0.000000
# 6 0.000000 0.000000 0.000000 0.000000 0.000000 -0.054822
#
#
# Mechanical properties :
#
#
# Convention : Reuss Voigt Hill
#
# Bulk Modulus (GPa) = 23.50036 37.42360 30.46198
# Shear Modulus (GPa) = 19.11285 9.57568 14.34427
#
# Velocity S-wave (km/s) = 3.28502 2.32520 2.84586
# Velocity P-wave (km/s) = 5.25899 5.32339 5.29129
#
# Compressibility (1/GPa) = 0.04255255
#
# Stress axis : x y z
#
# Youngs Moduli (GPa) = 48.87671 26.49587 57.73754
#
# Poissons Ratio (x) = -0.16416 0.52847
# Poissons Ratio (y) = -0.30283 0.78102
# Poissons Ratio (z) = 0.44736 0.35841
#
# Static dielectric constant tensor:
#      x y z
#    x 1.603630 0.000000 0.000000 
#    y 0.000000 1.581370 0.000000 
#    z 0.000000 0.000000 1.644460 
# 
# From -- ./inp_files/24671.got.cif
#   From: 2010.05.17/outbox.cif.g08.bks.cpg/sg65_13_cif.got.tgz:24671.got - 2010.06.03 17:01:31.
