data_PCOD9482055
_publ_section_title
;
Structure prediction by ZEFSAII (Michael W. Deem and Ramdas Pophale) SiO2 
 PCOD9482055
Probable space group: C M C A
;
_chemical_formula_sum "Si O2"
_cell_formula_units_Z 68
_cell_length_a 17.011137
_cell_length_b 10.568652
_cell_length_c 18.459142
_cell_angle_alpha 90.000000
_cell_angle_beta 90.000000
_cell_angle_gamma 90.000000
_cell_volume 3318.672914
_symmetry_space_group_name_H-M "C M C A"
_symmetry_group_IT_number 64
_symmetry_cell_setting 'orthorhombic'
loop_
_space_group_symop_operation_xyz
x,y,z
-x,1/2-y,1/2+z
x,-y,-z
-x,1/2+y,1/2-z
-x,-y,-z
x,1/2+y,1/2-z
-x,y,z
x,1/2-y,1/2+z
1/2+x,1/2+y,z
1/2-x,-y,1/2+z
1/2+x,1/2-y,-z
1/2-x,y,1/2-z
1/2-x,1/2-y,-z
1/2+x,y,1/2-z
1/2-x,1/2+y,z
1/2+x,-y,1/2+z
loop_
_atom_site_type_symbol
_atom_site_label
_atom_site_fract_x
_atom_site_fract_y
_atom_site_fract_z
Si Si1 0.642238 0.677746 0.454573
Si Si2 0.820902 0.604970 0.442086
Si Si3 0.500000 0.000000 0.000000
Si Si4 0.340064 0.953768 0.724296
Si Si5 0.907425 0.716278 0.693524
O O1 0.725907 0.610632 0.443107
O O2 0.648808 0.760958 0.527522
O O3 0.569459 0.584108 0.460000
O O4 0.629756 0.769868 0.386185
O O5 0.846748 0.500000 0.500000
O O6 0.846810 0.576232 0.361011
O O7 0.250000 0.943326 0.750000
O O8 0.388877 0.848195 0.766903
O O9 0.369473 0.097062 0.734670
O O10 0.000000 0.695560 0.687825
#
# Coordination Sequence:
#
# PCOD9482055 Si02
#       5
#    16  16   4  16  16
#     4  11  24  42  73 102 142 180 229 290 352 421
#     4  11  23  45  72 103 134 185 238 285 338 419
#     4  12  24  44  66 112 140 178 226 296 362 414
#     4  12  26  46  74 103 137 189 239 290 345 426
#     4  12  26  47  68 104 146 183 228 292 362 419
#
# _framework density 20.490119
#
# number of rings (size 3 to 8) (size 9 to 14) (size 15 to 20)
#    0.000    0.471    7.059    1.412    0.000    1.882 
#    8.471    1.765    0.000    0.000    0.000    0.000 
#    0.000    0.000    0.000    0.000    0.000    0.000 
#
# Total GULP energy -189636.804160 kJ/mol
# GULP energy per Si atom -5577.553064 kJ/mol
# Density = 2.044348 g / cm^3
# Si number density = 20.490119 Si / 1000 Ang^3
#
#
#
# Elastic Constant Matrix: (Units=GPa)
#
#
# Indices 1 2 3 4 5 6 
#
# 1 24.1878 -6.7487 4.7429 0.0000 0.0000 0.0000
# 2 -6.7487 66.8755 11.5239 0.0000 0.0000 0.0000
# 3 4.7429 11.5239 79.6933 0.0000 0.0000 0.0000
# 4 0.0000 0.0000 0.0000 39.9666 0.0000 0.0000
# 5 0.0000 0.0000 0.0000 0.0000 8.3377 0.0000
# 6 0.0000 0.0000 0.0000 0.0000 0.0000 19.2898
#
#
#
# Elastic Compliance Matrix: (Units=1/GPa)
#
#
# Indices 1 2 3 4 5 6 
#
# 1 0.043369 0.004945 -0.003296 0.000000 0.000000 0.000000
# 2 0.004945 0.015899 -0.002593 0.000000 0.000000 0.000000
# 3 -0.003296 -0.002593 0.013119 0.000000 0.000000 0.000000
# 4 0.000000 0.000000 0.000000 0.025021 0.000000 0.000000
# 5 0.000000 0.000000 0.000000 0.000000 0.119938 0.000000
# 6 0.000000 0.000000 0.000000 0.000000 0.000000 0.051841
#
#
# Mechanical properties :
#
#
# Convention : Reuss Voigt Hill
#
# Bulk Modulus (GPa) = 14.18487 21.08808 17.63648
# Shear Modulus (GPa) = 16.97357 24.26804 20.62081
#
# Velocity S-wave (km/s) = 2.88128 3.44521 3.17579
# Velocity P-wave (km/s) = 4.24345 5.11274 4.69824
#
# Compressibility (1/GPa) = 0.07049765
#
# Stress axis : x y z
#
# Youngs Moduli (GPa) = 23.05793 62.89692 76.22373
#
# Poissons Ratio (x) = -0.31100 0.25124
# Poissons Ratio (y) = -0.11401 0.19767
# Poissons Ratio (z) = 0.07600 0.16311
#
# Static dielectric constant tensor:
#      x y z
#    x 1.675550 0.000000 0.000000 
#    y 0.000000 1.766880 0.000000 
#    z 0.000000 0.000000 1.726930 
# 
# From -- ./inp_files/38895.got.cif
#   From: 2010.05.17/outbox.cif.g08.bks.cpg/sg64_20_cif.got.tgz:38895.got - 2010.06.03 16:29:19.
