data_PCOD9482670
_publ_section_title
;
Structure prediction by ZEFSAII (Michael W. Deem and Ramdas Pophale) SiO2 
 PCOD9482670
Probable space group: C M M M
;
_chemical_formula_sum "Si O2"
_cell_formula_units_Z 64
_cell_length_a 20.679844
_cell_length_b 16.794835
_cell_length_c 11.003297
_cell_angle_alpha 90.000000
_cell_angle_beta 90.000000
_cell_angle_gamma 90.000000
_cell_volume 3821.605342
_symmetry_space_group_name_H-M "C M M M"
_symmetry_group_IT_number 65
_symmetry_cell_setting 'orthorhombic'
loop_
_space_group_symop_operation_xyz
x,y,z
-x,-y,z
x,-y,-z
-x,y,-z
-x,-y,-z
x,y,-z
-x,y,z
x,-y,z
1/2+x,1/2+y,z
1/2-x,1/2-y,z
1/2+x,1/2-y,-z
1/2-x,1/2+y,-z
1/2-x,1/2-y,-z
1/2+x,1/2+y,-z
1/2-x,1/2+y,z
1/2+x,1/2-y,z
loop_
_atom_site_type_symbol
_atom_site_label
_atom_site_fract_x
_atom_site_fract_y
_atom_site_fract_z
Si Si1 0.387034 0.094702 0.733240
Si Si2 0.614041 0.903540 0.000000
Si Si3 0.739887 0.345048 0.747854
Si Si4 0.427652 0.194573 0.500000
Si Si5 0.733876 0.594765 0.000000
Si Si6 0.690593 0.685988 0.500000
O O1 0.412149 0.120752 0.867639
O O2 0.309913 0.113172 0.733586
O O3 0.416681 0.141131 0.620153
O O4 0.396994 0.000000 0.720773
O O5 0.690004 0.880617 0.000000
O O6 0.611606 0.000000 0.000000
O O7 0.750000 0.250000 0.758113
O O8 0.699971 0.360782 0.625310
O O9 0.707517 0.373306 0.872837
O O10 0.500000 0.226245 0.500000
O O11 0.374331 0.263324 0.500000
O O12 0.731583 0.500000 0.000000
O O13 0.750000 0.750000 0.500000
#
# Coordination Sequence:
#
# PCOD9482670 Si02
#       6
#    16   8  16   8   8   8
#     4  10  18  31  49  73 102 135 169 206 243 288
#     4   7  14  27  44  64  94 126 160 197 235 277
#     4  10  16  29  51  70  99 137 169 202 248 290
#     4  12  23  35  48  70 102 137 174 212 245 291
#     4   9  17  27  43  79 108 120 151 208 258 303
#     4  10  18  34  50  71  95 129 174 214 246 286
#
# _framework density 16.746887999999998
#
# number of rings (size 3 to 8) (size 9 to 14) (size 15 to 20)
#    0.000    2.250    5.000    3.000    0.000    1.000 
#    0.000    2.500    0.000    2.250    0.000    0.000 
#    0.000    9.000    0.000    0.000    0.000    0.000 
#
# Total GULP energy -178220.423507 kJ/mol
# GULP energy per Si atom -5569.388235 kJ/mol
# Density = 1.670877 g / cm^3
# Si number density = 16.746888 Si / 1000 Ang^3
#
#
#
# Elastic Constant Matrix: (Units=GPa)
#
#
# Indices 1 2 3 4 5 6 
#
# 1 62.1679 4.3015 30.2541 0.0000 0.0000 0.0000
# 2 4.3015 14.3477 26.0875 0.0000 0.0000 0.0000
# 3 30.2541 26.0875 201.4051 0.0000 0.0000 0.0000
# 4 0.0000 0.0000 0.0000 25.2144 0.0000 0.0000
# 5 0.0000 0.0000 0.0000 0.0000 9.2031 0.0000
# 6 0.0000 0.0000 0.0000 0.0000 0.0000 7.1096
#
#
#
# Elastic Compliance Matrix: (Units=1/GPa)
#
#
# Indices 1 2 3 4 5 6 
#
# 1 0.017358 -0.000606 -0.002529 0.000000 0.000000 0.000000
# 2 -0.000606 0.091190 -0.011721 0.000000 0.000000 0.000000
# 3 -0.002529 -0.011721 0.006863 0.000000 0.000000 0.000000
# 4 0.000000 0.000000 0.000000 0.039660 0.000000 0.000000
# 5 0.000000 0.000000 0.000000 0.000000 0.108659 0.000000
# 6 0.000000 0.000000 0.000000 0.000000 0.000000 0.140656
#
#
# Mechanical properties :
#
#
# Convention : Reuss Voigt Hill
#
# Bulk Modulus (GPa) = 11.66855 44.35633 28.01244
# Shear Modulus (GPa) = 10.80700 22.79058 16.79879
#
# Velocity S-wave (km/s) = 2.54306 3.69302 3.17061
# Velocity P-wave (km/s) = 3.95039 6.68792 5.49245
#
# Compressibility (1/GPa) = 0.08570048
#
# Stress axis : x y z
#
# Youngs Moduli (GPa) = 57.60990 10.96613 145.70556
#
# Poissons Ratio (x) = 0.00664 0.36849
# Poissons Ratio (y) = 0.03489 1.70776
# Poissons Ratio (z) = 0.14570 0.12853
#
# Static dielectric constant tensor:
#      x y z
#    x 1.554680 0.000000 0.000000 
#    y 0.000000 1.543640 0.000000 
#    z 0.000000 0.000000 1.656450 
# 
# From -- ./inp_files/26154.got.cif
#   From: 2010.05.17/outbox.cif.g08.bks.cpg/sg65_14_cif.got.tgz:26154.got - 2010.06.03 17:01:31.
