data_PCOD9482583
_publ_section_title
;
Structure prediction by ZEFSAII (Michael W. Deem and Ramdas Pophale) SiO2 
 PCOD9482583
Probable space group: C M M M
;
_chemical_formula_sum "Si O2"
_cell_formula_units_Z 72
_cell_length_a 8.660160
_cell_length_b 23.980589
_cell_length_c 21.485070
_cell_angle_alpha 90.000000
_cell_angle_beta 90.000000
_cell_angle_gamma 90.000000
_cell_volume 4461.927760
_symmetry_space_group_name_H-M "C M M M"
_symmetry_group_IT_number 65
_symmetry_cell_setting 'orthorhombic'
loop_
_space_group_symop_operation_xyz
x,y,z
-x,-y,z
x,-y,-z
-x,y,-z
-x,-y,-z
x,y,-z
-x,y,z
x,-y,z
1/2+x,1/2+y,z
1/2-x,1/2-y,z
1/2+x,1/2-y,-z
1/2-x,1/2+y,-z
1/2-x,1/2-y,-z
1/2+x,1/2+y,-z
1/2-x,1/2+y,z
1/2+x,1/2-y,z
loop_
_atom_site_type_symbol
_atom_site_label
_atom_site_fract_x
_atom_site_fract_y
_atom_site_fract_z
Si Si1 0.316330 0.313490 0.000000
Si Si2 0.685887 0.379184 0.382066
Si Si3 0.184737 0.687721 0.500000
Si Si4 0.685167 0.813110 0.734422
Si Si5 0.184512 0.687073 0.873245
Si Si6 0.812333 0.000000 0.572231
O O1 0.250000 0.250000 0.000000
O O2 0.256457 0.339568 0.064674
O O3 0.500000 0.310867 0.000000
O O4 0.500000 0.376410 0.383926
O O5 0.753169 0.343873 0.439273
O O6 0.745572 0.352305 0.318448
O O7 0.734510 0.443274 0.393456
O O8 0.250000 0.750000 0.500000
O O9 0.000000 0.688594 0.500000
O O10 0.500000 0.810271 0.728513
O O11 0.750000 0.750000 0.727932
O O12 0.721607 0.835107 0.804290
O O13 0.250000 0.750000 0.871259
O O14 0.000000 0.688954 0.880350
O O15 0.759969 0.000000 0.500000
O O16 0.000000 0.000000 0.570378
#
# Coordination Sequence:
#
# PCOD9482583 Si02
#       6
#     8  16   8  16  16   8
#     4  10  16  22  36  58  86 119 160 199 230 270
#     4  11  21  36  56  74  95 124 158 198 240 288
#     4  12  24  37  52  73  99 126 158 194 235 284
#     4  10  20  33  48  70  99 131 164 199 240 288
#     4   9  16  26  40  58  87 124 160 194 231 275
#     4   9  18  36  58  76  94 119 156 195 242 294
#
# _framework density 16.136521999999999
#
# number of rings (size 3 to 8) (size 9 to 14) (size 15 to 20)
#    0.000    1.889    1.111    6.000    0.000    2.667 
#    0.000    2.778    0.000    0.000    0.000    0.000 
#    0.000    0.889    0.000   10.000    0.000    5.556 
#
# Total GULP energy -200745.938433 kJ/mol
# GULP energy per Si atom -5576.276068 kJ/mol
# Density = 1.609979 g / cm^3
# Si number density = 16.136522 Si / 1000 Ang^3
#
#
#
# Elastic Constant Matrix: (Units=GPa)
#
#
# Indices 1 2 3 4 5 6 
#
# 1 90.7316 34.6544 67.9167 0.0000 0.0000 0.0000
# 2 34.6544 94.8173 68.7598 0.0000 0.0000 0.0000
# 3 67.9167 68.7598 190.5687 0.0000 0.0000 0.0000
# 4 0.0000 0.0000 0.0000 -2.7641 0.0000 0.0000
# 5 0.0000 0.0000 0.0000 0.0000 20.7418 0.0000
# 6 0.0000 0.0000 0.0000 0.0000 0.0000 14.7337
#
#
#
# Elastic Compliance Matrix: (Units=1/GPa)
#
#
# Indices 1 2 3 4 5 6 
#
# 1 0.015371 -0.002228 -0.004674 0.000000 0.000000 0.000000
# 2 -0.002228 0.014607 -0.004476 0.000000 0.000000 0.000000
# 3 -0.004674 -0.004476 0.008528 0.000000 0.000000 0.000000
# 4 0.000000 0.000000 0.000000 -0.361784 0.000000 0.000000
# 5 0.000000 0.000000 0.000000 0.000000 0.048212 0.000000
# 6 0.000000 0.000000 0.000000 0.000000 0.000000 0.067872
#
#
# Mechanical properties :
#
#
# Convention : Reuss Voigt Hill
#
# Bulk Modulus (GPa) = 63.49505 79.86439 71.67972
# Shear Modulus (GPa) = -27.90396 20.19472 -3.85462
#
# Velocity S-wave (km/s) = -4.16293 3.54148 -1.54724
# Velocity P-wave (km/s) = 4.04073 8.14390 6.42848
#
# Compressibility (1/GPa) = 0.01574926
#
# Stress axis : x y z
#
# Youngs Moduli (GPa) = 65.05549 68.45945 117.25540
#
# Poissons Ratio (x) = 0.15256 0.54807
# Poissons Ratio (y) = 0.14497 0.52487
# Poissons Ratio (z) = 0.30408 0.30644
#
# Static dielectric constant tensor:
#      x y z
#    x 1.539780 0.000000 0.000000 
#    y 0.000000 1.503660 0.000000 
#    z 0.000000 0.000000 1.588940 
# 
# From -- ./inp_files/59584.got.cif
#   From: 2010.05.17/outbox.cif.g08.bks.cpg/sg65_30_cif.got.tgz:59584.got - 2010.06.03 17:01:31.
