data_PCOD9482379
_publ_section_title
;
Structure prediction by ZEFSAII (Michael W. Deem and Ramdas Pophale) SiO2 
 PCOD9482379
Probable space group: C M C A
;
_chemical_formula_sum "Si O2"
_cell_formula_units_Z 48
_cell_length_a 9.000000
_cell_length_b 27.000000
_cell_length_c 21.000000
_cell_angle_alpha 90.000000
_cell_angle_beta 90.000000
_cell_angle_gamma 90.000000
_cell_volume 5103.000000
_symmetry_space_group_name_H-M "C M C A"
_symmetry_group_IT_number 64
_symmetry_cell_setting 'orthorhombic'
loop_
_space_group_symop_operation_xyz
x,y,z
-x,1/2-y,1/2+z
x,-y,-z
-x,1/2+y,1/2-z
-x,-y,-z
x,1/2+y,1/2-z
-x,y,z
x,1/2-y,1/2+z
1/2+x,1/2+y,z
1/2-x,-y,1/2+z
1/2+x,1/2-y,-z
1/2-x,y,1/2-z
1/2-x,1/2-y,-z
1/2+x,y,1/2-z
1/2-x,1/2+y,z
1/2+x,-y,1/2+z
loop_
_atom_site_type_symbol
_atom_site_label
_atom_site_fract_x
_atom_site_fract_y
_atom_site_fract_z
Si Si1 0.327475 0.569051 0.459737
Si Si2 0.820088 0.476585 0.821250
Si Si3 0.175123 0.846118 0.183830
Si Si4 0.177121 0.061001 0.902995
Si Si5 0.324421 0.732156 0.602773
Si Si6 0.171470 0.186706 0.465486
O O1 0.500000 0.553215 0.466234
O O2 0.282011 0.555173 0.386535
O O3 0.242578 0.552982 0.525419
O O4 0.320335 0.628203 0.462471
O O5 0.750000 0.465973 0.750000
O O6 0.757335 0.528252 0.848717
O O7 0.000000 0.476277 0.814525
O O8 0.250000 0.862212 0.250000
O O9 0.200395 0.884001 0.125133
O O10 0.242098 0.794265 0.160413
O O11 0.000000 0.842836 0.194145
O O12 0.000000 0.050821 0.904509
O O13 0.500000 0.728600 0.611931
O O14 0.271703 0.787415 0.587537
O O15 0.284877 0.704400 0.536259
O O16 0.000000 0.202572 0.455910
#
# Coordination Sequence:
#
# PCOD9482379 Si02
#       6
#    16  16  16  16  16  16
#     4  10  21  39  62  88 116 154 197 242 292 345
#     4  11  24  41  61  84 116 155 196 239 292 350
#     4  11  23  37  55  82 117 155 194 239 293 351
#     4  11  23  38  60  89 118 151 193 243 295 350
#     4  10  19  33  56  83 113 150 190 234 285 341
#     4   9  18  34  57  83 114 149 188 235 284 338
#
# _framework density 9.4062319999999993
#
# number of rings (size 3 to 8) (size 9 to 14) (size 15 to 20)
#    0.000    1.667    1.667    3.000    0.000    8.000 
#    0.000    0.833    0.000    2.000    0.000    0.000 
#    0.000    0.000    0.000    0.000    0.000    0.000 
#
# Total GULP energy -267453.754379 kJ/mol
# GULP energy per Si atom -5571.953216 kJ/mol
# Density = 0.938482 g / cm^3
# Si number density = 9.406232 Si / 1000 Ang^3
#
#
#
# Elastic Constant Matrix: (Units=GPa)
#
#
# Indices 1 2 3 4 5 6 
#
# 1 59.2200 19.6576 60.9041 0.0000 0.0000 0.0000
# 2 19.6576 47.3603 22.9463 0.0000 0.0000 0.0000
# 3 60.9041 22.9463 149.3354 0.0000 0.0000 0.0000
# 4 0.0000 0.0000 0.0000 28.5686 0.0000 0.0000
# 5 0.0000 0.0000 0.0000 0.0000 43.3241 0.0000
# 6 0.0000 0.0000 0.0000 0.0000 0.0000 19.1267
#
#
#
# Elastic Compliance Matrix: (Units=1/GPa)
#
#
# Indices 1 2 3 4 5 6 
#
# 1 0.031288 -0.007351 -0.011631 0.000000 0.000000 0.000000
# 2 -0.007351 0.024540 -0.000773 0.000000 0.000000 0.000000
# 3 -0.011631 -0.000773 0.011558 0.000000 0.000000 0.000000
# 4 0.000000 0.000000 0.000000 0.035003 0.000000 0.000000
# 5 0.000000 0.000000 0.000000 0.000000 0.023082 0.000000
# 6 0.000000 0.000000 0.000000 0.000000 0.000000 0.052283
#
#
# Mechanical properties :
#
#
# Convention : Reuss Voigt Hill
#
# Bulk Modulus (GPa) = 35.87149 51.43687 43.65418
# Shear Modulus (GPa) = 22.06952 28.36440 25.21696
#
# Velocity S-wave (km/s) = 3.42882 3.88718 3.66517
# Velocity P-wave (km/s) = 5.89789 6.89552 6.41612
#
# Compressibility (1/GPa) = 0.02787729
#
# Stress axis : x y z
#
# Youngs Moduli (GPa) = 31.96122 40.74915 86.51677
#
# Poissons Ratio (x) = 0.29956 1.00625
# Poissons Ratio (y) = 0.23496 0.06684
# Poissons Ratio (z) = 0.37173 0.03148
#
# Static dielectric constant tensor:
#      x y z
#    x 1.649060 0.000000 0.000000 
#    y 0.000000 1.708390 0.000000 
#    z 0.000000 0.000000 1.636310 
# 
# From -- ./inp_files/37119.got.cif
#   From: 2010.05.17/outbox.ucp.g08.bks.cvg/sg64_19_cif.got.tgz:37119.got - 2010.06.11 16:36:46.
