data_PCOD9482085
_publ_section_title
;
Structure prediction by ZEFSAII (Michael W. Deem and Ramdas Pophale) SiO2 
 PCOD9482085
Probable space group: C M C A
;
_chemical_formula_sum "Si O2"
_cell_formula_units_Z 80
_cell_length_a 24.437957
_cell_length_b 16.985566
_cell_length_c 8.707021
_cell_angle_alpha 90.000000
_cell_angle_beta 90.000000
_cell_angle_gamma 90.000000
_cell_volume 3614.219389
_symmetry_space_group_name_H-M "C M C A"
_symmetry_group_IT_number 64
_symmetry_cell_setting 'orthorhombic'
loop_
_space_group_symop_operation_xyz
x,y,z
-x,1/2-y,1/2+z
x,-y,-z
-x,1/2+y,1/2-z
-x,-y,-z
x,1/2+y,1/2-z
-x,y,z
x,1/2-y,1/2+z
1/2+x,1/2+y,z
1/2-x,-y,1/2+z
1/2+x,1/2-y,-z
1/2-x,y,1/2-z
1/2-x,1/2-y,-z
1/2+x,y,1/2-z
1/2-x,1/2+y,z
1/2+x,-y,1/2+z
loop_
_atom_site_type_symbol
_atom_site_label
_atom_site_fract_x
_atom_site_fract_y
_atom_site_fract_z
Si Si1 0.619961 0.182167 0.868775
Si Si2 0.806234 0.968717 0.332299
Si Si3 0.936582 0.804784 0.698132
Si Si4 0.129850 0.074614 0.101618
Si Si5 0.286666 0.695629 0.107450
O O1 0.648656 0.099541 0.842875
O O2 0.571995 0.215848 0.761359
O O3 0.667176 0.245456 0.831768
O O4 0.598863 0.185981 0.043580
O O5 0.750000 0.944750 0.250000
O O6 0.791346 0.000000 0.500000
O O7 0.836733 0.037751 0.242375
O O8 0.915737 0.867175 0.828046
O O9 0.000000 0.819095 0.664844
O O10 0.177439 0.128406 0.023804
O O11 0.111636 0.000000 0.000000
O O12 0.250000 0.666529 0.250000
O O13 0.250000 0.750000 0.000000
#
# Coordination Sequence:
#
# PCOD9482085 Si02
#       5
#    16  16  16  16  16
#     4  11  25  44  70 103 138 183 243 295 353 435
#     4  12  26  44  69 105 151 191 227 282 364 439
#     4  11  25  50  75 100 139 188 249 312 362 414
#     4  11  26  44  68 105 149 184 240 299 353 437
#     4  11  24  41  64  98 139 186 229 276 347 428
#
# _framework density 22.134793999999999
#
# number of rings (size 3 to 8) (size 9 to 14) (size 15 to 20)
#    0.000    0.800    2.000    4.800   14.000    0.400 
#    0.000    3.000    0.000    0.000    0.000    0.000 
#    0.000    0.000    0.000    0.000    0.000    0.000 
#
# Total GULP energy -223639.493252 kJ/mol
# GULP energy per Si atom -5590.987331 kJ/mol
# Density = 2.208441 g / cm^3
# Si number density = 22.134794 Si / 1000 Ang^3
#
#
#
# Elastic Constant Matrix: (Units=GPa)
#
#
# Indices 1 2 3 4 5 6 
#
# 1 108.8323 41.2029 35.9682 0.0000 0.0000 0.0000
# 2 41.2029 107.7889 24.9076 0.0000 0.0000 0.0000
# 3 35.9682 24.9076 98.1133 0.0000 0.0000 0.0000
# 4 0.0000 0.0000 0.0000 35.2468 0.0000 0.0000
# 5 0.0000 0.0000 0.0000 0.0000 23.6096 0.0000
# 6 0.0000 0.0000 0.0000 0.0000 0.0000 26.3107
#
#
#
# Elastic Compliance Matrix: (Units=1/GPa)
#
#
# Indices 1 2 3 4 5 6 
#
# 1 0.011695 -0.003697 -0.003349 0.000000 0.000000 0.000000
# 2 -0.003697 0.011024 -0.001443 0.000000 0.000000 0.000000
# 3 -0.003349 -0.001443 0.011786 0.000000 0.000000 0.000000
# 4 0.000000 0.000000 0.000000 0.028371 0.000000 0.000000
# 5 0.000000 0.000000 0.000000 0.000000 0.042356 0.000000
# 6 0.000000 0.000000 0.000000 0.000000 0.000000 0.038007
#
#
# Mechanical properties :
#
#
# Convention : Reuss Voigt Hill
#
# Bulk Modulus (GPa) = 57.05343 57.65465 57.35404
# Shear Modulus (GPa) = 30.10970 31.21049 30.66010
#
# Velocity S-wave (km/s) = 3.69221 3.75910 3.72580
# Velocity P-wave (km/s) = 6.63385 6.70408 6.66906
#
# Compressibility (1/GPa) = 0.01752743
#
# Stress axis : x y z
#
# Youngs Moduli (GPa) = 85.50896 90.71149 84.84342
#
# Poissons Ratio (x) = 0.33532 0.28413
# Poissons Ratio (y) = 0.31609 0.12247
# Poissons Ratio (z) = 0.28636 0.13094
#
# Static dielectric constant tensor:
#      x y z
#    x 1.873150 0.000000 0.000000 
#    y 0.000000 1.885810 0.000000 
#    z 0.000000 0.000000 1.865920 
# 
# From -- ./inp_files/10229.got.cif
#   From: 2010.05.17/outbox.cif.g08.bks.cpg/sg64_6_cif.got.tgz:10229.got - 2010.06.03 16:29:19.
