data_PCOD9482210
_publ_section_title
;
Structure prediction by ZEFSAII (Michael W. Deem and Ramdas Pophale) SiO2 
 PCOD9482210
Probable space group: C M C A
;
_chemical_formula_sum "Si O2"
_cell_formula_units_Z 120
_cell_length_a 23.008340
_cell_length_b 19.263997
_cell_length_c 12.579671
_cell_angle_alpha 90.000000
_cell_angle_beta 90.000000
_cell_angle_gamma 90.000000
_cell_volume 5575.720193
_symmetry_space_group_name_H-M "C M C A"
_symmetry_group_IT_number 64
_symmetry_cell_setting 'orthorhombic'
loop_
_space_group_symop_operation_xyz
x,y,z
-x,1/2-y,1/2+z
x,-y,-z
-x,1/2+y,1/2-z
-x,-y,-z
x,1/2+y,1/2-z
-x,y,z
x,1/2-y,1/2+z
1/2+x,1/2+y,z
1/2-x,-y,1/2+z
1/2+x,1/2-y,-z
1/2-x,y,1/2-z
1/2-x,1/2-y,-z
1/2+x,y,1/2-z
1/2-x,1/2+y,z
1/2+x,-y,1/2+z
loop_
_atom_site_type_symbol
_atom_site_label
_atom_site_fract_x
_atom_site_fract_y
_atom_site_fract_z
Si Si1 0.199116 0.845420 0.679745
Si Si2 0.893392 0.922972 0.803488
Si Si3 0.433748 0.024811 0.878838
Si Si4 0.858896 0.712588 0.597850
Si Si5 0.933477 0.280549 0.594250
Si Si6 0.839631 0.500000 0.500000
Si Si7 0.853341 0.846043 0.326037
Si Si8 0.258349 0.627214 0.963892
O O1 0.250000 0.810562 0.750000
O O2 0.168516 0.900518 0.754905
O O3 0.152329 0.789637 0.640071
O O4 0.224902 0.879471 0.574853
O O5 0.923835 0.851552 0.840342
O O6 0.879669 0.967931 0.907706
O O7 0.924891 0.964868 0.709545
O O8 0.500000 0.050392 0.870780
O O9 0.388929 0.085806 0.856200
O O10 0.424742 0.000000 0.000000
O O11 0.916194 0.704914 0.528261
O O12 0.854507 0.663754 0.699879
O O13 0.804057 0.690345 0.526078
O O14 0.888006 0.221052 0.629250
O O15 0.000000 0.257588 0.605314
O O16 0.797536 0.558950 0.548737
O O17 0.789102 0.854757 0.374671
#
# Coordination Sequence:
#
# PCOD9482210 Si02
#       8
#    16  16  16  16  16   8  16  16
#     4  12  22  41  73 104 144 183 232 295 369 441
#     4  12  26  49  72 107 147 195 247 297 371 438
#     4  11  27  49  73 103 143 194 250 307 363 434
#     4  12  25  46  69 109 142 184 237 303 373 440
#     4  12  27  49  74 104 145 194 246 306 367 433
#     4  12  26  46  71 110 151 194 244 296 358 466
#     4  12  26  46  74 107 144 185 246 305 368 439
#     4  12  25  43  71 104 146 189 234 294 372 438
#
# _framework density 21.521882999999999
#
# number of rings (size 3 to 8) (size 9 to 14) (size 15 to 20)
#    0.000    0.133    5.333    4.000    2.800    1.067 
#    0.000    0.667    0.000    0.000    0.000    0.000 
#    0.000    0.000    0.000    0.000    0.000    0.000 
#
# Total GULP energy -335776.082042 kJ/mol
# GULP energy per Si atom -5596.268034 kJ/mol
# Density = 2.147290 g / cm^3
# Si number density = 21.521883 Si / 1000 Ang^3
#
#
#
# Elastic Constant Matrix: (Units=GPa)
#
#
# Indices 1 2 3 4 5 6 
#
# 1 70.6462 7.9998 15.1170 0.0000 0.0000 0.0000
# 2 7.9998 59.2352 0.3409 0.0000 0.0000 0.0000
# 3 15.1170 0.3409 70.0791 0.0000 0.0000 0.0000
# 4 0.0000 0.0000 0.0000 32.2512 0.0000 0.0000
# 5 0.0000 0.0000 0.0000 0.0000 10.2567 0.0000
# 6 0.0000 0.0000 0.0000 0.0000 0.0000 60.7736
#
#
#
# Elastic Compliance Matrix: (Units=1/GPa)
#
#
# Indices 1 2 3 4 5 6 
#
# 1 0.015077 -0.002018 -0.003243 0.000000 0.000000 0.000000
# 2 -0.002018 0.017152 0.000352 0.000000 0.000000 0.000000
# 3 -0.003243 0.000352 0.014967 0.000000 0.000000 0.000000
# 4 0.000000 0.000000 0.000000 0.031007 0.000000 0.000000
# 5 0.000000 0.000000 0.000000 0.000000 0.097498 0.000000
# 6 0.000000 0.000000 0.000000 0.000000 0.000000 0.016455
#
#
# Mechanical properties :
#
#
# Convention : Reuss Voigt Hill
#
# Bulk Modulus (GPa) = 26.75205 27.43065 27.09135
# Shear Modulus (GPa) = 23.31736 32.42315 27.87025
#
# Velocity S-wave (km/s) = 3.29511 3.88560 3.60248
# Velocity P-wave (km/s) = 5.18982 5.73617 5.46982
#
# Compressibility (1/GPa) = 0.03738031
#
# Stress axis : x y z
#
# Youngs Moduli (GPa) = 66.32460 58.30119 66.81214
#
# Poissons Ratio (x) = 0.11763 0.21664
# Poissons Ratio (y) = 0.13381 -0.02350
# Poissons Ratio (z) = 0.21506 -0.02051
#
# Static dielectric constant tensor:
#      x y z
#    x 1.777270 0.000000 0.000000 
#    y 0.000000 1.801620 0.000000 
#    z 0.000000 0.000000 1.810930 
# 
# From -- ./inp_files/18592.got.cif
#   From: 2010.05.17/outbox.cif.g08.bks.cpg/sg64_10_cif.got.tgz:18592.got - 2010.06.03 16:29:19.
