data_PCOD9482303
_publ_section_title
;
Structure prediction by ZEFSAII (Michael W. Deem and Ramdas Pophale) SiO2 
 PCOD9482303
Probable space group: C M C A
;
_chemical_formula_sum "Si O2"
_cell_formula_units_Z 64
_cell_length_a 9.926312
_cell_length_b 25.801479
_cell_length_c 12.424712
_cell_angle_alpha 90.000000
_cell_angle_beta 90.000000
_cell_angle_gamma 90.000000
_cell_volume 3182.136857
_symmetry_space_group_name_H-M "C M C A"
_symmetry_group_IT_number 64
_symmetry_cell_setting 'orthorhombic'
loop_
_space_group_symop_operation_xyz
x,y,z
-x,1/2-y,1/2+z
x,-y,-z
-x,1/2+y,1/2-z
-x,-y,-z
x,1/2+y,1/2-z
-x,y,z
x,1/2-y,1/2+z
1/2+x,1/2+y,z
1/2-x,-y,1/2+z
1/2+x,1/2-y,-z
1/2-x,y,1/2-z
1/2-x,1/2-y,-z
1/2+x,y,1/2-z
1/2-x,1/2+y,z
1/2+x,-y,1/2+z
loop_
_atom_site_type_symbol
_atom_site_label
_atom_site_fract_x
_atom_site_fract_y
_atom_site_fract_z
Si Si1 0.500000 0.475602 0.880562
Si Si2 0.250000 0.352627 0.250000
Si Si3 0.266267 0.608325 0.127354
Si Si4 0.000000 0.075978 0.734019
Si Si5 0.000000 0.061908 0.482464
Si Si6 0.337096 0.200536 0.536008
O O1 0.371506 0.438816 0.869476
O O2 0.500000 0.519890 0.789193
O O3 0.500000 0.500000 0.000000
O O4 0.372181 0.391661 0.231205
O O5 0.262461 0.317354 0.145198
O O6 0.250000 0.627246 0.250000
O O7 0.129381 0.584264 0.079099
O O8 0.318337 0.654175 0.050486
O O9 0.000000 0.079448 0.605657
O O10 0.000000 0.000000 0.500000
O O11 0.500000 0.209721 0.550238
O O12 0.250000 0.250000 0.500000
#
# Coordination Sequence:
#
# PCOD9482303 Si02
#       6
#     8   8  16   8   8  16
#     4  12  26  44  72 106 149 205 243 296 377 443
#     4  12  26  52  74 112 146 186 254 310 368 456
#     4  12  26  48  69 107 152 190 248 306 367 447
#     4  12  26  44  76 105 150 194 244 307 368 451
#     4  12  26  42  70 109 145 195 247 296 365 446
#     4  12  29  51  79 108 145 198 251 318 385 440
#
# _framework density 20.112271
#
# number of rings (size 3 to 8) (size 9 to 14) (size 15 to 20)
#    0.000    0.000    5.000    4.500   10.500    0.000 
#    0.000    0.000    0.000    0.000    0.000    0.000 
#    0.000    0.000    0.000    0.000    0.000    0.000 
#
# Total GULP energy -178887.057384 kJ/mol
# GULP energy per Si atom -5590.220543 kJ/mol
# Density = 2.006649 g / cm^3
# Si number density = 20.112271 Si / 1000 Ang^3
#
#
#
# Elastic Constant Matrix: (Units=GPa)
#
#
# Indices 1 2 3 4 5 6 
#
# 1 137.0935 69.4633 13.6555 0.0000 0.0000 0.0000
# 2 69.4633 142.5961 59.1230 0.0000 0.0000 0.0000
# 3 13.6555 59.1230 151.6259 0.0000 0.0000 0.0000
# 4 0.0000 0.0000 0.0000 51.0389 0.0000 0.0000
# 5 0.0000 0.0000 0.0000 0.0000 18.6694 0.0000
# 6 0.0000 0.0000 0.0000 0.0000 0.0000 48.9862
#
#
#
# Elastic Compliance Matrix: (Units=1/GPa)
#
#
# Indices 1 2 3 4 5 6 
#
# 1 0.009857 -0.005289 0.001174 0.000000 0.000000 0.000000
# 2 -0.005289 0.011203 -0.003892 0.000000 0.000000 0.000000
# 3 0.001174 -0.003892 0.008007 0.000000 0.000000 0.000000
# 4 0.000000 0.000000 0.000000 0.019593 0.000000 0.000000
# 5 0.000000 0.000000 0.000000 0.000000 0.053564 0.000000
# 6 0.000000 0.000000 0.000000 0.000000 0.000000 0.020414
#
#
# Mechanical properties :
#
#
# Convention : Reuss Voigt Hill
#
# Bulk Modulus (GPa) = 76.60210 79.53323 78.06766
# Shear Modulus (GPa) = 34.96481 43.01048 38.98764
#
# Velocity S-wave (km/s) = 4.17403 4.62943 4.40762
# Velocity P-wave (km/s) = 7.83582 8.25869 8.05003
#
# Compressibility (1/GPa) = 0.01305447
#
# Stress axis : x y z
#
# Youngs Moduli (GPa) = 101.45106 89.26383 124.89091
#
# Poissons Ratio (x) = 0.47208 -0.14668
# Poissons Ratio (y) = 0.53653 0.48607
# Poissons Ratio (z) = -0.11915 0.34741
#
# Static dielectric constant tensor:
#      x y z
#    x 1.689440 0.000000 0.000000 
#    y 0.000000 1.186430 0.000000 
#    z 0.000000 0.000000 1.656900 
# 
# From -- ./inp_files/12979.got.cif
#   From: 2010.05.17/outbox.cif.g08.bks.cpg/sg64_7_cif.got.tgz:12979.got - 2010.06.03 16:29:19.
