data_PCOD9482625
_publ_section_title
;
Structure prediction by ZEFSAII (Michael W. Deem and Ramdas Pophale) SiO2 
 PCOD9482625
Probable space group: C M M M
;
_chemical_formula_sum "Si O2"
_cell_formula_units_Z 56
_cell_length_a 8.686331
_cell_length_b 16.807598
_cell_length_c 19.131289
_cell_angle_alpha 90.000000
_cell_angle_beta 90.000000
_cell_angle_gamma 90.000000
_cell_volume 2793.098547
_symmetry_space_group_name_H-M "C M M M"
_symmetry_group_IT_number 65
_symmetry_cell_setting 'orthorhombic'
loop_
_space_group_symop_operation_xyz
x,y,z
-x,-y,z
x,-y,-z
-x,y,-z
-x,-y,-z
x,y,-z
-x,y,z
x,-y,z
1/2+x,1/2+y,z
1/2-x,1/2-y,z
1/2+x,1/2-y,-z
1/2-x,1/2+y,-z
1/2-x,1/2-y,-z
1/2+x,1/2+y,-z
1/2-x,1/2+y,z
1/2+x,1/2-y,z
loop_
_atom_site_type_symbol
_atom_site_label
_atom_site_fract_x
_atom_site_fract_y
_atom_site_fract_z
Si Si1 0.316195 0.840666 0.143160
Si Si2 0.322790 0.095507 0.422504
Si Si3 0.315787 0.340792 0.000000
Si Si4 0.318782 0.661684 0.715186
O O1 0.500000 0.838132 0.139120
O O2 0.250000 0.750000 0.145298
O O3 0.247016 0.877335 0.072214
O O4 0.261357 0.877103 0.216665
O O5 0.273347 0.123572 0.500000
O O6 0.500000 0.122576 0.411113
O O7 0.219692 0.120724 0.357879
O O8 0.325386 0.000000 0.424556
O O9 0.250000 0.250000 0.000000
O O10 0.500000 0.338343 0.000000
O O11 0.500000 0.665436 0.727959
O O12 0.250000 0.750000 0.708697
#
# Coordination Sequence:
#
# PCOD9482625 Si02
#       4
#    16  16   8  16
#     4  10  17  27  42  63  93 128 165 203 246 293
#     4   9  19  37  58  77  99 129 165 205 250 301
#     4  10  16  24  38  60  91 126 163 200 243 292
#     4  11  21  33  50  74 104 135 168 208 253 298
#
# _framework density 20.049416999999998
#
# number of rings (size 3 to 8) (size 9 to 14) (size 15 to 20)
#    0.000    2.000    0.000   10.714    0.000    1.714 
#    0.000    1.429    0.000    0.000    0.000    1.000 
#    0.000    8.000    0.000    0.000    0.000    0.000 
#
# Total GULP energy -156202.046880 kJ/mol
# GULP energy per Si atom -5578.644531 kJ/mol
# Density = 2.000378 g / cm^3
# Si number density = 20.049417 Si / 1000 Ang^3
#
#
#
# Elastic Constant Matrix: (Units=GPa)
#
#
# Indices 1 2 3 4 5 6 
#
# 1 187.2776 7.9326 80.0538 0.0000 0.0000 0.0000
# 2 7.9326 3.5161 15.9542 0.0000 0.0000 0.0000
# 3 80.0538 15.9542 183.6516 0.0000 0.0000 0.0000
# 4 0.0000 0.0000 0.0000 109.2723 0.0000 0.0000
# 5 0.0000 0.0000 0.0000 0.0000 54.0533 0.0000
# 6 0.0000 0.0000 0.0000 0.0000 0.0000 12.1571
#
#
#
# Elastic Compliance Matrix: (Units=1/GPa)
#
#
# Indices 1 2 3 4 5 6 
#
# 1 0.006582 -0.003022 -0.002606 0.000000 0.000000 0.000000
# 2 -0.003022 0.470845 -0.039586 0.000000 0.000000 0.000000
# 3 -0.002606 -0.039586 0.010020 0.000000 0.000000 0.000000
# 4 0.000000 0.000000 0.000000 0.009151 0.000000 0.000000
# 5 0.000000 0.000000 0.000000 0.000000 0.018500 0.000000
# 6 0.000000 0.000000 0.000000 0.000000 0.000000 0.082257
#
#
# Mechanical properties :
#
#
# Convention : Reuss Voigt Hill
#
# Bulk Modulus (GPa) = 2.51878 64.70294 33.61086
# Shear Modulus (GPa) = 6.09664 53.13018 29.61341
#
# Velocity S-wave (km/s) = 1.74568 5.15336 3.84737
# Velocity P-wave (km/s) = 2.30699 8.23112 6.04457
#
# Compressibility (1/GPa) = 0.39701748
#
# Stress axis : x y z
#
# Youngs Moduli (GPa) = 151.93284 2.12384 99.79900
#
# Poissons Ratio (x) = 0.00642 0.26012
# Poissons Ratio (y) = 0.45921 3.95061
# Poissons Ratio (z) = 0.39601 0.08407
#
# Static dielectric constant tensor:
#      x y z
#    x 1.681020 0.000000 0.000000 
#    y 0.000000 1.705050 0.000000 
#    z 0.000000 0.000000 1.807190 
# 
# From -- ./inp_files/35811.got.cif
#   From: 2010.05.17/outbox.cif.g08.bks.cpg/sg65_18_cif.got.tgz:35811.got - 2010.06.03 17:01:31.
