data_PCOD9482676
_publ_section_title
;
Structure prediction by ZEFSAII (Michael W. Deem and Ramdas Pophale) SiO2 
 PCOD9482676
Probable space group: C M M M
;
_chemical_formula_sum "Si O2"
_cell_formula_units_Z 80
_cell_length_a 18.403529
_cell_length_b 14.612763
_cell_length_c 15.173901
_cell_angle_alpha 90.000000
_cell_angle_beta 90.000000
_cell_angle_gamma 90.000000
_cell_volume 4080.662686
_symmetry_space_group_name_H-M "C M M M"
_symmetry_group_IT_number 65
_symmetry_cell_setting 'orthorhombic'
loop_
_space_group_symop_operation_xyz
x,y,z
-x,-y,z
x,-y,-z
-x,y,-z
-x,-y,-z
x,y,-z
-x,y,z
x,-y,z
1/2+x,1/2+y,z
1/2-x,1/2-y,z
1/2+x,1/2-y,-z
1/2-x,1/2+y,-z
1/2-x,1/2-y,-z
1/2+x,1/2+y,-z
1/2-x,1/2+y,z
1/2+x,1/2-y,z
loop_
_atom_site_type_symbol
_atom_site_label
_atom_site_fract_x
_atom_site_fract_y
_atom_site_fract_z
Si Si1 0.736741 0.896842 0.874057
Si Si2 0.768592 0.143142 0.323200
Si Si3 0.419035 0.286176 0.296100
Si Si4 0.623339 0.102753 0.398917
Si Si5 0.628138 0.734252 0.904032
O O1 0.745179 0.900386 0.768677
O O2 0.669448 0.831732 0.897363
O O3 0.808542 0.842692 0.904221
O O4 0.730974 0.000000 0.905994
O O5 0.750000 0.250000 0.312219
O O6 0.855486 0.146335 0.331703
O O7 0.711712 0.107211 0.394199
O O8 0.500000 0.316110 0.318898
O O9 0.405201 0.185266 0.338114
O O10 0.411697 0.279389 0.189463
O O11 0.600542 0.117356 0.500000
O O12 0.601033 0.000000 0.371549
O O13 0.590605 0.729334 0.000000
#
# Coordination Sequence:
#
# PCOD9482676 Si02
#       5
#    16  16  16  16  16
#     4  10  16  29  53  78 105 137 174 228 283 315
#     4   9  16  32  53  78 104 137 177 223 261 314
#     4  10  21  36  52  76 110 146 178 217 270 323
#     4  10  20  35  58  84 107 136 176 223 275 329
#     4  10  20  33  48  76 109 140 185 228 266 321
#
# _framework density 19.604659999999999
#
# number of rings (size 3 to 8) (size 9 to 14) (size 15 to 20)
#    0.000    2.200    6.000    1.800    0.000    6.400 
#    0.000    1.000    0.000   15.000    0.000    9.800 
#    0.000    0.000    0.000    0.000    0.000    0.000 
#
# Total GULP energy -222778.714377 kJ/mol
# GULP energy per Si atom -5569.467859 kJ/mol
# Density = 1.956004 g / cm^3
# Si number density = 19.604660 Si / 1000 Ang^3
#
#
#
# Elastic Constant Matrix: (Units=GPa)
#
#
# Indices 1 2 3 4 5 6 
#
# 1 80.0176 -22.1620 -12.1989 0.0000 0.0000 0.0000
# 2 -22.1620 63.8711 -14.3123 0.0000 0.0000 0.0000
# 3 -12.1989 -14.3123 65.6465 0.0000 0.0000 0.0000
# 4 0.0000 0.0000 0.0000 -29.3589 0.0000 0.0000
# 5 0.0000 0.0000 0.0000 0.0000 -14.9986 0.0000
# 6 0.0000 0.0000 0.0000 0.0000 0.0000 -3.6642
#
#
#
# Elastic Compliance Matrix: (Units=1/GPa)
#
#
# Indices 1 2 3 4 5 6 
#
# 1 0.014791 0.006043 0.004066 0.000000 0.000000 0.000000
# 2 0.006043 0.018930 0.005250 0.000000 0.000000 0.000000
# 3 0.004066 0.005250 0.017133 0.000000 0.000000 0.000000
# 4 0.000000 0.000000 0.000000 -0.034061 0.000000 0.000000
# 5 0.000000 0.000000 0.000000 0.000000 -0.066673 0.000000
# 6 0.000000 0.000000 0.000000 0.000000 0.000000 -0.272913
#
#
# Mechanical properties :
#
#
# Convention : Reuss Voigt Hill
#
# Bulk Modulus (GPa) = 12.25894 12.46543 12.36218
# Shear Modulus (GPa) = -15.32233 7.60957 -3.85638
#
# Velocity S-wave (km/s) = -2.79868 1.97229 -1.40405
# Velocity P-wave (km/s) = 2.04374 3.39982 1.92119
#
# Compressibility (1/GPa) = 0.08157313
#
# Stress axis : x y z
#
# Youngs Moduli (GPa) = 67.60907 52.82656 58.36577
#
# Poissons Ratio (x) = -0.31925 -0.23732
# Poissons Ratio (y) = -0.40858 -0.30643
# Poissons Ratio (z) = -0.27491 -0.27735
#
# Static dielectric constant tensor:
#      x y z
#    x 1.718090 0.000000 0.000000 
#    y 0.000000 1.675460 0.000000 
#    z 0.000000 0.000000 1.273250 
# 
# From -- ./inp_files/43907.got.cif
#   From: 2010.05.17/outbox.cif.g08.bks.cpg/sg65_22_cif.got.tgz:43907.got - 2010.06.03 17:01:31.
