data_PCOD9482963
_publ_section_title
;
Structure prediction by ZEFSAII (Michael W. Deem and Ramdas Pophale) SiO2 
 PCOD9482963
Probable space group: C M M M
;
_chemical_formula_sum "Si O2"
_cell_formula_units_Z 80
_cell_length_a 8.598994
_cell_length_b 24.334916
_cell_length_c 21.040797
_cell_angle_alpha 90.000000
_cell_angle_beta 90.000000
_cell_angle_gamma 90.000000
_cell_volume 4402.908739
_symmetry_space_group_name_H-M "C M M M"
_symmetry_group_IT_number 65
_symmetry_cell_setting 'orthorhombic'
loop_
_space_group_symop_operation_xyz
x,y,z
-x,-y,z
x,-y,-z
-x,y,-z
-x,-y,-z
x,y,-z
-x,y,z
x,-y,z
1/2+x,1/2+y,z
1/2-x,1/2-y,z
1/2+x,1/2-y,-z
1/2-x,1/2+y,-z
1/2-x,1/2-y,-z
1/2+x,1/2+y,-z
1/2-x,1/2+y,z
1/2+x,1/2-y,z
loop_
_atom_site_type_symbol
_atom_site_label
_atom_site_fract_x
_atom_site_fract_y
_atom_site_fract_z
Si Si1 0.810059 0.878140 0.069411
Si Si2 0.812551 0.936511 0.427348
Si Si3 0.813898 0.811438 0.194213
Si Si4 0.818208 0.000000 0.095581
Si Si5 0.817422 0.386274 0.695621
Si Si6 0.180277 0.500000 0.769938
O O1 0.757456 0.844989 0.131571
O O2 0.754409 0.941475 0.072842
O O3 0.000000 0.879194 0.072013
O O4 0.766434 0.855067 0.000000
O O5 0.767041 0.923567 0.500000
O O6 0.747945 0.895166 0.374932
O O7 0.000000 0.936125 0.424239
O O8 0.762368 0.000000 0.414544
O O9 0.750000 0.750000 0.192563
O O10 0.762355 0.842357 0.258316
O O11 0.000000 0.810306 0.192023
O O12 0.795398 0.000000 0.171044
O O13 0.000000 0.000000 0.078318
O O14 0.795570 0.445474 0.729198
O O15 0.000000 0.374232 0.692819
O O16 0.000000 0.500000 0.792542
#
# Coordination Sequence:
#
# PCOD9482963 Si02
#       6
#    16  16  16   8  16   8
#     4   9  18  32  53  81 109 138 176 223 274 329
#     4   9  18  32  52  82 119 154 185 218 261 318
#     4  11  23  39  58  79 104 140 187 236 281 327
#     4  10  17  30  54  81 107 139 178 218 267 332
#     4  11  21  35  55  81 113 148 184 226 273 323
#     4  10  20  31  48  78 114 144 174 219 274 324
#
# _framework density 18.169806000000001
#
# number of rings (size 3 to 8) (size 9 to 14) (size 15 to 20)
#    0.000    2.000    3.000    2.100    0.000    2.800 
#    0.000    1.000    0.000    6.000    0.000    0.000 
#    0.000    0.000    0.000    0.000    0.000    0.000 
#
# Total GULP energy -223127.891156 kJ/mol
# GULP energy per Si atom -5578.197279 kJ/mol
# Density = 1.812845 g / cm^3
# Si number density = 18.169806 Si / 1000 Ang^3
#
#
#
# Elastic Constant Matrix: (Units=GPa)
#
#
# Indices 1 2 3 4 5 6 
#
# 1 24.8836 31.5319 39.0838 0.0000 0.0000 0.0000
# 2 31.5319 117.5685 70.1313 0.0000 0.0000 0.0000
# 3 39.0838 70.1313 164.1034 0.0000 0.0000 0.0000
# 4 0.0000 0.0000 0.0000 -109.3891 0.0000 0.0000
# 5 0.0000 0.0000 0.0000 0.0000 0.6887 0.0000
# 6 0.0000 0.0000 0.0000 0.0000 0.0000 20.7920
#
#
#
# Elastic Compliance Matrix: (Units=1/GPa)
#
#
# Indices 1 2 3 4 5 6 
#
# 1 0.076541 -0.012957 -0.012692 0.000000 0.000000 0.000000
# 2 -0.012957 0.013609 -0.002730 0.000000 0.000000 0.000000
# 3 -0.012692 -0.002730 0.010283 0.000000 0.000000 0.000000
# 4 0.000000 0.000000 0.000000 -0.009142 0.000000 0.000000
# 5 0.000000 0.000000 0.000000 0.000000 1.451933 0.000000
# 6 0.000000 0.000000 0.000000 0.000000 0.000000 0.048096
#
#
# Mechanical properties :
#
#
# Convention : Reuss Voigt Hill
#
# Bulk Modulus (GPa) = 22.89646 65.33884 44.11765
# Shear Modulus (GPa) = 3.00727 -6.52778 -1.76026
#
# Velocity S-wave (km/s) = 1.28790 -1.89749 -0.98533
# Velocity P-wave (km/s) = 3.85231 5.58906 4.79989
#
# Compressibility (1/GPa) = 0.04367487
#
# Stress axis : x y z
#
# Youngs Moduli (GPa) = 13.06484 73.47858 97.24526
#
# Poissons Ratio (x) = 0.95209 1.23424
# Poissons Ratio (y) = 0.16929 0.26549
# Poissons Ratio (z) = 0.16582 0.20060
#
# Static dielectric constant tensor:
#      x y z
#    x 1.624940 0.000000 0.000000 
#    y 0.000000 1.607820 0.000000 
#    z 0.000000 0.000000 1.636520 
# 
# From -- ./inp_files/59695.got.cif
#   From: 2010.05.17/outbox.cif.g08.bks.cpg/sg65_30_cif.got.tgz:59695.got - 2010.06.03 17:01:31.
