data_PCOD9482937
_publ_section_title
;
Structure prediction by ZEFSAII (Michael W. Deem and Ramdas Pophale) SiO2 
 PCOD9482937
Probable space group: C M M M
;
_chemical_formula_sum "Si O2"
_cell_formula_units_Z 112
_cell_length_a 32.502487
_cell_length_b 33.543986
_cell_length_c 9.108554
_cell_angle_alpha 90.000000
_cell_angle_beta 90.000000
_cell_angle_gamma 90.000000
_cell_volume 9930.719126
_symmetry_space_group_name_H-M "C M M M"
_symmetry_group_IT_number 65
_symmetry_cell_setting 'orthorhombic'
loop_
_space_group_symop_operation_xyz
x,y,z
-x,-y,z
x,-y,-z
-x,y,-z
-x,-y,-z
x,y,-z
-x,y,z
x,-y,z
1/2+x,1/2+y,z
1/2-x,1/2-y,z
1/2+x,1/2-y,-z
1/2-x,1/2+y,-z
1/2-x,1/2-y,-z
1/2+x,1/2+y,-z
1/2-x,1/2+y,z
1/2+x,1/2-y,z
loop_
_atom_site_type_symbol
_atom_site_label
_atom_site_fract_x
_atom_site_fract_y
_atom_site_fract_z
Si Si1 0.710926 0.663957 0.331345
Si Si2 0.000000 0.173209 0.324035
Si Si3 0.413682 0.454872 0.178422
Si Si4 0.153092 0.756884 0.669277
Si Si5 0.278943 0.210299 0.830549
Si Si6 0.500000 0.413713 0.822641
Si Si7 0.416396 0.696115 0.174433
Si Si8 0.859084 0.881586 0.175019
O O1 0.719964 0.654398 0.500000
O O2 0.682550 0.703915 0.329909
O O3 0.751926 0.675882 0.244210
O O4 0.682669 0.630731 0.255588
O O5 0.040904 0.193733 0.260232
O O6 0.000000 0.172892 0.500000
O O7 0.000000 0.128270 0.259725
O O8 0.407658 0.500000 0.230845
O O9 0.458989 0.438309 0.214678
O O10 0.379881 0.422619 0.226441
O O11 0.412028 0.455469 0.000000
O O12 0.142965 0.748312 0.500000
O O13 0.180206 0.722252 0.742431
O O14 0.113460 0.769786 0.762342
O O15 0.250000 0.250000 0.828205
O O16 0.287888 0.201492 0.000000
O O17 0.500000 0.406474 0.000000
O O18 0.392201 0.654086 0.197735
O O19 0.422719 0.700422 0.000000
O O20 0.851731 0.883453 0.000000
#
# Coordination Sequence:
#
# PCOD9482937 Si02
#       8
#    16   8  16  16  16   8  16  16
#     4   9  16  24  35  50  68  88 106 126 153 186
#     4  12  22  29  39  53  68  86 108 138 174 210
#     4   9  16  26  42  59  69  80 104 138 173 210
#     4   9  16  25  36  52  71  88 105 127 155 188
#     4   9  15  23  35  51  69  89 109 127 147 177
#     4  10  17  30  44  56  66  80 104 136 172 214
#     4  10  18  29  41  52  65  85 110 136 164 198
#     4   9  16  26  39  53  67  82 104 132 162 200
#
# _framework density 11.278136
#
# number of rings (size 3 to 8) (size 9 to 14) (size 15 to 20)
#    0.000    2.571    1.429    2.571    0.000    6.571 
#    0.000    0.000    0.000    2.143    0.000    0.000 
#    0.000    0.000    0.000    0.000    0.000    0.000 
#
# Total GULP energy -311966.550040 kJ/mol
# GULP energy per Si atom -5570.831251 kJ/mol
# Density = 1.125247 g / cm^3
# Si number density = 11.278136 Si / 1000 Ang^3
#
#
#
# Elastic Constant Matrix: (Units=GPa)
#
#
# Indices 1 2 3 4 5 6 
#
# 1 71.4601 48.0943 44.1578 0.0000 0.0000 0.0000
# 2 48.0943 45.7694 28.3721 0.0000 0.0000 0.0000
# 3 44.1578 28.3721 69.3264 0.0000 0.0000 0.0000
# 4 0.0000 0.0000 0.0000 6.9827 0.0000 0.0000
# 5 0.0000 0.0000 0.0000 0.0000 15.4706 0.0000
# 6 0.0000 0.0000 0.0000 0.0000 0.0000 10.2489
#
#
#
# Elastic Compliance Matrix: (Units=1/GPa)
#
#
# Indices 1 2 3 4 5 6 
#
# 1 0.059012 -0.051867 -0.016361 0.000000 0.000000 0.000000
# 2 -0.051867 0.074863 0.002399 0.000000 0.000000 0.000000
# 3 -0.016361 0.002399 0.023864 0.000000 0.000000 0.000000
# 4 0.000000 0.000000 0.000000 0.143211 0.000000 0.000000
# 5 0.000000 0.000000 0.000000 0.000000 0.064639 0.000000
# 6 0.000000 0.000000 0.000000 0.000000 0.000000 0.097572
#
#
# Mechanical properties :
#
#
# Convention : Reuss Voigt Hill
#
# Bulk Modulus (GPa) = 38.34263 47.53383 42.93823
# Shear Modulus (GPa) = 8.28484 10.93589 9.61036
#
# Velocity S-wave (km/s) = 2.71328 3.11730 2.92228
# Velocity P-wave (km/s) = 6.62472 7.42934 7.03854
#
# Compressibility (1/GPa) = 0.02608063
#
# Stress axis : x y z
#
# Youngs Moduli (GPa) = 16.94580 13.35767 41.90428
#
# Poissons Ratio (x) = 0.69282 0.68559
# Poissons Ratio (y) = 0.87893 -0.10053
# Poissons Ratio (z) = 0.27725 -0.03205
#
# Static dielectric constant tensor:
#      x y z
#    x 1.354620 0.000000 0.000000 
#    y 0.000000 1.342470 0.000000 
#    z 0.000000 0.000000 1.375080 
# 
# From -- ./inp_files/19230.got.cif
#   From: 2010.05.17/outbox.cif.g08.bks.cpg/sg65_10_cif.got.tgz:19230.got - 2010.06.03 17:01:31.
