data_PCOD9482277
_publ_section_title
;
Structure prediction by ZEFSAII (Michael W. Deem and Ramdas Pophale) SiO2 
 PCOD9482277
Probable space group: C M C A
;
_chemical_formula_sum "Si O2"
_cell_formula_units_Z 52
_cell_length_a 17.110951
_cell_length_b 17.168869
_cell_length_c 8.026079
_cell_angle_alpha 90.000000
_cell_angle_beta 90.000000
_cell_angle_gamma 90.000000
_cell_volume 2357.866785
_symmetry_space_group_name_H-M "C M C A"
_symmetry_group_IT_number 64
_symmetry_cell_setting 'orthorhombic'
loop_
_space_group_symop_operation_xyz
x,y,z
-x,1/2-y,1/2+z
x,-y,-z
-x,1/2+y,1/2-z
-x,-y,-z
x,1/2+y,1/2-z
-x,y,z
x,1/2-y,1/2+z
1/2+x,1/2+y,z
1/2-x,-y,1/2+z
1/2+x,1/2-y,-z
1/2-x,y,1/2-z
1/2-x,1/2-y,-z
1/2+x,y,1/2-z
1/2-x,1/2+y,z
1/2+x,-y,1/2+z
loop_
_atom_site_type_symbol
_atom_site_label
_atom_site_fract_x
_atom_site_fract_y
_atom_site_fract_z
Si Si1 0.000000 0.000000 0.000000
Si Si2 0.409233 0.304506 0.445652
Si Si3 0.374714 0.137142 0.572552
Si Si4 0.285622 0.417816 0.567576
O O1 0.931840 0.932588 0.023868
O O2 0.500000 0.315826 0.487342
O O3 0.389542 0.213720 0.461534
O O4 0.392729 0.336428 0.260912
O O5 0.353345 0.354047 0.565192
O O6 0.285644 0.110431 0.548341
O O7 0.316638 0.500000 0.500000
O O8 0.250000 0.428023 0.750000
#
# Coordination Sequence:
#
# PCOD9482277 Si02
#       4
#     4  16  16  16
#     4  12  24  44  80 106 148 188 246 304 356 424
#     4  12  25  47  73 109 146 188 245 298 364 432
#     4  12  25  48  75 107 147 194 241 303 363 430
#     4  12  27  47  73 106 147 193 243 301 364 433
#
# _framework density 22.053833000000001
#
# number of rings (size 3 to 8) (size 9 to 14) (size 15 to 20)
#    0.000    0.000    4.615    5.538    0.000    0.615 
#    2.769    0.000    0.000    0.000    0.000    0.000 
#    0.000    0.000    0.000    0.000    0.000    0.000 
#
# Total GULP energy -145250.287806 kJ/mol
# GULP energy per Si atom -5586.549531 kJ/mol
# Density = 2.200364 g / cm^3
# Si number density = 22.053833 Si / 1000 Ang^3
#
#
#
# Elastic Constant Matrix: (Units=GPa)
#
#
# Indices 1 2 3 4 5 6 
#
# 1 71.8360 20.9523 -0.4040 0.0000 0.0000 0.0000
# 2 20.9523 188.8480 56.9175 0.0000 0.0000 0.0000
# 3 -0.4040 56.9175 63.2301 0.0000 0.0000 0.0000
# 4 0.0000 0.0000 0.0000 9.1250 0.0000 0.0000
# 5 0.0000 0.0000 0.0000 0.0000 22.6875 0.0000
# 6 0.0000 0.0000 0.0000 0.0000 0.0000 59.7004
#
#
#
# Elastic Compliance Matrix: (Units=1/GPa)
#
#
# Indices 1 2 3 4 5 6 
#
# 1 0.014592 -0.002260 0.002128 0.000000 0.000000 0.000000
# 2 -0.002260 0.007617 -0.006871 0.000000 0.000000 0.000000
# 3 0.002128 -0.006871 0.022014 0.000000 0.000000 0.000000
# 4 0.000000 0.000000 0.000000 0.109590 0.000000 0.000000
# 5 0.000000 0.000000 0.000000 0.000000 0.044077 0.000000
# 6 0.000000 0.000000 0.000000 0.000000 0.000000 0.016750
#
#
# Mechanical properties :
#
#
# Convention : Reuss Voigt Hill
#
# Bulk Modulus (GPa) = 33.09522 53.20507 43.15015
# Shear Modulus (GPa) = 20.94521 34.73246 27.83884
#
# Velocity S-wave (km/s) = 3.08511 3.97280 3.55676
# Velocity P-wave (km/s) = 5.26590 6.72470 6.03951
#
# Compressibility (1/GPa) = 0.03021584
#
# Stress axis : x y z
#
# Youngs Moduli (GPa) = 68.53163 131.28762 45.42614
#
# Poissons Ratio (x) = 0.29674 -0.09666
# Poissons Ratio (y) = 0.15490 0.31212
# Poissons Ratio (z) = -0.14582 0.90206
#
# Static dielectric constant tensor:
#      x y z
#    x 1.759800 0.000000 0.000000 
#    y 0.000000 1.764250 0.000000 
#    z 0.000000 0.000000 1.860440 
# 
# From -- ./inp_files/6360.got.cif
#   From: 2010.05.17/outbox.cif.g08.bks.cpg/sg64_4_cif.got.tgz:6360.got - 2010.06.03 16:29:19.
