data_PCOD9482505
_publ_section_title
;
Structure prediction by ZEFSAII (Michael W. Deem and Ramdas Pophale) SiO2 
 PCOD9482505
Probable space group: C M C A
;
_chemical_formula_sum "Si O2"
_cell_formula_units_Z 48
_cell_length_a 24.000000
_cell_length_b 18.000000
_cell_length_c 12.000000
_cell_angle_alpha 90.000000
_cell_angle_beta 90.000000
_cell_angle_gamma 90.000000
_cell_volume 5184.000000
_symmetry_space_group_name_H-M "C M C A"
_symmetry_group_IT_number 64
_symmetry_cell_setting 'orthorhombic'
loop_
_space_group_symop_operation_xyz
x,y,z
-x,1/2-y,1/2+z
x,-y,-z
-x,1/2+y,1/2-z
-x,-y,-z
x,1/2+y,1/2-z
-x,y,z
x,1/2-y,1/2+z
1/2+x,1/2+y,z
1/2-x,-y,1/2+z
1/2+x,1/2-y,-z
1/2-x,y,1/2-z
1/2-x,1/2-y,-z
1/2+x,y,1/2-z
1/2-x,1/2+y,z
1/2+x,-y,1/2+z
loop_
_atom_site_type_symbol
_atom_site_label
_atom_site_fract_x
_atom_site_fract_y
_atom_site_fract_z
Si Si1 0.935200 0.445868 0.255128
Si Si2 0.350201 0.080182 0.948539
Si Si3 0.753294 0.807898 0.110965
Si Si4 0.881792 0.339865 0.437696
Si Si5 0.933553 0.822104 0.598355
Si Si6 0.436558 0.614735 0.158922
O O1 0.890876 0.434705 0.156434
O O2 0.916168 0.392191 0.354311
O O3 0.932625 0.530127 0.299423
O O4 0.000000 0.431476 0.221961
O O5 0.297358 0.132967 0.913620
O O6 0.391756 0.121107 0.036201
O O7 0.332398 0.000000 0.000000
O O8 0.750000 0.787011 0.250000
O O9 0.816596 0.838026 0.096158
O O10 0.750000 0.750000 0.000000
O O11 0.909576 0.258622 0.430222
O O12 0.892423 0.367862 0.563258
O O13 0.929296 0.835438 0.731047
O O14 0.000000 0.830564 0.569553
O O15 0.500000 0.626451 0.115576
#
# Coordination Sequence:
#
# PCOD9482505 Si02
#       6
#    16  16  16  16  16  16
#     4  11  23  42  70 101 143 183 229 289 360 426
#     4  12  25  46  70 102 139 186 239 290 352 430
#     4  12  28  51  74 100 140 190 241 302 358 419
#     4  12  25  43  70  98 140 181 238 287 357 419
#     4  11  24  41  68 106 142 180 229 292 363 432
#     4  10  23  42  66 104 142 180 228 288 358 430
#
# _framework density 9.2592590000000001
#
# number of rings (size 3 to 8) (size 9 to 14) (size 15 to 20)
#    0.000    0.667    5.000    2.500    4.667    3.333 
#    0.000    0.000    0.000    0.000    0.000    0.000 
#    0.000    0.000    0.000    0.000    0.000    0.000 
#
# Total GULP energy -267772.231601 kJ/mol
# GULP energy per Si atom -5578.588158 kJ/mol
# Density = 0.923818 g / cm^3
# Si number density = 9.259259 Si / 1000 Ang^3
#
#
#
# Elastic Constant Matrix: (Units=GPa)
#
#
# Indices 1 2 3 4 5 6 
#
# 1 147.7070 43.0102 49.0358 0.0000 0.0000 0.0000
# 2 43.0102 80.6586 35.5969 0.0000 0.0000 0.0000
# 3 49.0358 35.5969 121.7701 0.0000 0.0000 0.0000
# 4 0.0000 0.0000 0.0000 60.9101 0.0000 0.0000
# 5 0.0000 0.0000 0.0000 0.0000 44.8828 0.0000
# 6 0.0000 0.0000 0.0000 0.0000 0.0000 33.7004
#
#
#
# Elastic Compliance Matrix: (Units=1/GPa)
#
#
# Indices 1 2 3 4 5 6 
#
# 1 0.008602 -0.003511 -0.002437 0.000000 0.000000 0.000000
# 2 -0.003511 0.015667 -0.003166 0.000000 0.000000 0.000000
# 3 -0.002437 -0.003166 0.010119 0.000000 0.000000 0.000000
# 4 0.000000 0.000000 0.000000 0.016418 0.000000 0.000000
# 5 0.000000 0.000000 0.000000 0.000000 0.022280 0.000000
# 6 0.000000 0.000000 0.000000 0.000000 0.000000 0.029673
#
#
# Mechanical properties :
#
#
# Convention : Reuss Voigt Hill
#
# Bulk Modulus (GPa) = 61.88452 67.26905 64.57678
# Shear Modulus (GPa) = 39.56467 42.73151 41.14809
#
# Velocity S-wave (km/s) = 4.62724 4.80886 4.71892
# Velocity P-wave (km/s) = 7.87646 8.19986 8.03978
#
# Compressibility (1/GPa) = 0.01615913
#
# Stress axis : x y z
#
# Youngs Moduli (GPa) = 116.25588 63.82647 98.82094
#
# Poissons Ratio (x) = 0.22410 0.24087
# Poissons Ratio (y) = 0.40818 0.31289
# Poissons Ratio (z) = 0.28337 0.20209
#
# Static dielectric constant tensor:
#      x y z
#    x 1.613190 0.000000 0.000000 
#    y 0.000000 1.658440 0.000000 
#    z 0.000000 0.000000 1.669780 
# 
# From -- ./inp_files/18363.got.cif
#   From: 2010.05.17/outbox.ucp.g08.bks.cvg/sg64_10_cif.got.tgz:18363.got - 2010.06.11 16:36:46.
