data_PCOD9482434
_publ_section_title
;
Structure prediction by ZEFSAII (Michael W. Deem and Ramdas Pophale) SiO2 
 PCOD9482434
Probable space group: C M C A
;
_chemical_formula_sum "Si O2"
_cell_formula_units_Z 48
_cell_length_a 9.000000
_cell_length_b 24.000000
_cell_length_c 24.000000
_cell_angle_alpha 90.000000
_cell_angle_beta 90.000000
_cell_angle_gamma 90.000000
_cell_volume 5184.000000
_symmetry_space_group_name_H-M "C M C A"
_symmetry_group_IT_number 64
_symmetry_cell_setting 'orthorhombic'
loop_
_space_group_symop_operation_xyz
x,y,z
-x,1/2-y,1/2+z
x,-y,-z
-x,1/2+y,1/2-z
-x,-y,-z
x,1/2+y,1/2-z
-x,y,z
x,1/2-y,1/2+z
1/2+x,1/2+y,z
1/2-x,-y,1/2+z
1/2+x,1/2-y,-z
1/2-x,y,1/2-z
1/2-x,1/2-y,-z
1/2+x,y,1/2-z
1/2-x,1/2+y,z
1/2+x,-y,1/2+z
loop_
_atom_site_type_symbol
_atom_site_label
_atom_site_fract_x
_atom_site_fract_y
_atom_site_fract_z
Si Si1 0.676999 0.310614 0.995894
Si Si2 0.176449 0.249498 0.809657
Si Si3 0.672025 0.335437 0.394659
Si Si4 0.175277 0.953396 0.806004
Si Si5 0.671158 0.571105 0.696126
Si Si6 0.324485 0.847488 0.629177
O O1 0.500000 0.307228 0.003247
O O2 0.750275 0.344060 0.046383
O O3 0.750000 0.250000 0.000000
O O4 0.708102 0.334213 0.934778
O O5 0.250000 0.237158 0.750000
O O6 0.242074 0.210412 0.858250
O O7 0.225914 0.310514 0.829819
O O8 0.000000 0.243764 0.805792
O O9 0.500000 0.317936 0.402218
O O10 0.676941 0.390034 0.357037
O O11 0.250000 0.929919 0.750000
O O12 0.200592 0.911565 0.856363
O O13 0.000000 0.958511 0.797230
O O14 0.246956 0.013345 0.814822
O O15 0.500000 0.560961 0.710480
O O16 0.750000 0.597799 0.750000
O O17 0.500000 0.834722 0.639350
#
# Coordination Sequence:
#
# PCOD9482434 Si02
#       6
#    16  16  16  16  16  16
#     4  11  22  38  60  84 114 154 196 237 288 341
#     4  12  24  36  56  84 115 150 186 233 291 344
#     4  11  23  39  58  83 116 150 193 239 285 343
#     4  10  20  36  59  85 114 150 187 233 286 341
#     4  10  21  37  59  85 114 150 188 236 288 342
#     4  10  22  39  58  83 116 150 191 237 283 342
#
# _framework density 9.2592590000000001
#
# number of rings (size 3 to 8) (size 9 to 14) (size 15 to 20)
#    0.000    1.333    1.667    5.500    0.000    7.333 
#    0.000    0.833    0.000    5.000    0.000    0.000 
#    0.000    0.000    0.000    0.000    0.000    0.000 
#
# Total GULP energy -268094.458823 kJ/mol
# GULP energy per Si atom -5585.301225 kJ/mol
# Density = 0.923818 g / cm^3
# Si number density = 9.259259 Si / 1000 Ang^3
#
#
#
# Elastic Constant Matrix: (Units=GPa)
#
#
# Indices 1 2 3 4 5 6 
#
# 1 113.3364 38.1064 50.0360 0.0000 0.0000 0.0000
# 2 38.1064 58.6498 37.4490 0.0000 0.0000 0.0000
# 3 50.0360 37.4490 77.3023 0.0000 0.0000 0.0000
# 4 0.0000 0.0000 0.0000 21.8580 0.0000 0.0000
# 5 0.0000 0.0000 0.0000 0.0000 32.9793 0.0000
# 6 0.0000 0.0000 0.0000 0.0000 0.0000 13.8752
#
#
#
# Elastic Compliance Matrix: (Units=1/GPa)
#
#
# Indices 1 2 3 4 5 6 
#
# 1 0.013123 -0.004492 -0.006318 0.000000 0.000000 0.000000
# 2 -0.004492 0.026224 -0.009797 0.000000 0.000000 0.000000
# 3 -0.006318 -0.009797 0.021772 0.000000 0.000000 0.000000
# 4 0.000000 0.000000 0.000000 0.045750 0.000000 0.000000
# 5 0.000000 0.000000 0.000000 0.000000 0.030322 0.000000
# 6 0.000000 0.000000 0.000000 0.000000 0.000000 0.072071
#
#
# Mechanical properties :
#
#
# Convention : Reuss Voigt Hill
#
# Bulk Modulus (GPa) = 50.23765 55.60790 52.92278
# Shear Modulus (GPa) = 19.44689 21.98898 20.71793
#
# Velocity S-wave (km/s) = 3.24409 3.44961 3.34843
# Velocity P-wave (km/s) = 6.42023 6.77937 6.60224
#
# Compressibility (1/GPa) = 0.01990539
#
# Stress axis : x y z
#
# Youngs Moduli (GPa) = 76.20249 38.13231 45.93130
#
# Poissons Ratio (x) = 0.17130 0.29019
# Poissons Ratio (y) = 0.34232 0.44997
# Poissons Ratio (z) = 0.48144 0.37357
#
# Static dielectric constant tensor:
#      x y z
#    x 1.620300 0.000000 0.000000 
#    y 0.000000 1.656260 0.000000 
#    z 0.000000 0.000000 1.713710 
# 
# From -- ./inp_files/43043.got.cif
#   From: 2010.05.17/outbox.ucp.g08.bks.cvg/sg64_22_cif.got.tgz:43043.got - 2010.06.11 16:36:46.
