data_PCOD9482246
_publ_section_title
;
Structure prediction by ZEFSAII (Michael W. Deem and Ramdas Pophale) SiO2 
 PCOD9482246
Probable space group: C M C A
;
_chemical_formula_sum "Si O2"
_cell_formula_units_Z 64
_cell_length_a 10.027935
_cell_length_b 28.537731
_cell_length_c 11.617904
_cell_angle_alpha 90.000000
_cell_angle_beta 90.000000
_cell_angle_gamma 90.000000
_cell_volume 3324.748002
_symmetry_space_group_name_H-M "C M C A"
_symmetry_group_IT_number 64
_symmetry_cell_setting 'orthorhombic'
loop_
_space_group_symop_operation_xyz
x,y,z
-x,1/2-y,1/2+z
x,-y,-z
-x,1/2+y,1/2-z
-x,-y,-z
x,1/2+y,1/2-z
-x,y,z
x,1/2-y,1/2+z
1/2+x,1/2+y,z
1/2-x,-y,1/2+z
1/2+x,1/2-y,-z
1/2-x,y,1/2-z
1/2-x,1/2-y,-z
1/2+x,y,1/2-z
1/2-x,1/2+y,z
1/2+x,-y,1/2+z
loop_
_atom_site_type_symbol
_atom_site_label
_atom_site_fract_x
_atom_site_fract_y
_atom_site_fract_z
Si Si1 0.250000 0.161732 0.250000
Si Si2 0.753640 0.608001 0.888780
Si Si3 0.000000 0.401893 0.737978
Si Si4 0.339621 0.703829 0.486151
Si Si5 0.000000 0.556083 0.003021
Si Si6 0.500000 0.555899 0.001919
O O1 0.370437 0.128890 0.287468
O O2 0.313226 0.190243 0.146031
O O3 0.750000 0.608997 0.750000
O O4 0.782765 0.660508 0.937616
O O5 0.874011 0.576587 0.936113
O O6 0.624376 0.582745 0.942892
O O7 0.000000 0.439248 0.639227
O O8 0.000000 0.422500 0.867065
O O9 0.500000 0.709508 0.506762
O O10 0.250000 0.750000 0.500000
O O11 0.000000 0.500000 0.000000
O O12 0.500000 0.500000 0.000000
#
# Coordination Sequence:
#
# PCOD9482246 Si02
#       6
#     8  16   8  16   8   8
#     4  12  22  48  70 100 140 182 238 298 350 416
#     4  12  26  48  69 102 151 185 230 292 355 424
#     4  12  22  44  76  96 140 188 240 296 340 414
#     4  12  28  48  73 106 138 188 237 292 365 425
#     4  12  25  48  73 102 141 196 235 291 358 414
#     4  12  27  44  71 112 137 186 243 287 344 412
#
# _framework density 19.249579000000001
#
# number of rings (size 3 to 8) (size 9 to 14) (size 15 to 20)
#    0.000    0.000    7.500    1.500    8.750    0.000 
#    0.000    0.000    0.000    0.000    0.000    0.000 
#    0.000    0.000    0.000    0.000    0.000    0.000 
#
# Total GULP energy -178657.731382 kJ/mol
# GULP energy per Si atom -5583.054106 kJ/mol
# Density = 1.920577 g / cm^3
# Si number density = 19.249579 Si / 1000 Ang^3
#
#
#
# Elastic Constant Matrix: (Units=GPa)
#
#
# Indices 1 2 3 4 5 6 
#
# 1 201.6277 85.9738 44.2366 0.0000 0.0000 0.0000
# 2 85.9738 182.0812 53.7066 0.0000 0.0000 0.0000
# 3 44.2366 53.7066 148.9198 0.0000 0.0000 0.0000
# 4 0.0000 0.0000 0.0000 28.1348 0.0000 0.0000
# 5 0.0000 0.0000 0.0000 0.0000 34.0553 0.0000
# 6 0.0000 0.0000 0.0000 0.0000 0.0000 68.6813
#
#
#
# Elastic Compliance Matrix: (Units=1/GPa)
#
#
# Indices 1 2 3 4 5 6 
#
# 1 0.006315 -0.002718 -0.000896 0.000000 0.000000 0.000000
# 2 -0.002718 0.007315 -0.001831 0.000000 0.000000 0.000000
# 3 -0.000896 -0.001831 0.007641 0.000000 0.000000 0.000000
# 4 0.000000 0.000000 0.000000 0.035543 0.000000 0.000000
# 5 0.000000 0.000000 0.000000 0.000000 0.029364 0.000000
# 6 0.000000 0.000000 0.000000 0.000000 0.000000 0.014560
#
#
# Mechanical properties :
#
#
# Convention : Reuss Voigt Hill
#
# Bulk Modulus (GPa) = 96.31040 100.05139 98.18090
# Shear Modulus (GPa) = 43.44492 49.42173 46.43332
#
# Velocity S-wave (km/s) = 4.75587 5.07247 4.91672
# Velocity P-wave (km/s) = 8.96096 9.29491 9.12946
#
# Compressibility (1/GPa) = 0.01038309
#
# Stress axis : x y z
#
# Youngs Moduli (GPa) = 158.35528 136.70087 130.86552
#
# Poissons Ratio (x) = 0.37149 0.11723
# Poissons Ratio (y) = 0.43033 0.23961
# Poissons Ratio (z) = 0.14185 0.25029
#
# Static dielectric constant tensor:
#      x y z
#    x 1.656250 0.000000 0.000000 
#    y 0.000000 1.297410 0.000000 
#    z 0.000000 0.000000 2.150660 
# 
# From -- ./inp_files/12199.got.cif
#   From: 2010.05.17/outbox.cif.g08.bks.cpg/sg64_7_cif.got.tgz:12199.got - 2010.06.03 16:29:19.
