data_PCOD9482974
_publ_section_title
;
Structure prediction by ZEFSAII (Michael W. Deem and Ramdas Pophale) SiO2 
 PCOD9482974
Probable space group: C M M M
;
_chemical_formula_sum "Si O2"
_cell_formula_units_Z 60
_cell_length_a 14.645755
_cell_length_b 20.839460
_cell_length_c 11.525736
_cell_angle_alpha 90.000000
_cell_angle_beta 90.000000
_cell_angle_gamma 90.000000
_cell_volume 3517.765568
_symmetry_space_group_name_H-M "C M M M"
_symmetry_group_IT_number 65
_symmetry_cell_setting 'orthorhombic'
loop_
_space_group_symop_operation_xyz
x,y,z
-x,-y,z
x,-y,-z
-x,y,-z
-x,-y,-z
x,y,-z
-x,y,z
x,-y,z
1/2+x,1/2+y,z
1/2-x,1/2-y,z
1/2+x,1/2-y,-z
1/2-x,1/2+y,-z
1/2-x,1/2-y,-z
1/2+x,1/2+y,-z
1/2-x,1/2+y,z
1/2+x,1/2-y,z
loop_
_atom_site_type_symbol
_atom_site_label
_atom_site_fract_x
_atom_site_fract_y
_atom_site_fract_z
Si Si1 0.000000 0.233215 0.703906
Si Si2 0.819516 0.575486 0.500000
Si Si3 0.801537 0.071860 0.730361
Si Si4 0.000000 0.663042 0.500000
Si Si5 0.500000 0.409375 0.369100
Si Si6 0.668313 0.300680 0.132480
O O1 0.000000 0.292330 0.615210
O O2 0.000000 0.167638 0.631205
O O3 0.088629 0.227051 0.785714
O O4 0.844825 0.500000 0.500000
O O5 0.757921 0.586399 0.385098
O O6 0.908916 0.619576 0.500000
O O7 0.796373 0.130862 0.819123
O O8 0.907683 0.070075 0.693482
O O9 0.775856 0.000000 0.772020
O O10 0.500000 0.432171 0.500000
O O11 0.750000 0.250000 0.134187
O O12 0.635712 0.308512 0.000000
#
# Coordination Sequence:
#
# PCOD9482974 Si02
#       6
#     8   8  16   4   8  16
#     4  10  21  34  52  78 103 134 171 218 254 307
#     4  10  21  34  50  76 108 137 172 217 262 307
#     4  10  20  33  53  79 107 138 169 207 257 315
#     4  12  21  34  54  74 101 142 182 216 260 308
#     4  10  17  31  49  77 106 132 160 193 247 309
#     4  10  21  37  55  75 103 138 176 219 261 302
#
# _framework density 17.056281999999999
#
# number of rings (size 3 to 8) (size 9 to 14) (size 15 to 20)
#    0.000    1.867    2.000    2.600    0.000    1.067 
#    0.000    4.000    0.000    4.800    0.000    0.000 
#    0.000   19.200    0.000    0.000    0.000    0.000 
#
# Total GULP energy -167305.349217 kJ/mol
# GULP energy per Si atom -5576.844974 kJ/mol
# Density = 1.701746 g / cm^3
# Si number density = 17.056282 Si / 1000 Ang^3
#
#
#
# Elastic Constant Matrix: (Units=GPa)
#
#
# Indices 1 2 3 4 5 6 
#
# 1 91.0081 55.6182 40.6534 0.0000 0.0000 0.0000
# 2 55.6182 123.2590 68.3254 0.0000 0.0000 0.0000
# 3 40.6534 68.3254 117.9667 0.0000 0.0000 0.0000
# 4 0.0000 0.0000 0.0000 21.3639 0.0000 0.0000
# 5 0.0000 0.0000 0.0000 0.0000 20.1687 0.0000
# 6 0.0000 0.0000 0.0000 0.0000 0.0000 21.3169
#
#
#
# Elastic Compliance Matrix: (Units=1/GPa)
#
#
# Indices 1 2 3 4 5 6 
#
# 1 0.015454 -0.005923 -0.001895 0.000000 0.000000 0.000000
# 2 -0.005923 0.014219 -0.006195 0.000000 0.000000 0.000000
# 3 -0.001895 -0.006195 0.012718 0.000000 0.000000 0.000000
# 4 0.000000 0.000000 0.000000 0.046808 0.000000 0.000000
# 5 0.000000 0.000000 0.000000 0.000000 0.049582 0.000000
# 6 0.000000 0.000000 0.000000 0.000000 0.000000 0.046911
#
#
# Mechanical properties :
#
#
# Convention : Reuss Voigt Hill
#
# Bulk Modulus (GPa) = 69.60845 73.49198 71.55021
# Shear Modulus (GPa) = 22.88255 23.74568 23.31411
#
# Velocity S-wave (km/s) = 3.66675 3.73526 3.70116
# Velocity P-wave (km/s) = 7.66983 7.86030 7.76565
#
# Compressibility (1/GPa) = 0.01436607
#
# Stress axis : x y z
#
# Youngs Moduli (GPa) = 64.70670 70.32644 78.62844
#
# Poissons Ratio (x) = 0.41653 0.14903
# Poissons Ratio (y) = 0.38325 0.48708
# Poissons Ratio (z) = 0.12264 0.43565
#
# Static dielectric constant tensor:
#      x y z
#    x 1.523360 0.000000 0.000000 
#    y 0.000000 1.591400 0.000000 
#    z 0.000000 0.000000 1.558710 
# 
# From -- ./inp_files/24195.got.cif
#   From: 2010.05.17/outbox.cif.g08.bks.cpg/sg65_13_cif.got.tgz:24195.got - 2010.06.03 17:01:31.
