data_PCOD9482467
_publ_section_title
;
Structure prediction by ZEFSAII (Michael W. Deem and Ramdas Pophale) SiO2 
 PCOD9482467
Probable space group: C M C A
;
_chemical_formula_sum "Si O2"
_cell_formula_units_Z 40
_cell_length_a 27.000000
_cell_length_b 18.000000
_cell_length_c 9.000000
_cell_angle_alpha 90.000000
_cell_angle_beta 90.000000
_cell_angle_gamma 90.000000
_cell_volume 4374.000000
_symmetry_space_group_name_H-M "C M C A"
_symmetry_group_IT_number 64
_symmetry_cell_setting 'orthorhombic'
loop_
_space_group_symop_operation_xyz
x,y,z
-x,1/2-y,1/2+z
x,-y,-z
-x,1/2+y,1/2-z
-x,-y,-z
x,1/2+y,1/2-z
-x,y,z
x,1/2-y,1/2+z
1/2+x,1/2+y,z
1/2-x,-y,1/2+z
1/2+x,1/2-y,-z
1/2-x,y,1/2-z
1/2-x,1/2-y,-z
1/2+x,y,1/2-z
1/2-x,1/2+y,z
1/2+x,-y,1/2+z
loop_
_atom_site_type_symbol
_atom_site_label
_atom_site_fract_x
_atom_site_fract_y
_atom_site_fract_z
Si Si1 0.714337 0.792597 0.885902
Si Si2 0.056130 0.330637 0.814514
Si Si3 0.555866 0.912877 0.505992
Si Si4 0.378121 0.312589 0.198636
Si Si5 0.361017 0.909390 0.012052
O O1 0.750000 0.811620 0.750000
O O2 0.670977 0.733787 0.843769
O O3 0.686767 0.866955 0.942901
O O4 0.750000 0.750000 0.000000
O O5 0.053355 0.384140 0.673242
O O6 0.082209 0.253139 0.766493
O O7 0.091163 0.374422 0.928832
O O8 0.000000 0.316699 0.869603
O O9 0.500000 0.904131 0.440246
O O10 0.596207 0.861123 0.428650
O O11 0.568331 0.000000 0.500000
O O12 0.365767 0.372628 0.325221
O O13 0.359506 0.000000 0.000000
#
# Coordination Sequence:
#
# PCOD9482467 Si02
#       5
#    16  16  16  16  16
#     4  11  23  45  66  86 118 157 205 259 309 370
#     4  10  21  37  61  90 123 166 205 242 297 364
#     4  10  21  37  57  88 125 160 198 243 299 361
#     4  11  22  38  64  87 120 158 206 252 298 368
#     4  11  24  41  61  94 127 157 204 261 317 367
#
# _framework density 9.1449470000000002
#
# number of rings (size 3 to 8) (size 9 to 14) (size 15 to 20)
#    0.000    1.400    2.000    4.200    2.800    3.600 
#    3.600    0.000    0.000    0.000    0.000    0.000 
#    0.000    0.000    0.000    0.000    0.000    0.000 
#
# Total GULP energy -223074.035672 kJ/mol
# GULP energy per Si atom -5576.850892 kJ/mol
# Density = 0.912413 g / cm^3
# Si number density = 9.144947 Si / 1000 Ang^3
#
#
#
# Elastic Constant Matrix: (Units=GPa)
#
#
# Indices 1 2 3 4 5 6 
#
# 1 131.2364 45.6393 34.3828 0.0000 0.0000 0.0000
# 2 45.6393 147.6313 20.3038 0.0000 0.0000 0.0000
# 3 34.3828 20.3038 56.8872 0.0000 0.0000 0.0000
# 4 0.0000 0.0000 0.0000 27.6470 0.0000 0.0000
# 5 0.0000 0.0000 0.0000 0.0000 18.8948 0.0000
# 6 0.0000 0.0000 0.0000 0.0000 0.0000 33.1709
#
#
#
# Elastic Compliance Matrix: (Units=1/GPa)
#
#
# Indices 1 2 3 4 5 6 
#
# 1 0.009754 -0.002318 -0.005068 0.000000 0.000000 0.000000
# 2 -0.002318 0.007674 -0.001338 0.000000 0.000000 0.000000
# 3 -0.005068 -0.001338 0.021119 0.000000 0.000000 0.000000
# 4 0.000000 0.000000 0.000000 0.036170 0.000000 0.000000
# 5 0.000000 0.000000 0.000000 0.000000 0.052925 0.000000
# 6 0.000000 0.000000 0.000000 0.000000 0.000000 0.030147
#
#
# Mechanical properties :
#
#
# Convention : Reuss Voigt Hill
#
# Bulk Modulus (GPa) = 47.39494 59.60072 53.49783
# Shear Modulus (GPa) = 27.43181 31.63780 29.53480
#
# Velocity S-wave (km/s) = 3.87697 4.16359 4.02284
# Velocity P-wave (km/s) = 6.78311 7.46803 7.13380
#
# Compressibility (1/GPa) = 0.02109930
#
# Stress axis : x y z
#
# Youngs Moduli (GPa) = 102.52426 130.30455 47.35047
#
# Poissons Ratio (x) = 0.30209 0.23996
# Poissons Ratio (y) = 0.23769 0.06335
# Poissons Ratio (z) = 0.51957 0.17433
#
# Static dielectric constant tensor:
#      x y z
#    x 1.644960 0.000000 0.000000 
#    y 0.000000 1.603390 0.000000 
#    z 0.000000 0.000000 1.641030 
# 
# From -- ./inp_files/10203.got.cif
#   From: 2010.05.17/outbox.ucp.g08.bks.cvg/sg64_6_cif.got.tgz:10203.got - 2010.06.11 16:36:46.
