data_PCOD9482054
_publ_section_title
;
Structure prediction by ZEFSAII (Michael W. Deem and Ramdas Pophale) SiO2 
 PCOD9482054
Probable space group: C M C A
;
_chemical_formula_sum "Si O2"
_cell_formula_units_Z 64
_cell_length_a 16.334083
_cell_length_b 8.200664
_cell_length_c 18.753757
_cell_angle_alpha 90.000000
_cell_angle_beta 90.000000
_cell_angle_gamma 90.000000
_cell_volume 2512.071872
_symmetry_space_group_name_H-M "C M C A"
_symmetry_group_IT_number 64
_symmetry_cell_setting 'orthorhombic'
loop_
_space_group_symop_operation_xyz
x,y,z
-x,1/2-y,1/2+z
x,-y,-z
-x,1/2+y,1/2-z
-x,-y,-z
x,1/2+y,1/2-z
-x,y,z
x,1/2-y,1/2+z
1/2+x,1/2+y,z
1/2-x,-y,1/2+z
1/2+x,1/2-y,-z
1/2-x,y,1/2-z
1/2-x,1/2-y,-z
1/2+x,y,1/2-z
1/2-x,1/2+y,z
1/2+x,-y,1/2+z
loop_
_atom_site_type_symbol
_atom_site_label
_atom_site_fract_x
_atom_site_fract_y
_atom_site_fract_z
Si Si1 0.406851 0.736739 0.735155
Si Si2 0.165691 0.562016 0.146483
Si Si3 0.594628 0.751820 0.979770
Si Si4 0.353141 0.937370 0.608354
O O1 0.500000 0.718625 0.760206
O O2 0.376070 0.583560 0.689780
O O3 0.348395 0.784247 0.800524
O O4 0.402093 0.882650 0.677625
O O5 0.123392 0.603081 0.071286
O O6 0.260341 0.531886 0.131475
O O7 0.500000 0.769721 0.999765
O O8 0.606889 0.589988 0.931270
O O9 0.645767 0.710554 0.050586
#
# Coordination Sequence:
#
# PCOD9482054 Si02
#       4
#    16  16  16  16
#     4  12  25  44  67  98 134 176 224 278 334 396
#     4  12  26  44  68 100 136 177 225 279 334 397
#     4  11  23  45  72 102 137 179 222 274 337 404
#     4  11  24  43  68 100 137 178 220 273 337 403
#
# _framework density 25.476977999999999
#
# number of rings (size 3 to 8) (size 9 to 14) (size 15 to 20)
#    0.000    0.500    0.000    9.750    0.000    5.000 
#    0.000    2.500    0.000    0.000    0.000    0.000 
#    0.000    0.000    0.000    0.000    0.000    0.000 
#
# Total GULP energy -179672.452165 kJ/mol
# GULP energy per Si atom -5614.764130 kJ/mol
# Density = 2.541899 g / cm^3
# Si number density = 25.476978 Si / 1000 Ang^3
#
#
#
# Elastic Constant Matrix: (Units=GPa)
#
#
# Indices 1 2 3 4 5 6 
#
# 1 128.2888 11.7634 0.6201 0.0000 0.0000 0.0000
# 2 11.7634 66.3262 13.4228 0.0000 0.0000 0.0000
# 3 0.6201 13.4228 127.4491 0.0000 0.0000 0.0000
# 4 0.0000 0.0000 0.0000 55.8447 0.0000 0.0000
# 5 0.0000 0.0000 0.0000 0.0000 331.4679 0.0000
# 6 0.0000 0.0000 0.0000 0.0000 0.0000 27.6828
#
#
#
# Elastic Compliance Matrix: (Units=1/GPa)
#
#
# Indices 1 2 3 4 5 6 
#
# 1 0.007925 -0.001428 0.000112 0.000000 0.000000 0.000000
# 2 -0.001428 0.015663 -0.001643 0.000000 0.000000 0.000000
# 3 0.000112 -0.001643 0.008019 0.000000 0.000000 0.000000
# 4 0.000000 0.000000 0.000000 0.017907 0.000000 0.000000
# 5 0.000000 0.000000 0.000000 0.000000 0.003017 0.000000
# 6 0.000000 0.000000 0.000000 0.000000 0.000000 0.036124
#
#
# Mechanical properties :
#
#
# Convention : Reuss Voigt Hill
#
# Bulk Modulus (GPa) = 38.92755 41.51965 40.22360
# Shear Modulus (GPa) = 48.48016 102.74961 75.61488
#
# Velocity S-wave (km/s) = 4.36696 6.35751 5.45382
# Velocity P-wave (km/s) = 6.38277 8.37991 7.44858
#
# Compressibility (1/GPa) = 0.02568875
#
# Stress axis : x y z
#
# Youngs Moduli (GPa) = 126.17762 63.84574 124.70808
#
# Poissons Ratio (x) = 0.09119 -0.01395
# Poissons Ratio (y) = 0.18021 0.20485
# Poissons Ratio (z) = -0.01411 0.10488
#
# Static dielectric constant tensor:
#      x y z
#    x 1.860670 0.000000 0.000000 
#    y 0.000000 2.152440 0.000000 
#    z 0.000000 0.000000 1.973650 
# 
# From -- ./inp_files/31646.got.cif
#   From: 2010.05.17/outbox.cif.g08.bks.cpg/sg64_16_cif.got.tgz:31646.got - 2010.06.03 16:29:19.
