data_PCOD9482827
_publ_section_title
;
Structure prediction by ZEFSAII (Michael W. Deem and Ramdas Pophale) SiO2 
 PCOD9482827
Probable space group: C M M M
;
_chemical_formula_sum "Si O2"
_cell_formula_units_Z 88
_cell_length_a 23.967571
_cell_length_b 24.975479
_cell_length_c 7.539981
_cell_angle_alpha 90.000000
_cell_angle_beta 90.000000
_cell_angle_gamma 90.000000
_cell_volume 4513.444436
_symmetry_space_group_name_H-M "C M M M"
_symmetry_group_IT_number 65
_symmetry_cell_setting 'orthorhombic'
loop_
_space_group_symop_operation_xyz
x,y,z
-x,-y,z
x,-y,-z
-x,y,-z
-x,-y,-z
x,y,-z
-x,y,z
x,-y,z
1/2+x,1/2+y,z
1/2-x,1/2-y,z
1/2+x,1/2-y,-z
1/2-x,1/2+y,-z
1/2-x,1/2-y,-z
1/2+x,1/2+y,-z
1/2-x,1/2+y,z
1/2+x,1/2-y,z
loop_
_atom_site_type_symbol
_atom_site_label
_atom_site_fract_x
_atom_site_fract_y
_atom_site_fract_z
Si Si1 0.388849 0.121831 0.708741
Si Si2 0.219514 0.438086 0.283852
Si Si3 0.154730 0.061606 0.716787
Si Si4 0.936587 0.266851 0.788863
Si Si5 0.563215 0.354723 0.711453
Si Si6 0.000000 0.437710 0.282824
O O1 0.388082 0.109103 0.500000
O O2 0.330779 0.099021 0.780936
O O3 0.397708 0.185083 0.727091
O O4 0.444193 0.092380 0.780449
O O5 0.220622 0.436110 0.500000
O O6 0.208611 0.500000 0.235725
O O7 0.282297 0.424018 0.226078
O O8 0.154542 0.062629 0.500000
O O9 0.107888 0.102751 0.780343
O O10 0.143670 0.000000 0.768268
O O11 0.919219 0.206754 0.740773
O O12 0.000000 0.275024 0.718469
O O13 0.939087 0.269956 0.000000
O O14 0.560035 0.362737 0.500000
O O15 0.500000 0.360757 0.782718
O O16 0.000000 0.500000 0.233086
O O17 0.000000 0.435573 0.500000
#
# Coordination Sequence:
#
# PCOD9482827 Si02
#       6
#    16  16  16  16  16   8
#     4  10  17  27  46  69  91 118 154 192 226 264
#     4   8  14  25  43  68  96 123 149 180 224 275
#     4   8  14  26  45  71 100 122 142 178 228 276
#     4  10  20  33  47  63  89 124 157 190 232 275
#     4   9  17  29  48  72  94 117 150 189 226 268
#     4   9  16  24  39  67  95 113 140 189 234 261
#
# _framework density 19.497304
#
# number of rings (size 3 to 8) (size 9 to 14) (size 15 to 20)
#    0.000    3.000    0.909    2.182    0.000    3.273 
#    0.000    2.727    0.000    9.818    0.000    5.091 
#    0.000    0.000    0.000    0.000    0.000    0.000 
#
# Total GULP energy -245388.452536 kJ/mol
# GULP energy per Si atom -5577.010285 kJ/mol
# Density = 1.945293 g / cm^3
# Si number density = 19.497304 Si / 1000 Ang^3
#
#
#
# Elastic Constant Matrix: (Units=GPa)
#
#
# Indices 1 2 3 4 5 6 
#
# 1 165.9917 132.5959 4.1969 0.0000 0.0000 0.0000
# 2 132.5959 150.8449 -7.5568 0.0000 0.0000 0.0000
# 3 4.1969 -7.5568 45.2557 0.0000 0.0000 0.0000
# 4 0.0000 0.0000 0.0000 -86.9989 0.0000 0.0000
# 5 0.0000 0.0000 0.0000 0.0000 -4.6001 0.0000
# 6 0.0000 0.0000 0.0000 0.0000 0.0000 35.8153
#
#
#
# Elastic Compliance Matrix: (Units=1/GPa)
#
#
# Indices 1 2 3 4 5 6 
#
# 1 0.021359 -0.019033 -0.005159 0.000000 0.000000 0.000000
# 2 -0.019033 0.023646 0.005714 0.000000 0.000000 0.000000
# 3 -0.005159 0.005714 0.023529 0.000000 0.000000 0.000000
# 4 0.000000 0.000000 0.000000 -0.011494 0.000000 0.000000
# 5 0.000000 0.000000 0.000000 0.000000 -0.217385 0.000000
# 6 0.000000 0.000000 0.000000 0.000000 0.000000 0.027921
#
#
# Mechanical properties :
#
#
# Convention : Reuss Voigt Hill
#
# Bulk Modulus (GPa) = 31.66881 68.95159 50.31020
# Shear Modulus (GPa) = -58.86456 4.36701 -27.24878
#
# Velocity S-wave (km/s) = -5.50061 1.49822 -3.74246
# Velocity P-wave (km/s) = 4.90554 6.19954 2.68049
#
# Compressibility (1/GPa) = 0.03157681
#
# Stress axis : x y z
#
# Youngs Moduli (GPa) = 46.81892 42.28992 42.50047
#
# Poissons Ratio (x) = 0.80492 0.21926
# Poissons Ratio (y) = 0.89112 -0.24283
# Poissons Ratio (z) = 0.24154 -0.24163
#
# Static dielectric constant tensor:
#      x y z
#    x 1.686500 0.000000 0.000000 
#    y 0.000000 1.649280 0.000000 
#    z 0.000000 0.000000 1.719920 
# 
# From -- ./inp_files/13955.got.cif
#   From: 2010.05.17/outbox.cif.g08.bks.cpg/sg65_7_cif.got.tgz:13955.got - 2010.06.03 17:01:31.
