data_PCOD9482964
_publ_section_title
;
Structure prediction by ZEFSAII (Michael W. Deem and Ramdas Pophale) SiO2 
 PCOD9482964
Probable space group: C M M M
;
_chemical_formula_sum "Si O2"
_cell_formula_units_Z 100
_cell_length_a 8.232253
_cell_length_b 31.632850
_cell_length_c 20.749716
_cell_angle_alpha 90.000000
_cell_angle_beta 90.000000
_cell_angle_gamma 90.000000
_cell_volume 5403.425748
_symmetry_space_group_name_H-M "C M M M"
_symmetry_group_IT_number 65
_symmetry_cell_setting 'orthorhombic'
loop_
_space_group_symop_operation_xyz
x,y,z
-x,-y,z
x,-y,-z
-x,y,-z
-x,-y,-z
x,y,-z
-x,y,z
x,-y,z
1/2+x,1/2+y,z
1/2-x,1/2-y,z
1/2+x,1/2-y,-z
1/2-x,1/2+y,-z
1/2-x,1/2-y,-z
1/2+x,1/2+y,-z
1/2-x,1/2+y,z
1/2+x,1/2-y,z
loop_
_atom_site_type_symbol
_atom_site_label
_atom_site_fract_x
_atom_site_fract_y
_atom_site_fract_z
Si Si1 0.312084 0.682735 0.639087
Si Si2 0.500000 0.047212 0.383195
Si Si3 0.181079 0.693228 0.500000
Si Si4 0.302314 0.047804 0.073902
Si Si5 0.000000 0.610458 0.500000
Si Si6 0.310695 0.204497 0.778815
Si Si7 0.313386 0.414476 0.322710
Si Si8 0.699303 0.887001 0.815928
O O1 0.500000 0.692531 0.649888
O O2 0.262238 0.700569 0.569192
O O3 0.219066 0.699641 0.701778
O O4 0.292849 0.631642 0.643064
O O5 0.500000 0.081534 0.438679
O O6 0.332812 0.055523 0.344959
O O7 0.500000 0.000000 0.408844
O O8 0.000000 0.712796 0.500000
O O9 0.149834 0.642699 0.500000
O O10 0.500000 0.047607 0.073740
O O11 0.254026 0.084784 0.122738
O O12 0.251603 0.000000 0.093313
O O13 0.249898 0.054862 0.000000
O O14 0.500000 0.204030 0.789769
O O15 0.250000 0.250000 0.800306
O O16 0.246903 0.162191 0.813978
O O17 0.500000 0.428373 0.334066
O O18 0.280844 0.406499 0.247457
O O19 0.500000 0.888500 0.809144
#
# Coordination Sequence:
#
# PCOD9482964 Si02
#       8
#    16   8   8  16   4  16  16  16
#     4  10  19  32  53  76 100 131 171 219 270 329
#     4  12  23  38  54  74 107 142 183 241 290 337
#     4  10  17  30  55  72  96 130 172 217 259 331
#     4   8  14  26  48  81 116 147 184 228 273 326
#     4  10  21  36  56  70 102 134 192 226 278 342
#     4  10  20  33  51  74 106 140 178 224 273 330
#     4  10  20  35  54  77 103 138 185 229 280 341
#     4   9  17  31  54  81 112 147 184 224 278 337
#
# _framework density 18.506779000000002
#
# number of rings (size 3 to 8) (size 9 to 14) (size 15 to 20)
#    0.240    2.080    2.400    1.800    1.120    1.600 
#    0.000    0.800    0.000    1.920    0.000    1.120 
#    0.000    0.000    0.000    0.000    0.000    0.480 
#
# Total GULP energy -278578.063586 kJ/mol
# GULP energy per Si atom -5571.561272 kJ/mol
# Density = 1.846466 g / cm^3
# Si number density = 18.506779 Si / 1000 Ang^3
#
#
#
# Elastic Constant Matrix: (Units=GPa)
#
#
# Indices 1 2 3 4 5 6 
#
# 1 47.6701 19.5472 8.0418 0.0000 0.0000 0.0000
# 2 19.5472 112.1361 55.7810 0.0000 0.0000 0.0000
# 3 8.0418 55.7810 94.3624 0.0000 0.0000 0.0000
# 4 0.0000 0.0000 0.0000 -29.3943 0.0000 0.0000
# 5 0.0000 0.0000 0.0000 0.0000 11.8830 0.0000
# 6 0.0000 0.0000 0.0000 0.0000 0.0000 15.6714
#
#
#
# Elastic Compliance Matrix: (Units=1/GPa)
#
#
# Indices 1 2 3 4 5 6 
#
# 1 0.022614 -0.004226 0.000571 0.000000 0.000000 0.000000
# 2 -0.004226 0.013422 -0.007574 0.000000 0.000000 0.000000
# 3 0.000571 -0.007574 0.015026 0.000000 0.000000 0.000000
# 4 0.000000 0.000000 0.000000 -0.034020 0.000000 0.000000
# 5 0.000000 0.000000 0.000000 0.000000 0.084154 0.000000
# 6 0.000000 0.000000 0.000000 0.000000 0.000000 0.063811
#
#
# Mechanical properties :
#
#
# Convention : Reuss Voigt Hill
#
# Bulk Modulus (GPa) = 34.96032 46.76761 40.86396
# Shear Modulus (GPa) = 25.38082 11.01861 18.19971
#
# Velocity S-wave (km/s) = 3.70730 2.44269 3.13934
# Velocity P-wave (km/s) = 6.10385 5.76897 5.93877
#
# Compressibility (1/GPa) = 0.02860385
#
# Stress axis : x y z
#
# Youngs Moduli (GPa) = 44.22028 74.50423 66.55080
#
# Poissons Ratio (x) = 0.31485 -0.03800
# Poissons Ratio (y) = 0.18687 0.50406
# Poissons Ratio (z) = -0.02525 0.56430
#
# Static dielectric constant tensor:
#      x y z
#    x 1.661000 0.000000 0.000000 
#    y 0.000000 1.679680 0.000000 
#    z 0.000000 0.000000 1.619400 
# 
# From -- ./inp_files/60974.got.cif
#   From: 2010.05.17/outbox.cif.g08.bks.cpg/sg65_31_cif.got.tgz:60974.got - 2010.06.03 17:01:31.
