data_PCOD9482999
_publ_section_title
;
Structure prediction by ZEFSAII (Michael W. Deem and Ramdas Pophale) SiO2 
 PCOD9482999
Probable space group: C M M M
;
_chemical_formula_sum "Si O2"
_cell_formula_units_Z 90
_cell_length_a 23.709789
_cell_length_b 22.914680
_cell_length_c 7.332957
_cell_angle_alpha 90.000000
_cell_angle_beta 90.000000
_cell_angle_gamma 90.000000
_cell_volume 3984.011874
_symmetry_space_group_name_H-M "C M M M"
_symmetry_group_IT_number 65
_symmetry_cell_setting 'orthorhombic'
loop_
_space_group_symop_operation_xyz
x,y,z
-x,-y,z
x,-y,-z
-x,y,-z
-x,-y,-z
x,y,-z
-x,y,z
x,-y,z
1/2+x,1/2+y,z
1/2-x,1/2-y,z
1/2+x,1/2-y,-z
1/2-x,1/2+y,-z
1/2-x,1/2-y,-z
1/2+x,1/2+y,-z
1/2-x,1/2+y,z
1/2+x,1/2-y,z
loop_
_atom_site_type_symbol
_atom_site_label
_atom_site_fract_x
_atom_site_fract_y
_atom_site_fract_z
Si Si1 0.794197 0.000000 0.294054
Si Si2 0.419243 0.500000 0.204786
Si Si3 0.000000 0.387870 0.775951
Si Si4 0.500000 0.000000 0.500000
Si Si5 0.666004 0.703935 0.222422
Si Si6 0.619202 0.169962 0.221112
Si Si7 0.766016 0.378241 0.218683
Si Si8 0.439624 0.372688 0.777550
O O1 0.852005 0.000000 0.186915
O O2 0.759787 0.058957 0.261749
O O3 0.813837 0.000000 0.500000
O O4 0.436953 0.560976 0.288400
O O5 0.442111 0.500000 0.000000
O O6 0.000000 0.447805 0.661129
O O7 0.943127 0.351272 0.727368
O O8 0.000000 0.396882 0.000000
O O9 0.643956 0.767303 0.280649
O O10 0.724956 0.674569 0.282743
O O11 0.616114 0.660503 0.279050
O O12 0.669078 0.706095 0.000000
O O13 0.669409 0.126654 0.279547
O O14 0.617482 0.172152 0.000000
O O15 0.766565 0.373061 0.000000
O O16 0.500000 0.345949 0.726498
O O17 0.437514 0.373314 0.000000
#
# Coordination Sequence:
#
# PCOD9482999 Si02
#       8
#     8   8   8   2  16  16  16  16
#     4  12  24  36  52  77 111 148 196 246 294 347
#     4  10  17  32  51  73 107 147 189 234 279 329
#     4  10  23  45  71 100 131 166 207 260 324 382
#     4  12  26  48  76  98 128 164 214 270 326 386
#     4   9  16  28  54  90 122 150 189 240 294 361
#     4   9  19  35  60  92 124 153 191 245 306 374
#     4  10  19  36  59  85 114 152 197 244 304 362
#     4   9  16  24  44  80 113 143 184 234 279 322
#
# _framework density 22.590295000000001
#
# number of rings (size 3 to 8) (size 9 to 14) (size 15 to 20)
#    0.000    2.311    1.778    1.733    1.244    3.911 
#    3.200    2.667    1.956    2.133    0.000    0.000 
#    0.000    0.000    0.000    0.000    0.000    0.356 
#
# Total GULP energy -250898.126425 kJ/mol
# GULP energy per Si atom -5575.513921 kJ/mol
# Density = 2.253888 g / cm^3
# Si number density = 22.590295 Si / 1000 Ang^3
#
#
#
# Elastic Constant Matrix: (Units=GPa)
#
#
# Indices 1 2 3 4 5 6 
#
# 1 203.4914 78.9376 22.5296 0.0000 0.0000 0.0000
# 2 78.9376 127.3864 10.0740 0.0000 0.0000 0.0000
# 3 22.5296 10.0740 100.6293 0.0000 0.0000 0.0000
# 4 0.0000 0.0000 0.0000 182.2677 0.0000 0.0000
# 5 0.0000 0.0000 0.0000 0.0000 -35.5195 0.0000
# 6 0.0000 0.0000 0.0000 0.0000 0.0000 14.7941
#
#
#
# Elastic Compliance Matrix: (Units=1/GPa)
#
#
# Indices 1 2 3 4 5 6 
#
# 1 0.006582 -0.003994 -0.001074 0.000000 0.000000 0.000000
# 2 -0.003994 0.010336 -0.000141 0.000000 0.000000 0.000000
# 3 -0.001074 -0.000141 0.010192 0.000000 0.000000 0.000000
# 4 0.000000 0.000000 0.000000 0.005486 0.000000 0.000000
# 5 0.000000 0.000000 0.000000 0.000000 -0.028154 0.000000
# 6 0.000000 0.000000 0.000000 0.000000 0.000000 0.067595
#
#
# Mechanical properties :
#
#
# Convention : Reuss Voigt Hill
#
# Bulk Modulus (GPa) = 59.90276 72.73216 66.31746
# Shear Modulus (GPa) = 56.80558 53.63953 55.22256
#
# Velocity S-wave (km/s) = 5.02002 4.87812 4.94958
# Velocity P-wave (km/s) = 7.75728 7.99963 7.87939
#
# Compressibility (1/GPa) = 0.01669372
#
# Stress axis : x y z
#
# Youngs Moduli (GPa) = 151.91894 96.74706 98.11652
#
# Poissons Ratio (x) = 0.38641 0.10537
# Poissons Ratio (y) = 0.60677 0.01379
# Poissons Ratio (z) = 0.16314 0.01360
#
# Static dielectric constant tensor:
#      x y z
#    x 1.837570 0.000000 0.000000 
#    y 0.000000 1.817330 0.000000 
#    z 0.000000 0.000000 1.905180 
# 
# From -- ./inp_files/14098.got.cif
#   From: 2010.05.17/outbox.cif.g08.bks.cpg/sg65_8_cif.got.tgz:14098.got - 2010.06.03 17:01:31.
