data_PCOD9482933
_publ_section_title
;
Structure prediction by ZEFSAII (Michael W. Deem and Ramdas Pophale) SiO2 
 PCOD9482933
Probable space group: C M M M
;
_chemical_formula_sum "Si O2"
_cell_formula_units_Z 64
_cell_length_a 14.780181
_cell_length_b 19.044020
_cell_length_c 12.613307
_cell_angle_alpha 90.000000
_cell_angle_beta 90.000000
_cell_angle_gamma 90.000000
_cell_volume 3550.318764
_symmetry_space_group_name_H-M "C M M M"
_symmetry_group_IT_number 65
_symmetry_cell_setting 'orthorhombic'
loop_
_space_group_symop_operation_xyz
x,y,z
-x,-y,z
x,-y,-z
-x,y,-z
-x,-y,-z
x,y,-z
-x,y,z
x,-y,z
1/2+x,1/2+y,z
1/2-x,1/2-y,z
1/2+x,1/2-y,-z
1/2-x,1/2+y,-z
1/2-x,1/2-y,-z
1/2+x,1/2+y,-z
1/2-x,1/2+y,z
1/2+x,1/2-y,z
loop_
_atom_site_type_symbol
_atom_site_label
_atom_site_fract_x
_atom_site_fract_y
_atom_site_fract_z
Si Si1 0.103109 0.192999 0.768401
Si Si2 0.651121 0.285150 0.000000
Si Si3 0.733738 0.082924 0.233173
Si Si4 0.607780 0.173661 0.623832
Si Si5 0.753630 0.580493 0.000000
O O1 0.107603 0.228209 0.886026
O O2 0.175541 0.130264 0.761127
O O3 0.126999 0.253138 0.683871
O O4 0.000000 0.169301 0.750497
O O5 0.750000 0.250000 0.000000
O O6 0.667793 0.368847 0.000000
O O7 0.663613 0.113576 0.316912
O O8 0.750461 0.000000 0.248063
O O9 0.697514 0.093232 0.111859
O O10 0.631090 0.177848 0.500000
O O11 0.500000 0.161360 0.632906
O O12 0.724769 0.500000 0.000000
#
# Coordination Sequence:
#
# PCOD9482933 Si02
#       5
#    16   8  16  16   8
#     4  10  20  34  54  81 112 145 179 216 263 320
#     4  10  17  29  52  80 109 140 178 222 260 301
#     4  10  20  35  56  80 108 142 177 218 266 316
#     4  10  22  39  57  77 103 138 180 226 276 327
#     4   8  16  31  49  73 106 139 168 201 252 313
#
# _framework density 18.02655
#
# number of rings (size 3 to 8) (size 9 to 14) (size 15 to 20)
#    0.000    2.250    0.000    4.125    0.000    3.500 
#    0.000    3.125    0.000    9.750    0.000    5.250 
#    0.000    0.000    0.000    0.000    0.000    0.000 
#
# Total GULP energy -178314.911335 kJ/mol
# GULP energy per Si atom -5572.340979 kJ/mol
# Density = 1.798552 g / cm^3
# Si number density = 18.026550 Si / 1000 Ang^3
#
#
#
# Elastic Constant Matrix: (Units=GPa)
#
#
# Indices 1 2 3 4 5 6 
#
# 1 62.4536 54.7062 60.3772 0.0000 0.0000 0.0000
# 2 54.7062 104.0100 70.8073 0.0000 0.0000 0.0000
# 3 60.3772 70.8073 161.8209 0.0000 0.0000 0.0000
# 4 0.0000 0.0000 0.0000 11.1299 0.0000 0.0000
# 5 0.0000 0.0000 0.0000 0.0000 27.6137 0.0000
# 6 0.0000 0.0000 0.0000 0.0000 0.0000 13.4196
#
#
#
# Elastic Compliance Matrix: (Units=1/GPa)
#
#
# Indices 1 2 3 4 5 6 
#
# 1 0.034520 -0.013371 -0.007029 0.000000 0.000000 0.000000
# 2 -0.013371 0.018873 -0.003269 0.000000 0.000000 0.000000
# 3 -0.007029 -0.003269 0.010233 0.000000 0.000000 0.000000
# 4 0.000000 0.000000 0.000000 0.089848 0.000000 0.000000
# 5 0.000000 0.000000 0.000000 0.000000 0.036214 0.000000
# 6 0.000000 0.000000 0.000000 0.000000 0.000000 0.074518
#
#
# Mechanical properties :
#
#
# Convention : Reuss Voigt Hill
#
# Bulk Modulus (GPa) = 61.39993 77.78511 69.59252
# Shear Modulus (GPa) = 15.77423 19.92555 17.84989
#
# Velocity S-wave (km/s) = 2.96134 3.32828 3.15016
# Velocity P-wave (km/s) = 6.76960 7.61669 7.20560
#
# Compressibility (1/GPa) = 0.01628666
#
# Stress axis : x y z
#
# Youngs Moduli (GPa) = 28.96901 52.98596 97.72585
#
# Poissons Ratio (x) = 0.70849 0.68690
# Poissons Ratio (y) = 0.38735 0.31948
# Poissons Ratio (z) = 0.20362 0.17322
#
# Static dielectric constant tensor:
#      x y z
#    x 1.609780 0.000000 0.000000 
#    y 0.000000 1.617060 0.000000 
#    z 0.000000 0.000000 1.656420 
# 
# From -- ./inp_files/23985.got.cif
#   From: 2010.05.17/outbox.cif.g08.bks.cpg/sg65_12_cif.got.tgz:23985.got - 2010.06.03 17:01:31.
