data_PCOD9482096
_publ_section_title
;
Structure prediction by ZEFSAII (Michael W. Deem and Ramdas Pophale) SiO2 
 PCOD9482096
Probable space group: C M C A
;
_chemical_formula_sum "Si O2"
_cell_formula_units_Z 48
_cell_length_a 19.352682
_cell_length_b 12.738113
_cell_length_c 7.698710
_cell_angle_alpha 90.000000
_cell_angle_beta 90.000000
_cell_angle_gamma 90.000000
_cell_volume 1897.860200
_symmetry_space_group_name_H-M "C M C A"
_symmetry_group_IT_number 64
_symmetry_cell_setting 'orthorhombic'
loop_
_space_group_symop_operation_xyz
x,y,z
-x,1/2-y,1/2+z
x,-y,-z
-x,1/2+y,1/2-z
-x,-y,-z
x,1/2+y,1/2-z
-x,y,z
x,1/2-y,1/2+z
1/2+x,1/2+y,z
1/2-x,-y,1/2+z
1/2+x,1/2-y,-z
1/2-x,y,1/2-z
1/2-x,1/2-y,-z
1/2+x,y,1/2-z
1/2-x,1/2+y,z
1/2+x,-y,1/2+z
loop_
_atom_site_type_symbol
_atom_site_label
_atom_site_fract_x
_atom_site_fract_y
_atom_site_fract_z
Si Si1 0.354168 0.913139 0.394992
Si Si2 0.173154 0.709187 0.961352
Si Si3 0.073816 0.572621 0.169716
O O1 0.371085 0.817027 0.523283
O O2 0.328906 0.855400 0.217929
O O3 0.307637 0.000000 0.500000
O O4 0.412706 0.990111 0.322346
O O5 0.250000 0.750000 0.000000
O O6 0.140650 0.639814 0.114816
O O7 0.000000 0.629884 0.191607
O O8 0.067150 0.500000 0.000000
#
# Coordination Sequence:
#
# PCOD9482096 Si02
#       3
#    16  16  16
#     4  11  24  42  68 103 143 191 243 301 369 444
#     4  11  24  42  68 106 146 190 245 306 374 446
#     4   9  21  44  71 101 141 189 242 302 369 442
#
# _framework density 25.291640999999998
#
# number of rings (size 3 to 8) (size 9 to 14) (size 15 to 20)
#    0.000    1.667    0.000    3.000    0.000    8.667 
#    0.000    6.667    0.000    0.000    0.000    0.000 
#    0.000    0.000    0.000    0.000    0.000    0.000 
#
# Total GULP energy -133749.675825 kJ/mol
# GULP energy per Si atom -5572.903159 kJ/mol
# Density = 2.523408 g / cm^3
# Si number density = 25.291641 Si / 1000 Ang^3
#
#
#
# Elastic Constant Matrix: (Units=GPa)
#
#
# Indices 1 2 3 4 5 6 
#
# 1 137.2489 37.8512 31.9081 0.0000 0.0000 0.0000
# 2 37.8512 135.8034 69.5597 0.0000 0.0000 0.0000
# 3 31.9081 69.5597 223.2449 0.0000 0.0000 0.0000
# 4 0.0000 0.0000 0.0000 77.1560 0.0000 0.0000
# 5 0.0000 0.0000 0.0000 0.0000 -27.9218 0.0000
# 6 0.0000 0.0000 0.0000 0.0000 0.0000 13.5349
#
#
#
# Elastic Compliance Matrix: (Units=1/GPa)
#
#
# Indices 1 2 3 4 5 6 
#
# 1 0.007945 -0.001943 -0.000530 0.000000 0.000000 0.000000
# 2 -0.001943 0.009237 -0.002600 0.000000 0.000000 0.000000
# 3 -0.000530 -0.002600 0.005365 0.000000 0.000000 0.000000
# 4 0.000000 0.000000 0.000000 0.012961 0.000000 0.000000
# 5 0.000000 0.000000 0.000000 0.000000 -0.035814 0.000000
# 6 0.000000 0.000000 0.000000 0.000000 0.000000 0.073883
#
#
# Mechanical properties :
#
#
# Convention : Reuss Voigt Hill
#
# Bulk Modulus (GPa) = 80.64164 86.10392 83.37278
# Shear Modulus (GPa) = 56.91016 36.35237 46.63126
#
# Velocity S-wave (km/s) = 4.74873 3.79532 4.29854
# Velocity P-wave (km/s) = 7.87535 7.30235 7.59426
#
# Compressibility (1/GPa) = 0.01240054
#
# Stress axis : x y z
#
# Youngs Moduli (GPa) = 125.86349 108.25935 186.37850
#
# Poissons Ratio (x) = 0.21034 0.09882
# Poissons Ratio (y) = 0.24454 0.48467
# Poissons Ratio (z) = 0.06673 0.28152
#
# Static dielectric constant tensor:
#      x y z
#    x 2.039700 0.000000 0.000000 
#    y 0.000000 2.096270 0.000000 
#    z 0.000000 0.000000 2.171840 
# 
# From -- ./inp_files/8797.got.cif
#   From: 2010.05.17/outbox.cif.g08.bks.cpg/sg64_5_cif.got.tgz:8797.got - 2010.06.03 16:29:19.
