data_PCOD9482266
_publ_section_title
;
Structure prediction by ZEFSAII (Michael W. Deem and Ramdas Pophale) SiO2 
 PCOD9482266
Probable space group: C M C A
;
_chemical_formula_sum "Si O2"
_cell_formula_units_Z 72
_cell_length_a 25.081658
_cell_length_b 15.857489
_cell_length_c 8.953988
_cell_angle_alpha 90.000000
_cell_angle_beta 90.000000
_cell_angle_gamma 90.000000
_cell_volume 3561.288592
_symmetry_space_group_name_H-M "C M C A"
_symmetry_group_IT_number 64
_symmetry_cell_setting 'orthorhombic'
loop_
_space_group_symop_operation_xyz
x,y,z
-x,1/2-y,1/2+z
x,-y,-z
-x,1/2+y,1/2-z
-x,-y,-z
x,1/2+y,1/2-z
-x,y,z
x,1/2-y,1/2+z
1/2+x,1/2+y,z
1/2-x,-y,1/2+z
1/2+x,1/2-y,-z
1/2-x,y,1/2-z
1/2-x,1/2-y,-z
1/2+x,y,1/2-z
1/2-x,1/2+y,z
1/2+x,-y,1/2+z
loop_
_atom_site_type_symbol
_atom_site_label
_atom_site_fract_x
_atom_site_fract_y
_atom_site_fract_z
Si Si1 0.500000 0.518501 0.752296
Si Si2 0.730121 0.831693 0.917406
Si Si3 0.500000 0.138154 0.044970
Si Si4 0.616491 0.525077 0.752382
Si Si5 0.792310 0.500000 0.500000
Si Si6 0.613728 0.864632 0.970947
O O1 0.500000 0.423355 0.688141
O O2 0.500000 0.577831 0.602721
O O3 0.557594 0.533700 0.827048
O O4 0.750000 0.833147 0.750000
O O5 0.666784 0.821047 0.919726
O O6 0.750000 0.750000 0.000000
O O7 0.753848 0.918463 0.986889
O O8 0.557182 0.182676 0.041152
O O9 0.666701 0.511086 0.860342
O O10 0.611013 0.446168 0.638302
O O11 0.622958 0.603725 0.640247
#
# Coordination Sequence:
#
# PCOD9482266 Si02
#       6
#     8  16   8  16   8  16
#     4   7  12  25  48  88 122 149 197 251 303 348
#     4  12  28  43  63  92 127 165 206 256 311 365
#     4   7  12  26  56  84 108 156 201 249 295 356
#     4   9  17  31  58  89 122 159 202 254 300 368
#     4  12  24  39  62  91 124 166 206 248 320 360
#     4   9  17  35  59  85 119 157 208 248 302 363
#
# _framework density 20.217402
#
# number of rings (size 3 to 8) (size 9 to 14) (size 15 to 20)
#    0.000    2.444    2.222    4.000    3.111    0.444 
#    0.000    0.000    0.000    4.000    0.000    0.000 
#    0.000    0.000    0.000    0.000    0.000    0.000 
#
# Total GULP energy -200490.116162 kJ/mol
# GULP energy per Si atom -5569.169893 kJ/mol
# Density = 2.017139 g / cm^3
# Si number density = 20.217402 Si / 1000 Ang^3
#
#
#
# Elastic Constant Matrix: (Units=GPa)
#
#
# Indices 1 2 3 4 5 6 
#
# 1 192.5054 28.9986 25.1966 0.0000 0.0000 0.0000
# 2 28.9986 59.4035 10.9624 0.0000 0.0000 0.0000
# 3 25.1966 10.9624 59.0691 0.0000 0.0000 0.0000
# 4 0.0000 0.0000 0.0000 -3.2897 0.0000 0.0000
# 5 0.0000 0.0000 0.0000 0.0000 21.1683 0.0000
# 6 0.0000 0.0000 0.0000 0.0000 0.0000 1155.7847
#
#
#
# Elastic Compliance Matrix: (Units=1/GPa)
#
#
# Indices 1 2 3 4 5 6 
#
# 1 0.005833 -0.002473 -0.002029 0.000000 0.000000 0.000000
# 2 -0.002473 0.018479 -0.002375 0.000000 0.000000 0.000000
# 3 -0.002029 -0.002375 0.018236 0.000000 0.000000 0.000000
# 4 0.000000 0.000000 0.000000 -0.303983 0.000000 0.000000
# 5 0.000000 0.000000 0.000000 0.000000 0.047241 0.000000
# 6 0.000000 0.000000 0.000000 0.000000 0.000000 0.000865
#
#
# Mechanical properties :
#
#
# Convention : Reuss Voigt Hill
#
# Bulk Modulus (GPa) = 34.72894 49.03256 41.88075
# Shear Modulus (GPa) = -26.31887 251.12070 112.40091
#
# Velocity S-wave (km/s) = -3.61195 11.15705 7.46437
# Velocity P-wave (km/s) = 0.42413 13.79414 9.74932
#
# Compressibility (1/GPa) = 0.02879443
#
# Stress axis : x y z
#
# Youngs Moduli (GPa) = 171.44563 54.11423 54.83793
#
# Poissons Ratio (x) = 0.13382 0.11127
# Poissons Ratio (y) = 0.42397 0.13022
# Poissons Ratio (z) = 0.34788 0.12850
#
# Static dielectric constant tensor:
#      x y z
#    x 1.802690 0.000000 0.000000 
#    y 0.000000 1.682660 0.000000 
#    z 0.000000 0.000000 1.713420 
# 
# From -- ./inp_files/10133.got.cif
#   From: 2010.05.17/outbox.cif.g08.bks.cpg/sg64_6_cif.got.tgz:10133.got - 2010.06.03 16:29:19.
