data_PCOD9482361
_publ_section_title
;
Structure prediction by ZEFSAII (Michael W. Deem and Ramdas Pophale) SiO2 
 PCOD9482361
Probable space group: C M C A
;
_chemical_formula_sum "Si O2"
_cell_formula_units_Z 44
_cell_length_a 21.000000
_cell_length_b 12.000000
_cell_length_c 18.000000
_cell_angle_alpha 90.000000
_cell_angle_beta 90.000000
_cell_angle_gamma 90.000000
_cell_volume 4536.000000
_symmetry_space_group_name_H-M "C M C A"
_symmetry_group_IT_number 64
_symmetry_cell_setting 'orthorhombic'
loop_
_space_group_symop_operation_xyz
x,y,z
-x,1/2-y,1/2+z
x,-y,-z
-x,1/2+y,1/2-z
-x,-y,-z
x,1/2+y,1/2-z
-x,y,z
x,1/2-y,1/2+z
1/2+x,1/2+y,z
1/2-x,-y,1/2+z
1/2+x,1/2-y,-z
1/2-x,y,1/2-z
1/2-x,1/2-y,-z
1/2+x,y,1/2-z
1/2-x,1/2+y,z
1/2+x,-y,1/2+z
loop_
_atom_site_type_symbol
_atom_site_label
_atom_site_fract_x
_atom_site_fract_y
_atom_site_fract_z
Si Si1 0.000000 0.870714 0.353229
Si Si2 0.146527 0.634290 0.087708
Si Si3 0.144161 0.599033 0.619869
Si Si4 0.246446 0.500000 0.500000
Si Si5 0.500000 0.856980 0.392254
Si Si6 0.500000 0.182554 0.251313
Si Si7 0.000000 0.358619 0.973369
Si Si8 0.111541 0.006020 0.274343
O O1 0.000000 0.742997 0.330005
O O2 0.000000 0.892854 0.440765
O O3 0.062963 0.919980 0.314035
O O4 0.150972 0.766043 0.108691
O O5 0.071590 0.612922 0.060641
O O6 0.154951 0.559155 0.161486
O O7 0.202757 0.593492 0.031490
O O8 0.197147 0.543515 0.564940
O O9 0.067505 0.579219 0.605370
O O10 0.147315 0.550891 0.704615
O O11 0.500000 0.774011 0.317613
O O12 0.500000 0.774000 0.461900
O O13 0.437292 0.106221 0.246758
#
# Coordination Sequence:
#
# PCOD9482361 Si02
#       8
#     8  16  16   8   8   8   8  16
#     4  11  20  31  59 106 133 161 217 276 341 415
#     4  11  23  46  68  99 140 174 233 299 338 420
#     4  11  24  45  68  99 137 178 228 293 344 416
#     4  12  28  44  66  94 138 198 234 268 358 422
#     4  10  18  42  67  93 138 168 207 288 341 396
#     4  11  18  37  62 106 138 163 209 293 344 414
#     4  10  20  37  70  97 125 167 215 290 352 374
#     4  11  20  36  68  93 131 177 221 274 359 396
#
# _framework density 9.7001760000000008
#
# number of rings (size 3 to 8) (size 9 to 14) (size 15 to 20)
#    0.000    1.091    5.455    2.727    0.000    5.091 
#    0.000    7.273    0.000    0.000    0.000    0.000 
#    0.000    0.000    0.000    0.000    0.000    0.000 
#
# Total GULP energy -245248.978719 kJ/mol
# GULP energy per Si atom -5573.840425 kJ/mol
# Density = 0.967810 g / cm^3
# Si number density = 9.700176 Si / 1000 Ang^3
#
#
#
# Elastic Constant Matrix: (Units=GPa)
#
#
# Indices 1 2 3 4 5 6 
#
# 1 122.0268 29.8033 59.0740 0.0000 0.0000 0.0000
# 2 29.8033 62.2408 50.4571 0.0000 0.0000 0.0000
# 3 59.0740 50.4571 146.9277 0.0000 0.0000 0.0000
# 4 0.0000 0.0000 0.0000 40.4848 0.0000 0.0000
# 5 0.0000 0.0000 0.0000 0.0000 42.6884 0.0000
# 6 0.0000 0.0000 0.0000 0.0000 0.0000 34.1458
#
#
#
# Elastic Compliance Matrix: (Units=1/GPa)
#
#
# Indices 1 2 3 4 5 6 
#
# 1 0.010389 -0.002201 -0.003421 0.000000 0.000000 0.000000
# 2 -0.002201 0.022732 -0.006921 0.000000 0.000000 0.000000
# 3 -0.003421 -0.006921 0.010558 0.000000 0.000000 0.000000
# 4 0.000000 0.000000 0.000000 0.024701 0.000000 0.000000
# 5 0.000000 0.000000 0.000000 0.000000 0.023426 0.000000
# 6 0.000000 0.000000 0.000000 0.000000 0.000000 0.029286
#
#
# Mechanical properties :
#
#
# Convention : Reuss Voigt Hill
#
# Bulk Modulus (GPa) = 53.78754 67.76267 60.77511
# Shear Modulus (GPa) = 32.81372 36.25452 34.53412
#
# Velocity S-wave (km/s) = 4.11712 4.32760 4.22367
# Velocity P-wave (km/s) = 7.09832 7.74437 7.42837
#
# Compressibility (1/GPa) = 0.01859167
#
# Stress axis : x y z
#
# Youngs Moduli (GPa) = 96.25904 43.99154 94.71132
#
# Poissons Ratio (x) = 0.09683 0.32400
# Poissons Ratio (y) = 0.21188 0.65553
# Poissons Ratio (z) = 0.32930 0.30448
#
# Static dielectric constant tensor:
#      x y z
#    x 1.675810 0.000000 0.000000 
#    y 0.000000 1.734180 0.000000 
#    z 0.000000 0.000000 1.732120 
# 
# From -- ./inp_files/34192.got.cif
#   From: 2010.05.17/outbox.ucp.g08.bks.cvg/sg64_18_cif.got.tgz:34192.got - 2010.06.11 16:36:46.
