data_PCOD9482903
_publ_section_title
;
Structure prediction by ZEFSAII (Michael W. Deem and Ramdas Pophale) SiO2 
 PCOD9482903
Probable space group: C M M M
;
_chemical_formula_sum "Si O2"
_cell_formula_units_Z 96
_cell_length_a 28.274156
_cell_length_b 14.672487
_cell_length_c 14.434134
_cell_angle_alpha 90.000000
_cell_angle_beta 90.000000
_cell_angle_gamma 90.000000
_cell_volume 5988.032048
_symmetry_space_group_name_H-M "C M M M"
_symmetry_group_IT_number 65
_symmetry_cell_setting 'orthorhombic'
loop_
_space_group_symop_operation_xyz
x,y,z
-x,-y,z
x,-y,-z
-x,y,-z
-x,-y,-z
x,y,-z
-x,y,z
x,-y,z
1/2+x,1/2+y,z
1/2-x,1/2-y,z
1/2+x,1/2-y,-z
1/2-x,1/2+y,-z
1/2-x,1/2-y,-z
1/2+x,1/2+y,-z
1/2-x,1/2+y,z
1/2+x,1/2-y,z
loop_
_atom_site_type_symbol
_atom_site_label
_atom_site_fract_x
_atom_site_fract_y
_atom_site_fract_z
Si Si1 0.148660 0.102276 0.107384
Si Si2 0.242007 0.358405 0.104506
Si Si3 0.184575 0.603548 0.286684
Si Si4 0.444408 0.395879 0.610883
Si Si5 0.365573 0.712238 0.285792
Si Si6 0.718427 0.391235 0.608535
O O1 0.205729 0.100685 0.114728
O O2 0.131407 0.176354 0.180491
O O3 0.131194 0.000000 0.129086
O O4 0.137681 0.123366 0.000000
O O5 0.250000 0.250000 0.114431
O O6 0.207366 0.391233 0.184123
O O7 0.224972 0.376701 0.000000
O O8 0.169334 0.500000 0.305992
O O9 0.145017 0.680853 0.293100
O O10 0.228728 0.626796 0.354318
O O11 0.438601 0.389139 0.500000
O O12 0.500000 0.384215 0.631455
O O13 0.430834 0.500000 0.637072
O O14 0.411166 0.323947 0.660598
O O15 0.320026 0.662270 0.331597
O O16 0.714201 0.368619 0.500000
O O17 0.710243 0.500000 0.619410
#
# Coordination Sequence:
#
# PCOD9482903 Si02
#       6
#    16  16  16  16  16  16
#     4  10  19  29  44  69  99 129 162 200 241 287
#     4  10  17  29  46  64  93 135 176 211 243 275
#     4  11  22  33  43  64  99 136 172 205 234 273
#     4   9  19  36  58  83 103 117 145 196 253 305
#     4  12  20  31  51  72  94 129 166 199 240 291
#     4  10  20  32  46  67  95 126 159 195 237 289
#
# _framework density 16.031979
#
# number of rings (size 3 to 8) (size 9 to 14) (size 15 to 20)
#    0.000    1.667    3.333    3.500    0.000    4.333 
#    0.000    0.000    0.000    1.000    0.000    3.500 
#    0.000    0.000    0.000    3.000    0.000    0.167 
#
# Total GULP energy -268000.117450 kJ/mol
# GULP energy per Si atom -5583.335780 kJ/mol
# Density = 1.599549 g / cm^3
# Si number density = 16.031979 Si / 1000 Ang^3
#
#
#
# Elastic Constant Matrix: (Units=GPa)
#
#
# Indices 1 2 3 4 5 6 
#
# 1 45.2752 38.6435 22.1303 0.0000 0.0000 0.0000
# 2 38.6435 85.3189 31.8925 0.0000 0.0000 0.0000
# 3 22.1303 31.8925 67.6935 0.0000 0.0000 0.0000
# 4 0.0000 0.0000 0.0000 16.9189 0.0000 0.0000
# 5 0.0000 0.0000 0.0000 0.0000 16.2540 0.0000
# 6 0.0000 0.0000 0.0000 0.0000 0.0000 13.0497
#
#
#
# Elastic Compliance Matrix: (Units=1/GPa)
#
#
# Indices 1 2 3 4 5 6 
#
# 1 0.037434 -0.015027 -0.005158 0.000000 0.000000 0.000000
# 2 -0.015027 0.020258 -0.004632 0.000000 0.000000 0.000000
# 3 -0.005158 -0.004632 0.018641 0.000000 0.000000 0.000000
# 4 0.000000 0.000000 0.000000 0.059105 0.000000 0.000000
# 5 0.000000 0.000000 0.000000 0.000000 0.061523 0.000000
# 6 0.000000 0.000000 0.000000 0.000000 0.000000 0.076630
#
#
# Mechanical properties :
#
#
# Convention : Reuss Voigt Hill
#
# Bulk Modulus (GPa) = 37.45372 42.62446 40.03909
# Shear Modulus (GPa) = 15.05450 16.28593 15.67022
#
# Velocity S-wave (km/s) = 3.06768 3.19068 3.12979
# Velocity P-wave (km/s) = 5.99668 6.34183 6.17167
#
# Compressibility (1/GPa) = 0.02669962
#
# Stress axis : x y z
#
# Youngs Moduli (GPa) = 26.71340 49.36268 53.64529
#
# Poissons Ratio (x) = 0.74177 0.27672
# Poissons Ratio (y) = 0.40142 0.24847
# Poissons Ratio (z) = 0.13780 0.22863
#
# Static dielectric constant tensor:
#      x y z
#    x 1.500140 0.000000 0.000000 
#    y 0.000000 1.569370 0.000000 
#    z 0.000000 0.000000 1.559400 
# 
# From -- ./inp_files/47869.got.cif
#   From: 2010.05.17/outbox.cif.g08.bks.cpg/sg65_24_cif.got.tgz:47869.got - 2010.06.03 17:01:31.
