data_PCOD9482114
_publ_section_title
;
Structure prediction by ZEFSAII (Michael W. Deem and Ramdas Pophale) SiO2 
 PCOD9482114
Probable space group: C M C A
;
_chemical_formula_sum "Si O2"
_cell_formula_units_Z 72
_cell_length_a 27.987727
_cell_length_b 14.065712
_cell_length_c 9.002234
_cell_angle_alpha 90.000000
_cell_angle_beta 90.000000
_cell_angle_gamma 90.000000
_cell_volume 3543.885220
_symmetry_space_group_name_H-M "C M C A"
_symmetry_group_IT_number 64
_symmetry_cell_setting 'orthorhombic'
loop_
_space_group_symop_operation_xyz
x,y,z
-x,1/2-y,1/2+z
x,-y,-z
-x,1/2+y,1/2-z
-x,-y,-z
x,1/2+y,1/2-z
-x,y,z
x,1/2-y,1/2+z
1/2+x,1/2+y,z
1/2-x,-y,1/2+z
1/2+x,1/2-y,-z
1/2-x,y,1/2-z
1/2-x,1/2-y,-z
1/2+x,y,1/2-z
1/2-x,1/2+y,z
1/2+x,-y,1/2+z
loop_
_atom_site_type_symbol
_atom_site_label
_atom_site_fract_x
_atom_site_fract_y
_atom_site_fract_z
Si Si1 0.733533 0.164571 0.597424
Si Si2 0.125279 0.188452 0.962898
Si Si3 0.302906 0.000000 0.000000
Si Si4 0.945981 0.541032 0.668381
Si Si5 0.378811 0.386761 0.695455
O O1 0.750000 0.205244 0.750000
O O2 0.750000 0.250000 0.500000
O O3 0.677276 0.151396 0.587041
O O4 0.766797 0.075121 0.569996
O O5 0.087103 0.132084 0.861694
O O6 0.117606 0.299542 0.922198
O O7 0.124822 0.162230 0.139583
O O8 0.335290 0.949509 0.872833
O O9 0.948289 0.500000 0.500000
O O10 0.921285 0.463321 0.776054
O O11 0.000000 0.563140 0.716488
#
# Coordination Sequence:
#
# PCOD9482114 Si02
#       5
#    16  16   8  16  16
#     4  12  26  41  64  96 136 180 231 286 346 424
#     4  11  24  44  69 100 138 183 234 288 360 421
#     4  12  28  40  69  96 143 182 244 282 362 424
#     4   9  21  43  70  99 134 177 228 285 353 423
#     4  11  25  44  70  99 137 182 232 293 351 432
#
# _framework density 20.316686000000001
#
# number of rings (size 3 to 8) (size 9 to 14) (size 15 to 20)
#    0.000    1.111    2.222    2.667   10.889    0.889 
#    0.000    0.556    0.000    0.000    0.000    0.000 
#    0.000    0.000    0.000    0.000    0.000    0.000 
#
# Total GULP energy -200601.705041 kJ/mol
# GULP energy per Si atom -5572.269584 kJ/mol
# Density = 2.027044 g / cm^3
# Si number density = 20.316686 Si / 1000 Ang^3
#
#
#
# Elastic Constant Matrix: (Units=GPa)
#
#
# Indices 1 2 3 4 5 6 
#
# 1 153.7479 61.0986 22.2581 0.0000 0.0000 0.0000
# 2 61.0986 132.7436 36.3907 0.0000 0.0000 0.0000
# 3 22.2581 36.3907 98.9225 0.0000 0.0000 0.0000
# 4 0.0000 0.0000 0.0000 64.3055 0.0000 0.0000
# 5 0.0000 0.0000 0.0000 0.0000 39.2053 0.0000
# 6 0.0000 0.0000 0.0000 0.0000 0.0000 24.6182
#
#
#
# Elastic Compliance Matrix: (Units=1/GPa)
#
#
# Indices 1 2 3 4 5 6 
#
# 1 0.007982 -0.003538 -0.000494 0.000000 0.000000 0.000000
# 2 -0.003538 0.009947 -0.002863 0.000000 0.000000 0.000000
# 3 -0.000494 -0.002863 0.011273 0.000000 0.000000 0.000000
# 4 0.000000 0.000000 0.000000 0.015551 0.000000 0.000000
# 5 0.000000 0.000000 0.000000 0.000000 0.025507 0.000000
# 6 0.000000 0.000000 0.000000 0.000000 0.000000 0.040620
#
#
# Mechanical properties :
#
#
# Convention : Reuss Voigt Hill
#
# Bulk Modulus (GPa) = 64.88991 69.43433 67.16212
# Shear Modulus (GPa) = 38.51842 43.33691 40.92766
#
# Velocity S-wave (km/s) = 4.35892 4.62353 4.49317
# Velocity P-wave (km/s) = 7.57246 7.92167 7.74903
#
# Compressibility (1/GPa) = 0.01541072
#
# Stress axis : x y z
#
# Youngs Moduli (GPa) = 125.28455 100.53486 88.70475
#
# Poissons Ratio (x) = 0.35573 0.04385
# Poissons Ratio (y) = 0.44330 0.25396
# Poissons Ratio (z) = 0.06193 0.28783
#
# Static dielectric constant tensor:
#      x y z
#    x 1.732820 0.000000 0.000000 
#    y 0.000000 1.697110 0.000000 
#    z 0.000000 0.000000 1.761100 
# 
# From -- ./inp_files/10029.got.cif
#   From: 2010.05.17/outbox.cif.g08.bks.cpg/sg64_6_cif.got.tgz:10029.got - 2010.06.03 16:29:19.
