data_PCOD9482556
_publ_section_title
;
Structure prediction by ZEFSAII (Michael W. Deem and Ramdas Pophale) SiO2 
 PCOD9482556
Probable space group: C M M M
;
_chemical_formula_sum "Si O2"
_cell_formula_units_Z 80
_cell_length_a 8.673062
_cell_length_b 15.279730
_cell_length_c 27.676612
_cell_angle_alpha 90.000000
_cell_angle_beta 90.000000
_cell_angle_gamma 90.000000
_cell_volume 3667.761238
_symmetry_space_group_name_H-M "C M M M"
_symmetry_group_IT_number 65
_symmetry_cell_setting 'orthorhombic'
loop_
_space_group_symop_operation_xyz
x,y,z
-x,-y,z
x,-y,-z
-x,y,-z
-x,-y,-z
x,y,-z
-x,y,z
x,-y,z
1/2+x,1/2+y,z
1/2-x,1/2-y,z
1/2+x,1/2-y,-z
1/2-x,1/2+y,-z
1/2-x,1/2-y,-z
1/2+x,1/2+y,-z
1/2-x,1/2+y,z
1/2+x,1/2-y,z
loop_
_atom_site_type_symbol
_atom_site_label
_atom_site_fract_x
_atom_site_fract_y
_atom_site_fract_z
Si Si1 0.315018 0.650530 0.947065
Si Si2 0.318838 0.846918 0.347750
Si Si3 0.184105 0.349888 0.848438
Si Si4 0.825427 0.895765 0.553020
Si Si5 0.183863 0.849917 0.250504
O O1 0.500000 0.653431 0.941795
O O2 0.250000 0.750000 0.948885
O O3 0.242431 0.609816 0.898863
O O4 0.279589 0.611279 0.000000
O O5 0.500000 0.846303 0.339066
O O6 0.250000 0.750000 0.349150
O O7 0.280120 0.880924 0.400884
O O8 0.238365 0.890939 0.301228
O O9 0.250000 0.250000 0.849009
O O10 0.249010 0.389906 0.798814
O O11 0.000000 0.347420 0.847171
O O12 0.772765 0.863193 0.500000
O O13 0.000000 0.861075 0.561921
O O14 0.837914 0.000000 0.549232
O O15 0.250000 0.750000 0.251268
O O16 0.000000 0.847170 0.248306
#
# Coordination Sequence:
#
# PCOD9482556 Si02
#       5
#    16  16  16  16  16
#     4   9  15  21  28  39  57  84 122 167 212 257
#     4  11  21  33  50  73 100 127 159 198 239 281
#     4  10  16  22  32  46  66  93 128 169 216 266
#     4   9  19  37  58  77  99 128 160 193 232 280
#     4  10  17  27  41  57  80 108 141 180 225 273
#
# _framework density 21.811672000000002
#
# number of rings (size 3 to 8) (size 9 to 14) (size 15 to 20)
#    0.000    2.200    0.000   10.200    0.000    2.400 
#    0.000    1.000    0.000    0.000    0.000    0.000 
#    0.000    0.000    0.000    0.000    0.000    1.000 
#
# Total GULP energy -223098.402908 kJ/mol
# GULP energy per Si atom -5577.460073 kJ/mol
# Density = 2.176203 g / cm^3
# Si number density = 21.811672 Si / 1000 Ang^3
#
#
#
# Elastic Constant Matrix: (Units=GPa)
#
#
# Indices 1 2 3 4 5 6 
#
# 1 188.9609 6.0808 97.3405 0.0000 0.0000 0.0000
# 2 6.0808 32.0878 16.3165 0.0000 0.0000 0.0000
# 3 97.3405 16.3165 232.6013 0.0000 0.0000 0.0000
# 4 0.0000 0.0000 0.0000 33.1415 0.0000 0.0000
# 5 0.0000 0.0000 0.0000 0.0000 47.7449 0.0000
# 6 0.0000 0.0000 0.0000 0.0000 0.0000 0.9993
#
#
#
# Elastic Compliance Matrix: (Units=1/GPa)
#
#
# Indices 1 2 3 4 5 6 
#
# 1 0.006747 0.000163 -0.002835 0.000000 0.000000 0.000000
# 2 0.000163 0.032321 -0.002335 0.000000 0.000000 0.000000
# 3 -0.002835 -0.002335 0.005649 0.000000 0.000000 0.000000
# 4 0.000000 0.000000 0.000000 0.030174 0.000000 0.000000
# 5 0.000000 0.000000 0.000000 0.000000 0.020945 0.000000
# 6 0.000000 0.000000 0.000000 0.000000 0.000000 1.000664
#
#
# Mechanical properties :
#
#
# Convention : Reuss Voigt Hill
#
# Bulk Modulus (GPa) = 28.81610 77.01395 52.91502
# Shear Modulus (GPa) = 4.47194 38.63797 21.55495
#
# Velocity S-wave (km/s) = 1.43342 4.21341 3.14702
# Velocity P-wave (km/s) = 3.99745 7.68477 6.12516
#
# Compressibility (1/GPa) = 0.03470282
#
# Stress axis : x y z
#
# Youngs Moduli (GPa) = 148.20718 30.93946 177.00749
#
# Poissons Ratio (x) = -0.00504 0.50183
# Poissons Ratio (y) = -0.02416 0.41340
# Poissons Ratio (z) = 0.42018 0.07226
#
# Static dielectric constant tensor:
#      x y z
#    x 1.744770 0.000000 0.000000 
#    y 0.000000 1.821600 0.000000 
#    z 0.000000 0.000000 1.932960 
# 
# From -- ./inp_files/72838.got.cif
#   From: 2010.05.17/outbox.cif.g08.bks.cpg/sg65_37_cif.got.tgz:72838.got - 2010.06.03 17:01:31.
