data_PCOD9482481
_publ_section_title
;
Structure prediction by ZEFSAII (Michael W. Deem and Ramdas Pophale) SiO2 
 PCOD9482481
Probable space group: C M C A
;
_chemical_formula_sum "Si O2"
_cell_formula_units_Z 52
_cell_length_a 21.000000
_cell_length_b 9.000000
_cell_length_c 27.000000
_cell_angle_alpha 90.000000
_cell_angle_beta 90.000000
_cell_angle_gamma 90.000000
_cell_volume 5103.000000
_symmetry_space_group_name_H-M "C M C A"
_symmetry_group_IT_number 64
_symmetry_cell_setting 'orthorhombic'
loop_
_space_group_symop_operation_xyz
x,y,z
-x,1/2-y,1/2+z
x,-y,-z
-x,1/2+y,1/2-z
-x,-y,-z
x,1/2+y,1/2-z
-x,y,z
x,1/2-y,1/2+z
1/2+x,1/2+y,z
1/2-x,-y,1/2+z
1/2+x,1/2-y,-z
1/2-x,y,1/2-z
1/2-x,1/2-y,-z
1/2+x,y,1/2-z
1/2-x,1/2+y,z
1/2+x,-y,1/2+z
loop_
_atom_site_type_symbol
_atom_site_label
_atom_site_fract_x
_atom_site_fract_y
_atom_site_fract_z
Si Si1 0.305552 0.681599 0.916421
Si Si2 0.073830 0.253864 0.565276
Si Si3 0.073898 0.015494 0.865661
Si Si4 0.136475 0.000000 0.000000
Si Si5 0.078046 0.508027 0.181328
Si Si6 0.425929 0.185565 0.731588
Si Si7 0.172528 0.471608 0.090339
O O1 0.368674 0.616638 0.887780
O O2 0.237193 0.620383 0.897125
O O3 0.307133 0.859477 0.921837
O O4 0.316936 0.602436 0.968437
O O5 0.081684 0.344071 0.617635
O O6 0.089901 0.390023 0.529170
O O7 0.128085 0.131040 0.555054
O O8 0.000000 0.203980 0.561297
O O9 0.077361 0.050454 0.807635
O O10 0.000000 0.057739 0.880579
O O11 0.097322 0.664013 0.206783
O O12 0.099373 0.375578 0.217354
O O13 0.119539 0.493362 0.132852
O O14 0.000000 0.506801 0.173840
O O15 0.500000 0.215799 0.740940
#
# Coordination Sequence:
#
# PCOD9482481 Si02
#       7
#    16  16  16   8  16  16  16
#     4  11  24  42  66  91 124 168 214 263 327 386
#     4  10  22  39  65  98 128 163 206 265 325 380
#     4   9  18  37  64  91 124 163 208 261 320 374
#     4  10  23  46  70  94 121 158 214 270 325 394
#     4  10  21  38  64  98 129 166 214 261 311 372
#     4   9  18  34  61  94 125 162 207 257 306 365
#     4  12  25  42  63  90 131 172 213 262 317 389
#
# _framework density 10.190084000000001
#
# number of rings (size 3 to 8) (size 9 to 14) (size 15 to 20)
#    0.000    1.846    1.538    2.538    2.154    4.308 
#    0.000    1.538    0.000    0.000    0.000    0.000 
#    0.000    0.000    0.000    0.000    0.000    0.000 
#
# Total GULP energy -289631.243729 kJ/mol
# GULP energy per Si atom -5569.831610 kJ/mol
# Density = 1.016689 g / cm^3
# Si number density = 10.190084 Si / 1000 Ang^3
#
#
#
# Elastic Constant Matrix: (Units=GPa)
#
#
# Indices 1 2 3 4 5 6 
#
# 1 122.4006 50.1277 10.5272 0.0000 0.0000 0.0000
# 2 50.1277 114.1157 30.7756 0.0000 0.0000 0.0000
# 3 10.5272 30.7756 53.9338 0.0000 0.0000 0.0000
# 4 0.0000 0.0000 0.0000 27.7471 0.0000 0.0000
# 5 0.0000 0.0000 0.0000 0.0000 7.7910 0.0000
# 6 0.0000 0.0000 0.0000 0.0000 0.0000 32.2190
#
#
#
# Elastic Compliance Matrix: (Units=1/GPa)
#
#
# Indices 1 2 3 4 5 6 
#
# 1 0.009982 -0.004561 0.000654 0.000000 0.000000 0.000000
# 2 -0.004561 0.012441 -0.006209 0.000000 0.000000 0.000000
# 3 0.000654 -0.006209 0.021956 0.000000 0.000000 0.000000
# 4 0.000000 0.000000 0.000000 0.036040 0.000000 0.000000
# 5 0.000000 0.000000 0.000000 0.000000 0.128354 0.000000
# 6 0.000000 0.000000 0.000000 0.000000 0.000000 0.031038
#
#
# Mechanical properties :
#
#
# Convention : Reuss Voigt Hill
#
# Bulk Modulus (GPa) = 41.41147 52.59012 47.00080
# Shear Modulus (GPa) = 18.65041 26.81939 22.73490
#
# Velocity S-wave (km/s) = 3.02839 3.63155 3.34359
# Velocity P-wave (km/s) = 5.70892 6.59126 6.16589
#
# Compressibility (1/GPa) = 0.02414790
#
# Stress axis : x y z
#
# Youngs Moduli (GPa) = 100.18480 80.37922 45.54489
#
# Poissons Ratio (x) = 0.36662 -0.02980
# Poissons Ratio (y) = 0.45695 0.28278
# Poissons Ratio (z) = -0.06556 0.49906
#
# Static dielectric constant tensor:
#      x y z
#    x 1.708460 0.000000 0.000000 
#    y 0.000000 1.769780 0.000000 
#    z 0.000000 0.000000 1.839660 
# 
# From -- ./inp_files/50739.got.cif
#   From: 2010.05.17/outbox.ucp.g08.bks.cvg/sg64_26_cif.got.tgz:50739.got - 2010.06.11 16:36:46.
