data_PCOD9482425
_publ_section_title
;
Structure prediction by ZEFSAII (Michael W. Deem and Ramdas Pophale) SiO2 
 PCOD9482425
Probable space group: C M C A
;
_chemical_formula_sum "Si O2"
_cell_formula_units_Z 32
_cell_length_a 9.000000
_cell_length_b 21.000000
_cell_length_c 18.000000
_cell_angle_alpha 90.000000
_cell_angle_beta 90.000000
_cell_angle_gamma 90.000000
_cell_volume 3402.000000
_symmetry_space_group_name_H-M "C M C A"
_symmetry_group_IT_number 64
_symmetry_cell_setting 'orthorhombic'
loop_
_space_group_symop_operation_xyz
x,y,z
-x,1/2-y,1/2+z
x,-y,-z
-x,1/2+y,1/2-z
-x,-y,-z
x,1/2+y,1/2-z
-x,y,z
x,1/2-y,1/2+z
1/2+x,1/2+y,z
1/2-x,-y,1/2+z
1/2+x,1/2-y,-z
1/2-x,y,1/2-z
1/2-x,1/2-y,-z
1/2+x,y,1/2-z
1/2-x,1/2+y,z
1/2+x,-y,1/2+z
loop_
_atom_site_type_symbol
_atom_site_label
_atom_site_fract_x
_atom_site_fract_y
_atom_site_fract_z
Si Si1 0.177093 0.885968 0.831975
Si Si2 0.328417 0.997123 0.088509
Si Si3 0.676313 0.238786 0.168332
Si Si4 0.323032 0.119076 0.668104
O O1 0.250000 0.891513 0.750000
O O2 0.241884 0.821038 0.867677
O O3 0.000000 0.883202 0.825903
O O4 0.232318 0.945857 0.878053
O O5 0.500000 0.002576 0.113828
O O6 0.257212 0.932154 0.117516
O O7 0.325921 0.000000 0.000000
O O8 0.500000 0.226567 0.174456
O O9 0.750000 0.242458 0.250000
O O10 0.697395 0.309356 0.136804
O O11 0.500000 0.107422 0.674234
O O12 0.250000 0.115455 0.750000
#
# Coordination Sequence:
#
# PCOD9482425 Si02
#       4
#    16  16  16  16
#     4  11  21  35  58  84 111 142 179 222 267 319
#     4  11  24  40  56  76 107 145 184 227 272 319
#     4   9  17  31  53  82 112 139 173 218 267 316
#     4  10  20  35  58  85 112 142 178 222 268 320
#
# _framework density 9.4062319999999993
#
# number of rings (size 3 to 8) (size 9 to 14) (size 15 to 20)
#    0.000    1.750    0.000    6.750    0.000    5.000 
#    0.000    1.250    0.000    0.000    0.000    0.000 
#    0.000    0.000    0.000    0.000    0.000    0.000 
#
# Total GULP energy -178597.822446 kJ/mol
# GULP energy per Si atom -5581.181951 kJ/mol
# Density = 0.938482 g / cm^3
# Si number density = 9.406232 Si / 1000 Ang^3
#
#
#
# Elastic Constant Matrix: (Units=GPa)
#
#
# Indices 1 2 3 4 5 6 
#
# 1 178.3317 93.7438 31.7405 0.0000 0.0000 0.0000
# 2 93.7438 157.8677 37.5279 0.0000 0.0000 0.0000
# 3 31.7405 37.5279 31.8434 0.0000 0.0000 0.0000
# 4 0.0000 0.0000 0.0000 -264.7893 0.0000 0.0000
# 5 0.0000 0.0000 0.0000 0.0000 21.2104 0.0000
# 6 0.0000 0.0000 0.0000 0.0000 0.0000 37.5568
#
#
#
# Elastic Compliance Matrix: (Units=1/GPa)
#
#
# Indices 1 2 3 4 5 6 
#
# 1 0.008420 -0.004174 -0.003473 0.000000 0.000000 0.000000
# 2 -0.004174 0.010869 -0.008649 0.000000 0.000000 0.000000
# 3 -0.003473 -0.008649 0.045058 0.000000 0.000000 0.000000
# 4 0.000000 0.000000 0.000000 -0.003777 0.000000 0.000000
# 5 0.000000 0.000000 0.000000 0.000000 0.047147 0.000000
# 6 0.000000 0.000000 0.000000 0.000000 0.000000 0.026626
#
#
# Mechanical properties :
#
#
# Convention : Reuss Voigt Hill
#
# Bulk Modulus (GPa) = 31.49118 77.11857 54.30487
# Shear Modulus (GPa) = 28.16566 -27.53570 0.31498
#
# Velocity S-wave (km/s) = 3.87354 -3.82998 0.40963
# Velocity P-wave (km/s) = 6.06479 4.63940 5.39934
#
# Compressibility (1/GPa) = 0.03175492
#
# Stress axis : x y z
#
# Youngs Moduli (GPa) = 118.76464 92.00455 22.19346
#
# Poissons Ratio (x) = 0.38405 0.07709
# Poissons Ratio (y) = 0.49575 0.19194
# Poissons Ratio (z) = 0.41252 0.79571
#
# Static dielectric constant tensor:
#      x y z
#    x 1.627150 0.000000 0.000000 
#    y 0.000000 1.710570 0.000000 
#    z 0.000000 0.000000 1.615060 
# 
# From -- ./inp_files/29236.got.cif
#   From: 2010.05.17/outbox.ucp.g08.bks.cvg/sg64_15_cif.got.tgz:29236.got - 2010.06.11 16:36:46.
