data_PCOD9482677
_publ_section_title
;
Structure prediction by ZEFSAII (Michael W. Deem and Ramdas Pophale) SiO2 
 PCOD9482677
Probable space group: C M M M
;
_chemical_formula_sum "Si O2"
_cell_formula_units_Z 72
_cell_length_a 23.550283
_cell_length_b 8.930796
_cell_length_c 19.918839
_cell_angle_alpha 90.000000
_cell_angle_beta 90.000000
_cell_angle_gamma 90.000000
_cell_volume 4189.385458
_symmetry_space_group_name_H-M "C M M M"
_symmetry_group_IT_number 65
_symmetry_cell_setting 'orthorhombic'
loop_
_space_group_symop_operation_xyz
x,y,z
-x,-y,z
x,-y,-z
-x,y,-z
-x,-y,-z
x,y,-z
-x,y,z
x,-y,z
1/2+x,1/2+y,z
1/2-x,1/2-y,z
1/2+x,1/2-y,-z
1/2-x,1/2+y,-z
1/2-x,1/2-y,-z
1/2+x,1/2+y,-z
1/2-x,1/2+y,z
1/2+x,1/2-y,z
loop_
_atom_site_type_symbol
_atom_site_label
_atom_site_fract_x
_atom_site_fract_y
_atom_site_fract_z
Si Si1 0.188121 0.177115 0.699747
Si Si2 0.378779 0.179030 0.574197
Si Si3 0.000000 0.332493 0.725178
Si Si4 0.068529 0.500000 0.920613
Si Si5 0.616869 0.835850 0.804765
Si Si6 0.000000 0.173973 0.593913
O O1 0.250000 0.250000 0.699738
O O2 0.152892 0.247490 0.637403
O O3 0.157192 0.215852 0.770483
O O4 0.191226 0.000000 0.690637
O O5 0.352941 0.210026 0.500000
O O6 0.442513 0.244103 0.572285
O O7 0.380406 0.000000 0.583376
O O8 0.943720 0.323850 0.768719
O O9 0.000000 0.500000 0.692361
O O10 0.000000 0.198070 0.673615
O O11 0.099201 0.359737 0.882709
O O12 0.000000 0.500000 0.906922
O O13 0.076331 0.500000 0.000000
O O14 0.641757 0.000000 0.785813
O O15 0.000000 0.000000 0.575888
#
# Coordination Sequence:
#
# PCOD9482677 Si02
#       6
#    16  16   8   8  16   8
#     4  12  25  40  60  84 109 148 199 250 297 346
#     4  11  24  41  59  80 112 153 193 241 300 356
#     4  10  16  29  53  82 114 152 181 228 284 334
#     4   9  16  30  60 100 129 157 189 220 274 347
#     4   9  17  33  56  86 119 150 186 231 278 337
#     4  12  23  33  54  85 118 149 193 241 293 357
#
# _framework density 17.186291000000001
#
# number of rings (size 3 to 8) (size 9 to 14) (size 15 to 20)
#    0.667    0.778    3.333    4.000    0.000    3.556 
#    0.000    0.000    0.000    1.333    0.000    1.556 
#    0.000    0.000    0.000    0.000    0.000    0.000 
#
# Total GULP energy -200483.195030 kJ/mol
# GULP energy per Si atom -5568.977640 kJ/mol
# Density = 1.714717 g / cm^3
# Si number density = 17.186291 Si / 1000 Ang^3
#
#
#
# Elastic Constant Matrix: (Units=GPa)
#
#
# Indices 1 2 3 4 5 6 
#
# 1 96.4090 42.6726 46.8813 0.0000 0.0000 0.0000
# 2 42.6726 109.6028 46.2298 0.0000 0.0000 0.0000
# 3 46.8813 46.2298 132.5773 0.0000 0.0000 0.0000
# 4 0.0000 0.0000 0.0000 3.2874 0.0000 0.0000
# 5 0.0000 0.0000 0.0000 0.0000 22.8029 0.0000
# 6 0.0000 0.0000 0.0000 0.0000 0.0000 22.9478
#
#
#
# Elastic Compliance Matrix: (Units=1/GPa)
#
#
# Indices 1 2 3 4 5 6 
#
# 1 0.013809 -0.003889 -0.003527 0.000000 0.000000 0.000000
# 2 -0.003889 0.011792 -0.002737 0.000000 0.000000 0.000000
# 3 -0.003527 -0.002737 0.009744 0.000000 0.000000 0.000000
# 4 0.000000 0.000000 0.000000 0.304194 0.000000 0.000000
# 5 0.000000 0.000000 0.000000 0.000000 0.043854 0.000000
# 6 0.000000 0.000000 0.000000 0.000000 0.000000 0.043577
#
#
# Mechanical properties :
#
#
# Convention : Reuss Voigt Hill
#
# Bulk Modulus (GPa) = 66.48807 67.79515 67.14161
# Shear Modulus (GPa) = 11.05488 23.32797 17.19142
#
# Velocity S-wave (km/s) = 2.53897 3.68823 3.16618
# Velocity P-wave (km/s) = 6.88228 7.59409 7.24693
#
# Compressibility (1/GPa) = 0.01504029
#
# Stress axis : x y z
#
# Youngs Moduli (GPa) = 72.41782 84.80147 102.62374
#
# Poissons Ratio (x) = 0.32976 0.36196
# Poissons Ratio (y) = 0.28160 0.28087
# Poissons Ratio (z) = 0.25542 0.23209
#
# Static dielectric constant tensor:
#      x y z
#    x 1.576430 0.000000 0.000000 
#    y 0.000000 1.590190 0.000000 
#    z 0.000000 0.000000 1.612160 
# 
# From -- ./inp_files/70766.got.cif
#   From: 2010.05.17/outbox.cif.g08.bks.cpg/sg65_36_cif.got.tgz:70766.got - 2010.06.03 17:01:31.
