data_PCOD9482886
_publ_section_title
;
Structure prediction by ZEFSAII (Michael W. Deem and Ramdas Pophale) SiO2 
 PCOD9482886
Probable space group: C M M M
;
_chemical_formula_sum "Si O2"
_cell_formula_units_Z 104
_cell_length_a 8.799710
_cell_length_b 31.049654
_cell_length_c 23.349596
_cell_angle_alpha 90.000000
_cell_angle_beta 90.000000
_cell_angle_gamma 90.000000
_cell_volume 6379.762267
_symmetry_space_group_name_H-M "C M M M"
_symmetry_group_IT_number 65
_symmetry_cell_setting 'orthorhombic'
loop_
_space_group_symop_operation_xyz
x,y,z
-x,-y,z
x,-y,-z
-x,y,-z
-x,-y,-z
x,y,-z
-x,y,z
x,-y,z
1/2+x,1/2+y,z
1/2-x,1/2-y,z
1/2+x,1/2-y,-z
1/2-x,1/2+y,-z
1/2-x,1/2-y,-z
1/2+x,1/2+y,-z
1/2-x,1/2+y,z
1/2+x,1/2-y,z
loop_
_atom_site_type_symbol
_atom_site_label
_atom_site_fract_x
_atom_site_fract_y
_atom_site_fract_z
Si Si1 0.819057 0.049612 0.818576
Si Si2 0.817527 0.050583 0.500000
Si Si3 0.680493 0.888292 0.274227
Si Si4 0.317442 0.885356 0.409053
Si Si5 0.318796 0.294554 0.409965
Si Si6 0.319956 0.948051 0.062511
Si Si7 0.318053 0.207730 0.281997
O O1 0.763563 0.078188 0.766014
O O2 0.758846 0.067098 0.879516
O O3 0.000000 0.049045 0.820263
O O4 0.764711 0.000000 0.812010
O O5 0.749166 0.075619 0.445578
O O6 0.000000 0.054543 0.500000
O O7 0.778521 0.000000 0.500000
O O8 0.500000 0.895780 0.270566
O O9 0.721385 0.890931 0.341648
O O10 0.709201 0.838930 0.254840
O O11 0.500000 0.883434 0.413842
O O12 0.249218 0.839872 0.430877
O O13 0.500000 0.294161 0.415541
O O14 0.250000 0.250000 0.434017
O O15 0.266991 0.294252 0.343239
O O16 0.500000 0.939713 0.066136
O O17 0.300174 0.000000 0.061844
O O18 0.265144 0.932226 0.000000
O O19 0.500000 0.212095 0.291445
O O20 0.250000 0.250000 0.252095
#
# Coordination Sequence:
#
# PCOD9482886 Si02
#       7
#    16   8  16  16  16  16  16
#     4  10  20  30  42  65  96 128 161 198 239 279
#     4  11  25  43  60  77  96 121 157 201 247 293
#     4   9  19  33  49  70  96 126 159 194 233 281
#     4  10  21  38  57  76  97 124 161 201 242 287
#     4  10  17  28  49  76 104 130 154 184 229 284
#     4   8  14  26  44  63  85 119 160 196 232 277
#     4   9  16  27  44  68  95 124 158 193 233 282
#
# _framework density 16.301548
#
# number of rings (size 3 to 8) (size 9 to 14) (size 15 to 20)
#    0.000    2.538    0.000    5.308    0.000    6.154 
#    0.000    5.000    0.000    0.000    0.000    0.000 
#    0.000    0.615    0.000    2.000    0.000    2.615 
#
# Total GULP energy -289756.938960 kJ/mol
# GULP energy per Si atom -5572.248826 kJ/mol
# Density = 1.626444 g / cm^3
# Si number density = 16.301548 Si / 1000 Ang^3
#
#
#
# Elastic Constant Matrix: (Units=GPa)
#
#
# Indices 1 2 3 4 5 6 
#
# 1 70.3432 54.1100 43.0761 0.0000 0.0000 0.0000
# 2 54.1100 120.2443 58.2392 0.0000 0.0000 0.0000
# 3 43.0761 58.2392 93.0283 0.0000 0.0000 0.0000
# 4 0.0000 0.0000 0.0000 -11.7642 0.0000 0.0000
# 5 0.0000 0.0000 0.0000 0.0000 46.6395 0.0000
# 6 0.0000 0.0000 0.0000 0.0000 0.0000 28.6967
#
#
#
# Elastic Compliance Matrix: (Units=1/GPa)
#
#
# Indices 1 2 3 4 5 6 
#
# 1 0.024036 -0.007787 -0.006255 0.000000 0.000000 0.000000
# 2 -0.007787 0.014458 -0.005446 0.000000 0.000000 0.000000
# 3 -0.006255 -0.005446 0.017055 0.000000 0.000000 0.000000
# 4 0.000000 0.000000 0.000000 -0.085003 0.000000 0.000000
# 5 0.000000 0.000000 0.000000 0.000000 0.021441 0.000000
# 6 0.000000 0.000000 0.000000 0.000000 0.000000 0.034847
#
#
# Mechanical properties :
#
#
# Convention : Reuss Voigt Hill
#
# Bulk Modulus (GPa) = 60.33427 66.05184 63.19305
# Shear Modulus (GPa) = 70.09323 21.26043 45.67683
#
# Velocity S-wave (km/s) = 6.56439 3.61528 5.29913
# Velocity P-wave (km/s) = 9.72351 7.61799 8.73443
#
# Compressibility (1/GPa) = 0.01657433
#
# Stress axis : x y z
#
# Youngs Moduli (GPa) = 41.60397 69.16590 58.63411
#
# Poissons Ratio (x) = 0.53858 0.36676
# Poissons Ratio (y) = 0.32396 0.31930
# Poissons Ratio (z) = 0.26023 0.37665
#
# Static dielectric constant tensor:
#      x y z
#    x 1.542290 0.000000 0.000000 
#    y 0.000000 1.571070 0.000000 
#    z 0.000000 0.000000 1.572620 
# 
# From -- ./inp_files/68547.got.cif
#   From: 2010.05.17/outbox.cif.g08.bks.cpg/sg65_35_cif.got.tgz:68547.got - 2010.06.03 17:01:31.
