data_PCOD9482954
_publ_section_title
;
Structure prediction by ZEFSAII (Michael W. Deem and Ramdas Pophale) SiO2 
 PCOD9482954
Probable space group: C M M M
;
_chemical_formula_sum "Si O2"
_cell_formula_units_Z 72
_cell_length_a 16.379062
_cell_length_b 14.195229
_cell_length_c 16.651820
_cell_angle_alpha 90.000000
_cell_angle_beta 90.000000
_cell_angle_gamma 90.000000
_cell_volume 3871.623681
_symmetry_space_group_name_H-M "C M M M"
_symmetry_group_IT_number 65
_symmetry_cell_setting 'orthorhombic'
loop_
_space_group_symop_operation_xyz
x,y,z
-x,-y,z
x,-y,-z
-x,y,-z
-x,-y,-z
x,y,-z
-x,y,z
x,-y,z
1/2+x,1/2+y,z
1/2-x,1/2-y,z
1/2+x,1/2-y,-z
1/2-x,1/2+y,-z
1/2-x,1/2-y,-z
1/2+x,1/2+y,-z
1/2-x,1/2+y,z
1/2+x,1/2-y,z
loop_
_atom_site_type_symbol
_atom_site_label
_atom_site_fract_x
_atom_site_fract_y
_atom_site_fract_z
Si Si1 0.174605 0.000000 0.287787
Si Si2 0.000000 0.176976 0.591079
Si Si3 0.830439 0.500000 0.175457
Si Si4 0.500000 0.500000 0.712052
Si Si5 0.593521 0.210409 0.000000
Si Si6 0.401740 0.207085 0.821921
Si Si7 0.335357 0.706218 0.340323
Si Si8 0.352450 0.000000 0.000000
O O1 0.251734 0.000000 0.230700
O O2 0.175822 0.094001 0.340271
O O3 0.086263 0.000000 0.243059
O O4 0.000000 0.091375 0.654784
O O5 0.915975 0.231598 0.609103
O O6 0.000000 0.142818 0.500000
O O7 0.881544 0.404102 0.188072
O O8 0.803562 0.500000 0.082378
O O9 0.627351 0.236756 0.911993
O O10 0.500000 0.242245 0.000000
O O11 0.595625 0.095896 0.000000
O O12 0.500000 0.220990 0.816325
O O13 0.356211 0.262179 0.751101
O O14 0.250000 0.750000 0.366273
#
# Coordination Sequence:
#
# PCOD9482954 Si02
#       8
#     8   8   8   4   8  16  16   4
#     4  10  20  34  52  78 104 140 178 221 260 309
#     4  10  21  38  60  84 109 138 175 222 275 320
#     4  10  17  30  51  79 109 142 181 225 275 316
#     4   8  19  36  58  79 100 138 182 223 252 308
#     4   8  15  26  46  72 108 140 181 225 270 308
#     4  10  18  32  52  81 109 145 182 227 271 322
#     4  11  21  36  57  83 110 140 182 222 266 328
#     4   8  15  24  42  73 106 138 180 228 264 309
#
# _framework density 18.59685
#
# number of rings (size 3 to 8) (size 9 to 14) (size 15 to 20)
#    0.000    2.222    3.333    0.667    0.000    3.111 
#    0.000    1.667    0.000    0.333    0.000    3.889 
#    0.000    0.000    0.000    0.000    0.000    0.000 
#
# Total GULP energy -200469.270340 kJ/mol
# GULP energy per Si atom -5568.590843 kJ/mol
# Density = 1.855452 g / cm^3
# Si number density = 18.596850 Si / 1000 Ang^3
#
#
#
# Elastic Constant Matrix: (Units=GPa)
#
#
# Indices 1 2 3 4 5 6 
#
# 1 126.0551 11.7463 11.5185 0.0000 0.0000 0.0000
# 2 11.7463 61.8548 1.7971 0.0000 0.0000 0.0000
# 3 11.5185 1.7971 43.9596 0.0000 0.0000 0.0000
# 4 0.0000 0.0000 0.0000 -4.0224 0.0000 0.0000
# 5 0.0000 0.0000 0.0000 0.0000 2.4195 0.0000
# 6 0.0000 0.0000 0.0000 0.0000 0.0000 19.4348
#
#
#
# Elastic Compliance Matrix: (Units=1/GPa)
#
#
# Indices 1 2 3 4 5 6 
#
# 1 0.008266 -0.001509 -0.002104 0.000000 0.000000 0.000000
# 2 -0.001509 0.016461 -0.000278 0.000000 0.000000 0.000000
# 3 -0.002104 -0.000278 0.023311 0.000000 0.000000 0.000000
# 4 0.000000 0.000000 0.000000 -0.248610 0.000000 0.000000
# 5 0.000000 0.000000 0.000000 0.000000 0.413314 0.000000
# 6 0.000000 0.000000 0.000000 0.000000 0.000000 0.051454
#
#
# Mechanical properties :
#
#
# Convention : Reuss Voigt Hill
#
# Bulk Modulus (GPa) = 24.84021 31.33260 28.08640
# Shear Modulus (GPa) = 17.51951 17.35355 17.43653
#
# Velocity S-wave (km/s) = 3.07264 3.05806 3.06536
# Velocity P-wave (km/s) = 5.09651 5.41792 5.25967
#
# Compressibility (1/GPa) = 0.04025731
#
# Stress axis : x y z
#
# Youngs Moduli (GPa) = 120.97918 60.74802 42.89840
#
# Poissons Ratio (x) = 0.09164 0.09027
# Poissons Ratio (y) = 0.18250 0.01191
# Poissons Ratio (z) = 0.25456 0.01687
#
# Static dielectric constant tensor:
#      x y z
#    x 1.679050 0.000000 0.000000 
#    y 0.000000 1.653150 0.000000 
#    z 0.000000 0.000000 1.655360 
# 
# From -- ./inp_files/42247.got.cif
#   From: 2010.05.17/outbox.cif.g08.bks.cpg/sg65_22_cif.got.tgz:42247.got - 2010.06.03 17:01:31.
