data_PCOD9482848
_publ_section_title
;
Structure prediction by ZEFSAII (Michael W. Deem and Ramdas Pophale) SiO2 
 PCOD9482848
Probable space group: C M M M
;
_chemical_formula_sum "Si O2"
_cell_formula_units_Z 88
_cell_length_a 31.449740
_cell_length_b 24.364175
_cell_length_c 8.758302
_cell_angle_alpha 90.000000
_cell_angle_beta 90.000000
_cell_angle_gamma 90.000000
_cell_volume 6711.022362
_symmetry_space_group_name_H-M "C M M M"
_symmetry_group_IT_number 65
_symmetry_cell_setting 'orthorhombic'
loop_
_space_group_symop_operation_xyz
x,y,z
-x,-y,z
x,-y,-z
-x,y,-z
-x,-y,-z
x,y,-z
-x,y,z
x,-y,z
1/2+x,1/2+y,z
1/2-x,1/2-y,z
1/2+x,1/2-y,-z
1/2-x,1/2+y,-z
1/2-x,1/2-y,-z
1/2+x,1/2+y,-z
1/2-x,1/2+y,z
1/2+x,1/2-y,z
loop_
_atom_site_type_symbol
_atom_site_label
_atom_site_fract_x
_atom_site_fract_y
_atom_site_fract_z
Si Si1 0.739195 0.500000 0.183428
Si Si2 0.908919 0.108505 0.815215
Si Si3 0.705383 0.783193 0.824945
Si Si4 0.858502 0.000000 0.815010
Si Si5 0.662380 0.318998 0.682661
Si Si6 0.000000 0.064436 0.186091
Si Si7 0.751229 0.883232 0.317401
O O1 0.689875 0.500000 0.235763
O O2 0.756988 0.557191 0.246327
O O3 0.740930 0.500000 0.000000
O O4 0.881890 0.158089 0.746452
O O5 0.957423 0.096777 0.768086
O O6 0.883208 0.054073 0.766886
O O7 0.907913 0.112494 0.000000
O O8 0.750000 0.750000 0.825708
O O9 0.673093 0.741487 0.744676
O O10 0.716504 0.839101 0.737962
O O11 0.693215 0.793766 0.000000
O O12 0.858488 0.000000 0.000000
O O13 0.662073 0.318564 0.500000
O O14 0.702090 0.358955 0.731256
O O15 0.000000 0.000000 0.235287
O O16 0.000000 0.062230 0.000000
O O17 0.751442 0.886535 0.500000
#
# Coordination Sequence:
#
# PCOD9482848 Si02
#       7
#     8  16  16   8  16   8  16
#     4  11  19  27  40  59  79 104 138 169 198 237
#     4  10  17  28  43  59  75  99 134 172 210 249
#     4   9  17  29  44  59  74  96 127 162 197 236
#     4   9  16  24  39  56  73  97 131 171 206 240
#     4  10  19  29  41  57  77 101 128 163 205 246
#     4   9  16  26  43  61  77  99 133 174 213 248
#     4  10  19  29  40  57  81 104 127 160 202 242
#
# _framework density 13.112755999999999
#
# number of rings (size 3 to 8) (size 9 to 14) (size 15 to 20)
#    0.000    2.273    2.727    1.909    0.000    3.636 
#    0.000    0.909    0.000    0.545    0.000    0.000 
#    0.000    0.000    0.000    0.000    0.000    0.909 
#
# Total GULP energy -245167.642356 kJ/mol
# GULP energy per Si atom -5571.991872 kJ/mol
# Density = 1.308291 g / cm^3
# Si number density = 13.112756 Si / 1000 Ang^3
#
#
#
# Elastic Constant Matrix: (Units=GPa)
#
#
# Indices 1 2 3 4 5 6 
#
# 1 69.3718 51.0465 21.2374 0.0000 0.0000 0.0000
# 2 51.0465 108.3160 36.1809 0.0000 0.0000 0.0000
# 3 21.2374 36.1809 41.1866 0.0000 0.0000 0.0000
# 4 0.0000 0.0000 0.0000 13.6234 0.0000 0.0000
# 5 0.0000 0.0000 0.0000 0.0000 11.4802 0.0000
# 6 0.0000 0.0000 0.0000 0.0000 0.0000 19.3116
#
#
#
# Elastic Compliance Matrix: (Units=1/GPa)
#
#
# Indices 1 2 3 4 5 6 
#
# 1 0.022365 -0.009465 -0.003217 0.000000 0.000000 0.000000
# 2 -0.009465 0.017072 -0.010117 0.000000 0.000000 0.000000
# 3 -0.003217 -0.010117 0.034826 0.000000 0.000000 0.000000
# 4 0.000000 0.000000 0.000000 0.073403 0.000000 0.000000
# 5 0.000000 0.000000 0.000000 0.000000 0.087107 0.000000
# 6 0.000000 0.000000 0.000000 0.000000 0.000000 0.051782
#
#
# Mechanical properties :
#
#
# Convention : Reuss Voigt Hill
#
# Bulk Modulus (GPa) = 34.88639 48.42266 41.65452
# Shear Modulus (GPa) = 14.63236 16.24369 15.43802
#
# Velocity S-wave (km/s) = 3.34411 3.52343 3.43494
# Velocity P-wave (km/s) = 6.44775 7.31853 6.89690
#
# Compressibility (1/GPa) = 0.02866448
#
# Stress axis : x y z
#
# Youngs Moduli (GPa) = 44.71277 58.57446 28.71433
#
# Poissons Ratio (x) = 0.55443 0.09238
# Poissons Ratio (y) = 0.42322 0.29049
# Poissons Ratio (z) = 0.14385 0.59258
#
# Static dielectric constant tensor:
#      x y z
#    x 1.417940 0.000000 0.000000 
#    y 0.000000 1.426740 0.000000 
#    z 0.000000 0.000000 1.440240 
# 
# From -- ./inp_files/18577.got.cif
#   From: 2010.05.17/outbox.cif.g08.bks.cpg/sg65_10_cif.got.tgz:18577.got - 2010.06.03 17:01:31.
