data_PCOD9482407
_publ_section_title
;
Structure prediction by ZEFSAII (Michael W. Deem and Ramdas Pophale) SiO2 
 PCOD9482407
Probable space group: C M C A
;
_chemical_formula_sum "Si O2"
_cell_formula_units_Z 48
_cell_length_a 9.000000
_cell_length_b 21.000000
_cell_length_c 27.000000
_cell_angle_alpha 90.000000
_cell_angle_beta 90.000000
_cell_angle_gamma 90.000000
_cell_volume 5103.000000
_symmetry_space_group_name_H-M "C M C A"
_symmetry_group_IT_number 64
_symmetry_cell_setting 'orthorhombic'
loop_
_space_group_symop_operation_xyz
x,y,z
-x,1/2-y,1/2+z
x,-y,-z
-x,1/2+y,1/2-z
-x,-y,-z
x,1/2+y,1/2-z
-x,y,z
x,1/2-y,1/2+z
1/2+x,1/2+y,z
1/2-x,-y,1/2+z
1/2+x,1/2-y,-z
1/2-x,y,1/2-z
1/2-x,1/2-y,-z
1/2+x,y,1/2-z
1/2-x,1/2+y,z
1/2+x,-y,1/2+z
loop_
_atom_site_type_symbol
_atom_site_label
_atom_site_fract_x
_atom_site_fract_y
_atom_site_fract_z
Si Si1 0.678825 0.563866 0.803332
Si Si2 0.670028 0.809663 0.636979
Si Si3 0.669718 0.812804 0.517538
Si Si4 0.321656 0.947432 0.631769
Si Si5 0.175063 0.204970 0.803000
Si Si6 0.167255 0.566458 0.027560
O O1 0.500000 0.559979 0.799651
O O2 0.750000 0.555929 0.750000
O O3 0.731346 0.507841 0.838298
O O4 0.718908 0.634469 0.821071
O O5 0.500000 0.795316 0.651292
O O6 0.675116 0.813310 0.577471
O O7 0.711698 0.879582 0.656627
O O8 0.775667 0.756819 0.658089
O O9 0.500000 0.812547 0.501611
O O10 0.750000 0.750000 0.500000
O O11 0.748382 0.877072 0.499688
O O12 0.500000 0.949736 0.626214
O O13 0.249615 0.946536 0.578488
O O14 0.250000 0.216532 0.750000
O O15 0.000000 0.205746 0.795710
O O16 0.000000 0.588726 0.037164
O O17 0.164707 0.500000 0.000000
#
# Coordination Sequence:
#
# PCOD9482407 Si02
#       6
#    16  16  16  16  16  16
#     4   9  19  35  53  75 102 132 170 212 255 306
#     4   9  19  35  53  75 104 135 168 211 258 305
#     4  10  21  37  57  80 108 141 176 218 267 317
#     4   9  19  36  55  76 103 135 173 215 260 310
#     4  10  20  34  53  76 103 136 172 212 257 308
#     4  10  21  36  54  79 109 140 178 220 261 310
#
# _framework density 9.4062319999999993
#
# number of rings (size 3 to 8) (size 9 to 14) (size 15 to 20)
#    0.000    2.500    0.000    2.500    0.000    8.000 
#    0.000    5.000    0.000    0.000    0.000    0.000 
#    0.000    0.000    0.000    0.000    0.000    0.000 
#
# Total GULP energy -267459.215761 kJ/mol
# GULP energy per Si atom -5572.066995 kJ/mol
# Density = 0.938482 g / cm^3
# Si number density = 9.406232 Si / 1000 Ang^3
#
#
#
# Elastic Constant Matrix: (Units=GPa)
#
#
# Indices 1 2 3 4 5 6 
#
# 1 -43.1364 82.2340 32.8669 0.0000 0.0000 0.0000
# 2 82.2340 82.0592 39.8143 0.0000 0.0000 0.0000
# 3 32.8669 39.8143 9.7616 0.0000 0.0000 0.0000
# 4 0.0000 0.0000 0.0000 23.5931 0.0000 0.0000
# 5 0.0000 0.0000 0.0000 0.0000 30.1269 0.0000
# 6 0.0000 0.0000 0.0000 0.0000 0.0000 7.9088
#
#
#
# Elastic Compliance Matrix: (Units=1/GPa)
#
#
# Indices 1 2 3 4 5 6 
#
# 1 -0.008308 0.005359 0.006114 0.000000 0.000000 0.000000
# 2 0.005359 -0.015906 0.046830 0.000000 0.000000 0.000000
# 3 0.006114 0.046830 -0.109147 0.000000 0.000000 0.000000
# 4 0.000000 0.000000 0.000000 0.042385 0.000000 0.000000
# 5 0.000000 0.000000 0.000000 0.000000 0.033193 0.000000
# 6 0.000000 0.000000 0.000000 0.000000 0.000000 0.126441
#
#
# Mechanical properties :
#
#
# Convention : Reuss Voigt Hill
#
# Bulk Modulus (GPa) = -59.68631 39.83495 -9.92568
# Shear Modulus (GPa) = -93.40337 5.24371 -44.07983
#
# Velocity S-wave (km/s) = -7.05390 1.67135 -4.84583
# Velocity P-wave (km/s) = 9.90652 4.99453 6.04954
#
# Compressibility (1/GPa) = -0.01675426
#
# Stress axis : x y z
#
# Youngs Moduli (GPa) = -120.37051 -62.87054 -9.16198
#
# Poissons Ratio (x) = 0.33693 0.05601
# Poissons Ratio (y) = 0.64508 0.42906
# Poissons Ratio (z) = 0.73590 2.94424
#
# Static dielectric constant tensor:
#      x y z
#    x 1.620740 0.000000 0.000000 
#    y 0.000000 1.706830 0.000000 
#    z 0.000000 0.000000 1.613760 
# 
# From -- ./inp_files/48141.got.cif
#   From: 2010.05.17/outbox.ucp.g08.bks.cvg/sg64_25_cif.got.tgz:48141.got - 2010.06.11 16:36:46.
