data_PCOD9482269
_publ_section_title
;
Structure prediction by ZEFSAII (Michael W. Deem and Ramdas Pophale) SiO2 
 PCOD9482269
Probable space group: C M C A
;
_chemical_formula_sum "Si O2"
_cell_formula_units_Z 80
_cell_length_a 14.595226
_cell_length_b 10.130877
_cell_length_c 28.446558
_cell_angle_alpha 90.000000
_cell_angle_beta 90.000000
_cell_angle_gamma 90.000000
_cell_volume 4206.177458
_symmetry_space_group_name_H-M "C M C A"
_symmetry_group_IT_number 64
_symmetry_cell_setting 'orthorhombic'
loop_
_space_group_symop_operation_xyz
x,y,z
-x,1/2-y,1/2+z
x,-y,-z
-x,1/2+y,1/2-z
-x,-y,-z
x,1/2+y,1/2-z
-x,y,z
x,1/2-y,1/2+z
1/2+x,1/2+y,z
1/2-x,-y,1/2+z
1/2+x,1/2-y,-z
1/2-x,y,1/2-z
1/2-x,1/2-y,-z
1/2+x,y,1/2-z
1/2-x,1/2+y,z
1/2+x,-y,1/2+z
loop_
_atom_site_type_symbol
_atom_site_label
_atom_site_fract_x
_atom_site_fract_y
_atom_site_fract_z
Si Si1 0.606299 0.278034 0.613593
Si Si2 0.611895 0.573452 0.202511
Si Si3 0.394357 0.537536 0.097667
Si Si4 0.612095 0.773550 0.282349
Si Si5 0.234763 0.121722 0.468134
O O1 0.500000 0.319451 0.610925
O O2 0.638263 0.291248 0.667673
O O3 0.665952 0.349549 0.574586
O O4 0.609622 0.120880 0.603324
O O5 0.500000 0.571499 0.202899
O O6 0.637224 0.594471 0.148141
O O7 0.641995 0.686528 0.238241
O O8 0.641628 0.426482 0.218129
O O9 0.500000 0.574620 0.089869
O O10 0.330538 0.582734 0.055837
O O11 0.500000 0.775539 0.282452
O O12 0.250000 0.250000 0.500000
O O13 0.202747 0.000000 0.500000
#
# Coordination Sequence:
#
# PCOD9482269 Si02
#       5
#    16  16  16  16  16
#     4   9  19  38  61  83 113 151 186 225 281 340
#     4   8  14  28  52  81 110 141 179 220 265 324
#     4   9  19  38  62  83 110 153 192 220 272 350
#     4   8  14  28  52  80 110 143 177 218 268 325
#     4  12  24  40  60  83 111 144 189 246 287 324
#
# _framework density 19.019645000000001
#
# number of rings (size 3 to 8) (size 9 to 14) (size 15 to 20)
#    0.000    2.800    2.000    2.400    0.000    1.600 
#    3.600    1.000    0.000    4.800    0.000    0.000 
#    0.000    0.000    0.000    0.000    0.000    0.000 
#
# Total GULP energy -223202.742704 kJ/mol
# GULP energy per Si atom -5580.068568 kJ/mol
# Density = 1.897635 g / cm^3
# Si number density = 19.019645 Si / 1000 Ang^3
#
#
#
# Elastic Constant Matrix: (Units=GPa)
#
#
# Indices 1 2 3 4 5 6 
#
# 1 39.0831 -10.9357 6.1538 0.0000 0.0000 0.0000
# 2 -10.9357 26.0421 10.0482 0.0000 0.0000 0.0000
# 3 6.1538 10.0482 70.0885 0.0000 0.0000 0.0000
# 4 0.0000 0.0000 0.0000 42.9476 0.0000 0.0000
# 5 0.0000 0.0000 0.0000 0.0000 -2.2122 0.0000
# 6 0.0000 0.0000 0.0000 0.0000 0.0000 12.2586
#
#
#
# Elastic Compliance Matrix: (Units=1/GPa)
#
#
# Indices 1 2 3 4 5 6 
#
# 1 0.030427 0.014616 -0.004767 0.000000 0.000000 0.000000
# 2 0.014616 0.047669 -0.008117 0.000000 0.000000 0.000000
# 3 -0.004767 -0.008117 0.015850 0.000000 0.000000 0.000000
# 4 0.000000 0.000000 0.000000 0.023284 0.000000 0.000000
# 5 0.000000 0.000000 0.000000 0.000000 -0.452044 0.000000
# 6 0.000000 0.000000 0.000000 0.000000 0.000000 0.081576
#
#
# Mechanical properties :
#
#
# Convention : Reuss Voigt Hill
#
# Bulk Modulus (GPa) = 10.26588 16.19402 13.22995
# Shear Modulus (GPa) = -22.29833 19.26196 -1.51819
#
# Velocity S-wave (km/s) = -3.42772 3.18581 -0.89440
# Velocity P-wave (km/s) = 3.20258 4.69738 2.42990
#
# Compressibility (1/GPa) = 0.09741007
#
# Stress axis : x y z
#
# Youngs Moduli (GPa) = 32.86569 20.97788 63.09167
#
# Poissons Ratio (x) = -0.30662 0.30075
# Poissons Ratio (y) = -0.48038 0.51214
# Poissons Ratio (z) = 0.15667 0.17029
#
# Static dielectric constant tensor:
#      x y z
#    x 1.675300 0.000000 0.000000 
#    y 0.000000 1.637180 0.000000 
#    z 0.000000 0.000000 1.652330 
# 
# From -- ./inp_files/44975.got.cif
#   From: 2010.05.17/outbox.cif.g08.bks.cpg/sg64_23_cif.got.tgz:44975.got - 2010.06.03 16:29:19.
