data_PCOD9482518
_publ_section_title
;
Structure prediction by ZEFSAII (Michael W. Deem and Ramdas Pophale) SiO2 
 PCOD9482518
Probable space group: C M C A
;
_chemical_formula_sum "Si O2"
_cell_formula_units_Z 36
_cell_length_a 18.000000
_cell_length_b 15.000000
_cell_length_c 15.000000
_cell_angle_alpha 90.000000
_cell_angle_beta 90.000000
_cell_angle_gamma 90.000000
_cell_volume 4050.000000
_symmetry_space_group_name_H-M "C M C A"
_symmetry_group_IT_number 64
_symmetry_cell_setting 'orthorhombic'
loop_
_space_group_symop_operation_xyz
x,y,z
-x,1/2-y,1/2+z
x,-y,-z
-x,1/2+y,1/2-z
-x,-y,-z
x,1/2+y,1/2-z
-x,y,z
x,1/2-y,1/2+z
1/2+x,1/2+y,z
1/2-x,-y,1/2+z
1/2+x,1/2-y,-z
1/2-x,y,1/2-z
1/2-x,1/2-y,-z
1/2+x,y,1/2-z
1/2-x,1/2+y,z
1/2+x,-y,1/2+z
loop_
_atom_site_type_symbol
_atom_site_label
_atom_site_fract_x
_atom_site_fract_y
_atom_site_fract_z
Si Si1 0.208151 0.500000 0.000000
Si Si2 0.588723 0.187362 0.362299
Si Si3 0.189427 0.509445 0.326628
Si Si4 0.165168 0.304168 0.287385
Si Si5 0.831501 0.209933 0.478049
O O1 0.261011 0.506955 0.914258
O O2 0.168556 0.600008 0.010269
O O3 0.500000 0.171545 0.362437
O O4 0.612638 0.257706 0.285555
O O5 0.614615 0.237457 0.453358
O O6 0.633903 0.093496 0.344773
O O7 0.250000 0.533098 0.250000
O O8 0.154025 0.411576 0.302751
O O9 0.250000 0.296232 0.250000
O O10 0.155362 0.246010 0.377609
O O11 0.750000 0.250000 0.500000
#
# Coordination Sequence:
#
# PCOD9482518 Si02
#       5
#     8  16  16  16  16
#     4  12  20  36  68  98 112 156 216 258 292 360
#     4  12  26  41  58  92 133 163 198 255 312 364
#     4  11  21  37  65  90 115 160 212 252 304 362
#     4  11  21  40  66  92 118 162 212 256 301 364
#     4  12  21  40  67  92 123 157 209 251 303 363
#
# _framework density 8.8888890000000007
#
# number of rings (size 3 to 8) (size 9 to 14) (size 15 to 20)
#    0.000    0.444    6.667    3.333    0.000    1.778 
#    0.000    4.444    0.000    0.000    0.000    0.000 
#    0.000    0.000    0.000    0.000    0.000    0.000 
#
# Total GULP energy -200876.995355 kJ/mol
# GULP energy per Si atom -5579.916538 kJ/mol
# Density = 0.886866 g / cm^3
# Si number density = 8.888889 Si / 1000 Ang^3
#
#
#
# Elastic Constant Matrix: (Units=GPa)
#
#
# Indices 1 2 3 4 5 6 
#
# 1 99.7491 55.3362 42.5500 0.0000 0.0000 0.0000
# 2 55.3362 206.8089 47.5430 0.0000 0.0000 0.0000
# 3 42.5500 47.5430 148.7848 0.0000 0.0000 0.0000
# 4 0.0000 0.0000 0.0000 39.8984 0.0000 0.0000
# 5 0.0000 0.0000 0.0000 0.0000 22.0207 0.0000
# 6 0.0000 0.0000 0.0000 0.0000 0.0000 18.9978
#
#
#
# Elastic Compliance Matrix: (Units=1/GPa)
#
#
# Indices 1 2 3 4 5 6 
#
# 1 0.012741 -0.002775 -0.002757 0.000000 0.000000 0.000000
# 2 -0.002775 0.005823 -0.001067 0.000000 0.000000 0.000000
# 3 -0.002757 -0.001067 0.007850 0.000000 0.000000 0.000000
# 4 0.000000 0.000000 0.000000 0.025064 0.000000 0.000000
# 5 0.000000 0.000000 0.000000 0.000000 0.045412 0.000000
# 6 0.000000 0.000000 0.000000 0.000000 0.000000 0.052638
#
#
# Mechanical properties :
#
#
# Convention : Reuss Voigt Hill
#
# Bulk Modulus (GPa) = 75.66526 82.91125 79.28826
# Shear Modulus (GPa) = 29.91655 36.84427 33.38041
#
# Velocity S-wave (km/s) = 4.10665 4.55740 4.33788
# Velocity P-wave (km/s) = 8.07095 8.62740 8.35381
#
# Compressibility (1/GPa) = 0.01321610
#
# Stress axis : x y z
#
# Youngs Moduli (GPa) = 78.48838 171.72433 127.38043
#
# Poissons Ratio (x) = 0.47659 0.35116
# Poissons Ratio (y) = 0.21783 0.13593
# Poissons Ratio (z) = 0.21638 0.18325
#
# Static dielectric constant tensor:
#      x y z
#    x 1.588250 0.000000 0.000000 
#    y 0.000000 1.632640 0.000000 
#    z 0.000000 0.000000 1.691950 
# 
# From -- ./inp_files/25136.got.cif
#   From: 2010.05.17/outbox.ucp.g08.bks.cvg/sg64_13_cif.got.tgz:25136.got - 2010.06.11 16:36:46.
