data_PCOD9482403
_publ_section_title
;
Structure prediction by ZEFSAII (Michael W. Deem and Ramdas Pophale) SiO2 
 PCOD9482403
Probable space group: C M C A
;
_chemical_formula_sum "Si O2"
_cell_formula_units_Z 40
_cell_length_a 9.000000
_cell_length_b 27.000000
_cell_length_c 18.000000
_cell_angle_alpha 90.000000
_cell_angle_beta 90.000000
_cell_angle_gamma 90.000000
_cell_volume 4374.000000
_symmetry_space_group_name_H-M "C M C A"
_symmetry_group_IT_number 64
_symmetry_cell_setting 'orthorhombic'
loop_
_space_group_symop_operation_xyz
x,y,z
-x,1/2-y,1/2+z
x,-y,-z
-x,1/2+y,1/2-z
-x,-y,-z
x,1/2+y,1/2-z
-x,y,z
x,1/2-y,1/2+z
1/2+x,1/2+y,z
1/2-x,-y,1/2+z
1/2+x,1/2-y,-z
1/2-x,y,1/2-z
1/2-x,1/2-y,-z
1/2+x,y,1/2-z
1/2-x,1/2+y,z
1/2+x,-y,1/2+z
loop_
_atom_site_type_symbol
_atom_site_label
_atom_site_fract_x
_atom_site_fract_y
_atom_site_fract_z
Si Si1 0.178078 0.593030 0.976429
Si Si2 0.324116 0.700326 0.473417
Si Si3 0.671072 0.555113 0.123937
Si Si4 0.171575 0.832860 0.825111
Si Si5 0.824151 0.041503 0.676875
O O1 0.216353 0.570672 0.897393
O O2 0.000000 0.587559 0.988815
O O3 0.215158 0.651074 0.980174
O O4 0.262507 0.565168 0.042399
O O5 0.500000 0.705376 0.474295
O O6 0.250000 0.750000 0.500000
O O7 0.264373 0.688969 0.392115
O O8 0.500000 0.538982 0.119486
O O9 0.676434 0.607674 0.165416
O O10 0.766671 0.514023 0.164631
O O11 0.250000 0.818121 0.750000
O O12 0.000000 0.817647 0.828692
O O13 0.750000 0.063019 0.750000
O O14 0.000000 0.041511 0.685114
#
# Coordination Sequence:
#
# PCOD9482403 Si02
#       5
#    16  16  16  16  16
#     4   9  20  37  55  75 103 139 176 217 263 312
#     4  10  20  37  59  80 104 136 175 219 268 319
#     4  10  20  33  53  80 108 139 175 215 258 309
#     4  10  20  34  53  80 110 138 172 215 264 313
#     4  11  22  35  51  74 106 143 179 214 255 304
#
# _framework density 9.1449470000000002
#
# number of rings (size 3 to 8) (size 9 to 14) (size 15 to 20)
#    0.000    2.000    0.000    3.600    0.000    8.800 
#    0.000    1.000    0.000    2.400    0.000    0.000 
#    0.000    0.000    0.000    0.000    0.000    0.000 
#
# Total GULP energy -223276.807137 kJ/mol
# GULP energy per Si atom -5581.920178 kJ/mol
# Density = 0.912413 g / cm^3
# Si number density = 9.144947 Si / 1000 Ang^3
#
#
#
# Elastic Constant Matrix: (Units=GPa)
#
#
# Indices 1 2 3 4 5 6 
#
# 1 12.3394 23.1691 26.4985 0.0000 0.0000 0.0000
# 2 23.1691 53.4736 37.9078 0.0000 0.0000 0.0000
# 3 26.4985 37.9078 44.3208 0.0000 0.0000 0.0000
# 4 0.0000 0.0000 0.0000 0.2135 0.0000 0.0000
# 5 0.0000 0.0000 0.0000 0.0000 29.4248 0.0000
# 6 0.0000 0.0000 0.0000 0.0000 0.0000 24.1613
#
#
#
# Elastic Compliance Matrix: (Units=1/GPa)
#
#
# Indices 1 2 3 4 5 6 
#
# 1 -0.284446 0.006822 0.164229 0.000000 0.000000 0.000000
# 2 0.006822 0.047340 -0.044569 0.000000 0.000000 0.000000
# 3 0.164229 -0.044569 -0.037506 0.000000 0.000000 0.000000
# 4 0.000000 0.000000 0.000000 4.682777 0.000000 0.000000
# 5 0.000000 0.000000 0.000000 0.000000 0.033985 0.000000
# 6 0.000000 0.000000 0.000000 0.000000 0.000000 0.041388
#
#
# Mechanical properties :
#
#
# Convention : Reuss Voigt Hill
#
# Bulk Modulus (GPa) = -46.19468 31.69829 -7.24819
# Shear Modulus (GPa) = 1.18389 12.26383 6.72386
#
# Velocity S-wave (km/s) = 0.80542 2.59226 1.91944
# Velocity P-wave (km/s) = 4.94437 5.13112 0.96994
#
# Compressibility (1/GPa) = -0.02164752
#
# Stress axis : x y z
#
# Youngs Moduli (GPa) = -3.51561 21.12361 -26.66243
#
# Poissons Ratio (x) = -0.14411 4.37874
# Poissons Ratio (y) = 0.02398 -1.18832
# Poissons Ratio (z) = 0.57737 0.94146
#
# Static dielectric constant tensor:
#      x y z
#    x 1.606820 0.000000 0.000000 
#    y 0.000000 1.786290 0.000000 
#    z 0.000000 0.000000 1.610490 
# 
# From -- ./inp_files/29692.got.cif
#   From: 2010.05.17/outbox.ucp.g08.bks.cvg/sg64_15_cif.got.tgz:29692.got - 2010.06.11 16:36:46.
