data_PCOD9482496
_publ_section_title
;
Structure prediction by ZEFSAII (Michael W. Deem and Ramdas Pophale) SiO2 
 PCOD9482496
Probable space group: C M C A
;
_chemical_formula_sum "Si O2"
_cell_formula_units_Z 40
_cell_length_a 9.000000
_cell_length_b 27.000000
_cell_length_c 18.000000
_cell_angle_alpha 90.000000
_cell_angle_beta 90.000000
_cell_angle_gamma 90.000000
_cell_volume 4374.000000
_symmetry_space_group_name_H-M "C M C A"
_symmetry_group_IT_number 64
_symmetry_cell_setting 'orthorhombic'
loop_
_space_group_symop_operation_xyz
x,y,z
-x,1/2-y,1/2+z
x,-y,-z
-x,1/2+y,1/2-z
-x,-y,-z
x,1/2+y,1/2-z
-x,y,z
x,1/2-y,1/2+z
1/2+x,1/2+y,z
1/2-x,-y,1/2+z
1/2+x,1/2-y,-z
1/2-x,y,1/2-z
1/2-x,1/2-y,-z
1/2+x,y,1/2-z
1/2-x,1/2+y,z
1/2+x,-y,1/2+z
loop_
_atom_site_type_symbol
_atom_site_label
_atom_site_fract_x
_atom_site_fract_y
_atom_site_fract_z
Si Si1 0.321857 0.899392 0.580657
Si Si2 0.677616 0.999391 0.330810
Si Si3 0.321578 0.591119 0.579273
Si Si4 0.321339 0.189753 0.831151
Si Si5 0.821161 0.800675 0.831247
O O1 0.500000 0.897896 0.566767
O O2 0.235258 0.907213 0.504597
O O3 0.277345 0.847304 0.618370
O O4 0.293442 0.946709 0.633200
O O5 0.500000 0.992771 0.326367
O O6 0.750000 0.997226 0.250000
O O7 0.747195 0.955403 0.379665
O O8 0.500000 0.586522 0.582667
O O9 0.278006 0.643165 0.618414
O O10 0.500000 0.188596 0.823949
O O11 0.250000 0.184174 0.750000
O O12 0.281007 0.245208 0.859406
O O13 0.750000 0.806012 0.750000
O O14 0.000000 0.802397 0.824142
#
# Coordination Sequence:
#
# PCOD9482496 Si02
#       5
#    16  16  16  16  16
#     4  10  22  38  56  80 111 144 177 220 273 323
#     4  11  23  39  59  82 108 140 180 223 269 322
#     4  11  23  37  55  81 112 145 182 223 267 318
#     4   9  19  35  55  80 108 140 180 223 266 316
#     4   9  18  35  57  80 108 141 179 223 269 318
#
# _framework density 9.1449470000000002
#
# number of rings (size 3 to 8) (size 9 to 14) (size 15 to 20)
#    0.000    2.000    0.000    3.000    0.000    8.800 
#    0.000    0.000    0.000    0.000    0.000    0.000 
#    0.000    0.000    0.000    0.000    0.000    0.000 
#
# Total GULP energy -223345.361786 kJ/mol
# GULP energy per Si atom -5583.634045 kJ/mol
# Density = 0.912413 g / cm^3
# Si number density = 9.144947 Si / 1000 Ang^3
#
#
#
# Elastic Constant Matrix: (Units=GPa)
#
#
# Indices 1 2 3 4 5 6 
#
# 1 21.5124 16.8980 9.8246 0.0000 0.0000 0.0000
# 2 16.8980 61.6610 -9.2826 0.0000 0.0000 0.0000
# 3 9.8246 -9.2826 32.6223 0.0000 0.0000 0.0000
# 4 0.0000 0.0000 0.0000 6.8504 0.0000 0.0000
# 5 0.0000 0.0000 0.0000 0.0000 35.2572 0.0000
# 6 0.0000 0.0000 0.0000 0.0000 0.0000 27.6265
#
#
#
# Elastic Compliance Matrix: (Units=1/GPa)
#
#
# Indices 1 2 3 4 5 6 
#
# 1 0.083457 -0.027848 -0.033058 0.000000 0.000000 0.000000
# 2 -0.027848 0.026236 0.015852 0.000000 0.000000 0.000000
# 3 -0.033058 0.015852 0.045120 0.000000 0.000000 0.000000
# 4 0.000000 0.000000 0.000000 0.145978 0.000000 0.000000
# 5 0.000000 0.000000 0.000000 0.000000 0.028363 0.000000
# 6 0.000000 0.000000 0.000000 0.000000 0.000000 0.036197
#
#
# Mechanical properties :
#
#
# Convention : Reuss Voigt Hill
#
# Bulk Modulus (GPa) = 15.45470 16.74175 16.09823
# Shear Modulus (GPa) = 10.48159 20.50386 15.49272
#
# Velocity S-wave (km/s) = 2.39651 3.35184 2.91359
# Velocity P-wave (km/s) = 4.01570 4.91459 4.48771
#
# Compressibility (1/GPa) = 0.06470522
#
# Stress axis : x y z
#
# Youngs Moduli (GPa) = 11.98225 38.11595 22.16294
#
# Poissons Ratio (x) = 1.06144 0.73266
# Poissons Ratio (y) = 0.33368 -0.35133
# Poissons Ratio (z) = 0.39611 -0.60422
#
# Static dielectric constant tensor:
#      x y z
#    x 1.610660 0.000000 0.000000 
#    y 0.000000 1.638150 0.000000 
#    z 0.000000 0.000000 1.587780 
# 
# From -- ./inp_files/29719.got.cif
#   From: 2010.05.17/outbox.ucp.g08.bks.cvg/sg64_15_cif.got.tgz:29719.got - 2010.06.11 16:36:46.
