data_PCOD9482835
_publ_section_title
;
Structure prediction by ZEFSAII (Michael W. Deem and Ramdas Pophale) SiO2 
 PCOD9482835
Probable space group: C M M M
;
_chemical_formula_sum "Si O2"
_cell_formula_units_Z 76
_cell_length_a 21.302922
_cell_length_b 13.988601
_cell_length_c 15.134527
_cell_angle_alpha 90.000000
_cell_angle_beta 90.000000
_cell_angle_gamma 90.000000
_cell_volume 4510.059927
_symmetry_space_group_name_H-M "C M M M"
_symmetry_group_IT_number 65
_symmetry_cell_setting 'orthorhombic'
loop_
_space_group_symop_operation_xyz
x,y,z
-x,-y,z
x,-y,-z
-x,y,-z
-x,-y,-z
x,y,-z
-x,y,z
x,-y,z
1/2+x,1/2+y,z
1/2-x,1/2-y,z
1/2+x,1/2-y,-z
1/2-x,1/2+y,-z
1/2-x,1/2-y,-z
1/2+x,1/2+y,-z
1/2-x,1/2+y,z
1/2+x,1/2-y,z
loop_
_atom_site_type_symbol
_atom_site_label
_atom_site_fract_x
_atom_site_fract_y
_atom_site_fract_z
Si Si1 0.122865 0.112710 0.690400
Si Si2 0.427933 0.615926 0.500000
Si Si3 0.500000 0.389020 0.188063
Si Si4 0.073685 0.386599 0.894492
Si Si5 0.676571 0.266261 0.164924
Si Si6 0.000000 0.142798 0.000000
Si Si7 0.857779 0.103757 0.000000
O O1 0.106730 0.141713 0.590517
O O2 0.060009 0.121787 0.749839
O O3 0.169539 0.182577 0.740543
O O4 0.140910 0.000000 0.692019
O O5 0.431226 0.500000 0.500000
O O6 0.500000 0.650606 0.500000
O O7 0.500000 0.500000 0.156472
O O8 0.500000 0.320792 0.102355
O O9 0.088762 0.500000 0.886258
O O10 0.126796 0.321356 0.847359
O O11 0.000000 0.377540 0.866053
O O12 0.075552 0.362171 0.000000
O O13 0.750000 0.250000 0.150288
O O14 0.658444 0.340122 0.087979
O O15 0.932468 0.095640 0.000000
O O16 0.827580 0.000000 0.000000
#
# Coordination Sequence:
#
# PCOD9482835 Si02
#       7
#    16   8   8  16  16   4   8
#     4  10  20  34  54  82 115 143 172 218 277 340
#     4   9  16  30  55  86 115 141 171 210 269 347
#     4  10  17  27  46  77 111 145 171 196 253 327
#     4   9  20  38  57  74  98 142 199 247 275 307
#     4  12  25  37  51  80 109 151 193 230 278 331
#     4  12  21  30  48  82 117 150 173 198 262 336
#     4  12  24  35  52  80 117 151 180 217 274 341
#
# _framework density 16.851216999999998
#
# number of rings (size 3 to 8) (size 9 to 14) (size 15 to 20)
#    0.000    1.579    4.211    2.526    2.947    1.684 
#    0.000    0.526    0.000    0.000    0.000    0.737 
#    0.000    2.526    0.000    0.000    0.000    0.000 
#
# Total GULP energy -211690.478837 kJ/mol
# GULP energy per Si atom -5570.802075 kJ/mol
# Density = 1.681286 g / cm^3
# Si number density = 16.851217 Si / 1000 Ang^3
#
#
#
# Elastic Constant Matrix: (Units=GPa)
#
#
# Indices 1 2 3 4 5 6 
#
# 1 106.6127 43.0445 32.0043 0.0000 0.0000 0.0000
# 2 43.0445 86.5576 39.2780 0.0000 0.0000 0.0000
# 3 32.0043 39.2780 127.7393 0.0000 0.0000 0.0000
# 4 0.0000 0.0000 0.0000 -68.5720 0.0000 0.0000
# 5 0.0000 0.0000 0.0000 0.0000 20.2174 0.0000
# 6 0.0000 0.0000 0.0000 0.0000 0.0000 -6.5817
#
#
#
# Elastic Compliance Matrix: (Units=1/GPa)
#
#
# Indices 1 2 3 4 5 6 
#
# 1 0.011934 -0.005320 -0.001354 0.000000 0.000000 0.000000
# 2 -0.005320 0.015798 -0.003525 0.000000 0.000000 0.000000
# 3 -0.001354 -0.003525 0.009252 0.000000 0.000000 0.000000
# 4 0.000000 0.000000 0.000000 -0.014583 0.000000 0.000000
# 5 0.000000 0.000000 0.000000 0.000000 0.049462 0.000000
# 6 0.000000 0.000000 0.000000 0.000000 0.000000 -0.151936
#
#
# Mechanical properties :
#
#
# Convention : Reuss Voigt Hill
#
# Bulk Modulus (GPa) = 60.29336 61.06259 60.67798
# Shear Modulus (GPa) = -92.34274 2.78491 -44.77892
#
# Velocity S-wave (km/s) = -7.41066 1.28695 -5.16050
# Velocity P-wave (km/s) = 6.11279 6.20671 0.76060
#
# Compressibility (1/GPa) = 0.01658557
#
# Stress axis : x y z
#
# Youngs Moduli (GPa) = 83.79185 63.29817 108.09028
#
# Poissons Ratio (x) = 0.33677 0.14637
# Poissons Ratio (y) = 0.44581 0.38099
# Poissons Ratio (z) = 0.11347 0.22311
#
# Static dielectric constant tensor:
#      x y z
#    x 1.612330 0.000000 0.000000 
#    y 0.000000 1.620260 0.000000 
#    z 0.000000 0.000000 1.569260 
# 
# From -- ./inp_files/43955.got.cif
#   From: 2010.05.17/outbox.cif.g08.bks.cpg/sg65_22_cif.got.tgz:43955.got - 2010.06.03 17:01:31.
