data_PCOD9482287
_publ_section_title
;
Structure prediction by ZEFSAII (Michael W. Deem and Ramdas Pophale) SiO2 
 PCOD9482287
Probable space group: C M C A
;
_chemical_formula_sum "Si O2"
_cell_formula_units_Z 56
_cell_length_a 13.881985
_cell_length_b 17.600169
_cell_length_c 11.071147
_cell_angle_alpha 90.000000
_cell_angle_beta 90.000000
_cell_angle_gamma 90.000000
_cell_volume 2704.961113
_symmetry_space_group_name_H-M "C M C A"
_symmetry_group_IT_number 64
_symmetry_cell_setting 'orthorhombic'
loop_
_space_group_symop_operation_xyz
x,y,z
-x,1/2-y,1/2+z
x,-y,-z
-x,1/2+y,1/2-z
-x,-y,-z
x,1/2+y,1/2-z
-x,y,z
x,1/2-y,1/2+z
1/2+x,1/2+y,z
1/2-x,-y,1/2+z
1/2+x,1/2-y,-z
1/2-x,y,1/2-z
1/2-x,1/2-y,-z
1/2+x,y,1/2-z
1/2-x,1/2+y,z
1/2+x,-y,1/2+z
loop_
_atom_site_type_symbol
_atom_site_label
_atom_site_fract_x
_atom_site_fract_y
_atom_site_fract_z
Si Si1 0.000000 0.706046 0.076931
Si Si2 0.363879 0.552425 0.749039
Si Si3 0.329482 0.000000 0.500000
Si Si4 0.181033 0.399663 0.863899
Si Si5 0.500000 0.814081 0.191381
O O1 0.900028 0.659205 0.095652
O O2 0.000000 0.765928 0.186232
O O3 0.000000 0.730692 0.935553
O O4 0.250000 0.563832 0.750000
O O5 0.388679 0.530184 0.886320
O O6 0.377688 0.475714 0.673411
O O7 0.412275 0.626527 0.697375
O O8 0.258979 0.069031 0.459556
O O9 0.250000 0.375943 0.750000
#
# Coordination Sequence:
#
# PCOD9482287 Si02
#       5
#     8  16   8  16   8
#     4  12  25  41  58  86 124 163 199 238 292 358
#     4   9  19  37  62  90 115 149 197 251 300 350
#     4   8  16  34  62  90 116 146 196 252 298 340
#     4   9  19  37  64  90 114 149 196 248 298 349
#     4  12  27  40  58  86 124 166 201 238 292 354
#
# _framework density 20.702701999999999
#
# number of rings (size 3 to 8) (size 9 to 14) (size 15 to 20)
#    0.000    2.857    0.000    4.286    0.000    8.000 
#    0.000    4.286    0.000    0.000    0.000    0.000 
#    0.000    0.000    0.000    0.000    0.000    0.000 
#
# Total GULP energy -156017.442079 kJ/mol
# GULP energy per Si atom -5572.051503 kJ/mol
# Density = 2.065558 g / cm^3
# Si number density = 20.702702 Si / 1000 Ang^3
#
#
#
# Elastic Constant Matrix: (Units=GPa)
#
#
# Indices 1 2 3 4 5 6 
#
# 1 81.5220 7.1176 -1.1558 0.0000 0.0000 0.0000
# 2 7.1176 43.8863 30.6780 0.0000 0.0000 0.0000
# 3 -1.1558 30.6780 129.1276 0.0000 0.0000 0.0000
# 4 0.0000 0.0000 0.0000 25.4525 0.0000 0.0000
# 5 0.0000 0.0000 0.0000 0.0000 6.4729 0.0000
# 6 0.0000 0.0000 0.0000 0.0000 0.0000 21.2200
#
#
#
# Elastic Compliance Matrix: (Units=1/GPa)
#
#
# Indices 1 2 3 4 5 6 
#
# 1 0.012497 -0.002524 0.000712 0.000000 0.000000 0.000000
# 2 -0.002524 0.027834 -0.006635 0.000000 0.000000 0.000000
# 3 0.000712 -0.006635 0.009327 0.000000 0.000000 0.000000
# 4 0.000000 0.000000 0.000000 0.039289 0.000000 0.000000
# 5 0.000000 0.000000 0.000000 0.000000 0.154491 0.000000
# 6 0.000000 0.000000 0.000000 0.000000 0.000000 0.047125
#
#
# Mechanical properties :
#
#
# Convention : Reuss Voigt Hill
#
# Bulk Modulus (GPa) = 30.52311 36.42392 33.47352
# Shear Modulus (GPa) = 15.70452 25.15549 20.43001
#
# Velocity S-wave (km/s) = 2.75721 3.48959 3.14479
# Velocity P-wave (km/s) = 4.99117 5.81964 5.42126
#
# Compressibility (1/GPa) = 0.03276206
#
# Stress axis : x y z
#
# Youngs Moduli (GPa) = 80.01860 35.92749 107.21491
#
# Poissons Ratio (x) = 0.09069 -0.07629
# Poissons Ratio (y) = 0.20198 0.71141
# Poissons Ratio (z) = -0.05694 0.23839
#
# Static dielectric constant tensor:
#      x y z
#    x 1.703820 0.000000 0.000000 
#    y 0.000000 1.713730 0.000000 
#    z 0.000000 0.000000 1.840930 
# 
# From -- ./inp_files/15403.got.cif
#   From: 2010.05.17/outbox.cif.g08.bks.cpg/sg64_8_cif.got.tgz:15403.got - 2010.06.03 16:29:19.
