data_PCOD9482818
_publ_section_title
;
Structure prediction by ZEFSAII (Michael W. Deem and Ramdas Pophale) SiO2 
 PCOD9482818
Probable space group: C M M M
;
_chemical_formula_sum "Si O2"
_cell_formula_units_Z 112
_cell_length_a 27.869472
_cell_length_b 32.373069
_cell_length_c 9.460514
_cell_angle_alpha 90.000000
_cell_angle_beta 90.000000
_cell_angle_gamma 90.000000
_cell_volume 8535.468158
_symmetry_space_group_name_H-M "C M M M"
_symmetry_group_IT_number 65
_symmetry_cell_setting 'orthorhombic'
loop_
_space_group_symop_operation_xyz
x,y,z
-x,-y,z
x,-y,-z
-x,y,-z
-x,-y,-z
x,y,-z
-x,y,z
x,-y,z
1/2+x,1/2+y,z
1/2-x,1/2-y,z
1/2+x,1/2-y,-z
1/2-x,1/2+y,-z
1/2-x,1/2-y,-z
1/2+x,1/2+y,-z
1/2-x,1/2+y,z
1/2+x,1/2-y,z
loop_
_atom_site_type_symbol
_atom_site_label
_atom_site_fract_x
_atom_site_fract_y
_atom_site_fract_z
Si Si1 0.794444 0.282590 0.163319
Si Si2 0.552379 0.329866 0.668981
Si Si3 0.767094 0.844936 0.334360
Si Si4 0.927125 0.908850 0.156270
Si Si5 0.334632 0.500000 0.661345
Si Si6 0.945921 0.000000 0.265434
Si Si7 0.354981 0.279558 0.665419
Si Si8 0.686616 0.581138 0.836087
O O1 0.750000 0.250000 0.162288
O O2 0.775910 0.320805 0.256769
O O3 0.837565 0.258406 0.239407
O O4 0.804274 0.293409 0.000000
O O5 0.556889 0.333107 0.500000
O O6 0.500000 0.312275 0.703488
O O7 0.555004 0.375871 0.731318
O O8 0.596426 0.301487 0.717106
O O9 0.757403 0.853459 0.500000
O O10 0.812914 0.813982 0.329989
O O11 0.782315 0.885000 0.245765
O O12 0.942469 0.956317 0.182754
O O13 0.869423 0.905930 0.161136
O O14 0.943137 0.896677 0.000000
O O15 0.318436 0.500000 0.500000
O O16 0.393534 0.500000 0.658545
O O17 0.315589 0.460732 0.746738
O O18 0.000000 0.000000 0.331677
O O19 0.360095 0.267392 0.500000
O O20 0.701376 0.575717 0.000000
#
# Coordination Sequence:
#
# PCOD9482818 Si02
#       8
#    16  16  16  16   8   8  16  16
#     4   9  17  27  41  62  83 101 122 151 190 235
#     4  10  20  32  44  58  77 101 130 163 199 239
#     4  10  17  27  45  64  81 102 126 154 192 238
#     4  10  20  32  45  57  72  94 123 160 203 248
#     4  10  21  34  46  58  74  98 130 162 199 243
#     4  10  21  33  43  57  73  91 119 163 211 252
#     4   9  17  29  42  57  79 103 127 157 194 235
#     4  10  19  31  45  60  79 101 126 159 199 240
#
# _framework density 13.121717
#
# number of rings (size 3 to 8) (size 9 to 14) (size 15 to 20)
#    0.000    2.286    1.429    2.143    0.000    8.429 
#    0.000    0.000    0.000    0.000    0.000    0.000 
#    0.000    0.000    0.000    0.000    0.000    0.000 
#
# Total GULP energy -311888.873086 kJ/mol
# GULP energy per Si atom -5569.444162 kJ/mol
# Density = 1.309185 g / cm^3
# Si number density = 13.121717 Si / 1000 Ang^3
#
#
#
# Elastic Constant Matrix: (Units=GPa)
#
#
# Indices 1 2 3 4 5 6 
#
# 1 53.1840 43.1429 31.7092 0.0000 0.0000 0.0000
# 2 43.1429 75.0360 51.9210 0.0000 0.0000 0.0000
# 3 31.7092 51.9210 98.4702 0.0000 0.0000 0.0000
# 4 0.0000 0.0000 0.0000 9.9778 0.0000 0.0000
# 5 0.0000 0.0000 0.0000 0.0000 7.4536 0.0000
# 6 0.0000 0.0000 0.0000 0.0000 0.0000 9.4183
#
#
#
# Elastic Compliance Matrix: (Units=1/GPa)
#
#
# Indices 1 2 3 4 5 6 
#
# 1 0.035307 -0.019575 -0.001048 0.000000 0.000000 0.000000
# 2 -0.019575 0.031835 -0.010482 0.000000 0.000000 0.000000
# 3 -0.001048 -0.010482 0.016020 0.000000 0.000000 0.000000
# 4 0.000000 0.000000 0.000000 0.100222 0.000000 0.000000
# 5 0.000000 0.000000 0.000000 0.000000 0.134163 0.000000
# 6 0.000000 0.000000 0.000000 0.000000 0.000000 0.106177
#
#
# Mechanical properties :
#
#
# Convention : Reuss Voigt Hill
#
# Bulk Modulus (GPa) = 47.73022 53.35960 50.54491
# Shear Modulus (GPa) = 10.14369 12.03109 11.08739
#
# Velocity S-wave (km/s) = 2.78339 3.03129 2.90998
# Velocity P-wave (km/s) = 6.83985 7.28046 7.06359
#
# Compressibility (1/GPa) = 0.02095109
#
# Stress axis : x y z
#
# Youngs Moduli (GPa) = 28.32338 31.41202 62.42212
#
# Poissons Ratio (x) = 0.61488 0.06542
# Poissons Ratio (y) = 0.55442 0.65433
# Poissons Ratio (z) = 0.02968 0.32927
#
# Static dielectric constant tensor:
#      x y z
#    x 1.423330 0.000000 0.000000 
#    y 0.000000 1.410030 0.000000 
#    z 0.000000 0.000000 1.445150 
# 
# From -- ./inp_files/19228.got.cif
#   From: 2010.05.17/outbox.cif.g08.bks.cpg/sg65_10_cif.got.tgz:19228.got - 2010.06.03 17:01:31.
