data_PCOD9482016
_publ_section_title
;
Structure prediction by ZEFSAII (Michael W. Deem and Ramdas Pophale) SiO2 
 PCOD9482016
Probable space group: C M C A
;
_chemical_formula_sum "Si O2"
_cell_formula_units_Z 52
_cell_length_a 13.412404
_cell_length_b 7.310067
_cell_length_c 20.739955
_cell_angle_alpha 90.000000
_cell_angle_beta 90.000000
_cell_angle_gamma 90.000000
_cell_volume 2033.460749
_symmetry_space_group_name_H-M "C M C A"
_symmetry_group_IT_number 64
_symmetry_cell_setting 'orthorhombic'
loop_
_space_group_symop_operation_xyz
x,y,z
-x,1/2-y,1/2+z
x,-y,-z
-x,1/2+y,1/2-z
-x,-y,-z
x,1/2+y,1/2-z
-x,y,z
x,1/2-y,1/2+z
1/2+x,1/2+y,z
1/2-x,-y,1/2+z
1/2+x,1/2-y,-z
1/2-x,y,1/2-z
1/2-x,1/2-y,-z
1/2+x,y,1/2-z
1/2-x,1/2+y,z
1/2+x,-y,1/2+z
loop_
_atom_site_type_symbol
_atom_site_label
_atom_site_fract_x
_atom_site_fract_y
_atom_site_fract_z
Si Si1 0.000000 0.500000 0.000000
Si Si2 0.888448 0.666742 0.463312
Si Si3 0.611760 0.735995 0.803331
Si Si4 0.177038 0.136651 0.664128
O O1 0.914470 0.660631 0.008193
O O2 0.837657 0.500000 0.500000
O O3 0.841539 0.753516 0.400463
O O4 0.000000 0.599291 0.442748
O O5 0.500000 0.670460 0.814828
O O6 0.704219 0.617453 0.828081
O O7 0.632486 0.741519 0.726393
O O8 0.625747 0.938322 0.832846
#
# Coordination Sequence:
#
# PCOD9482016 Si02
#       4
#     4  16  16  16
#     4   8  18  40  68 114 134 188 246 308 382 424
#     4   9  19  41  70 108 145 185 250 309 366 439
#     4  11  23  42  68 104 144 188 237 300 368 444
#     4  11  23  44  69 106 141 193 247 293 380 449
#
# _framework density 25.572168999999999
#
# number of rings (size 3 to 8) (size 9 to 14) (size 15 to 20)
#    0.923    0.923    0.000    6.462    0.000    0.000 
#   11.077    4.615    0.000    0.923    0.000    1.077 
#    0.000    0.000    0.000    0.000    0.000    0.000 
#
# Total GULP energy -144941.615492 kJ/mol
# GULP energy per Si atom -5574.677519 kJ/mol
# Density = 2.551397 g / cm^3
# Si number density = 25.572169 Si / 1000 Ang^3
#
#
#
# Elastic Constant Matrix: (Units=GPa)
#
#
# Indices 1 2 3 4 5 6 
#
# 1 168.2309 -7.7871 20.5229 0.0000 0.0000 0.0000
# 2 -7.7871 117.3064 22.1707 0.0000 0.0000 0.0000
# 3 20.5229 22.1707 63.6415 0.0000 0.0000 0.0000
# 4 0.0000 0.0000 0.0000 22.5571 0.0000 0.0000
# 5 0.0000 0.0000 0.0000 0.0000 4.3107 0.0000
# 6 0.0000 0.0000 0.0000 0.0000 0.0000 23.1763
#
#
#
# Elastic Compliance Matrix: (Units=1/GPa)
#
#
# Indices 1 2 3 4 5 6 
#
# 1 0.006267 0.000854 -0.002318 0.000000 0.000000 0.000000
# 2 0.000854 0.009242 -0.003495 0.000000 0.000000 0.000000
# 3 -0.002318 -0.003495 0.017678 0.000000 0.000000 0.000000
# 4 0.000000 0.000000 0.000000 0.044332 0.000000 0.000000
# 5 0.000000 0.000000 0.000000 0.000000 0.231982 0.000000
# 6 0.000000 0.000000 0.000000 0.000000 0.000000 0.043147
#
#
# Mechanical properties :
#
#
# Convention : Reuss Voigt Hill
#
# Bulk Modulus (GPa) = 42.97713 46.55463 44.76588
# Shear Modulus (GPa) = 13.50172 30.96032 22.23102
#
# Velocity S-wave (km/s) = 2.30029 3.48329 2.95166
# Velocity P-wave (km/s) = 4.88854 5.86707 5.40001
#
# Compressibility (1/GPa) = 0.02326819
#
# Stress axis : x y z
#
# Youngs Moduli (GPa) = 159.57687 108.20241 56.56681
#
# Poissons Ratio (x) = -0.09242 0.13114
# Poissons Ratio (y) = -0.13630 0.19770
# Poissons Ratio (z) = 0.36996 0.37817
#
# Static dielectric constant tensor:
#      x y z
#    x 1.996470 0.000000 0.000000 
#    y 0.000000 2.044150 0.000000 
#    z 0.000000 0.000000 2.073220 
# 
# From -- ./inp_files/38731.got.cif
#   From: 2010.05.17/outbox.cif.g08.bks.cpg/sg64_20_cif.got.tgz:38731.got - 2010.06.03 16:29:19.
