data_PCOD9482768
_publ_section_title
;
Structure prediction by ZEFSAII (Michael W. Deem and Ramdas Pophale) SiO2 
 PCOD9482768
Probable space group: C M M M
;
_chemical_formula_sum "Si O2"
_cell_formula_units_Z 72
_cell_length_a 8.627560
_cell_length_b 14.742703
_cell_length_c 28.506585
_cell_angle_alpha 90.000000
_cell_angle_beta 90.000000
_cell_angle_gamma 90.000000
_cell_volume 3625.853878
_symmetry_space_group_name_H-M "C M M M"
_symmetry_group_IT_number 65
_symmetry_cell_setting 'orthorhombic'
loop_
_space_group_symop_operation_xyz
x,y,z
-x,-y,z
x,-y,-z
-x,y,-z
-x,-y,-z
x,y,-z
-x,y,z
x,-y,z
1/2+x,1/2+y,z
1/2-x,1/2-y,z
1/2+x,1/2-y,-z
1/2-x,1/2+y,-z
1/2-x,1/2-y,-z
1/2+x,1/2+y,-z
1/2-x,1/2+y,z
1/2+x,1/2-y,z
loop_
_atom_site_type_symbol
_atom_site_label
_atom_site_fract_x
_atom_site_fract_y
_atom_site_fract_z
Si Si1 0.186110 0.148384 0.745375
Si Si2 0.186760 0.500000 0.075046
Si Si3 0.685990 0.353241 0.551313
Si Si4 0.187127 0.648536 0.000000
Si Si5 0.186495 0.000000 0.179538
Si Si6 0.684878 0.146680 0.647554
O O1 0.250000 0.250000 0.750820
O O2 0.232366 0.086949 0.789383
O O3 0.251127 0.108880 0.696418
O O4 0.000000 0.150852 0.742072
O O5 0.235659 0.411336 0.045189
O O6 0.246797 0.500000 0.127655
O O7 0.000000 0.500000 0.075559
O O8 0.724884 0.393052 0.500000
O O9 0.500000 0.351426 0.555521
O O10 0.750000 0.250000 0.549958
O O11 0.755835 0.394606 0.598653
O O12 0.250000 0.750000 0.000000
O O13 0.000000 0.651984 0.000000
O O14 0.000000 0.000000 0.176448
O O15 0.500000 0.147712 0.648057
O O16 0.750000 0.250000 0.647530
#
# Coordination Sequence:
#
# PCOD9482768 Si02
#       6
#    16   8  16   8   8  16
#     4  10  20  36  54  75 104 139 179 224 271 324
#     4   9  20  38  58  82 118 153 187 229 272 319
#     4   9  15  22  34  55  85 121 160 205 259 318
#     4   9  19  37  60  88 118 155 193 227 270 318
#     4  10  23  39  57  82 113 147 186 229 274 320
#     4  10  17  26  42  64  91 126 167 213 264 320
#
# _framework density 19.857392000000001
#
# number of rings (size 3 to 8) (size 9 to 14) (size 15 to 20)
#    0.000    2.444    0.000    6.667    0.000    4.889 
#    0.000    5.556    0.000    0.000    0.000    0.778 
#    0.000    6.222    0.000    0.000    0.000    0.000 
#
# Total GULP energy -200879.188251 kJ/mol
# GULP energy per Si atom -5579.977451 kJ/mol
# Density = 1.981220 g / cm^3
# Si number density = 19.857392 Si / 1000 Ang^3
#
#
#
# Elastic Constant Matrix: (Units=GPa)
#
#
# Indices 1 2 3 4 5 6 
#
# 1 84.1248 31.2183 64.4878 0.0000 0.0000 0.0000
# 2 31.2183 122.6626 83.8370 0.0000 0.0000 0.0000
# 3 64.4878 83.8370 245.8065 0.0000 0.0000 0.0000
# 4 0.0000 0.0000 0.0000 31.5772 0.0000 0.0000
# 5 0.0000 0.0000 0.0000 0.0000 40.1159 0.0000
# 6 0.0000 0.0000 0.0000 0.0000 0.0000 10.5973
#
#
#
# Elastic Compliance Matrix: (Units=1/GPa)
#
#
# Indices 1 2 3 4 5 6 
#
# 1 0.015083 -0.001479 -0.003453 0.000000 0.000000 0.000000
# 2 -0.001479 0.010776 -0.003287 0.000000 0.000000 0.000000
# 3 -0.003453 -0.003287 0.006095 0.000000 0.000000 0.000000
# 4 0.000000 0.000000 0.000000 0.031668 0.000000 0.000000
# 5 0.000000 0.000000 0.000000 0.000000 0.024928 0.000000
# 6 0.000000 0.000000 0.000000 0.000000 0.000000 0.094364
#
#
# Mechanical properties :
#
#
# Convention : Reuss Voigt Hill
#
# Bulk Modulus (GPa) = 64.44945 90.18667 77.31806
# Shear Modulus (GPa) = 24.44717 34.66146 29.55431
#
# Velocity S-wave (km/s) = 3.51256 4.18247 3.86207
# Velocity P-wave (km/s) = 6.99839 8.29698 7.67520
#
# Compressibility (1/GPa) = 0.01551604
#
# Stress axis : x y z
#
# Youngs Moduli (GPa) = 66.30190 92.80252 164.06372
#
# Poissons Ratio (x) = 0.13724 0.56644
# Poissons Ratio (y) = 0.09805 0.53932
# Poissons Ratio (z) = 0.22891 0.30506
#
# Static dielectric constant tensor:
#      x y z
#    x 1.664250 0.000000 0.000000 
#    y 0.000000 1.575480 0.000000 
#    z 0.000000 0.000000 1.724380 
# 
# From -- ./inp_files/76379.got.cif
#   From: 2010.05.17/outbox.cif.g08.bks.cpg/sg65_39_cif.got.tgz:76379.got - 2010.06.03 17:01:31.
