data_PCOD9482662
_publ_section_title
;
Structure prediction by ZEFSAII (Michael W. Deem and Ramdas Pophale) SiO2 
 PCOD9482662
Probable space group: C M M M
;
_chemical_formula_sum "Si O2"
_cell_formula_units_Z 80
_cell_length_a 20.514640
_cell_length_b 22.233180
_cell_length_c 11.681922
_cell_angle_alpha 90.000000
_cell_angle_beta 90.000000
_cell_angle_gamma 90.000000
_cell_volume 5328.191021
_symmetry_space_group_name_H-M "C M M M"
_symmetry_group_IT_number 65
_symmetry_cell_setting 'orthorhombic'
loop_
_space_group_symop_operation_xyz
x,y,z
-x,-y,z
x,-y,-z
-x,y,-z
-x,-y,-z
x,y,-z
-x,y,z
x,-y,z
1/2+x,1/2+y,z
1/2-x,1/2-y,z
1/2+x,1/2-y,-z
1/2-x,1/2+y,-z
1/2-x,1/2-y,-z
1/2+x,1/2+y,-z
1/2-x,1/2+y,z
1/2+x,1/2-y,z
loop_
_atom_site_type_symbol
_atom_site_label
_atom_site_fract_x
_atom_site_fract_y
_atom_site_fract_z
Si Si1 0.263405 0.068932 0.000000
Si Si2 0.350242 0.735437 0.137910
Si Si3 0.693864 0.570612 0.636809
Si Si4 0.726203 0.847172 0.797125
Si Si5 0.573153 0.367931 0.236463
Si Si6 0.605291 0.430720 0.000000
O O1 0.289418 0.102646 0.110145
O O2 0.184212 0.073700 0.000000
O O3 0.280519 0.000000 0.000000
O O4 0.330233 0.797330 0.200356
O O5 0.288470 0.690466 0.154503
O O6 0.406913 0.700407 0.204800
O O7 0.360469 0.742902 0.000000
O O8 0.694638 0.571242 0.500000
O O9 0.700328 0.500000 0.674950
O O10 0.749145 0.615476 0.687440
O O11 0.626432 0.598821 0.684602
O O12 0.500000 0.372385 0.281579
O O13 0.578795 0.400106 0.113437
O O14 0.587503 0.500000 0.000000
#
# Coordination Sequence:
#
# PCOD9482662 Si02
#       6
#     8  16  16  16  16   8
#     4  11  16  23  43  67  91 112 139 187 236 280
#     4  10  16  28  45  66  91 119 146 185 236 277
#     4  10  21  35  48  64  91 126 158 190 231 273
#     4  10  16  28  45  66  87 114 149 187 231 278
#     4  11  21  32  45  65  92 123 162 194 221 262
#     4  11  19  27  41  65  93 118 150 194 234 264
#
# _framework density 15.014476999999999
#
# number of rings (size 3 to 8) (size 9 to 14) (size 15 to 20)
#    0.000    1.600    7.000    2.100    0.000    2.400 
#    0.000    9.000    0.000    0.000    0.000    0.000 
#    0.000    4.000    0.000    2.200    0.000    0.000 
#
# Total GULP energy -222787.097341 kJ/mol
# GULP energy per Si atom -5569.677434 kJ/mol
# Density = 1.498030 g / cm^3
# Si number density = 15.014477 Si / 1000 Ang^3
#
#
#
# Elastic Constant Matrix: (Units=GPa)
#
#
# Indices 1 2 3 4 5 6 
#
# 1 27.6042 38.9929 14.9349 0.0000 0.0000 0.0000
# 2 38.9929 133.1850 39.4592 0.0000 0.0000 0.0000
# 3 14.9349 39.4592 68.2891 0.0000 0.0000 0.0000
# 4 0.0000 0.0000 0.0000 94.6632 0.0000 0.0000
# 5 0.0000 0.0000 0.0000 0.0000 2.5027 0.0000
# 6 0.0000 0.0000 0.0000 0.0000 0.0000 12.3655
#
#
#
# Elastic Compliance Matrix: (Units=1/GPa)
#
#
# Indices 1 2 3 4 5 6 
#
# 1 0.062555 -0.017207 -0.003738 0.000000 0.000000 0.000000
# 2 -0.017207 0.013792 -0.004206 0.000000 0.000000 0.000000
# 3 -0.003738 -0.004206 0.017892 0.000000 0.000000 0.000000
# 4 0.000000 0.000000 0.000000 0.010564 0.000000 0.000000
# 5 0.000000 0.000000 0.000000 0.000000 0.399565 0.000000
# 6 0.000000 0.000000 0.000000 0.000000 0.000000 0.080870
#
#
# Mechanical properties :
#
#
# Convention : Reuss Voigt Hill
#
# Bulk Modulus (GPa) = 22.76046 46.20580 34.48313
# Shear Modulus (GPa) = 7.69011 30.95237 19.32124
#
# Velocity S-wave (km/s) = 2.26559 4.54530 3.59115
# Velocity P-wave (km/s) = 4.69423 7.64116 6.34126
#
# Compressibility (1/GPa) = 0.04393584
#
# Stress axis : x y z
#
# Youngs Moduli (GPa) = 15.98604 72.50445 55.89172
#
# Poissons Ratio (x) = 1.24756 0.20894
# Poissons Ratio (y) = 0.27507 0.23510
# Poissons Ratio (z) = 0.05976 0.30498
#
# Static dielectric constant tensor:
#      x y z
#    x 1.518560 0.000000 0.000000 
#    y 0.000000 1.526560 0.000000 
#    z 0.000000 0.000000 1.501000 
# 
# From -- ./inp_files/30718.got.cif
#   From: 2010.05.17/outbox.cif.g08.bks.cpg/sg65_16_cif.got.tgz:30718.got - 2010.06.03 17:01:31.
