data_PCOD9482514
_publ_section_title
;
Structure prediction by ZEFSAII (Michael W. Deem and Ramdas Pophale) SiO2 
 PCOD9482514
Probable space group: C M C A
;
_chemical_formula_sum "Si O2"
_cell_formula_units_Z 52
_cell_length_a 15.000000
_cell_length_b 21.000000
_cell_length_c 18.000000
_cell_angle_alpha 90.000000
_cell_angle_beta 90.000000
_cell_angle_gamma 90.000000
_cell_volume 5670.000000
_symmetry_space_group_name_H-M "C M C A"
_symmetry_group_IT_number 64
_symmetry_cell_setting 'orthorhombic'
loop_
_space_group_symop_operation_xyz
x,y,z
-x,1/2-y,1/2+z
x,-y,-z
-x,1/2+y,1/2-z
-x,-y,-z
x,1/2+y,1/2-z
-x,y,z
x,1/2-y,1/2+z
1/2+x,1/2+y,z
1/2-x,-y,1/2+z
1/2+x,1/2-y,-z
1/2-x,y,1/2-z
1/2-x,1/2-y,-z
1/2+x,y,1/2-z
1/2-x,1/2+y,z
1/2+x,-y,1/2+z
loop_
_atom_site_type_symbol
_atom_site_label
_atom_site_fract_x
_atom_site_fract_y
_atom_site_fract_z
Si Si1 0.773949 0.923645 0.994349
Si Si2 0.250000 0.849440 0.250000
Si Si3 0.270721 0.140213 0.330069
Si Si4 0.402136 0.718782 0.369814
Si Si5 0.892655 0.371553 0.373443
Si Si6 0.894633 0.258675 0.168937
Si Si7 0.401191 0.846237 0.029542
O O1 0.777447 0.900258 0.907216
O O2 0.853647 0.897574 0.047953
O O3 0.681512 0.894577 0.027646
O O4 0.773498 0.000000 0.000000
O O5 0.185426 0.886518 0.189543
O O6 0.174353 0.804088 0.286842
O O7 0.250000 0.106431 0.250000
O O8 0.184932 0.187323 0.334671
O O9 0.356629 0.187071 0.328227
O O10 0.500000 0.704627 0.335674
O O11 0.392476 0.794546 0.375625
O O12 0.403827 0.687278 0.450311
O O13 0.000000 0.389265 0.361098
O O14 0.887716 0.289109 0.087326
O O15 0.000000 0.263913 0.189842
O O16 0.500000 0.875147 0.044500
#
# Coordination Sequence:
#
# PCOD9482514 Si02
#       7
#    16   8  16  16  16  16  16
#     4  11  24  42  60  83 118 168 216 257 296 352
#     4  12  20  36  58  94 130 156 188 246 308 378
#     4  11  21  37  58  89 122 155 195 250 306 367
#     4   9  17  32  58  89 120 149 182 236 307 373
#     4  11  22  38  61  90 124 161 199 247 307 370
#     4  11  20  33  59  95 126 153 186 237 309 382
#     4   9  18  34  59  88 117 153 198 245 300 363
#
# _framework density 9.1710759999999993
#
# number of rings (size 3 to 8) (size 9 to 14) (size 15 to 20)
#    0.000    1.538    3.846    1.385    0.000    6.769 
#    1.385    0.000    0.000    0.000    0.000    0.000 
#    0.000    0.000    0.000    0.000    0.000    0.000 
#
# Total GULP energy -289547.475049 kJ/mol
# GULP energy per Si atom -5568.220674 kJ/mol
# Density = 0.915020 g / cm^3
# Si number density = 9.171076 Si / 1000 Ang^3
#
#
#
# Elastic Constant Matrix: (Units=GPa)
#
#
# Indices 1 2 3 4 5 6 
#
# 1 143.0901 23.5763 40.8287 0.0000 0.0000 0.0000
# 2 23.5763 49.8020 33.8294 0.0000 0.0000 0.0000
# 3 40.8287 33.8294 107.1858 0.0000 0.0000 0.0000
# 4 0.0000 0.0000 0.0000 15.4563 0.0000 0.0000
# 5 0.0000 0.0000 0.0000 0.0000 23.4950 0.0000
# 6 0.0000 0.0000 0.0000 0.0000 0.0000 17.9591
#
#
#
# Elastic Compliance Matrix: (Units=1/GPa)
#
#
# Indices 1 2 3 4 5 6 
#
# 1 0.008025 -0.002193 -0.002365 0.000000 0.000000 0.000000
# 2 -0.002193 0.026158 -0.007421 0.000000 0.000000 0.000000
# 3 -0.002365 -0.007421 0.012572 0.000000 0.000000 0.000000
# 4 0.000000 0.000000 0.000000 0.064698 0.000000 0.000000
# 5 0.000000 0.000000 0.000000 0.000000 0.042562 0.000000
# 6 0.000000 0.000000 0.000000 0.000000 0.000000 0.055682
#
#
# Mechanical properties :
#
#
# Convention : Reuss Voigt Hill
#
# Bulk Modulus (GPa) = 43.86104 55.17185 49.51645
# Shear Modulus (GPa) = 20.72509 24.83833 22.78171
#
# Velocity S-wave (km/s) = 3.36507 3.68389 3.52808
# Velocity P-wave (km/s) = 6.25003 6.94545 6.60690
#
# Compressibility (1/GPa) = 0.02279928
#
# Stress axis : x y z
#
# Youngs Moduli (GPa) = 124.61695 38.22890 79.53915
#
# Poissons Ratio (x) = 0.08382 0.18808
# Poissons Ratio (y) = 0.27323 0.59024
# Poissons Ratio (z) = 0.29468 0.28369
#
# Static dielectric constant tensor:
#      x y z
#    x 1.677840 0.000000 0.000000 
#    y 0.000000 1.577610 0.000000 
#    z 0.000000 0.000000 1.730330 
# 
# From -- ./inp_files/32363.got.cif
#   From: 2010.05.17/outbox.ucp.g08.bks.cvg/sg64_17_cif.got.tgz:32363.got - 2010.06.11 16:36:46.
