data_PCOD9482285
_publ_section_title
;
Structure prediction by ZEFSAII (Michael W. Deem and Ramdas Pophale) SiO2 
 PCOD9482285
Probable space group: C M C A
;
_chemical_formula_sum "Si O2"
_cell_formula_units_Z 56
_cell_length_a 15.341643
_cell_length_b 14.675227
_cell_length_c 10.985468
_cell_angle_alpha 90.000000
_cell_angle_beta 90.000000
_cell_angle_gamma 90.000000
_cell_volume 2473.291264
_symmetry_space_group_name_H-M "C M C A"
_symmetry_group_IT_number 64
_symmetry_cell_setting 'orthorhombic'
loop_
_space_group_symop_operation_xyz
x,y,z
-x,1/2-y,1/2+z
x,-y,-z
-x,1/2+y,1/2-z
-x,-y,-z
x,1/2+y,1/2-z
-x,y,z
x,1/2-y,1/2+z
1/2+x,1/2+y,z
1/2-x,-y,1/2+z
1/2+x,1/2-y,-z
1/2-x,y,1/2-z
1/2-x,1/2-y,-z
1/2+x,y,1/2-z
1/2-x,1/2+y,z
1/2+x,-y,1/2+z
loop_
_atom_site_type_symbol
_atom_site_label
_atom_site_fract_x
_atom_site_fract_y
_atom_site_fract_z
Si Si1 0.823048 0.390987 0.494388
Si Si2 0.250000 0.892840 0.750000
Si Si3 0.000000 0.714447 0.566530
Si Si4 0.348028 0.952210 0.125726
Si Si5 0.000000 0.176421 0.677934
O O1 0.842090 0.500000 0.500000
O O2 0.787027 0.351138 0.624414
O O3 0.738890 0.393955 0.405963
O O4 0.910351 0.340970 0.454903
O O5 0.325552 0.961624 0.792071
O O6 0.000000 0.745080 0.707895
O O7 0.000000 0.786287 0.458250
O O8 0.416771 0.887859 0.186989
O O9 0.378102 0.000000 0.000000
#
# Coordination Sequence:
#
# PCOD9482285 Si02
#       5
#    16   8   8  16   8
#     4   9  19  38  63  90 114 149 196 250 299 348
#     4   8  16  34  64  90 110 142 196 252 302 348
#     4  12  27  40  58  86 126 164 199 240 292 354
#     4   9  19  37  62  87 116 151 196 249 301 352
#     4  12  25  40  56  86 124 166 201 238 292 352
#
# _framework density 22.641894000000001
#
# number of rings (size 3 to 8) (size 9 to 14) (size 15 to 20)
#    0.000    2.857    0.000    4.286    0.000    6.857 
#    0.000    1.429    0.000    0.000    0.000    0.000 
#    0.000    0.000    0.000    0.000    0.000    0.000 
#
# Total GULP energy -156171.231227 kJ/mol
# GULP energy per Si atom -5577.543972 kJ/mol
# Density = 2.259036 g / cm^3
# Si number density = 22.641894 Si / 1000 Ang^3
#
#
#
# Elastic Constant Matrix: (Units=GPa)
#
#
# Indices 1 2 3 4 5 6 
#
# 1 105.5604 2.2169 18.2935 0.0000 0.0000 0.0000
# 2 2.2169 14.1909 -0.8138 0.0000 0.0000 0.0000
# 3 18.2935 -0.8138 114.4978 0.0000 0.0000 0.0000
# 4 0.0000 0.0000 0.0000 8.5694 0.0000 0.0000
# 5 0.0000 0.0000 0.0000 0.0000 -131.5075 0.0000
# 6 0.0000 0.0000 0.0000 0.0000 0.0000 -2.2320
#
#
#
# Elastic Compliance Matrix: (Units=1/GPa)
#
#
# Indices 1 2 3 4 5 6 
#
# 1 0.009780 -0.001618 -0.001574 0.000000 0.000000 0.000000
# 2 -0.001618 0.070764 0.000761 0.000000 0.000000 0.000000
# 3 -0.001574 0.000761 0.008991 0.000000 0.000000 0.000000
# 4 0.000000 0.000000 0.000000 0.116695 0.000000 0.000000
# 5 0.000000 0.000000 0.000000 0.000000 -0.007604 0.000000
# 6 0.000000 0.000000 0.000000 0.000000 0.000000 -0.448027
#
#
# Mechanical properties :
#
#
# Convention : Reuss Voigt Hill
#
# Bulk Modulus (GPa) = 11.81007 30.40469 21.10738
# Shear Modulus (GPa) = -23.11432 -10.73053 -16.92243
#
# Velocity S-wave (km/s) = -3.19856 -2.17934 -2.73682
# Velocity P-wave (km/s) = 2.90064 2.66926 0.80274
#
# Compressibility (1/GPa) = 0.08467347
#
# Stress axis : x y z
#
# Youngs Moduli (GPa) = 102.24931 14.13146 111.22604
#
# Poissons Ratio (x) = 0.02287 0.17508
# Poissons Ratio (y) = 0.16545 -0.08470
# Poissons Ratio (z) = 0.16095 -0.01076
#
# Static dielectric constant tensor:
#      x y z
#    x 1.822070 0.000000 0.000000 
#    y 0.000000 1.819270 0.000000 
#    z 0.000000 0.000000 1.995780 
# 
# From -- ./inp_files/13775.got.cif
#   From: 2010.05.17/outbox.cif.g08.bks.cpg/sg64_7_cif.got.tgz:13775.got - 2010.06.03 16:29:19.
