data_PCOD9482917
_publ_section_title
;
Structure prediction by ZEFSAII (Michael W. Deem and Ramdas Pophale) SiO2 
 PCOD9482917
Probable space group: C M M M
;
_chemical_formula_sum "Si O2"
_cell_formula_units_Z 96
_cell_length_a 18.028770
_cell_length_b 28.177328
_cell_length_c 11.735869
_cell_angle_alpha 90.000000
_cell_angle_beta 90.000000
_cell_angle_gamma 90.000000
_cell_volume 5961.851563
_symmetry_space_group_name_H-M "C M M M"
_symmetry_group_IT_number 65
_symmetry_cell_setting 'orthorhombic'
loop_
_space_group_symop_operation_xyz
x,y,z
-x,-y,z
x,-y,-z
-x,y,-z
-x,-y,-z
x,y,-z
-x,y,z
x,-y,z
1/2+x,1/2+y,z
1/2-x,1/2-y,z
1/2+x,1/2-y,-z
1/2-x,1/2+y,-z
1/2-x,1/2-y,-z
1/2+x,1/2+y,-z
1/2-x,1/2+y,z
1/2+x,1/2-y,z
loop_
_atom_site_type_symbol
_atom_site_label
_atom_site_fract_x
_atom_site_fract_y
_atom_site_fract_z
Si Si1 0.416640 0.714599 0.251235
Si Si2 0.500000 0.442713 0.870287
Si Si3 0.193398 0.706047 0.723267
Si Si4 0.206494 0.946482 0.500000
Si Si5 0.653389 0.444696 0.248255
Si Si6 0.916825 0.169179 0.500000
Si Si7 0.738987 0.149118 0.500000
Si Si8 0.795133 0.146443 0.134226
O O1 0.500000 0.712072 0.205912
O O2 0.383340 0.767607 0.252095
O O3 0.417790 0.698561 0.383188
O O4 0.362412 0.678229 0.185564
O O5 0.500000 0.500000 0.878264
O O6 0.426904 0.430442 0.800313
O O7 0.500000 0.424020 0.000000
O O8 0.250000 0.750000 0.706397
O O9 0.204850 0.674361 0.610586
O O10 0.222399 0.675301 0.828727
O O11 0.158782 0.941572 0.384471
O O12 0.270700 0.907360 0.500000
O O13 0.236315 0.000000 0.500000
O O14 0.667715 0.500000 0.216823
O O15 0.705768 0.405109 0.193426
O O16 0.830417 0.150837 0.500000
O O17 0.000000 0.143464 0.500000
O O18 0.803374 0.141540 0.000000
#
# Coordination Sequence:
#
# PCOD9482917 Si02
#       8
#    16   8  16   8  16   8   8  16
#     4  10  21  34  50  75 102 129 164 208 253 299
#     4   9  18  31  47  65  91 132 173 205 239 281
#     4  10  19  32  53  73  96 129 167 207 249 300
#     4  10  20  33  50  74 100 121 157 208 259 305
#     4  10  20  35  51  70  97 130 169 213 253 292
#     4  10  17  29  50  74  97 122 165 210 242 289
#     4  12  16  34  54  73  98 134 161 198 258 303
#     4  11  22  34  50  72  98 135 176 210 247 295
#
# _framework density 16.10238
#
# number of rings (size 3 to 8) (size 9 to 14) (size 15 to 20)
#    0.000    1.750    5.000    1.250    1.167    4.667 
#    1.500    1.667    0.000    0.000    0.000    0.000 
#    0.000    3.333    0.000    1.500    0.000    0.000 
#
# Total GULP energy -267333.953832 kJ/mol
# GULP energy per Si atom -5569.457372 kJ/mol
# Density = 1.606573 g / cm^3
# Si number density = 16.102380 Si / 1000 Ang^3
#
#
#
# Elastic Constant Matrix: (Units=GPa)
#
#
# Indices 1 2 3 4 5 6 
#
# 1 31.0931 17.2754 9.0137 0.0000 0.0000 0.0000
# 2 17.2754 90.5566 43.1306 0.0000 0.0000 0.0000
# 3 9.0137 43.1306 106.3836 0.0000 0.0000 0.0000
# 4 0.0000 0.0000 0.0000 12.4137 0.0000 0.0000
# 5 0.0000 0.0000 0.0000 0.0000 35.5657 0.0000
# 6 0.0000 0.0000 0.0000 0.0000 0.0000 18.9167
#
#
#
# Elastic Compliance Matrix: (Units=1/GPa)
#
#
# Indices 1 2 3 4 5 6 
#
# 1 0.035984 -0.006708 -0.000329 0.000000 0.000000 0.000000
# 2 -0.006708 0.014936 -0.005487 0.000000 0.000000 0.000000
# 3 -0.000329 -0.005487 0.011652 0.000000 0.000000 0.000000
# 4 0.000000 0.000000 0.000000 0.080556 0.000000 0.000000
# 5 0.000000 0.000000 0.000000 0.000000 0.028117 0.000000
# 6 0.000000 0.000000 0.000000 0.000000 0.000000 0.052863
#
#
# Mechanical properties :
#
#
# Convention : Reuss Voigt Hill
#
# Bulk Modulus (GPa) = 26.64972 40.76362 33.70667
# Shear Modulus (GPa) = 19.10845 23.95347 21.53096
#
# Velocity S-wave (km/s) = 3.44857 3.86109 3.66064
# Velocity P-wave (km/s) = 5.69587 6.72663 6.23260
#
# Compressibility (1/GPa) = 0.03752385
#
# Stress axis : x y z
#
# Youngs Moduli (GPa) = 27.79026 66.95315 85.81902
#
# Poissons Ratio (x) = 0.44910 0.02827
# Poissons Ratio (y) = 0.18641 0.47089
# Poissons Ratio (z) = 0.00915 0.36737
#
# Static dielectric constant tensor:
#      x y z
#    x 1.560610 0.000000 0.000000 
#    y 0.000000 1.578080 0.000000 
#    z 0.000000 0.000000 1.539270 
# 
# From -- ./inp_files/29317.got.cif
#   From: 2010.05.17/outbox.cif.g08.bks.cpg/sg65_15_cif.got.tgz:29317.got - 2010.06.03 17:01:31.
