data_PCOD9482178
_publ_section_title
;
Structure prediction by ZEFSAII (Michael W. Deem and Ramdas Pophale) SiO2 
 PCOD9482178
Probable space group: C M C A
;
_chemical_formula_sum "Si O2"
_cell_formula_units_Z 68
_cell_length_a 18.415158
_cell_length_b 5.124271
_cell_length_c 28.720849
_cell_angle_alpha 90.000000
_cell_angle_beta 90.000000
_cell_angle_gamma 90.000000
_cell_volume 2710.221665
_symmetry_space_group_name_H-M "C M C A"
_symmetry_group_IT_number 64
_symmetry_cell_setting 'orthorhombic'
loop_
_space_group_symop_operation_xyz
x,y,z
-x,1/2-y,1/2+z
x,-y,-z
-x,1/2+y,1/2-z
-x,-y,-z
x,1/2+y,1/2-z
-x,y,z
x,1/2-y,1/2+z
1/2+x,1/2+y,z
1/2-x,-y,1/2+z
1/2+x,1/2-y,-z
1/2-x,y,1/2-z
1/2-x,1/2-y,-z
1/2+x,y,1/2-z
1/2-x,1/2+y,z
1/2+x,-y,1/2+z
loop_
_atom_site_type_symbol
_atom_site_label
_atom_site_fract_x
_atom_site_fract_y
_atom_site_fract_z
Si Si1 0.204809 0.065417 0.379315
Si Si2 0.000000 0.000000 0.500000
Si Si3 0.863347 0.674440 0.542015
Si Si4 0.087292 0.107445 0.774628
Si Si5 0.915107 0.181110 0.128281
O O1 0.241787 0.333232 0.364243
O O2 0.191921 0.121535 0.434420
O O3 0.126476 0.953631 0.365455
O O4 0.935649 0.178336 0.475098
O O5 0.835304 0.500000 0.500000
O O6 0.885138 0.473993 0.583690
O O7 0.117000 0.888768 0.739180
O O8 0.095768 0.992820 0.825934
O O9 0.000000 0.131731 0.767844
O O10 0.000000 0.231390 0.121224
#
# Coordination Sequence:
#
# PCOD9482178 Si02
#       5
#    16   4  16  16  16
#     4  12  28  51  73 106 150 200 250 304 374 449
#     4  12  26  44  72 114 156 186 262 318 380 446
#     4  12  27  46  70 109 152 202 253 316 371 446
#     4   9  20  39  67 109 148 180 232 308 382 450
#     4  11  25  47  78 111 147 194 253 313 382 440
#
# _framework density 25.090198999999998
#
# number of rings (size 3 to 8) (size 9 to 14) (size 15 to 20)
#    0.000    0.941    3.529    1.765    8.235    0.941 
#    0.000    0.000    0.000    4.235    0.000    0.000 
#    0.000    0.000    0.000    0.000    0.000    0.000 
#
# Total GULP energy -189778.516781 kJ/mol
# GULP energy per Si atom -5581.721082 kJ/mol
# Density = 2.503309 g / cm^3
# Si number density = 25.090199 Si / 1000 Ang^3
#
#
#
# Elastic Constant Matrix: (Units=GPa)
#
#
# Indices 1 2 3 4 5 6 
#
# 1 85.0432 46.5918 -4.2496 0.0000 0.0000 0.0000
# 2 46.5918 148.7351 46.0237 0.0000 0.0000 0.0000
# 3 -4.2496 46.0237 81.5984 0.0000 0.0000 0.0000
# 4 0.0000 0.0000 0.0000 40.4272 0.0000 0.0000
# 5 0.0000 0.0000 0.0000 0.0000 13.5735 0.0000
# 6 0.0000 0.0000 0.0000 0.0000 0.0000 32.4364
#
#
#
# Elastic Compliance Matrix: (Units=1/GPa)
#
#
# Indices 1 2 3 4 5 6 
#
# 1 0.015320 -0.006113 0.004246 0.000000 0.000000 0.000000
# 2 -0.006113 0.010584 -0.006288 0.000000 0.000000 0.000000
# 3 0.004246 -0.006288 0.016023 0.000000 0.000000 0.000000
# 4 0.000000 0.000000 0.000000 0.024736 0.000000 0.000000
# 5 0.000000 0.000000 0.000000 0.000000 0.073673 0.000000
# 6 0.000000 0.000000 0.000000 0.000000 0.000000 0.030830
#
#
# Mechanical properties :
#
#
# Convention : Reuss Voigt Hill
#
# Bulk Modulus (GPa) = 39.03754 54.67873 46.85814
# Shear Modulus (GPa) = 25.50840 32.42145 28.96493
#
# Velocity S-wave (km/s) = 3.19198 3.59861 3.40138
# Velocity P-wave (km/s) = 5.40163 6.25355 5.84314
#
# Compressibility (1/GPa) = 0.02561637
#
# Stress axis : x y z
#
# Youngs Moduli (GPa) = 65.27499 94.48303 62.41089
#
# Poissons Ratio (x) = 0.57755 -0.26497
# Poissons Ratio (y) = 0.39901 0.39244
# Poissons Ratio (z) = -0.27713 0.59411
#
# Static dielectric constant tensor:
#      x y z
#    x 1.980110 0.000000 0.000000 
#    y 0.000000 2.033980 0.000000 
#    z 0.000000 0.000000 2.003580 
# 
# From -- ./inp_files/50588.got.cif
#   From: 2010.05.17/outbox.cif.g08.bks.cpg/sg64_26_cif.got.tgz:50588.got - 2010.06.03 16:29:19.
