data_PCOD9482988
_publ_section_title
;
Structure prediction by ZEFSAII (Michael W. Deem and Ramdas Pophale) SiO2 
 PCOD9482988
Probable space group: C M M M
;
_chemical_formula_sum "Si O2"
_cell_formula_units_Z 80
_cell_length_a 30.190643
_cell_length_b 8.268677
_cell_length_c 16.811470
_cell_angle_alpha 90.000000
_cell_angle_beta 90.000000
_cell_angle_gamma 90.000000
_cell_volume 4196.759479
_symmetry_space_group_name_H-M "C M M M"
_symmetry_group_IT_number 65
_symmetry_cell_setting 'orthorhombic'
loop_
_space_group_symop_operation_xyz
x,y,z
-x,-y,z
x,-y,-z
-x,y,-z
-x,-y,-z
x,y,-z
-x,y,z
x,-y,z
1/2+x,1/2+y,z
1/2-x,1/2-y,z
1/2+x,1/2-y,-z
1/2-x,1/2+y,-z
1/2-x,1/2-y,-z
1/2+x,1/2+y,-z
1/2-x,1/2+y,z
1/2+x,1/2-y,z
loop_
_atom_site_type_symbol
_atom_site_label
_atom_site_fract_x
_atom_site_fract_y
_atom_site_fract_z
Si Si1 0.050642 0.697440 0.176885
Si Si2 0.798974 0.807389 0.409345
Si Si3 0.424686 0.186299 0.000000
Si Si4 0.297449 0.688016 0.173171
Si Si5 0.369565 0.814306 0.716946
Si Si6 0.830263 0.816354 0.000000
O O1 0.055278 0.500000 0.174877
O O2 0.060425 0.755227 0.086026
O O3 0.085356 0.756151 0.244084
O O4 0.000000 0.736211 0.196588
O O5 0.804565 0.745533 0.500000
O O6 0.750000 0.750000 0.381747
O O7 0.840778 0.759973 0.354866
O O8 0.797134 0.000000 0.411036
O O9 0.371679 0.197752 0.000000
O O10 0.440192 0.000000 0.000000
O O11 0.304049 0.500000 0.196365
O O12 0.250000 0.750000 0.199077
O O13 0.335352 0.797175 0.210328
O O14 0.301781 0.700332 0.078724
O O15 0.378078 0.000000 0.695913
O O16 0.849081 0.000000 0.000000
#
# Coordination Sequence:
#
# PCOD9482988 Si02
#       6
#    16  16   8  16  16   8
#     4   9  18  32  53  81 108 138 180 229 274 314
#     4  10  21  38  60  85 113 143 175 212 257 314
#     4  10  17  31  55  77 101 137 184 230 272 317
#     4  11  22  35  50  70 101 140 181 221 263 313
#     4  11  21  34  55  81 109 139 174 219 267 318
#     4  10  21  34  48  68 100 139 176 222 268 311
#
# _framework density 19.062325999999999
#
# number of rings (size 3 to 8) (size 9 to 14) (size 15 to 20)
#    0.000    1.800    2.000    3.000    0.000    3.200 
#    0.000    0.000    0.000    6.600    0.000    4.200 
#    0.000    0.000    0.000    0.000    0.000    0.000 
#
# Total GULP energy -223020.798883 kJ/mol
# GULP energy per Si atom -5575.519972 kJ/mol
# Density = 1.901894 g / cm^3
# Si number density = 19.062326 Si / 1000 Ang^3
#
#
#
# Elastic Constant Matrix: (Units=GPa)
#
#
# Indices 1 2 3 4 5 6 
#
# 1 144.7055 11.8946 55.7104 0.0000 0.0000 0.0000
# 2 11.8946 21.2117 16.0887 0.0000 0.0000 0.0000
# 3 55.7104 16.0887 122.1458 0.0000 0.0000 0.0000
# 4 0.0000 0.0000 0.0000 22.3035 0.0000 0.0000
# 5 0.0000 0.0000 0.0000 0.0000 -13.5465 0.0000
# 6 0.0000 0.0000 0.0000 0.0000 0.0000 14.7498
#
#
#
# Elastic Compliance Matrix: (Units=1/GPa)
#
#
# Indices 1 2 3 4 5 6 
#
# 1 0.008460 -0.002019 -0.003592 0.000000 0.000000 0.000000
# 2 -0.002019 0.052858 -0.006042 0.000000 0.000000 0.000000
# 3 -0.003592 -0.006042 0.010621 0.000000 0.000000 0.000000
# 4 0.000000 0.000000 0.000000 0.044836 0.000000 0.000000
# 5 0.000000 0.000000 0.000000 0.000000 -0.073820 0.000000
# 6 0.000000 0.000000 0.000000 0.000000 0.000000 0.067797
#
#
# Mechanical properties :
#
#
# Convention : Reuss Voigt Hill
#
# Bulk Modulus (GPa) = 20.56205 50.60559 35.58382
# Shear Modulus (GPa) = 33.27355 18.32600 25.79978
#
# Velocity S-wave (km/s) = 4.18247 3.10396 3.68291
# Velocity P-wave (km/s) = 5.84245 6.28102 6.06570
#
# Compressibility (1/GPa) = 0.04863328
#
# Stress axis : x y z
#
# Youngs Moduli (GPa) = 118.20873 18.91850 94.15110
#
# Poissons Ratio (x) = 0.03820 0.33824
# Poissons Ratio (y) = 0.23866 0.56882
# Poissons Ratio (z) = 0.42466 0.11430
#
# Static dielectric constant tensor:
#      x y z
#    x 1.652450 0.000000 0.000000 
#    y 0.000000 1.712820 0.000000 
#    z 0.000000 0.000000 1.699560 
# 
# From -- ./inp_files/57253.got.cif
#   From: 2010.05.17/outbox.cif.g08.bks.cpg/sg65_29_cif.got.tgz:57253.got - 2010.06.03 17:01:31.
