data_PCOD9482109
_publ_section_title
;
Structure prediction by ZEFSAII (Michael W. Deem and Ramdas Pophale) SiO2 
 PCOD9482109
Probable space group: C M C A
;
_chemical_formula_sum "Si O2"
_cell_formula_units_Z 64
_cell_length_a 16.359305
_cell_length_b 21.457436
_cell_length_c 8.011354
_cell_angle_alpha 90.000000
_cell_angle_beta 90.000000
_cell_angle_gamma 90.000000
_cell_volume 2812.215501
_symmetry_space_group_name_H-M "C M C A"
_symmetry_group_IT_number 64
_symmetry_cell_setting 'orthorhombic'
loop_
_space_group_symop_operation_xyz
x,y,z
-x,1/2-y,1/2+z
x,-y,-z
-x,1/2+y,1/2-z
-x,-y,-z
x,1/2+y,1/2-z
-x,y,z
x,1/2-y,1/2+z
1/2+x,1/2+y,z
1/2-x,-y,1/2+z
1/2+x,1/2-y,-z
1/2-x,y,1/2-z
1/2-x,1/2-y,-z
1/2+x,y,1/2-z
1/2-x,1/2+y,z
1/2+x,-y,1/2+z
loop_
_atom_site_type_symbol
_atom_site_label
_atom_site_fract_x
_atom_site_fract_y
_atom_site_fract_z
Si Si1 0.315033 0.228790 0.634882
Si Si2 0.650734 0.933132 0.079412
Si Si3 0.405867 0.354862 0.719888
Si Si4 0.656453 0.900187 0.450363
O O1 0.250000 0.193182 0.750000
O O2 0.250000 0.250000 0.500000
O O3 0.356735 0.289065 0.713579
O O4 0.369893 0.172694 0.574620
O O5 0.628318 0.931524 0.276431
O O6 0.747217 0.917520 0.048848
O O7 0.604518 0.882609 0.965981
O O8 0.633841 0.000000 0.000000
O O9 0.500000 0.342474 0.754667
O O10 0.372897 0.404980 0.857006
#
# Coordination Sequence:
#
# PCOD9482109 Si02
#       4
#    16  16  16  16
#     4  12  19  42  70  96 137 177 231 291 341 416
#     4  11  25  45  74 101 133 184 247 300 343 417
#     4  12  27  43  67 106 150 185 223 290 372 438
#     4  11  24  43  72 104 131 183 242 295 350 418
#
# _framework density 22.757857999999999
#
# number of rings (size 3 to 8) (size 9 to 14) (size 15 to 20)
#    0.000    0.500    7.500    0.750    7.000    2.500 
#    0.000    1.250    0.000    0.000    0.000    0.000 
#    0.000    0.000    0.000    0.000    0.000    0.000 
#
# Total GULP energy -178157.672450 kJ/mol
# GULP energy per Si atom -5567.427264 kJ/mol
# Density = 2.270606 g / cm^3
# Si number density = 22.757858 Si / 1000 Ang^3
#
#
#
# Elastic Constant Matrix: (Units=GPa)
#
#
# Indices 1 2 3 4 5 6 
#
# 1 64.0217 -3.3301 10.7096 0.0000 0.0000 0.0000
# 2 -3.3301 92.0789 -2.5792 0.0000 0.0000 0.0000
# 3 10.7096 -2.5792 88.1567 0.0000 0.0000 0.0000
# 4 0.0000 0.0000 0.0000 35.2902 0.0000 0.0000
# 5 0.0000 0.0000 0.0000 0.0000 17.7364 0.0000
# 6 0.0000 0.0000 0.0000 0.0000 0.0000 -4.8748
#
#
#
# Elastic Compliance Matrix: (Units=1/GPa)
#
#
# Indices 1 2 3 4 5 6 
#
# 1 0.015969 0.000524 -0.001925 0.000000 0.000000 0.000000
# 2 0.000524 0.010886 0.000255 0.000000 0.000000 0.000000
# 3 -0.001925 0.000255 0.011585 0.000000 0.000000 0.000000
# 4 0.000000 0.000000 0.000000 0.028336 0.000000 0.000000
# 5 0.000000 0.000000 0.000000 0.000000 0.056381 0.000000
# 6 0.000000 0.000000 0.000000 0.000000 0.000000 -0.205137
#
#
# Mechanical properties :
#
#
# Convention : Reuss Voigt Hill
#
# Bulk Modulus (GPa) = 27.66430 28.20643 27.93537
# Shear Modulus (GPa) = -73.92294 25.59417 -24.16438
#
# Velocity S-wave (km/s) = -5.70551 3.35719 -3.26207
# Velocity P-wave (km/s) = 5.58762 5.23915 1.37347
#
# Compressibility (1/GPa) = 0.03614766
#
# Stress axis : x y z
#
# Youngs Moduli (GPa) = 62.62176 91.85832 86.32065
#
# Poissons Ratio (x) = -0.04810 0.16614
# Poissons Ratio (y) = -0.03279 -0.02200
# Poissons Ratio (z) = 0.12052 -0.02341
#
# Static dielectric constant tensor:
#      x y z
#    x 1.818110 0.000000 0.000000 
#    y 0.000000 1.899380 0.000000 
#    z 0.000000 0.000000 1.922620 
# 
# From -- ./inp_files/6596.got.cif
#   From: 2010.05.17/outbox.cif.g08.bks.cpg/sg64_4_cif.got.tgz:6596.got - 2010.06.03 16:29:19.
