data_PCOD9482587
_publ_section_title
;
Structure prediction by ZEFSAII (Michael W. Deem and Ramdas Pophale) SiO2 
 PCOD9482587
Probable space group: C M M M
;
_chemical_formula_sum "Si O2"
_cell_formula_units_Z 88
_cell_length_a 18.709592
_cell_length_b 8.498321
_cell_length_c 30.371153
_cell_angle_alpha 90.000000
_cell_angle_beta 90.000000
_cell_angle_gamma 90.000000
_cell_volume 4829.016929
_symmetry_space_group_name_H-M "C M M M"
_symmetry_group_IT_number 65
_symmetry_cell_setting 'orthorhombic'
loop_
_space_group_symop_operation_xyz
x,y,z
-x,-y,z
x,-y,-z
-x,y,-z
-x,-y,-z
x,y,-z
-x,y,z
x,-y,z
1/2+x,1/2+y,z
1/2-x,1/2-y,z
1/2+x,1/2-y,-z
1/2-x,1/2+y,-z
1/2-x,1/2-y,-z
1/2+x,1/2+y,-z
1/2-x,1/2+y,z
1/2+x,1/2-y,z
loop_
_atom_site_type_symbol
_atom_site_label
_atom_site_fract_x
_atom_site_fract_y
_atom_site_fract_z
Si Si1 0.168162 0.309795 0.452689
Si Si2 0.168006 0.313548 0.000000
Si Si3 0.668750 0.311381 0.812264
Si Si4 0.668316 0.311733 0.090845
Si Si5 0.581925 0.190297 0.271033
Si Si6 0.668711 0.809465 0.356578
O O1 0.136172 0.258285 0.500000
O O2 0.168253 0.500000 0.452817
O O3 0.250000 0.250000 0.452722
O O4 0.139122 0.260044 0.404859
O O5 0.250000 0.250000 0.000000
O O6 0.134816 0.254798 0.045972
O O7 0.170806 0.500000 0.000000
O O8 0.670573 0.500000 0.810373
O O9 0.750000 0.250000 0.808410
O O10 0.639313 0.266223 0.860942
O O11 0.622529 0.246675 0.772364
O O12 0.669266 0.500000 0.087637
O O13 0.750000 0.250000 0.091710
O O14 0.500000 0.243287 0.270960
O O15 0.622519 0.244927 0.315148
O O16 0.582707 0.000000 0.271432
O O17 0.750000 0.750000 0.352450
O O18 0.670136 0.000000 0.355878
#
# Coordination Sequence:
#
# PCOD9482587 Si02
#       6
#    16   8  16  16  16  16
#     4   8  13  22  38  61  88 115 144 182 226 271
#     4  10  16  22  36  60  91 124 153 182 221 269
#     4  10  20  33  51  73  96 124 159 199 239 282
#     4   9  16  26  40  61  90 121 151 185 227 272
#     4  10  21  35  49  66  92 126 160 197 242 288
#     4   9  17  29  46  68  92 119 153 191 233 280
#
# _framework density 18.223171000000001
#
# number of rings (size 3 to 8) (size 9 to 14) (size 15 to 20)
#    0.000    2.727    0.000    3.545    0.000    4.727 
#    0.000    0.000    0.000    0.545    0.000    4.455 
#    0.000    5.091    0.000   31.091    0.000   15.636 
#
# Total GULP energy -244958.473273 kJ/mol
# GULP energy per Si atom -5567.238029 kJ/mol
# Density = 1.818169 g / cm^3
# Si number density = 18.223171 Si / 1000 Ang^3
#
#
#
# Elastic Constant Matrix: (Units=GPa)
#
#
# Indices 1 2 3 4 5 6 
#
# 1 49.2334 10.8731 67.2269 0.0000 0.0000 0.0000
# 2 10.8731 30.4445 37.3747 0.0000 0.0000 0.0000
# 3 67.2269 37.3747 250.4040 0.0000 0.0000 0.0000
# 4 0.0000 0.0000 0.0000 23.8907 0.0000 0.0000
# 5 0.0000 0.0000 0.0000 0.0000 -2.9593 0.0000
# 6 0.0000 0.0000 0.0000 0.0000 0.0000 11.7464
#
#
#
# Elastic Compliance Matrix: (Units=1/GPa)
#
#
# Indices 1 2 3 4 5 6 
#
# 1 0.032096 -0.001083 -0.008455 0.000000 0.000000 0.000000
# 2 -0.001083 0.040252 -0.005717 0.000000 0.000000 0.000000
# 3 -0.008455 -0.005717 0.007117 0.000000 0.000000 0.000000
# 4 0.000000 0.000000 0.000000 0.041857 0.000000 0.000000
# 5 0.000000 0.000000 0.000000 0.000000 -0.337913 0.000000
# 6 0.000000 0.000000 0.000000 0.000000 0.000000 0.085132
#
#
# Mechanical properties :
#
#
# Convention : Reuss Voigt Hill
#
# Bulk Modulus (GPa) = 20.42725 62.33682 41.38204
# Shear Modulus (GPa) = -59.08139 20.84269 -19.11935
#
# Velocity S-wave (km/s) = -5.70012 3.38560 -3.24262
# Velocity P-wave (km/s) = 5.66463 7.04023 2.95607
#
# Compressibility (1/GPa) = 0.04895421
#
# Stress axis : x y z
#
# Youngs Moduli (GPa) = 31.15647 24.84345 140.51035
#
# Poissons Ratio (x) = 0.02690 1.18806
# Poissons Ratio (y) = 0.03374 0.80333
# Poissons Ratio (z) = 0.26344 0.14203
#
# Static dielectric constant tensor:
#      x y z
#    x 1.570670 0.000000 0.000000 
#    y 0.000000 1.618370 0.000000 
#    z 0.000000 0.000000 1.714840 
# 
# From -- ./inp_files/77828.got.cif
#   From: 2010.05.17/outbox.cif.g08.bks.cpg/sg65_39_cif.got.tgz:77828.got - 2010.06.03 17:01:31.
