data_PCOD9482580
_publ_section_title
;
Structure prediction by ZEFSAII (Michael W. Deem and Ramdas Pophale) SiO2 
 PCOD9482580
Probable space group: C M M M
;
_chemical_formula_sum "Si O2"
_cell_formula_units_Z 72
_cell_length_a 8.684279
_cell_length_b 24.104793
_cell_length_c 21.546005
_cell_angle_alpha 90.000000
_cell_angle_beta 90.000000
_cell_angle_gamma 90.000000
_cell_volume 4510.284428
_symmetry_space_group_name_H-M "C M M M"
_symmetry_group_IT_number 65
_symmetry_cell_setting 'orthorhombic'
loop_
_space_group_symop_operation_xyz
x,y,z
-x,-y,z
x,-y,-z
-x,y,-z
-x,-y,-z
x,y,-z
-x,y,z
x,-y,z
1/2+x,1/2+y,z
1/2-x,1/2-y,z
1/2+x,1/2-y,-z
1/2-x,1/2+y,-z
1/2-x,1/2-y,-z
1/2+x,1/2+y,-z
1/2-x,1/2+y,z
1/2+x,1/2-y,z
loop_
_atom_site_type_symbol
_atom_site_label
_atom_site_fract_x
_atom_site_fract_y
_atom_site_fract_z
Si Si1 0.316641 0.313113 0.000000
Si Si2 0.686272 0.380875 0.378667
Si Si3 0.314501 0.688474 0.500000
Si Si4 0.684198 0.812553 0.735475
Si Si5 0.184254 0.687446 0.873731
Si Si6 0.812225 0.000000 0.572385
O O1 0.250000 0.250000 0.000000
O O2 0.256378 0.339065 0.064417
O O3 0.500000 0.310504 0.000000
O O4 0.500000 0.380087 0.375185
O O5 0.733141 0.344427 0.438372
O O6 0.752267 0.352705 0.317329
O O7 0.735547 0.443902 0.392832
O O8 0.500000 0.690412 0.500000
O O9 0.250000 0.750000 0.500000
O O10 0.500000 0.808643 0.731160
O O11 0.750000 0.750000 0.728098
O O12 0.722397 0.834482 0.805002
O O13 0.250000 0.750000 0.871797
O O14 0.000000 0.689189 0.880725
O O15 0.763046 0.000000 0.500000
O O16 0.000000 0.000000 0.570851
#
# Coordination Sequence:
#
# PCOD9482580 Si02
#       6
#     8  16   8  16  16   8
#     4  10  16  22  36  58  84 115 152 189 220 258
#     4  10  19  32  51  70  90 118 153 193 234 278
#     4  10  20  31  45  67  91 118 149 184 225 272
#     4  10  20  32  46  66  94 126 158 192 232 278
#     4   9  16  26  39  56  83 119 154 186 221 264
#     4   9  16  32  55  73  89 114 153 194 235 283
#
# _framework density 15.963514999999999
#
# number of rings (size 3 to 8) (size 9 to 14) (size 15 to 20)
#    0.000    2.333    1.111    4.333    0.000    5.333 
#    0.000    0.556    0.000    0.667    0.000    0.000 
#    0.000    0.889    0.000   10.000    0.000    5.556 
#
# Total GULP energy -200586.919778 kJ/mol
# GULP energy per Si atom -5571.858883 kJ/mol
# Density = 1.592718 g / cm^3
# Si number density = 15.963515 Si / 1000 Ang^3
#
#
#
# Elastic Constant Matrix: (Units=GPa)
#
#
# Indices 1 2 3 4 5 6 
#
# 1 47.6558 24.4676 53.5417 0.0000 0.0000 0.0000
# 2 24.4676 94.2518 70.9212 0.0000 0.0000 0.0000
# 3 53.5417 70.9212 193.7722 0.0000 0.0000 0.0000
# 4 0.0000 0.0000 0.0000 -1.2970 0.0000 0.0000
# 5 0.0000 0.0000 0.0000 0.0000 24.6368 0.0000
# 6 0.0000 0.0000 0.0000 0.0000 0.0000 14.5490
#
#
#
# Elastic Compliance Matrix: (Units=1/GPa)
#
#
# Indices 1 2 3 4 5 6 
#
# 1 0.030756 -0.002194 -0.007695 0.000000 0.000000 0.000000
# 2 -0.002194 0.014799 -0.004810 0.000000 0.000000 0.000000
# 3 -0.007695 -0.004810 0.009048 0.000000 0.000000 0.000000
# 4 0.000000 0.000000 0.000000 -0.771014 0.000000 0.000000
# 5 0.000000 0.000000 0.000000 0.000000 0.040590 0.000000
# 6 0.000000 0.000000 0.000000 0.000000 0.000000 0.068733
#
#
# Mechanical properties :
#
#
# Convention : Reuss Voigt Hill
#
# Bulk Modulus (GPa) = 39.67668 70.39344 55.03506
# Shear Modulus (GPa) = -8.78289 20.02772 5.62241
#
# Velocity S-wave (km/s) = -2.34815 3.54587 1.87875
# Velocity P-wave (km/s) = 4.19009 7.80746 6.26551
#
# Compressibility (1/GPa) = 0.02520372
#
# Stress axis : x y z
#
# Youngs Moduli (GPa) = 32.51415 67.57236 110.52646
#
# Poissons Ratio (x) = 0.14823 0.85054
# Poissons Ratio (y) = 0.07133 0.53167
# Poissons Ratio (z) = 0.25021 0.32504
#
# Static dielectric constant tensor:
#      x y z
#    x 1.536150 0.000000 0.000000 
#    y 0.000000 1.496100 0.000000 
#    z 0.000000 0.000000 1.586690 
# 
# From -- ./inp_files/59583.got.cif
#   From: 2010.05.17/outbox.cif.g08.bks.cpg/sg65_30_cif.got.tgz:59583.got - 2010.06.03 17:01:31.
