data_PCOD9482144
_publ_section_title
;
Structure prediction by ZEFSAII (Michael W. Deem and Ramdas Pophale) SiO2 
 PCOD9482144
Probable space group: C M C A
;
_chemical_formula_sum "Si O2"
_cell_formula_units_Z 96
_cell_length_a 22.705895
_cell_length_b 7.358612
_cell_length_c 26.280394
_cell_angle_alpha 90.000000
_cell_angle_beta 90.000000
_cell_angle_gamma 90.000000
_cell_volume 4391.029972
_symmetry_space_group_name_H-M "C M C A"
_symmetry_group_IT_number 64
_symmetry_cell_setting 'orthorhombic'
loop_
_space_group_symop_operation_xyz
x,y,z
-x,1/2-y,1/2+z
x,-y,-z
-x,1/2+y,1/2-z
-x,-y,-z
x,1/2+y,1/2-z
-x,y,z
x,1/2-y,1/2+z
1/2+x,1/2+y,z
1/2-x,-y,1/2+z
1/2+x,1/2-y,-z
1/2-x,y,1/2-z
1/2-x,1/2-y,-z
1/2+x,y,1/2-z
1/2-x,1/2+y,z
1/2+x,-y,1/2+z
loop_
_atom_site_type_symbol
_atom_site_label
_atom_site_fract_x
_atom_site_fract_y
_atom_site_fract_z
Si Si1 0.066376 0.266284 0.104251
Si Si2 0.280125 0.469460 0.876445
Si Si3 0.114937 0.933875 0.056650
Si Si4 0.160278 0.966263 0.557496
Si Si5 0.805848 0.733053 0.211096
Si Si6 0.649990 0.334702 0.311221
O O1 0.115177 0.371680 0.070787
O O2 0.088169 0.319035 0.160476
O O3 0.000000 0.322938 0.093431
O O4 0.073016 0.050623 0.093679
O O5 0.321070 0.500999 0.925099
O O6 0.216381 0.455947 0.904357
O O7 0.203784 0.125642 0.834442
O O8 0.307278 0.297356 0.845119
O O9 0.121205 0.717480 0.060681
O O10 0.101251 0.000000 0.000000
O O11 0.181632 0.000000 0.500000
O O12 0.750000 0.728125 0.250000
O O13 0.821074 0.534210 0.191110
O O14 0.855297 0.783715 0.252078
#
# Coordination Sequence:
#
# PCOD9482144 Si02
#       6
#    16  16  16  16  16  16
#     4  11  27  50  71  97 137 186 243 295 344 410
#     4  11  27  41  69 104 151 182 221 286 354 430
#     4  11  25  46  70 105 137 184 231 286 357 422
#     4  12  26  45  71 107 140 186 233 287 357 421
#     4  12  24  41  66 104 143 185 226 278 351 426
#     4  11  25  43  68 102 138 186 234 283 346 418
#
# _framework density 21.862752
#
# number of rings (size 3 to 8) (size 9 to 14) (size 15 to 20)
#    0.000    0.667    3.333    3.000    9.333    6.000 
#    0.000    0.833    0.000    0.000    0.000    0.000 
#    0.000    0.000    0.000    0.000    0.000    0.000 
#
# Total GULP energy -267811.517241 kJ/mol
# GULP energy per Si atom -5579.406609 kJ/mol
# Density = 2.181299 g / cm^3
# Si number density = 21.862752 Si / 1000 Ang^3
#
#
#
# Elastic Constant Matrix: (Units=GPa)
#
#
# Indices 1 2 3 4 5 6 
#
# 1 81.1065 20.0601 28.2166 0.0000 0.0000 0.0000
# 2 20.0601 167.1982 31.7012 0.0000 0.0000 0.0000
# 3 28.2166 31.7012 117.3966 0.0000 0.0000 0.0000
# 4 0.0000 0.0000 0.0000 39.6983 0.0000 0.0000
# 5 0.0000 0.0000 0.0000 0.0000 5.2465 0.0000
# 6 0.0000 0.0000 0.0000 0.0000 0.0000 7.9496
#
#
#
# Elastic Compliance Matrix: (Units=1/GPa)
#
#
# Indices 1 2 3 4 5 6 
#
# 1 0.013633 -0.001069 -0.002988 0.000000 0.000000 0.000000
# 2 -0.001069 0.006388 -0.001468 0.000000 0.000000 0.000000
# 3 -0.002988 -0.001468 0.009633 0.000000 0.000000 0.000000
# 4 0.000000 0.000000 0.000000 0.025190 0.000000 0.000000
# 5 0.000000 0.000000 0.000000 0.000000 0.190601 0.000000
# 6 0.000000 0.000000 0.000000 0.000000 0.000000 0.125793
#
#
# Mechanical properties :
#
#
# Convention : Reuss Voigt Hill
#
# Bulk Modulus (GPa) = 53.75374 58.40635 56.08004
# Shear Modulus (GPa) = 12.87035 29.62712 21.24873
#
# Velocity S-wave (km/s) = 2.42892 3.68522 3.12094
# Velocity P-wave (km/s) = 5.70145 6.69931 6.22042
#
# Compressibility (1/GPa) = 0.01860336
#
# Stress axis : x y z
#
# Youngs Moduli (GPa) = 73.34895 156.55544 103.81282
#
# Poissons Ratio (x) = 0.16738 0.31021
# Poissons Ratio (y) = 0.07842 0.15238
# Poissons Ratio (z) = 0.21918 0.22980
#
# Static dielectric constant tensor:
#      x y z
#    x 1.828070 0.000000 0.000000 
#    y 0.000000 1.924150 0.000000 
#    z 0.000000 0.000000 1.895010 
# 
# From -- ./inp_files/50959.got.cif
#   From: 2010.05.17/outbox.cif.g08.bks.cpg/sg64_26_cif.got.tgz:50959.got - 2010.06.03 16:29:19.
