data_PCOD9482202
_publ_section_title
;
Structure prediction by ZEFSAII (Michael W. Deem and Ramdas Pophale) SiO2 
 PCOD9482202
Probable space group: C M C A
;
_chemical_formula_sum "Si O2"
_cell_formula_units_Z 64
_cell_length_a 16.080070
_cell_length_b 11.814905
_cell_length_c 14.274476
_cell_angle_alpha 90.000000
_cell_angle_beta 90.000000
_cell_angle_gamma 90.000000
_cell_volume 2711.929178
_symmetry_space_group_name_H-M "C M C A"
_symmetry_group_IT_number 64
_symmetry_cell_setting 'orthorhombic'
loop_
_space_group_symop_operation_xyz
x,y,z
-x,1/2-y,1/2+z
x,-y,-z
-x,1/2+y,1/2-z
-x,-y,-z
x,1/2+y,1/2-z
-x,y,z
x,1/2-y,1/2+z
1/2+x,1/2+y,z
1/2-x,-y,1/2+z
1/2+x,1/2-y,-z
1/2-x,y,1/2-z
1/2-x,1/2-y,-z
1/2+x,y,1/2-z
1/2-x,1/2+y,z
1/2+x,-y,1/2+z
loop_
_atom_site_type_symbol
_atom_site_label
_atom_site_fract_x
_atom_site_fract_y
_atom_site_fract_z
Si Si1 0.857929 0.119320 0.021862
Si Si2 0.096866 0.750518 0.153572
Si Si3 0.792318 0.532959 0.148878
Si Si4 0.408523 0.665596 0.635852
O O1 0.776160 0.083263 0.078956
O O2 0.901199 0.213983 0.085192
O O3 0.849773 0.180206 0.921906
O O4 0.902331 0.000000 0.000000
O O5 0.136406 0.627061 0.162889
O O6 0.099541 0.811496 0.253540
O O7 0.000000 0.745918 0.123616
O O8 0.750000 0.511695 0.250000
O O9 0.836553 0.421207 0.109404
O O10 0.500000 0.617390 0.616117
#
# Coordination Sequence:
#
# PCOD9482202 Si02
#       4
#    16  16  16  16
#     4  12  28  47  78 112 151 194 255 310 377 447
#     4  11  26  48  74 110 155 202 253 311 382 449
#     4  12  26  46  77 111 153 198 256 314 376 445
#     4  11  27  50  76 109 153 200 252 312 378 453
#
# _framework density 23.599436000000001
#
# number of rings (size 3 to 8) (size 9 to 14) (size 15 to 20)
#    0.000    0.500    2.500    3.750   10.500    2.000 
#    0.000    2.500    0.000    0.000    0.000    0.000 
#    0.000    0.000    0.000    0.000    0.000    0.000 
#
# Total GULP energy -179292.904912 kJ/mol
# GULP energy per Si atom -5602.903278 kJ/mol
# Density = 2.354572 g / cm^3
# Si number density = 23.599436 Si / 1000 Ang^3
#
#
#
# Elastic Constant Matrix: (Units=GPa)
#
#
# Indices 1 2 3 4 5 6 
#
# 1 141.8811 67.8451 34.2369 0.0000 0.0000 0.0000
# 2 67.8451 114.2203 20.2349 0.0000 0.0000 0.0000
# 3 34.2369 20.2349 109.6595 0.0000 0.0000 0.0000
# 4 0.0000 0.0000 0.0000 38.1478 0.0000 0.0000
# 5 0.0000 0.0000 0.0000 0.0000 129.5598 0.0000
# 6 0.0000 0.0000 0.0000 0.0000 0.0000 22.0288
#
#
#
# Elastic Compliance Matrix: (Units=1/GPa)
#
#
# Indices 1 2 3 4 5 6 
#
# 1 0.010317 -0.005745 -0.002161 0.000000 0.000000 0.000000
# 2 -0.005745 0.012250 -0.000467 0.000000 0.000000 0.000000
# 3 -0.002161 -0.000467 0.009880 0.000000 0.000000 0.000000
# 4 0.000000 0.000000 0.000000 0.026214 0.000000 0.000000
# 5 0.000000 0.000000 0.000000 0.000000 0.007718 0.000000
# 6 0.000000 0.000000 0.000000 0.000000 0.000000 0.045395
#
#
# Mechanical properties :
#
#
# Convention : Reuss Voigt Hill
#
# Bulk Modulus (GPa) = 63.68907 67.82165 65.75536
# Shear Modulus (GPa) = 37.38204 54.17689 45.77946
#
# Velocity S-wave (km/s) = 3.98430 4.79653 4.40916
# Velocity P-wave (km/s) = 6.94351 7.71211 7.33788
#
# Compressibility (1/GPa) = 0.01570128
#
# Stress axis : x y z
#
# Youngs Moduli (GPa) = 96.92859 81.63068 101.21536
#
# Poissons Ratio (x) = 0.46899 0.21872
# Poissons Ratio (y) = 0.55688 0.04724
# Poissons Ratio (z) = 0.20945 0.03810
#
# Static dielectric constant tensor:
#      x y z
#    x 1.888940 0.000000 0.000000 
#    y 0.000000 1.871530 0.000000 
#    z 0.000000 0.000000 1.869920 
# 
# From -- ./inp_files/24866.got.cif
#   From: 2010.05.17/outbox.cif.g08.bks.cpg/sg64_13_cif.got.tgz:24866.got - 2010.06.03 16:29:19.
