data_PCOD9482115
_publ_section_title
;
Structure prediction by ZEFSAII (Michael W. Deem and Ramdas Pophale) SiO2 
 PCOD9482115
Probable space group: C M C A
;
_chemical_formula_sum "Si O2"
_cell_formula_units_Z 68
_cell_length_a 20.912610
_cell_length_b 10.836492
_cell_length_c 13.827812
_cell_angle_alpha 90.000000
_cell_angle_beta 90.000000
_cell_angle_gamma 90.000000
_cell_volume 3133.649504
_symmetry_space_group_name_H-M "C M C A"
_symmetry_group_IT_number 64
_symmetry_cell_setting 'orthorhombic'
loop_
_space_group_symop_operation_xyz
x,y,z
-x,1/2-y,1/2+z
x,-y,-z
-x,1/2+y,1/2-z
-x,-y,-z
x,1/2+y,1/2-z
-x,y,z
x,1/2-y,1/2+z
1/2+x,1/2+y,z
1/2-x,-y,1/2+z
1/2+x,1/2-y,-z
1/2-x,y,1/2-z
1/2-x,1/2-y,-z
1/2+x,y,1/2-z
1/2-x,1/2+y,z
1/2+x,-y,1/2+z
loop_
_atom_site_type_symbol
_atom_site_label
_atom_site_fract_x
_atom_site_fract_y
_atom_site_fract_z
Si Si1 0.899304 0.412764 0.132730
Si Si2 0.745463 0.622465 0.562081
Si Si3 0.873542 0.925633 0.147124
Si Si4 0.428976 0.150261 0.445359
Si Si5 0.500000 0.500000 0.500000
O O1 0.825004 0.404415 0.102856
O O2 0.902944 0.410196 0.247955
O O3 0.929302 0.289752 0.087557
O O4 0.942627 0.516779 0.083123
O O5 0.761143 0.500000 0.500000
O O6 0.750000 0.750000 0.500000
O O7 0.801135 0.623499 0.642317
O O8 0.879924 0.069756 0.117531
O O9 0.909515 0.860788 0.057319
O O10 0.500000 0.099660 0.429296
#
# Coordination Sequence:
#
# PCOD9482115 Si02
#       5
#    16  16  16  16   4
#     4  12  26  45  71 103 142 189 230 304 361 426
#     4  12  23  46  73 102 144 184 242 304 357 427
#     4  11  24  45  71 101 136 191 239 284 366 428
#     4  11  24  44  69 102 140 183 239 290 349 440
#     4  12  28  44  64 108 144 174 234 294 366 426
#
# _framework density 21.699938
#
# number of rings (size 3 to 8) (size 9 to 14) (size 15 to 20)
#    0.000    0.471    7.059    2.118    3.294    3.765 
#    0.000    4.706    0.000    0.000    0.000    0.000 
#    0.000    0.000    0.000    0.000    0.000    0.000 
#
# Total GULP energy -189361.281737 kJ/mol
# GULP energy per Si atom -5569.449463 kJ/mol
# Density = 2.165055 g / cm^3
# Si number density = 21.699938 Si / 1000 Ang^3
#
#
#
# Elastic Constant Matrix: (Units=GPa)
#
#
# Indices 1 2 3 4 5 6 
#
# 1 148.4315 -7.7913 19.3746 0.0000 0.0000 0.0000
# 2 -7.7913 68.3425 14.7812 0.0000 0.0000 0.0000
# 3 19.3746 14.7812 141.4117 0.0000 0.0000 0.0000
# 4 0.0000 0.0000 0.0000 10.6532 0.0000 0.0000
# 5 0.0000 0.0000 0.0000 0.0000 -22.8375 0.0000
# 6 0.0000 0.0000 0.0000 0.0000 0.0000 39.7748
#
#
#
# Elastic Compliance Matrix: (Units=1/GPa)
#
#
# Indices 1 2 3 4 5 6 
#
# 1 0.006928 0.001018 -0.001056 0.000000 0.000000 0.000000
# 2 0.001018 0.015120 -0.001720 0.000000 0.000000 0.000000
# 3 -0.001056 -0.001720 0.007396 0.000000 0.000000 0.000000
# 4 0.000000 0.000000 0.000000 0.093869 0.000000 0.000000
# 5 0.000000 0.000000 0.000000 0.000000 -0.043788 0.000000
# 6 0.000000 0.000000 0.000000 0.000000 0.000000 0.025142
#
#
# Mechanical properties :
#
#
# Convention : Reuss Voigt Hill
#
# Bulk Modulus (GPa) = 38.56582 45.65717 42.11150
# Shear Modulus (GPa) = 42.79897 27.63950 35.21923
#
# Velocity S-wave (km/s) = 4.44589 3.57278 4.03303
# Velocity P-wave (km/s) = 6.64571 6.17297 6.41370
#
# Compressibility (1/GPa) = 0.02592969
#
# Stress axis : x y z
#
# Youngs Moduli (GPa) = 144.33440 66.13642 135.20890
#
# Poissons Ratio (x) = -0.06734 0.14274
# Poissons Ratio (y) = -0.14696 0.23255
# Poissons Ratio (z) = 0.15237 0.11375
#
# Static dielectric constant tensor:
#      x y z
#    x 2.160440 0.000000 0.000000 
#    y 0.000000 1.848330 0.000000 
#    z 0.000000 0.000000 1.773040 
# 
# From -- ./inp_files/26037.got.cif
#   From: 2010.05.17/outbox.cif.g08.bks.cpg/sg64_14_cif.got.tgz:26037.got - 2010.06.03 16:29:19.
