data_PCOD9482446
_publ_section_title
;
Structure prediction by ZEFSAII (Michael W. Deem and Ramdas Pophale) SiO2 
 PCOD9482446
Probable space group: C M C A
;
_chemical_formula_sum "Si O2"
_cell_formula_units_Z 32
_cell_length_a 24.000000
_cell_length_b 15.000000
_cell_length_c 9.000000
_cell_angle_alpha 90.000000
_cell_angle_beta 90.000000
_cell_angle_gamma 90.000000
_cell_volume 3240.000000
_symmetry_space_group_name_H-M "C M C A"
_symmetry_group_IT_number 64
_symmetry_cell_setting 'orthorhombic'
loop_
_space_group_symop_operation_xyz
x,y,z
-x,1/2-y,1/2+z
x,-y,-z
-x,1/2+y,1/2-z
-x,-y,-z
x,1/2+y,1/2-z
-x,y,z
x,1/2-y,1/2+z
1/2+x,1/2+y,z
1/2-x,-y,1/2+z
1/2+x,1/2-y,-z
1/2-x,y,1/2-z
1/2-x,1/2-y,-z
1/2+x,y,1/2-z
1/2-x,1/2+y,z
1/2+x,-y,1/2+z
loop_
_atom_site_type_symbol
_atom_site_label
_atom_site_fract_x
_atom_site_fract_y
_atom_site_fract_z
Si Si1 0.377025 0.693909 0.892691
Si Si2 0.394181 0.499045 0.180241
Si Si3 0.684818 0.343284 0.799135
Si Si4 0.000000 0.609971 0.202981
Si Si5 0.500000 0.257386 0.981136
O O1 0.383277 0.605188 0.791291
O O2 0.352265 0.775541 0.799233
O O3 0.439880 0.710242 0.954224
O O4 0.333621 0.678047 0.029664
O O5 0.339950 0.557311 0.220156
O O6 0.446379 0.548519 0.257918
O O7 0.403847 0.500000 0.000000
O O8 0.750000 0.336628 0.750000
O O9 0.000000 0.696698 0.316223
O O10 0.000000 0.653377 0.037201
#
# Coordination Sequence:
#
# PCOD9482446 Si02
#       5
#    16  16  16   8   8
#     4  11  22  40  65  90 126 165 209 260 322 374
#     4  10  20  37  63  90 118 167 211 252 312 383
#     4  11  23  40  61  90 124 166 217 259 307 375
#     4  12  20  37  66  94 127 157 218 257 319 386
#     4  12  19  36  67  95 125 163 204 260 326 378
#
# _framework density 9.8765429999999999
#
# number of rings (size 3 to 8) (size 9 to 14) (size 15 to 20)
#    0.000    1.000    7.500    1.875    0.000    1.000 
#    0.000    3.750    0.000    3.000    0.000    0.000 
#    0.000    0.000    0.000    0.000    0.000    0.000 
#
# Total GULP energy -178551.381408 kJ/mol
# GULP energy per Si atom -5579.730669 kJ/mol
# Density = 0.985406 g / cm^3
# Si number density = 9.876543 Si / 1000 Ang^3
#
#
#
# Elastic Constant Matrix: (Units=GPa)
#
#
# Indices 1 2 3 4 5 6 
#
# 1 145.7836 39.5432 19.5641 0.0000 0.0000 0.0000
# 2 39.5432 65.1945 10.8791 0.0000 0.0000 0.0000
# 3 19.5641 10.8791 36.3590 0.0000 0.0000 0.0000
# 4 0.0000 0.0000 0.0000 34.9900 0.0000 0.0000
# 5 0.0000 0.0000 0.0000 0.0000 29.4799 0.0000
# 6 0.0000 0.0000 0.0000 0.0000 0.0000 34.5777
#
#
#
# Elastic Compliance Matrix: (Units=1/GPa)
#
#
# Indices 1 2 3 4 5 6 
#
# 1 0.008552 -0.004651 -0.003210 0.000000 0.000000 0.000000
# 2 -0.004651 0.018675 -0.003085 0.000000 0.000000 0.000000
# 3 -0.003210 -0.003085 0.030154 0.000000 0.000000 0.000000
# 4 0.000000 0.000000 0.000000 0.028580 0.000000 0.000000
# 5 0.000000 0.000000 0.000000 0.000000 0.033921 0.000000
# 6 0.000000 0.000000 0.000000 0.000000 0.000000 0.028920
#
#
# Mechanical properties :
#
#
# Convention : Reuss Voigt Hill
#
# Bulk Modulus (GPa) = 28.17848 43.03440 35.60644
# Shear Modulus (GPa) = 27.39371 31.63290 29.51331
#
# Velocity S-wave (km/s) = 3.72803 4.00611 3.86957
# Velocity P-wave (km/s) = 5.72950 6.57511 6.16682
#
# Compressibility (1/GPa) = 0.03548808
#
# Stress axis : x y z
#
# Youngs Moduli (GPa) = 116.93265 53.54806 33.16341
#
# Poissons Ratio (x) = 0.24908 0.10645
# Poissons Ratio (y) = 0.54391 0.10230
# Poissons Ratio (z) = 0.37534 0.16519
#
# Static dielectric constant tensor:
#      x y z
#    x 1.666170 0.000000 0.000000 
#    y 0.000000 1.737530 0.000000 
#    z 0.000000 0.000000 1.729150 
# 
# From -- ./inp_files/8994.got.cif
#   From: 2010.05.17/outbox.ucp.g08.bks.cvg/sg64_5_cif.got.tgz:8994.got - 2010.06.11 16:36:46.
