data_PCOD9482679
_publ_section_title
;
Structure prediction by ZEFSAII (Michael W. Deem and Ramdas Pophale) SiO2 
 PCOD9482679
Probable space group: C M M M
;
_chemical_formula_sum "Si O2"
_cell_formula_units_Z 96
_cell_length_a 23.213126
_cell_length_b 26.269953
_cell_length_c 9.389428
_cell_angle_alpha 90.000000
_cell_angle_beta 90.000000
_cell_angle_gamma 90.000000
_cell_volume 5725.745765
_symmetry_space_group_name_H-M "C M M M"
_symmetry_group_IT_number 65
_symmetry_cell_setting 'orthorhombic'
loop_
_space_group_symop_operation_xyz
x,y,z
-x,-y,z
x,-y,-z
-x,y,-z
-x,-y,-z
x,y,-z
-x,y,z
x,-y,z
1/2+x,1/2+y,z
1/2-x,1/2-y,z
1/2+x,1/2-y,-z
1/2-x,1/2+y,-z
1/2-x,1/2-y,-z
1/2+x,1/2+y,-z
1/2-x,1/2+y,z
1/2+x,1/2-y,z
loop_
_atom_site_type_symbol
_atom_site_label
_atom_site_fract_x
_atom_site_fract_y
_atom_site_fract_z
Si Si1 0.262077 0.557149 0.671003
Si Si2 0.568634 0.000000 0.665637
Si Si3 0.250000 0.250000 0.245049
Si Si4 0.632583 0.801091 0.159432
Si Si5 0.065994 0.219318 0.327830
Si Si6 0.856441 0.578786 0.169632
Si Si7 0.327563 0.656496 0.665532
O O1 0.251403 0.563575 0.500000
O O2 0.285991 0.500000 0.690441
O O3 0.202743 0.561448 0.756748
O O4 0.301709 0.603950 0.723076
O O5 0.593746 0.048387 0.749442
O O6 0.500000 0.000000 0.667821
O O7 0.588037 0.000000 0.500000
O O8 0.303519 0.223615 0.165575
O O9 0.281421 0.297153 0.324408
O O10 0.591787 0.771929 0.269098
O O11 0.637432 0.860747 0.189549
O O12 0.609566 0.794071 0.000000
O O13 0.067919 0.220124 0.500000
O O14 0.112056 0.177243 0.274103
O O15 0.000000 0.211114 0.284412
O O16 0.856372 0.568276 0.000000
O O17 0.338260 0.646452 0.500000
#
# Coordination Sequence:
#
# PCOD9482679 Si02
#       7
#    16   8   8  16  16  16  16
#     4  10  19  32  52  77 105 136 171 214 261 311
#     4  11  25  43  59  75  97 135 184 223 256 299
#     4  10  16  30  48  74 107 138 169 208 259 314
#     4  10  21  33  50  76 107 138 168 209 259 313
#     4   9  19  35  53  73 100 137 178 215 254 305
#     4  11  22  36  53  77 105 136 170 213 264 308
#     4   9  17  29  49  77 104 134 171 215 263 309
#
# _framework density 16.766375
#
# number of rings (size 3 to 8) (size 9 to 14) (size 15 to 20)
#    0.000    2.083    2.500    1.250    0.000    3.667 
#    0.000    3.333    0.000    0.500    0.000    3.500 
#    0.000    0.000    0.000    5.833    0.000    5.833 
#
# Total GULP energy -267366.269980 kJ/mol
# GULP energy per Si atom -5570.130625 kJ/mol
# Density = 1.672821 g / cm^3
# Si number density = 16.766375 Si / 1000 Ang^3
#
#
#
# Elastic Constant Matrix: (Units=GPa)
#
#
# Indices 1 2 3 4 5 6 
#
# 1 107.5775 54.7297 30.1817 0.0000 0.0000 0.0000
# 2 54.7297 128.1971 39.8808 0.0000 0.0000 0.0000
# 3 30.1817 39.8808 49.9764 0.0000 0.0000 0.0000
# 4 0.0000 0.0000 0.0000 16.6886 0.0000 0.0000
# 5 0.0000 0.0000 0.0000 0.0000 6.7218 0.0000
# 6 0.0000 0.0000 0.0000 0.0000 0.0000 19.5538
#
#
#
# Elastic Compliance Matrix: (Units=1/GPa)
#
#
# Indices 1 2 3 4 5 6 
#
# 1 0.012562 -0.003994 -0.004399 0.000000 0.000000 0.000000
# 2 -0.003994 0.011647 -0.006882 0.000000 0.000000 0.000000
# 3 -0.004399 -0.006882 0.028157 0.000000 0.000000 0.000000
# 4 0.000000 0.000000 0.000000 0.059921 0.000000 0.000000
# 5 0.000000 0.000000 0.000000 0.000000 0.148771 0.000000
# 6 0.000000 0.000000 0.000000 0.000000 0.000000 0.051141
#
#
# Mechanical properties :
#
#
# Convention : Reuss Voigt Hill
#
# Bulk Modulus (GPa) = 45.83746 59.48170 52.65958
# Shear Modulus (GPa) = 14.28488 19.32341 16.80415
#
# Velocity S-wave (km/s) = 2.92206 3.39855 3.16927
# Velocity P-wave (km/s) = 6.22759 7.13820 6.69839
#
# Compressibility (1/GPa) = 0.02181622
#
# Stress axis : x y z
#
# Youngs Moduli (GPa) = 79.60556 85.86207 35.51465
#
# Poissons Ratio (x) = 0.34298 0.15622
# Poissons Ratio (y) = 0.31798 0.24440
# Poissons Ratio (z) = 0.35017 0.59086
#
# Static dielectric constant tensor:
#      x y z
#    x 1.560020 0.000000 0.000000 
#    y 0.000000 1.592430 0.000000 
#    z 0.000000 0.000000 1.571520 
# 
# From -- ./inp_files/14667.got.cif
#   From: 2010.05.17/outbox.cif.g08.bks.cpg/sg65_8_cif.got.tgz:14667.got - 2010.06.03 17:01:31.
