data_PCOD9482724
_publ_section_title
;
Structure prediction by ZEFSAII (Michael W. Deem and Ramdas Pophale) SiO2 
 PCOD9482724
Probable space group: C M M M
;
_chemical_formula_sum "Si O2"
_cell_formula_units_Z 72
_cell_length_a 22.331969
_cell_length_b 20.343855
_cell_length_c 10.598284
_cell_angle_alpha 90.000000
_cell_angle_beta 90.000000
_cell_angle_gamma 90.000000
_cell_volume 4814.994785
_symmetry_space_group_name_H-M "C M M M"
_symmetry_group_IT_number 65
_symmetry_cell_setting 'orthorhombic'
loop_
_space_group_symop_operation_xyz
x,y,z
-x,-y,z
x,-y,-z
-x,y,-z
-x,-y,-z
x,y,-z
-x,y,z
x,-y,z
1/2+x,1/2+y,z
1/2-x,1/2-y,z
1/2+x,1/2-y,-z
1/2-x,1/2+y,-z
1/2-x,1/2-y,-z
1/2+x,1/2+y,-z
1/2-x,1/2+y,z
1/2+x,1/2-y,z
loop_
_atom_site_type_symbol
_atom_site_label
_atom_site_fract_x
_atom_site_fract_y
_atom_site_fract_z
Si Si1 0.859239 0.124607 0.245533
Si Si2 0.659531 0.697301 0.500000
Si Si3 0.699413 0.157255 0.500000
Si Si4 0.279755 0.921860 0.252920
Si Si5 0.337625 0.295954 0.000000
Si Si6 0.700123 0.848352 0.000000
Si Si7 0.071509 0.000000 0.851623
O O1 0.867750 0.164400 0.374961
O O2 0.791324 0.095760 0.249920
O O3 0.864323 0.173418 0.126777
O O4 0.902560 0.063870 0.218079
O O5 0.660059 0.776496 0.500000
O O6 0.730485 0.679065 0.500000
O O7 0.692433 0.114116 0.374346
O O8 0.306552 0.891484 0.125151
O O9 0.286400 0.000000 0.259058
O O10 0.339125 0.217438 0.000000
O O11 0.268404 0.320561 0.000000
O O12 0.000000 0.000000 0.850369
O O13 0.091553 0.000000 0.000000
#
# Coordination Sequence:
#
# PCOD9482724 Si02
#       7
#    16   8   8  16   8   8   8
#     4  10  18  30  46  60  80 112 149 184 228 263
#     4   9  18  29  44  61  82 107 144 186 217 255
#     4   9  17  28  39  60  86 112 143 179 212 256
#     4  10  17  25  40  59  87 116 148 178 215 258
#     4   9  16  27  42  57  78 107 146 186 221 263
#     4   9  17  24  37  60  80 106 145 191 216 242
#     4  11  22  35  49  67  87 111 153 199 241 273
#
# _framework density 14.953287
#
# number of rings (size 3 to 8) (size 9 to 14) (size 15 to 20)
#    0.000    2.333    2.222    2.000    0.000    5.778 
#    0.000    1.111    0.000    0.000    0.000    0.000 
#    0.000    0.000    0.000    0.000    0.000   77.778 
#
# Total GULP energy -200615.036792 kJ/mol
# GULP energy per Si atom -5572.639911 kJ/mol
# Density = 1.491925 g / cm^3
# Si number density = 14.953287 Si / 1000 Ang^3
#
#
#
# Elastic Constant Matrix: (Units=GPa)
#
#
# Indices 1 2 3 4 5 6 
#
# 1 21.7275 24.2334 23.7140 0.0000 0.0000 0.0000
# 2 24.2334 165.2718 101.8876 0.0000 0.0000 0.0000
# 3 23.7140 101.8876 175.2891 0.0000 0.0000 0.0000
# 4 0.0000 0.0000 0.0000 27.9857 0.0000 0.0000
# 5 0.0000 0.0000 0.0000 0.0000 8.6613 0.0000
# 6 0.0000 0.0000 0.0000 0.0000 0.0000 7.1754
#
#
#
# Elastic Compliance Matrix: (Units=1/GPa)
#
#
# Indices 1 2 3 4 5 6 
#
# 1 0.057177 -0.005634 -0.004460 0.000000 0.000000 0.000000
# 2 -0.005634 0.009985 -0.005041 0.000000 0.000000 0.000000
# 3 -0.004460 -0.005041 0.009239 0.000000 0.000000 0.000000
# 4 0.000000 0.000000 0.000000 0.035732 0.000000 0.000000
# 5 0.000000 0.000000 0.000000 0.000000 0.115457 0.000000
# 6 0.000000 0.000000 0.000000 0.000000 0.000000 0.139365
#
#
# Mechanical properties :
#
#
# Convention : Reuss Voigt Hill
#
# Bulk Modulus (GPa) = 21.67862 73.55093 47.61477
# Shear Modulus (GPa) = 12.11823 22.92804 17.52313
#
# Velocity S-wave (km/s) = 2.84985 3.92000 3.42696
# Velocity P-wave (km/s) = 5.03566 8.35359 6.89711
#
# Compressibility (1/GPa) = 0.04612841
#
# Stress axis : x y z
#
# Youngs Moduli (GPa) = 17.48967 100.15302 108.24051
#
# Poissons Ratio (x) = 0.56425 0.48280
# Poissons Ratio (y) = 0.09853 0.54569
# Poissons Ratio (z) = 0.07801 0.50492
#
# Static dielectric constant tensor:
#      x y z
#    x 1.454180 0.000000 0.000000 
#    y 0.000000 1.487100 0.000000 
#    z 0.000000 0.000000 1.503890 
# 
# From -- ./inp_files/11363.got.cif
#   From: 2010.05.17/outbox.cif.g08.bks.cpg/sg65_6_cif.got.tgz:11363.got - 2010.06.03 17:01:31.
