data_PCOD9482430
_publ_section_title
;
Structure prediction by ZEFSAII (Michael W. Deem and Ramdas Pophale) SiO2 
 PCOD9482430
Probable space group: C M C A
;
_chemical_formula_sum "Si O2"
_cell_formula_units_Z 48
_cell_length_a 9.000000
_cell_length_b 27.000000
_cell_length_c 21.000000
_cell_angle_alpha 90.000000
_cell_angle_beta 90.000000
_cell_angle_gamma 90.000000
_cell_volume 5103.000000
_symmetry_space_group_name_H-M "C M C A"
_symmetry_group_IT_number 64
_symmetry_cell_setting 'orthorhombic'
loop_
_space_group_symop_operation_xyz
x,y,z
-x,1/2-y,1/2+z
x,-y,-z
-x,1/2+y,1/2-z
-x,-y,-z
x,1/2+y,1/2-z
-x,y,z
x,1/2-y,1/2+z
1/2+x,1/2+y,z
1/2-x,-y,1/2+z
1/2+x,1/2-y,-z
1/2-x,y,1/2-z
1/2-x,1/2-y,-z
1/2+x,y,1/2-z
1/2-x,1/2+y,z
1/2+x,-y,1/2+z
loop_
_atom_site_type_symbol
_atom_site_label
_atom_site_fract_x
_atom_site_fract_y
_atom_site_fract_z
Si Si1 0.328520 0.626156 0.008015
Si Si2 0.321499 0.229291 0.685459
Si Si3 0.824200 0.219590 0.443612
Si Si4 0.673246 0.521160 0.688173
Si Si5 0.665964 0.961855 0.941783
Si Si6 0.678055 0.879522 0.358556
O O1 0.500000 0.641795 0.010302
O O2 0.225030 0.664272 0.044198
O O3 0.298379 0.574641 0.041814
O O4 0.285422 0.622322 0.933735
O O5 0.500000 0.230918 0.689713
O O6 0.250000 0.247572 0.750000
O O7 0.273424 0.260309 0.624322
O O8 0.277593 0.172392 0.672523
O O9 0.750000 0.250000 0.500000
O O10 0.000000 0.226110 0.446965
O O11 0.500000 0.527666 0.700913
O O12 0.750000 0.498520 0.750000
O O13 0.690174 0.489060 0.624678
O O14 0.744995 0.574263 0.673913
O O15 0.500000 0.938152 0.940058
O O16 0.661630 0.000000 0.000000
O O17 0.500000 0.884638 0.353644
#
# Coordination Sequence:
#
# PCOD9482430 Si02
#       6
#    16  16  16  16  16  16
#     4  11  22  37  60  91 120 149 193 244 291 343
#     4  10  22  39  57  84 119 154 193 237 286 345
#     4  11  22  39  61  86 119 155 196 243 290 344
#     4  11  23  38  58  85 119 155 194 238 291 349
#     4  10  21  39  60  85 116 152 196 239 287 346
#     4  10  20  36  57  86 122 151 188 237 290 348
#
# _framework density 9.4062319999999993
#
# number of rings (size 3 to 8) (size 9 to 14) (size 15 to 20)
#    0.000    1.500    3.333    2.000    0.000    5.667 
#    0.000    0.833    0.000    0.000    0.000    0.000 
#    0.000    0.000    0.000    0.000    0.000    0.000 
#
# Total GULP energy -267908.671544 kJ/mol
# GULP energy per Si atom -5581.430657 kJ/mol
# Density = 0.938482 g / cm^3
# Si number density = 9.406232 Si / 1000 Ang^3
#
#
#
# Elastic Constant Matrix: (Units=GPa)
#
#
# Indices 1 2 3 4 5 6 
#
# 1 27.9893 24.0339 55.6379 0.0000 0.0000 0.0000
# 2 24.0339 38.2651 31.8563 0.0000 0.0000 0.0000
# 3 55.6379 31.8563 149.5906 0.0000 0.0000 0.0000
# 4 0.0000 0.0000 0.0000 20.3798 0.0000 0.0000
# 5 0.0000 0.0000 0.0000 0.0000 28.2332 0.0000
# 6 0.0000 0.0000 0.0000 0.0000 0.0000 27.6653
#
#
#
# Elastic Compliance Matrix: (Units=1/GPa)
#
#
# Indices 1 2 3 4 5 6 
#
# 1 0.387738 -0.150082 -0.112252 0.000000 0.000000 0.000000
# 2 -0.150082 0.089858 0.036685 0.000000 0.000000 0.000000
# 3 -0.112252 0.036685 0.040623 0.000000 0.000000 0.000000
# 4 0.000000 0.000000 0.000000 0.049068 0.000000 0.000000
# 5 0.000000 0.000000 0.000000 0.000000 0.035419 0.000000
# 6 0.000000 0.000000 0.000000 0.000000 0.000000 0.036146
#
#
# Mechanical properties :
#
#
# Convention : Reuss Voigt Hill
#
# Bulk Modulus (GPa) = 14.94327 48.76679 31.85503
# Shear Modulus (GPa) = 4.49455 22.21013 13.35234
#
# Velocity S-wave (km/s) = 1.54736 3.43972 2.66702
# Velocity P-wave (km/s) = 3.33960 6.46177 5.14332
#
# Compressibility (1/GPa) = 0.06691978
#
# Stress axis : x y z
#
# Youngs Moduli (GPa) = 2.57906 11.12870 24.61664
#
# Poissons Ratio (x) = 1.67022 2.76326
# Poissons Ratio (y) = 0.38707 -0.90306
# Poissons Ratio (z) = 0.28950 -0.40826
#
# Static dielectric constant tensor:
#      x y z
#    x 1.661430 0.000000 0.000000 
#    y 0.000000 1.700080 0.000000 
#    z 0.000000 0.000000 1.650740 
# 
# From -- ./inp_files/37042.got.cif
#   From: 2010.05.17/outbox.ucp.g08.bks.cvg/sg64_19_cif.got.tgz:37042.got - 2010.06.11 16:36:46.
