data_PCOD9482842
_publ_section_title
;
Structure prediction by ZEFSAII (Michael W. Deem and Ramdas Pophale) SiO2 
 PCOD9482842
Probable space group: C M M M
;
_chemical_formula_sum "Si O2"
_cell_formula_units_Z 96
_cell_length_a 21.240885
_cell_length_b 14.968324
_cell_length_c 14.859774
_cell_angle_alpha 90.000000
_cell_angle_beta 90.000000
_cell_angle_gamma 90.000000
_cell_volume 4724.523214
_symmetry_space_group_name_H-M "C M M M"
_symmetry_group_IT_number 65
_symmetry_cell_setting 'orthorhombic'
loop_
_space_group_symop_operation_xyz
x,y,z
-x,-y,z
x,-y,-z
-x,y,-z
-x,-y,-z
x,y,-z
-x,y,z
x,-y,z
1/2+x,1/2+y,z
1/2-x,1/2-y,z
1/2+x,1/2-y,-z
1/2-x,1/2+y,-z
1/2-x,1/2-y,-z
1/2+x,1/2+y,-z
1/2-x,1/2+y,z
1/2+x,1/2-y,z
loop_
_atom_site_type_symbol
_atom_site_label
_atom_site_fract_x
_atom_site_fract_y
_atom_site_fract_z
Si Si1 0.072618 0.391624 0.732999
Si Si2 0.068135 0.891485 0.606351
Si Si3 0.844844 0.333144 0.098980
Si Si4 0.682424 0.890903 0.396781
Si Si5 0.308962 0.398721 0.696740
Si Si6 0.797822 0.871741 0.099856
O O1 0.073257 0.500000 0.737571
O O2 0.107849 0.356304 0.821942
O O3 0.116727 0.364661 0.649194
O O4 0.000000 0.363216 0.726501
O O5 0.072637 0.875612 0.500000
O O6 0.129752 0.854039 0.654233
O O7 0.000000 0.858373 0.639091
O O8 0.067231 0.000000 0.618403
O O9 0.821107 0.230843 0.101496
O O10 0.777820 0.383402 0.105090
O O11 0.872404 0.351002 0.000000
O O12 0.689579 0.861112 0.500000
O O13 0.741623 0.860744 0.334842
O O14 0.681850 0.000000 0.397334
O O15 0.307351 0.500000 0.660327
O O16 0.319261 0.404910 0.803268
O O17 0.817235 0.904282 0.000000
#
# Coordination Sequence:
#
# PCOD9482842 Si02
#       6
#    16  16  16  16  16  16
#     4  10  20  33  51  77 105 133 168 211 259 305
#     4   8  14  25  42  66  95 125 157 195 243 293
#     4   9  18  34  52  69  95 129 165 206 249 299
#     4   9  17  29  46  72 104 135 169 208 249 297
#     4  10  17  27  48  76 103 129 165 211 249 286
#     4   9  18  32  51  72  95 128 167 205 249 299
#
# _framework density 20.319510999999999
#
# number of rings (size 3 to 8) (size 9 to 14) (size 15 to 20)
#    0.000    2.833    1.667    2.000    0.000    3.333 
#    0.000    5.000    0.000    4.500    0.000    2.333 
#    0.000    0.000    0.000    0.000    0.000    0.000 
#
# Total GULP energy -267392.551455 kJ/mol
# GULP energy per Si atom -5570.678155 kJ/mol
# Density = 2.027326 g / cm^3
# Si number density = 20.319511 Si / 1000 Ang^3
#
#
#
# Elastic Constant Matrix: (Units=GPa)
#
#
# Indices 1 2 3 4 5 6 
#
# 1 157.1182 6.8771 75.4939 0.0000 0.0000 0.0000
# 2 6.8771 38.8359 3.7595 0.0000 0.0000 0.0000
# 3 75.4939 3.7595 126.6052 0.0000 0.0000 0.0000
# 4 0.0000 0.0000 0.0000 24.3126 0.0000 0.0000
# 5 0.0000 0.0000 0.0000 0.0000 31.3393 0.0000
# 6 0.0000 0.0000 0.0000 0.0000 0.0000 8.0050
#
#
#
# Elastic Compliance Matrix: (Units=1/GPa)
#
#
# Indices 1 2 3 4 5 6 
#
# 1 0.008965 -0.001073 -0.005314 0.000000 0.000000 0.000000
# 2 -0.001073 0.025952 -0.000131 0.000000 0.000000 0.000000
# 3 -0.005314 -0.000131 0.011071 0.000000 0.000000 0.000000
# 4 0.000000 0.000000 0.000000 0.041131 0.000000 0.000000
# 5 0.000000 0.000000 0.000000 0.000000 0.031909 0.000000
# 6 0.000000 0.000000 0.000000 0.000000 0.000000 0.124922
#
#
# Mechanical properties :
#
#
# Convention : Reuss Voigt Hill
#
# Bulk Modulus (GPa) = 30.34660 54.98001 42.66330
# Shear Modulus (GPa) = 18.65885 28.49331 23.57608
#
# Velocity S-wave (km/s) = 3.03359 3.74874 3.40997
# Velocity P-wave (km/s) = 5.21894 6.77155 6.04530
#
# Compressibility (1/GPa) = 0.03295262
#
# Stress axis : x y z
#
# Youngs Moduli (GPa) = 111.54683 38.53259 90.32566
#
# Poissons Ratio (x) = 0.04135 0.47997
# Poissons Ratio (y) = 0.11970 0.01181
# Poissons Ratio (z) = 0.59274 0.00504
#
# Static dielectric constant tensor:
#      x y z
#    x 1.726800 0.000000 0.000000 
#    y 0.000000 1.787100 0.000000 
#    z 0.000000 0.000000 1.712140 
# 
# From -- ./inp_files/27117.got.cif
#   From: 2010.05.17/outbox.cif.g08.bks.cpg/sg65_14_cif.got.tgz:27117.got - 2010.06.03 17:01:31.
