data_PCOD9482343
_publ_section_title
;
Structure prediction by ZEFSAII (Michael W. Deem and Ramdas Pophale) SiO2 
 PCOD9482343
Probable space group: C M C A
;
_chemical_formula_sum "Si O2"
_cell_formula_units_Z 80
_cell_length_a 27.959818
_cell_length_b 17.491162
_cell_length_c 7.248947
_cell_angle_alpha 90.000000
_cell_angle_beta 90.000000
_cell_angle_gamma 90.000000
_cell_volume 3545.095400
_symmetry_space_group_name_H-M "C M C A"
_symmetry_group_IT_number 64
_symmetry_cell_setting 'orthorhombic'
loop_
_space_group_symop_operation_xyz
x,y,z
-x,1/2-y,1/2+z
x,-y,-z
-x,1/2+y,1/2-z
-x,-y,-z
x,1/2+y,1/2-z
-x,y,z
x,1/2-y,1/2+z
1/2+x,1/2+y,z
1/2-x,-y,1/2+z
1/2+x,1/2-y,-z
1/2-x,y,1/2-z
1/2-x,1/2-y,-z
1/2+x,y,1/2-z
1/2-x,1/2+y,z
1/2+x,-y,1/2+z
loop_
_atom_site_type_symbol
_atom_site_label
_atom_site_fract_x
_atom_site_fract_y
_atom_site_fract_z
Si Si1 0.500000 0.938795 0.260931
Si Si2 0.596938 0.189166 0.133764
Si Si3 0.500000 0.387919 0.673309
Si Si4 0.699747 0.131372 0.744378
Si Si5 0.299296 0.306261 0.656003
Si Si6 0.902616 0.864131 0.207826
O O1 0.549851 0.909218 0.342060
O O2 0.500000 0.029486 0.263409
O O3 0.500000 0.907339 0.047742
O O4 0.548113 0.158090 0.220538
O O5 0.647877 0.174765 0.236185
O O6 0.594910 0.280541 0.117812
O O7 0.597090 0.153057 0.928903
O O8 0.750000 0.086826 0.750000
O O9 0.704677 0.213709 0.640637
O O10 0.649475 0.097518 0.678123
O O11 0.696414 0.158356 0.955191
O O12 0.250000 0.332499 0.750000
#
# Coordination Sequence:
#
# PCOD9482343 Si02
#       6
#     8  16   8  16  16  16
#     4   9  17  30  47  65  86 113 146 182 216 253
#     4   9  17  28  45  68  89 112 143 178 215 254
#     4   9  17  30  47  65  86 113 146 182 216 253
#     4   9  15  23  37  60  87 111 137 169 208 251
#     4   9  15  23  37  60  87 111 137 169 208 251
#     4   9  17  28  45  68  89 112 143 178 215 254
#
# _framework density 22.566389000000001
#
# number of rings (size 3 to 8) (size 9 to 14) (size 15 to 20)
#    0.000    3.000    0.000    3.000    0.000    1.600 
#    0.000    0.000    0.000    3.600    0.000    0.000 
#    0.000    0.000    0.000    0.000    0.000   10.800 
#
# Total GULP energy -222901.306935 kJ/mol
# GULP energy per Si atom -5572.532673 kJ/mol
# Density = 2.251503 g / cm^3
# Si number density = 22.566389 Si / 1000 Ang^3
#
#
#
# Elastic Constant Matrix: (Units=GPa)
#
#
# Indices 1 2 3 4 5 6 
#
# 1 285.9224 55.2614 14.8556 0.0000 0.0000 0.0000
# 2 55.2614 18.8861 -3.6812 0.0000 0.0000 0.0000
# 3 14.8556 -3.6812 49.7918 0.0000 0.0000 0.0000
# 4 0.0000 0.0000 0.0000 -14.8417 0.0000 0.0000
# 5 0.0000 0.0000 0.0000 0.0000 21.0747 0.0000
# 6 0.0000 0.0000 0.0000 0.0000 0.0000 -29.8339
#
#
#
# Elastic Compliance Matrix: (Units=1/GPa)
#
#
# Indices 1 2 3 4 5 6 
#
# 1 0.009022 -0.027316 -0.004711 0.000000 0.000000 0.000000
# 2 -0.027316 0.136433 0.018237 0.000000 0.000000 0.000000
# 3 -0.004711 0.018237 0.022838 0.000000 0.000000 0.000000
# 4 0.000000 0.000000 0.000000 -0.067378 0.000000 0.000000
# 5 0.000000 0.000000 0.000000 0.000000 0.047450 0.000000
# 6 0.000000 0.000000 0.000000 0.000000 0.000000 -0.033519
#
#
# Mechanical properties :
#
#
# Convention : Reuss Voigt Hill
#
# Bulk Modulus (GPa) = 7.10678 54.16354 30.63516
# Shear Modulus (GPa) = 26.40876 14.49081 20.44978
#
# Velocity S-wave (km/s) = 3.42463 2.53680 3.01359
# Velocity P-wave (km/s) = 4.33516 5.71266 5.07090
#
# Compressibility (1/GPa) = 0.14071062
#
# Stress axis : x y z
#
# Youngs Moduli (GPa) = 110.84255 7.32960 43.78749
#
# Poissons Ratio (x) = 0.20022 0.20630
# Poissons Ratio (y) = 3.02783 -0.79855
# Poissons Ratio (z) = 0.52221 -0.13367
#
# Static dielectric constant tensor:
#      x y z
#    x 1.968750 0.000000 0.000000 
#    y 0.000000 1.754240 0.000000 
#    z 0.000000 0.000000 1.928940 
# 
# From -- ./inp_files/10239.got.cif
#   From: 2010.05.17/outbox.cif.g08.bks.cpg/sg64_6_cif.got.tgz:10239.got - 2010.06.03 16:29:19.
