data_PCOD9482854
_publ_section_title
;
Structure prediction by ZEFSAII (Michael W. Deem and Ramdas Pophale) SiO2 
 PCOD9482854
Probable space group: C M M M
;
_chemical_formula_sum "Si O2"
_cell_formula_units_Z 88
_cell_length_a 19.164179
_cell_length_b 16.664052
_cell_length_c 15.406113
_cell_angle_alpha 90.000000
_cell_angle_beta 90.000000
_cell_angle_gamma 90.000000
_cell_volume 4919.986485
_symmetry_space_group_name_H-M "C M M M"
_symmetry_group_IT_number 65
_symmetry_cell_setting 'orthorhombic'
loop_
_space_group_symop_operation_xyz
x,y,z
-x,-y,z
x,-y,-z
-x,y,-z
-x,-y,-z
x,y,-z
-x,y,z
x,-y,z
1/2+x,1/2+y,z
1/2-x,1/2-y,z
1/2+x,1/2-y,-z
1/2-x,1/2+y,-z
1/2-x,1/2-y,-z
1/2+x,1/2+y,-z
1/2-x,1/2+y,z
1/2+x,1/2-y,z
loop_
_atom_site_type_symbol
_atom_site_label
_atom_site_fract_x
_atom_site_fract_y
_atom_site_fract_z
Si Si1 0.000000 0.096823 0.662173
Si Si2 0.756985 0.093342 0.240325
Si Si3 0.000000 0.185102 0.154500
Si Si4 0.500000 0.855564 0.899962
Si Si5 0.374307 0.589042 0.094372
Si Si6 0.655342 0.906227 0.097248
Si Si7 0.345102 0.402222 0.597887
O O1 0.073749 0.119085 0.617365
O O2 0.000000 0.137888 0.755503
O O3 0.000000 0.000000 0.670698
O O4 0.820588 0.093713 0.172218
O O5 0.694802 0.129899 0.181256
O O6 0.790352 0.127395 0.328984
O O7 0.737928 0.000000 0.259571
O O8 0.000000 0.279800 0.162907
O O9 0.068073 0.156250 0.103851
O O10 0.427794 0.902249 0.889801
O O11 0.500000 0.825362 0.000000
O O12 0.407562 0.500000 0.099249
O O13 0.339397 0.594701 0.000000
O O14 0.676716 0.000000 0.093969
O O15 0.669792 0.872062 0.000000
O O16 0.326982 0.377964 0.500000
O O17 0.343570 0.500000 0.602114
#
# Coordination Sequence:
#
# PCOD9482854 Si02
#       7
#     8  16   8   8  16  16  16
#     4  10  17  28  45  65  94 134 172 197 218 260
#     4   9  16  27  45  70  95 118 151 192 231 277
#     4  12  20  29  42  61  94 133 160 193 222 259
#     4  10  21  34  47  68  94 120 156 199 240 281
#     4  10  18  27  41  62  92 130 164 188 215 260
#     4   9  17  32  53  72  91 118 152 193 239 286
#     4   9  16  26  43  70 100 124 152 196 240 271
#
# _framework density 17.886227999999999
#
# number of rings (size 3 to 8) (size 9 to 14) (size 15 to 20)
#    0.000    2.364    1.818    2.727    0.000    5.091 
#    0.000    0.909    0.000    3.273    0.000    4.455 
#    0.000    4.364    0.000    0.000    0.000    0.000 
#
# Total GULP energy -244942.833838 kJ/mol
# GULP energy per Si atom -5566.882587 kJ/mol
# Density = 1.784552 g / cm^3
# Si number density = 17.886228 Si / 1000 Ang^3
#
#
#
# Elastic Constant Matrix: (Units=GPa)
#
#
# Indices 1 2 3 4 5 6 
#
# 1 88.5067 -0.1907 53.0531 0.0000 0.0000 0.0000
# 2 -0.1907 10.7934 2.2315 0.0000 0.0000 0.0000
# 3 53.0531 2.2315 151.2635 0.0000 0.0000 0.0000
# 4 0.0000 0.0000 0.0000 4.0116 0.0000 0.0000
# 5 0.0000 0.0000 0.0000 0.0000 -13.1326 0.0000
# 6 0.0000 0.0000 0.0000 0.0000 0.0000 -14.9375
#
#
#
# Elastic Compliance Matrix: (Units=1/GPa)
#
#
# Indices 1 2 3 4 5 6 
#
# 1 0.014324 0.001296 -0.005043 0.000000 0.000000 0.000000
# 2 0.001296 0.093050 -0.001827 0.000000 0.000000 0.000000
# 3 -0.005043 -0.001827 0.008407 0.000000 0.000000 0.000000
# 4 0.000000 0.000000 0.000000 0.249278 0.000000 0.000000
# 5 0.000000 0.000000 0.000000 0.000000 -0.076147 0.000000
# 6 0.000000 0.000000 0.000000 0.000000 0.000000 -0.066945
#
#
# Mechanical properties :
#
#
# Convention : Reuss Voigt Hill
#
# Bulk Modulus (GPa) = 9.55733 40.08347 24.82040
# Shear Modulus (GPa) = 18.65723 8.21961 13.43842
#
# Velocity S-wave (km/s) = 3.23322 2.14604 2.74401
# Velocity P-wave (km/s) = 4.39241 5.34785 4.89351
#
# Compressibility (1/GPa) = 0.10463172
#
# Stress axis : x y z
#
# Youngs Moduli (GPa) = 69.81116 10.74694 118.95235
#
# Poissons Ratio (x) = -0.01393 0.59989
# Poissons Ratio (y) = -0.09046 0.21735
# Poissons Ratio (z) = 0.35207 0.01964
#
# Static dielectric constant tensor:
#      x y z
#    x 1.639250 0.000000 0.000000 
#    y 0.000000 1.601100 0.000000 
#    z 0.000000 0.000000 1.638780 
# 
# From -- ./inp_files/44058.got.cif
#   From: 2010.05.17/outbox.cif.g08.bks.cpg/sg65_23_cif.got.tgz:44058.got - 2010.06.03 17:01:31.
