data_PCOD9482356
_publ_section_title
;
Structure prediction by ZEFSAII (Michael W. Deem and Ramdas Pophale) SiO2 
 PCOD9482356
Probable space group: C M C A
;
_chemical_formula_sum "Si O2"
_cell_formula_units_Z 48
_cell_length_a 9.000000
_cell_length_b 21.000000
_cell_length_c 27.000000
_cell_angle_alpha 90.000000
_cell_angle_beta 90.000000
_cell_angle_gamma 90.000000
_cell_volume 5103.000000
_symmetry_space_group_name_H-M "C M C A"
_symmetry_group_IT_number 64
_symmetry_cell_setting 'orthorhombic'
loop_
_space_group_symop_operation_xyz
x,y,z
-x,1/2-y,1/2+z
x,-y,-z
-x,1/2+y,1/2-z
-x,-y,-z
x,1/2+y,1/2-z
-x,y,z
x,1/2-y,1/2+z
1/2+x,1/2+y,z
1/2-x,-y,1/2+z
1/2+x,1/2-y,-z
1/2-x,y,1/2-z
1/2-x,1/2-y,-z
1/2+x,y,1/2-z
1/2-x,1/2+y,z
1/2+x,-y,1/2+z
loop_
_atom_site_type_symbol
_atom_site_label
_atom_site_fract_x
_atom_site_fract_y
_atom_site_fract_z
Si Si1 0.322536 0.522940 0.897135
Si Si2 0.677974 0.401386 0.952195
Si Si3 0.823178 0.349737 0.438312
Si Si4 0.676368 0.441785 0.799455
Si Si5 0.822095 0.302840 0.801350
Si Si6 0.678465 0.227981 0.399347
O O1 0.500000 0.529254 0.907091
O O2 0.261988 0.469951 0.935535
O O3 0.268637 0.595135 0.900891
O O4 0.303703 0.489654 0.844522
O O5 0.500000 0.404741 0.943418
O O6 0.729038 0.340579 0.920568
O O7 0.698260 0.383358 0.008835
O O8 0.731713 0.285227 0.433939
O O9 0.000000 0.335591 0.432300
O O10 0.500000 0.429241 0.793454
O O11 0.750000 0.468562 0.750000
O O12 0.758741 0.374711 0.808502
O O13 0.750000 0.280467 0.750000
O O14 0.759031 0.263125 0.847025
O O15 0.000000 0.303100 0.799336
O O16 0.500000 0.227200 0.394513
#
# Coordination Sequence:
#
# PCOD9482356 Si02
#       6
#    16  16  16  16  16  16
#     4   9  17  32  55  81 108 141 183 231 274 321
#     4   9  17  32  56  81 105 142 190 234 271 320
#     4  10  20  34  55  81 109 145 190 231 274 325
#     4  10  18  32  54  81 110 139 176 221 272 322
#     4  11  21  35  57  84 109 138 179 225 271 322
#     4  11  21  36  55  79 114 148 180 223 277 328
#
# _framework density 9.4062319999999993
#
# number of rings (size 3 to 8) (size 9 to 14) (size 15 to 20)
#    0.000    2.000    1.667    4.500    0.000    2.000 
#    0.000    3.333    0.000    3.000    0.000    0.000 
#    0.000    0.000    0.000    0.000    0.000    0.000 
#
# Total GULP energy -267630.131784 kJ/mol
# GULP energy per Si atom -5575.627745 kJ/mol
# Density = 0.938482 g / cm^3
# Si number density = 9.406232 Si / 1000 Ang^3
#
#
#
# Elastic Constant Matrix: (Units=GPa)
#
#
# Indices 1 2 3 4 5 6 
#
# 1 71.0017 -0.3461 23.6048 0.0000 0.0000 0.0000
# 2 -0.3461 17.9172 17.6685 0.0000 0.0000 0.0000
# 3 23.6048 17.6685 24.3688 0.0000 0.0000 0.0000
# 4 0.0000 0.0000 0.0000 -2.1614 0.0000 0.0000
# 5 0.0000 0.0000 0.0000 0.0000 12.8149 0.0000
# 6 0.0000 0.0000 0.0000 0.0000 0.0000 17.2303
#
#
#
# Elastic Compliance Matrix: (Units=1/GPa)
#
#
# Indices 1 2 3 4 5 6 
#
# 1 -0.086479 -0.295684 0.298152 0.000000 0.000000 0.000000
# 2 -0.295684 -0.815169 0.877449 0.000000 0.000000 0.000000
# 3 0.298152 0.877449 -0.883960 0.000000 0.000000 0.000000
# 4 0.000000 0.000000 0.000000 -0.462673 0.000000 0.000000
# 5 0.000000 0.000000 0.000000 0.000000 0.078034 0.000000
# 6 0.000000 0.000000 0.000000 0.000000 0.000000 0.058037
#
#
# Mechanical properties :
#
#
# Convention : Reuss Voigt Hill
#
# Bulk Modulus (GPa) = -38.80007 21.68246 -8.55881
# Shear Modulus (GPa) = -1.28845 10.40082 4.55618
#
# Velocity S-wave (km/s) = -0.82848 2.35387 1.55793
# Velocity P-wave (km/s) = 4.64592 4.35180 1.15031
#
# Compressibility (1/GPa) = -0.02577315
#
# Stress axis : x y z
#
# Youngs Moduli (GPa) = -11.56353 -1.22674 -1.13127
#
# Poissons Ratio (x) = -0.36273 0.33729
# Poissons Ratio (y) = -3.41915 0.99263
# Poissons Ratio (z) = 3.44769 1.07640
#
# Static dielectric constant tensor:
#      x y z
#    x 1.631590 0.000000 0.000000 
#    y 0.000000 1.660130 0.000000 
#    z 0.000000 0.000000 1.727880 
# 
# From -- ./inp_files/48105.got.cif
#   From: 2010.05.17/outbox.ucp.g08.bks.cvg/sg64_25_cif.got.tgz:48105.got - 2010.06.11 16:36:46.
