data_PCOD9482060
_publ_section_title
;
Structure prediction by ZEFSAII (Michael W. Deem and Ramdas Pophale) SiO2 
 PCOD9482060
Probable space group: C M C A
;
_chemical_formula_sum "Si O2"
_cell_formula_units_Z 72
_cell_length_a 25.196110
_cell_length_b 16.369135
_cell_length_c 7.600677
_cell_angle_alpha 90.000000
_cell_angle_beta 90.000000
_cell_angle_gamma 90.000000
_cell_volume 3134.812019
_symmetry_space_group_name_H-M "C M C A"
_symmetry_group_IT_number 64
_symmetry_cell_setting 'orthorhombic'
loop_
_space_group_symop_operation_xyz
x,y,z
-x,1/2-y,1/2+z
x,-y,-z
-x,1/2+y,1/2-z
-x,-y,-z
x,1/2+y,1/2-z
-x,y,z
x,1/2-y,1/2+z
1/2+x,1/2+y,z
1/2-x,-y,1/2+z
1/2+x,1/2-y,-z
1/2-x,y,1/2-z
1/2-x,1/2-y,-z
1/2+x,y,1/2-z
1/2-x,1/2+y,z
1/2+x,-y,1/2+z
loop_
_atom_site_type_symbol
_atom_site_label
_atom_site_fract_x
_atom_site_fract_y
_atom_site_fract_z
Si Si1 0.356780 0.000000 0.500000
Si Si2 0.060331 0.171588 0.426270
Si Si3 0.285131 0.319020 0.403445
Si Si4 0.656730 0.566661 0.349414
Si Si5 0.395566 0.338897 0.202655
O O1 0.324552 0.966391 0.664311
O O2 0.386404 0.921702 0.409162
O O3 0.101723 0.115349 0.321336
O O4 0.079971 0.265034 0.408625
O O5 0.066793 0.145702 0.629789
O O6 0.000000 0.164140 0.366630
O O7 0.250000 0.357623 0.250000
O O8 0.250000 0.250000 0.500000
O O9 0.301297 0.375007 0.563371
O O10 0.340878 0.305512 0.296804
O O11 0.646198 0.500000 0.500000
#
# Coordination Sequence:
#
# PCOD9482060 Si02
#       5
#     8  16  16  16  16
#     4  12  24  50  77 104 158 198 242 308 381 440
#     4  11  23  45  75 110 148 198 259 312 377 456
#     4  11  24  46  76 111 145 197 253 306 374 454
#     4  11  24  50  76 109 151 196 241 316 372 436
#     4  11  24  45  73 106 153 198 245 321 376 442
#
# _framework density 22.967883
#
# number of rings (size 3 to 8) (size 9 to 14) (size 15 to 20)
#    0.000    0.889    4.444    4.667    0.000    4.000 
#    2.000    7.222    0.000    0.000    0.000    0.000 
#    0.000    0.000    0.000    0.000    0.000    0.000 
#
# Total GULP energy -201097.698369 kJ/mol
# GULP energy per Si atom -5586.047177 kJ/mol
# Density = 2.291561 g / cm^3
# Si number density = 22.967883 Si / 1000 Ang^3
#
#
#
# Elastic Constant Matrix: (Units=GPa)
#
#
# Indices 1 2 3 4 5 6 
#
# 1 122.0900 55.6284 40.3008 0.0000 0.0000 0.0000
# 2 55.6284 130.0312 55.9615 0.0000 0.0000 0.0000
# 3 40.3008 55.9615 171.9852 0.0000 0.0000 0.0000
# 4 0.0000 0.0000 0.0000 45.8539 0.0000 0.0000
# 5 0.0000 0.0000 0.0000 0.0000 9.4106 0.0000
# 6 0.0000 0.0000 0.0000 0.0000 0.0000 6.3034
#
#
#
# Elastic Compliance Matrix: (Units=1/GPa)
#
#
# Indices 1 2 3 4 5 6 
#
# 1 0.010365 -0.003941 -0.001146 0.000000 0.000000 0.000000
# 2 -0.003941 0.010441 -0.002474 0.000000 0.000000 0.000000
# 3 -0.001146 -0.002474 0.006888 0.000000 0.000000 0.000000
# 4 0.000000 0.000000 0.000000 0.021808 0.000000 0.000000
# 5 0.000000 0.000000 0.000000 0.000000 0.106263 0.000000
# 6 0.000000 0.000000 0.000000 0.000000 0.000000 0.158644
#
#
# Mechanical properties :
#
#
# Convention : Reuss Voigt Hill
#
# Bulk Modulus (GPa) = 79.54466 80.87642 80.21054
# Shear Modulus (GPa) = 14.98251 30.46129 22.72190
#
# Velocity S-wave (km/s) = 2.55684 3.64573 3.14871
# Velocity P-wave (km/s) = 6.58974 7.28087 6.94391
#
# Compressibility (1/GPa) = 0.01257155
#
# Stress axis : x y z
#
# Youngs Moduli (GPa) = 96.48212 95.77605 145.17808
#
# Poissons Ratio (x) = 0.37742 0.16644
# Poissons Ratio (y) = 0.38020 0.35916
# Poissons Ratio (z) = 0.11061 0.23695
#
# Static dielectric constant tensor:
#      x y z
#    x 1.902720 0.000000 0.000000 
#    y 0.000000 1.991450 0.000000 
#    z 0.000000 0.000000 1.839360 
# 
# From -- ./inp_files/10042.got.cif
#   From: 2010.05.17/outbox.cif.g08.bks.cpg/sg64_6_cif.got.tgz:10042.got - 2010.06.03 16:29:19.
