data_PCOD9482501
_publ_section_title
;
Structure prediction by ZEFSAII (Michael W. Deem and Ramdas Pophale) SiO2 
 PCOD9482501
Probable space group: C M C A
;
_chemical_formula_sum "Si O2"
_cell_formula_units_Z 58
_cell_length_a 24.000000
_cell_length_b 9.000000
_cell_length_c 27.000000
_cell_angle_alpha 90.000000
_cell_angle_beta 90.000000
_cell_angle_gamma 90.000000
_cell_volume 5832.000000
_symmetry_space_group_name_H-M "C M C A"
_symmetry_group_IT_number 64
_symmetry_cell_setting 'orthorhombic'
loop_
_space_group_symop_operation_xyz
x,y,z
-x,1/2-y,1/2+z
x,-y,-z
-x,1/2+y,1/2-z
-x,-y,-z
x,1/2+y,1/2-z
-x,y,z
x,1/2-y,1/2+z
1/2+x,1/2+y,z
1/2-x,-y,1/2+z
1/2+x,1/2-y,-z
1/2-x,y,1/2-z
1/2-x,1/2-y,-z
1/2+x,y,1/2-z
1/2-x,1/2+y,z
1/2+x,-y,1/2+z
loop_
_atom_site_type_symbol
_atom_site_label
_atom_site_fract_x
_atom_site_fract_y
_atom_site_fract_z
Si Si1 0.213189 0.483322 0.095078
Si Si2 0.807560 0.166208 0.052240
Si Si3 0.869438 0.852029 0.532393
Si Si4 0.370373 0.246068 0.257473
Si Si5 0.908989 0.448561 0.423733
Si Si6 0.065324 0.020817 0.808632
Si Si7 0.000000 0.000000 0.000000
Si Si8 0.295022 0.492564 0.706618
O O1 0.205974 0.307732 0.087070
O O2 0.254735 0.557469 0.055258
O O3 0.157245 0.571016 0.080673
O O4 0.229843 0.515269 0.151561
O O5 0.854444 0.050314 0.069807
O O6 0.827846 0.251915 0.002436
O O7 0.908074 0.719964 0.553809
O O8 0.887535 0.000000 0.500000
O O9 0.412468 0.344270 0.225049
O O10 0.334272 0.362613 0.289265
O O11 0.400997 0.125412 0.291552
O O12 0.330634 0.153040 0.220474
O O13 0.923783 0.444511 0.366133
O O14 0.952662 0.531371 0.457998
O O15 0.000000 0.997665 0.800675
O O16 0.250000 0.507207 0.750000
#
# Coordination Sequence:
#
# PCOD9482501 Si02
#       8
#    16  16  16  16  16  16   4  16
#     4  11  24  37  63  94 130 169 211 252 326 392
#     4  11  23  38  64  93 130 169 214 262 317 387
#     4  10  22  42  63  94 133 167 210 266 319 384
#     4  10  24  42  63  93 131 162 218 271 319 389
#     4  12  23  43  70  94 129 174 221 271 329 390
#     4  11  23  42  70  95 125 169 219 279 339 379
#     4  12  24  44  70  96 124 168 230 272 316 396
#     4  11  24  39  61  90 130 170 209 255 320 397
#
# _framework density 9.9451300000000007
#
# number of rings (size 3 to 8) (size 9 to 14) (size 15 to 20)
#    0.000    1.103    2.069    3.724    7.724    2.207 
#    0.000    0.345    0.000    0.000    0.000    0.000 
#    0.000    0.000    0.000    0.000    0.000    0.000 
#
# Total GULP energy -323066.195004 kJ/mol
# GULP energy per Si atom -5570.106810 kJ/mol
# Density = 0.992249 g / cm^3
# Si number density = 9.945130 Si / 1000 Ang^3
#
#
#
# Elastic Constant Matrix: (Units=GPa)
#
#
# Indices 1 2 3 4 5 6 
#
# 1 45.1354 5.3164 -4.8736 0.0000 0.0000 0.0000
# 2 5.3164 95.9131 -4.3368 0.0000 0.0000 0.0000
# 3 -4.8736 -4.3368 105.8798 0.0000 0.0000 0.0000
# 4 0.0000 0.0000 0.0000 21.9687 0.0000 0.0000
# 5 0.0000 0.0000 0.0000 0.0000 23.5931 0.0000
# 6 0.0000 0.0000 0.0000 0.0000 0.0000 -34.5541
#
#
#
# Elastic Compliance Matrix: (Units=1/GPa)
#
#
# Indices 1 2 3 4 5 6 
#
# 1 0.022403 -0.001197 0.000982 0.000000 0.000000 0.000000
# 2 -0.001197 0.010509 0.000375 0.000000 0.000000 0.000000
# 3 0.000982 0.000375 0.009505 0.000000 0.000000 0.000000
# 4 0.000000 0.000000 0.000000 0.045519 0.000000 0.000000
# 5 0.000000 0.000000 0.000000 0.000000 0.042385 0.000000
# 6 0.000000 0.000000 0.000000 0.000000 0.000000 -0.028940
#
#
# Mechanical properties :
#
#
# Convention : Reuss Voigt Hill
#
# Bulk Modulus (GPa) = 23.39861 26.57117 24.98489
# Shear Modulus (GPa) = 43.36237 18.92302 31.14270
#
# Velocity S-wave (km/s) = 4.67420 3.08778 3.96122
# Velocity P-wave (km/s) = 6.39689 5.10885 5.78881
#
# Compressibility (1/GPa) = 0.04273758
#
# Stress axis : x y z
#
# Youngs Moduli (GPa) = 44.63754 95.15252 105.20495
#
# Poissons Ratio (x) = 0.11393 -0.10333
# Poissons Ratio (y) = 0.05345 -0.03949
# Poissons Ratio (z) = -0.04384 -0.03572
#
# Static dielectric constant tensor:
#      x y z
#    x 1.674230 0.000000 0.000000 
#    y 0.000000 1.721490 0.000000 
#    z 0.000000 0.000000 1.701630 
# 
# From -- ./inp_files/51096.got.cif
#   From: 2010.05.17/outbox.ucp.g08.bks.cvg/sg64_26_cif.got.tgz:51096.got - 2010.06.11 16:36:46.
