data_PCOD9482410
_publ_section_title
;
Structure prediction by ZEFSAII (Michael W. Deem and Ramdas Pophale) SiO2 
 PCOD9482410
Probable space group: C M C A
;
_chemical_formula_sum "Si O2"
_cell_formula_units_Z 48
_cell_length_a 9.000000
_cell_length_b 24.000000
_cell_length_c 24.000000
_cell_angle_alpha 90.000000
_cell_angle_beta 90.000000
_cell_angle_gamma 90.000000
_cell_volume 5184.000000
_symmetry_space_group_name_H-M "C M C A"
_symmetry_group_IT_number 64
_symmetry_cell_setting 'orthorhombic'
loop_
_space_group_symop_operation_xyz
x,y,z
-x,1/2-y,1/2+z
x,-y,-z
-x,1/2+y,1/2-z
-x,-y,-z
x,1/2+y,1/2-z
-x,y,z
x,1/2-y,1/2+z
1/2+x,1/2+y,z
1/2-x,-y,1/2+z
1/2+x,1/2-y,-z
1/2-x,y,1/2-z
1/2-x,1/2-y,-z
1/2+x,y,1/2-z
1/2-x,1/2+y,z
1/2+x,-y,1/2+z
loop_
_atom_site_type_symbol
_atom_site_label
_atom_site_fract_x
_atom_site_fract_y
_atom_site_fract_z
Si Si1 0.678423 0.115115 0.973141
Si Si2 0.673989 0.342825 0.190550
Si Si3 0.174613 0.957163 0.121514
Si Si4 0.678526 0.651267 0.405735
Si Si5 0.179880 0.560973 0.187426
Si Si6 0.177985 0.773318 0.405078
O O1 0.500000 0.108885 0.966872
O O2 0.755826 0.067367 0.935912
O O3 0.717284 0.177402 0.949545
O O4 0.716115 0.115678 0.038613
O O5 0.500000 0.328405 0.194022
O O6 0.750000 0.344512 0.250000
O O7 0.685555 0.403631 0.162368
O O8 0.759266 0.298888 0.152018
O O9 0.000000 0.970611 0.114052
O O10 0.258343 0.008453 0.151429
O O11 0.500000 0.659160 0.406136
O O12 0.716022 0.616111 0.349944
O O13 0.752928 0.711992 0.411891
O O14 0.250000 0.561948 0.250000
O O15 0.000000 0.556948 0.191888
O O16 0.000000 0.768822 0.404700
#
# Coordination Sequence:
#
# PCOD9482410 Si02
#       6
#    16  16  16  16  16  16
#     4   9  19  37  60  86 115 147 185 230 283 338
#     4  10  20  34  54  80 110 144 184 231 282 334
#     4  10  21  37  59  86 114 145 183 232 285 335
#     4  10  22  39  58  81 113 153 191 230 279 335
#     4  11  24  41  60  81 110 150 191 231 277 331
#     4  10  20  34  56  84 113 147 186 231 281 334
#
# _framework density 9.2592590000000001
#
# number of rings (size 3 to 8) (size 9 to 14) (size 15 to 20)
#    0.000    2.000    0.000    3.000    0.000    7.333 
#    0.000    5.000    0.000    0.000    0.000    0.000 
#    0.000    0.000    0.000    0.000    0.000    0.000 
#
# Total GULP energy -267968.827265 kJ/mol
# GULP energy per Si atom -5582.683901 kJ/mol
# Density = 0.923818 g / cm^3
# Si number density = 9.259259 Si / 1000 Ang^3
#
#
#
# Elastic Constant Matrix: (Units=GPa)
#
#
# Indices 1 2 3 4 5 6 
#
# 1 68.0465 35.3114 40.3310 0.0000 0.0000 0.0000
# 2 35.3114 70.8096 29.3569 0.0000 0.0000 0.0000
# 3 40.3310 29.3569 105.4274 0.0000 0.0000 0.0000
# 4 0.0000 0.0000 0.0000 5.8420 0.0000 0.0000
# 5 0.0000 0.0000 0.0000 0.0000 31.9117 0.0000
# 6 0.0000 0.0000 0.0000 0.0000 0.0000 34.2445
#
#
#
# Elastic Compliance Matrix: (Units=1/GPa)
#
#
# Indices 1 2 3 4 5 6 
#
# 1 0.023063 -0.008867 -0.006354 0.000000 0.000000 0.000000
# 2 -0.008867 0.019375 -0.002003 0.000000 0.000000 0.000000
# 3 -0.006354 -0.002003 0.012474 0.000000 0.000000 0.000000
# 4 0.000000 0.000000 0.000000 0.171176 0.000000 0.000000
# 5 0.000000 0.000000 0.000000 0.000000 0.031336 0.000000
# 6 0.000000 0.000000 0.000000 0.000000 0.000000 0.029202
#
#
# Mechanical properties :
#
#
# Convention : Reuss Voigt Hill
#
# Bulk Modulus (GPa) = 48.86626 50.47578 49.67102
# Shear Modulus (GPa) = 15.24886 23.68523 19.46705
#
# Velocity S-wave (km/s) = 2.87268 3.58019 3.24577
# Velocity P-wave (km/s) = 6.11948 6.66382 6.39744
#
# Compressibility (1/GPa) = 0.02046402
#
# Stress axis : x y z
#
# Youngs Moduli (GPa) = 43.35960 51.61410 80.16992
#
# Poissons Ratio (x) = 0.45766 0.50937
# Poissons Ratio (y) = 0.38447 0.16058
# Poissons Ratio (z) = 0.27549 0.10338
#
# Static dielectric constant tensor:
#      x y z
#    x 1.625530 0.000000 0.000000 
#    y 0.000000 1.620790 0.000000 
#    z 0.000000 0.000000 1.894620 
# 
# From -- ./inp_files/43060.got.cif
#   From: 2010.05.17/outbox.ucp.g08.bks.cvg/sg64_22_cif.got.tgz:43060.got - 2010.06.11 16:36:46.
