data_PCOD9482863
_publ_section_title
;
Structure prediction by ZEFSAII (Michael W. Deem and Ramdas Pophale) SiO2 
 PCOD9482863
Probable space group: C M M M
;
_chemical_formula_sum "Si O2"
_cell_formula_units_Z 96
_cell_length_a 21.470149
_cell_length_b 27.583650
_cell_length_c 7.296065
_cell_angle_alpha 90.000000
_cell_angle_beta 90.000000
_cell_angle_gamma 90.000000
_cell_volume 4320.912645
_symmetry_space_group_name_H-M "C M M M"
_symmetry_group_IT_number 65
_symmetry_cell_setting 'orthorhombic'
loop_
_space_group_symop_operation_xyz
x,y,z
-x,-y,z
x,-y,-z
-x,y,-z
-x,-y,-z
x,y,-z
-x,y,z
x,-y,z
1/2+x,1/2+y,z
1/2-x,1/2-y,z
1/2+x,1/2-y,-z
1/2-x,1/2+y,-z
1/2-x,1/2-y,-z
1/2+x,1/2+y,-z
1/2-x,1/2+y,z
1/2+x,1/2-y,z
loop_
_atom_site_type_symbol
_atom_site_label
_atom_site_fract_x
_atom_site_fract_y
_atom_site_fract_z
Si Si1 0.071630 0.674065 0.223315
Si Si2 0.694210 0.556203 0.222849
Si Si3 0.683678 0.891438 0.202608
Si Si4 0.599930 0.285342 0.779082
Si Si5 0.739715 0.698307 0.709786
Si Si6 0.566757 0.609807 0.223002
O O1 0.120319 0.632186 0.284551
O O2 0.086599 0.729950 0.282944
O O3 0.000000 0.663893 0.272443
O O4 0.076050 0.674380 0.000000
O O5 0.685664 0.500000 0.267123
O O6 0.763117 0.573783 0.288526
O O7 0.632305 0.585635 0.283792
O O8 0.696917 0.561257 0.000000
O O9 0.725465 0.843295 0.188053
O O10 0.667603 0.910992 0.000000
O O11 0.666622 0.303599 0.713844
O O12 0.562567 0.333341 0.726241
O O13 0.597447 0.282525 0.000000
O O14 0.762905 0.697937 0.500000
O O15 0.750000 0.750000 0.796642
O O16 0.500000 0.586794 0.277605
O O17 0.569292 0.607758 0.000000
#
# Coordination Sequence:
#
# PCOD9482863 Si02
#       6
#    16  16  16  16  16  16
#     4   9  17  27  44  71  96 119 153 196 232 271
#     4   9  17  28  44  69  95 118 153 201 244 275
#     4  10  18  31  51  69  90 124 161 195 233 281
#     4  10  17  28  47  68  93 123 160 191 222 272
#     4  11  21  30  44  69  99 126 156 193 231 271
#     4   9  16  25  41  67  97 125 154 191 231 271
#
# _framework density 22.217528000000001
#
# number of rings (size 3 to 8) (size 9 to 14) (size 15 to 20)
#    0.000    2.333    3.333    1.000    0.000    3.000 
#    0.000    1.667    0.000    4.500    0.000    3.500 
#    0.000    1.333    0.000    1.500    0.000    1.667 
#
# Total GULP energy -267206.729491 kJ/mol
# GULP energy per Si atom -5566.806864 kJ/mol
# Density = 2.216696 g / cm^3
# Si number density = 22.217528 Si / 1000 Ang^3
#
#
#
# Elastic Constant Matrix: (Units=GPa)
#
#
# Indices 1 2 3 4 5 6 
#
# 1 182.5388 51.4111 9.5732 0.0000 0.0000 0.0000
# 2 51.4111 90.0398 11.1533 0.0000 0.0000 0.0000
# 3 9.5732 11.1533 84.2815 0.0000 0.0000 0.0000
# 4 0.0000 0.0000 0.0000 -141.5842 0.0000 0.0000
# 5 0.0000 0.0000 0.0000 0.0000 -8.9447 0.0000
# 6 0.0000 0.0000 0.0000 0.0000 0.0000 16.2625
#
#
#
# Elastic Compliance Matrix: (Units=1/GPa)
#
#
# Indices 1 2 3 4 5 6 
#
# 1 0.006533 -0.003699 -0.000253 0.000000 0.000000 0.000000
# 2 -0.003699 0.013386 -0.001351 0.000000 0.000000 0.000000
# 3 -0.000253 -0.001351 0.012072 0.000000 0.000000 0.000000
# 4 0.000000 0.000000 0.000000 -0.007063 0.000000 0.000000
# 5 0.000000 0.000000 0.000000 0.000000 -0.111798 0.000000
# 6 0.000000 0.000000 0.000000 0.000000 0.000000 0.061491
#
#
# Mechanical properties :
#
#
# Convention : Reuss Voigt Hill
#
# Bulk Modulus (GPa) = 46.76020 55.68171 51.22095
# Shear Modulus (GPa) = -654.13766 -7.87178 -331.00472
#
# Velocity S-wave (km/s) = -17.17741 -1.88434 -12.21913
# Velocity P-wave (km/s) = 19.29574 4.51466 13.26543
#
# Compressibility (1/GPa) = 0.02138571
#
# Stress axis : x y z
#
# Youngs Moduli (GPa) = 153.06006 74.70640 82.83292
#
# Poissons Ratio (x) = 0.27635 0.02092
# Poissons Ratio (y) = 0.56619 0.11193
# Poissons Ratio (z) = 0.03866 0.10094
#
# Static dielectric constant tensor:
#      x y z
#    x 1.884170 0.000000 0.000000 
#    y 0.000000 1.765570 0.000000 
#    z 0.000000 0.000000 1.764180 
# 
# From -- ./inp_files/12205.got.cif
#   From: 2010.05.17/outbox.cif.g08.bks.cpg/sg65_7_cif.got.tgz:12205.got - 2010.06.03 17:01:31.
