data_PCOD9482419
_publ_section_title
;
Structure prediction by ZEFSAII (Michael W. Deem and Ramdas Pophale) SiO2 
 PCOD9482419
Probable space group: C M C A
;
_chemical_formula_sum "Si O2"
_cell_formula_units_Z 40
_cell_length_a 9.000000
_cell_length_b 18.000000
_cell_length_c 27.000000
_cell_angle_alpha 90.000000
_cell_angle_beta 90.000000
_cell_angle_gamma 90.000000
_cell_volume 4374.000000
_symmetry_space_group_name_H-M "C M C A"
_symmetry_group_IT_number 64
_symmetry_cell_setting 'orthorhombic'
loop_
_space_group_symop_operation_xyz
x,y,z
-x,1/2-y,1/2+z
x,-y,-z
-x,1/2+y,1/2-z
-x,-y,-z
x,1/2+y,1/2-z
-x,y,z
x,1/2-y,1/2+z
1/2+x,1/2+y,z
1/2-x,-y,1/2+z
1/2+x,1/2-y,-z
1/2-x,y,1/2-z
1/2-x,1/2-y,-z
1/2+x,y,1/2-z
1/2-x,1/2+y,z
1/2+x,-y,1/2+z
loop_
_atom_site_type_symbol
_atom_site_label
_atom_site_fract_x
_atom_site_fract_y
_atom_site_fract_z
Si Si1 0.819220 0.669140 0.590907
Si Si2 0.326958 0.162050 0.199060
Si Si3 0.325966 0.911213 0.997455
Si Si4 0.821163 0.666658 0.404007
Si Si5 0.670535 0.843209 0.299946
O O1 0.755727 0.622828 0.545286
O O2 0.748201 0.751195 0.588164
O O3 0.774682 0.636137 0.644979
O O4 0.000000 0.674210 0.589623
O O5 0.500000 0.140192 0.196502
O O6 0.250000 0.136670 0.250000
O O7 0.238503 0.139966 0.149619
O O8 0.323835 0.252705 0.200074
O O9 0.500000 0.887898 0.996508
O O10 0.243028 0.882816 0.948351
O O11 0.320766 0.000000 0.000000
O O12 0.000000 0.669451 0.404537
O O13 0.500000 0.865988 0.296537
O O14 0.750000 0.869140 0.250000
#
# Coordination Sequence:
#
# PCOD9482419 Si02
#       5
#    16  16  16  16  16
#     4  10  20  35  55  80 109 139 175 218 262 313
#     4   9  16  28  47  75 109 140 173 213 260 310
#     4  11  24  40  56  75 102 137 177 223 273 322
#     4  11  21  34  55  81 109 141 177 218 264 313
#     4   8  15  26  44  72 104 135 165 203 249 299
#
# _framework density 9.1449470000000002
#
# number of rings (size 3 to 8) (size 9 to 14) (size 15 to 20)
#    0.000    2.200    0.000    5.400    0.000    7.200 
#    0.000    0.000    0.000    1.200    0.000    2.800 
#    0.000    0.000    0.000    0.000    0.000    0.000 
#
# Total GULP energy -223157.074273 kJ/mol
# GULP energy per Si atom -5578.926857 kJ/mol
# Density = 0.912413 g / cm^3
# Si number density = 9.144947 Si / 1000 Ang^3
#
#
#
# Elastic Constant Matrix: (Units=GPa)
#
#
# Indices 1 2 3 4 5 6 
#
# 1 153.9612 30.7080 96.0083 0.0000 0.0000 0.0000
# 2 30.7080 27.1259 43.5033 0.0000 0.0000 0.0000
# 3 96.0083 43.5033 213.3104 0.0000 0.0000 0.0000
# 4 0.0000 0.0000 0.0000 -4.6905 0.0000 0.0000
# 5 0.0000 0.0000 0.0000 0.0000 41.1410 0.0000
# 6 0.0000 0.0000 0.0000 0.0000 0.0000 17.1431
#
#
#
# Elastic Compliance Matrix: (Units=1/GPa)
#
#
# Indices 1 2 3 4 5 6 
#
# 1 0.009619 -0.005864 -0.003133 0.000000 0.000000 0.000000
# 2 -0.005864 0.058358 -0.009263 0.000000 0.000000 0.000000
# 3 -0.003133 -0.009263 0.007987 0.000000 0.000000 0.000000
# 4 0.000000 0.000000 0.000000 -0.213195 0.000000 0.000000
# 5 0.000000 0.000000 0.000000 0.000000 0.024307 0.000000
# 6 0.000000 0.000000 0.000000 0.000000 0.000000 0.058332
#
#
# Mechanical properties :
#
#
# Convention : Reuss Voigt Hill
#
# Bulk Modulus (GPa) = 25.35186 81.64851 53.50019
# Shear Modulus (GPa) = -1015.38066 25.66392 -494.85837
#
# Velocity S-wave (km/s) = -23.58738 3.74996 -16.46667
# Velocity P-wave (km/s) = 26.98014 7.96793 18.22691
#
# Compressibility (1/GPa) = 0.03944483
#
# Stress axis : x y z
#
# Youngs Moduli (GPa) = 103.96550 17.13559 125.19818
#
# Poissons Ratio (x) = 0.10048 0.39229
# Poissons Ratio (y) = 0.60961 1.15966
# Poissons Ratio (z) = 0.32576 0.15872
#
# Static dielectric constant tensor:
#      x y z
#    x 1.618320 0.000000 0.000000 
#    y 0.000000 1.602850 0.000000 
#    z 0.000000 0.000000 1.645650 
# 
# From -- ./inp_files/47829.got.cif
#   From: 2010.05.17/outbox.ucp.g08.bks.cvg/sg64_24_cif.got.tgz:47829.got - 2010.06.11 16:36:46.
