data_PCOD9482405
_publ_section_title
;
Structure prediction by ZEFSAII (Michael W. Deem and Ramdas Pophale) SiO2 
 PCOD9482405
Probable space group: C M C A
;
_chemical_formula_sum "Si O2"
_cell_formula_units_Z 56
_cell_length_a 24.000000
_cell_length_b 15.000000
_cell_length_c 15.000000
_cell_angle_alpha 90.000000
_cell_angle_beta 90.000000
_cell_angle_gamma 90.000000
_cell_volume 5400.000000
_symmetry_space_group_name_H-M "C M C A"
_symmetry_group_IT_number 64
_symmetry_cell_setting 'orthorhombic'
loop_
_space_group_symop_operation_xyz
x,y,z
-x,1/2-y,1/2+z
x,-y,-z
-x,1/2+y,1/2-z
-x,-y,-z
x,1/2+y,1/2-z
-x,y,z
x,1/2-y,1/2+z
1/2+x,1/2+y,z
1/2-x,-y,1/2+z
1/2+x,1/2-y,-z
1/2-x,y,1/2-z
1/2-x,1/2-y,-z
1/2+x,y,1/2-z
1/2-x,1/2+y,z
1/2+x,-y,1/2+z
loop_
_atom_site_type_symbol
_atom_site_label
_atom_site_fract_x
_atom_site_fract_y
_atom_site_fract_z
Si Si1 0.749367 0.691419 0.909632
Si Si2 0.749530 0.004884 0.353630
Si Si3 0.630682 0.227137 0.827793
Si Si4 0.127689 0.460061 0.597691
Si Si5 0.433140 0.126667 0.674590
Si Si6 0.691580 0.832419 0.802780
Si Si7 0.565415 0.205404 0.480325
O O1 0.745796 0.584139 0.914486
O O2 0.806053 0.703617 0.853417
O O3 0.698963 0.740232 0.857540
O O4 0.750000 0.750000 0.000000
O O5 0.750000 0.972197 0.250000
O O6 0.690866 0.054869 0.370273
O O7 0.800927 0.075928 0.360187
O O8 0.595051 0.166682 0.761925
O O9 0.640560 0.315932 0.764725
O O10 0.600961 0.224217 0.924472
O O11 0.135620 0.500000 0.500000
O O12 0.096698 0.532824 0.656895
O O13 0.085835 0.380026 0.576366
O O14 0.500000 0.118068 0.683017
O O15 0.423391 0.185768 0.584305
O O16 0.750000 0.838448 0.750000
O O17 0.500000 0.220381 0.470614
#
# Coordination Sequence:
#
# PCOD9482405 Si02
#       7
#    16  16  16  16  16  16  16
#     4  11  24  35  57  84 122 159 203 242 290 355
#     4  11  21  36  57  83 119 161 192 234 296 360
#     4  11  22  38  58  83 120 162 196 242 293 355
#     4  10  20  33  59  84 114 146 189 247 307 351
#     4  10  21  37  59  86 117 151 197 249 302 355
#     4   9  20  36  53  81 118 155 195 236 283 354
#     4  10  21  37  59  88 115 149 197 249 302 350
#
# _framework density 10.370369999999999
#
# number of rings (size 3 to 8) (size 9 to 14) (size 15 to 20)
#    0.000    1.714    0.000    6.429    8.000    1.714 
#    0.000    0.000    0.000    0.000    0.000    0.000 
#    0.000    6.857    0.000    0.000    0.000    0.000 
#
# Total GULP energy -311839.498543 kJ/mol
# GULP energy per Si atom -5568.562474 kJ/mol
# Density = 1.034677 g / cm^3
# Si number density = 10.370370 Si / 1000 Ang^3
#
#
#
# Elastic Constant Matrix: (Units=GPa)
#
#
# Indices 1 2 3 4 5 6 
#
# 1 85.1827 6.9228 8.6057 0.0000 0.0000 0.0000
# 2 6.9228 58.8430 -10.4883 0.0000 0.0000 0.0000
# 3 8.6057 -10.4883 11.5039 0.0000 0.0000 0.0000
# 4 0.0000 0.0000 0.0000 24.2426 0.0000 0.0000
# 5 0.0000 0.0000 0.0000 0.0000 25.7943 0.0000
# 6 0.0000 0.0000 0.0000 0.0000 0.0000 23.7737
#
#
#
# Elastic Compliance Matrix: (Units=1/GPa)
#
#
# Indices 1 2 3 4 5 6 
#
# 1 0.013456 -0.004032 -0.013742 0.000000 0.000000 0.000000
# 2 -0.004032 0.021500 0.022619 0.000000 0.000000 0.000000
# 3 -0.013742 0.022619 0.117829 0.000000 0.000000 0.000000
# 4 0.000000 0.000000 0.000000 0.041250 0.000000 0.000000
# 5 0.000000 0.000000 0.000000 0.000000 0.038768 0.000000
# 6 0.000000 0.000000 0.000000 0.000000 0.000000 0.042063
#
#
# Mechanical properties :
#
#
# Convention : Reuss Voigt Hill
#
# Bulk Modulus (GPa) = 6.15485 18.40112 12.27798
# Shear Modulus (GPa) = 15.65752 24.79475 20.22614
#
# Velocity S-wave (km/s) = 2.75055 3.46129 3.12619
# Velocity P-wave (km/s) = 3.61405 4.98651 4.35469
#
# Compressibility (1/GPa) = 0.16247345
#
# Stress axis : x y z
#
# Youngs Moduli (GPa) = 74.31897 46.51070 8.48688
#
# Poissons Ratio (x) = 0.18755 0.11663
# Poissons Ratio (y) = 0.29969 -0.19196
# Poissons Ratio (z) = 1.02130 -1.05202
#
# Static dielectric constant tensor:
#      x y z
#    x 1.697380 0.000000 0.000000 
#    y 0.000000 1.946630 0.000000 
#    z 0.000000 0.000000 1.799020 
# 
# From -- ./inp_files/27394.got.cif
#   From: 2010.05.17/outbox.ucp.g08.bks.cvg/sg64_14_cif.got.tgz:27394.got - 2010.06.11 16:36:46.
