data_PCOD9482466
_publ_section_title
;
Structure prediction by ZEFSAII (Michael W. Deem and Ramdas Pophale) SiO2 
 PCOD9482466
Probable space group: C M C A
;
_chemical_formula_sum "Si O2"
_cell_formula_units_Z 48
_cell_length_a 9.000000
_cell_length_b 27.000000
_cell_length_c 21.000000
_cell_angle_alpha 90.000000
_cell_angle_beta 90.000000
_cell_angle_gamma 90.000000
_cell_volume 5103.000000
_symmetry_space_group_name_H-M "C M C A"
_symmetry_group_IT_number 64
_symmetry_cell_setting 'orthorhombic'
loop_
_space_group_symop_operation_xyz
x,y,z
-x,1/2-y,1/2+z
x,-y,-z
-x,1/2+y,1/2-z
-x,-y,-z
x,1/2+y,1/2-z
-x,y,z
x,1/2-y,1/2+z
1/2+x,1/2+y,z
1/2-x,-y,1/2+z
1/2+x,1/2-y,-z
1/2-x,y,1/2-z
1/2-x,1/2-y,-z
1/2+x,y,1/2-z
1/2-x,1/2+y,z
1/2+x,-y,1/2+z
loop_
_atom_site_type_symbol
_atom_site_label
_atom_site_fract_x
_atom_site_fract_y
_atom_site_fract_z
Si Si1 0.177699 0.538557 0.319907
Si Si2 0.178136 0.361776 0.868069
Si Si3 0.332171 0.167247 0.876727
Si Si4 0.824750 0.243669 0.314110
Si Si5 0.667989 0.199209 0.014683
Si Si6 0.322343 0.571358 0.819650
O O1 0.250000 0.539421 0.250000
O O2 0.242330 0.586883 0.354050
O O3 0.210964 0.483625 0.347987
O O4 0.000000 0.542830 0.314706
O O5 0.202407 0.315144 0.820937
O O6 0.000000 0.370692 0.871041
O O7 0.235767 0.335842 0.932104
O O8 0.500000 0.167983 0.849638
O O9 0.251419 0.219523 0.863708
O O10 0.342159 0.166436 0.952216
O O11 0.244330 0.119422 0.853365
O O12 0.750000 0.261388 0.250000
O O13 0.000000 0.251247 0.314505
O O14 0.500000 0.212134 0.036497
O O15 0.750000 0.250000 0.000000
O O16 0.500000 0.575873 0.815336
O O17 0.250000 0.571095 0.750000
#
# Coordination Sequence:
#
# PCOD9482466 Si02
#       6
#    16  16  16  16  16  16
#     4  10  21  37  59  85 112 147 186 229 281 333
#     4  10  21  37  57  82 112 146 186 229 276 330
#     4  11  22  36  57  83 111 145 187 229 276 331
#     4  11  22  35  53  79 113 146 180 226 279 332
#     4  10  21  38  58  82 111 148 189 229 276 328
#     4  10  21  38  59  83 113 147 186 230 280 334
#
# _framework density 9.4062319999999993
#
# number of rings (size 3 to 8) (size 9 to 14) (size 15 to 20)
#    0.000    1.667    1.667    3.000    0.000    6.000 
#    0.000    0.833    0.000    5.000    0.000    0.000 
#    0.000    0.000    0.000    0.000    0.000    0.000 
#
# Total GULP energy -267347.444367 kJ/mol
# GULP energy per Si atom -5569.738424 kJ/mol
# Density = 0.938482 g / cm^3
# Si number density = 9.406232 Si / 1000 Ang^3
#
#
#
# Elastic Constant Matrix: (Units=GPa)
#
#
# Indices 1 2 3 4 5 6 
#
# 1 89.6923 70.9543 25.6271 0.0000 0.0000 0.0000
# 2 70.9543 144.3298 25.5584 0.0000 0.0000 0.0000
# 3 25.6271 25.5584 66.2728 0.0000 0.0000 0.0000
# 4 0.0000 0.0000 0.0000 -57.3808 0.0000 0.0000
# 5 0.0000 0.0000 0.0000 0.0000 11.3399 0.0000
# 6 0.0000 0.0000 0.0000 0.0000 0.0000 31.8107
#
#
#
# Elastic Compliance Matrix: (Units=1/GPa)
#
#
# Indices 1 2 3 4 5 6 
#
# 1 0.019213 -0.008726 -0.004065 0.000000 0.000000 0.000000
# 2 -0.008726 0.011399 -0.001022 0.000000 0.000000 0.000000
# 3 -0.004065 -0.001022 0.017055 0.000000 0.000000 0.000000
# 4 0.000000 0.000000 0.000000 -0.017427 0.000000 0.000000
# 5 0.000000 0.000000 0.000000 0.000000 0.088184 0.000000
# 6 0.000000 0.000000 0.000000 0.000000 0.000000 0.031436
#
#
# Mechanical properties :
#
#
# Convention : Reuss Voigt Hill
#
# Bulk Modulus (GPa) = 49.89258 60.50828 55.20043
# Shear Modulus (GPa) = 27.14939 9.03097 18.09018
#
# Velocity S-wave (km/s) = 3.80302 2.19339 3.10434
# Velocity P-wave (km/s) = 6.77219 6.21678 6.50042
#
# Compressibility (1/GPa) = 0.02004306
#
# Stress axis : x y z
#
# Youngs Moduli (GPa) = 52.04703 87.72507 58.63388
#
# Poissons Ratio (x) = 0.76547 0.23832
# Poissons Ratio (y) = 0.45415 0.05992
# Poissons Ratio (z) = 0.21155 0.08965
#
# Static dielectric constant tensor:
#      x y z
#    x 1.645010 0.000000 0.000000 
#    y 0.000000 1.649200 0.000000 
#    z 0.000000 0.000000 1.680280 
# 
# From -- ./inp_files/36989.got.cif
#   From: 2010.05.17/outbox.ucp.g08.bks.cvg/sg64_19_cif.got.tgz:36989.got - 2010.06.11 16:36:46.
