data_PCOD9482957
_publ_section_title
;
Structure prediction by ZEFSAII (Michael W. Deem and Ramdas Pophale) SiO2 
 PCOD9482957
Probable space group: C M M M
;
_chemical_formula_sum "Si O2"
_cell_formula_units_Z 80
_cell_length_a 7.622196
_cell_length_b 24.422927
_cell_length_c 21.411158
_cell_angle_alpha 90.000000
_cell_angle_beta 90.000000
_cell_angle_gamma 90.000000
_cell_volume 3985.822733
_symmetry_space_group_name_H-M "C M M M"
_symmetry_group_IT_number 65
_symmetry_cell_setting 'orthorhombic'
loop_
_space_group_symop_operation_xyz
x,y,z
-x,-y,z
x,-y,-z
-x,y,-z
-x,-y,-z
x,y,-z
-x,y,z
x,-y,z
1/2+x,1/2+y,z
1/2-x,1/2-y,z
1/2+x,1/2-y,-z
1/2-x,1/2+y,-z
1/2-x,1/2-y,-z
1/2+x,1/2+y,-z
1/2-x,1/2+y,z
1/2+x,1/2-y,z
loop_
_atom_site_type_symbol
_atom_site_label
_atom_site_fract_x
_atom_site_fract_y
_atom_site_fract_z
Si Si1 0.786309 0.500000 0.233277
Si Si2 0.290294 0.890471 0.696957
Si Si3 0.715082 0.621705 0.068103
Si Si4 0.785975 0.563667 0.570255
Si Si5 0.293225 0.313774 0.190205
Si Si6 0.797328 0.000000 0.910091
O O1 0.728406 0.554669 0.268173
O O2 0.712895 0.500000 0.164319
O O3 0.000000 0.500000 0.230527
O O4 0.500000 0.894037 0.692932
O O5 0.225562 0.896285 0.625675
O O6 0.254429 0.840390 0.743185
O O7 0.500000 0.620727 0.070603
O O8 0.779893 0.653554 0.129701
O O9 0.777141 0.558562 0.070005
O O10 0.762925 0.645442 0.000000
O O11 0.726274 0.576921 0.500000
O O12 0.738684 0.500000 0.583915
O O13 0.000000 0.564577 0.569079
O O14 0.500000 0.319502 0.185365
O O15 0.250000 0.250000 0.187360
O O16 0.000000 0.000000 0.930244
#
# Coordination Sequence:
#
# PCOD9482957 Si02
#       6
#     8  16  16  16  16   8
#     4  10  18  27  46  77 110 137 162 200 252 300
#     4  10  18  31  52  78 108 139 169 206 250 297
#     4   9  18  32  52  77 102 129 163 205 254 306
#     4   8  13  23  44  77 112 141 168 198 238 294
#     4  11  23  38  55  74  97 130 175 221 261 302
#     4  10  17  30  52  77 103 132 166 202 243 304
#
# _framework density 20.07114
#
# number of rings (size 3 to 8) (size 9 to 14) (size 15 to 20)
#    0.000    2.400    3.000    1.500    0.000    1.600 
#    0.000    0.000    0.000    6.600    0.000    1.400 
#    0.000    0.000    0.000    0.000    0.000    0.000 
#
# Total GULP energy -223042.429508 kJ/mol
# GULP energy per Si atom -5576.060738 kJ/mol
# Density = 2.002546 g / cm^3
# Si number density = 20.071140 Si / 1000 Ang^3
#
#
#
# Elastic Constant Matrix: (Units=GPa)
#
#
# Indices 1 2 3 4 5 6 
#
# 1 36.8000 -2.0007 10.7480 0.0000 0.0000 0.0000
# 2 -2.0007 112.7143 83.9950 0.0000 0.0000 0.0000
# 3 10.7480 83.9950 211.6713 0.0000 0.0000 0.0000
# 4 0.0000 0.0000 0.0000 31.6533 0.0000 0.0000
# 5 0.0000 0.0000 0.0000 0.0000 12.1206 0.0000
# 6 0.0000 0.0000 0.0000 0.0000 0.0000 -18.4815
#
#
#
# Elastic Compliance Matrix: (Units=1/GPa)
#
#
# Indices 1 2 3 4 5 6 
#
# 1 0.027964 0.002207 -0.002296 0.000000 0.000000 0.000000
# 2 0.002207 0.012771 -0.005180 0.000000 0.000000 0.000000
# 3 -0.002296 -0.005180 0.006896 0.000000 0.000000 0.000000
# 4 0.000000 0.000000 0.000000 0.031592 0.000000 0.000000
# 5 0.000000 0.000000 0.000000 0.000000 0.082504 0.000000
# 6 0.000000 0.000000 0.000000 0.000000 0.000000 -0.054108
#
#
# Mechanical properties :
#
#
# Convention : Reuss Voigt Hill
#
# Bulk Modulus (GPa) = 26.95779 60.74113 43.84946
# Shear Modulus (GPa) = 38.30755 22.95469 30.63112
#
# Velocity S-wave (km/s) = 4.37348 3.38548 3.91081
# Velocity P-wave (km/s) = 6.24206 6.75356 6.50284
#
# Compressibility (1/GPa) = 0.03709504
#
# Stress axis : x y z
#
# Youngs Moduli (GPa) = 35.75967 78.30074 145.00364
#
# Poissons Ratio (x) = -0.17283 0.33290
# Poissons Ratio (y) = -0.07893 0.75111
# Poissons Ratio (z) = 0.08210 0.40559
#
# Static dielectric constant tensor:
#      x y z
#    x 1.755020 0.000000 0.000000 
#    y 0.000000 1.650560 0.000000 
#    z 0.000000 0.000000 1.760430 
# 
# From -- ./inp_files/51589.got.cif
#   From: 2010.05.17/outbox.cif.g08.bks.cpg/sg65_26_cif.got.tgz:51589.got - 2010.06.03 17:01:31.
