data_PCOD9482789
_publ_section_title
;
Structure prediction by ZEFSAII (Michael W. Deem and Ramdas Pophale) SiO2 
 PCOD9482789
Probable space group: C M M M
;
_chemical_formula_sum "Si O2"
_cell_formula_units_Z 80
_cell_length_a 24.513590
_cell_length_b 27.041836
_cell_length_c 8.786547
_cell_angle_alpha 90.000000
_cell_angle_beta 90.000000
_cell_angle_gamma 90.000000
_cell_volume 5824.535936
_symmetry_space_group_name_H-M "C M M M"
_symmetry_group_IT_number 65
_symmetry_cell_setting 'orthorhombic'
loop_
_space_group_symop_operation_xyz
x,y,z
-x,-y,z
x,-y,-z
-x,y,-z
-x,-y,-z
x,y,-z
-x,y,z
x,-y,z
1/2+x,1/2+y,z
1/2-x,1/2-y,z
1/2+x,1/2-y,-z
1/2-x,1/2+y,-z
1/2-x,1/2-y,-z
1/2+x,1/2+y,-z
1/2-x,1/2+y,z
1/2+x,1/2-y,z
loop_
_atom_site_type_symbol
_atom_site_label
_atom_site_fract_x
_atom_site_fract_y
_atom_site_fract_z
Si Si1 0.816092 0.647252 0.184264
Si Si2 0.880485 0.740765 0.682007
Si Si3 0.110181 0.443367 0.816285
Si Si4 0.500000 0.102516 0.682805
Si Si5 0.500000 0.218094 0.684828
Si Si6 0.212311 0.200482 0.176382
O O1 0.854075 0.690589 0.251016
O O2 0.841903 0.594785 0.226590
O O3 0.753759 0.658187 0.232852
O O4 0.816770 0.651962 0.000000
O O5 0.879185 0.737297 0.500000
O O6 0.943314 0.742744 0.734279
O O7 0.842134 0.785760 0.734320
O O8 0.120355 0.500000 0.771079
O O9 0.053905 0.423800 0.745830
O O10 0.105107 0.441839 0.000000
O O11 0.500000 0.100645 0.500000
O O12 0.500000 0.160269 0.730101
O O13 0.500000 0.218748 0.500000
O O14 0.250000 0.250000 0.182072
O O15 0.198583 0.191608 0.000000
#
# Coordination Sequence:
#
# PCOD9482789 Si02
#       6
#    16  16  16   8   8  16
#     4   9  17  29  42  55  75 100 124 159 200 232
#     4  10  17  27  41  57  76  99 128 158 189 227
#     4  10  20  32  44  58  75 100 137 173 201 233
#     4  11  20  32  43  54  76 106 136 169 209 237
#     4   9  18  28  38  55  80 104 127 161 194 226
#     4   8  15  27  40  56  76  96 121 153 193 235
#
# _framework density 13.734999999999999
#
# number of rings (size 3 to 8) (size 9 to 14) (size 15 to 20)
#    0.000    2.600    2.000    2.400    0.000    5.200 
#    0.000    2.000    0.000    0.000    0.000    0.000 
#    0.000    0.000    0.000    0.900    0.000   20.800 
#
# Total GULP energy -222766.565438 kJ/mol
# GULP energy per Si atom -5569.164136 kJ/mol
# Density = 1.370374 g / cm^3
# Si number density = 13.735000 Si / 1000 Ang^3
#
#
#
# Elastic Constant Matrix: (Units=GPa)
#
#
# Indices 1 2 3 4 5 6 
#
# 1 130.0610 68.5327 27.9744 0.0000 0.0000 0.0000
# 2 68.5327 71.4126 17.5360 0.0000 0.0000 0.0000
# 3 27.9744 17.5360 13.8928 0.0000 0.0000 0.0000
# 4 0.0000 0.0000 0.0000 11.4479 0.0000 0.0000
# 5 0.0000 0.0000 0.0000 0.0000 19.5841 0.0000
# 6 0.0000 0.0000 0.0000 0.0000 0.0000 14.4946
#
#
#
# Elastic Compliance Matrix: (Units=1/GPa)
#
#
# Indices 1 2 3 4 5 6 
#
# 1 0.019480 -0.013133 -0.022648 0.000000 0.000000 0.000000
# 2 -0.013133 0.029147 -0.010346 0.000000 0.000000 0.000000
# 3 -0.022648 -0.010346 0.130643 0.000000 0.000000 0.000000
# 4 0.000000 0.000000 0.000000 0.087352 0.000000 0.000000
# 5 0.000000 0.000000 0.000000 0.000000 0.051062 0.000000
# 6 0.000000 0.000000 0.000000 0.000000 0.000000 0.068991
#
#
# Mechanical properties :
#
#
# Convention : Reuss Voigt Hill
#
# Bulk Modulus (GPa) = 11.49212 49.27251 30.38232
# Shear Modulus (GPa) = 9.84377 15.86021 12.85199
#
# Velocity S-wave (km/s) = 2.68002 3.40182 3.06226
# Velocity P-wave (km/s) = 4.23814 7.16808 5.88826
#
# Compressibility (1/GPa) = 0.08701615
#
# Stress axis : x y z
#
# Youngs Moduli (GPa) = 51.33409 34.30857 7.65445
#
# Poissons Ratio (x) = 0.45058 0.17336
# Poissons Ratio (y) = 0.67418 0.07919
# Poissons Ratio (z) = 1.16261 0.35495
#
# Static dielectric constant tensor:
#      x y z
#    x 1.465740 0.000000 0.000000 
#    y 0.000000 1.443450 0.000000 
#    z 0.000000 0.000000 1.464520 
# 
# From -- ./inp_files/12567.got.cif
#   From: 2010.05.17/outbox.cif.g08.bks.cpg/sg65_7_cif.got.tgz:12567.got - 2010.06.03 17:01:31.
