data_PCOD9482190
_publ_section_title
;
Structure prediction by ZEFSAII (Michael W. Deem and Ramdas Pophale) SiO2 
 PCOD9482190
Probable space group: C M C A
;
_chemical_formula_sum "Si O2"
_cell_formula_units_Z 48
_cell_length_a 18.881034
_cell_length_b 20.990282
_cell_length_c 5.123100
_cell_angle_alpha 90.000000
_cell_angle_beta 90.000000
_cell_angle_gamma 90.000000
_cell_volume 2030.377914
_symmetry_space_group_name_H-M "C M C A"
_symmetry_group_IT_number 64
_symmetry_cell_setting 'orthorhombic'
loop_
_space_group_symop_operation_xyz
x,y,z
-x,1/2-y,1/2+z
x,-y,-z
-x,1/2+y,1/2-z
-x,-y,-z
x,1/2+y,1/2-z
-x,y,z
x,1/2-y,1/2+z
1/2+x,1/2+y,z
1/2-x,-y,1/2+z
1/2+x,1/2-y,-z
1/2-x,y,1/2-z
1/2-x,1/2-y,-z
1/2+x,y,1/2-z
1/2-x,1/2+y,z
1/2+x,-y,1/2+z
loop_
_atom_site_type_symbol
_atom_site_label
_atom_site_fract_x
_atom_site_fract_y
_atom_site_fract_z
Si Si1 0.378869 0.377221 0.055274
Si Si2 0.750000 0.794963 0.250000
Si Si3 0.500000 0.455480 0.257270
Si Si4 0.500000 0.793616 0.694786
Si Si5 0.703692 0.500000 0.000000
O O1 0.319893 0.337115 0.206441
O O2 0.432263 0.410566 0.254678
O O3 0.429604 0.335052 0.869471
O O4 0.341257 0.437733 0.919582
O O5 0.750000 0.750000 0.500000
O O6 0.500000 0.500000 0.500000
O O7 0.500000 0.500000 0.000000
O O8 0.500000 0.763592 0.981518
O O9 0.750000 0.518254 0.750000
#
# Coordination Sequence:
#
# PCOD9482190 Si02
#       5
#    16   8   8   8   8
#     4  11  26  47  75 103 146 186 238 301 356 427
#     4  12  28  46  72 104 142 192 244 292 356 426
#     4  11  26  43  70 108 142 183 235 288 366 430
#     4  11  26  48  73 102 140 191 241 288 350 422
#     4  12  28  45  74 113 144 186 236 302 374 427
#
# _framework density 23.640917000000002
#
# number of rings (size 3 to 8) (size 9 to 14) (size 15 to 20)
#    0.000    0.667    3.333    2.000    4.667   10.667 
#    0.000    0.000    0.000    0.000    0.000    0.000 
#    0.000    0.000    0.000    0.000    0.000    0.000 
#
# Total GULP energy -134544.089450 kJ/mol
# GULP energy per Si atom -5606.003727 kJ/mol
# Density = 2.358711 g / cm^3
# Si number density = 23.640917 Si / 1000 Ang^3
#
#
#
# Elastic Constant Matrix: (Units=GPa)
#
#
# Indices 1 2 3 4 5 6 
#
# 1 167.1857 81.1995 26.8996 0.0000 0.0000 0.0000
# 2 81.1995 154.1765 39.5095 0.0000 0.0000 0.0000
# 3 26.8996 39.5095 104.0867 0.0000 0.0000 0.0000
# 4 0.0000 0.0000 0.0000 44.7152 0.0000 0.0000
# 5 0.0000 0.0000 0.0000 0.0000 0.1801 0.0000
# 6 0.0000 0.0000 0.0000 0.0000 0.0000 26.4742
#
#
#
# Elastic Compliance Matrix: (Units=1/GPa)
#
#
# Indices 1 2 3 4 5 6 
#
# 1 0.008063 -0.004112 -0.000523 0.000000 0.000000 0.000000
# 2 -0.004112 0.009283 -0.002461 0.000000 0.000000 0.000000
# 3 -0.000523 -0.002461 0.010676 0.000000 0.000000 0.000000
# 4 0.000000 0.000000 0.000000 0.022364 0.000000 0.000000
# 5 0.000000 0.000000 0.000000 0.000000 5.551574 0.000000
# 6 0.000000 0.000000 0.000000 0.000000 0.000000 0.037773
#
#
# Mechanical properties :
#
#
# Convention : Reuss Voigt Hill
#
# Bulk Modulus (GPa) = 72.30569 80.07401 76.18985
# Shear Modulus (GPa) = 0.88362 32.79660 16.84011
#
# Velocity S-wave (km/s) = 0.61203 3.72866 2.67184
# Velocity P-wave (km/s) = 5.58129 7.24443 6.46655
#
# Compressibility (1/GPa) = 0.01383017
#
# Stress axis : x y z
#
# Youngs Moduli (GPa) = 124.02582 107.72895 93.66376
#
# Poissons Ratio (x) = 0.44303 0.04896
# Poissons Ratio (y) = 0.51005 0.23048
# Poissons Ratio (z) = 0.06483 0.26509
#
# Static dielectric constant tensor:
#      x y z
#    x 1.820210 0.000000 0.000000 
#    y 0.000000 1.927070 0.000000 
#    z 0.000000 0.000000 1.999820 
# 
# From -- ./inp_files/1143.got.cif
#   From: 2010.05.17/outbox.cif.g08.bks.cpg/sg64_1_cif.got.tgz:1143.got - 2010.06.03 16:29:19.
