data_PCOD9482313
_publ_section_title
;
Structure prediction by ZEFSAII (Michael W. Deem and Ramdas Pophale) SiO2 
 PCOD9482313
Probable space group: C M C A
;
_chemical_formula_sum "Si O2"
_cell_formula_units_Z 36
_cell_length_a 27.216288
_cell_length_b 10.532488
_cell_length_c 4.978843
_cell_angle_alpha 90.000000
_cell_angle_beta 90.000000
_cell_angle_gamma 90.000000
_cell_volume 1427.211369
_symmetry_space_group_name_H-M "C M C A"
_symmetry_group_IT_number 64
_symmetry_cell_setting 'orthorhombic'
loop_
_space_group_symop_operation_xyz
x,y,z
-x,1/2-y,1/2+z
x,-y,-z
-x,1/2+y,1/2-z
-x,-y,-z
x,1/2+y,1/2-z
-x,y,z
x,1/2-y,1/2+z
1/2+x,1/2+y,z
1/2-x,-y,1/2+z
1/2+x,1/2-y,-z
1/2-x,y,1/2-z
1/2-x,1/2-y,-z
1/2+x,y,1/2-z
1/2-x,1/2+y,z
1/2+x,-y,1/2+z
loop_
_atom_site_type_symbol
_atom_site_label
_atom_site_fract_x
_atom_site_fract_y
_atom_site_fract_z
Si Si1 0.421621 0.338455 0.678079
Si Si2 0.250000 0.342688 0.250000
Si Si3 0.332941 0.000000 0.000000
Si Si4 0.500000 0.500000 0.000000
O O1 0.429992 0.277500 0.385703
O O2 0.367888 0.400196 0.653849
O O3 0.457644 0.444219 0.793235
O O4 0.250000 0.250000 0.500000
O O5 0.297581 0.429742 0.290668
#
# Coordination Sequence:
#
# PCOD9482313 Si02
#       4
#    16   8   8   4
#     4  12  28  50  79 117 158 209 268 334 406 486
#     4  12  28  50  78 116 160 214 272 334 404 482
#     4  12  28  52  82 120 166 218 276 340 410 486
#     4  12  28  52  80 114 156 204 260 330 408 480
#
# _framework density 25.224015000000001
#
# number of rings (size 3 to 8) (size 9 to 14) (size 15 to 20)
#    0.000    0.000    0.000    8.000    0.000   18.667 
#    0.000    0.000    0.000    0.000    0.000    0.000 
#    0.000    0.000    0.000    0.000    0.000    0.000 
#
# Total GULP energy -100470.985826 kJ/mol
# GULP energy per Si atom -5581.721435 kJ/mol
# Density = 2.516660 g / cm^3
# Si number density = 25.224015 Si / 1000 Ang^3
#
#
#
# Elastic Constant Matrix: (Units=GPa)
#
#
# Indices 1 2 3 4 5 6 
#
# 1 175.9137 47.5511 47.6807 0.0000 0.0000 0.0000
# 2 47.5511 115.3492 62.2318 0.0000 0.0000 0.0000
# 3 47.6807 62.2318 141.4161 0.0000 0.0000 0.0000
# 4 0.0000 0.0000 0.0000 83.1263 0.0000 0.0000
# 5 0.0000 0.0000 0.0000 0.0000 56.9771 0.0000
# 6 0.0000 0.0000 0.0000 0.0000 0.0000 -487.2611
#
#
#
# Elastic Compliance Matrix: (Units=1/GPa)
#
#
# Indices 1 2 3 4 5 6 
#
# 1 0.006587 -0.001990 -0.001345 0.000000 0.000000 0.000000
# 2 -0.001990 0.011969 -0.004596 0.000000 0.000000 0.000000
# 3 -0.001345 -0.004596 0.009548 0.000000 0.000000 0.000000
# 4 0.000000 0.000000 0.000000 0.012030 0.000000 0.000000
# 5 0.000000 0.000000 0.000000 0.000000 0.017551 0.000000
# 6 0.000000 0.000000 0.000000 0.000000 0.000000 -0.002052
#
#
# Mechanical properties :
#
#
# Convention : Reuss Voigt Hill
#
# Bulk Modulus (GPa) = 81.69099 83.06738 82.37919
# Shear Modulus (GPa) = 66.15881 -51.08383 7.53749
#
# Velocity S-wave (km/s) = 5.12693 -4.50511 1.73052
# Velocity P-wave (km/s) = 8.21607 2.43762 6.05994
#
# Compressibility (1/GPa) = 0.01224125
#
# Stress axis : x y z
#
# Youngs Moduli (GPa) = 151.81259 83.54705 104.73769
#
# Poissons Ratio (x) = 0.16622 0.14091
# Poissons Ratio (y) = 0.30204 0.48142
# Poissons Ratio (z) = 0.20425 0.38402
#
# Static dielectric constant tensor:
#      x y z
#    x 1.907980 0.000000 0.000000 
#    y 0.000000 2.093680 0.000000 
#    z 0.000000 0.000000 1.943020 
# 
# From -- ./inp_files/1999.got.cif
#   From: 2010.05.17/outbox.cif.g08.bks.cpg/sg64_1_cif.got.tgz:1999.got - 2010.06.03 16:29:19.
