data_PCOD9482027
_publ_section_title
;
Structure prediction by ZEFSAII (Michael W. Deem and Ramdas Pophale) SiO2 
 PCOD9482027
Probable space group: C M C A
;
_chemical_formula_sum "Si O2"
_cell_formula_units_Z 88
_cell_length_a 9.864249
_cell_length_b 21.159544
_cell_length_c 22.641260
_cell_angle_alpha 90.000000
_cell_angle_beta 90.000000
_cell_angle_gamma 90.000000
_cell_volume 4725.751954
_symmetry_space_group_name_H-M "C M C A"
_symmetry_group_IT_number 64
_symmetry_cell_setting 'orthorhombic'
loop_
_space_group_symop_operation_xyz
x,y,z
-x,1/2-y,1/2+z
x,-y,-z
-x,1/2+y,1/2-z
-x,-y,-z
x,1/2+y,1/2-z
-x,y,z
x,1/2-y,1/2+z
1/2+x,1/2+y,z
1/2-x,-y,1/2+z
1/2+x,1/2-y,-z
1/2-x,y,1/2-z
1/2-x,1/2-y,-z
1/2+x,y,1/2-z
1/2-x,1/2+y,z
1/2+x,-y,1/2+z
loop_
_atom_site_type_symbol
_atom_site_label
_atom_site_fract_x
_atom_site_fract_y
_atom_site_fract_z
Si Si1 0.500000 0.637790 0.393405
Si Si2 0.734582 0.393617 0.425708
Si Si3 0.341985 0.839255 0.304450
Si Si4 0.500000 0.679558 0.099416
Si Si5 0.000000 0.075924 0.002582
Si Si6 0.238023 0.307303 0.818031
Si Si7 0.000000 0.304828 0.023214
Si Si8 0.500000 0.993097 0.069902
O O1 0.371005 0.653951 0.354377
O O2 0.500000 0.680676 0.453124
O O3 0.500000 0.563966 0.407358
O O4 0.797865 0.373400 0.363883
O O5 0.860494 0.404203 0.469710
O O6 0.633125 0.339956 0.450962
O O7 0.635724 0.453607 0.415828
O O8 0.500000 0.848290 0.291685
O O9 0.250000 0.860714 0.250000
O O10 0.312778 0.764963 0.313886
O O11 0.373235 0.689228 0.142997
O O12 0.500000 0.733395 0.047806
O O13 0.500000 0.612184 0.065596
O O14 0.000000 0.000000 0.000000
O O15 0.250000 0.329260 0.750000
O O16 0.500000 0.000000 0.000000
#
# Coordination Sequence:
#
# PCOD9482027 Si02
#       8
#     8  16  16   8   8  16   8   8
#     4  12  24  44  68  94 133 176 230 270 335 398
#     4  11  23  43  65  98 131 167 226 265 327 399
#     4  11  24  42  69  99 133 173 216 275 338 388
#     4  12  26  40  68 102 136 171 214 276 340 387
#     4  12  28  42  65  95 140 172 211 273 338 398
#     4  11  25  42  68  98 134 172 219 274 339 400
#     4  11  24  38  69 103 132 166 216 279 329 399
#     4  11  24  43  69  91 130 188 217 264 338 408
#
# _framework density 18.621376000000001
#
# number of rings (size 3 to 8) (size 9 to 14) (size 15 to 20)
#    0.000    0.727    5.455    2.182   11.455    1.455 
#    0.000    0.909    4.000    0.000    0.000    0.000 
#    0.000    0.000    0.000    0.000    0.000    0.000 
#
# Total GULP energy -245865.220335 kJ/mol
# GULP energy per Si atom -5587.845917 kJ/mol
# Density = 1.857899 g / cm^3
# Si number density = 18.621376 Si / 1000 Ang^3
#
#
#
# Elastic Constant Matrix: (Units=GPa)
#
#
# Indices 1 2 3 4 5 6 
#
# 1 176.6506 34.6783 68.4153 0.0000 0.0000 0.0000
# 2 34.6783 74.3776 45.8038 0.0000 0.0000 0.0000
# 3 68.4153 45.8038 141.4539 0.0000 0.0000 0.0000
# 4 0.0000 0.0000 0.0000 25.0364 0.0000 0.0000
# 5 0.0000 0.0000 0.0000 0.0000 43.4106 0.0000
# 6 0.0000 0.0000 0.0000 0.0000 0.0000 15.5316
#
#
#
# Elastic Compliance Matrix: (Units=1/GPa)
#
#
# Indices 1 2 3 4 5 6 
#
# 1 0.007096 -0.001493 -0.002949 0.000000 0.000000 0.000000
# 2 -0.001493 0.017108 -0.004818 0.000000 0.000000 0.000000
# 3 -0.002949 -0.004818 0.010056 0.000000 0.000000 0.000000
# 4 0.000000 0.000000 0.000000 0.039942 0.000000 0.000000
# 5 0.000000 0.000000 0.000000 0.000000 0.023036 0.000000
# 6 0.000000 0.000000 0.000000 0.000000 0.000000 0.064385
#
#
# Mechanical properties :
#
#
# Convention : Reuss Voigt Hill
#
# Bulk Modulus (GPa) = 63.52719 76.69743 70.11231
# Shear Modulus (GPa) = 26.97064 33.03470 30.00267
#
# Velocity S-wave (km/s) = 3.80987 4.21648 4.01832
# Velocity P-wave (km/s) = 7.31729 8.06115 7.69821
#
# Compressibility (1/GPa) = 0.01574129
#
# Stress axis : x y z
#
# Youngs Moduli (GPa) = 140.92656 58.45327 99.44703
#
# Poissons Ratio (x) = 0.08724 0.29324
# Poissons Ratio (y) = 0.21034 0.47911
# Poissons Ratio (z) = 0.41555 0.28161
#
# Static dielectric constant tensor:
#      x y z
#    x 1.521630 0.000000 0.000000 
#    y 0.000000 1.624670 0.000000 
#    z 0.000000 0.000000 1.623290 
# 
# From -- ./inp_files/42904.got.cif
#   From: 2010.05.17/outbox.cif.g08.bks.cpg/sg64_22_cif.got.tgz:42904.got - 2010.06.03 16:29:19.
