data_PCOD9482423
_publ_section_title
;
Structure prediction by ZEFSAII (Michael W. Deem and Ramdas Pophale) SiO2 
 PCOD9482423
Probable space group: C M C A
;
_chemical_formula_sum "Si O2"
_cell_formula_units_Z 52
_cell_length_a 21.000000
_cell_length_b 27.000000
_cell_length_c 9.000000
_cell_angle_alpha 90.000000
_cell_angle_beta 90.000000
_cell_angle_gamma 90.000000
_cell_volume 5103.000000
_symmetry_space_group_name_H-M "C M C A"
_symmetry_group_IT_number 64
_symmetry_cell_setting 'orthorhombic'
loop_
_space_group_symop_operation_xyz
x,y,z
-x,1/2-y,1/2+z
x,-y,-z
-x,1/2+y,1/2-z
-x,-y,-z
x,1/2+y,1/2-z
-x,y,z
x,1/2-y,1/2+z
1/2+x,1/2+y,z
1/2-x,-y,1/2+z
1/2+x,1/2-y,-z
1/2-x,y,1/2-z
1/2-x,1/2-y,-z
1/2+x,y,1/2-z
1/2-x,1/2+y,z
1/2+x,-y,1/2+z
loop_
_atom_site_type_symbol
_atom_site_label
_atom_site_fract_x
_atom_site_fract_y
_atom_site_fract_z
Si Si1 0.181394 0.887402 0.242817
Si Si2 0.636643 0.127493 0.075645
Si Si3 0.250000 0.919636 0.750000
Si Si4 0.172156 0.002438 0.851563
Si Si5 0.073789 0.180911 0.862718
Si Si6 0.426164 0.722598 0.529861
Si Si7 0.433764 0.965437 0.856686
O O1 0.250000 0.861015 0.250000
O O2 0.157197 0.889099 0.410932
O O3 0.191357 0.942240 0.181938
O O4 0.127239 0.860987 0.145577
O O5 0.693709 0.114105 0.187025
O O6 0.616958 0.184419 0.061997
O O7 0.576978 0.092331 0.111597
O O8 0.226086 0.960308 0.870880
O O9 0.129173 0.983236 0.721313
O O10 0.131613 0.000000 0.000000
O O11 0.087697 0.220790 0.990246
O O12 0.079214 0.209155 0.703539
O O13 0.000000 0.163632 0.875143
O O14 0.500000 0.714566 0.487135
O O15 0.500000 0.972553 0.772417
O O16 0.437214 0.000000 0.000000
#
# Coordination Sequence:
#
# PCOD9482423 Si02
#       7
#    16  16   8  16  16  16  16
#     4  11  21  37  59  84 117 155 197 236 288 351
#     4  10  20  37  58  85 109 155 195 236 283 348
#     4  10  22  34  56  82 114 152 194 234 280 340
#     4  11  22  36  56  80 117 156 188 234 291 345
#     4   9  20  39  62  86 110 149 192 240 294 350
#     4   9  18  38  63  84 112 145 190 240 293 347
#     4  10  20  35  57  83 111 145 192 240 279 337
#
# _framework density 10.190084000000001
#
# number of rings (size 3 to 8) (size 9 to 14) (size 15 to 20)
#    0.000    2.000    2.308    1.385    0.000    1.538 
#    9.692    1.538    0.000    0.000    0.000    0.000 
#    0.000    0.000    0.000    0.000    0.000    0.000 
#
# Total GULP energy -289514.624735 kJ/mol
# GULP energy per Si atom -5567.588937 kJ/mol
# Density = 1.016689 g / cm^3
# Si number density = 10.190084 Si / 1000 Ang^3
#
#
#
# Elastic Constant Matrix: (Units=GPa)
#
#
# Indices 1 2 3 4 5 6 
#
# 1 76.9701 9.4994 5.3929 0.0000 0.0000 0.0000
# 2 9.4994 3.5768 -2.3137 0.0000 0.0000 0.0000
# 3 5.3929 -2.3137 18.3583 0.0000 0.0000 0.0000
# 4 0.0000 0.0000 0.0000 11.5077 0.0000 0.0000
# 5 0.0000 0.0000 0.0000 0.0000 -6.1641 0.0000
# 6 0.0000 0.0000 0.0000 0.0000 0.0000 8.2155
#
#
#
# Elastic Compliance Matrix: (Units=1/GPa)
#
#
# Indices 1 2 3 4 5 6 
#
# 1 0.022807 -0.070666 -0.015606 0.000000 0.000000 0.000000
# 2 -0.070666 0.523355 0.086717 0.000000 0.000000 0.000000
# 3 -0.015606 0.086717 0.069984 0.000000 0.000000 0.000000
# 4 0.000000 0.000000 0.000000 0.086898 0.000000 0.000000
# 5 0.000000 0.000000 0.000000 0.000000 -0.162229 0.000000
# 6 0.000000 0.000000 0.000000 0.000000 0.000000 0.121722
#
#
# Mechanical properties :
#
#
# Convention : Reuss Voigt Hill
#
# Bulk Modulus (GPa) = 1.62065 13.78470 7.70268
# Shear Modulus (GPa) = 5.76484 8.46691 7.11588
#
# Velocity S-wave (km/s) = 1.68368 2.04047 1.87060
# Velocity P-wave (km/s) = 2.13931 3.51138 2.90744
#
# Compressibility (1/GPa) = 0.61703515
#
# Stress axis : x y z
#
# Youngs Moduli (GPa) = 43.84639 1.91075 14.28891
#
# Poissons Ratio (x) = 0.13503 0.22299
# Poissons Ratio (y) = 3.09847 -1.23909
# Poissons Ratio (z) = 0.68425 -0.16569
#
# Static dielectric constant tensor:
#      x y z
#    x 1.783410 0.000000 0.000000 
#    y 0.000000 1.739430 0.000000 
#    z 0.000000 0.000000 1.809190 
# 
# From -- ./inp_files/8493.got.cif
#   From: 2010.05.17/outbox.ucp.g08.bks.cvg/sg64_5_cif.got.tgz:8493.got - 2010.06.11 16:36:46.
