data_PCOD9482969
_publ_section_title
;
Structure prediction by ZEFSAII (Michael W. Deem and Ramdas Pophale) SiO2 
 PCOD9482969
Probable space group: C M M M
;
_chemical_formula_sum "Si O2"
_cell_formula_units_Z 52
_cell_length_a 21.495092
_cell_length_b 15.010555
_cell_length_c 8.044999
_cell_angle_alpha 90.000000
_cell_angle_beta 90.000000
_cell_angle_gamma 90.000000
_cell_volume 2595.745160
_symmetry_space_group_name_H-M "C M M M"
_symmetry_group_IT_number 65
_symmetry_cell_setting 'orthorhombic'
loop_
_space_group_symop_operation_xyz
x,y,z
-x,-y,z
x,-y,-z
-x,y,-z
-x,-y,-z
x,y,-z
-x,y,z
x,-y,z
1/2+x,1/2+y,z
1/2-x,1/2-y,z
1/2+x,1/2-y,-z
1/2-x,1/2+y,-z
1/2-x,1/2-y,-z
1/2+x,1/2+y,-z
1/2-x,1/2+y,z
1/2+x,1/2-y,z
loop_
_atom_site_type_symbol
_atom_site_label
_atom_site_fract_x
_atom_site_fract_y
_atom_site_fract_z
Si Si1 0.110001 0.129473 0.197030
Si Si2 0.000000 0.000000 0.294725
Si Si3 0.571660 0.179619 0.301572
Si Si4 0.717511 0.500000 0.201378
Si Si5 0.358804 0.000000 0.800365
O O1 0.105212 0.233948 0.227260
O O2 0.175515 0.085451 0.247251
O O3 0.100340 0.111032 0.000000
O O4 0.054491 0.077300 0.287726
O O5 0.571161 0.189301 0.500000
O O6 0.500000 0.177895 0.242358
O O7 0.605589 0.088288 0.256768
O O8 0.787675 0.500000 0.264036
O O9 0.721295 0.500000 0.000000
O O10 0.357561 0.000000 0.000000
#
# Coordination Sequence:
#
# PCOD9482969 Si02
#       5
#    16   4  16   8   8
#     4  10  18  34  61  90 117 147 188 234 285 341
#     4  10  17  30  59  92 117 142 183 234 277 330
#     4  11  24  40  57  84 119 153 189 239 293 338
#     4   8  19  37  59  89 119 148 186 241 290 329
#     4  11  23  41  62  82 110 153 202 241 281 337
#
# _framework density 20.032783999999999
#
# number of rings (size 3 to 8) (size 9 to 14) (size 15 to 20)
#    0.000    1.846    1.538    4.154    0.000    4.923 
#    0.000   13.077    0.000    0.000    0.000    0.000 
#    0.000    0.000    0.000    0.000    0.000    0.000 
#
# Total GULP energy -144752.107249 kJ/mol
# GULP energy per Si atom -5567.388740 kJ/mol
# Density = 1.998719 g / cm^3
# Si number density = 20.032784 Si / 1000 Ang^3
#
#
#
# Elastic Constant Matrix: (Units=GPa)
#
#
# Indices 1 2 3 4 5 6 
#
# 1 129.8134 78.6470 10.0953 0.0000 0.0000 0.0000
# 2 78.6470 199.0504 7.0438 0.0000 0.0000 0.0000
# 3 10.0953 7.0438 37.8294 0.0000 0.0000 0.0000
# 4 0.0000 0.0000 0.0000 30.5500 0.0000 0.0000
# 5 0.0000 0.0000 0.0000 0.0000 12.0000 0.0000
# 6 0.0000 0.0000 0.0000 0.0000 0.0000 131.5126
#
#
#
# Elastic Compliance Matrix: (Units=1/GPa)
#
#
# Indices 1 2 3 4 5 6 
#
# 1 0.010276 -0.003989 -0.001999 0.000000 0.000000 0.000000
# 2 -0.003989 0.006606 -0.000165 0.000000 0.000000 0.000000
# 3 -0.001999 -0.000165 0.026999 0.000000 0.000000 0.000000
# 4 0.000000 0.000000 0.000000 0.032733 0.000000 0.000000
# 5 0.000000 0.000000 0.000000 0.000000 0.083334 0.000000
# 6 0.000000 0.000000 0.000000 0.000000 0.000000 0.007604
#
#
# Mechanical properties :
#
#
# Convention : Reuss Voigt Hill
#
# Bulk Modulus (GPa) = 31.67340 62.02948 46.85144
# Shear Modulus (GPa) = 26.26279 52.87298 39.56789
#
# Velocity S-wave (km/s) = 3.62469 5.14301 4.44909
# Velocity P-wave (km/s) = 5.77606 8.14239 7.05909
#
# Compressibility (1/GPa) = 0.03157223
#
# Stress axis : x y z
#
# Youngs Moduli (GPa) = 97.31635 151.37917 37.03864
#
# Poissons Ratio (x) = 0.60390 0.07406
# Poissons Ratio (y) = 0.38823 0.00613
# Poissons Ratio (z) = 0.19458 0.02504
#
# Static dielectric constant tensor:
#      x y z
#    x 1.686390 0.000000 0.000000 
#    y 0.000000 1.671440 0.000000 
#    z 0.000000 0.000000 1.772020 
# 
# From -- ./inp_files/10592.got.cif
#   From: 2010.05.17/outbox.cif.g08.bks.cpg/sg65_6_cif.got.tgz:10592.got - 2010.06.03 17:01:31.
