data_PCOD9482851
_publ_section_title
;
Structure prediction by ZEFSAII (Michael W. Deem and Ramdas Pophale) SiO2 
 PCOD9482851
Probable space group: C M M M
;
_chemical_formula_sum "Si O2"
_cell_formula_units_Z 72
_cell_length_a 19.856084
_cell_length_b 28.925996
_cell_length_c 7.998945
_cell_angle_alpha 90.000000
_cell_angle_beta 90.000000
_cell_angle_gamma 90.000000
_cell_volume 4594.250104
_symmetry_space_group_name_H-M "C M M M"
_symmetry_group_IT_number 65
_symmetry_cell_setting 'orthorhombic'
loop_
_space_group_symop_operation_xyz
x,y,z
-x,-y,z
x,-y,-z
-x,y,-z
-x,-y,-z
x,y,-z
-x,y,z
x,-y,z
1/2+x,1/2+y,z
1/2-x,1/2-y,z
1/2+x,1/2-y,-z
1/2-x,1/2+y,-z
1/2-x,1/2-y,-z
1/2+x,1/2+y,-z
1/2-x,1/2+y,z
1/2+x,1/2-y,z
loop_
_atom_site_type_symbol
_atom_site_label
_atom_site_fract_x
_atom_site_fract_y
_atom_site_fract_z
Si Si1 0.000000 0.342800 0.795228
Si Si2 0.920808 0.500000 0.795276
Si Si3 0.353149 0.271122 0.299194
Si Si4 0.128903 0.401148 0.799227
Si Si5 0.280250 0.821443 0.298706
Si Si6 0.000000 0.762254 0.198434
O O1 0.934215 0.370410 0.739754
O O2 0.000000 0.290398 0.733640
O O3 0.000000 0.342250 0.000000
O O4 0.883263 0.546656 0.739139
O O5 0.000000 0.500000 0.746102
O O6 0.921234 0.500000 0.000000
O O7 0.350315 0.269851 0.500000
O O8 0.331062 0.219559 0.239056
O O9 0.294111 0.305771 0.242041
O O10 0.428813 0.283615 0.250487
O O11 0.194446 0.371670 0.753739
O O12 0.125543 0.402912 0.000000
O O13 0.280775 0.820079 0.500000
O O14 0.000000 0.759757 0.000000
#
# Coordination Sequence:
#
# PCOD9482851 Si02
#       6
#     8   8  16  16  16   8
#     4   9  16  24  37  60  85 111 142 178 213 246
#     4   9  16  26  43  63  85 116 149 180 215 255
#     4   9  18  31  44  59  83 115 146 174 213 262
#     4  10  17  28  44  61  84 114 150 185 216 250
#     4   9  18  31  44  59  82 114 148 179 213 255
#     4  11  19  27  42  67  89 107 143 186 217 248
#
# _framework density 15.671764
#
# number of rings (size 3 to 8) (size 9 to 14) (size 15 to 20)
#    0.000    2.556    3.333    1.667    0.000    0.889 
#    0.000    3.333    0.000    0.667    0.000    0.000 
#    0.000    0.889    0.000   10.000    0.000    4.444 
#
# Total GULP energy -200587.661886 kJ/mol
# GULP energy per Si atom -5571.879497 kJ/mol
# Density = 1.563609 g / cm^3
# Si number density = 15.671764 Si / 1000 Ang^3
#
#
#
# Elastic Constant Matrix: (Units=GPa)
#
#
# Indices 1 2 3 4 5 6 
#
# 1 124.8315 60.1753 7.2547 0.0000 0.0000 0.0000
# 2 60.1753 102.6424 6.9730 0.0000 0.0000 0.0000
# 3 7.2547 6.9730 10.2291 0.0000 0.0000 0.0000
# 4 0.0000 0.0000 0.0000 12.4828 0.0000 0.0000
# 5 0.0000 0.0000 0.0000 0.0000 19.5123 0.0000
# 6 0.0000 0.0000 0.0000 0.0000 0.0000 24.3915
#
#
#
# Elastic Compliance Matrix: (Units=1/GPa)
#
#
# Indices 1 2 3 4 5 6 
#
# 1 0.011296 -0.006373 -0.003667 0.000000 0.000000 0.000000
# 2 -0.006373 0.013812 -0.004895 0.000000 0.000000 0.000000
# 3 -0.003667 -0.004895 0.103698 0.000000 0.000000 0.000000
# 4 0.000000 0.000000 0.000000 0.080110 0.000000 0.000000
# 5 0.000000 0.000000 0.000000 0.000000 0.051250 0.000000
# 6 0.000000 0.000000 0.000000 0.000000 0.000000 0.040998
#
#
# Mechanical properties :
#
#
# Convention : Reuss Voigt Hill
#
# Bulk Modulus (GPa) = 10.10764 42.94544 26.52654
# Shear Modulus (GPa) = 13.73580 22.16399 17.94990
#
# Velocity S-wave (km/s) = 2.96373 3.76475 3.38800
# Velocity P-wave (km/s) = 4.26324 6.80884 5.68047
#
# Compressibility (1/GPa) = 0.09893508
#
# Stress axis : x y z
#
# Youngs Moduli (GPa) = 88.52512 72.40292 9.64341
#
# Poissons Ratio (x) = 0.46146 0.03536
# Poissons Ratio (y) = 0.56421 0.04720
# Poissons Ratio (z) = 0.32461 0.35441
#
# Static dielectric constant tensor:
#      x y z
#    x 1.543440 0.000000 0.000000 
#    y 0.000000 1.524770 0.000000 
#    z 0.000000 0.000000 1.561900 
# 
# From -- ./inp_files/12046.got.cif
#   From: 2010.05.17/outbox.cif.g08.bks.cpg/sg65_7_cif.got.tgz:12046.got - 2010.06.03 17:01:31.
