data_PCOD9482198
_publ_section_title
;
Structure prediction by ZEFSAII (Michael W. Deem and Ramdas Pophale) SiO2 
 PCOD9482198
Probable space group: C M C A
;
_chemical_formula_sum "Si O2"
_cell_formula_units_Z 88
_cell_length_a 21.322910
_cell_length_b 14.645412
_cell_length_c 13.896285
_cell_angle_alpha 90.000000
_cell_angle_beta 90.000000
_cell_angle_gamma 90.000000
_cell_volume 4339.570817
_symmetry_space_group_name_H-M "C M C A"
_symmetry_group_IT_number 64
_symmetry_cell_setting 'orthorhombic'
loop_
_space_group_symop_operation_xyz
x,y,z
-x,1/2-y,1/2+z
x,-y,-z
-x,1/2+y,1/2-z
-x,-y,-z
x,1/2+y,1/2-z
-x,y,z
x,1/2-y,1/2+z
1/2+x,1/2+y,z
1/2-x,-y,1/2+z
1/2+x,1/2-y,-z
1/2-x,y,1/2-z
1/2-x,1/2-y,-z
1/2+x,y,1/2-z
1/2-x,1/2+y,z
1/2+x,-y,1/2+z
loop_
_atom_site_type_symbol
_atom_site_label
_atom_site_fract_x
_atom_site_fract_y
_atom_site_fract_z
Si Si1 0.821821 0.029544 0.214554
Si Si2 0.744775 0.183666 0.910717
Si Si3 0.883790 0.352387 0.194752
Si Si4 0.428642 0.897008 0.993774
Si Si5 0.360532 0.788924 0.827710
Si Si6 0.791143 0.500000 0.500000
O O1 0.750000 0.009706 0.250000
O O2 0.839658 0.125370 0.263127
O O3 0.865615 0.948438 0.255209
O O4 0.825743 0.033743 0.097870
O O5 0.680581 0.185917 0.853163
O O6 0.803083 0.219424 0.848272
O O7 0.752380 0.083518 0.955972
O O8 0.750000 0.250000 0.000000
O O9 0.907210 0.277072 0.269904
O O10 0.927778 0.364560 0.103409
O O11 0.500000 0.902191 0.956699
O O12 0.388365 0.832189 0.924773
O O13 0.402033 0.000000 0.000000
#
# Coordination Sequence:
#
# PCOD9482198 Si02
#       6
#    16  16  16  16  16   8
#     4  12  23  37  60  94 137 177 208 257 329 400
#     4  12  23  37  61  99 135 171 210 259 329 414
#     4  12  23  41  63 100 134 169 218 272 336 398
#     4  11  26  47  70  93 121 176 241 284 322 384
#     4  12  24  41  66  97 135 173 216 272 338 405
#     4  12  24  38  58  92 146 172 210 262 320 416
#
# _framework density 20.278503000000001
#
# number of rings (size 3 to 8) (size 9 to 14) (size 15 to 20)
#    0.000    0.182    7.273    3.818    1.273    0.727 
#    0.000    0.000    0.000    0.000    0.000    3.182 
#    0.000    0.000    0.000    0.000    0.000    0.000 
#
# Total GULP energy -245773.106786 kJ/mol
# GULP energy per Si atom -5585.752427 kJ/mol
# Density = 2.023235 g / cm^3
# Si number density = 20.278503 Si / 1000 Ang^3
#
#
#
# Elastic Constant Matrix: (Units=GPa)
#
#
# Indices 1 2 3 4 5 6 
#
# 1 43.8729 17.9873 14.6164 0.0000 0.0000 0.0000
# 2 17.9873 126.0920 35.3064 0.0000 0.0000 0.0000
# 3 14.6164 35.3064 140.6123 0.0000 0.0000 0.0000
# 4 0.0000 0.0000 0.0000 53.0336 0.0000 0.0000
# 5 0.0000 0.0000 0.0000 0.0000 10.7812 0.0000
# 6 0.0000 0.0000 0.0000 0.0000 0.0000 7.1649
#
#
#
# Elastic Compliance Matrix: (Units=1/GPa)
#
#
# Indices 1 2 3 4 5 6 
#
# 1 0.024628 -0.003008 -0.001805 0.000000 0.000000 0.000000
# 2 -0.003008 0.008898 -0.001921 0.000000 0.000000 0.000000
# 3 -0.001805 -0.001921 0.007782 0.000000 0.000000 0.000000
# 4 0.000000 0.000000 0.000000 0.018856 0.000000 0.000000
# 5 0.000000 0.000000 0.000000 0.000000 0.092754 0.000000
# 6 0.000000 0.000000 0.000000 0.000000 0.000000 0.139568
#
#
# Mechanical properties :
#
#
# Convention : Reuss Voigt Hill
#
# Bulk Modulus (GPa) = 35.92079 49.59971 42.76025
# Shear Modulus (GPa) = 15.86124 30.37375 23.11749
#
# Velocity S-wave (km/s) = 2.79976 3.87438 3.38005
# Velocity P-wave (km/s) = 5.31072 6.67284 6.03036
#
# Compressibility (1/GPa) = 0.02783903
#
# Stress axis : x y z
#
# Youngs Moduli (GPa) = 40.60490 112.38708 128.50455
#
# Poissons Ratio (x) = 0.33804 0.23192
# Poissons Ratio (y) = 0.12213 0.24692
# Poissons Ratio (z) = 0.07328 0.21595
#
# Static dielectric constant tensor:
#      x y z
#    x 1.757420 0.000000 0.000000 
#    y 0.000000 1.713230 0.000000 
#    z 0.000000 0.000000 1.766500 
# 
# From -- ./inp_files/19068.got.cif
#   From: 2010.05.17/outbox.cif.g08.bks.cpg/sg64_10_cif.got.tgz:19068.got - 2010.06.03 16:29:19.
