data_PCOD9482982
_publ_section_title
;
Structure prediction by ZEFSAII (Michael W. Deem and Ramdas Pophale) SiO2 
 PCOD9482982
Probable space group: C M M M
;
_chemical_formula_sum "Si O2"
_cell_formula_units_Z 64
_cell_length_a 24.722994
_cell_length_b 16.009489
_cell_length_c 7.455480
_cell_angle_alpha 90.000000
_cell_angle_beta 90.000000
_cell_angle_gamma 90.000000
_cell_volume 2950.897626
_symmetry_space_group_name_H-M "C M M M"
_symmetry_group_IT_number 65
_symmetry_cell_setting 'orthorhombic'
loop_
_space_group_symop_operation_xyz
x,y,z
-x,-y,z
x,-y,-z
-x,y,-z
-x,-y,-z
x,y,-z
-x,y,z
x,-y,z
1/2+x,1/2+y,z
1/2-x,1/2-y,z
1/2+x,1/2-y,-z
1/2-x,1/2+y,-z
1/2-x,1/2-y,-z
1/2+x,1/2+y,-z
1/2-x,1/2+y,z
1/2+x,1/2-y,z
loop_
_atom_site_type_symbol
_atom_site_label
_atom_site_fract_x
_atom_site_fract_y
_atom_site_fract_z
Si Si1 0.000000 0.136767 0.795240
Si Si2 0.687717 0.248275 0.780481
Si Si3 0.500000 0.828708 0.289269
Si Si4 0.383943 0.093229 0.786200
Si Si5 0.618313 0.407464 0.219317
O O1 0.000000 0.237349 0.798245
O O2 0.943202 0.106993 0.716694
O O3 0.000000 0.105568 0.000000
O O4 0.750000 0.250000 0.725053
O O5 0.655533 0.166036 0.718530
O O6 0.655876 0.331257 0.722535
O O7 0.686862 0.247718 0.000000
O O8 0.500000 0.813512 0.500000
O O9 0.445802 0.878578 0.242126
O O10 0.374969 0.000000 0.713969
O O11 0.375451 0.089563 0.000000
O O12 0.636977 0.500000 0.270659
O O13 0.617401 0.404292 0.000000
#
# Coordination Sequence:
#
# PCOD9482982 Si02
#       5
#     8  16   8  16  16
#     4  10  17  31  53  75 102 133 168 207 259 315
#     4   9  17  29  47  75 109 138 167 207 252 300
#     4  12  23  34  53  79 106 136 174 218 266 310
#     4  10  20  35  55  78 106 141 174 208 258 314
#     4   9  16  26  46  75 102 128 163 208 253 297
#
# _framework density 21.688316
#
# number of rings (size 3 to 8) (size 9 to 14) (size 15 to 20)
#    0.000    2.250    2.500    1.875    0.000    4.500 
#    0.000    5.000    0.000    2.250    0.000    0.000 
#    0.000    0.000    0.000    0.000    0.000    0.000 
#
# Total GULP energy -178807.107175 kJ/mol
# GULP energy per Si atom -5587.722099 kJ/mol
# Density = 2.163895 g / cm^3
# Si number density = 21.688316 Si / 1000 Ang^3
#
#
#
# Elastic Constant Matrix: (Units=GPa)
#
#
# Indices 1 2 3 4 5 6 
#
# 1 190.6180 125.8289 -2.3920 0.0000 0.0000 0.0000
# 2 125.8289 233.2094 8.6606 0.0000 0.0000 0.0000
# 3 -2.3920 8.6606 67.9478 0.0000 0.0000 0.0000
# 4 0.0000 0.0000 0.0000 -22.5584 0.0000 0.0000
# 5 0.0000 0.0000 0.0000 0.0000 -187.8341 0.0000
# 6 0.0000 0.0000 0.0000 0.0000 0.0000 8.2205
#
#
#
# Elastic Compliance Matrix: (Units=1/GPa)
#
#
# Indices 1 2 3 4 5 6 
#
# 1 0.008197 -0.004455 0.000856 0.000000 0.000000 0.000000
# 2 -0.004455 0.006729 -0.001015 0.000000 0.000000 0.000000
# 3 0.000856 -0.001015 0.014877 0.000000 0.000000 0.000000
# 4 0.000000 0.000000 0.000000 -0.044329 0.000000 0.000000
# 5 0.000000 0.000000 0.000000 0.000000 -0.005324 0.000000
# 6 0.000000 0.000000 0.000000 0.000000 0.000000 0.121648
#
#
# Mechanical properties :
#
#
# Convention : Reuss Voigt Hill
#
# Bulk Modulus (GPa) = 48.59672 83.99668 66.29670
# Shear Modulus (GPa) = 42.41492 -16.45590 12.97951
#
# Velocity S-wave (km/s) = 4.42708 -2.75752 2.44899
# Velocity P-wave (km/s) = 6.97048 5.35486 6.21539
#
# Compressibility (1/GPa) = 0.02057752
#
# Stress axis : x y z
#
# Youngs Moduli (GPa) = 121.98854 148.60463 67.21952
#
# Poissons Ratio (x) = 0.66200 -0.05757
# Poissons Ratio (y) = 0.54343 0.06820
# Poissons Ratio (z) = -0.10447 0.15076
#
# Static dielectric constant tensor:
#      x y z
#    x 1.743600 0.000000 0.000000 
#    y 0.000000 1.780980 0.000000 
#    z 0.000000 0.000000 1.824510 
# 
# From -- ./inp_files/6747.got.cif
#   From: 2010.05.17/outbox.cif.g08.bks.cpg/sg65_4_cif.got.tgz:6747.got - 2010.06.03 17:01:31.
