data_PCOD9482484
_publ_section_title
;
Structure prediction by ZEFSAII (Michael W. Deem and Ramdas Pophale) SiO2 
 PCOD9482484
Probable space group: C M C A
;
_chemical_formula_sum "Si O2"
_cell_formula_units_Z 48
_cell_length_a 9.000000
_cell_length_b 21.000000
_cell_length_c 27.000000
_cell_angle_alpha 90.000000
_cell_angle_beta 90.000000
_cell_angle_gamma 90.000000
_cell_volume 5103.000000
_symmetry_space_group_name_H-M "C M C A"
_symmetry_group_IT_number 64
_symmetry_cell_setting 'orthorhombic'
loop_
_space_group_symop_operation_xyz
x,y,z
-x,1/2-y,1/2+z
x,-y,-z
-x,1/2+y,1/2-z
-x,-y,-z
x,1/2+y,1/2-z
-x,y,z
x,1/2-y,1/2+z
1/2+x,1/2+y,z
1/2-x,-y,1/2+z
1/2+x,1/2-y,-z
1/2-x,y,1/2-z
1/2-x,1/2-y,-z
1/2+x,y,1/2-z
1/2-x,1/2+y,z
1/2+x,-y,1/2+z
loop_
_atom_site_type_symbol
_atom_site_label
_atom_site_fract_x
_atom_site_fract_y
_atom_site_fract_z
Si Si1 0.331740 0.554223 0.042028
Si Si2 0.826068 0.002445 0.365895
Si Si3 0.678246 0.248711 0.304003
Si Si4 0.179738 0.857256 0.380384
Si Si5 0.323157 0.316223 0.016464
Si Si6 0.823841 0.609873 0.303306
O O1 0.500000 0.555824 0.064125
O O2 0.210420 0.531195 0.080590
O O3 0.334983 0.500000 0.000000
O O4 0.299666 0.624119 0.020616
O O5 0.778105 0.928927 0.365453
O O6 0.000000 0.005069 0.354640
O O7 0.737956 0.048473 0.329968
O O8 0.500000 0.251540 0.298345
O O9 0.750000 0.253949 0.250000
O O10 0.724449 0.305974 0.339266
O O11 0.713546 0.179011 0.326904
O O12 0.253958 0.838199 0.431733
O O13 0.000000 0.855524 0.385775
O O14 0.500000 0.307724 0.020874
O O15 0.250000 0.250000 0.000000
O O16 0.750000 0.612494 0.250000
O O17 0.000000 0.605999 0.299281
#
# Coordination Sequence:
#
# PCOD9482484 Si02
#       6
#    16  16  16  16  16  16
#     4  10  21  40  61  82 115 156 198 237 286 346
#     4  11  23  37  59  89 120 153 194 242 292 346
#     4   9  20  39  61  84 112 149 189 234 287 342
#     4  10  22  40  59  85 120 154 193 239 290 345
#     4  11  24  40  60  86 117 154 195 242 291 345
#     4  10  21  39  62  86 116 151 193 240 291 350
#
# _framework density 9.4062319999999993
#
# number of rings (size 3 to 8) (size 9 to 14) (size 15 to 20)
#    0.000    1.833    1.667    1.500    2.333    4.333 
#    0.000    1.667    0.000    0.000    0.000    0.000 
#    0.000    0.000    0.000    0.000    0.000    0.000 
#
# Total GULP energy -267847.541192 kJ/mol
# GULP energy per Si atom -5580.157108 kJ/mol
# Density = 0.938482 g / cm^3
# Si number density = 9.406232 Si / 1000 Ang^3
#
#
#
# Elastic Constant Matrix: (Units=GPa)
#
#
# Indices 1 2 3 4 5 6 
#
# 1 38.4430 71.8836 31.9032 0.0000 0.0000 0.0000
# 2 71.8836 214.0839 71.7390 0.0000 0.0000 0.0000
# 3 31.9032 71.7390 52.0778 0.0000 0.0000 0.0000
# 4 0.0000 0.0000 0.0000 34.6018 0.0000 0.0000
# 5 0.0000 0.0000 0.0000 0.0000 32.4768 0.0000
# 6 0.0000 0.0000 0.0000 0.0000 0.0000 30.5641
#
#
#
# Elastic Compliance Matrix: (Units=1/GPa)
#
#
# Indices 1 2 3 4 5 6 
#
# 1 0.082454 -0.019984 -0.022982 0.000000 0.000000 0.000000
# 2 -0.019984 0.013520 -0.006381 0.000000 0.000000 0.000000
# 3 -0.022982 -0.006381 0.042072 0.000000 0.000000 0.000000
# 4 0.000000 0.000000 0.000000 0.028900 0.000000 0.000000
# 5 0.000000 0.000000 0.000000 0.000000 0.030791 0.000000
# 6 0.000000 0.000000 0.000000 0.000000 0.000000 0.032718
#
#
# Mechanical properties :
#
#
# Convention : Reuss Voigt Hill
#
# Bulk Modulus (GPa) = 25.41375 72.85071 49.13223
# Shear Modulus (GPa) = 14.60851 28.13379 21.37115
#
# Velocity S-wave (km/s) = 2.78966 3.87135 3.37413
# Velocity P-wave (km/s) = 4.89025 7.66759 6.43065
#
# Compressibility (1/GPa) = 0.03934877
#
# Stress axis : x y z
#
# Youngs Moduli (GPa) = 12.12805 73.96676 23.76904
#
# Poissons Ratio (x) = 1.47818 0.54627
# Poissons Ratio (y) = 0.24237 0.15167
# Poissons Ratio (z) = 0.27873 0.47200
#
# Static dielectric constant tensor:
#      x y z
#    x 1.779150 0.000000 0.000000 
#    y 0.000000 1.678510 0.000000 
#    z 0.000000 0.000000 1.597240 
# 
# From -- ./inp_files/48128.got.cif
#   From: 2010.05.17/outbox.ucp.g08.bks.cvg/sg64_25_cif.got.tgz:48128.got - 2010.06.11 16:36:46.
