data_PCOD9482961
_publ_section_title
;
Structure prediction by ZEFSAII (Michael W. Deem and Ramdas Pophale) SiO2 
 PCOD9482961
Probable space group: C M M M
;
_chemical_formula_sum "Si O2"
_cell_formula_units_Z 72
_cell_length_a 7.677196
_cell_length_b 24.229242
_cell_length_c 18.683636
_cell_angle_alpha 90.000000
_cell_angle_beta 90.000000
_cell_angle_gamma 90.000000
_cell_volume 3475.392453
_symmetry_space_group_name_H-M "C M M M"
_symmetry_group_IT_number 65
_symmetry_cell_setting 'orthorhombic'
loop_
_space_group_symop_operation_xyz
x,y,z
-x,-y,z
x,-y,-z
-x,y,-z
-x,-y,-z
x,y,-z
-x,y,z
x,-y,z
1/2+x,1/2+y,z
1/2-x,1/2-y,z
1/2+x,1/2-y,-z
1/2-x,1/2+y,-z
1/2-x,1/2-y,-z
1/2+x,1/2+y,-z
1/2-x,1/2+y,z
1/2+x,1/2-y,z
loop_
_atom_site_type_symbol
_atom_site_label
_atom_site_fract_x
_atom_site_fract_y
_atom_site_fract_z
Si Si1 0.713605 0.565496 0.500000
Si Si2 0.299290 0.000000 0.899805
Si Si3 0.708115 0.607709 0.348091
Si Si4 0.205728 0.685791 0.779707
Si Si5 0.213525 0.622902 0.077992
Si Si6 0.787977 0.000000 0.737079
O O1 0.764539 0.500000 0.500000
O O2 0.500000 0.564354 0.500000
O O3 0.772470 0.598285 0.428971
O O4 0.224661 0.940785 0.921429
O O5 0.290678 0.000000 0.814748
O O6 0.500000 0.000000 0.923214
O O7 0.500000 0.604477 0.353316
O O8 0.744297 0.659372 0.296734
O O9 0.768688 0.554282 0.304394
O O10 0.250000 0.750000 0.783217
O O11 0.277032 0.653637 0.850129
O O12 0.000000 0.679921 0.784241
O O13 0.000000 0.622021 0.080880
O O14 0.260797 0.647401 0.000000
O O15 0.000000 0.000000 0.742108
#
# Coordination Sequence:
#
# PCOD9482961 Si02
#       6
#     8   8  16  16  16   8
#     4   9  16  30  56  89 118 145 176 212 261 324
#     4  10  17  30  53  81 110 142 178 215 264 329
#     4  10  19  34  57  85 115 145 179 218 265 322
#     4  11  23  39  58  78 105 143 189 234 275 319
#     4   9  18  32  53  81 109 139 177 222 271 325
#     4  10  18  28  51  83 115 144 172 214 267 322
#
# _framework density 20.717084
#
# number of rings (size 3 to 8) (size 9 to 14) (size 15 to 20)
#    0.000    2.111    3.333    1.000    0.000    1.778 
#    0.000    1.111    0.000    6.667    0.000    0.000 
#    0.000    0.000    0.000    0.000    0.000    0.000 
#
# Total GULP energy -200764.688760 kJ/mol
# GULP energy per Si atom -5576.796910 kJ/mol
# Density = 2.066993 g / cm^3
# Si number density = 20.717084 Si / 1000 Ang^3
#
#
#
# Elastic Constant Matrix: (Units=GPa)
#
#
# Indices 1 2 3 4 5 6 
#
# 1 32.3364 -3.0585 13.1972 0.0000 0.0000 0.0000
# 2 -3.0585 129.9085 88.3154 0.0000 0.0000 0.0000
# 3 13.1972 88.3154 233.6653 0.0000 0.0000 0.0000
# 4 0.0000 0.0000 0.0000 5.6022 0.0000 0.0000
# 5 0.0000 0.0000 0.0000 0.0000 17.8967 0.0000
# 6 0.0000 0.0000 0.0000 0.0000 0.0000 -10.5032
#
#
#
# Elastic Compliance Matrix: (Units=1/GPa)
#
#
# Indices 1 2 3 4 5 6 
#
# 1 0.032341 0.002696 -0.002846 0.000000 0.000000 0.000000
# 2 0.002696 0.010584 -0.004153 0.000000 0.000000 0.000000
# 3 -0.002846 -0.004153 0.006010 0.000000 0.000000 0.000000
# 4 0.000000 0.000000 0.000000 0.178502 0.000000 0.000000
# 5 0.000000 0.000000 0.000000 0.000000 0.055876 0.000000
# 6 0.000000 0.000000 0.000000 0.000000 0.000000 -0.095209
#
#
# Mechanical properties :
#
#
# Convention : Reuss Voigt Hill
#
# Bulk Modulus (GPa) = 24.79493 65.86869 45.33181
# Shear Modulus (GPa) = 23.79215 22.42953 23.11084
#
# Velocity S-wave (km/s) = 3.39253 3.29395 3.34360
# Velocity P-wave (km/s) = 5.22877 6.80663 6.06919
#
# Compressibility (1/GPa) = 0.04033082
#
# Stress axis : x y z
#
# Youngs Moduli (GPa) = 30.92026 94.47956 166.39296
#
# Poissons Ratio (x) = -0.25471 0.47348
# Poissons Ratio (y) = -0.08336 0.69098
# Poissons Ratio (z) = 0.08799 0.39234
#
# Static dielectric constant tensor:
#      x y z
#    x 1.771450 0.000000 0.000000 
#    y 0.000000 1.688690 0.000000 
#    z 0.000000 0.000000 1.776130 
# 
# From -- ./inp_files/51293.got.cif
#   From: 2010.05.17/outbox.cif.g08.bks.cpg/sg65_26_cif.got.tgz:51293.got - 2010.06.03 17:01:31.
