data_PCOD9482775
_publ_section_title
;
Structure prediction by ZEFSAII (Michael W. Deem and Ramdas Pophale) SiO2 
 PCOD9482775
Probable space group: C M M M
;
_chemical_formula_sum "Si O2"
_cell_formula_units_Z 112
_cell_length_a 17.343737
_cell_length_b 28.470287
_cell_length_c 14.718980
_cell_angle_alpha 90.000000
_cell_angle_beta 90.000000
_cell_angle_gamma 90.000000
_cell_volume 7267.955166
_symmetry_space_group_name_H-M "C M M M"
_symmetry_group_IT_number 65
_symmetry_cell_setting 'orthorhombic'
loop_
_space_group_symop_operation_xyz
x,y,z
-x,-y,z
x,-y,-z
-x,y,-z
-x,-y,-z
x,y,-z
-x,y,z
x,-y,z
1/2+x,1/2+y,z
1/2-x,1/2-y,z
1/2+x,1/2-y,-z
1/2-x,1/2+y,-z
1/2-x,1/2-y,-z
1/2+x,1/2+y,-z
1/2-x,1/2+y,z
1/2+x,1/2-y,z
loop_
_atom_site_type_symbol
_atom_site_label
_atom_site_fract_x
_atom_site_fract_y
_atom_site_fract_z
Si Si1 0.267914 0.551874 0.108674
Si Si2 0.300689 0.849632 0.106096
Si Si3 0.093887 0.237653 0.601289
Si Si4 0.087983 0.910175 0.208813
Si Si5 0.093599 0.128949 0.398902
Si Si6 0.374174 0.684861 0.106505
Si Si7 0.909065 0.719103 0.211888
O O1 0.236697 0.500000 0.128686
O O2 0.215547 0.596490 0.134076
O O3 0.350428 0.558747 0.155966
O O4 0.279358 0.555832 0.000000
O O5 0.217986 0.823414 0.112068
O O6 0.361400 0.822519 0.166959
O O7 0.324157 0.848631 0.000000
O O8 0.118106 0.252647 0.500000
O O9 0.117681 0.183256 0.614457
O O10 0.118928 0.268670 0.686164
O O11 0.000000 0.237564 0.602558
O O12 0.115440 0.901847 0.312406
O O13 0.089591 0.859028 0.160156
O O14 0.000000 0.927672 0.207666
O O15 0.118307 0.113744 0.500000
O O16 0.000000 0.129316 0.398593
O O17 0.397005 0.733610 0.152662
O O18 0.395506 0.683878 0.000000
O O19 0.000000 0.708705 0.214296
#
# Coordination Sequence:
#
# PCOD9482775 Si02
#       7
#    16  16  16  16  16  16  16
#     4   9  19  35  51  64  81 113 152 184 224 275
#     4   9  19  33  46  61  86 121 152 178 214 267
#     4   8  14  25  40  60  89 123 153 177 207 250
#     4  10  17  26  43  69  93 114 147 186 219 251
#     4   8  13  23  39  59  87 122 154 179 207 250
#     4  10  19  29  40  59  93 132 154 165 202 265
#     4  11  19  27  44  69  92 116 148 186 220 248
#
# _framework density 15.410112
#
# number of rings (size 3 to 8) (size 9 to 14) (size 15 to 20)
#    0.000    2.714    1.429    3.429    0.000    4.286 
#    0.000    0.714    0.000    6.000    0.000    4.000 
#    0.000    0.000    0.000    3.571    0.000    0.000 
#
# Total GULP energy -312010.877310 kJ/mol
# GULP energy per Si atom -5571.622809 kJ/mol
# Density = 1.537504 g / cm^3
# Si number density = 15.410112 Si / 1000 Ang^3
#
#
#
# Elastic Constant Matrix: (Units=GPa)
#
#
# Indices 1 2 3 4 5 6 
#
# 1 21.6687 12.8729 8.3273 0.0000 0.0000 0.0000
# 2 12.8729 49.6576 9.0129 0.0000 0.0000 0.0000
# 3 8.3273 9.0129 56.3831 0.0000 0.0000 0.0000
# 4 0.0000 0.0000 0.0000 13.9809 0.0000 0.0000
# 5 0.0000 0.0000 0.0000 0.0000 202.0526 0.0000
# 6 0.0000 0.0000 0.0000 0.0000 0.0000 4.6890
#
#
#
# Elastic Compliance Matrix: (Units=1/GPa)
#
#
# Indices 1 2 3 4 5 6 
#
# 1 0.056574 -0.013542 -0.006191 0.000000 0.000000 0.000000
# 2 -0.013542 0.023981 -0.001833 0.000000 0.000000 0.000000
# 3 -0.006191 -0.001833 0.018943 0.000000 0.000000 0.000000
# 4 0.000000 0.000000 0.000000 0.071526 0.000000 0.000000
# 5 0.000000 0.000000 0.000000 0.000000 0.004949 0.000000
# 6 0.000000 0.000000 0.000000 0.000000 0.000000 0.213266
#
#
# Mechanical properties :
#
#
# Convention : Reuss Voigt Hill
#
# Bulk Modulus (GPa) = 17.74132 20.90397 19.32264
# Shear Modulus (GPa) = 11.08252 50.64425 30.86338
#
# Velocity S-wave (km/s) = 2.68465 5.73896 4.48012
# Velocity P-wave (km/s) = 4.59865 7.58345 6.27122
#
# Compressibility (1/GPa) = 0.05636559
#
# Stress axis : x y z
#
# Youngs Moduli (GPa) = 17.67604 41.69920 52.78935
#
# Poissons Ratio (x) = 0.56470 0.32681
# Poissons Ratio (y) = 0.23937 0.09678
# Poissons Ratio (z) = 0.10943 0.07645
#
# Static dielectric constant tensor:
#      x y z
#    x 1.508000 0.000000 0.000000 
#    y 0.000000 1.506980 0.000000 
#    z 0.000000 0.000000 1.539690 
# 
# From -- ./inp_files/41373.got.cif
#   From: 2010.05.17/outbox.cif.g08.bks.cpg/sg65_21_cif.got.tgz:41373.got - 2010.06.03 17:01:31.
