data_PCOD9482955
_publ_section_title
;
Structure prediction by ZEFSAII (Michael W. Deem and Ramdas Pophale) SiO2 
 PCOD9482955
Probable space group: C M M M
;
_chemical_formula_sum "Si O2"
_cell_formula_units_Z 104
_cell_length_a 27.622004
_cell_length_b 13.787793
_cell_length_c 18.145520
_cell_angle_alpha 90.000000
_cell_angle_beta 90.000000
_cell_angle_gamma 90.000000
_cell_volume 6910.657300
_symmetry_space_group_name_H-M "C M M M"
_symmetry_group_IT_number 65
_symmetry_cell_setting 'orthorhombic'
loop_
_space_group_symop_operation_xyz
x,y,z
-x,-y,z
x,-y,-z
-x,y,-z
-x,-y,-z
x,y,-z
-x,y,z
x,-y,z
1/2+x,1/2+y,z
1/2-x,1/2-y,z
1/2+x,1/2-y,-z
1/2-x,1/2+y,-z
1/2-x,1/2-y,-z
1/2+x,1/2+y,-z
1/2-x,1/2+y,z
1/2+x,1/2-y,z
loop_
_atom_site_type_symbol
_atom_site_label
_atom_site_fract_x
_atom_site_fract_y
_atom_site_fract_z
Si Si1 0.054772 0.117396 0.000000
Si Si2 0.942735 0.114203 0.697063
Si Si3 0.876514 0.231630 0.583761
Si Si4 0.196453 0.771371 0.213077
Si Si5 0.787814 0.113537 0.638032
Si Si6 0.388071 0.615467 0.852222
Si Si7 0.822567 0.385702 0.666665
O O1 0.082612 0.143009 0.074693
O O2 0.000000 0.154899 0.000000
O O3 0.052197 0.000000 0.000000
O O4 0.913601 0.177946 0.638229
O O5 0.920203 0.129005 0.778382
O O6 0.000000 0.134748 0.697229
O O7 0.936126 0.000000 0.679207
O O8 0.893403 0.233792 0.500000
O O9 0.825589 0.172836 0.589362
O O10 0.863035 0.337050 0.615746
O O11 0.250000 0.750000 0.183319
O O12 0.201825 0.850840 0.278645
O O13 0.158654 0.816983 0.157248
O O14 0.178602 0.675768 0.257305
O O15 0.730423 0.130810 0.628977
O O16 0.797094 0.000000 0.629988
O O17 0.375955 0.500000 0.856051
O O18 0.828108 0.500000 0.678104
#
# Coordination Sequence:
#
# PCOD9482955 Si02
#       7
#     8  16  16  16  16  16  16
#     4   9  18  30  47  78 111 131 152 185 226 278
#     4  10  20  33  50  70  92 121 155 191 235 287
#     4  11  21  31  44  65  94 125 160 200 240 285
#     4   9  16  27  46  72  97 125 163 195 230 276
#     4   9  16  28  45  67  94 124 156 193 239 287
#     4  10  17  30  52  75 103 132 153 181 229 286
#     4   9  18  31  47  66  91 123 162 205 241 275
#
# _framework density 15.049219000000001
#
# number of rings (size 3 to 8) (size 9 to 14) (size 15 to 20)
#    0.000    2.385    3.077    2.769    0.000    5.538 
#    0.000    2.692    0.000    0.462    0.000    1.615 
#    0.000    0.615    0.000    0.000    0.000    0.000 
#
# Total GULP energy -289737.643347 kJ/mol
# GULP energy per Si atom -5571.877757 kJ/mol
# Density = 1.501497 g / cm^3
# Si number density = 15.049219 Si / 1000 Ang^3
#
#
#
# Elastic Constant Matrix: (Units=GPa)
#
#
# Indices 1 2 3 4 5 6 
#
# 1 92.3305 39.4577 59.0872 0.0000 0.0000 0.0000
# 2 39.4577 75.6986 33.3566 0.0000 0.0000 0.0000
# 3 59.0872 33.3566 96.2965 0.0000 0.0000 0.0000
# 4 0.0000 0.0000 0.0000 8.7912 0.0000 0.0000
# 5 0.0000 0.0000 0.0000 0.0000 9.8739 0.0000
# 6 0.0000 0.0000 0.0000 0.0000 0.0000 25.9587
#
#
#
# Elastic Compliance Matrix: (Units=1/GPa)
#
#
# Indices 1 2 3 4 5 6 
#
# 1 0.019821 -0.005868 -0.010129 0.000000 0.000000 0.000000
# 2 -0.005868 0.017327 -0.002401 0.000000 0.000000 0.000000
# 3 -0.010129 -0.002401 0.017432 0.000000 0.000000 0.000000
# 4 0.000000 0.000000 0.000000 0.113750 0.000000 0.000000
# 5 0.000000 0.000000 0.000000 0.000000 0.101277 0.000000
# 6 0.000000 0.000000 0.000000 0.000000 0.000000 0.038523
#
#
# Mechanical properties :
#
#
# Convention : Reuss Voigt Hill
#
# Bulk Modulus (GPa) = 56.23621 58.68094 57.45858
# Shear Modulus (GPa) = 14.25093 17.75302 16.00198
#
# Velocity S-wave (km/s) = 3.08060 3.43835 3.26438
# Velocity P-wave (km/s) = 7.07833 7.40543 7.24373
#
# Compressibility (1/GPa) = 0.01778214
#
# Stress axis : x y z
#
# Youngs Moduli (GPa) = 50.45270 57.71286 57.36681
#
# Poissons Ratio (x) = 0.33866 0.58108
# Poissons Ratio (y) = 0.29606 0.13776
# Poissons Ratio (z) = 0.51104 0.13860
#
# Static dielectric constant tensor:
#      x y z
#    x 1.517040 0.000000 0.000000 
#    y 0.000000 1.495430 0.000000 
#    z 0.000000 0.000000 1.489010 
# 
# From -- ./inp_files/57633.got.cif
#   From: 2010.05.17/outbox.cif.g08.bks.cpg/sg65_29_cif.got.tgz:57633.got - 2010.06.03 17:01:31.
