data_PCOD9482117
_publ_section_title
;
Structure prediction by ZEFSAII (Michael W. Deem and Ramdas Pophale) SiO2 
 PCOD9482117
Probable space group: C M C A
;
_chemical_formula_sum "Si O2"
_cell_formula_units_Z 56
_cell_length_a 7.538966
_cell_length_b 10.336083
_cell_length_c 28.486323
_cell_angle_alpha 90.000000
_cell_angle_beta 90.000000
_cell_angle_gamma 90.000000
_cell_volume 2219.750524
_symmetry_space_group_name_H-M "C M C A"
_symmetry_group_IT_number 64
_symmetry_cell_setting 'orthorhombic'
loop_
_space_group_symop_operation_xyz
x,y,z
-x,1/2-y,1/2+z
x,-y,-z
-x,1/2+y,1/2-z
-x,-y,-z
x,1/2+y,1/2-z
-x,y,z
x,1/2-y,1/2+z
1/2+x,1/2+y,z
1/2-x,-y,1/2+z
1/2+x,1/2-y,-z
1/2-x,y,1/2-z
1/2-x,1/2-y,-z
1/2+x,y,1/2-z
1/2-x,1/2+y,z
1/2+x,-y,1/2+z
loop_
_atom_site_type_symbol
_atom_site_label
_atom_site_fract_x
_atom_site_fract_y
_atom_site_fract_z
Si Si1 0.790882 0.623817 0.468098
Si Si2 0.789874 0.122256 0.194931
Si Si3 0.798706 0.626075 0.863014
Si Si4 0.000000 0.746786 0.586436
O O1 0.749928 0.500000 0.500000
O O2 0.750000 0.750000 0.500000
O O3 0.656871 0.645561 0.425400
O O4 0.000000 0.623553 0.457031
O O5 0.750000 0.121023 0.250000
O O6 0.733319 0.257030 0.171415
O O7 0.000000 0.111556 0.188965
O O8 0.706072 0.002026 0.168170
O O9 0.655422 0.636512 0.903702
O O10 0.000000 0.650732 0.878306
#
# Coordination Sequence:
#
# PCOD9482117 Si02
#       4
#    16  16  16   8
#     4  11  25  48  73 105 133 177 230 273 338 414
#     4  11  24  44  70 100 136 184 237 279 333 407
#     4  11  26  45  66 104 138 180 231 280 345 396
#     4  12  25  46  71 100 145 178 217 290 343 402
#
# _framework density 25.228061
#
# number of rings (size 3 to 8) (size 9 to 14) (size 15 to 20)
#    0.000    0.857    2.857    3.000    4.000    4.571 
#    0.000    0.000    0.000    0.000    0.000    0.000 
#    0.000    0.000    0.000    0.000    0.000    0.000 
#
# Total GULP energy -156045.017403 kJ/mol
# GULP energy per Si atom -5573.036336 kJ/mol
# Density = 2.517064 g / cm^3
# Si number density = 25.228061 Si / 1000 Ang^3
#
#
#
# Elastic Constant Matrix: (Units=GPa)
#
#
# Indices 1 2 3 4 5 6 
#
# 1 168.6404 23.9184 15.0917 0.0000 0.0000 0.0000
# 2 23.9184 171.4479 48.6765 0.0000 0.0000 0.0000
# 3 15.0917 48.6765 100.3008 0.0000 0.0000 0.0000
# 4 0.0000 0.0000 0.0000 54.4793 0.0000 0.0000
# 5 0.0000 0.0000 0.0000 0.0000 49.9528 0.0000
# 6 0.0000 0.0000 0.0000 0.0000 0.0000 -59.4313
#
#
#
# Elastic Compliance Matrix: (Units=1/GPa)
#
#
# Indices 1 2 3 4 5 6 
#
# 1 0.006079 -0.000682 -0.000583 0.000000 0.000000 0.000000
# 2 -0.000682 0.006841 -0.003217 0.000000 0.000000 0.000000
# 3 -0.000583 -0.003217 0.011619 0.000000 0.000000 0.000000
# 4 0.000000 0.000000 0.000000 0.018356 0.000000 0.000000
# 5 0.000000 0.000000 0.000000 0.000000 0.020019 0.000000
# 6 0.000000 0.000000 0.000000 0.000000 0.000000 -0.016826
#
#
# Mechanical properties :
#
#
# Convention : Reuss Voigt Hill
#
# Bulk Modulus (GPa) = 64.21479 68.41802 66.31640
# Shear Modulus (GPa) = 82.99405 32.51368 57.75386
#
# Velocity S-wave (km/s) = 5.74186 3.59387 4.78982
# Velocity P-wave (km/s) = 8.33472 6.66332 7.54544
#
# Compressibility (1/GPa) = 0.01557274
#
# Stress axis : x y z
#
# Youngs Moduli (GPa) = 164.50683 146.16972 86.06397
#
# Poissons Ratio (x) = 0.09974 0.05022
# Poissons Ratio (y) = 0.11226 0.27691
# Poissons Ratio (z) = 0.09599 0.47030
#
# Static dielectric constant tensor:
#      x y z
#    x 1.980330 0.000000 0.000000 
#    y 0.000000 2.039300 0.000000 
#    z 0.000000 0.000000 2.183960 
# 
# From -- ./inp_files/47429.got.cif
#   From: 2010.05.17/outbox.cif.g08.bks.cpg/sg64_24_cif.got.tgz:47429.got - 2010.06.03 16:29:19.
