data_PCOD9482443
_publ_section_title
;
Structure prediction by ZEFSAII (Michael W. Deem and Ramdas Pophale) SiO2 
 PCOD9482443
Probable space group: C M C A
;
_chemical_formula_sum "Si O2"
_cell_formula_units_Z 40
_cell_length_a 9.000000
_cell_length_b 27.000000
_cell_length_c 18.000000
_cell_angle_alpha 90.000000
_cell_angle_beta 90.000000
_cell_angle_gamma 90.000000
_cell_volume 4374.000000
_symmetry_space_group_name_H-M "C M C A"
_symmetry_group_IT_number 64
_symmetry_cell_setting 'orthorhombic'
loop_
_space_group_symop_operation_xyz
x,y,z
-x,1/2-y,1/2+z
x,-y,-z
-x,1/2+y,1/2-z
-x,-y,-z
x,1/2+y,1/2-z
-x,y,z
x,1/2-y,1/2+z
1/2+x,1/2+y,z
1/2-x,-y,1/2+z
1/2+x,1/2-y,-z
1/2-x,y,1/2-z
1/2-x,1/2-y,-z
1/2+x,y,1/2-z
1/2-x,1/2+y,z
1/2+x,-y,1/2+z
loop_
_atom_site_type_symbol
_atom_site_label
_atom_site_fract_x
_atom_site_fract_y
_atom_site_fract_z
Si Si1 0.816947 0.122037 0.836853
Si Si2 0.820244 0.573564 0.332308
Si Si3 0.175657 0.727155 0.575471
Si Si4 0.820280 0.020835 0.585523
Si Si5 0.323213 0.326924 0.669297
O O1 0.750000 0.122763 0.750000
O O2 0.780839 0.174158 0.883193
O O3 0.751633 0.073608 0.883610
O O4 0.000000 0.118583 0.832416
O O5 0.750000 0.573890 0.250000
O O6 0.756483 0.523802 0.368922
O O7 0.757416 0.625128 0.367698
O O8 0.000000 0.573917 0.331425
O O9 0.250000 0.750000 0.500000
O O10 0.196230 0.773740 0.630922
O O11 0.000000 0.721394 0.559852
O O12 0.000000 0.023889 0.597257
O O13 0.799280 0.000000 0.500000
O O14 0.500000 0.337292 0.673836
O O15 0.250000 0.322520 0.750000
#
# Coordination Sequence:
#
# PCOD9482443 Si02
#       5
#    16  16  16  16  16
#     4  11  24  44  68  97 130 171 220 266 320 385
#     4  11  22  38  62  90 122 160 203 253 307 369
#     4  10  24  41  62  92 128 166 209 259 314 375
#     4  11  25  43  64  91 126 166 209 261 320 377
#     4  10  20  37  60  89 122 159 204 251 304 367
#
# _framework density 9.1449470000000002
#
# number of rings (size 3 to 8) (size 9 to 14) (size 15 to 20)
#    0.000    1.400    0.000    6.000    2.800    4.800 
#    0.000    0.000    0.000    0.000    0.000    0.000 
#    0.000    0.000    0.000    0.000    0.000    0.000 
#
# Total GULP energy -222744.125379 kJ/mol
# GULP energy per Si atom -5568.603134 kJ/mol
# Density = 0.912413 g / cm^3
# Si number density = 9.144947 Si / 1000 Ang^3
#
#
#
# Elastic Constant Matrix: (Units=GPa)
#
#
# Indices 1 2 3 4 5 6 
#
# 1 142.9101 79.3682 55.2436 0.0000 0.0000 0.0000
# 2 79.3682 210.8365 70.8831 0.0000 0.0000 0.0000
# 3 55.2436 70.8831 109.0807 0.0000 0.0000 0.0000
# 4 0.0000 0.0000 0.0000 37.6402 0.0000 0.0000
# 5 0.0000 0.0000 0.0000 0.0000 36.3357 0.0000
# 6 0.0000 0.0000 0.0000 0.0000 0.0000 42.4964
#
#
#
# Elastic Compliance Matrix: (Units=1/GPa)
#
#
# Indices 1 2 3 4 5 6 
#
# 1 0.009665 -0.002550 -0.003238 0.000000 0.000000 0.000000
# 2 -0.002550 0.006742 -0.003089 0.000000 0.000000 0.000000
# 3 -0.003238 -0.003089 0.012815 0.000000 0.000000 0.000000
# 4 0.000000 0.000000 0.000000 0.026567 0.000000 0.000000
# 5 0.000000 0.000000 0.000000 0.000000 0.027521 0.000000
# 6 0.000000 0.000000 0.000000 0.000000 0.000000 0.023531
#
#
# Mechanical properties :
#
#
# Convention : Reuss Voigt Hill
#
# Bulk Modulus (GPa) = 87.20511 97.09078 92.14795
# Shear Modulus (GPa) = 38.93520 40.44996 39.69258
#
# Velocity S-wave (km/s) = 4.61888 4.70787 4.66359
# Velocity P-wave (km/s) = 8.73088 9.09679 8.91571
#
# Compressibility (1/GPa) = 0.01146722
#
# Stress axis : x y z
#
# Youngs Moduli (GPa) = 103.46437 148.33400 78.03353
#
# Poissons Ratio (x) = 0.37822 0.25267
# Poissons Ratio (y) = 0.26381 0.24108
# Poissons Ratio (z) = 0.33502 0.45827
#
# Static dielectric constant tensor:
#      x y z
#    x 1.631970 0.000000 0.000000 
#    y 0.000000 1.664970 0.000000 
#    z 0.000000 0.000000 1.683850 
# 
# From -- ./inp_files/29734.got.cif
#   From: 2010.05.17/outbox.ucp.g08.bks.cvg/sg64_15_cif.got.tgz:29734.got - 2010.06.11 16:36:46.
