data_PCOD9482392
_publ_section_title
;
Structure prediction by ZEFSAII (Michael W. Deem and Ramdas Pophale) SiO2 
 PCOD9482392
Probable space group: C M C A
;
_chemical_formula_sum "Si O2"
_cell_formula_units_Z 48
_cell_length_a 9.000000
_cell_length_b 24.000000
_cell_length_c 24.000000
_cell_angle_alpha 90.000000
_cell_angle_beta 90.000000
_cell_angle_gamma 90.000000
_cell_volume 5184.000000
_symmetry_space_group_name_H-M "C M C A"
_symmetry_group_IT_number 64
_symmetry_cell_setting 'orthorhombic'
loop_
_space_group_symop_operation_xyz
x,y,z
-x,1/2-y,1/2+z
x,-y,-z
-x,1/2+y,1/2-z
-x,-y,-z
x,1/2+y,1/2-z
-x,y,z
x,1/2-y,1/2+z
1/2+x,1/2+y,z
1/2-x,-y,1/2+z
1/2+x,1/2-y,-z
1/2-x,y,1/2-z
1/2-x,1/2-y,-z
1/2+x,y,1/2-z
1/2-x,1/2+y,z
1/2+x,-y,1/2+z
loop_
_atom_site_type_symbol
_atom_site_label
_atom_site_fract_x
_atom_site_fract_y
_atom_site_fract_z
Si Si1 0.680208 0.408061 0.607454
Si Si2 0.675161 0.688567 0.807876
Si Si3 0.677732 0.096650 0.866404
Si Si4 0.826921 0.320214 0.805855
Si Si5 0.679988 0.437268 0.488515
Si Si6 0.822071 0.004584 0.191262
O O1 0.500000 0.416924 0.609317
O O2 0.723204 0.352905 0.640253
O O3 0.724762 0.404116 0.543297
O O4 0.757161 0.457690 0.641340
O O5 0.500000 0.675091 0.809401
O O6 0.750000 0.670929 0.750000
O O7 0.769643 0.658627 0.854700
O O8 0.692743 0.754671 0.811826
O O9 0.500000 0.089489 0.860858
O O10 0.729049 0.081507 0.928342
O O11 0.762649 0.056904 0.823284
O O12 0.750000 0.340213 0.750000
O O13 0.000000 0.331584 0.798894
O O14 0.728068 0.500000 0.500000
O O15 0.500000 0.436775 0.486248
O O16 0.750000 0.022064 0.250000
O O17 0.000000 0.006970 0.193924
#
# Coordination Sequence:
#
# PCOD9482392 Si02
#       6
#    16  16  16  16  16  16
#     4  10  19  36  58  81 108 142 184 223 264 320
#     4  10  20  36  55  80 110 142 179 222 274 323
#     4  11  21  36  57  80 106 142 184 223 265 319
#     4   9  19  34  56  80 108 143 178 221 270 322
#     4   9  17  33  57  80 105 143 184 220 262 320
#     4  12  24  36  52  79 111 142 174 221 276 326
#
# _framework density 9.2592590000000001
#
# number of rings (size 3 to 8) (size 9 to 14) (size 15 to 20)
#    0.000    1.833    1.667    3.500    0.000    2.667 
#    0.000    3.333    0.000    0.000    0.000    0.000 
#    0.000    0.000    0.000    0.000    0.000    0.000 
#
# Total GULP energy -267632.823131 kJ/mol
# GULP energy per Si atom -5575.683815 kJ/mol
# Density = 0.923818 g / cm^3
# Si number density = 9.259259 Si / 1000 Ang^3
#
#
#
# Elastic Constant Matrix: (Units=GPa)
#
#
# Indices 1 2 3 4 5 6 
#
# 1 44.4847 32.6752 24.7679 0.0000 0.0000 0.0000
# 2 32.6752 6.2237 38.1206 0.0000 0.0000 0.0000
# 3 24.7679 38.1206 102.6378 0.0000 0.0000 0.0000
# 4 0.0000 0.0000 0.0000 -6.5068 0.0000 0.0000
# 5 0.0000 0.0000 0.0000 0.0000 18.4283 0.0000
# 6 0.0000 0.0000 0.0000 0.0000 0.0000 30.3162
#
#
#
# Elastic Compliance Matrix: (Units=1/GPa)
#
#
# Indices 1 2 3 4 5 6 
#
# 1 0.009262 0.027404 -0.012413 0.000000 0.000000 0.000000
# 2 0.027404 -0.044950 0.010082 0.000000 0.000000 0.000000
# 3 -0.012413 0.010082 0.008994 0.000000 0.000000 0.000000
# 4 0.000000 0.000000 0.000000 -0.153685 0.000000 0.000000
# 5 0.000000 0.000000 0.000000 0.000000 0.054264 0.000000
# 6 0.000000 0.000000 0.000000 0.000000 0.000000 0.032986
#
#
# Mechanical properties :
#
#
# Convention : Reuss Voigt Hill
#
# Bulk Modulus (GPa) = 42.64178 38.27488 40.45833
# Shear Modulus (GPa) = -36.91183 12.29969 -12.30607
#
# Velocity S-wave (km/s) = -4.46941 2.57997 -2.58064
# Velocity P-wave (km/s) = 1.88618 5.43951 3.60768
#
# Compressibility (1/GPa) = 0.02345118
#
# Stress axis : x y z
#
# Youngs Moduli (GPa) = 107.96690 -22.24684 111.18648
#
# Poissons Ratio (x) = 0.60965 1.38017
# Poissons Ratio (y) = -2.95870 -1.12098
# Poissons Ratio (z) = 1.34020 0.22429
#
# Static dielectric constant tensor:
#      x y z
#    x 1.621600 0.000000 0.000000 
#    y 0.000000 1.687200 0.000000 
#    z 0.000000 0.000000 1.702570 
# 
# From -- ./inp_files/43042.got.cif
#   From: 2010.05.17/outbox.ucp.g08.bks.cvg/sg64_22_cif.got.tgz:43042.got - 2010.06.11 16:36:46.
