data_PCOD9482798
_publ_section_title
;
Structure prediction by ZEFSAII (Michael W. Deem and Ramdas Pophale) SiO2 
 PCOD9482798
Probable space group: C M M M
;
_chemical_formula_sum "Si O2"
_cell_formula_units_Z 96
_cell_length_a 32.914348
_cell_length_b 13.036411
_cell_length_c 14.335144
_cell_angle_alpha 90.000000
_cell_angle_beta 90.000000
_cell_angle_gamma 90.000000
_cell_volume 6150.994809
_symmetry_space_group_name_H-M "C M M M"
_symmetry_group_IT_number 65
_symmetry_cell_setting 'orthorhombic'
loop_
_space_group_symop_operation_xyz
x,y,z
-x,-y,z
x,-y,-z
-x,y,-z
-x,-y,-z
x,y,-z
-x,y,z
x,-y,z
1/2+x,1/2+y,z
1/2-x,1/2-y,z
1/2+x,1/2-y,-z
1/2-x,1/2+y,-z
1/2-x,1/2-y,-z
1/2+x,1/2+y,-z
1/2-x,1/2+y,z
1/2+x,1/2-y,z
loop_
_atom_site_type_symbol
_atom_site_label
_atom_site_fract_x
_atom_site_fract_y
_atom_site_fract_z
Si Si1 0.046536 0.125035 0.393050
Si Si2 0.878981 0.118916 0.275933
Si Si3 0.767348 0.623878 0.896178
Si Si4 0.302605 0.329525 0.391439
Si Si5 0.716217 0.117361 0.310526
Si Si6 0.173158 0.124508 0.895219
O O1 0.055949 0.155818 0.500000
O O2 0.079936 0.163717 0.319779
O O3 0.000000 0.154238 0.371977
O O4 0.047988 0.000000 0.392324
O O5 0.844257 0.123902 0.354748
O O6 0.857160 0.163947 0.184212
O O7 0.887825 0.000000 0.254095
O O8 0.765416 0.500000 0.898087
O O9 0.789620 0.643990 0.798612
O O10 0.720212 0.658898 0.886768
O O11 0.782575 0.652866 0.000000
O O12 0.295711 0.349571 0.500000
O O13 0.303258 0.207264 0.371773
O O14 0.264464 0.373771 0.333507
O O15 0.703576 0.000000 0.328494
O O16 0.174672 0.000000 0.886269
O O17 0.159227 0.147699 0.000000
#
# Coordination Sequence:
#
# PCOD9482798 Si02
#       6
#    16  16  16  16  16  16
#     4   8  14  24  38  57  79 102 127 154 189 232
#     4  10  17  27  43  60  80 104 128 160 199 234
#     4   8  13  24  42  58  72  95 129 166 200 232
#     4  11  22  30  39  58  77 100 140 171 190 231
#     4  10  19  32  43  53  77 107 131 164 205 232
#     4   8  13  22  37  56  76  99 128 161 195 230
#
# _framework density 15.607231000000001
#
# number of rings (size 3 to 8) (size 9 to 14) (size 15 to 20)
#    0.000    2.833    1.667    3.500    0.000    3.000 
#    0.000    2.500    0.000    0.500    0.000    3.500 
#    0.000    0.667    0.000    3.500    0.000    0.167 
#
# Total GULP energy -267353.757747 kJ/mol
# GULP energy per Si atom -5569.869953 kJ/mol
# Density = 1.557171 g / cm^3
# Si number density = 15.607231 Si / 1000 Ang^3
#
#
#
# Elastic Constant Matrix: (Units=GPa)
#
#
# Indices 1 2 3 4 5 6 
#
# 1 53.1926 -11.7488 21.0439 0.0000 0.0000 0.0000
# 2 -11.7488 40.6627 -7.4804 0.0000 0.0000 0.0000
# 3 21.0439 -7.4804 87.0779 0.0000 0.0000 0.0000
# 4 0.0000 0.0000 0.0000 18.4005 0.0000 0.0000
# 5 0.0000 0.0000 0.0000 0.0000 20.8102 0.0000
# 6 0.0000 0.0000 0.0000 0.0000 0.0000 7.7742
#
#
#
# Elastic Compliance Matrix: (Units=1/GPa)
#
#
# Indices 1 2 3 4 5 6 
#
# 1 0.021912 0.005443 -0.004828 0.000000 0.000000 0.000000
# 2 0.005443 0.026339 0.000947 0.000000 0.000000 0.000000
# 3 -0.004828 0.000947 0.012732 0.000000 0.000000 0.000000
# 4 0.000000 0.000000 0.000000 0.054346 0.000000 0.000000
# 5 0.000000 0.000000 0.000000 0.000000 0.048053 0.000000
# 6 0.000000 0.000000 0.000000 0.000000 0.000000 0.128630
#
#
# Mechanical properties :
#
#
# Convention : Reuss Voigt Hill
#
# Bulk Modulus (GPa) = 15.59866 20.50697 18.05282
# Shear Modulus (GPa) = 16.11563 21.33821 18.72692
#
# Velocity S-wave (km/s) = 3.21686 3.70158 3.46770
# Velocity P-wave (km/s) = 4.87993 5.60686 5.25598
#
# Compressibility (1/GPa) = 0.06410806
#
# Stress axis : x y z
#
# Youngs Moduli (GPa) = 45.63761 37.96589 78.54176
#
# Poissons Ratio (x) = -0.20664 0.37918
# Poissons Ratio (y) = -0.24840 -0.07440
# Poissons Ratio (z) = 0.22033 -0.03596
#
# Static dielectric constant tensor:
#      x y z
#    x 1.508640 0.000000 0.000000 
#    y 0.000000 1.572100 0.000000 
#    z 0.000000 0.000000 1.555950 
# 
# From -- ./inp_files/47881.got.cif
#   From: 2010.05.17/outbox.cif.g08.bks.cpg/sg65_24_cif.got.tgz:47881.got - 2010.06.03 17:01:31.
