data_PCOD9482106
_publ_section_title
;
Structure prediction by ZEFSAII (Michael W. Deem and Ramdas Pophale) SiO2 
 PCOD9482106
Probable space group: C M C A
;
_chemical_formula_sum "Si O2"
_cell_formula_units_Z 64
_cell_length_a 26.233501
_cell_length_b 10.722370
_cell_length_c 9.460630
_cell_angle_alpha 90.000000
_cell_angle_beta 90.000000
_cell_angle_gamma 90.000000
_cell_volume 2661.136187
_symmetry_space_group_name_H-M "C M C A"
_symmetry_group_IT_number 64
_symmetry_cell_setting 'orthorhombic'
loop_
_space_group_symop_operation_xyz
x,y,z
-x,1/2-y,1/2+z
x,-y,-z
-x,1/2+y,1/2-z
-x,-y,-z
x,1/2+y,1/2-z
-x,y,z
x,1/2-y,1/2+z
1/2+x,1/2+y,z
1/2-x,-y,1/2+z
1/2+x,1/2-y,-z
1/2-x,y,1/2-z
1/2-x,1/2-y,-z
1/2+x,y,1/2-z
1/2-x,1/2+y,z
1/2+x,-y,1/2+z
loop_
_atom_site_type_symbol
_atom_site_label
_atom_site_fract_x
_atom_site_fract_y
_atom_site_fract_z
Si Si1 0.000000 0.485140 0.167053
Si Si2 0.813827 0.000000 0.000000
Si Si3 0.411580 0.696893 0.634415
Si Si4 0.250000 0.382138 0.750000
Si Si5 0.500000 0.365974 0.927492
Si Si6 0.346554 0.763607 0.894157
O O1 0.051522 0.408391 0.198012
O O2 0.000000 0.608504 0.258877
O O3 0.000000 0.500000 0.000000
O O4 0.844573 0.877245 0.045529
O O5 0.780168 0.037005 0.135303
O O6 0.450098 0.784822 0.546263
O O7 0.383528 0.768001 0.759998
O O8 0.368738 0.654551 0.522784
O O9 0.291003 0.301850 0.661594
O O10 0.500000 0.500000 0.000000
#
# Coordination Sequence:
#
# PCOD9482106 Si02
#       6
#     8   8  16   8   8  16
#     4  11  24  43  68  98 142 182 231 290 354 416
#     4  12  28  46  76 103 138 197 230 298 376 420
#     4  11  26  43  70 104 142 184 239 293 349 430
#     4  12  28  50  72 106 146 182 246 306 356 434
#     4  11  24  45  70 103 143 186 235 293 359 422
#     4  12  26  48  70 106 145 185 243 295 357 431
#
# _framework density 24.049876000000001
#
# number of rings (size 3 to 8) (size 9 to 14) (size 15 to 20)
#    0.000    0.500    2.500    4.500    8.750    6.000 
#    0.000    0.000    0.000    0.000    0.000    0.000 
#    0.000    0.000    0.000    0.000    0.000    0.000 
#
# Total GULP energy -179266.797508 kJ/mol
# GULP energy per Si atom -5602.087422 kJ/mol
# Density = 2.399514 g / cm^3
# Si number density = 24.049876 Si / 1000 Ang^3
#
#
#
# Elastic Constant Matrix: (Units=GPa)
#
#
# Indices 1 2 3 4 5 6 
#
# 1 114.4606 19.5421 16.5119 0.0000 0.0000 0.0000
# 2 19.5421 68.5490 -5.7388 0.0000 0.0000 0.0000
# 3 16.5119 -5.7388 100.1335 0.0000 0.0000 0.0000
# 4 0.0000 0.0000 0.0000 46.3473 0.0000 0.0000
# 5 0.0000 0.0000 0.0000 0.0000 37.9933 0.0000
# 6 0.0000 0.0000 0.0000 0.0000 0.0000 -8.2060
#
#
#
# Elastic Compliance Matrix: (Units=1/GPa)
#
#
# Indices 1 2 3 4 5 6 
#
# 1 0.009471 -0.002844 -0.001725 0.000000 0.000000 0.000000
# 2 -0.002844 0.015513 0.001358 0.000000 0.000000 0.000000
# 3 -0.001725 0.001358 0.010349 0.000000 0.000000 0.000000
# 4 0.000000 0.000000 0.000000 0.021576 0.000000 0.000000
# 5 0.000000 0.000000 0.000000 0.000000 0.026320 0.000000
# 6 0.000000 0.000000 0.000000 0.000000 0.000000 -0.121862
#
#
# Mechanical properties :
#
#
# Convention : Reuss Voigt Hill
#
# Bulk Modulus (GPa) = 34.58956 38.19705 36.39331
# Shear Modulus (GPa) = -221.50113 32.08211 -94.70951
#
# Velocity S-wave (km/s) = -9.60732 3.65633 -6.28219
# Velocity P-wave (km/s) = 10.42372 5.80878 6.12013
#
# Compressibility (1/GPa) = 0.02891045
#
# Stress axis : x y z
#
# Youngs Moduli (GPa) = 105.58457 64.46334 96.62845
#
# Poissons Ratio (x) = 0.18336 0.16666
# Poissons Ratio (y) = 0.30033 -0.13123
# Poissons Ratio (z) = 0.18211 -0.08755
#
# Static dielectric constant tensor:
#      x y z
#    x 2.027870 0.000000 0.000000 
#    y 0.000000 1.912320 0.000000 
#    z 0.000000 0.000000 1.902310 
# 
# From -- ./inp_files/10920.got.cif
#   From: 2010.05.17/outbox.cif.g08.bks.cpg/sg64_6_cif.got.tgz:10920.got - 2010.06.03 16:29:19.
