data_PCOD9482535
_publ_section_title
;
Structure prediction by ZEFSAII (Michael W. Deem and Ramdas Pophale) SiO2 
 PCOD9482535
Probable space group: C M M M
;
_chemical_formula_sum "Si O2"
_cell_formula_units_Z 96
_cell_length_a 15.658864
_cell_length_b 15.048258
_cell_length_c 20.660574
_cell_angle_alpha 90.000000
_cell_angle_beta 90.000000
_cell_angle_gamma 90.000000
_cell_volume 4868.429259
_symmetry_space_group_name_H-M "C M M M"
_symmetry_group_IT_number 65
_symmetry_cell_setting 'orthorhombic'
loop_
_space_group_symop_operation_xyz
x,y,z
-x,-y,z
x,-y,-z
-x,y,-z
-x,-y,-z
x,y,-z
-x,y,z
x,-y,z
1/2+x,1/2+y,z
1/2-x,1/2-y,z
1/2+x,1/2-y,-z
1/2-x,1/2+y,-z
1/2-x,1/2-y,-z
1/2+x,1/2+y,-z
1/2-x,1/2+y,z
1/2+x,1/2-y,z
loop_
_atom_site_type_symbol
_atom_site_label
_atom_site_fract_x
_atom_site_fract_y
_atom_site_fract_z
Si Si1 0.900285 0.000000 0.273776
Si Si2 0.102941 0.500000 0.389733
Si Si3 0.807226 0.000000 0.849448
Si Si4 0.721282 0.851309 0.072700
Si Si5 0.894871 0.196331 0.698473
Si Si6 0.404291 0.178845 0.811734
Si Si7 0.603415 0.801333 0.429703
Si Si8 0.146761 0.500000 0.248352
O O1 0.889352 0.000000 0.195832
O O2 0.865930 0.905972 0.299755
O O3 0.000000 0.000000 0.290450
O O4 0.120575 0.406686 0.424297
O O5 0.157330 0.500000 0.324445
O O6 0.000000 0.500000 0.374817
O O7 0.791841 0.085420 0.894377
O O8 0.731994 0.000000 0.795004
O O9 0.750000 0.750000 0.068595
O O10 0.643985 0.847186 0.123121
O O11 0.700729 0.882770 0.000000
O O12 0.865547 0.246063 0.764308
O O13 0.866628 0.248528 0.634049
O O14 0.000000 0.199160 0.700016
O O15 0.500000 0.206452 0.827815
O O16 0.403163 0.089214 0.769629
O O17 0.633947 0.768214 0.500000
O O18 0.500000 0.792575 0.429160
#
# Coordination Sequence:
#
# PCOD9482535 Si02
#       8
#     8   8   8  16  16  16  16   8
#     4  10  20  35  54  73  92 121 170 226 265 296
#     4  10  15  24  43  69 105 140 167 198 240 293
#     4  10  21  36  54  76 100 128 166 204 260 302
#     4  10  21  36  53  74 104 137 168 206 253 307
#     4   9  17  29  47  71 100 129 165 218 260 286
#     4  10  18  30  50  75 104 136 168 208 252 300
#     4   9  16  25  41  70 106 139 170 205 250 302
#     4  10  18  28  47  76 105 128 159 197 249 308
#
# _framework density 19.718886000000001
#
# number of rings (size 3 to 8) (size 9 to 14) (size 15 to 20)
#    0.000    2.333    1.667    2.250    0.000    1.333 
#    0.000    0.417    0.000    7.500    0.000    3.500 
#    0.000    0.000    0.000    0.000    0.000    0.000 
#
# Total GULP energy -267566.875574 kJ/mol
# GULP energy per Si atom -5574.309908 kJ/mol
# Density = 1.967401 g / cm^3
# Si number density = 19.718886 Si / 1000 Ang^3
#
#
#
# Elastic Constant Matrix: (Units=GPa)
#
#
# Indices 1 2 3 4 5 6 
#
# 1 7.9996 -3.1990 -2.5272 0.0000 0.0000 0.0000
# 2 -3.1990 122.8566 34.5267 0.0000 0.0000 0.0000
# 3 -2.5272 34.5267 125.1220 0.0000 0.0000 0.0000
# 4 0.0000 0.0000 0.0000 6.5902 0.0000 0.0000
# 5 0.0000 0.0000 0.0000 0.0000 12.3290 0.0000
# 6 0.0000 0.0000 0.0000 0.0000 0.0000 0.6074
#
#
#
# Elastic Compliance Matrix: (Units=1/GPa)
#
#
# Indices 1 2 3 4 5 6 
#
# 1 0.126690 0.002796 0.001787 0.000000 0.000000 0.000000
# 2 0.002796 0.008886 -0.002395 0.000000 0.000000 0.000000
# 3 0.001787 -0.002395 0.008689 0.000000 0.000000 0.000000
# 4 0.000000 0.000000 0.000000 0.151741 0.000000 0.000000
# 5 0.000000 0.000000 0.000000 0.000000 0.081109 0.000000
# 6 0.000000 0.000000 0.000000 0.000000 0.000000 1.646246
#
#
# Mechanical properties :
#
#
# Convention : Reuss Voigt Hill
#
# Bulk Modulus (GPa) = 6.72761 34.84214 20.78487
# Shear Modulus (GPa) = 2.41717 19.05050 10.73384
#
# Velocity S-wave (km/s) = 1.10837 3.11159 2.33565
# Velocity P-wave (km/s) = 2.24881 5.53328 4.22340
#
# Compressibility (1/GPa) = 0.14864129
#
# Stress axis : x y z
#
# Youngs Moduli (GPa) = 7.89329 112.54188 115.08392
#
# Poissons Ratio (x) = -0.31472 -0.20568
# Poissons Ratio (y) = -0.02207 0.27568
# Poissons Ratio (z) = -0.01411 0.26959
#
# Static dielectric constant tensor:
#      x y z
#    x 1.725810 0.000000 0.000000 
#    y 0.000000 1.703190 0.000000 
#    z 0.000000 0.000000 1.705340 
# 
# From -- ./inp_files/62716.got.cif
#   From: 2010.05.17/outbox.cif.g08.bks.cpg/sg65_32_cif.got.tgz:62716.got - 2010.06.03 17:01:31.
