data_PCOD9482399
_publ_section_title
;
Structure prediction by ZEFSAII (Michael W. Deem and Ramdas Pophale) SiO2 
 PCOD9482399
Probable space group: C M C A
;
_chemical_formula_sum "Si O2"
_cell_formula_units_Z 48
_cell_length_a 21.000000
_cell_length_b 12.000000
_cell_length_c 21.000000
_cell_angle_alpha 90.000000
_cell_angle_beta 90.000000
_cell_angle_gamma 90.000000
_cell_volume 5292.000000
_symmetry_space_group_name_H-M "C M C A"
_symmetry_group_IT_number 64
_symmetry_cell_setting 'orthorhombic'
loop_
_space_group_symop_operation_xyz
x,y,z
-x,1/2-y,1/2+z
x,-y,-z
-x,1/2+y,1/2-z
-x,-y,-z
x,1/2+y,1/2-z
-x,y,z
x,1/2-y,1/2+z
1/2+x,1/2+y,z
1/2-x,-y,1/2+z
1/2+x,1/2-y,-z
1/2-x,y,1/2-z
1/2-x,1/2-y,-z
1/2+x,y,1/2-z
1/2-x,1/2+y,z
1/2+x,-y,1/2+z
loop_
_atom_site_type_symbol
_atom_site_label
_atom_site_fract_x
_atom_site_fract_y
_atom_site_fract_z
Si Si1 0.678810 0.596586 0.723097
Si Si2 0.821099 0.772571 0.889830
Si Si3 0.687547 0.888553 0.860842
Si Si4 0.360264 0.354382 0.141026
Si Si5 0.926999 0.044299 0.071565
Si Si6 0.738356 0.571258 0.557949
O O1 0.750000 0.617516 0.750000
O O2 0.663899 0.683220 0.666189
O O3 0.675472 0.468037 0.699915
O O4 0.637225 0.622218 0.784215
O O5 0.760028 0.841860 0.864282
O O6 0.876818 0.857924 0.909324
O O7 0.796533 0.691251 0.947592
O O8 0.643926 0.779423 0.868131
O O9 0.687339 0.980975 0.916412
O O10 0.413877 0.431589 0.111094
O O11 0.294460 0.402239 0.108722
O O12 0.000000 0.082864 0.079580
O O13 0.918182 0.000000 0.000000
O O14 0.767250 0.500000 0.500000
#
# Coordination Sequence:
#
# PCOD9482399 Si02
#       6
#    16  16  16  16  16  16
#     4  11  19  33  54  91 123 152 183 222 300 361
#     4  10  21  35  57  83 114 156 188 235 288 344
#     4  10  20  31  53  87 123 148 177 231 292 353
#     4  11  22  32  57  85 118 156 187 236 286 348
#     4  11  25  44  61  79 110 157 209 244 283 341
#     4  10  20  31  52  89 120 145 179 233 297 350
#
# _framework density 9.0702949999999998
#
# number of rings (size 3 to 8) (size 9 to 14) (size 15 to 20)
#    0.000    1.500    6.667    0.500    7.000    1.333 
#    0.000    0.833    0.000    4.500    0.000    0.000 
#    0.000    0.000    0.000    0.000    0.000    0.000 
#
# Total GULP energy -267343.847848 kJ/mol
# GULP energy per Si atom -5569.663497 kJ/mol
# Density = 0.904965 g / cm^3
# Si number density = 9.070295 Si / 1000 Ang^3
#
#
#
# Elastic Constant Matrix: (Units=GPa)
#
#
# Indices 1 2 3 4 5 6 
#
# 1 52.2229 35.8629 14.9314 0.0000 0.0000 0.0000
# 2 35.8629 158.3392 37.7295 0.0000 0.0000 0.0000
# 3 14.9314 37.7295 70.9373 0.0000 0.0000 0.0000
# 4 0.0000 0.0000 0.0000 33.2224 0.0000 0.0000
# 5 0.0000 0.0000 0.0000 0.0000 7.7843 0.0000
# 6 0.0000 0.0000 0.0000 0.0000 0.0000 23.2765
#
#
#
# Elastic Compliance Matrix: (Units=1/GPa)
#
#
# Indices 1 2 3 4 5 6 
#
# 1 0.023019 -0.004648 -0.002373 0.000000 0.000000 0.000000
# 2 -0.004648 0.008171 -0.003367 0.000000 0.000000 0.000000
# 3 -0.002373 -0.003367 0.016387 0.000000 0.000000 0.000000
# 4 0.000000 0.000000 0.000000 0.030100 0.000000 0.000000
# 5 0.000000 0.000000 0.000000 0.000000 0.128463 0.000000
# 6 0.000000 0.000000 0.000000 0.000000 0.000000 0.042962
#
#
# Mechanical properties :
#
#
# Convention : Reuss Voigt Hill
#
# Bulk Modulus (GPa) = 37.31318 50.94966 44.13142
# Shear Modulus (GPa) = 17.93316 25.72171 21.82743
#
# Velocity S-wave (km/s) = 3.14756 3.76960 3.47253
# Velocity P-wave (km/s) = 5.81576 6.86247 6.36068
#
# Compressibility (1/GPa) = 0.02680018
#
# Stress axis : x y z
#
# Youngs Moduli (GPa) = 43.44191 122.38771 61.02234
#
# Poissons Ratio (x) = 0.56889 0.14480
# Poissons Ratio (y) = 0.20193 0.20549
# Poissons Ratio (z) = 0.10309 0.41213
#
# Static dielectric constant tensor:
#      x y z
#    x 1.630970 0.000000 0.000000 
#    y 0.000000 1.644520 0.000000 
#    z 0.000000 0.000000 1.752290 
# 
# From -- ./inp_files/40859.got.cif
#   From: 2010.05.17/outbox.ucp.g08.bks.cvg/sg64_21_cif.got.tgz:40859.got - 2010.06.11 16:36:46.
