data_PCOD9482984
_publ_section_title
;
Structure prediction by ZEFSAII (Michael W. Deem and Ramdas Pophale) SiO2 
 PCOD9482984
Probable space group: C M M M
;
_chemical_formula_sum "Si O2"
_cell_formula_units_Z 116
_cell_length_a 28.167717
_cell_length_b 16.673144
_cell_length_c 12.973803
_cell_angle_alpha 90.000000
_cell_angle_beta 90.000000
_cell_angle_gamma 90.000000
_cell_volume 6093.073948
_symmetry_space_group_name_H-M "C M M M"
_symmetry_group_IT_number 65
_symmetry_cell_setting 'orthorhombic'
loop_
_space_group_symop_operation_xyz
x,y,z
-x,-y,z
x,-y,-z
-x,y,-z
-x,-y,-z
x,y,-z
-x,y,z
x,-y,z
1/2+x,1/2+y,z
1/2-x,1/2-y,z
1/2+x,1/2-y,-z
1/2-x,1/2+y,-z
1/2-x,1/2-y,-z
1/2+x,1/2+y,-z
1/2-x,1/2+y,z
1/2+x,1/2-y,z
loop_
_atom_site_type_symbol
_atom_site_label
_atom_site_fract_x
_atom_site_fract_y
_atom_site_fract_z
Si Si1 0.905886 0.259300 0.385820
Si Si2 0.612283 0.588577 0.313660
Si Si3 0.946360 0.686062 0.173427
Si Si4 0.683126 0.856796 0.664375
Si Si5 0.853015 0.595897 0.885892
Si Si6 0.663890 0.000000 0.500000
Si Si7 0.784415 0.094062 0.381186
Si Si8 0.054871 0.127836 0.883258
O O1 0.920142 0.284396 0.500000
O O2 0.910058 0.163686 0.373101
O O3 0.935062 0.301822 0.294941
O O4 0.850791 0.283305 0.366953
O O5 0.604337 0.500000 0.359128
O O6 0.668948 0.601670 0.312786
O O7 0.589868 0.592105 0.200589
O O8 0.906297 0.629412 0.127293
O O9 0.941817 0.775421 0.126364
O O10 0.000000 0.657962 0.157264
O O11 0.674806 0.873146 0.785478
O O12 0.739242 0.852100 0.644461
O O13 0.665626 0.929529 0.590806
O O14 0.853001 0.500000 0.881660
O O15 0.835209 0.620450 0.000000
O O16 0.798721 0.107571 0.500000
O O17 0.768375 0.000000 0.375314
O O18 0.000000 0.106664 0.859788
O O19 0.065253 0.103900 0.000000
#
# Coordination Sequence:
#
# PCOD9482984 Si02
#       8
#    16  16  16  16  16   4  16  16
#     4  10  20  34  53  78 105 137 178 219 261 318
#     4  10  22  35  50  77 110 138 167 214 271 322
#     4   9  19  34  53  76 103 137 175 218 270 320
#     4  11  19  33  56  81 106 142 187 224 259 303
#     4  10  20  32  49  76 111 145 179 218 263 317
#     4  12  16  32  58  82 107 138 185 238 256 296
#     4  10  17  31  53  77 106 140 174 211 259 311
#     4   9  18  36  60  79  97 129 177 227 269 314
#
# _framework density 19.03801
#
# number of rings (size 3 to 8) (size 9 to 14) (size 15 to 20)
#    0.000    2.069    2.759    0.828    0.000    3.310 
#    0.000    3.448    0.000    2.069    0.000   17.379 
#    0.000    0.000    0.000    0.000    0.000    0.000 
#
# Total GULP energy -323040.269913 kJ/mol
# GULP energy per Si atom -5569.659826 kJ/mol
# Density = 1.899468 g / cm^3
# Si number density = 19.038010 Si / 1000 Ang^3
#
#
#
# Elastic Constant Matrix: (Units=GPa)
#
#
# Indices 1 2 3 4 5 6 
#
# 1 67.3529 -2.6527 33.2977 0.0000 0.0000 0.0000
# 2 -2.6527 41.7559 21.6295 0.0000 0.0000 0.0000
# 3 33.2977 21.6295 138.5449 0.0000 0.0000 0.0000
# 4 0.0000 0.0000 0.0000 9.1530 0.0000 0.0000
# 5 0.0000 0.0000 0.0000 0.0000 9.3652 0.0000
# 6 0.0000 0.0000 0.0000 0.0000 0.0000 18.7981
#
#
#
# Elastic Compliance Matrix: (Units=1/GPa)
#
#
# Indices 1 2 3 4 5 6 
#
# 1 0.017318 0.003543 -0.004715 0.000000 0.000000 0.000000
# 2 0.003543 0.026781 -0.005032 0.000000 0.000000 0.000000
# 3 -0.004715 -0.005032 0.009137 0.000000 0.000000 0.000000
# 4 0.000000 0.000000 0.000000 0.109254 0.000000 0.000000
# 5 0.000000 0.000000 0.000000 0.000000 0.106778 0.000000
# 6 0.000000 0.000000 0.000000 0.000000 0.000000 0.053197
#
#
# Mechanical properties :
#
#
# Convention : Reuss Voigt Hill
#
# Bulk Modulus (GPa) = 24.49471 39.13365 31.81418
# Shear Modulus (GPa) = 14.34794 20.48854 17.41824
#
# Velocity S-wave (km/s) = 2.74824 3.28409 3.02804
# Velocity P-wave (km/s) = 4.79214 5.91443 5.38262
#
# Compressibility (1/GPa) = 0.04082515
#
# Stress axis : x y z
#
# Youngs Moduli (GPa) = 57.74416 37.34058 109.44786
#
# Poissons Ratio (x) = -0.13228 0.51607
# Poissons Ratio (y) = -0.20457 0.55078
# Poissons Ratio (z) = 0.27228 0.18791
#
# Static dielectric constant tensor:
#      x y z
#    x 1.651350 0.000000 0.000000 
#    y 0.000000 1.693970 0.000000 
#    z 0.000000 0.000000 1.668410 
# 
# From -- ./inp_files/34214.got.cif
#   From: 2010.05.17/outbox.cif.g08.bks.cpg/sg65_18_cif.got.tgz:34214.got - 2010.06.03 17:01:31.
