data_PCOD9482815
_publ_section_title
;
Structure prediction by ZEFSAII (Michael W. Deem and Ramdas Pophale) SiO2 
 PCOD9482815
Probable space group: C M M M
;
_chemical_formula_sum "Si O2"
_cell_formula_units_Z 112
_cell_length_a 18.743132
_cell_length_b 14.073416
_cell_length_c 20.431749
_cell_angle_alpha 90.000000
_cell_angle_beta 90.000000
_cell_angle_gamma 90.000000
_cell_volume 5389.484581
_symmetry_space_group_name_H-M "C M M M"
_symmetry_group_IT_number 65
_symmetry_cell_setting 'orthorhombic'
loop_
_space_group_symop_operation_xyz
x,y,z
-x,-y,z
x,-y,-z
-x,y,-z
-x,-y,-z
x,y,-z
-x,y,z
x,-y,z
1/2+x,1/2+y,z
1/2-x,1/2-y,z
1/2+x,1/2-y,-z
1/2-x,1/2+y,-z
1/2-x,1/2-y,-z
1/2+x,1/2+y,-z
1/2-x,1/2+y,z
1/2+x,1/2-y,z
loop_
_atom_site_type_symbol
_atom_site_label
_atom_site_fract_x
_atom_site_fract_y
_atom_site_fract_z
Si Si1 0.720054 0.141971 0.847633
Si Si2 0.584924 0.396035 0.603425
Si Si3 0.186242 0.673902 0.711735
Si Si4 0.170757 0.706786 0.570391
Si Si5 0.916041 0.837067 0.749703
Si Si6 0.631423 0.601027 0.890440
Si Si7 0.581388 0.191202 0.924574
O O1 0.750000 0.250000 0.841430
O O2 0.711400 0.108847 0.772163
O O3 0.782567 0.099605 0.891993
O O4 0.643624 0.142613 0.882480
O O5 0.500000 0.391409 0.591445
O O6 0.610625 0.500000 0.579861
O O7 0.621199 0.300636 0.577287
O O8 0.596694 0.391176 0.681745
O O9 0.250000 0.750000 0.702329
O O10 0.166769 0.645214 0.637415
O O11 0.120599 0.734864 0.740576
O O12 0.155681 0.659737 0.500000
O O13 0.250000 0.750000 0.567316
O O14 0.885195 0.887833 0.813098
O O15 0.000000 0.827278 0.758756
O O16 0.603152 0.500000 0.914535
O O17 0.598913 0.695660 0.921511
O O18 0.500000 0.176194 0.901297
O O19 0.585863 0.160725 0.000000
#
# Coordination Sequence:
#
# PCOD9482815 Si02
#       7
#    16  16  16  16  16  16  16
#     4   9  17  32  51  71  92 127 168 204 235 284
#     4   9  18  30  45  67  96 130 162 193 238 296
#     4   9  14  28  48  63  86 121 165 208 236 275
#     4   9  18  29  43  63  91 128 166 204 243 284
#     4  10  17  27  44  70  98 124 157 196 239 288
#     4  11  21  31  47  74 105 132 158 196 248 296
#     4  10  21  36  54  75  99 130 167 204 241 284
#
# _framework density 20.781207999999999
#
# number of rings (size 3 to 8) (size 9 to 14) (size 15 to 20)
#    0.000    2.429    4.286    0.857    0.000    5.143 
#    0.000    1.429    0.000    0.429    0.000    1.000 
#    0.000    0.571    0.000    3.571    0.000    3.429 
#
# Total GULP energy -311933.805513 kJ/mol
# GULP energy per Si atom -5570.246527 kJ/mol
# Density = 2.073391 g / cm^3
# Si number density = 20.781208 Si / 1000 Ang^3
#
#
#
# Elastic Constant Matrix: (Units=GPa)
#
#
# Indices 1 2 3 4 5 6 
#
# 1 104.0891 -3.9071 28.4135 0.0000 0.0000 0.0000
# 2 -3.9071 17.0082 -11.0705 0.0000 0.0000 0.0000
# 3 28.4135 -11.0705 102.5255 0.0000 0.0000 0.0000
# 4 0.0000 0.0000 0.0000 -0.6021 0.0000 0.0000
# 5 0.0000 0.0000 0.0000 0.0000 30.1551 0.0000
# 6 0.0000 0.0000 0.0000 0.0000 0.0000 2.8281
#
#
#
# Elastic Compliance Matrix: (Units=1/GPa)
#
#
# Indices 1 2 3 4 5 6 
#
# 1 0.010398 0.000552 -0.002822 0.000000 0.000000 0.000000
# 2 0.000552 0.063269 0.006679 0.000000 0.000000 0.000000
# 3 -0.002822 0.006679 0.011257 0.000000 0.000000 0.000000
# 4 0.000000 0.000000 0.000000 -1.660974 0.000000 0.000000
# 5 0.000000 0.000000 0.000000 0.000000 0.033162 0.000000
# 6 0.000000 0.000000 0.000000 0.000000 0.000000 0.353595
#
#
# Mechanical properties :
#
#
# Convention : Reuss Voigt Hill
#
# Bulk Modulus (GPa) = 10.66769 27.83273 19.25021
# Shear Modulus (GPa) = -4.28500 20.48869 8.10185
#
# Velocity S-wave (km/s) = -1.43751 3.14335 1.97664
# Velocity P-wave (km/s) = 1.54572 5.15718 3.80695
#
# Compressibility (1/GPa) = 0.09374098
#
# Stress axis : x y z
#
# Youngs Moduli (GPa) = 96.17015 15.80551 88.83400
#
# Poissons Ratio (x) = -0.00872 0.25070
# Poissons Ratio (y) = -0.05306 -0.59330
# Poissons Ratio (z) = 0.27141 -0.10556
#
# Static dielectric constant tensor:
#      x y z
#    x 1.755760 0.000000 0.000000 
#    y 0.000000 1.762390 0.000000 
#    z 0.000000 0.000000 1.817620 
# 
# From -- ./inp_files/63934.got.cif
#   From: 2010.05.17/outbox.cif.g08.bks.cpg/sg65_32_cif.got.tgz:63934.got - 2010.06.03 17:01:31.
