data_PCOD9482161
_publ_section_title
;
Structure prediction by ZEFSAII (Michael W. Deem and Ramdas Pophale) SiO2 
 PCOD9482161
Probable space group: C M C A
;
_chemical_formula_sum "Si O2"
_cell_formula_units_Z 112
_cell_length_a 16.338127
_cell_length_b 13.687578
_cell_length_c 21.433921
_cell_angle_alpha 90.000000
_cell_angle_beta 90.000000
_cell_angle_gamma 90.000000
_cell_volume 4793.254629
_symmetry_space_group_name_H-M "C M C A"
_symmetry_group_IT_number 64
_symmetry_cell_setting 'orthorhombic'
loop_
_space_group_symop_operation_xyz
x,y,z
-x,1/2-y,1/2+z
x,-y,-z
-x,1/2+y,1/2-z
-x,-y,-z
x,1/2+y,1/2-z
-x,y,z
x,1/2-y,1/2+z
1/2+x,1/2+y,z
1/2-x,-y,1/2+z
1/2+x,1/2-y,-z
1/2-x,y,1/2-z
1/2-x,1/2-y,-z
1/2+x,y,1/2-z
1/2-x,1/2+y,z
1/2+x,-y,1/2+z
loop_
_atom_site_type_symbol
_atom_site_label
_atom_site_fract_x
_atom_site_fract_y
_atom_site_fract_z
Si Si1 0.591837 0.886930 0.234254
Si Si2 0.588478 0.887639 0.983508
Si Si3 0.356174 0.056907 0.149456
Si Si4 0.652129 0.321749 0.763371
Si Si5 0.197844 0.923038 0.143457
Si Si6 0.202577 0.267497 0.064577
Si Si7 0.096806 0.913715 0.886007
O O1 0.500000 0.885342 0.260143
O O2 0.617644 0.779841 0.211309
O O3 0.657117 0.901968 0.289821
O O4 0.594197 0.965086 0.178232
O O5 0.500000 0.841001 0.973135
O O6 0.634820 0.895549 0.918098
O O7 0.632171 0.840716 0.042137
O O8 0.579325 0.000000 0.000000
O O9 0.378149 0.144215 0.196228
O O10 0.266971 0.006590 0.152160
O O11 0.750000 0.319746 0.750000
O O12 0.615068 0.398994 0.812118
O O13 0.239363 0.826740 0.112964
O O14 0.130257 0.977070 0.100179
O O15 0.156888 0.168639 0.085239
O O16 0.250000 0.250000 0.000000
O O17 0.000000 0.901738 0.898903
#
# Coordination Sequence:
#
# PCOD9482161 Si02
#       7
#    16  16  16  16  16  16  16
#     4  12  26  42  66 107 151 188 236 308 379 439
#     4  11  25  45  72 102 138 183 243 301 353 422
#     4  12  23  46  74 104 142 190 239 297 364 446
#     4  12  24  42  72 106 142 192 244 292 370 450
#     4  12  25  47  73 105 144 194 249 303 369 452
#     4  12  28  49  78 105 145 198 254 304 368 447
#     4  12  26  48  76 110 152 195 247 315 384 446
#
# _framework density 23.366168999999999
#
# number of rings (size 3 to 8) (size 9 to 14) (size 15 to 20)
#    0.000    0.143    4.286    5.571    2.000    1.714 
#    0.000    2.857    0.000    0.000    0.000    0.000 
#    0.000    0.000    0.000    0.000    0.000    0.000 
#
# Total GULP energy -312739.618665 kJ/mol
# GULP energy per Si atom -5584.636048 kJ/mol
# Density = 2.331299 g / cm^3
# Si number density = 23.366169 Si / 1000 Ang^3
#
#
#
# Elastic Constant Matrix: (Units=GPa)
#
#
# Indices 1 2 3 4 5 6 
#
# 1 130.0446 12.5842 12.8774 0.0000 0.0000 0.0000
# 2 12.5842 77.9949 -3.4144 0.0000 0.0000 0.0000
# 3 12.8774 -3.4144 72.6428 0.0000 0.0000 0.0000
# 4 0.0000 0.0000 0.0000 36.9442 0.0000 0.0000
# 5 0.0000 0.0000 0.0000 0.0000 46.0612 0.0000
# 6 0.0000 0.0000 0.0000 0.0000 0.0000 17.8085
#
#
#
# Elastic Compliance Matrix: (Units=1/GPa)
#
#
# Indices 1 2 3 4 5 6 
#
# 1 0.007966 -0.001350 -0.001476 0.000000 0.000000 0.000000
# 2 -0.001350 0.013077 0.000854 0.000000 0.000000 0.000000
# 3 -0.001476 0.000854 0.014068 0.000000 0.000000 0.000000
# 4 0.000000 0.000000 0.000000 0.027068 0.000000 0.000000
# 5 0.000000 0.000000 0.000000 0.000000 0.021710 0.000000
# 6 0.000000 0.000000 0.000000 0.000000 0.000000 0.056153
#
#
# Mechanical properties :
#
#
# Convention : Reuss Voigt Hill
#
# Bulk Modulus (GPa) = 32.08486 36.08629 34.08558
# Shear Modulus (GPa) = 32.38882 37.40513 34.89697
#
# Velocity S-wave (km/s) = 3.72713 4.00537 3.86875
# Velocity P-wave (km/s) = 5.68183 6.07190 5.88010
#
# Compressibility (1/GPa) = 0.03116734
#
# Stress axis : x y z
#
# Youngs Moduli (GPa) = 125.52684 76.47284 71.08472
#
# Poissons Ratio (x) = 0.10323 0.10490
# Poissons Ratio (y) = 0.16945 -0.06070
# Poissons Ratio (z) = 0.18523 -0.06530
#
# Static dielectric constant tensor:
#      x y z
#    x 2.000020 0.000000 0.000000 
#    y 0.000000 1.954600 0.000000 
#    z 0.000000 0.000000 1.953790 
# 
# From -- ./inp_files/45303.got.cif
#   From: 2010.05.17/outbox.cif.g08.bks.cpg/sg64_23_cif.got.tgz:45303.got - 2010.06.03 16:29:19.
