data_PCOD9482629
_publ_section_title
;
Structure prediction by ZEFSAII (Michael W. Deem and Ramdas Pophale) SiO2 
 PCOD9482629
Probable space group: C M M M
;
_chemical_formula_sum "Si O2"
_cell_formula_units_Z 72
_cell_length_a 8.619742
_cell_length_b 19.066366
_cell_length_c 24.101766
_cell_angle_alpha 90.000000
_cell_angle_beta 90.000000
_cell_angle_gamma 90.000000
_cell_volume 3961.056692
_symmetry_space_group_name_H-M "C M M M"
_symmetry_group_IT_number 65
_symmetry_cell_setting 'orthorhombic'
loop_
_space_group_symop_operation_xyz
x,y,z
-x,-y,z
x,-y,-z
-x,y,-z
-x,-y,-z
x,y,-z
-x,y,z
x,-y,z
1/2+x,1/2+y,z
1/2-x,1/2-y,z
1/2+x,1/2-y,-z
1/2-x,1/2+y,-z
1/2-x,1/2-y,-z
1/2+x,1/2+y,-z
1/2-x,1/2+y,z
1/2+x,1/2-y,z
loop_
_atom_site_type_symbol
_atom_site_label
_atom_site_fract_x
_atom_site_fract_y
_atom_site_fract_z
Si Si1 0.813318 0.329152 0.730270
Si Si2 0.187214 0.419433 0.837593
Si Si3 0.314291 0.327307 0.936405
Si Si4 0.685460 0.329942 0.614363
Si Si5 0.185452 0.330178 0.500000
O O1 0.750000 0.250000 0.737460
O O2 0.767507 0.375486 0.783078
O O3 0.745787 0.359598 0.672689
O O4 0.000000 0.326259 0.726174
O O5 0.237959 0.500000 0.833774
O O6 0.251738 0.382309 0.892253
O O7 0.000000 0.418104 0.840105
O O8 0.500000 0.325265 0.934153
O O9 0.250000 0.250000 0.922910
O O10 0.267223 0.343610 0.000000
O O11 0.500000 0.328588 0.612569
O O12 0.750000 0.250000 0.615381
O O13 0.751829 0.362270 0.557479
O O14 0.250000 0.250000 0.500000
O O15 0.000000 0.328221 0.500000
#
# Coordination Sequence:
#
# PCOD9482629 Si02
#       5
#    16  16  16  16   8
#     4  10  19  32  50  72  99 131 170 212 255 304
#     4  10  22  38  55  77 106 140 176 215 260 309
#     4  10  21  37  58  83 109 138 173 213 257 307
#     4  10  17  26  41  64  94 127 164 204 251 303
#     4  10  16  24  38  60  93 128 161 200 251 303
#
# _framework density 18.176967999999999
#
# number of rings (size 3 to 8) (size 9 to 14) (size 15 to 20)
#    0.000    2.000    0.000    7.667    0.000    5.778 
#    0.000    2.222    0.000    0.000    0.000    0.778 
#    0.000    6.222    0.000    0.000    0.000    0.000 
#
# Total GULP energy -200882.576010 kJ/mol
# GULP energy per Si atom -5580.071556 kJ/mol
# Density = 1.813560 g / cm^3
# Si number density = 18.176968 Si / 1000 Ang^3
#
#
#
# Elastic Constant Matrix: (Units=GPa)
#
#
# Indices 1 2 3 4 5 6 
#
# 1 89.6085 31.0582 52.9103 0.0000 0.0000 0.0000
# 2 31.0582 78.4814 88.5071 0.0000 0.0000 0.0000
# 3 52.9103 88.5071 169.9097 0.0000 0.0000 0.0000
# 4 0.0000 0.0000 0.0000 -4.4648 0.0000 0.0000
# 5 0.0000 0.0000 0.0000 0.0000 36.4959 0.0000
# 6 0.0000 0.0000 0.0000 0.0000 0.0000 16.1642
#
#
#
# Elastic Compliance Matrix: (Units=1/GPa)
#
#
# Indices 1 2 3 4 5 6 
#
# 1 0.013745 -0.001485 -0.003507 0.000000 0.000000 0.000000
# 2 -0.001485 0.031046 -0.015710 0.000000 0.000000 0.000000
# 3 -0.003507 -0.015710 0.015161 0.000000 0.000000 0.000000
# 4 0.000000 0.000000 0.000000 -0.223974 0.000000 0.000000
# 5 0.000000 0.000000 0.000000 0.000000 0.027400 0.000000
# 6 0.000000 0.000000 0.000000 0.000000 0.000000 0.061865
#
#
# Mechanical properties :
#
#
# Convention : Reuss Voigt Hill
#
# Bulk Modulus (GPa) = 53.91024 75.88343 64.89683
# Shear Modulus (GPa) = -184.01551 20.67399 -81.67076
#
# Velocity S-wave (km/s) = -10.07250 3.37615 -6.71032
# Velocity P-wave (km/s) = 10.27379 7.55219 4.92520
#
# Compressibility (1/GPa) = 0.01854935
#
# Stress axis : x y z
#
# Youngs Moduli (GPa) = 72.75439 32.21028 65.95929
#
# Poissons Ratio (x) = 0.04782 0.23131
# Poissons Ratio (y) = 0.10800 1.03621
# Poissons Ratio (z) = 0.25514 0.50602
#
# Static dielectric constant tensor:
#      x y z
#    x 1.611630 0.000000 0.000000 
#    y 0.000000 1.590310 0.000000 
#    z 0.000000 0.000000 1.673720 
# 
# From -- ./inp_files/59212.got.cif
#   From: 2010.05.17/outbox.cif.g08.bks.cpg/sg65_30_cif.got.tgz:59212.got - 2010.06.03 17:01:31.
