data_PCOD9482306
_publ_section_title
;
Structure prediction by ZEFSAII (Michael W. Deem and Ramdas Pophale) SiO2 
 PCOD9482306
Probable space group: C M C A
;
_chemical_formula_sum "Si O2"
_cell_formula_units_Z 116
_cell_length_a 17.123908
_cell_length_b 24.965938
_cell_length_c 11.553816
_cell_angle_alpha 90.000000
_cell_angle_beta 90.000000
_cell_angle_gamma 90.000000
_cell_volume 4939.423009
_symmetry_space_group_name_H-M "C M C A"
_symmetry_group_IT_number 64
_symmetry_cell_setting 'orthorhombic'
loop_
_space_group_symop_operation_xyz
x,y,z
-x,1/2-y,1/2+z
x,-y,-z
-x,1/2+y,1/2-z
-x,-y,-z
x,1/2+y,1/2-z
-x,y,z
x,1/2-y,1/2+z
1/2+x,1/2+y,z
1/2-x,-y,1/2+z
1/2+x,1/2-y,-z
1/2-x,y,1/2-z
1/2-x,1/2-y,-z
1/2+x,y,1/2-z
1/2-x,1/2+y,z
1/2+x,-y,1/2+z
loop_
_atom_site_type_symbol
_atom_site_label
_atom_site_fract_x
_atom_site_fract_y
_atom_site_fract_z
Si Si1 0.913100 0.834858 0.778042
Si Si2 0.643629 0.085373 0.453085
Si Si3 0.596078 0.253640 0.582783
Si Si4 0.592165 0.153446 0.910678
Si Si5 0.000000 0.000000 0.000000
Si Si6 0.171449 0.851048 0.174363
Si Si7 0.587679 0.570473 0.409655
Si Si8 0.265042 0.488532 0.632109
O O1 0.878346 0.858388 0.893529
O O2 0.880999 0.788522 0.696617
O O3 0.916693 0.885733 0.691636
O O4 0.000000 0.816386 0.808337
O O5 0.569913 0.044637 0.464119
O O6 0.672062 0.100346 0.582699
O O7 0.708175 0.062996 0.362872
O O8 0.500000 0.245747 0.583391
O O9 0.616813 0.290586 0.470999
O O10 0.645887 0.200694 0.600991
O O11 0.500000 0.151319 0.934563
O O12 0.607524 0.145514 0.776495
O O13 0.625057 0.102921 0.982692
O O14 0.250000 0.845244 0.250000
O O15 0.500000 0.552493 0.433897
O O16 0.643596 0.523293 0.372480
O O17 0.242916 0.500000 0.500000
O O18 0.250000 0.520496 0.750000
#
# Coordination Sequence:
#
# PCOD9482306 Si02
#       8
#    16  16  16  16   4  16  16  16
#     4   9  18  39  71  99 133 175 240 295 346 425
#     4  12  26  47  73 102 138 193 238 306 371 436
#     4   9  21  41  68 103 138 189 242 289 342 436
#     4   9  20  41  65  97 136 185 242 293 350 429
#     4  12  28  52  72 108 140 180 260 300 366 466
#     4  12  27  43  65 104 154 191 233 298 380 441
#     4   9  19  41  70  94 127 179 237 294 359 441
#     4  12  26  46  68 102 142 185 240 314 383 445
#
# _framework density 23.484524
#
# number of rings (size 3 to 8) (size 9 to 14) (size 15 to 20)
#    0.000    1.655    2.759    2.897    3.862    2.483 
#    4.966    0.000    0.000    0.000    0.000    0.000 
#    0.000    0.000    0.000    0.000    0.000    0.000 
#
# Total GULP energy -322916.571596 kJ/mol
# GULP energy per Si atom -5567.527096 kJ/mol
# Density = 2.343107 g / cm^3
# Si number density = 23.484524 Si / 1000 Ang^3
#
#
#
# Elastic Constant Matrix: (Units=GPa)
#
#
# Indices 1 2 3 4 5 6 
#
# 1 70.5263 18.6495 13.0584 0.0000 0.0000 0.0000
# 2 18.6495 50.7735 40.4275 0.0000 0.0000 0.0000
# 3 13.0584 40.4275 153.0899 0.0000 0.0000 0.0000
# 4 0.0000 0.0000 0.0000 35.4776 0.0000 0.0000
# 5 0.0000 0.0000 0.0000 0.0000 26.2003 0.0000
# 6 0.0000 0.0000 0.0000 0.0000 0.0000 4.0972
#
#
#
# Elastic Compliance Matrix: (Units=1/GPa)
#
#
# Indices 1 2 3 4 5 6 
#
# 1 0.015711 -0.005956 0.000233 0.000000 0.000000 0.000000
# 2 -0.005956 0.027197 -0.006674 0.000000 0.000000 0.000000
# 3 0.000233 -0.006674 0.008275 0.000000 0.000000 0.000000
# 4 0.000000 0.000000 0.000000 0.028187 0.000000 0.000000
# 5 0.000000 0.000000 0.000000 0.000000 0.038167 0.000000
# 6 0.000000 0.000000 0.000000 0.000000 0.000000 0.244070
#
#
# Mechanical properties :
#
#
# Convention : Reuss Voigt Hill
#
# Bulk Modulus (GPa) = 37.89600 46.51784 42.20692
# Shear Modulus (GPa) = 12.65188 26.63864 19.64526
#
# Velocity S-wave (km/s) = 2.32358 3.37160 2.89540
# Velocity P-wave (km/s) = 4.83429 5.91674 5.40269
#
# Compressibility (1/GPa) = 0.02638801
#
# Stress axis : x y z
#
# Youngs Moduli (GPa) = 63.64970 36.76849 120.84980
#
# Poissons Ratio (x) = 0.21900 -0.02813
# Poissons Ratio (y) = 0.37910 0.80656
# Poissons Ratio (z) = -0.01481 0.24540
#
# Static dielectric constant tensor:
#      x y z
#    x 1.933370 0.000000 0.000000 
#    y 0.000000 2.067400 0.000000 
#    z 0.000000 0.000000 2.033220 
# 
# From -- ./inp_files/16460.got.cif
#   From: 2010.05.17/outbox.cif.g08.bks.cpg/sg64_9_cif.got.tgz:16460.got - 2010.06.03 16:29:19.
