data_PCOD9482624
_publ_section_title
;
Structure prediction by ZEFSAII (Michael W. Deem and Ramdas Pophale) SiO2 
 PCOD9482624
Probable space group: C M M M
;
_chemical_formula_sum "Si O2"
_cell_formula_units_Z 72
_cell_length_a 8.490754
_cell_length_b 19.065130
_cell_length_c 24.372280
_cell_angle_alpha 90.000000
_cell_angle_beta 90.000000
_cell_angle_gamma 90.000000
_cell_volume 3945.319583
_symmetry_space_group_name_H-M "C M M M"
_symmetry_group_IT_number 65
_symmetry_cell_setting 'orthorhombic'
loop_
_space_group_symop_operation_xyz
x,y,z
-x,-y,z
x,-y,-z
-x,y,-z
-x,-y,-z
x,y,-z
-x,y,z
x,-y,z
1/2+x,1/2+y,z
1/2-x,1/2-y,z
1/2+x,1/2-y,-z
1/2-x,1/2+y,-z
1/2-x,1/2-y,-z
1/2+x,1/2+y,-z
1/2-x,1/2+y,z
1/2+x,1/2-y,z
loop_
_atom_site_type_symbol
_atom_site_label
_atom_site_fract_x
_atom_site_fract_y
_atom_site_fract_z
Si Si1 0.309638 0.828582 0.061962
Si Si2 0.310836 0.170268 0.270553
Si Si3 0.812459 0.169641 0.613888
Si Si4 0.187407 0.330556 0.500000
Si Si5 0.307636 0.080324 0.834901
O O1 0.500000 0.827567 0.062698
O O2 0.250000 0.750000 0.072862
O O3 0.255698 0.880735 0.109609
O O4 0.259816 0.848315 0.000000
O O5 0.500000 0.172319 0.272894
O O6 0.250000 0.250000 0.264172
O O7 0.248066 0.140115 0.328347
O O8 0.259927 0.124195 0.218649
O O9 0.750000 0.250000 0.614611
O O10 0.748633 0.137447 0.557144
O O11 0.000000 0.170582 0.612667
O O12 0.250000 0.250000 0.500000
O O13 0.000000 0.328877 0.500000
O O14 0.500000 0.080108 0.835287
O O15 0.255054 0.000000 0.832750
#
# Coordination Sequence:
#
# PCOD9482624 Si02
#       5
#    16  16  16   8  16
#     4   9  17  30  50  74  98 125 157 194 236 282
#     4  10  18  29  46  66  90 121 157 196 237 281
#     4  10  17  26  40  61  90 121 154 191 234 281
#     4  10  16  24  38  60  91 122 153 188 233 283
#     4   9  18  31  47  69  95 123 158 199 239 279
#
# _framework density 18.249471
#
# number of rings (size 3 to 8) (size 9 to 14) (size 15 to 20)
#    0.000    2.444    0.000    7.000    0.000    0.444 
#    0.000    3.333    0.000    6.000    0.000    3.889 
#    0.000    6.222    0.000    0.000    0.000    0.000 
#
# Total GULP energy -200702.408935 kJ/mol
# GULP energy per Si atom -5575.066915 kJ/mol
# Density = 1.820793 g / cm^3
# Si number density = 18.249471 Si / 1000 Ang^3
#
#
#
# Elastic Constant Matrix: (Units=GPa)
#
#
# Indices 1 2 3 4 5 6 
#
# 1 78.2316 19.0319 44.0878 0.0000 0.0000 0.0000
# 2 19.0319 71.0507 93.0082 0.0000 0.0000 0.0000
# 3 44.0878 93.0082 216.6372 0.0000 0.0000 0.0000
# 4 0.0000 0.0000 0.0000 -1.4964 0.0000 0.0000
# 5 0.0000 0.0000 0.0000 0.0000 20.6939 0.0000
# 6 0.0000 0.0000 0.0000 0.0000 0.0000 12.1896
#
#
#
# Elastic Compliance Matrix: (Units=1/GPa)
#
#
# Indices 1 2 3 4 5 6 
#
# 1 0.014439 -0.000048 -0.002918 0.000000 0.000000 0.000000
# 2 -0.000048 0.032134 -0.013786 0.000000 0.000000 0.000000
# 3 -0.002918 -0.013786 0.011129 0.000000 0.000000 0.000000
# 4 0.000000 0.000000 0.000000 -0.668287 0.000000 0.000000
# 5 0.000000 0.000000 0.000000 0.000000 0.048324 0.000000
# 6 0.000000 0.000000 0.000000 0.000000 0.000000 0.082037
#
#
# Mechanical properties :
#
#
# Convention : Reuss Voigt Hill
#
# Bulk Modulus (GPa) = 41.32737 75.35282 58.34010
# Shear Modulus (GPa) = -11.39849 20.26352 4.43251
#
# Velocity S-wave (km/s) = -2.50190 3.33582 1.56017
# Velocity P-wave (km/s) = 3.78800 7.49780 5.93995
#
# Compressibility (1/GPa) = 0.02419704
#
# Stress axis : x y z
#
# Youngs Moduli (GPa) = 69.25891 31.11963 89.85862
#
# Poissons Ratio (x) = 0.00150 0.26218
# Poissons Ratio (y) = 0.00334 1.23881
# Poissons Ratio (z) = 0.20208 0.42902
#
# Static dielectric constant tensor:
#      x y z
#    x 1.619150 0.000000 0.000000 
#    y 0.000000 1.584630 0.000000 
#    z 0.000000 0.000000 1.684570 
# 
# From -- ./inp_files/67111.got.cif
#   From: 2010.05.17/outbox.cif.g08.bks.cpg/sg65_34_cif.got.tgz:67111.got - 2010.06.03 17:01:31.
