data_PCOD9482568
_publ_section_title
;
Structure prediction by ZEFSAII (Michael W. Deem and Ramdas Pophale) SiO2 
 PCOD9482568
Probable space group: C M M M
;
_chemical_formula_sum "Si O2"
_cell_formula_units_Z 104
_cell_length_a 30.095573
_cell_length_b 8.197826
_cell_length_c 25.359929
_cell_angle_alpha 90.000000
_cell_angle_beta 90.000000
_cell_angle_gamma 90.000000
_cell_volume 6256.757831
_symmetry_space_group_name_H-M "C M M M"
_symmetry_group_IT_number 65
_symmetry_cell_setting 'orthorhombic'
loop_
_space_group_symop_operation_xyz
x,y,z
-x,-y,z
x,-y,-z
-x,y,-z
-x,-y,-z
x,y,-z
-x,y,z
x,-y,z
1/2+x,1/2+y,z
1/2-x,1/2-y,z
1/2+x,1/2-y,-z
1/2-x,1/2+y,-z
1/2-x,1/2-y,-z
1/2+x,1/2+y,-z
1/2-x,1/2+y,z
1/2+x,1/2-y,z
loop_
_atom_site_type_symbol
_atom_site_label
_atom_site_fract_x
_atom_site_fract_y
_atom_site_fract_z
Si Si1 0.313084 0.309830 0.000000
Si Si2 0.588574 0.808049 0.000000
Si Si3 0.801193 0.805916 0.389203
Si Si4 0.796822 0.688982 0.886505
Si Si5 0.301736 0.302054 0.728093
Si Si6 0.051146 0.197706 0.887828
Si Si7 0.801533 0.691946 0.500000
Si Si8 0.869996 0.187490 0.816308
O O1 0.296713 0.216350 0.051374
O O2 0.299876 0.500000 0.000000
O O3 0.366363 0.295462 0.000000
O O4 0.563223 0.767404 0.945590
O O5 0.599879 0.000000 0.000000
O O6 0.750000 0.750000 0.390777
O O7 0.816323 0.750954 0.331156
O O8 0.822079 0.748132 0.444352
O O9 0.802566 0.000000 0.389707
O O10 0.804453 0.500000 0.873721
O O11 0.750000 0.750000 0.864282
O O12 0.835857 0.800997 0.864802
O O13 0.301209 0.500000 0.731088
O O14 0.250000 0.250000 0.736607
O O15 0.339009 0.241126 0.769466
O O16 0.084807 0.257315 0.841763
O O17 0.000000 0.235383 0.875715
O O18 0.055992 0.000000 0.891027
O O19 0.800526 0.500000 0.500000
O O20 0.750000 0.750000 0.500000
O O21 0.879450 0.000000 0.801611
#
# Coordination Sequence:
#
# PCOD9482568 Si02
#       8
#     8   8  16  16  16  16   8  16
#     4  12  23  38  55  71  93 120 147 184 226 272
#     4  12  23  36  55  78  98 117 144 184 234 286
#     4   9  15  24  37  55  81 113 152 191 227 261
#     4  12  24  37  52  72  95 122 153 185 225 270
#     4   9  18  30  45  65  89 122 159 194 227 264
#     4  10  21  37  57  76  95 122 152 183 229 286
#     4  10  16  22  34  54  80 112 151 190 229 263
#     4  10  20  35  52  70  94 122 154 191 228 270
#
# _framework density 16.622026000000002
#
# number of rings (size 3 to 8) (size 9 to 14) (size 15 to 20)
#    0.000    1.692    1.538    5.769    0.000    3.692 
#    0.000    0.000    0.000    0.000    0.000    0.000 
#    0.000    0.000    0.000    0.692    0.000   18.846 
#
# Total GULP energy -289783.351740 kJ/mol
# GULP energy per Si atom -5572.756764 kJ/mol
# Density = 1.658419 g / cm^3
# Si number density = 16.622026 Si / 1000 Ang^3
#
#
#
# Elastic Constant Matrix: (Units=GPa)
#
#
# Indices 1 2 3 4 5 6 
#
# 1 91.8691 4.9960 40.4803 0.0000 0.0000 0.0000
# 2 4.9960 44.4182 12.2050 0.0000 0.0000 0.0000
# 3 40.4803 12.2050 140.7426 0.0000 0.0000 0.0000
# 4 0.0000 0.0000 0.0000 12.6406 0.0000 0.0000
# 5 0.0000 0.0000 0.0000 0.0000 43.2829 0.0000
# 6 0.0000 0.0000 0.0000 0.0000 0.0000 10.5542
#
#
#
# Elastic Compliance Matrix: (Units=1/GPa)
#
#
# Indices 1 2 3 4 5 6 
#
# 1 0.012473 -0.000427 -0.003550 0.000000 0.000000 0.000000
# 2 -0.000427 0.023077 -0.001878 0.000000 0.000000 0.000000
# 3 -0.003550 -0.001878 0.008289 0.000000 0.000000 0.000000
# 4 0.000000 0.000000 0.000000 0.079110 0.000000 0.000000
# 5 0.000000 0.000000 0.000000 0.000000 0.023104 0.000000
# 6 0.000000 0.000000 0.000000 0.000000 0.000000 0.094749
#
#
# Mechanical properties :
#
#
# Convention : Reuss Voigt Hill
#
# Bulk Modulus (GPa) = 31.12610 43.59914 37.36262
# Shear Modulus (GPa) = 18.99527 27.91878 23.45703
#
# Velocity S-wave (km/s) = 3.38417 4.10277 3.76067
# Velocity P-wave (km/s) = 5.83409 6.98071 6.43300
#
# Compressibility (1/GPa) = 0.03212738
#
# Stress axis : x y z
#
# Youngs Moduli (GPa) = 80.17532 43.33227 120.63892
#
# Poissons Ratio (x) = 0.01852 0.42831
# Poissons Ratio (y) = 0.03426 0.22660
# Poissons Ratio (z) = 0.28465 0.08139
#
# Static dielectric constant tensor:
#      x y z
#    x 1.558280 0.000000 0.000000 
#    y 0.000000 1.569110 0.000000 
#    z 0.000000 0.000000 1.636150 
# 
# From -- ./inp_files/76066.got.cif
#   From: 2010.05.17/outbox.cif.g08.bks.cpg/sg65_39_cif.got.tgz:76066.got - 2010.06.03 17:01:31.
