data_PCOD9482598
_publ_section_title
;
Structure prediction by ZEFSAII (Michael W. Deem and Ramdas Pophale) SiO2 
 PCOD9482598
Probable space group: C M M M
;
_chemical_formula_sum "Si O2"
_cell_formula_units_Z 112
_cell_length_a 28.937836
_cell_length_b 29.159997
_cell_length_c 7.521368
_cell_angle_alpha 90.000000
_cell_angle_beta 90.000000
_cell_angle_gamma 90.000000
_cell_volume 6346.734982
_symmetry_space_group_name_H-M "C M M M"
_symmetry_group_IT_number 65
_symmetry_cell_setting 'orthorhombic'
loop_
_space_group_symop_operation_xyz
x,y,z
-x,-y,z
x,-y,-z
-x,y,-z
-x,-y,-z
x,y,-z
-x,y,z
x,-y,z
1/2+x,1/2+y,z
1/2-x,1/2-y,z
1/2+x,1/2-y,-z
1/2-x,1/2+y,-z
1/2-x,1/2-y,-z
1/2+x,1/2+y,-z
1/2-x,1/2+y,z
1/2+x,1/2-y,z
loop_
_atom_site_type_symbol
_atom_site_label
_atom_site_fract_x
_atom_site_fract_y
_atom_site_fract_z
Si Si1 0.215317 0.356078 0.212100
Si Si2 0.235429 0.051339 0.713396
Si Si3 0.856201 0.287209 0.216289
Si Si4 0.630282 0.448903 0.712801
Si Si5 0.693803 0.305084 0.216884
Si Si6 0.448566 0.737787 0.217629
Si Si7 0.899313 0.852836 0.211768
O O1 0.229027 0.408602 0.242008
O O2 0.167108 0.334552 0.277055
O O3 0.258224 0.325650 0.281672
O O4 0.214721 0.349836 0.000000
O O5 0.232932 0.050126 0.500000
O O6 0.182863 0.061040 0.778779
O O7 0.247955 0.000000 0.774714
O O8 0.820426 0.246464 0.264656
O O9 0.906868 0.271030 0.276704
O O10 0.859029 0.287502 0.000000
O O11 0.632963 0.451150 0.500000
O O12 0.617274 0.500000 0.776579
O O13 0.596760 0.406631 0.752922
O O14 0.651092 0.336580 0.277707
O O15 0.695125 0.306082 0.000000
O O16 0.500000 0.750053 0.276469
O O17 0.435273 0.685740 0.274066
O O18 0.448626 0.738464 0.000000
O O19 0.898444 0.847892 0.000000
#
# Coordination Sequence:
#
# PCOD9482598 Si02
#       7
#    16  16  16  16  16  16  16
#     4  10  16  23  39  60  81 105 133 165 193 221
#     4   9  18  30  40  52  77 113 142 161 192 237
#     4   8  14  22  35  57  82 107 132 155 190 237
#     4   9  17  28  40  54  75 104 135 166 200 238
#     4   8  13  21  33  54  81 104 126 155 188 224
#     4   8  14  25  41  61  84 105 127 160 198 237
#     4   9  15  24  40  61  78  98 133 168 197 229
#
# _framework density 17.646868999999999
#
# number of rings (size 3 to 8) (size 9 to 14) (size 15 to 20)
#    0.000    3.286    1.429    3.000    0.000    2.286 
#    0.000    1.429    0.000    6.000    0.000    3.000 
#    0.000    0.571    0.000    7.143    0.000    1.143 
#
# Total GULP energy -311835.363606 kJ/mol
# GULP energy per Si atom -5568.488636 kJ/mol
# Density = 1.760670 g / cm^3
# Si number density = 17.646869 Si / 1000 Ang^3
#
#
#
# Elastic Constant Matrix: (Units=GPa)
#
#
# Indices 1 2 3 4 5 6 
#
# 1 94.6008 49.8259 6.3656 0.0000 0.0000 0.0000
# 2 49.8259 64.1713 -1.7934 0.0000 0.0000 0.0000
# 3 6.3656 -1.7934 41.3769 0.0000 0.0000 0.0000
# 4 0.0000 0.0000 0.0000 22.8606 0.0000 0.0000
# 5 0.0000 0.0000 0.0000 0.0000 1.6148 0.0000
# 6 0.0000 0.0000 0.0000 0.0000 0.0000 15.3305
#
#
#
# Elastic Compliance Matrix: (Units=1/GPa)
#
#
# Indices 1 2 3 4 5 6 
#
# 1 0.018363 -0.014354 -0.003447 0.000000 0.000000 0.000000
# 2 -0.014354 0.026823 0.003371 0.000000 0.000000 0.000000
# 3 -0.003447 0.003371 0.024845 0.000000 0.000000 0.000000
# 4 0.000000 0.000000 0.000000 0.043743 0.000000 0.000000
# 5 0.000000 0.000000 0.000000 0.000000 0.619271 0.000000
# 6 0.000000 0.000000 0.000000 0.000000 0.000000 0.065230
#
#
# Mechanical properties :
#
#
# Convention : Reuss Voigt Hill
#
# Bulk Modulus (GPa) = 24.28995 34.32724 29.30860
# Shear Modulus (GPa) = 5.94630 17.67789 11.81210
#
# Velocity S-wave (km/s) = 1.83764 3.16849 2.59000
# Velocity P-wave (km/s) = 4.27749 5.73414 5.05852
#
# Compressibility (1/GPa) = 0.04116928
#
# Stress axis : x y z
#
# Youngs Moduli (GPa) = 54.45697 37.28146 40.25027
#
# Poissons Ratio (x) = 0.53515 0.13875
# Poissons Ratio (y) = 0.78170 -0.13568
# Poissons Ratio (z) = 0.18773 -0.12567
#
# Static dielectric constant tensor:
#      x y z
#    x 1.599360 0.000000 0.000000 
#    y 0.000000 1.639860 0.000000 
#    z 0.000000 0.000000 1.677780 
# 
# From -- ./inp_files/31399.got.cif
#   From: 2010.05.17/outbox.cif.g08.bks.cpg/sg65_16_cif.got.tgz:31399.got - 2010.06.03 17:01:31.
