data_PCOD9482736
_publ_section_title
;
Structure prediction by ZEFSAII (Michael W. Deem and Ramdas Pophale) SiO2 
 PCOD9482736
Probable space group: C M M M
;
_chemical_formula_sum "Si O2"
_cell_formula_units_Z 104
_cell_length_a 13.784464
_cell_length_b 22.959136
_cell_length_c 19.814394
_cell_angle_alpha 90.000000
_cell_angle_beta 90.000000
_cell_angle_gamma 90.000000
_cell_volume 6270.847201
_symmetry_space_group_name_H-M "C M M M"
_symmetry_group_IT_number 65
_symmetry_cell_setting 'orthorhombic'
loop_
_space_group_symop_operation_xyz
x,y,z
-x,-y,z
x,-y,-z
-x,y,-z
-x,-y,-z
x,y,-z
-x,y,z
x,-y,z
1/2+x,1/2+y,z
1/2-x,1/2-y,z
1/2+x,1/2-y,-z
1/2-x,1/2+y,-z
1/2-x,1/2-y,-z
1/2+x,1/2+y,-z
1/2-x,1/2+y,z
1/2+x,1/2-y,z
loop_
_atom_site_type_symbol
_atom_site_label
_atom_site_fract_x
_atom_site_fract_y
_atom_site_fract_z
Si Si1 0.250000 0.250000 0.390463
Si Si2 0.610925 0.806157 0.717452
Si Si3 0.751524 0.622543 0.186947
Si Si4 0.385678 0.151252 0.920754
Si Si5 0.386900 0.567997 0.294305
Si Si6 0.885982 0.853910 0.574125
Si Si7 0.608386 0.273710 0.845673
O O1 0.326073 0.214150 0.345025
O O2 0.183509 0.202032 0.426129
O O3 0.500000 0.822498 0.702181
O O4 0.670635 0.854324 0.758340
O O5 0.607684 0.752360 0.770028
O O6 0.818518 0.607911 0.122676
O O7 0.680211 0.581928 0.229853
O O8 0.684510 0.674725 0.157765
O O9 0.500000 0.139524 0.908932
O O10 0.370577 0.217778 0.893160
O O11 0.365827 0.148841 0.000000
O O12 0.500000 0.580549 0.277705
O O13 0.378836 0.500000 0.311606
O O14 0.362368 0.606706 0.360424
O O15 0.876631 0.883158 0.500000
O O16 0.000000 0.837106 0.581192
O O17 0.500000 0.294386 0.862657
#
# Coordination Sequence:
#
# PCOD9482736 Si02
#       7
#     8  16  16  16  16  16  16
#     4  12  17  30  48  76 109 146 164 206 261 314
#     4  10  17  25  42  69  99 133 171 206 248 303
#     4  11  17  29  48  71  98 133 175 214 264 302
#     4   9  18  30  45  71 107 141 171 206 253 312
#     4  10  21  37  57  79 102 132 176 225 266 308
#     4  10  21  35  52  78 110 141 174 211 257 317
#     4   9  16  25  40  66 101 137 170 201 244 307
#
# _framework density 16.584682000000001
#
# number of rings (size 3 to 8) (size 9 to 14) (size 15 to 20)
#    0.000    2.000    3.077    3.923    0.000    4.000 
#    0.000    1.538    0.000    3.692    0.000    2.154 
#    0.000    1.231    0.000    0.000    0.000    0.000 
#
# Total GULP energy -289473.064251 kJ/mol
# GULP energy per Si atom -5566.789697 kJ/mol
# Density = 1.654693 g / cm^3
# Si number density = 16.584682 Si / 1000 Ang^3
#
#
#
# Elastic Constant Matrix: (Units=GPa)
#
#
# Indices 1 2 3 4 5 6 
#
# 1 97.4499 31.5588 44.8773 0.0000 0.0000 0.0000
# 2 31.5588 34.6160 28.9517 0.0000 0.0000 0.0000
# 3 44.8773 28.9517 103.3475 0.0000 0.0000 0.0000
# 4 0.0000 0.0000 0.0000 -15.1482 0.0000 0.0000
# 5 0.0000 0.0000 0.0000 0.0000 16.0948 0.0000
# 6 0.0000 0.0000 0.0000 0.0000 0.0000 14.3387
#
#
#
# Elastic Compliance Matrix: (Units=1/GPa)
#
#
# Indices 1 2 3 4 5 6 
#
# 1 0.015537 -0.011130 -0.003629 0.000000 0.000000 0.000000
# 2 -0.011130 0.045701 -0.007970 0.000000 0.000000 0.000000
# 3 -0.003629 -0.007970 0.013484 0.000000 0.000000 0.000000
# 4 0.000000 0.000000 0.000000 -0.066015 0.000000 0.000000
# 5 0.000000 0.000000 0.000000 0.000000 0.062132 0.000000
# 6 0.000000 0.000000 0.000000 0.000000 0.000000 0.069741
#
#
# Mechanical properties :
#
#
# Convention : Reuss Voigt Hill
#
# Bulk Modulus (GPa) = 34.16962 49.57653 41.87307
# Shear Modulus (GPa) = 25.53711 11.72543 18.63127
#
# Velocity S-wave (km/s) = 3.92829 2.66184 3.35536
# Velocity P-wave (km/s) = 6.42052 6.27734 6.34934
#
# Compressibility (1/GPa) = 0.02926576
#
# Stress axis : x y z
#
# Youngs Moduli (GPa) = 64.36145 21.88142 74.15925
#
# Poissons Ratio (x) = 0.24354 0.26912
# Poissons Ratio (y) = 0.71634 0.59102
# Poissons Ratio (z) = 0.23356 0.17439
#
# Static dielectric constant tensor:
#      x y z
#    x 1.600970 0.000000 0.000000 
#    y 0.000000 1.546040 0.000000 
#    z 0.000000 0.000000 1.579870 
# 
# From -- ./inp_files/62980.got.cif
#   From: 2010.05.17/outbox.cif.g08.bks.cpg/sg65_32_cif.got.tgz:62980.got - 2010.06.03 17:01:31.
