data_PCOD9482896
_publ_section_title
;
Structure prediction by ZEFSAII (Michael W. Deem and Ramdas Pophale) SiO2 
 PCOD9482896
Probable space group: C M M M
;
_chemical_formula_sum "Si O2"
_cell_formula_units_Z 72
_cell_length_a 18.215369
_cell_length_b 24.205305
_cell_length_c 8.199254
_cell_angle_alpha 90.000000
_cell_angle_beta 90.000000
_cell_angle_gamma 90.000000
_cell_volume 3615.121293
_symmetry_space_group_name_H-M "C M M M"
_symmetry_group_IT_number 65
_symmetry_cell_setting 'orthorhombic'
loop_
_space_group_symop_operation_xyz
x,y,z
-x,-y,z
x,-y,-z
-x,y,-z
-x,-y,-z
x,y,-z
-x,y,z
x,-y,z
1/2+x,1/2+y,z
1/2-x,1/2-y,z
1/2+x,1/2-y,-z
1/2-x,1/2+y,-z
1/2-x,1/2-y,-z
1/2+x,1/2+y,-z
1/2-x,1/2+y,z
1/2+x,1/2-y,z
loop_
_atom_site_type_symbol
_atom_site_label
_atom_site_fract_x
_atom_site_fract_y
_atom_site_fract_z
Si Si1 0.274431 0.690896 0.808033
Si Si2 0.000000 0.435821 0.805408
Si Si3 0.105640 0.000000 0.185580
Si Si4 0.581579 0.376011 0.199413
Si Si5 0.347966 0.888565 0.312871
Si Si6 0.756096 0.500000 0.320306
O O1 0.250000 0.750000 0.736273
O O2 0.347857 0.659613 0.742777
O O3 0.203429 0.652349 0.787412
O O4 0.289622 0.699382 0.000000
O O5 0.928609 0.402382 0.749723
O O6 0.000000 0.500000 0.742585
O O7 0.000000 0.439242 0.000000
O O8 0.085155 0.940116 0.257310
O O9 0.193470 0.000000 0.187787
O O10 0.078587 0.000000 0.000000
O O11 0.500000 0.354040 0.240703
O O12 0.586319 0.378040 0.000000
O O13 0.350973 0.869246 0.500000
O O14 0.305907 0.946715 0.308220
O O15 0.719857 0.500000 0.500000
#
# Coordination Sequence:
#
# PCOD9482896 Si02
#       6
#    16   8   8  16  16   8
#     4  10  21  38  58  82 112 149 198 245 286 334
#     4  11  23  37  59  91 123 151 187 238 295 354
#     4  10  17  28  53  81 105 136 180 227 278 341
#     4   9  17  30  51  80 110 140 177 227 280 329
#     4  11  22  38  59  82 115 155 193 234 291 355
#     4  10  20  32  52  81 112 148 183 222 283 350
#
# _framework density 19.916343000000001
#
# number of rings (size 3 to 8) (size 9 to 14) (size 15 to 20)
#    0.000    1.889    3.333    1.333    0.000    3.111 
#    2.000    0.000    0.000    3.333    0.000    0.000 
#    0.000    0.000    0.000    0.000    0.000    0.000 
#
# Total GULP energy -200679.894166 kJ/mol
# GULP energy per Si atom -5574.441505 kJ/mol
# Density = 1.987101 g / cm^3
# Si number density = 19.916343 Si / 1000 Ang^3
#
#
#
# Elastic Constant Matrix: (Units=GPa)
#
#
# Indices 1 2 3 4 5 6 
#
# 1 177.4239 58.5897 10.3325 0.0000 0.0000 0.0000
# 2 58.5897 123.8822 -0.9476 0.0000 0.0000 0.0000
# 3 10.3325 -0.9476 12.9073 0.0000 0.0000 0.0000
# 4 0.0000 0.0000 0.0000 8.7450 0.0000 0.0000
# 5 0.0000 0.0000 0.0000 0.0000 -9.5211 0.0000
# 6 0.0000 0.0000 0.0000 0.0000 0.0000 3.3215
#
#
#
# Elastic Compliance Matrix: (Units=1/GPa)
#
#
# Indices 1 2 3 4 5 6 
#
# 1 0.007107 -0.003407 -0.005939 0.000000 0.000000 0.000000
# 2 -0.003407 0.009710 0.003440 0.000000 0.000000 0.000000
# 3 -0.005939 0.003440 0.082483 0.000000 0.000000 0.000000
# 4 0.000000 0.000000 0.000000 0.114352 0.000000 0.000000
# 5 0.000000 0.000000 0.000000 0.000000 -0.105030 0.000000
# 6 0.000000 0.000000 0.000000 0.000000 0.000000 0.301073
#
#
# Mechanical properties :
#
#
# Convention : Reuss Voigt Hill
#
# Bulk Modulus (GPa) = 11.43023 50.01806 30.72415
# Shear Modulus (GPa) = 11.09460 16.92497 14.00979
#
# Velocity S-wave (km/s) = 2.36277 2.91830 2.65511
# Velocity P-wave (km/s) = 3.63252 6.04350 4.98593
#
# Compressibility (1/GPa) = 0.08748733
#
# Stress axis : x y z
#
# Youngs Moduli (GPa) = 140.70451 102.98985 12.12372
#
# Poissons Ratio (x) = 0.35086 0.07201
# Poissons Ratio (y) = 0.47934 -0.04171
# Poissons Ratio (z) = 0.83571 -0.35428
#
# Static dielectric constant tensor:
#      x y z
#    x 1.703640 0.000000 0.000000 
#    y 0.000000 1.712330 0.000000 
#    z 0.000000 0.000000 1.732760 
# 
# From -- ./inp_files/9340.got.cif
#   From: 2010.05.17/outbox.cif.g08.bks.cpg/sg65_5_cif.got.tgz:9340.got - 2010.06.03 17:01:31.
