data_PCOD9482141
_publ_section_title
;
Structure prediction by ZEFSAII (Michael W. Deem and Ramdas Pophale) SiO2 
 PCOD9482141
Probable space group: C M C A
;
_chemical_formula_sum "Si O2"
_cell_formula_units_Z 80
_cell_length_a 17.444647
_cell_length_b 8.544415
_cell_length_c 23.520824
_cell_angle_alpha 90.000000
_cell_angle_beta 90.000000
_cell_angle_gamma 90.000000
_cell_volume 3505.880039
_symmetry_space_group_name_H-M "C M C A"
_symmetry_group_IT_number 64
_symmetry_cell_setting 'orthorhombic'
loop_
_space_group_symop_operation_xyz
x,y,z
-x,1/2-y,1/2+z
x,-y,-z
-x,1/2+y,1/2-z
-x,-y,-z
x,1/2+y,1/2-z
-x,y,z
x,1/2-y,1/2+z
1/2+x,1/2+y,z
1/2-x,-y,1/2+z
1/2+x,1/2-y,-z
1/2-x,y,1/2-z
1/2-x,1/2-y,-z
1/2+x,y,1/2-z
1/2-x,1/2+y,z
1/2+x,-y,1/2+z
loop_
_atom_site_type_symbol
_atom_site_label
_atom_site_fract_x
_atom_site_fract_y
_atom_site_fract_z
Si Si1 0.175473 0.083286 0.799953
Si Si2 0.415612 0.405247 0.412973
Si Si3 0.585699 0.273175 0.792573
Si Si4 0.715796 0.883326 0.866386
Si Si5 0.178873 0.163524 0.030180
O O1 0.149865 0.190869 0.746564
O O2 0.184196 0.215251 0.848413
O O3 0.109578 0.952529 0.801621
O O4 0.252908 0.980450 0.811892
O O5 0.500000 0.471194 0.423296
O O6 0.417716 0.313631 0.352766
O O7 0.348670 0.529001 0.402425
O O8 0.390270 0.284390 0.461770
O O9 0.500000 0.264481 0.766510
O O10 0.789154 0.868754 0.906726
O O11 0.250000 0.250000 0.000000
O O12 0.160937 0.000000 0.000000
#
# Coordination Sequence:
#
# PCOD9482141 Si02
#       5
#    16  16  16  16  16
#     4  12  24  42  69  99 144 190 243 281 351 426
#     4  11  25  46  69 106 149 181 235 303 361 419
#     4  11  25  43  66 102 147 189 232 290 352 419
#     4  12  24  44  69 107 136 190 242 296 348 431
#     4  12  23  45  76 101 136 183 241 304 362 428
#
# _framework density 22.818805999999999
#
# number of rings (size 3 to 8) (size 9 to 14) (size 15 to 20)
#    0.000    0.400    6.000    1.800    0.000   10.000 
#    0.000    2.000    0.000    0.000    0.000    0.000 
#    0.000    0.000    0.000    0.000    0.000    0.000 
#
# Total GULP energy -223586.543295 kJ/mol
# GULP energy per Si atom -5589.663582 kJ/mol
# Density = 2.276687 g / cm^3
# Si number density = 22.818806 Si / 1000 Ang^3
#
#
#
# Elastic Constant Matrix: (Units=GPa)
#
#
# Indices 1 2 3 4 5 6 
#
# 1 114.1657 16.2932 7.3197 0.0000 0.0000 0.0000
# 2 16.2932 98.6101 6.7037 0.0000 0.0000 0.0000
# 3 7.3197 6.7037 63.1215 0.0000 0.0000 0.0000
# 4 0.0000 0.0000 0.0000 45.4953 0.0000 0.0000
# 5 0.0000 0.0000 0.0000 0.0000 28.2056 0.0000
# 6 0.0000 0.0000 0.0000 0.0000 0.0000 25.8703
#
#
#
# Elastic Compliance Matrix: (Units=1/GPa)
#
#
# Indices 1 2 3 4 5 6 
#
# 1 0.009021 -0.001430 -0.000894 0.000000 0.000000 0.000000
# 2 -0.001430 0.010441 -0.000943 0.000000 0.000000 0.000000
# 3 -0.000894 -0.000943 0.016046 0.000000 0.000000 0.000000
# 4 0.000000 0.000000 0.000000 0.021980 0.000000 0.000000
# 5 0.000000 0.000000 0.000000 0.000000 0.035454 0.000000
# 6 0.000000 0.000000 0.000000 0.000000 0.000000 0.038654
#
#
# Mechanical properties :
#
#
# Convention : Reuss Voigt Hill
#
# Bulk Modulus (GPa) = 34.51346 37.39227 35.95286
# Shear Modulus (GPa) = 33.83206 36.28630 35.05918
#
# Velocity S-wave (km/s) = 3.85468 3.99205 3.92397
# Velocity P-wave (km/s) = 5.91348 6.13765 6.02661
#
# Compressibility (1/GPa) = 0.02897420
#
# Stress axis : x y z
#
# Youngs Moduli (GPa) = 110.85780 95.77372 62.31964
#
# Poissons Ratio (x) = 0.13692 0.05573
# Poissons Ratio (y) = 0.15849 0.05877
# Poissons Ratio (z) = 0.09913 0.09032
#
# Static dielectric constant tensor:
#      x y z
#    x 1.890930 0.000000 0.000000 
#    y 0.000000 1.831540 0.000000 
#    z 0.000000 0.000000 1.957940 
# 
# From -- ./inp_files/50313.got.cif
#   From: 2010.05.17/outbox.cif.g08.bks.cpg/sg64_26_cif.got.tgz:50313.got - 2010.06.03 16:29:19.
