data_PCOD9482930
_publ_section_title
;
Structure prediction by ZEFSAII (Michael W. Deem and Ramdas Pophale) SiO2 
 PCOD9482930
Probable space group: C M M M
;
_chemical_formula_sum "Si O2"
_cell_formula_units_Z 112
_cell_length_a 18.020976
_cell_length_b 19.818471
_cell_length_c 18.749828
_cell_angle_alpha 90.000000
_cell_angle_beta 90.000000
_cell_angle_gamma 90.000000
_cell_volume 6696.467138
_symmetry_space_group_name_H-M "C M M M"
_symmetry_group_IT_number 65
_symmetry_cell_setting 'orthorhombic'
loop_
_space_group_symop_operation_xyz
x,y,z
-x,-y,z
x,-y,-z
-x,y,-z
-x,-y,-z
x,y,-z
-x,y,z
x,-y,z
1/2+x,1/2+y,z
1/2-x,1/2-y,z
1/2+x,1/2-y,-z
1/2-x,1/2+y,-z
1/2-x,1/2-y,-z
1/2+x,1/2+y,-z
1/2-x,1/2+y,z
1/2+x,1/2-y,z
loop_
_atom_site_type_symbol
_atom_site_label
_atom_site_fract_x
_atom_site_fract_y
_atom_site_fract_z
Si Si1 0.233065 0.575630 0.197521
Si Si2 0.415096 0.097402 0.730699
Si Si3 0.699421 0.817018 0.082462
Si Si4 0.410592 0.877635 0.576781
Si Si5 0.583932 0.764071 0.191756
Si Si6 0.191486 0.187388 0.288638
Si Si7 0.912070 0.216759 0.417669
O O1 0.263658 0.500000 0.190699
O O2 0.145744 0.570128 0.215976
O O3 0.236532 0.622351 0.127214
O O4 0.267612 0.620117 0.261864
O O5 0.500000 0.074280 0.739100
O O6 0.388046 0.087138 0.649756
O O7 0.417198 0.177418 0.747851
O O8 0.750000 0.750000 0.086356
O O9 0.624232 0.796432 0.123669
O O10 0.687855 0.834455 0.000000
O O11 0.381781 0.901720 0.500000
O O12 0.500000 0.884302 0.575531
O O13 0.396283 0.797436 0.582711
O O14 0.500000 0.743625 0.176909
O O15 0.634210 0.706513 0.225708
O O16 0.250000 0.250000 0.293178
O O17 0.143825 0.183662 0.361184
O O18 0.902101 0.194372 0.500000
O O19 0.000000 0.208216 0.399319
#
# Coordination Sequence:
#
# PCOD9482930 Si02
#       7
#    16  16  16  16  16  16  16
#     4  11  22  35  51  75 105 139 176 216 255 304
#     4   9  16  29  48  71  99 134 170 207 258 313
#     4  10  19  36  58  81 107 133 165 206 256 317
#     4   8  12  20  39  69  98 121 155 207 259 304
#     4  10  17  29  52  79 103 133 169 212 257 301
#     4  12  18  32  52  76 105 139 178 221 264 313
#     4   9  17  28  46  75 106 134 170 221 278 322
#
# _framework density 16.725237
#
# number of rings (size 3 to 8) (size 9 to 14) (size 15 to 20)
#    0.000    2.143    5.714    1.286    0.000    1.143 
#    0.000    0.714    0.000    3.429    0.000    7.000 
#    0.000    2.286    0.000    0.000    0.000    0.000 
#
# Total GULP energy -311845.866772 kJ/mol
# GULP energy per Si atom -5568.676192 kJ/mol
# Density = 1.668717 g / cm^3
# Si number density = 16.725237 Si / 1000 Ang^3
#
#
#
# Elastic Constant Matrix: (Units=GPa)
#
#
# Indices 1 2 3 4 5 6 
#
# 1 75.1720 26.9770 33.7579 0.0000 0.0000 0.0000
# 2 26.9770 73.5719 29.4680 0.0000 0.0000 0.0000
# 3 33.7579 29.4680 120.6830 0.0000 0.0000 0.0000
# 4 0.0000 0.0000 0.0000 -16.4400 0.0000 0.0000
# 5 0.0000 0.0000 0.0000 0.0000 23.0517 0.0000
# 6 0.0000 0.0000 0.0000 0.0000 0.0000 0.7583
#
#
#
# Elastic Compliance Matrix: (Units=1/GPa)
#
#
# Indices 1 2 3 4 5 6 
#
# 1 0.016545 -0.004670 -0.003488 0.000000 0.000000 0.000000
# 2 -0.004670 0.016384 -0.002694 0.000000 0.000000 0.000000
# 3 -0.003488 -0.002694 0.009920 0.000000 0.000000 0.000000
# 4 0.000000 0.000000 0.000000 -0.060827 0.000000 0.000000
# 5 0.000000 0.000000 0.000000 0.000000 0.043381 0.000000
# 6 0.000000 0.000000 0.000000 0.000000 0.000000 1.318800
#
#
# Mechanical properties :
#
#
# Convention : Reuss Voigt Hill
#
# Bulk Modulus (GPa) = 47.29314 49.98142 48.63728
# Shear Modulus (GPa) = 3.64179 13.42226 8.53202
#
# Velocity S-wave (km/s) = 1.47721 2.83594 2.26105
# Velocity P-wave (km/s) = 5.58994 6.37747 5.99665
#
# Compressibility (1/GPa) = 0.02114472
#
# Stress axis : x y z
#
# Youngs Moduli (GPa) = 60.44162 61.03698 100.80981
#
# Poissons Ratio (x) = 0.28502 0.35160
# Poissons Ratio (y) = 0.28224 0.27161
# Poissons Ratio (z) = 0.21081 0.16445
#
# Static dielectric constant tensor:
#      x y z
#    x 1.574830 0.000000 0.000000 
#    y 0.000000 1.588940 0.000000 
#    z 0.000000 0.000000 1.597040 
# 
# From -- ./inp_files/54868.got.cif
#   From: 2010.05.17/outbox.cif.g08.bks.cpg/sg65_28_cif.got.tgz:54868.got - 2010.06.03 17:01:31.
