data_PCOD9482330
_publ_section_title
;
Structure prediction by ZEFSAII (Michael W. Deem and Ramdas Pophale) SiO2 
 PCOD9482330
Probable space group: C M C A
;
_chemical_formula_sum "Si O2"
_cell_formula_units_Z 96
_cell_length_a 19.279278
_cell_length_b 14.357934
_cell_length_c 15.743868
_cell_angle_alpha 90.000000
_cell_angle_beta 90.000000
_cell_angle_gamma 90.000000
_cell_volume 4358.069565
_symmetry_space_group_name_H-M "C M C A"
_symmetry_group_IT_number 64
_symmetry_cell_setting 'orthorhombic'
loop_
_space_group_symop_operation_xyz
x,y,z
-x,1/2-y,1/2+z
x,-y,-z
-x,1/2+y,1/2-z
-x,-y,-z
x,1/2+y,1/2-z
-x,y,z
x,1/2-y,1/2+z
1/2+x,1/2+y,z
1/2-x,-y,1/2+z
1/2+x,1/2-y,-z
1/2-x,y,1/2-z
1/2-x,1/2-y,-z
1/2+x,y,1/2-z
1/2-x,1/2+y,z
1/2+x,-y,1/2+z
loop_
_atom_site_type_symbol
_atom_site_label
_atom_site_fract_x
_atom_site_fract_y
_atom_site_fract_z
Si Si1 0.784613 0.519193 0.843194
Si Si2 0.682654 0.725725 0.599040
Si Si3 0.355798 0.511299 0.906298
Si Si4 0.339949 0.766773 0.407693
Si Si5 0.076998 0.995689 0.265815
Si Si6 0.921606 0.767822 0.256230
O O1 0.750000 0.539395 0.750000
O O2 0.806262 0.614995 0.888585
O O3 0.722396 0.471170 0.895087
O O4 0.858135 0.471869 0.822909
O O5 0.650205 0.744244 0.506724
O O6 0.760761 0.763944 0.609398
O O7 0.632813 0.762132 0.672481
O O8 0.343094 0.621545 0.897362
O O9 0.404807 0.477715 0.831018
O O10 0.384272 0.500000 0.000000
O O11 0.394040 0.736662 0.335890
O O12 0.078166 0.881701 0.263301
O O13 0.000000 0.024159 0.291971
O O14 0.000000 0.736890 0.271114
#
# Coordination Sequence:
#
# PCOD9482330 Si02
#       6
#    16  16  16  16  16  16
#     4   8  14  26  44  61  79 103 135 173 204 240
#     4   9  15  26  44  62  81 108 137 167 210 247
#     4   9  16  26  41  61  83 106 133 169 208 241
#     4   9  17  27  42  64  86 108 140 175 204 247
#     4   8  14  25  42  61  77  99 134 170 202 237
#     4   9  16  26  41  62  86 108 133 169 208 246
#
# _framework density 22.028102000000001
#
# number of rings (size 3 to 8) (size 9 to 14) (size 15 to 20)
#    0.000    3.333    0.000    3.500    0.000    1.000 
#    0.000    0.000    0.000   21.500    0.000    0.000 
#    0.000    0.000    0.000    0.000    0.000    0.333 
#
# Total GULP energy -267690.749622 kJ/mol
# GULP energy per Si atom -5576.890617 kJ/mol
# Density = 2.197796 g / cm^3
# Si number density = 22.028102 Si / 1000 Ang^3
#
#
#
# Elastic Constant Matrix: (Units=GPa)
#
#
# Indices 1 2 3 4 5 6 
#
# 1 95.5985 -12.8500 23.6567 0.0000 0.0000 0.0000
# 2 -12.8500 64.5284 -35.2026 0.0000 0.0000 0.0000
# 3 23.6567 -35.2026 42.8788 0.0000 0.0000 0.0000
# 4 0.0000 0.0000 0.0000 13.5806 0.0000 0.0000
# 5 0.0000 0.0000 0.0000 0.0000 8.2358 0.0000
# 6 0.0000 0.0000 0.0000 0.0000 0.0000 0.3429
#
#
#
# Elastic Compliance Matrix: (Units=1/GPa)
#
#
# Indices 1 2 3 4 5 6 
#
# 1 0.012295 -0.002268 -0.008645 0.000000 0.000000 0.000000
# 2 -0.002268 0.028486 0.024638 0.000000 0.000000 0.000000
# 3 -0.008645 0.024638 0.048318 0.000000 0.000000 0.000000
# 4 0.000000 0.000000 0.000000 0.073634 0.000000 0.000000
# 5 0.000000 0.000000 0.000000 0.000000 0.121421 0.000000
# 6 0.000000 0.000000 0.000000 0.000000 0.000000 2.916034
#
#
# Mechanical properties :
#
#
# Convention : Reuss Voigt Hill
#
# Bulk Modulus (GPa) = 8.58004 17.13486 12.85745
# Shear Modulus (GPa) = 1.55686 19.59198 10.57442
#
# Velocity S-wave (km/s) = 0.84160 2.98553 2.19336
# Velocity P-wave (km/s) = 2.20179 4.43622 3.50200
#
# Compressibility (1/GPa) = 0.11654952
#
# Stress axis : x y z
#
# Youngs Moduli (GPa) = 81.33475 35.10458 20.69609
#
# Poissons Ratio (x) = 0.07961 0.17892
# Poissons Ratio (y) = 0.18445 -0.50991
# Poissons Ratio (z) = 0.70314 -0.86490
#
# Static dielectric constant tensor:
#      x y z
#    x 1.807990 0.000000 0.000000 
#    y 0.000000 1.865530 0.000000 
#    z 0.000000 0.000000 1.782080 
# 
# From -- ./inp_files/17474.got.cif
#   From: 2010.05.17/outbox.cif.g08.bks.cpg/sg64_9_cif.got.tgz:17474.got - 2010.06.03 16:29:19.
