data_PCOD9482644
_publ_section_title
;
Structure prediction by ZEFSAII (Michael W. Deem and Ramdas Pophale) SiO2 
 PCOD9482644
Probable space group: C M M M
;
_chemical_formula_sum "Si O2"
_cell_formula_units_Z 48
_cell_length_a 5.581083
_cell_length_b 19.115251
_cell_length_c 21.769417
_cell_angle_alpha 90.000000
_cell_angle_beta 90.000000
_cell_angle_gamma 90.000000
_cell_volume 2322.444182
_symmetry_space_group_name_H-M "C M M M"
_symmetry_group_IT_number 65
_symmetry_cell_setting 'orthorhombic'
loop_
_space_group_symop_operation_xyz
x,y,z
-x,-y,z
x,-y,-z
-x,y,-z
-x,-y,-z
x,y,-z
-x,y,z
x,-y,z
1/2+x,1/2+y,z
1/2-x,1/2-y,z
1/2+x,1/2-y,-z
1/2-x,1/2+y,-z
1/2-x,1/2-y,-z
1/2+x,1/2+y,-z
1/2-x,1/2+y,z
1/2+x,1/2-y,z
loop_
_atom_site_type_symbol
_atom_site_label
_atom_site_fract_x
_atom_site_fract_y
_atom_site_fract_z
Si Si1 0.000000 0.663543 0.879391
Si Si2 0.000000 0.500000 0.661328
Si Si3 0.000000 0.128516 0.431012
Si Si4 0.000000 0.651733 0.388871
Si Si5 0.000000 0.000000 0.335715
Si Si6 0.000000 0.707818 0.749234
Si Si7 0.000000 0.175800 0.072840
O O1 0.000000 0.654742 0.806206
O O2 0.000000 0.747840 0.894135
O O3 0.251756 0.639085 0.907827
O O4 0.000000 0.432778 0.617215
O O5 0.247360 0.500000 0.698498
O O6 0.751780 0.169699 0.420490
O O7 0.000000 0.099839 0.500000
O O8 0.000000 0.067991 0.379431
O O9 0.000000 0.677435 0.318982
O O10 0.250000 0.750000 0.755484
O O11 0.000000 0.188176 0.000000
#
# Coordination Sequence:
#
# PCOD9482644 Si02
#       7
#     8   4   8   8   4   8   8
#     4  10  16  27  39  61  86 121 155 180 214 258
#     4   8  16  32  47  72 100 112 149 182 236 292
#     4  10  18  32  50  72  95 114 149 192 245 297
#     4  10  21  33  52  73  92 126 149 194 241 278
#     4   8  15  26  48  74  96 116 132 178 243 304
#     4  12  21  35  50  66  95 126 171 196 216 267
#     4  10  16  25  41  63  91 121 146 178 232 273
#
# _framework density 20.667881999999999
#
# number of rings (size 3 to 8) (size 9 to 14) (size 15 to 20)
#    0.000    2.000    3.333    4.250    0.000    0.000 
#    0.000    5.000    0.000   10.000    0.000    0.000 
#    0.000    0.000    0.000    8.250    0.000    0.000 
#
# Total GULP energy -133682.610055 kJ/mol
# GULP energy per Si atom -5570.108752 kJ/mol
# Density = 2.062084 g / cm^3
# Si number density = 20.667882 Si / 1000 Ang^3
#
#
#
# Elastic Constant Matrix: (Units=GPa)
#
#
# Indices 1 2 3 4 5 6 
#
# 1 267.2122 5.7314 33.2227 0.0000 0.0000 0.0000
# 2 5.7314 32.9754 -16.0226 0.0000 0.0000 0.0000
# 3 33.2227 -16.0226 81.0668 0.0000 0.0000 0.0000
# 4 0.0000 0.0000 0.0000 -0.0069 0.0000 0.0000
# 5 0.0000 0.0000 0.0000 0.0000 34.2153 0.0000
# 6 0.0000 0.0000 0.0000 0.0000 0.0000 -10.1534
#
#
#
# Elastic Compliance Matrix: (Units=1/GPa)
#
#
# Indices 1 2 3 4 5 6 
#
# 1 0.004024 -0.001660 -0.001977 0.000000 0.000000 0.000000
# 2 -0.001660 0.034232 0.007446 0.000000 0.000000 0.000000
# 3 -0.001977 0.007446 0.014617 0.000000 0.000000 0.000000
# 4 0.000000 0.000000 0.000000********** 0.000000 0.000000
# 5 0.000000 0.000000 0.000000 0.000000 0.029227 0.000000
# 6 0.000000 0.000000 0.000000 0.000000 0.000000 -0.098489
#
#
# Mechanical properties :
#
#
# Convention : Reuss Voigt Hill
#
# Bulk Modulus (GPa) = 16.53123 47.45750 31.99436
# Shear Modulus (GPa) = -0.03467 28.69919 14.33226
#
# Velocity S-wave (km/s) = -0.12966 3.73042 2.63621
# Velocity P-wave (km/s) = 2.82727 6.44721 4.97795
#
# Compressibility (1/GPa) = 0.06049158
#
# Stress axis : x y z
#
# Youngs Moduli (GPa) = 248.52341 29.21223 68.41127
#
# Poissons Ratio (x) = 0.04849 0.13526
# Poissons Ratio (y) = 0.41256 -0.50940
# Poissons Ratio (z) = 0.49136 -0.21752
#
# Static dielectric constant tensor:
#      x y z
#    x 1.890830 0.000000 0.000000 
#    y 0.000000 1.760420 0.000000 
#    z 0.000000 0.000000 1.683180 
# 
# From -- ./inp_files/58350.got.cif
#   From: 2010.05.17/outbox.cif.g08.bks.cpg/sg65_30_cif.got.tgz:58350.got - 2010.06.03 17:01:31.
