data_PCOD9482786
_publ_section_title
;
Structure prediction by ZEFSAII (Michael W. Deem and Ramdas Pophale) SiO2 
 PCOD9482786
Probable space group: C M M M
;
_chemical_formula_sum "Si O2"
_cell_formula_units_Z 88
_cell_length_a 31.389301
_cell_length_b 28.168149
_cell_length_c 7.942572
_cell_angle_alpha 90.000000
_cell_angle_beta 90.000000
_cell_angle_gamma 90.000000
_cell_volume 7022.651457
_symmetry_space_group_name_H-M "C M M M"
_symmetry_group_IT_number 65
_symmetry_cell_setting 'orthorhombic'
loop_
_space_group_symop_operation_xyz
x,y,z
-x,-y,z
x,-y,-z
-x,y,-z
-x,-y,-z
x,y,-z
-x,y,z
x,-y,z
1/2+x,1/2+y,z
1/2-x,1/2-y,z
1/2+x,1/2-y,-z
1/2-x,1/2+y,-z
1/2-x,1/2-y,-z
1/2+x,1/2+y,-z
1/2-x,1/2+y,z
1/2+x,1/2-y,z
loop_
_atom_site_type_symbol
_atom_site_label
_atom_site_fract_x
_atom_site_fract_y
_atom_site_fract_z
Si Si1 0.951634 0.690649 0.296412
Si Si2 0.596409 0.095321 0.199587
Si Si3 0.130125 0.746235 0.306823
Si Si4 0.820660 0.644660 0.314616
Si Si5 0.729834 0.826493 0.000000
Si Si6 0.950906 0.500000 0.206047
Si Si7 0.817393 0.776790 0.000000
O O1 0.950721 0.687798 0.500000
O O2 0.934206 0.640466 0.229981
O O3 0.917506 0.731278 0.251567
O O4 0.000000 0.699165 0.241520
O O5 0.641536 0.107182 0.283942
O O6 0.573588 0.047510 0.259728
O O7 0.603904 0.091542 0.000000
O O8 0.130096 0.764268 0.500000
O O9 0.155278 0.695774 0.310882
O O10 0.153812 0.777557 0.167765
O O11 0.801832 0.638582 0.500000
O O12 0.786801 0.646477 0.165156
O O13 0.779701 0.814990 0.000000
O O14 0.705939 0.775028 0.000000
O O15 0.000000 0.500000 0.261707
O O16 0.951450 0.500000 0.000000
#
# Coordination Sequence:
#
# PCOD9482786 Si02
#       7
#    16  16  16  16   8   8   8
#     4   9  17  27  37  50  67  89 118 146 171 203
#     4  10  17  27  40  52  68  88 114 145 178 215
#     4   8  15  25  35  49  70  90 106 132 165 194
#     4   9  16  27  40  53  68  85 107 133 164 203
#     4   9  16  26  38  55  67  84 104 127 157 201
#     4   9  18  28  37  53  73  92 115 145 182 219
#     4   9  16  24  37  52  70  84 105 126 156 204
#
# _framework density 12.53088
#
# number of rings (size 3 to 8) (size 9 to 14) (size 15 to 20)
#    0.000    3.000    0.909    2.182    3.818    1.818 
#    0.000    5.455    0.000    3.273    0.000    0.000 
#    0.000    0.000    0.000    0.000    0.000    0.000 
#
# Total GULP energy -244981.258400 kJ/mol
# GULP energy per Si atom -5567.755873 kJ/mol
# Density = 1.250236 g / cm^3
# Si number density = 12.530880 Si / 1000 Ang^3
#
#
#
# Elastic Constant Matrix: (Units=GPa)
#
#
# Indices 1 2 3 4 5 6 
#
# 1 89.9512 36.2283 50.3701 0.0000 0.0000 0.0000
# 2 36.2283 24.9433 23.4494 0.0000 0.0000 0.0000
# 3 50.3701 23.4494 74.8707 0.0000 0.0000 0.0000
# 4 0.0000 0.0000 0.0000 2.7148 0.0000 0.0000
# 5 0.0000 0.0000 0.0000 0.0000 11.0615 0.0000
# 6 0.0000 0.0000 0.0000 0.0000 0.0000 18.3308
#
#
#
# Elastic Compliance Matrix: (Units=1/GPa)
#
#
# Indices 1 2 3 4 5 6 
#
# 1 0.030964 -0.035985 -0.009561 0.000000 0.000000 0.000000
# 2 -0.035985 0.098641 -0.006685 0.000000 0.000000 0.000000
# 3 -0.009561 -0.006685 0.021882 0.000000 0.000000 0.000000
# 4 0.000000 0.000000 0.000000 0.368356 0.000000 0.000000
# 5 0.000000 0.000000 0.000000 0.000000 0.090403 0.000000
# 6 0.000000 0.000000 0.000000 0.000000 0.000000 0.054553
#
#
# Mechanical properties :
#
#
# Convention : Reuss Voigt Hill
#
# Bulk Modulus (GPa) = 21.26502 45.54009 33.40255
# Shear Modulus (GPa) = 6.36995 11.73592 9.05293
#
# Velocity S-wave (km/s) = 2.25709 3.06365 2.69076
# Velocity P-wave (km/s) = 4.87847 6.99541 6.03056
#
# Compressibility (1/GPa) = 0.04702559
#
# Stress axis : x y z
#
# Youngs Moduli (GPa) = 32.29553 10.13782 45.69878
#
# Poissons Ratio (x) = 0.36480 0.43693
# Poissons Ratio (y) = 1.16214 0.30550
# Poissons Ratio (z) = 0.30878 0.06777
#
# Static dielectric constant tensor:
#      x y z
#    x 1.410540 0.000000 0.000000 
#    y 0.000000 1.371940 0.000000 
#    z 0.000000 0.000000 1.443910 
# 
# From -- ./inp_files/19019.got.cif
#   From: 2010.05.17/outbox.cif.g08.bks.cpg/sg65_10_cif.got.tgz:19019.got - 2010.06.03 17:01:31.
