data_PCOD9482534
_publ_section_title
;
Structure prediction by ZEFSAII (Michael W. Deem and Ramdas Pophale) SiO2 
 PCOD9482534
Probable space group: C M M M
;
_chemical_formula_sum "Si O2"
_cell_formula_units_Z 60
_cell_length_a 7.422317
_cell_length_b 24.416840
_cell_length_c 15.391283
_cell_angle_alpha 90.000000
_cell_angle_beta 90.000000
_cell_angle_gamma 90.000000
_cell_volume 2789.354932
_symmetry_space_group_name_H-M "C M M M"
_symmetry_group_IT_number 65
_symmetry_cell_setting 'orthorhombic'
loop_
_space_group_symop_operation_xyz
x,y,z
-x,-y,z
x,-y,-z
-x,y,-z
-x,-y,-z
x,y,-z
-x,y,z
x,-y,z
1/2+x,1/2+y,z
1/2-x,1/2-y,z
1/2+x,1/2-y,-z
1/2-x,1/2+y,-z
1/2-x,1/2-y,-z
1/2+x,1/2+y,-z
1/2-x,1/2+y,z
1/2+x,1/2-y,z
loop_
_atom_site_type_symbol
_atom_site_label
_atom_site_fract_x
_atom_site_fract_y
_atom_site_fract_z
Si Si1 0.740923 0.500000 0.500000
Si Si2 0.284346 0.185796 0.673743
Si Si3 0.279540 0.936030 0.000000
Si Si4 0.293997 0.129700 0.500000
Si Si5 0.781522 0.604364 0.185915
Si Si6 0.781247 0.500000 0.694393
O O1 0.803929 0.564024 0.500000
O O2 0.686043 0.500000 0.601656
O O3 0.500000 0.177568 0.675006
O O4 0.250000 0.250000 0.667656
O O5 0.213326 0.153853 0.588646
O O6 0.217474 0.157806 0.762457
O O7 0.217830 0.907128 0.911468
O O8 0.500000 0.935759 0.000000
O O9 0.227158 0.000000 0.000000
O O10 0.500000 0.149884 0.500000
O O11 0.739779 0.552927 0.248078
O O12 0.000000 0.606036 0.179998
O O13 0.000000 0.500000 0.675995
#
# Coordination Sequence:
#
# PCOD9482534 Si02
#       6
#     4  16   8   8  16   8
#     4  12  17  22  40  70 101 118 137 186 249 288
#     4  10  20  33  47  66  93 126 161 191 221 265
#     4   9  14  22  39  64  95 121 139 176 241 296
#     4  10  18  27  44  69  96 122 149 187 236 281
#     4   9  16  25  40  64  92 119 148 185 232 280
#     4  10  15  21  36  61  93 121 141 178 237 287
#
# _framework density 21.510349999999999
#
# number of rings (size 3 to 8) (size 9 to 14) (size 15 to 20)
#    0.000    2.267    4.000    1.600    0.000    0.000 
#    0.000    0.667    0.000    0.000    0.000    4.667 
#    0.000    1.067    0.000    0.000    0.000    0.000 
#
# Total GULP energy -167209.649451 kJ/mol
# GULP energy per Si atom -5573.654982 kJ/mol
# Density = 2.146139 g / cm^3
# Si number density = 21.510350 Si / 1000 Ang^3
#
#
#
# Elastic Constant Matrix: (Units=GPa)
#
#
# Indices 1 2 3 4 5 6 
#
# 1 68.1364 1.0426 20.9624 0.0000 0.0000 0.0000
# 2 1.0426 144.5240 93.9925 0.0000 0.0000 0.0000
# 3 20.9624 93.9925 249.4017 0.0000 0.0000 0.0000
# 4 0.0000 0.0000 0.0000 21.1683 0.0000 0.0000
# 5 0.0000 0.0000 0.0000 0.0000 -29.5219 0.0000
# 6 0.0000 0.0000 0.0000 0.0000 0.0000 1328.7837
#
#
#
# Elastic Compliance Matrix: (Units=1/GPa)
#
#
# Indices 1 2 3 4 5 6 
#
# 1 0.015165 0.000953 -0.001634 0.000000 0.000000 0.000000
# 2 0.000953 0.009226 -0.003557 0.000000 0.000000 0.000000
# 3 -0.001634 -0.003557 0.005487 0.000000 0.000000 0.000000
# 4 0.000000 0.000000 0.000000 0.047241 0.000000 0.000000
# 5 0.000000 0.000000 0.000000 0.000000 -0.033873 0.000000
# 6 0.000000 0.000000 0.000000 0.000000 0.000000 0.000753
#
#
# Mechanical properties :
#
#
# Convention : Reuss Voigt Hill
#
# Bulk Modulus (GPa) = 46.72382 77.11745 61.92063
# Shear Modulus (GPa) = 83.88259 287.15700 185.51980
#
# Velocity S-wave (km/s) = 6.25148 11.56663 9.29699
# Velocity P-wave (km/s) = 8.59516 14.63939 12.00393
#
# Compressibility (1/GPa) = 0.02140236
#
# Stress axis : x y z
#
# Youngs Moduli (GPa) = 65.94343 108.39236 182.23346
#
# Poissons Ratio (x) = -0.10332 0.29773
# Poissons Ratio (y) = -0.06286 0.64821
# Poissons Ratio (z) = 0.10774 0.38556
#
# Static dielectric constant tensor:
#      x y z
#    x 1.844800 0.000000 0.000000 
#    y 0.000000 1.726620 0.000000 
#    z 0.000000 0.000000 1.773280 
# 
# From -- ./inp_files/37970.got.cif
#   From: 2010.05.17/outbox.cif.g08.bks.cpg/sg65_19_cif.got.tgz:37970.got - 2010.06.03 17:01:31.
