data_PCOD9482912
_publ_section_title
;
Structure prediction by ZEFSAII (Michael W. Deem and Ramdas Pophale) SiO2 
 PCOD9482912
Probable space group: C M M M
;
_chemical_formula_sum "Si O2"
_cell_formula_units_Z 56
_cell_length_a 10.621244
_cell_length_b 38.134065
_cell_length_c 7.655619
_cell_angle_alpha 90.000000
_cell_angle_beta 90.000000
_cell_angle_gamma 90.000000
_cell_volume 3100.764620
_symmetry_space_group_name_H-M "C M M M"
_symmetry_group_IT_number 65
_symmetry_cell_setting 'orthorhombic'
loop_
_space_group_symop_operation_xyz
x,y,z
-x,-y,z
x,-y,-z
-x,y,-z
-x,-y,-z
x,y,-z
-x,y,z
x,-y,z
1/2+x,1/2+y,z
1/2-x,1/2-y,z
1/2+x,1/2-y,-z
1/2-x,1/2+y,-z
1/2-x,1/2-y,-z
1/2+x,1/2+y,-z
1/2-x,1/2+y,z
1/2+x,1/2-y,z
loop_
_atom_site_type_symbol
_atom_site_label
_atom_site_fract_x
_atom_site_fract_y
_atom_site_fract_z
Si Si1 0.346984 0.039914 0.500000
Si Si2 0.500000 0.786840 0.286613
Si Si3 0.851688 0.593065 0.800148
Si Si4 0.500000 0.294001 0.713635
Si Si5 0.756892 0.331218 0.288171
O O1 0.500000 0.038265 0.500000
O O2 0.310325 0.062734 0.668353
O O3 0.300623 0.000000 0.500000
O O4 0.500000 0.786708 0.500000
O O5 0.500000 0.746489 0.230033
O O6 0.375243 0.807570 0.230774
O O7 0.777729 0.629163 0.773055
O O8 0.000000 0.600807 0.762877
O O9 0.842107 0.581565 0.000000
O O10 0.500000 0.293694 0.500000
O O11 0.373784 0.313953 0.769116
O O12 0.758074 0.331705 0.500000
#
# Coordination Sequence:
#
# PCOD9482912 Si02
#       5
#     8   8  16   8  16
#     4   9  18  32  52  79 110 138 167 206 257 311
#     4   9  16  26  47  71  99 139 179 222 269 312
#     4  10  19  31  51  77 105 138 175 211 253 307
#     4   9  18  28  43  75 105 133 179 228 267 304
#     4  10  17  29  49  71 102 139 178 219 262 309
#
# _framework density 18.060061000000001
#
# number of rings (size 3 to 8) (size 9 to 14) (size 15 to 20)
#    0.000    2.429    2.857    0.857    0.000    4.000 
#    0.000    3.571    0.000    5.143    0.000    2.000 
#    0.000    2.286    0.000    0.000    0.000    0.000 
#
# Total GULP energy -156285.836970 kJ/mol
# GULP energy per Si atom -5581.637035 kJ/mol
# Density = 1.801896 g / cm^3
# Si number density = 18.060061 Si / 1000 Ang^3
#
#
#
# Elastic Constant Matrix: (Units=GPa)
#
#
# Indices 1 2 3 4 5 6 
#
# 1 106.7918 67.0663 28.2181 0.0000 0.0000 0.0000
# 2 67.0663 189.6778 53.5393 0.0000 0.0000 0.0000
# 3 28.2181 53.5393 61.9169 0.0000 0.0000 0.0000
# 4 0.0000 0.0000 0.0000 -10.7896 0.0000 0.0000
# 5 0.0000 0.0000 0.0000 0.0000 3.0316 0.0000
# 6 0.0000 0.0000 0.0000 0.0000 0.0000 1.1098
#
#
#
# Elastic Compliance Matrix: (Units=1/GPa)
#
#
# Indices 1 2 3 4 5 6 
#
# 1 0.012310 -0.003663 -0.002443 0.000000 0.000000 0.000000
# 2 -0.003663 0.008064 -0.005304 0.000000 0.000000 0.000000
# 3 -0.002443 -0.005304 0.021850 0.000000 0.000000 0.000000
# 4 0.000000 0.000000 0.000000 -0.092682 0.000000 0.000000
# 5 0.000000 0.000000 0.000000 0.000000 0.329859 0.000000
# 6 0.000000 0.000000 0.000000 0.000000 0.000000 0.901090
#
#
# Mechanical properties :
#
#
# Convention : Reuss Voigt Hill
#
# Bulk Modulus (GPa) = 51.53249 72.89265 62.21257
# Shear Modulus (GPa) = 4.13299 12.64121 8.38710
#
# Velocity S-wave (km/s) = 1.51441 2.64853 2.15733
# Velocity P-wave (km/s) = 5.62617 7.05704 6.38184
#
# Compressibility (1/GPa) = 0.01940523
#
# Stress axis : x y z
#
# Youngs Moduli (GPa) = 81.23548 124.00250 45.76635
#
# Poissons Ratio (x) = 0.45423 0.11179
# Poissons Ratio (y) = 0.29757 0.24274
# Poissons Ratio (z) = 0.19843 0.65769
#
# Static dielectric constant tensor:
#      x y z
#    x 1.595820 0.000000 0.000000 
#    y 0.000000 1.580980 0.000000 
#    z 0.000000 0.000000 1.658180 
# 
# From -- ./inp_files/4751.got.cif
#   From: 2010.05.17/outbox.cif.g08.bks.cpg/sg65_3_cif.got.tgz:4751.got - 2010.06.03 17:01:31.
