data_PCOD9482415
_publ_section_title
;
Structure prediction by ZEFSAII (Michael W. Deem and Ramdas Pophale) SiO2 
 PCOD9482415
Probable space group: C M C A
;
_chemical_formula_sum "Si O2"
_cell_formula_units_Z 40
_cell_length_a 9.000000
_cell_length_b 27.000000
_cell_length_c 18.000000
_cell_angle_alpha 90.000000
_cell_angle_beta 90.000000
_cell_angle_gamma 90.000000
_cell_volume 4374.000000
_symmetry_space_group_name_H-M "C M C A"
_symmetry_group_IT_number 64
_symmetry_cell_setting 'orthorhombic'
loop_
_space_group_symop_operation_xyz
x,y,z
-x,1/2-y,1/2+z
x,-y,-z
-x,1/2+y,1/2-z
-x,-y,-z
x,1/2+y,1/2-z
-x,y,z
x,1/2-y,1/2+z
1/2+x,1/2+y,z
1/2-x,-y,1/2+z
1/2+x,1/2-y,-z
1/2-x,y,1/2-z
1/2-x,1/2-y,-z
1/2+x,y,1/2-z
1/2-x,1/2+y,z
1/2+x,-y,1/2+z
loop_
_atom_site_type_symbol
_atom_site_label
_atom_site_fract_x
_atom_site_fract_y
_atom_site_fract_z
Si Si1 0.679629 0.435192 0.831505
Si Si2 0.819839 0.660226 0.425262
Si Si3 0.820823 0.255486 0.170673
Si Si4 0.180087 0.149442 0.904250
Si Si5 0.678589 0.954175 0.331194
O O1 0.500000 0.432881 0.825613
O O2 0.750000 0.430540 0.750000
O O3 0.729677 0.389144 0.881757
O O4 0.717754 0.490643 0.860469
O O5 0.776026 0.711228 0.385347
O O6 0.774274 0.658103 0.510698
O O7 0.000000 0.659168 0.424399
O O8 0.750000 0.243536 0.250000
O O9 0.756971 0.308190 0.144387
O O10 0.000000 0.257333 0.175003
O O11 0.220780 0.093797 0.879030
O O12 0.000000 0.154127 0.898209
O O13 0.500000 0.953161 0.323992
O O14 0.750000 0.949411 0.250000
#
# Coordination Sequence:
#
# PCOD9482415 Si02
#       5
#    16  16  16  16  16
#     4   9  17  32  52  75 101 132 168 208 249 295
#     4   9  19  34  53  76 103 131 166 209 253 298
#     4  11  22  36  54  76 100 132 170 209 250 298
#     4  10  20  35  53  76 104 134 166 206 252 300
#     4   9  18  31  51  75 100 131 168 206 247 293
#
# _framework density 9.1449470000000002
#
# number of rings (size 3 to 8) (size 9 to 14) (size 15 to 20)
#    0.000    2.400    0.000    2.400    0.000    3.200 
#    0.000    7.000    0.000    0.000    0.000    7.000 
#    0.000    0.000    0.000    0.000    0.000    0.000 
#
# Total GULP energy -223117.341349 kJ/mol
# GULP energy per Si atom -5577.933534 kJ/mol
# Density = 0.912413 g / cm^3
# Si number density = 9.144947 Si / 1000 Ang^3
#
#
#
# Elastic Constant Matrix: (Units=GPa)
#
#
# Indices 1 2 3 4 5 6 
#
# 1 15.5786 10.0582 2.6141 0.0000 0.0000 0.0000
# 2 10.0582 63.1162 -10.1877 0.0000 0.0000 0.0000
# 3 2.6141 -10.1877 29.6353 0.0000 0.0000 0.0000
# 4 0.0000 0.0000 0.0000 -13.9788 0.0000 0.0000
# 5 0.0000 0.0000 0.0000 0.0000 18.0343 0.0000
# 6 0.0000 0.0000 0.0000 0.0000 0.0000 23.5331
#
#
#
# Elastic Compliance Matrix: (Units=1/GPa)
#
#
# Indices 1 2 3 4 5 6 
#
# 1 0.074995 -0.013784 -0.011354 0.000000 0.000000 0.000000
# 2 -0.013784 0.019308 0.007853 0.000000 0.000000 0.000000
# 3 -0.011354 0.007853 0.037445 0.000000 0.000000 0.000000
# 4 0.000000 0.000000 0.000000 -0.071537 0.000000 0.000000
# 5 0.000000 0.000000 0.000000 0.000000 0.055450 0.000000
# 6 0.000000 0.000000 0.000000 0.000000 0.000000 0.042493
#
#
# Mechanical properties :
#
#
# Convention : Reuss Voigt Hill
#
# Bulk Modulus (GPa) = 10.29021 12.58879 11.43950
# Shear Modulus (GPa) = 22.21077 12.57409 17.39243
#
# Velocity S-wave (km/s) = 3.48857 2.62484 3.08706
# Velocity P-wave (km/s) = 4.67602 4.01052 4.35600
#
# Compressibility (1/GPa) = 0.09717975
#
# Stress axis : x y z
#
# Youngs Moduli (GPa) = 13.33416 51.79198 26.70601
#
# Poissons Ratio (x) = 0.71389 0.30321
# Poissons Ratio (y) = 0.18380 -0.20973
# Poissons Ratio (z) = 0.15139 -0.40674
#
# Static dielectric constant tensor:
#      x y z
#    x 1.612740 0.000000 0.000000 
#    y 0.000000 1.636570 0.000000 
#    z 0.000000 0.000000 1.614750 
# 
# From -- ./inp_files/29712.got.cif
#   From: 2010.05.17/outbox.ucp.g08.bks.cvg/sg64_15_cif.got.tgz:29712.got - 2010.06.11 16:36:46.
