data_PCOD9482123
_publ_section_title
;
Structure prediction by ZEFSAII (Michael W. Deem and Ramdas Pophale) SiO2 
 PCOD9482123
Probable space group: C M C A
;
_chemical_formula_sum "Si O2"
_cell_formula_units_Z 96
_cell_length_a 14.326427
_cell_length_b 18.989533
_cell_length_c 17.876155
_cell_angle_alpha 90.000000
_cell_angle_beta 90.000000
_cell_angle_gamma 90.000000
_cell_volume 4863.246550
_symmetry_space_group_name_H-M "C M C A"
_symmetry_group_IT_number 64
_symmetry_cell_setting 'orthorhombic'
loop_
_space_group_symop_operation_xyz
x,y,z
-x,1/2-y,1/2+z
x,-y,-z
-x,1/2+y,1/2-z
-x,-y,-z
x,1/2+y,1/2-z
-x,y,z
x,1/2-y,1/2+z
1/2+x,1/2+y,z
1/2-x,-y,1/2+z
1/2+x,1/2-y,-z
1/2-x,y,1/2-z
1/2-x,1/2-y,-z
1/2+x,y,1/2-z
1/2-x,1/2+y,z
1/2+x,-y,1/2+z
loop_
_atom_site_type_symbol
_atom_site_label
_atom_site_fract_x
_atom_site_fract_y
_atom_site_fract_z
Si Si1 0.189870 0.311085 0.462497
Si Si2 0.312440 0.346831 0.320169
Si Si3 0.000000 0.221877 0.620570
Si Si4 0.500000 0.272169 0.551024
Si Si5 0.686293 0.488411 0.678693
Si Si6 0.000000 0.104212 0.326567
Si Si7 0.000000 0.382282 0.654870
Si Si8 0.338735 0.553438 0.063650
O O1 0.250000 0.250000 0.500000
O O2 0.245194 0.339108 0.391192
O O3 0.180635 0.373901 0.521302
O O4 0.090941 0.276922 0.441249
O O5 0.250000 0.322263 0.250000
O O6 0.407056 0.304350 0.337309
O O7 0.336394 0.429220 0.309513
O O8 0.000000 0.306470 0.615298
O O9 0.000000 0.196923 0.533927
O O10 0.500000 0.334663 0.611461
O O11 0.750000 0.466014 0.750000
O O12 0.592924 0.443287 0.668970
O O13 0.748718 0.478290 0.604558
O O14 0.000000 0.133732 0.242311
O O15 0.087467 0.427974 0.627807
O O16 0.374107 0.500000 0.000000
#
# Coordination Sequence:
#
# PCOD9482123 Si02
#       8
#    16  16   8   8  16   8   8  16
#     4  12  23  45  67  99 142 180 230 282 339 416
#     4  11  26  45  71 100 136 181 225 288 353 416
#     4  12  25  49  66  99 141 180 235 282 345 417
#     4  12  26  43  69 102 141 180 232 284 345 406
#     4  11  24  46  68 101 140 174 228 288 346 413
#     4  12  27  43  71 105 138 181 229 290 349 408
#     4  12  25  45  68 102 138 186 230 284 337 406
#     4  12  23  44  72 101 136 182 234 280 340 410
#
# _framework density 19.739899999999999
#
# number of rings (size 3 to 8) (size 9 to 14) (size 15 to 20)
#    0.000    0.333    6.667    1.750    2.333    0.000 
#    0.000    2.083    0.000    0.000    0.000    0.000 
#    0.000    0.000    0.000    0.000    0.000    0.000 
#
# Total GULP energy -268402.260414 kJ/mol
# GULP energy per Si atom -5591.713759 kJ/mol
# Density = 1.969497 g / cm^3
# Si number density = 19.739900 Si / 1000 Ang^3
#
#
#
# Elastic Constant Matrix: (Units=GPa)
#
#
# Indices 1 2 3 4 5 6 
#
# 1 116.4889 22.5663 19.4889 0.0000 0.0000 0.0000
# 2 22.5663 76.0194 10.6044 0.0000 0.0000 0.0000
# 3 19.4889 10.6044 105.2874 0.0000 0.0000 0.0000
# 4 0.0000 0.0000 0.0000 38.3885 0.0000 0.0000
# 5 0.0000 0.0000 0.0000 0.0000 26.5794 0.0000
# 6 0.0000 0.0000 0.0000 0.0000 0.0000 25.3334
#
#
#
# Elastic Compliance Matrix: (Units=1/GPa)
#
#
# Indices 1 2 3 4 5 6 
#
# 1 0.009327 -0.002564 -0.001468 0.000000 0.000000 0.000000
# 2 -0.002564 0.014047 -0.000940 0.000000 0.000000 0.000000
# 3 -0.001468 -0.000940 0.009864 0.000000 0.000000 0.000000
# 4 0.000000 0.000000 0.000000 0.026049 0.000000 0.000000
# 5 0.000000 0.000000 0.000000 0.000000 0.037623 0.000000
# 6 0.000000 0.000000 0.000000 0.000000 0.000000 0.039474
#
#
# Mechanical properties :
#
#
# Convention : Reuss Voigt Hill
#
# Bulk Modulus (GPa) = 42.93065 44.79056 43.86061
# Shear Modulus (GPa) = 32.44794 34.40266 33.42530
#
# Velocity S-wave (km/s) = 4.05875 4.17921 4.11942
# Velocity P-wave (km/s) = 6.61513 6.78435 6.70027
#
# Compressibility (1/GPa) = 0.02329338
#
# Stress axis : x y z
#
# Youngs Moduli (GPa) = 107.21780 71.19078 101.37599
#
# Poissons Ratio (x) = 0.18252 0.14884
# Poissons Ratio (y) = 0.27489 0.09531
# Poissons Ratio (z) = 0.15742 0.06693
#
# Static dielectric constant tensor:
#      x y z
#    x 1.652930 0.000000 0.000000 
#    y 0.000000 1.664940 0.000000 
#    z 0.000000 0.000000 1.707370 
# 
# From -- ./inp_files/24033.got.cif
#   From: 2010.05.17/outbox.cif.g08.bks.cpg/sg64_13_cif.got.tgz:24033.got - 2010.06.03 16:29:19.
