data_PCOD9482780
_publ_section_title
;
Structure prediction by ZEFSAII (Michael W. Deem and Ramdas Pophale) SiO2 
 PCOD9482780
Probable space group: C M M M
;
_chemical_formula_sum "Si O2"
_cell_formula_units_Z 112
_cell_length_a 15.330295
_cell_length_b 24.252924
_cell_length_c 15.688700
_cell_angle_alpha 90.000000
_cell_angle_beta 90.000000
_cell_angle_gamma 90.000000
_cell_volume 5833.128938
_symmetry_space_group_name_H-M "C M M M"
_symmetry_group_IT_number 65
_symmetry_cell_setting 'orthorhombic'
loop_
_space_group_symop_operation_xyz
x,y,z
-x,-y,z
x,-y,-z
-x,y,-z
-x,-y,-z
x,y,-z
-x,y,z
x,-y,z
1/2+x,1/2+y,z
1/2-x,1/2-y,z
1/2+x,1/2-y,-z
1/2-x,1/2+y,-z
1/2-x,1/2-y,-z
1/2+x,1/2+y,-z
1/2-x,1/2+y,z
1/2+x,1/2-y,z
loop_
_atom_site_type_symbol
_atom_site_label
_atom_site_fract_x
_atom_site_fract_y
_atom_site_fract_z
Si Si1 0.899966 0.850990 0.718208
Si Si2 0.101496 0.297590 0.860831
Si Si3 0.304256 0.898734 0.093168
Si Si4 0.394809 0.231595 0.671939
Si Si5 0.742251 0.063406 0.278101
Si Si6 0.396187 0.119368 0.597271
Si Si7 0.361280 0.318718 0.091371
O O1 0.865916 0.795188 0.670839
O O2 0.828728 0.899014 0.709796
O O3 0.904394 0.834715 0.818722
O O4 0.000000 0.864160 0.691436
O O5 0.113512 0.358574 0.895839
O O6 0.131935 0.294702 0.762723
O O7 0.148900 0.247037 0.906040
O O8 0.000000 0.282793 0.864655
O O9 0.287867 0.932703 0.178821
O O10 0.227485 0.853037 0.092818
O O11 0.304576 0.926439 0.000000
O O12 0.500000 0.236113 0.672315
O O13 0.372845 0.184633 0.604434
O O14 0.664953 0.086694 0.337624
O O15 0.760524 0.000000 0.298805
O O16 0.384332 0.100828 0.500000
O O17 0.500000 0.114336 0.618658
O O18 0.403518 0.332653 0.000000
#
# Coordination Sequence:
#
# PCOD9482780 Si02
#       7
#    16  16  16  16  16  16  16
#     4   9  19  35  57  84 115 153 190 231 286 342
#     4  10  17  26  45  73 108 145 177 218 279 345
#     4  10  20  33  49  71 105 150 195 235 279 331
#     4   8  15  31  55  84 117 145 172 218 283 348
#     4  11  24  40  58  81 113 154 200 246 283 324
#     4  10  21  40  67  94 117 143 180 230 288 345
#     4   9  17  28  45  74 110 146 187 234 282 334
#
# _framework density 19.200672999999998
#
# number of rings (size 3 to 8) (size 9 to 14) (size 15 to 20)
#    0.000    2.429    1.429    2.143    0.000    4.857 
#    0.000    2.143    0.000    1.286    0.000    7.000 
#    0.000    0.000    0.000    0.000    0.000    0.000 
#
# Total GULP energy -311888.100835 kJ/mol
# GULP energy per Si atom -5569.430372 kJ/mol
# Density = 1.915697 g / cm^3
# Si number density = 19.200673 Si / 1000 Ang^3
#
#
#
# Elastic Constant Matrix: (Units=GPa)
#
#
# Indices 1 2 3 4 5 6 
#
# 1 67.3704 28.9099 25.4797 0.0000 0.0000 0.0000
# 2 28.9099 98.2519 18.8515 0.0000 0.0000 0.0000
# 3 25.4797 18.8515 63.5550 0.0000 0.0000 0.0000
# 4 0.0000 0.0000 0.0000 3.8096 0.0000 0.0000
# 5 0.0000 0.0000 0.0000 0.0000 2.4731 0.0000
# 6 0.0000 0.0000 0.0000 0.0000 0.0000 17.0011
#
#
#
# Elastic Compliance Matrix: (Units=1/GPa)
#
#
# Indices 1 2 3 4 5 6 
#
# 1 0.019144 -0.004412 -0.006367 0.000000 0.000000 0.000000
# 2 -0.004412 0.011809 -0.001734 0.000000 0.000000 0.000000
# 3 -0.006367 -0.001734 0.018801 0.000000 0.000000 0.000000
# 4 0.000000 0.000000 0.000000 0.262495 0.000000 0.000000
# 5 0.000000 0.000000 0.000000 0.000000 0.404350 0.000000
# 6 0.000000 0.000000 0.000000 0.000000 0.000000 0.058820
#
#
# Mechanical properties :
#
#
# Convention : Reuss Voigt Hill
#
# Bulk Modulus (GPa) = 40.43693 41.73993 41.08843
# Shear Modulus (GPa) = 6.18286 15.05250 10.61768
#
# Velocity S-wave (km/s) = 1.79642 2.80296 2.35411
# Velocity P-wave (km/s) = 5.04071 5.67991 5.36983
#
# Compressibility (1/GPa) = 0.02472987
#
# Stress axis : x y z
#
# Youngs Moduli (GPa) = 52.23509 84.68342 53.18824
#
# Poissons Ratio (x) = 0.37358 0.33863
# Poissons Ratio (y) = 0.23044 0.09223
# Poissons Ratio (z) = 0.33256 0.14684
#
# Static dielectric constant tensor:
#      x y z
#    x 1.719870 0.000000 0.000000 
#    y 0.000000 1.658180 0.000000 
#    z 0.000000 0.000000 1.712120 
# 
# From -- ./inp_files/40778.got.cif
#   From: 2010.05.17/outbox.cif.g08.bks.cpg/sg65_21_cif.got.tgz:40778.got - 2010.06.03 17:01:31.
