data_PCOD9482944
_publ_section_title
;
Structure prediction by ZEFSAII (Michael W. Deem and Ramdas Pophale) SiO2 
 PCOD9482944
Probable space group: C M M M
;
_chemical_formula_sum "Si O2"
_cell_formula_units_Z 120
_cell_length_a 28.620783
_cell_length_b 25.119386
_cell_length_c 8.106045
_cell_angle_alpha 90.000000
_cell_angle_beta 90.000000
_cell_angle_gamma 90.000000
_cell_volume 5827.731587
_symmetry_space_group_name_H-M "C M M M"
_symmetry_group_IT_number 65
_symmetry_cell_setting 'orthorhombic'
loop_
_space_group_symop_operation_xyz
x,y,z
-x,-y,z
x,-y,-z
-x,y,-z
-x,-y,-z
x,y,-z
-x,y,z
x,-y,z
1/2+x,1/2+y,z
1/2-x,1/2-y,z
1/2+x,1/2-y,-z
1/2-x,1/2+y,-z
1/2-x,1/2-y,-z
1/2+x,1/2+y,-z
1/2-x,1/2+y,z
1/2+x,1/2-y,z
loop_
_atom_site_type_symbol
_atom_site_label
_atom_site_fract_x
_atom_site_fract_y
_atom_site_fract_z
Si Si1 0.389205 0.276581 0.301484
Si Si2 0.946323 0.558742 0.198452
Si Si3 0.393759 0.392627 0.698353
Si Si4 0.945511 0.000000 0.298508
Si Si5 0.713618 0.117898 0.184955
Si Si6 0.781702 0.801707 0.684884
Si Si7 0.885102 0.341393 0.305316
Si Si8 0.798202 0.059043 0.200183
O O1 0.397668 0.275633 0.500000
O O2 0.409234 0.333649 0.240431
O O3 0.333730 0.283752 0.276148
O O4 0.399582 0.217069 0.235412
O O5 0.929291 0.500000 0.255095
O O6 0.915911 0.609074 0.247906
O O7 0.000000 0.564738 0.255187
O O8 0.946910 0.557334 0.000000
O O9 0.398539 0.391679 0.500000
O O10 0.421112 0.445085 0.759662
O O11 0.339111 0.402202 0.738692
O O12 0.942416 0.000000 0.500000
O O13 0.000000 0.000000 0.254431
O O14 0.755069 0.161287 0.187467
O O15 0.668823 0.142949 0.271210
O O16 0.744901 0.070102 0.257313
O O17 0.698497 0.104226 0.000000
O O18 0.781468 0.826482 0.500000
O O19 0.750000 0.750000 0.674821
O O20 0.890321 0.336816 0.500000
O O21 0.812390 0.000000 0.253184
O O22 0.797353 0.061029 0.000000
#
# Coordination Sequence:
#
# PCOD9482944 Si02
#       8
#    16  16  16   8  16  16  16  16
#     4   9  18  31  50  78 113 148 183 227 282 331
#     4   9  20  42  69  91 112 143 183 229 285 342
#     4  10  18  32  56  79 100 137 187 231 276 334
#     4   9  18  32  53  83 109 129 171 237 290 329
#     4  11  22  33  48  75 109 149 192 232 277 332
#     4  10  17  30  49  68 100 145 184 225 273 321
#     4  11  22  37  56  84 120 153 186 229 279 333
#     4  10  21  35  49  70 104 141 180 231 283 326
#
# _framework density 20.591203
#
# number of rings (size 3 to 8) (size 9 to 14) (size 15 to 20)
#    0.000    2.067    3.333    1.200    0.000    1.867 
#    0.000    4.000    0.000    3.200    0.000    0.000 
#    0.000    0.000    0.000    0.000    0.000    0.000 
#
# Total GULP energy -334188.402738 kJ/mol
# GULP energy per Si atom -5569.806712 kJ/mol
# Density = 2.054434 g / cm^3
# Si number density = 20.591203 Si / 1000 Ang^3
#
#
#
# Elastic Constant Matrix: (Units=GPa)
#
#
# Indices 1 2 3 4 5 6 
#
# 1 61.0963 62.2074 9.1905 0.0000 0.0000 0.0000
# 2 62.2074 191.6503 18.6507 0.0000 0.0000 0.0000
# 3 9.1905 18.6507 12.1955 0.0000 0.0000 0.0000
# 4 0.0000 0.0000 0.0000 33.2656 0.0000 0.0000
# 5 0.0000 0.0000 0.0000 0.0000 26.8372 0.0000
# 6 0.0000 0.0000 0.0000 0.0000 0.0000 23.2810
#
#
#
# Elastic Compliance Matrix: (Units=1/GPa)
#
#
# Indices 1 2 3 4 5 6 
#
# 1 0.025027 -0.007388 -0.007562 0.000000 0.000000 0.000000
# 2 -0.007388 0.008311 -0.007143 0.000000 0.000000 0.000000
# 3 -0.007562 -0.007143 0.098620 0.000000 0.000000 0.000000
# 4 0.000000 0.000000 0.000000 0.030061 0.000000 0.000000
# 5 0.000000 0.000000 0.000000 0.000000 0.037262 0.000000
# 6 0.000000 0.000000 0.000000 0.000000 0.000000 0.042953
#
#
# Mechanical properties :
#
#
# Convention : Reuss Voigt Hill
#
# Bulk Modulus (GPa) = 11.39313 49.44881 30.42097
# Shear Modulus (GPa) = 15.83901 28.33634 22.08767
#
# Velocity S-wave (km/s) = 2.77648 3.71366 3.27873
# Velocity P-wave (km/s) = 3.97787 6.51575 5.39808
#
# Compressibility (1/GPa) = 0.08777216
#
# Stress axis : x y z
#
# Youngs Moduli (GPa) = 39.95671 120.32490 10.13998
#
# Poissons Ratio (x) = 0.88890 0.07668
# Poissons Ratio (y) = 0.29518 0.07243
# Poissons Ratio (z) = 0.30217 0.85943
#
# Static dielectric constant tensor:
#      x y z
#    x 1.719560 0.000000 0.000000 
#    y 0.000000 1.869730 0.000000 
#    z 0.000000 0.000000 1.751270 
# 
# From -- ./inp_files/17072.got.cif
#   From: 2010.05.17/outbox.cif.g08.bks.cpg/sg65_9_cif.got.tgz:17072.got - 2010.06.03 17:01:31.
