data_PCOD9482040
_publ_section_title
;
Structure prediction by ZEFSAII (Michael W. Deem and Ramdas Pophale) SiO2 
 PCOD9482040
Probable space group: C M C A
;
_chemical_formula_sum "Si O2"
_cell_formula_units_Z 64
_cell_length_a 13.871560
_cell_length_b 14.083877
_cell_length_c 12.490836
_cell_angle_alpha 90.000000
_cell_angle_beta 90.000000
_cell_angle_gamma 90.000000
_cell_volume 2440.276482
_symmetry_space_group_name_H-M "C M C A"
_symmetry_group_IT_number 64
_symmetry_cell_setting 'orthorhombic'
loop_
_space_group_symop_operation_xyz
x,y,z
-x,1/2-y,1/2+z
x,-y,-z
-x,1/2+y,1/2-z
-x,-y,-z
x,1/2+y,1/2-z
-x,y,z
x,1/2-y,1/2+z
1/2+x,1/2+y,z
1/2-x,-y,1/2+z
1/2+x,1/2-y,-z
1/2-x,y,1/2-z
1/2-x,1/2-y,-z
1/2+x,y,1/2-z
1/2-x,1/2+y,z
1/2+x,-y,1/2+z
loop_
_atom_site_type_symbol
_atom_site_label
_atom_site_fract_x
_atom_site_fract_y
_atom_site_fract_z
Si Si1 0.693226 0.385581 0.913073
Si Si2 0.000000 0.883685 0.374079
Si Si3 0.294652 0.807712 0.353093
Si Si4 0.152374 0.500000 0.000000
Si Si5 0.000000 0.540785 0.302225
Si Si6 0.500000 0.733331 0.283666
O O1 0.722464 0.282557 0.867497
O O2 0.785419 0.453444 0.904752
O O3 0.596513 0.433971 0.869280
O O4 0.693066 0.368062 0.040386
O O5 0.000000 0.774392 0.338783
O O6 0.910655 0.917731 0.445053
O O7 0.000000 0.941681 0.260947
O O8 0.250000 0.859352 0.250000
O O9 0.401414 0.769232 0.333035
O O10 0.000000 0.620644 0.210536
#
# Coordination Sequence:
#
# PCOD9482040 Si02
#       6
#    16   8  16   8   8   8
#     4  11  26  44  74 104 145 187 247 301 368 441
#     4  11  28  46  73 106 146 197 247 300 380 431
#     4  11  23  44  70 106 137 192 238 295 368 442
#     4  11  26  47  68 102 150 191 244 313 362 448
#     4  12  26  49  72 110 147 193 243 310 368 441
#     4  12  24  44  73 101 144 186 238 296 361 430
#
# _framework density 26.226535999999999
#
# number of rings (size 3 to 8) (size 9 to 14) (size 15 to 20)
#    0.000    0.750    2.500    3.750    7.000    1.500 
#    0.000    0.000    0.000    0.000    0.000    0.000 
#    0.000    0.000    0.000    0.000    0.000    0.000 
#
# Total GULP energy -179406.178296 kJ/mol
# GULP energy per Si atom -5606.443072 kJ/mol
# Density = 2.616684 g / cm^3
# Si number density = 26.226536 Si / 1000 Ang^3
#
#
#
# Elastic Constant Matrix: (Units=GPa)
#
#
# Indices 1 2 3 4 5 6 
#
# 1 179.7709 12.4268 38.4726 0.0000 0.0000 0.0000
# 2 12.4268 72.8166 6.9516 0.0000 0.0000 0.0000
# 3 38.4726 6.9516 112.2796 0.0000 0.0000 0.0000
# 4 0.0000 0.0000 0.0000 27.1823 0.0000 0.0000
# 5 0.0000 0.0000 0.0000 0.0000 45.0461 0.0000
# 6 0.0000 0.0000 0.0000 0.0000 0.0000 31.7262
#
#
#
# Elastic Compliance Matrix: (Units=1/GPa)
#
#
# Indices 1 2 3 4 5 6 
#
# 1 0.006053 -0.000840 -0.002022 0.000000 0.000000 0.000000
# 2 -0.000840 0.013931 -0.000575 0.000000 0.000000 0.000000
# 3 -0.002022 -0.000575 0.009635 0.000000 0.000000 0.000000
# 4 0.000000 0.000000 0.000000 0.036789 0.000000 0.000000
# 5 0.000000 0.000000 0.000000 0.000000 0.022199 0.000000
# 6 0.000000 0.000000 0.000000 0.000000 0.000000 0.031520
#
#
# Mechanical properties :
#
#
# Convention : Reuss Voigt Hill
#
# Bulk Modulus (GPa) = 43.96419 53.39656 48.68037
# Shear Modulus (GPa) = 37.15170 41.25865 39.20517
#
# Velocity S-wave (km/s) = 3.76782 3.97062 3.87054
# Velocity P-wave (km/s) = 5.97731 6.43623 6.21101
#
# Compressibility (1/GPa) = 0.02274579
#
# Stress axis : x y z
#
# Youngs Moduli (GPa) = 165.19433 71.78051 103.79011
#
# Poissons Ratio (x) = 0.06030 0.20989
# Poissons Ratio (y) = 0.13877 0.05965
# Poissons Ratio (z) = 0.33406 0.04125
#
# Static dielectric constant tensor:
#      x y z
#    x 2.110760 0.000000 0.000000 
#    y 0.000000 2.089690 0.000000 
#    z 0.000000 0.000000 2.078980 
# 
# From -- ./inp_files/14097.got.cif
#   From: 2010.05.17/outbox.cif.g08.bks.cpg/sg64_8_cif.got.tgz:14097.got - 2010.06.03 16:29:19.
