data_PCOD9482082
_publ_section_title
;
Structure prediction by ZEFSAII (Michael W. Deem and Ramdas Pophale) SiO2 
 PCOD9482082
Probable space group: C M C A
;
_chemical_formula_sum "Si O2"
_cell_formula_units_Z 80
_cell_length_a 8.416842
_cell_length_b 14.358104
_cell_length_c 31.082223
_cell_angle_alpha 90.000000
_cell_angle_beta 90.000000
_cell_angle_gamma 90.000000
_cell_volume 3756.283317
_symmetry_space_group_name_H-M "C M C A"
_symmetry_group_IT_number 64
_symmetry_cell_setting 'orthorhombic'
loop_
_space_group_symop_operation_xyz
x,y,z
-x,1/2-y,1/2+z
x,-y,-z
-x,1/2+y,1/2-z
-x,-y,-z
x,1/2+y,1/2-z
-x,y,z
x,1/2-y,1/2+z
1/2+x,1/2+y,z
1/2-x,-y,1/2+z
1/2+x,1/2-y,-z
1/2-x,y,1/2-z
1/2-x,1/2-y,-z
1/2+x,y,1/2-z
1/2-x,1/2+y,z
1/2+x,-y,1/2+z
loop_
_atom_site_type_symbol
_atom_site_label
_atom_site_fract_x
_atom_site_fract_y
_atom_site_fract_z
Si Si1 0.311998 0.383115 0.963473
Si Si2 0.309258 0.797372 0.353464
Si Si3 0.811750 0.549406 0.797302
Si Si4 0.193446 0.172177 0.947217
Si Si5 0.691090 0.415649 0.627408
O O1 0.500000 0.398123 0.962573
O O2 0.269109 0.273868 0.955651
O O3 0.243638 0.433554 0.921613
O O4 0.259390 0.395098 0.013348
O O5 0.500000 0.801156 0.349535
O O6 0.233568 0.847439 0.312936
O O7 0.263337 0.849677 0.398080
O O8 0.262569 0.690081 0.360018
O O9 0.750000 0.528187 0.750000
O O10 0.746535 0.482706 0.835157
O O11 0.000000 0.539610 0.796664
O O12 0.000000 0.181879 0.948731
O O13 0.500000 0.419218 0.627321
#
# Coordination Sequence:
#
# PCOD9482082 Si02
#       5
#    16  16  16  16  16
#     4   9  15  25  48  80 109 142 183 219 254 305
#     4   9  18  36  59  81 109 144 179 218 264 314
#     4  11  24  41  59  80 106 137 177 226 277 326
#     4   8  15  28  47  75 112 148 178 213 260 311
#     4   9  20  38  57  79 111 146 177 216 268 321
#
# _framework density 21.297647999999999
#
# number of rings (size 3 to 8) (size 9 to 14) (size 15 to 20)
#    0.000    2.800    0.000    2.400    0.000    6.400 
#    0.000    3.000    0.000    6.000    0.000    0.000 
#    0.000    0.000    0.000    0.000    0.000    0.000 
#
# Total GULP energy -223126.972126 kJ/mol
# GULP energy per Si atom -5578.174303 kJ/mol
# Density = 2.124917 g / cm^3
# Si number density = 21.297648 Si / 1000 Ang^3
#
#
#
# Elastic Constant Matrix: (Units=GPa)
#
#
# Indices 1 2 3 4 5 6 
#
# 1 7.6547 7.3347 23.4399 0.0000 0.0000 0.0000
# 2 7.3347 56.8651 47.1416 0.0000 0.0000 0.0000
# 3 23.4399 47.1416 160.3070 0.0000 0.0000 0.0000
# 4 0.0000 0.0000 0.0000 31.4521 0.0000 0.0000
# 5 0.0000 0.0000 0.0000 0.0000 33.9300 0.0000
# 6 0.0000 0.0000 0.0000 0.0000 0.0000 7.3595
#
#
#
# Elastic Compliance Matrix: (Units=1/GPa)
#
#
# Indices 1 2 3 4 5 6 
#
# 1 0.236808 -0.002432 -0.033910 0.000000 0.000000 0.000000
# 2 -0.002432 0.023280 -0.006490 0.000000 0.000000 0.000000
# 3 -0.033910 -0.006490 0.013105 0.000000 0.000000 0.000000
# 4 0.000000 0.000000 0.000000 0.031794 0.000000 0.000000
# 5 0.000000 0.000000 0.000000 0.000000 0.029472 0.000000
# 6 0.000000 0.000000 0.000000 0.000000 0.000000 0.135879
#
#
# Mechanical properties :
#
#
# Convention : Reuss Voigt Hill
#
# Bulk Modulus (GPa) = 5.33259 42.29548 23.81403
# Shear Modulus (GPa) = 8.08390 24.34236 16.21313
#
# Velocity S-wave (km/s) = 1.95036 3.38444 2.76209
# Velocity P-wave (km/s) = 2.75339 5.93084 4.62364
#
# Compressibility (1/GPa) = 0.18752620
#
# Stress axis : x y z
#
# Youngs Moduli (GPa) = 4.22283 42.95597 76.30703
#
# Poissons Ratio (x) = 0.10449 2.58761
# Poissons Ratio (y) = 0.01027 0.49525
# Poissons Ratio (z) = 0.14320 0.27879
#
# Static dielectric constant tensor:
#      x y z
#    x 1.732940 0.000000 0.000000 
#    y 0.000000 1.807560 0.000000 
#    z 0.000000 0.000000 1.793190 
# 
# From -- ./inp_files/47895.got.cif
#   From: 2010.05.17/outbox.cif.g08.bks.cpg/sg64_24_cif.got.tgz:47895.got - 2010.06.03 16:29:19.
