data_PCOD9482836
_publ_section_title
;
Structure prediction by ZEFSAII (Michael W. Deem and Ramdas Pophale) SiO2 
 PCOD9482836
Probable space group: C M M M
;
_chemical_formula_sum "Si O2"
_cell_formula_units_Z 128
_cell_length_a 14.976472
_cell_length_b 19.843266
_cell_length_c 21.807538
_cell_angle_alpha 90.000000
_cell_angle_beta 90.000000
_cell_angle_gamma 90.000000
_cell_volume 6480.810323
_symmetry_space_group_name_H-M "C M M M"
_symmetry_group_IT_number 65
_symmetry_cell_setting 'orthorhombic'
loop_
_space_group_symop_operation_xyz
x,y,z
-x,-y,z
x,-y,-z
-x,y,-z
-x,-y,-z
x,y,-z
-x,y,z
x,-y,z
1/2+x,1/2+y,z
1/2-x,1/2-y,z
1/2+x,1/2-y,-z
1/2-x,1/2+y,-z
1/2-x,1/2-y,-z
1/2+x,1/2+y,-z
1/2-x,1/2+y,z
1/2+x,1/2-y,z
loop_
_atom_site_type_symbol
_atom_site_label
_atom_site_fract_x
_atom_site_fract_y
_atom_site_fract_z
Si Si1 0.850234 0.221706 0.889760
Si Si2 0.397099 0.849541 0.688564
Si Si3 0.102382 0.639929 0.934603
Si Si4 0.348336 0.719236 0.748168
Si Si5 0.108688 0.421847 0.809845
Si Si6 0.392711 0.427308 0.751071
Si Si7 0.607200 0.573490 0.102017
Si Si8 0.108509 0.421356 0.431282
O O1 0.750000 0.250000 0.889374
O O2 0.900573 0.279723 0.926443
O O3 0.883901 0.221592 0.818648
O O4 0.856075 0.146624 0.916930
O O5 0.500000 0.872799 0.687246
O O6 0.396725 0.770418 0.702533
O O7 0.357331 0.884270 0.749510
O O8 0.358227 0.874697 0.624287
O O9 0.144360 0.609834 0.872860
O O10 0.000000 0.614869 0.936139
O O11 0.144780 0.622537 0.000000
O O12 0.250000 0.750000 0.750774
O O13 0.352373 0.642175 0.727188
O O14 0.130368 0.500000 0.806958
O O15 0.000000 0.414735 0.810894
O O16 0.500000 0.423713 0.742954
O O17 0.361323 0.500000 0.726608
O O18 0.376831 0.428096 0.824466
O O19 0.500000 0.575859 0.092320
O O20 0.638688 0.500000 0.077959
O O21 0.140676 0.404295 0.500000
O O22 0.129060 0.500000 0.418652
O O23 0.000000 0.416664 0.433685
#
# Coordination Sequence:
#
# PCOD9482836 Si02
#       8
#    16  16  16  16  16  16  16  16
#     4  10  19  31  47  66  95 121 150 191 248 302
#     4  10  17  27  47  70  93 124 159 197 238 283
#     4  10  20  33  49  67  87 118 161 203 241 286
#     4  10  19  29  43  66 100 125 150 192 247 300
#     4   9  17  29  45  66  90 117 153 193 229 269
#     4   8  14  26  44  64  86 118 160 199 234 276
#     4   8  14  26  47  70  88 113 151 193 235 282
#     4   8  14  25  42  67  99 130 159 192 228 271
#
# _framework density 19.750616999999998
#
# number of rings (size 3 to 8) (size 9 to 14) (size 15 to 20)
#    0.000    2.875    1.250    2.250    0.000    3.000 
#    0.000    3.125    0.000    0.750    0.000    1.750 
#    0.000    0.500    0.000    4.625    0.000    0.125 
#
# Total GULP energy -356659.634007 kJ/mol
# GULP energy per Si atom -5572.806781 kJ/mol
# Density = 1.970566 g / cm^3
# Si number density = 19.750617 Si / 1000 Ang^3
#
#
#
# Elastic Constant Matrix: (Units=GPa)
#
#
# Indices 1 2 3 4 5 6 
#
# 1 22.2301 12.3859 13.1519 0.0000 0.0000 0.0000
# 2 12.3859 162.1502 63.0210 0.0000 0.0000 0.0000
# 3 13.1519 63.0210 114.0267 0.0000 0.0000 0.0000
# 4 0.0000 0.0000 0.0000 74.6605 0.0000 0.0000
# 5 0.0000 0.0000 0.0000 0.0000 1.1101 0.0000
# 6 0.0000 0.0000 0.0000 0.0000 0.0000 10.6517
#
#
#
# Elastic Compliance Matrix: (Units=1/GPa)
#
#
# Indices 1 2 3 4 5 6 
#
# 1 0.048763 -0.001960 -0.004541 0.000000 0.000000 0.000000
# 2 -0.001960 0.007933 -0.004158 0.000000 0.000000 0.000000
# 3 -0.004541 -0.004158 0.011592 0.000000 0.000000 0.000000
# 4 0.000000 0.000000 0.000000 0.013394 0.000000 0.000000
# 5 0.000000 0.000000 0.000000 0.000000 0.900832 0.000000
# 6 0.000000 0.000000 0.000000 0.000000 0.000000 0.093882
#
#
# Mechanical properties :
#
#
# Convention : Reuss Voigt Hill
#
# Bulk Modulus (GPa) = 21.29067 52.83606 37.06337
# Shear Modulus (GPa) = 4.49087 31.27433 17.88260
#
# Velocity S-wave (km/s) = 1.50954 3.98359 3.01228
# Velocity P-wave (km/s) = 3.72041 6.92592 5.55922
#
# Compressibility (1/GPa) = 0.04696892
#
# Stress axis : x y z
#
# Youngs Moduli (GPa) = 20.50748 126.05524 86.26665
#
# Poissons Ratio (x) = 0.24704 0.39175
# Poissons Ratio (y) = 0.04019 0.35873
# Poissons Ratio (z) = 0.09313 0.52419
#
# Static dielectric constant tensor:
#      x y z
#    x 1.774500 0.000000 0.000000 
#    y 0.000000 1.688130 0.000000 
#    z 0.000000 0.000000 1.721920 
# 
# From -- ./inp_files/64892.got.cif
#   From: 2010.05.17/outbox.cif.g08.bks.cpg/sg65_33_cif.got.tgz:64892.got - 2010.06.03 17:01:31.
