data_PCOD9482545
_publ_section_title
;
Structure prediction by ZEFSAII (Michael W. Deem and Ramdas Pophale) SiO2 
 PCOD9482545
Probable space group: C M M M
;
_chemical_formula_sum "Si O2"
_cell_formula_units_Z 88
_cell_length_a 15.210733
_cell_length_b 8.674137
_cell_length_c 30.990924
_cell_angle_alpha 90.000000
_cell_angle_beta 90.000000
_cell_angle_gamma 90.000000
_cell_volume 4088.941952
_symmetry_space_group_name_H-M "C M M M"
_symmetry_group_IT_number 65
_symmetry_cell_setting 'orthorhombic'
loop_
_space_group_symop_operation_xyz
x,y,z
-x,-y,z
x,-y,-z
-x,y,-z
-x,-y,-z
x,y,-z
-x,y,z
x,-y,z
1/2+x,1/2+y,z
1/2-x,1/2-y,z
1/2+x,1/2-y,-z
1/2-x,1/2+y,-z
1/2-x,1/2-y,-z
1/2+x,1/2+y,-z
1/2-x,1/2+y,z
1/2+x,1/2-y,z
loop_
_atom_site_type_symbol
_atom_site_label
_atom_site_fract_x
_atom_site_fract_y
_atom_site_fract_z
Si Si1 0.150482 0.185821 0.500000
Si Si2 0.850381 0.185752 0.770023
Si Si3 0.149721 0.185674 0.593461
Si Si4 0.895314 0.674312 0.953452
Si Si5 0.652664 0.316774 0.863065
Si Si6 0.350301 0.816100 0.318257
O O1 0.250000 0.250000 0.500000
O O2 0.110426 0.228947 0.546528
O O3 0.155009 0.000000 0.500000
O O4 0.750000 0.250000 0.771108
O O5 0.890210 0.228920 0.816920
O O6 0.890771 0.255062 0.726468
O O7 0.848554 0.000000 0.766386
O O8 0.250000 0.250000 0.592038
O O9 0.109342 0.255308 0.636980
O O10 0.151295 0.000000 0.597233
O O11 0.859082 0.500000 0.949215
O O12 0.881129 0.762591 0.909201
O O13 0.000000 0.662778 0.956885
O O14 0.863676 0.738902 0.000000
O O15 0.653926 0.500000 0.863038
O O16 0.750000 0.250000 0.861256
O O17 0.250000 0.750000 0.318335
O O18 0.347493 0.000000 0.318182
#
# Coordination Sequence:
#
# PCOD9482545 Si02
#       6
#     8  16  16  16  16  16
#     4   8  14  20  26  34  46  68 100 140 187 234
#     4   9  16  26  38  54  76 101 129 163 205 250
#     4   9  14  20  27  36  51  73 104 144 189 236
#     4   9  19  36  55  73  95 124 155 186 222 265
#     4  10  20  32  49  72  96 122 152 188 229 270
#     4  10  16  21  30  44  61  85 116 150 193 243
#
# _framework density 21.521460999999999
#
# number of rings (size 3 to 8) (size 9 to 14) (size 15 to 20)
#    0.000    2.727    0.000    6.000    0.000    4.000 
#    0.000    0.909    0.000    0.000    0.000    0.000 
#    0.000    0.000    0.000    0.000    0.000    0.000 
#
# Total GULP energy -245004.780464 kJ/mol
# GULP energy per Si atom -5568.290465 kJ/mol
# Density = 2.147248 g / cm^3
# Si number density = 21.521461 Si / 1000 Ang^3
#
#
#
# Elastic Constant Matrix: (Units=GPa)
#
#
# Indices 1 2 3 4 5 6 
#
# 1 33.0643 2.1548 22.6158 0.0000 0.0000 0.0000
# 2 2.1548 97.4695 89.9934 0.0000 0.0000 0.0000
# 3 22.6158 89.9934 313.3615 0.0000 0.0000 0.0000
# 4 0.0000 0.0000 0.0000 36.8235 0.0000 0.0000
# 5 0.0000 0.0000 0.0000 0.0000 71.7460 0.0000
# 6 0.0000 0.0000 0.0000 0.0000 0.0000 0.1101
#
#
#
# Elastic Compliance Matrix: (Units=1/GPa)
#
#
# Indices 1 2 3 4 5 6 
#
# 1 0.032083 0.001944 -0.002874 0.000000 0.000000 0.000000
# 2 0.001944 0.014080 -0.004184 0.000000 0.000000 0.000000
# 3 -0.002874 -0.004184 0.004600 0.000000 0.000000 0.000000
# 4 0.000000 0.000000 0.000000 0.027157 0.000000 0.000000
# 5 0.000000 0.000000 0.000000 0.000000 0.013938 0.000000
# 6 0.000000 0.000000 0.000000 0.000000 0.000000 9.085609
#
#
# Mechanical properties :
#
#
# Convention : Reuss Voigt Hill
#
# Bulk Modulus (GPa) = 24.66952 74.82482 49.74717
# Shear Modulus (GPa) = 0.54341 43.67799 22.11070
#
# Velocity S-wave (km/s) = 0.50303 4.50989 3.20875
# Velocity P-wave (km/s) = 3.43875 7.87159 6.07400
#
# Compressibility (1/GPa) = 0.04053584
#
# Stress axis : x y z
#
# Youngs Moduli (GPa) = 31.16904 71.02521 217.38488
#
# Poissons Ratio (x) = -0.13808 0.62473
# Poissons Ratio (y) = -0.06060 0.90949
# Poissons Ratio (z) = 0.08957 0.29715
#
# Static dielectric constant tensor:
#      x y z
#    x 1.770480 0.000000 0.000000 
#    y 0.000000 1.740480 0.000000 
#    z 0.000000 0.000000 1.927050 
# 
# From -- ./inp_files/78099.got.cif
#   From: 2010.05.17/outbox.cif.g08.bks.cpg/sg65_40_cif.got.tgz:78099.got - 2010.06.03 17:01:31.
