data_PCOD9482233
_publ_section_title
;
Structure prediction by ZEFSAII (Michael W. Deem and Ramdas Pophale) SiO2 
 PCOD9482233
Probable space group: C M C A
;
_chemical_formula_sum "Si O2"
_cell_formula_units_Z 104
_cell_length_a 21.574229
_cell_length_b 8.914530
_cell_length_c 28.502228
_cell_angle_alpha 90.000000
_cell_angle_beta 90.000000
_cell_angle_gamma 90.000000
_cell_volume 5481.665680
_symmetry_space_group_name_H-M "C M C A"
_symmetry_group_IT_number 64
_symmetry_cell_setting 'orthorhombic'
loop_
_space_group_symop_operation_xyz
x,y,z
-x,1/2-y,1/2+z
x,-y,-z
-x,1/2+y,1/2-z
-x,-y,-z
x,1/2+y,1/2-z
-x,y,z
x,1/2-y,1/2+z
1/2+x,1/2+y,z
1/2-x,-y,1/2+z
1/2+x,1/2-y,-z
1/2-x,y,1/2-z
1/2-x,1/2-y,-z
1/2+x,y,1/2-z
1/2-x,1/2+y,z
1/2+x,-y,1/2+z
loop_
_atom_site_type_symbol
_atom_site_label
_atom_site_fract_x
_atom_site_fract_y
_atom_site_fract_z
Si Si1 0.726551 0.320972 0.696143
Si Si2 0.891244 0.520743 0.553205
Si Si3 0.172862 0.479675 0.351505
Si Si4 0.500000 0.998605 0.875480
Si Si5 0.500000 0.259911 0.543576
Si Si6 0.071533 0.140251 0.204400
Si Si7 0.604961 0.015857 0.800502
Si Si8 0.000000 0.218499 0.062555
O O1 0.750000 0.299736 0.750000
O O2 0.781202 0.386677 0.663859
O O3 0.673327 0.448231 0.695672
O O4 0.698034 0.169582 0.674161
O O5 0.867130 0.500000 0.500000
O O6 0.839366 0.536319 0.593111
O O7 0.938619 0.660515 0.552577
O O8 0.938191 0.382882 0.563837
O O9 0.106806 0.528643 0.330275
O O10 0.500000 0.892420 0.920019
O O11 0.560944 0.975770 0.844021
O O12 0.500000 0.165040 0.895905
O O13 0.500000 0.297137 0.488487
O O14 0.102673 0.304594 0.205229
O O15 0.076705 0.063672 0.254976
O O16 0.000000 0.159096 0.192362
#
# Coordination Sequence:
#
# PCOD9482233 Si02
#       8
#    16  16  16   8   8  16  16   8
#     4  12  26  45  63  93 124 179 223 263 306 383
#     4   9  20  41  65  93 122 164 213 264 323 385
#     4  12  25  42  70  89 130 170 224 265 321 375
#     4  12  21  36  60  98 132 160 207 262 328 370
#     4   9  19  35  61  95 127 162 210 255 321 388
#     4  12  24  42  60  94 131 168 207 260 325 374
#     4  12  25  40  61  90 130 170 214 259 312 383
#     4   9  19  37  63  91 129 166 202 259 321 388
#
# _framework density 18.972335999999999
#
# number of rings (size 3 to 8) (size 9 to 14) (size 15 to 20)
#    0.000    0.923    3.077    5.308    2.154    0.000 
#    1.385    0.769    0.000    1.846    0.000    0.000 
#    0.000    0.000    0.000    0.000    0.000    0.000 
#
# Total GULP energy -290707.112907 kJ/mol
# GULP energy per Si atom -5590.521402 kJ/mol
# Density = 1.892915 g / cm^3
# Si number density = 18.972336 Si / 1000 Ang^3
#
#
#
# Elastic Constant Matrix: (Units=GPa)
#
#
# Indices 1 2 3 4 5 6 
#
# 1 85.0190 37.8621 67.2473 0.0000 0.0000 0.0000
# 2 37.8621 80.3214 39.6654 0.0000 0.0000 0.0000
# 3 67.2473 39.6654 150.1038 0.0000 0.0000 0.0000
# 4 0.0000 0.0000 0.0000 23.8102 0.0000 0.0000
# 5 0.0000 0.0000 0.0000 0.0000 19.9742 0.0000
# 6 0.0000 0.0000 0.0000 0.0000 0.0000 -34.9707
#
#
#
# Elastic Compliance Matrix: (Units=1/GPa)
#
#
# Indices 1 2 3 4 5 6 
#
# 1 0.020362 -0.005858 -0.007574 0.000000 0.000000 0.000000
# 2 -0.005858 0.016004 -0.001605 0.000000 0.000000 0.000000
# 3 -0.007574 -0.001605 0.010479 0.000000 0.000000 0.000000
# 4 0.000000 0.000000 0.000000 0.041999 0.000000 0.000000
# 5 0.000000 0.000000 0.000000 0.000000 0.050064 0.000000
# 6 0.000000 0.000000 0.000000 0.000000 0.000000 -0.028595
#
#
# Mechanical properties :
#
#
# Convention : Reuss Voigt Hill
#
# Bulk Modulus (GPa) = 59.62526 67.22152 63.42339
# Shear Modulus (GPa) = 34.25206 13.14071 23.69639
#
# Velocity S-wave (km/s) = 4.25357 2.63463 3.53795
# Velocity P-wave (km/s) = 7.45785 6.69054 7.08459
#
# Compressibility (1/GPa) = 0.01677142
#
# Stress axis : x y z
#
# Youngs Moduli (GPa) = 49.11178 62.48561 95.42531
#
# Poissons Ratio (x) = 0.36602 0.72277
# Poissons Ratio (y) = 0.28768 0.15313
# Poissons Ratio (z) = 0.37198 0.10027
#
# Static dielectric constant tensor:
#      x y z
#    x 1.703000 0.000000 0.000000 
#    y 0.000000 1.660120 0.000000 
#    z 0.000000 0.000000 1.655930 
# 
# From -- ./inp_files/50811.got.cif
#   From: 2010.05.17/outbox.cif.g08.bks.cpg/sg64_26_cif.got.tgz:50811.got - 2010.06.03 16:29:19.
