data_PCOD9482131
_publ_section_title
;
Structure prediction by ZEFSAII (Michael W. Deem and Ramdas Pophale) SiO2 
 PCOD9482131
Probable space group: C M C A
;
_chemical_formula_sum "Si O2"
_cell_formula_units_Z 72
_cell_length_a 9.703393
_cell_length_b 23.972866
_cell_length_c 13.634355
_cell_angle_alpha 90.000000
_cell_angle_beta 90.000000
_cell_angle_gamma 90.000000
_cell_volume 3171.598302
_symmetry_space_group_name_H-M "C M C A"
_symmetry_group_IT_number 64
_symmetry_cell_setting 'orthorhombic'
loop_
_space_group_symop_operation_xyz
x,y,z
-x,1/2-y,1/2+z
x,-y,-z
-x,1/2+y,1/2-z
-x,-y,-z
x,1/2+y,1/2-z
-x,y,z
x,1/2-y,1/2+z
1/2+x,1/2+y,z
1/2-x,-y,1/2+z
1/2+x,1/2-y,-z
1/2-x,y,1/2-z
1/2-x,1/2-y,-z
1/2+x,y,1/2-z
1/2-x,1/2+y,z
1/2+x,-y,1/2+z
loop_
_atom_site_type_symbol
_atom_site_label
_atom_site_fract_x
_atom_site_fract_y
_atom_site_fract_z
Si Si1 0.500000 0.005090 0.148419
Si Si2 0.000000 0.320237 0.132730
Si Si3 0.500000 0.415539 0.199930
Si Si4 0.500000 0.197820 0.384877
Si Si5 0.225326 0.449687 0.446015
Si Si6 0.500000 0.862165 0.811838
Si Si7 0.280301 0.161489 0.037807
O O1 0.500000 0.071847 0.159756
O O2 0.500000 0.977106 0.254191
O O3 0.635476 0.977475 0.097908
O O4 0.000000 0.367896 0.216207
O O5 0.000000 0.257090 0.170407
O O6 0.870071 0.325570 0.058823
O O7 0.363690 0.416192 0.133613
O O8 0.500000 0.149297 0.303407
O O9 0.363903 0.192379 0.451017
O O10 0.149652 0.500000 0.500000
O O11 0.256213 0.404297 0.527834
O O12 0.370167 0.832650 0.864188
#
# Coordination Sequence:
#
# PCOD9482131 Si02
#       7
#     8   8   8   8  16   8  16
#     4  12  23  43  71 100 146 191 226 294 372 443
#     4  11  26  52  71  99 149 195 248 308 379 422
#     4  12  27  43  68 112 144 190 245 302 359 439
#     4  12  27  47  74 107 139 196 257 313 349 440
#     4  12  24  44  72 106 149 189 237 296 374 440
#     4  11  25  46  71 104 147 189 239 289 384 447
#     4  11  24  48  73 103 141 191 245 300 375 438
#
# _framework density 22.701487
#
# number of rings (size 3 to 8) (size 9 to 14) (size 15 to 20)
#    0.000    0.444    4.444    4.000    3.111    1.778 
#   16.000    0.000    0.000    0.000    0.000    0.000 
#    0.000    0.000    0.000    0.000    0.000    0.000 
#
# Total GULP energy -201164.003710 kJ/mol
# GULP energy per Si atom -5587.888992 kJ/mol
# Density = 2.264982 g / cm^3
# Si number density = 22.701487 Si / 1000 Ang^3
#
#
#
# Elastic Constant Matrix: (Units=GPa)
#
#
# Indices 1 2 3 4 5 6 
#
# 1 171.6276 38.3169 54.9015 0.0000 0.0000 0.0000
# 2 38.3169 116.2954 17.7981 0.0000 0.0000 0.0000
# 3 54.9015 17.7981 98.2320 0.0000 0.0000 0.0000
# 4 0.0000 0.0000 0.0000 25.6897 0.0000 0.0000
# 5 0.0000 0.0000 0.0000 0.0000 27.3627 0.0000
# 6 0.0000 0.0000 0.0000 0.0000 0.0000 -2.0759
#
#
#
# Elastic Compliance Matrix: (Units=1/GPa)
#
#
# Indices 1 2 3 4 5 6 
#
# 1 0.007472 -0.001875 -0.003837 0.000000 0.000000 0.000000
# 2 -0.001875 0.009314 -0.000640 0.000000 0.000000 0.000000
# 3 -0.003837 -0.000640 0.012440 0.000000 0.000000 0.000000
# 4 0.000000 0.000000 0.000000 0.038926 0.000000 0.000000
# 5 0.000000 0.000000 0.000000 0.000000 0.036546 0.000000
# 6 0.000000 0.000000 0.000000 0.000000 0.000000 -0.481730
#
#
# Mechanical properties :
#
#
# Convention : Reuss Voigt Hill
#
# Bulk Modulus (GPa) = 60.51608 67.57644 64.04626
# Shear Modulus (GPa) = -13.93458 28.53787 7.30165
#
# Velocity S-wave (km/s) = -2.48022 3.54940 1.79537
# Velocity P-wave (km/s) = 4.30270 6.82859 5.70714
#
# Compressibility (1/GPa) = 0.01652453
#
# Stress axis : x y z
#
# Youngs Moduli (GPa) = 133.82536 107.36027 80.38474
#
# Poissons Ratio (x) = 0.20128 0.30841
# Poissons Ratio (y) = 0.25090 0.05143
# Poissons Ratio (z) = 0.51344 0.06869
#
# Static dielectric constant tensor:
#      x y z
#    x 1.935900 0.000000 0.000000 
#    y 0.000000 1.830780 0.000000 
#    z 0.000000 0.000000 1.828390 
# 
# From -- ./inp_files/21210.got.cif
#   From: 2010.05.17/outbox.cif.g08.bks.cpg/sg64_11_cif.got.tgz:21210.got - 2010.06.03 16:29:19.
