data_PCOD9482433
_publ_section_title
;
Structure prediction by ZEFSAII (Michael W. Deem and Ramdas Pophale) SiO2 
 PCOD9482433
Probable space group: C M C A
;
_chemical_formula_sum "Si O2"
_cell_formula_units_Z 48
_cell_length_a 9.000000
_cell_length_b 27.000000
_cell_length_c 21.000000
_cell_angle_alpha 90.000000
_cell_angle_beta 90.000000
_cell_angle_gamma 90.000000
_cell_volume 5103.000000
_symmetry_space_group_name_H-M "C M C A"
_symmetry_group_IT_number 64
_symmetry_cell_setting 'orthorhombic'
loop_
_space_group_symop_operation_xyz
x,y,z
-x,1/2-y,1/2+z
x,-y,-z
-x,1/2+y,1/2-z
-x,-y,-z
x,1/2+y,1/2-z
-x,y,z
x,1/2-y,1/2+z
1/2+x,1/2+y,z
1/2-x,-y,1/2+z
1/2+x,1/2-y,-z
1/2-x,y,1/2-z
1/2-x,1/2-y,-z
1/2+x,y,1/2-z
1/2-x,1/2+y,z
1/2+x,-y,1/2+z
loop_
_atom_site_type_symbol
_atom_site_label
_atom_site_fract_x
_atom_site_fract_y
_atom_site_fract_z
Si Si1 0.825107 0.300413 0.581153
Si Si2 0.822051 0.304083 0.437381
Si Si3 0.177372 0.869577 0.679745
Si Si4 0.820613 0.950800 0.071874
Si Si5 0.823308 0.878320 0.180458
Si Si6 0.321232 0.558148 0.440068
O O1 0.790190 0.322009 0.510131
O O2 0.778097 0.243779 0.573198
O O3 0.738405 0.321732 0.641952
O O4 0.000000 0.307131 0.591994
O O5 0.794368 0.338345 0.375885
O O6 0.000000 0.292661 0.437587
O O7 0.250000 0.876679 0.750000
O O8 0.209101 0.909996 0.623735
O O9 0.000000 0.867093 0.688281
O O10 0.781477 0.927446 0.140444
O O11 0.000000 0.947750 0.064375
O O12 0.759738 0.006137 0.071328
O O13 0.744550 0.926329 0.009360
O O14 0.750000 0.872266 0.250000
O O15 0.000000 0.878632 0.191234
O O16 0.500000 0.553632 0.446200
#
# Coordination Sequence:
#
# PCOD9482433 Si02
#       6
#    16  16  16  16  16  16
#     4  10  20  36  60  85 109 141 183 230 277 325
#     4   9  19  37  58  81 111 145 184 227 271 324
#     4  11  24  39  56  80 112 148 184 225 275 331
#     4  10  20  36  59  84 110 143 182 224 272 323
#     4  10  22  37  54  79 111 147 183 221 267 321
#     4  10  21  37  58  84 110 140 182 228 271 319
#
# _framework density 9.4062319999999993
#
# number of rings (size 3 to 8) (size 9 to 14) (size 15 to 20)
#    0.000    2.000    0.000    4.000    0.000    8.000 
#    0.000    5.000    0.000    0.000    0.000    0.000 
#    0.000    0.000    0.000    0.000    0.000    0.000 
#
# Total GULP energy -267302.001671 kJ/mol
# GULP energy per Si atom -5568.791701 kJ/mol
# Density = 0.938482 g / cm^3
# Si number density = 9.406232 Si / 1000 Ang^3
#
#
#
# Elastic Constant Matrix: (Units=GPa)
#
#
# Indices 1 2 3 4 5 6 
#
# 1 9.5853 -24.3911 2.8781 0.0000 0.0000 0.0000
# 2 -24.3911 -2.0001 -27.3931 0.0000 0.0000 0.0000
# 3 2.8781 -27.3931 128.4926 0.0000 0.0000 0.0000
# 4 0.0000 0.0000 0.0000 22.6662 0.0000 0.0000
# 5 0.0000 0.0000 0.0000 0.0000 47.5046 0.0000
# 6 0.0000 0.0000 0.0000 0.0000 0.0000 10.5709
#
#
#
# Elastic Compliance Matrix: (Units=1/GPa)
#
#
# Indices 1 2 3 4 5 6 
#
# 1 0.012250 -0.037152 -0.008195 0.000000 0.000000 0.000000
# 2 -0.037152 -0.014876 -0.002339 0.000000 0.000000 0.000000
# 3 -0.008195 -0.002339 0.007467 0.000000 0.000000 0.000000
# 4 0.000000 0.000000 0.000000 0.044119 0.000000 0.000000
# 5 0.000000 0.000000 0.000000 0.000000 0.021051 0.000000
# 6 0.000000 0.000000 0.000000 0.000000 0.000000 0.094599
#
#
# Mechanical properties :
#
#
# Convention : Reuss Voigt Hill
#
# Bulk Modulus (GPa) = -11.04608 4.25174 -3.39717
# Shear Modulus (GPa) = 21.75772 28.48062 25.11917
#
# Velocity S-wave (km/s) = 3.40451 3.89514 3.65806
# Velocity P-wave (km/s) = 3.09351 4.74283 4.00401
#
# Compressibility (1/GPa) = -0.09052986
#
# Stress axis : x y z
#
# Youngs Moduli (GPa) = 81.63483 -67.22253 133.91527
#
# Poissons Ratio (x) = -2.49743 1.09739
# Poissons Ratio (y) = 3.03287 0.31326
# Poissons Ratio (z) = 0.66897 -0.15725
#
# Static dielectric constant tensor:
#      x y z
#    x 1.625160 0.000000 0.000000 
#    y 0.000000 1.735250 0.000000 
#    z 0.000000 0.000000 1.628220 
# 
# From -- ./inp_files/37121.got.cif
#   From: 2010.05.17/outbox.ucp.g08.bks.cvg/sg64_19_cif.got.tgz:37121.got - 2010.06.11 16:36:46.
