data_PCOD9482492
_publ_section_title
;
Structure prediction by ZEFSAII (Michael W. Deem and Ramdas Pophale) SiO2 
 PCOD9482492
Probable space group: C M C A
;
_chemical_formula_sum "Si O2"
_cell_formula_units_Z 32
_cell_length_a 21.000000
_cell_length_b 9.000000
_cell_length_c 18.000000
_cell_angle_alpha 90.000000
_cell_angle_beta 90.000000
_cell_angle_gamma 90.000000
_cell_volume 3402.000000
_symmetry_space_group_name_H-M "C M C A"
_symmetry_group_IT_number 64
_symmetry_cell_setting 'orthorhombic'
loop_
_space_group_symop_operation_xyz
x,y,z
-x,1/2-y,1/2+z
x,-y,-z
-x,1/2+y,1/2-z
-x,-y,-z
x,1/2+y,1/2-z
-x,y,z
x,1/2-y,1/2+z
1/2+x,1/2+y,z
1/2-x,-y,1/2+z
1/2+x,1/2-y,-z
1/2-x,y,1/2-z
1/2-x,1/2-y,-z
1/2+x,y,1/2-z
1/2-x,1/2+y,z
1/2+x,-y,1/2+z
loop_
_atom_site_type_symbol
_atom_site_label
_atom_site_fract_x
_atom_site_fract_y
_atom_site_fract_z
Si Si1 0.685476 0.214646 0.663004
Si Si2 0.815782 0.070517 0.674152
Si Si3 0.428145 0.898448 0.064020
Si Si4 0.073115 0.865919 0.048805
O O1 0.753562 0.147070 0.636924
O O2 0.677678 0.134721 0.742787
O O3 0.691653 0.392070 0.673704
O O4 0.624480 0.181087 0.610751
O O5 0.880545 0.109334 0.631519
O O6 0.500000 0.952892 0.083754
O O7 0.434620 0.751335 0.017044
O O8 0.398164 0.000000 0.000000
O O9 0.000000 0.894486 0.077614
O O10 0.099266 0.000000 0.000000
#
# Coordination Sequence:
#
# PCOD9482492 Si02
#       4
#    16  16  16  16
#     4  11  24  41  61  88 121 157 200 244 294 353
#     4  11  24  40  62  87 120 159 197 246 295 351
#     4  10  21  41  63  87 119 155 195 242 296 351
#     4  10  23  41  63  90 121 155 197 247 295 351
#
# _framework density 9.4062319999999993
#
# number of rings (size 3 to 8) (size 9 to 14) (size 15 to 20)
#    0.000    1.500    2.500    3.000    7.000    3.000 
#    0.000    0.000    0.000    0.000    0.000    0.000 
#    0.000    0.000    0.000    0.000    0.000    0.000 
#
# Total GULP energy -178141.471072 kJ/mol
# GULP energy per Si atom -5566.920971 kJ/mol
# Density = 0.938482 g / cm^3
# Si number density = 9.406232 Si / 1000 Ang^3
#
#
#
# Elastic Constant Matrix: (Units=GPa)
#
#
# Indices 1 2 3 4 5 6 
#
# 1 139.1114 24.9243 65.4215 0.0000 0.0000 0.0000
# 2 24.9243 94.0618 38.9567 0.0000 0.0000 0.0000
# 3 65.4215 38.9567 62.1504 0.0000 0.0000 0.0000
# 4 0.0000 0.0000 0.0000 28.9340 0.0000 0.0000
# 5 0.0000 0.0000 0.0000 0.0000 54.7158 0.0000
# 6 0.0000 0.0000 0.0000 0.0000 0.0000 25.9854
#
#
#
# Elastic Compliance Matrix: (Units=1/GPa)
#
#
# Indices 1 2 3 4 5 6 
#
# 1 0.015030 0.003471 -0.017997 0.000000 0.000000 0.000000
# 2 0.003471 0.015160 -0.013156 0.000000 0.000000 0.000000
# 3 -0.017997 -0.013156 0.043281 0.000000 0.000000 0.000000
# 4 0.000000 0.000000 0.000000 0.034561 0.000000 0.000000
# 5 0.000000 0.000000 0.000000 0.000000 0.018276 0.000000
# 6 0.000000 0.000000 0.000000 0.000000 0.000000 0.038483
#
#
# Mechanical properties :
#
#
# Convention : Reuss Voigt Hill
#
# Bulk Modulus (GPa) = 55.22831 61.54762 58.38797
# Shear Modulus (GPa) = 22.10511 32.99512 27.55012
#
# Velocity S-wave (km/s) = 3.43158 4.19250 3.83098
# Velocity P-wave (km/s) = 6.71729 7.49823 7.11848
#
# Compressibility (1/GPa) = 0.01810666
#
# Stress axis : x y z
#
# Youngs Moduli (GPa) = 66.53280 65.96127 23.10506
#
# Poissons Ratio (x) = -0.22895 0.41582
# Poissons Ratio (y) = -0.23093 0.30398
# Poissons Ratio (z) = 1.19738 0.86781
#
# Static dielectric constant tensor:
#      x y z
#    x 1.672490 0.000000 0.000000 
#    y 0.000000 1.603270 0.000000 
#    z 0.000000 0.000000 1.541600 
# 
# From -- ./inp_files/26934.got.cif
#   From: 2010.05.17/outbox.ucp.g08.bks.cvg/sg64_14_cif.got.tgz:26934.got - 2010.06.11 16:36:46.
