data_PCOD9482427
_publ_section_title
;
Structure prediction by ZEFSAII (Michael W. Deem and Ramdas Pophale) SiO2 
 PCOD9482427
Probable space group: C M C A
;
_chemical_formula_sum "Si O2"
_cell_formula_units_Z 56
_cell_length_a 15.000000
_cell_length_b 24.000000
_cell_length_c 15.000000
_cell_angle_alpha 90.000000
_cell_angle_beta 90.000000
_cell_angle_gamma 90.000000
_cell_volume 5400.000000
_symmetry_space_group_name_H-M "C M C A"
_symmetry_group_IT_number 64
_symmetry_cell_setting 'orthorhombic'
loop_
_space_group_symop_operation_xyz
x,y,z
-x,1/2-y,1/2+z
x,-y,-z
-x,1/2+y,1/2-z
-x,-y,-z
x,1/2+y,1/2-z
-x,y,z
x,1/2-y,1/2+z
1/2+x,1/2+y,z
1/2-x,-y,1/2+z
1/2+x,1/2-y,-z
1/2-x,y,1/2-z
1/2-x,1/2-y,-z
1/2+x,y,1/2-z
1/2-x,1/2+y,z
1/2+x,-y,1/2+z
loop_
_atom_site_type_symbol
_atom_site_label
_atom_site_fract_x
_atom_site_fract_y
_atom_site_fract_z
Si Si1 0.653692 0.125880 0.294994
Si Si2 0.728334 0.839583 0.077825
Si Si3 0.601723 0.748487 0.133160
Si Si4 0.594330 0.954471 0.855771
Si Si5 0.779181 0.558956 0.453383
Si Si6 0.348662 0.928248 0.215246
Si Si7 0.097487 0.677482 0.686347
O O1 0.750000 0.136409 0.250000
O O2 0.624360 0.184358 0.340141
O O3 0.599743 0.096423 0.214885
O O4 0.662136 0.076959 0.368714
O O5 0.664985 0.785057 0.067012
O O6 0.671230 0.885016 0.134819
O O7 0.813789 0.814898 0.129484
O O8 0.770634 0.882235 0.006275
O O9 0.500000 0.749996 0.100536
O O10 0.605414 0.783388 0.226355
O O11 0.500000 0.950887 0.904170
O O12 0.679217 0.951523 0.918874
O O13 0.602679 0.015063 0.809266
O O14 0.807009 0.500000 0.500000
O O15 0.250000 0.944111 0.250000
O O16 0.396749 0.887702 0.285139
O O17 0.000000 0.688212 0.645419
#
# Coordination Sequence:
#
# PCOD9482427 Si02
#       7
#    16  16  16  16  16  16  16
#     4  10  22  39  63  83 115 160 209 245 300 358
#     4  10  20  35  60  85 124 159 195 243 312 364
#     4  10  20  38  62  91 121 156 206 256 301 356
#     4  11  22  36  58  86 115 153 205 254 296 353
#     4  11  23  40  58  87 124 165 200 243 306 372
#     4   9  16  31  53  80 115 154 197 240 292 353
#     4   9  18  32  57  88 116 151 199 251 298 352
#
# _framework density 10.370369999999999
#
# number of rings (size 3 to 8) (size 9 to 14) (size 15 to 20)
#    0.000    2.000    1.429    4.286    2.000    2.000 
#    0.000    1.429    0.000    5.571    0.000    0.000 
#    0.000    0.000    0.000    0.000    0.000    0.000 
#
# Total GULP energy -312002.829035 kJ/mol
# GULP energy per Si atom -5571.479090 kJ/mol
# Density = 1.034677 g / cm^3
# Si number density = 10.370370 Si / 1000 Ang^3
#
#
#
# Elastic Constant Matrix: (Units=GPa)
#
#
# Indices 1 2 3 4 5 6 
#
# 1 76.2977 9.7100 -2.6613 0.0000 0.0000 0.0000
# 2 9.7100 85.7162 -1.2743 0.0000 0.0000 0.0000
# 3 -2.6613 -1.2743 23.9871 0.0000 0.0000 0.0000
# 4 0.0000 0.0000 0.0000 30.2310 0.0000 0.0000
# 5 0.0000 0.0000 0.0000 0.0000 2.1263 0.0000
# 6 0.0000 0.0000 0.0000 0.0000 0.0000 129.3900
#
#
#
# Elastic Compliance Matrix: (Units=1/GPa)
#
#
# Indices 1 2 3 4 5 6 
#
# 1 0.013345 -0.001491 0.001401 0.000000 0.000000 0.000000
# 2 -0.001491 0.011842 0.000464 0.000000 0.000000 0.000000
# 3 0.001401 0.000464 0.041869 0.000000 0.000000 0.000000
# 4 0.000000 0.000000 0.000000 0.033079 0.000000 0.000000
# 5 0.000000 0.000000 0.000000 0.000000 0.470303 0.000000
# 6 0.000000 0.000000 0.000000 0.000000 0.000000 0.007729
#
#
# Mechanical properties :
#
#
# Convention : Reuss Voigt Hill
#
# Bulk Modulus (GPa) = 14.74819 21.94996 18.34907
# Shear Modulus (GPa) = 8.33306 44.36457 26.34882
#
# Velocity S-wave (km/s) = 2.00660 4.62996 3.56812
# Velocity P-wave (km/s) = 3.53479 6.26003 5.08344
#
# Compressibility (1/GPa) = 0.06780494
#
# Stress axis : x y z
#
# Youngs Moduli (GPa) = 74.93343 84.44381 23.88394
#
# Poissons Ratio (x) = 0.12590 -0.03347
# Poissons Ratio (y) = 0.11172 -0.01108
# Poissons Ratio (z) = -0.10501 -0.03916
#
# Static dielectric constant tensor:
#      x y z
#    x 1.804650 0.000000 0.000000 
#    y 0.000000 1.725570 0.000000 
#    z 0.000000 0.000000 1.823880 
# 
# From -- ./inp_files/24281.got.cif
#   From: 2010.05.17/outbox.ucp.g08.bks.cvg/sg64_13_cif.got.tgz:24281.got - 2010.06.11 16:36:46.
