data_PCOD9482032
_publ_section_title
;
Structure prediction by ZEFSAII (Michael W. Deem and Ramdas Pophale) SiO2 
 PCOD9482032
Probable space group: C M C A
;
_chemical_formula_sum "Si O2"
_cell_formula_units_Z 112
_cell_length_a 26.304351
_cell_length_b 11.492537
_cell_length_c 15.171478
_cell_angle_alpha 90.000000
_cell_angle_beta 90.000000
_cell_angle_gamma 90.000000
_cell_volume 4586.394345
_symmetry_space_group_name_H-M "C M C A"
_symmetry_group_IT_number 64
_symmetry_cell_setting 'orthorhombic'
loop_
_space_group_symop_operation_xyz
x,y,z
-x,1/2-y,1/2+z
x,-y,-z
-x,1/2+y,1/2-z
-x,-y,-z
x,1/2+y,1/2-z
-x,y,z
x,1/2-y,1/2+z
1/2+x,1/2+y,z
1/2-x,-y,1/2+z
1/2+x,1/2-y,-z
1/2-x,y,1/2-z
1/2-x,1/2-y,-z
1/2+x,y,1/2-z
1/2-x,1/2+y,z
1/2+x,-y,1/2+z
loop_
_atom_site_type_symbol
_atom_site_label
_atom_site_fract_x
_atom_site_fract_y
_atom_site_fract_z
Si Si1 0.940394 0.237458 0.800167
Si Si2 0.443261 0.162444 0.397157
Si Si3 0.082333 0.631464 0.025533
Si Si4 0.131460 0.525724 0.639954
Si Si5 0.223594 0.694588 0.652645
Si Si6 0.692164 0.104399 0.946151
Si Si7 0.193149 0.434692 0.790294
O O1 0.934233 0.281032 0.699701
O O2 0.906124 0.125011 0.822508
O O3 0.000000 0.208722 0.811450
O O4 0.926942 0.336616 0.872727
O O5 0.500000 0.110197 0.395820
O O6 0.442118 0.266334 0.467675
O O7 0.401298 0.064101 0.417896
O O8 0.141334 0.637403 0.995647
O O9 0.065728 0.500000 0.000000
O O10 0.183852 0.596567 0.620090
O O11 0.152898 0.439116 0.713994
O O12 0.250000 0.679044 0.750000
O O13 0.269624 0.702901 0.584150
O O14 0.193678 0.813441 0.660336
O O15 0.679207 0.039534 0.854720
O O16 0.718750 0.000000 0.000000
O O17 0.250000 0.444447 0.750000
#
# Coordination Sequence:
#
# PCOD9482032 Si02
#       7
#    16  16  16  16  16  16  16
#     4  11  27  49  77 112 151 200 262 332 390 457
#     4  11  27  47  79 115 148 202 259 320 395 465
#     4  11  28  50  80 113 156 201 259 323 392 465
#     4  12  23  44  75 104 151 200 254 311 386 462
#     4  11  24  42  72 103 147 203 248 306 380 458
#     4  11  24  42  65 106 146 192 250 306 376 454
#     4  11  23  43  69 105 145 196 251 308 372 454
#
# _framework density 24.420055000000001
#
# number of rings (size 3 to 8) (size 9 to 14) (size 15 to 20)
#    0.000    0.857    2.857    2.571   14.000    2.286 
#    2.571    1.429    0.000    0.000    0.000    0.000 
#    0.000    0.000    0.000    0.000    0.000    0.000 
#
# Total GULP energy -313137.444909 kJ/mol
# GULP energy per Si atom -5591.740088 kJ/mol
# Density = 2.436447 g / cm^3
# Si number density = 24.420055 Si / 1000 Ang^3
#
#
#
# Elastic Constant Matrix: (Units=GPa)
#
#
# Indices 1 2 3 4 5 6 
#
# 1 108.3586 33.9247 18.2106 0.0000 0.0000 0.0000
# 2 33.9247 92.5614 3.4447 0.0000 0.0000 0.0000
# 3 18.2106 3.4447 84.2085 0.0000 0.0000 0.0000
# 4 0.0000 0.0000 0.0000 -68.4556 0.0000 0.0000
# 5 0.0000 0.0000 0.0000 0.0000 25.3961 0.0000
# 6 0.0000 0.0000 0.0000 0.0000 0.0000 13.5274
#
#
#
# Elastic Compliance Matrix: (Units=1/GPa)
#
#
# Indices 1 2 3 4 5 6 
#
# 1 0.010810 -0.003881 -0.002179 0.000000 0.000000 0.000000
# 2 -0.003881 0.012213 0.000340 0.000000 0.000000 0.000000
# 3 -0.002179 0.000340 0.012333 0.000000 0.000000 0.000000
# 4 0.000000 0.000000 0.000000 -0.014608 0.000000 0.000000
# 5 0.000000 0.000000 0.000000 0.000000 0.039376 0.000000
# 6 0.000000 0.000000 0.000000 0.000000 0.000000 0.073924
#
#
# Mechanical properties :
#
#
# Convention : Reuss Voigt Hill
#
# Bulk Modulus (GPa) = 41.81379 44.03203 42.92291
# Shear Modulus (GPa) = 32.58184 9.39682 20.98933
#
# Velocity S-wave (km/s) = 3.65667 1.96376 2.93492
# Velocity P-wave (km/s) = 5.91508 4.81789 5.39445
#
# Compressibility (1/GPa) = 0.02391556
#
# Stress axis : x y z
#
# Youngs Moduli (GPa) = 92.50868 81.87755 81.08592
#
# Poissons Ratio (x) = 0.31775 0.17668
# Poissons Ratio (y) = 0.35901 -0.02754
# Poissons Ratio (z) = 0.20157 -0.02781
#
# Static dielectric constant tensor:
#      x y z
#    x 1.951920 0.000000 0.000000 
#    y 0.000000 1.966740 0.000000 
#    z 0.000000 0.000000 2.058400 
# 
# From -- ./inp_files/28419.got.cif
#   From: 2010.05.17/outbox.cif.g08.bks.cpg/sg64_15_cif.got.tgz:28419.got - 2010.06.03 16:29:19.
