data_PCOD9482516
_publ_section_title
;
Structure prediction by ZEFSAII (Michael W. Deem and Ramdas Pophale) SiO2 
 PCOD9482516
Probable space group: C M C A
;
_chemical_formula_sum "Si O2"
_cell_formula_units_Z 40
_cell_length_a 9.000000
_cell_length_b 27.000000
_cell_length_c 18.000000
_cell_angle_alpha 90.000000
_cell_angle_beta 90.000000
_cell_angle_gamma 90.000000
_cell_volume 4374.000000
_symmetry_space_group_name_H-M "C M C A"
_symmetry_group_IT_number 64
_symmetry_cell_setting 'orthorhombic'
loop_
_space_group_symop_operation_xyz
x,y,z
-x,1/2-y,1/2+z
x,-y,-z
-x,1/2+y,1/2-z
-x,-y,-z
x,1/2+y,1/2-z
-x,y,z
x,1/2-y,1/2+z
1/2+x,1/2+y,z
1/2-x,-y,1/2+z
1/2+x,1/2-y,-z
1/2-x,y,1/2-z
1/2-x,1/2-y,-z
1/2+x,y,1/2-z
1/2-x,1/2+y,z
1/2+x,-y,1/2+z
loop_
_atom_site_type_symbol
_atom_site_label
_atom_site_fract_x
_atom_site_fract_y
_atom_site_fract_z
Si Si1 0.330818 0.607711 0.576759
Si Si2 0.819941 0.195375 0.329699
Si Si3 0.668674 0.091721 0.100286
Si Si4 0.680250 0.277654 0.428449
Si Si5 0.329101 0.992315 0.409917
O O1 0.500000 0.607281 0.605035
O O2 0.334464 0.596085 0.488808
O O3 0.274932 0.664544 0.581738
O O4 0.244332 0.560523 0.609505
O O5 0.750000 0.188223 0.250000
O O6 0.776641 0.145300 0.373564
O O7 0.743639 0.244062 0.362891
O O8 0.000000 0.199888 0.331128
O O9 0.500000 0.086397 0.127403
O O10 0.755203 0.042121 0.121923
O O11 0.500000 0.276710 0.434059
O O12 0.750000 0.250000 0.500000
O O13 0.500000 0.990715 0.388968
O O14 0.320600 0.000000 0.500000
#
# Coordination Sequence:
#
# PCOD9482516 Si02
#       5
#    16  16  16  16  16
#     4   9  17  31  50  75 106 141 176 214 269 324
#     4  11  23  39  56  80 110 147 188 228 279 334
#     4   9  17  32  51  72 104 141 176 215 265 326
#     4  11  21  35  56  82 111 146 186 232 279 330
#     4   9  17  27  44  75 106 133 169 213 262 311
#
# _framework density 9.1449470000000002
#
# number of rings (size 3 to 8) (size 9 to 14) (size 15 to 20)
#    0.000    2.200    2.000    1.800    0.000    5.600 
#    0.000    0.000    0.000    1.200    0.000    5.600 
#    0.000    0.000    0.000    0.000    0.000    0.000 
#
# Total GULP energy -222738.283647 kJ/mol
# GULP energy per Si atom -5568.457091 kJ/mol
# Density = 0.912413 g / cm^3
# Si number density = 9.144947 Si / 1000 Ang^3
#
#
#
# Elastic Constant Matrix: (Units=GPa)
#
#
# Indices 1 2 3 4 5 6 
#
# 1 67.9771 78.6159 4.2628 0.0000 0.0000 0.0000
# 2 78.6159 202.7743 -4.9891 0.0000 0.0000 0.0000
# 3 4.2628 -4.9891 -1.1822 0.0000 0.0000 0.0000
# 4 0.0000 0.0000 0.0000 0.8767 0.0000 0.0000
# 5 0.0000 0.0000 0.0000 0.0000 14.4901 0.0000
# 6 0.0000 0.0000 0.0000 0.0000 0.0000 37.0019
#
#
#
# Elastic Compliance Matrix: (Units=1/GPa)
#
#
# Indices 1 2 3 4 5 6 
#
# 1 0.014942 -0.004047 0.070957 0.000000 0.000000 0.000000
# 2 -0.004047 0.005564 -0.038074 0.000000 0.000000 0.000000
# 3 0.070957 -0.038074 -0.429351 0.000000 0.000000 0.000000
# 4 0.000000 0.000000 0.000000 1.140675 0.000000 0.000000
# 5 0.000000 0.000000 0.000000 0.000000 0.069013 0.000000
# 6 0.000000 0.000000 0.000000 0.000000 0.000000 0.027026
#
#
# Mechanical properties :
#
#
# Convention : Reuss Voigt Hill
#
# Bulk Modulus (GPa) = -2.84759 47.26093 22.20667
# Shear Modulus (GPa) = 7.65535 23.25237 15.45386
#
# Velocity S-wave (km/s) = 2.04808 3.56943 2.90994
# Velocity P-wave (km/s) = 2.00813 6.54857 4.84336
#
# Compressibility (1/GPa) = -0.35117376
#
# Stress axis : x y z
#
# Youngs Moduli (GPa) = 66.92700 179.73088 -2.32910
#
# Poissons Ratio (x) = 0.72738 0.16527
# Poissons Ratio (y) = 0.27086 -0.08868
# Poissons Ratio (z) = -4.74893 6.84304
#
# Static dielectric constant tensor:
#      x y z
#    x 1.635440 0.000000 0.000000 
#    y 0.000000 1.545160 0.000000 
#    z 0.000000 0.000000 1.517590 
# 
# From -- ./inp_files/29769.got.cif
#   From: 2010.05.17/outbox.ucp.g08.bks.cvg/sg64_15_cif.got.tgz:29769.got - 2010.06.11 16:36:46.
