data_PCOD9482803
_publ_section_title
;
Structure prediction by ZEFSAII (Michael W. Deem and Ramdas Pophale) SiO2 
 PCOD9482803
Probable space group: C M M M
;
_chemical_formula_sum "Si O2"
_cell_formula_units_Z 120
_cell_length_a 21.358137
_cell_length_b 13.930195
_cell_length_c 20.902566
_cell_angle_alpha 90.000000
_cell_angle_beta 90.000000
_cell_angle_gamma 90.000000
_cell_volume 6218.994421
_symmetry_space_group_name_H-M "C M M M"
_symmetry_group_IT_number 65
_symmetry_cell_setting 'orthorhombic'
loop_
_space_group_symop_operation_xyz
x,y,z
-x,-y,z
x,-y,-z
-x,y,-z
-x,-y,-z
x,y,-z
-x,y,z
x,-y,z
1/2+x,1/2+y,z
1/2-x,1/2-y,z
1/2+x,1/2-y,-z
1/2-x,1/2+y,-z
1/2-x,1/2-y,-z
1/2+x,1/2+y,-z
1/2-x,1/2+y,z
1/2+x,1/2-y,z
loop_
_atom_site_type_symbol
_atom_site_label
_atom_site_fract_x
_atom_site_fract_y
_atom_site_fract_z
Si Si1 0.260699 0.610932 0.293498
Si Si2 0.287814 0.117243 0.074493
Si Si3 0.886824 0.199056 0.250203
Si Si4 0.429592 0.617300 0.000000
Si Si5 0.349980 0.615025 0.880699
Si Si6 0.859644 0.390538 0.200767
Si Si7 0.568408 0.384172 0.620159
Si Si8 0.204384 0.884293 0.429921
O O1 0.286217 0.500000 0.291240
O O2 0.314332 0.683406 0.271508
O O3 0.202722 0.609496 0.245496
O O4 0.251341 0.634607 0.368590
O O5 0.220832 0.148469 0.104346
O O6 0.339302 0.140202 0.128860
O O7 0.286755 0.000000 0.072609
O O8 0.295253 0.148315 0.000000
O O9 0.884665 0.142973 0.183886
O O10 0.901366 0.308938 0.233290
O O11 0.926077 0.154941 0.307585
O O12 0.392218 0.649251 0.061455
O O13 0.429863 0.500000 0.000000
O O14 0.500000 0.651194 0.000000
O O15 0.345828 0.500000 0.881707
O O16 0.883236 0.500000 0.199526
O O17 0.500000 0.356288 0.593131
O O18 0.570178 0.500000 0.621292
O O19 0.632690 0.352380 0.585355
O O20 0.224151 0.850368 0.500000
O O21 0.201741 0.000000 0.433110
#
# Coordination Sequence:
#
# PCOD9482803 Si02
#       8
#    16  16  16   8  16  16  16  16
#     4   9  16  27  44  67  97 128 157 189 224 273
#     4   9  16  28  44  62  88 118 150 193 239 281
#     4  11  19  29  46  67  90 121 157 192 234 278
#     4   9  18  30  42  61  91 123 151 182 226 278
#     4  10  17  27  43  62  87 119 150 184 227 279
#     4  10  20  32  46  66  91 122 162 200 240 281
#     4   9  18  31  48  72  98 122 151 189 233 281
#     4   8  14  25  43  69 100 132 161 187 220 267
#
# _framework density 19.295724
#
# number of rings (size 3 to 8) (size 9 to 14) (size 15 to 20)
#    0.000    2.600    2.000    2.400    0.000    0.800 
#    1.200    3.333    0.000    6.800    0.000    0.000 
#    0.000    0.533    0.000    4.800    0.000    0.533 
#
# Total GULP energy -334266.162511 kJ/mol
# GULP energy per Si atom -5571.102709 kJ/mol
# Density = 1.925181 g / cm^3
# Si number density = 19.295724 Si / 1000 Ang^3
#
#
#
# Elastic Constant Matrix: (Units=GPa)
#
#
# Indices 1 2 3 4 5 6 
#
# 1 12.7094 -3.8414 -6.8014 0.0000 0.0000 0.0000
# 2 -3.8414 57.7882 3.0685 0.0000 0.0000 0.0000
# 3 -6.8014 3.0685 112.8507 0.0000 0.0000 0.0000
# 4 0.0000 0.0000 0.0000 46.1224 0.0000 0.0000
# 5 0.0000 0.0000 0.0000 0.0000 6.5515 0.0000
# 6 0.0000 0.0000 0.0000 0.0000 0.0000 9.3793
#
#
#
# Elastic Compliance Matrix: (Units=1/GPa)
#
#
# Indices 1 2 3 4 5 6 
#
# 1 0.082865 0.005251 0.004851 0.000000 0.000000 0.000000
# 2 0.005251 0.017662 -0.000164 0.000000 0.000000 0.000000
# 3 0.004851 -0.000164 0.009158 0.000000 0.000000 0.000000
# 4 0.000000 0.000000 0.000000 0.021681 0.000000 0.000000
# 5 0.000000 0.000000 0.000000 0.000000 0.152636 0.000000
# 6 0.000000 0.000000 0.000000 0.000000 0.000000 0.106618
#
#
# Mechanical properties :
#
#
# Convention : Reuss Voigt Hill
#
# Bulk Modulus (GPa) = 7.71830 18.68888 13.20359
# Shear Modulus (GPa) = 12.07927 25.13881 18.60904
#
# Velocity S-wave (km/s) = 2.50473 3.61337 3.10887
# Velocity P-wave (km/s) = 3.51761 5.20722 4.44346
#
# Compressibility (1/GPa) = 0.12956226
#
# Stress axis : x y z
#
# Youngs Moduli (GPa) = 12.06780 56.61777 109.19290
#
# Poissons Ratio (x) = -0.29729 -0.52974
# Poissons Ratio (y) = -0.06337 0.01789
# Poissons Ratio (z) = -0.05855 0.00927
#
# Static dielectric constant tensor:
#      x y z
#    x 1.677460 0.000000 0.000000 
#    y 0.000000 1.749930 0.000000 
#    z 0.000000 0.000000 1.692530 
# 
# From -- ./inp_files/66124.got.cif
#   From: 2010.05.17/outbox.cif.g08.bks.cpg/sg65_34_cif.got.tgz:66124.got - 2010.06.03 17:01:31.
