data_PCOD9482290
_publ_section_title
;
Structure prediction by ZEFSAII (Michael W. Deem and Ramdas Pophale) SiO2 
 PCOD9482290
Probable space group: C M C A
;
_chemical_formula_sum "Si O2"
_cell_formula_units_Z 64
_cell_length_a 14.494186
_cell_length_b 27.462991
_cell_length_c 7.600350
_cell_angle_alpha 90.000000
_cell_angle_beta 90.000000
_cell_angle_gamma 90.000000
_cell_volume 3025.347436
_symmetry_space_group_name_H-M "C M C A"
_symmetry_group_IT_number 64
_symmetry_cell_setting 'orthorhombic'
loop_
_space_group_symop_operation_xyz
x,y,z
-x,1/2-y,1/2+z
x,-y,-z
-x,1/2+y,1/2-z
-x,-y,-z
x,1/2+y,1/2-z
-x,y,z
x,1/2-y,1/2+z
1/2+x,1/2+y,z
1/2-x,-y,1/2+z
1/2+x,1/2-y,-z
1/2-x,y,1/2-z
1/2-x,1/2-y,-z
1/2+x,y,1/2-z
1/2-x,1/2+y,z
1/2+x,-y,1/2+z
loop_
_atom_site_type_symbol
_atom_site_label
_atom_site_fract_x
_atom_site_fract_y
_atom_site_fract_z
Si Si1 0.395933 0.699923 0.852612
Si Si2 0.144378 0.309477 0.757888
Si Si3 0.310140 0.444964 0.571368
Si Si4 0.000000 0.886677 0.604030
Si Si5 0.750000 0.621461 0.750000
O O1 0.500000 0.698888 0.784542
O O2 0.356810 0.753849 0.823712
O O3 0.336407 0.657750 0.765842
O O4 0.394001 0.690084 0.060256
O O5 0.250000 0.326133 0.750000
O O6 0.080240 0.343794 0.872006
O O7 0.309269 0.500000 0.500000
O O8 0.250000 0.442153 0.750000
O O9 0.415720 0.427262 0.596105
O O10 0.262478 0.411577 0.421373
#
# Coordination Sequence:
#
# PCOD9482290 Si02
#       5
#    16  16  16   8   8
#     4  12  25  43  69 110 152 205 255 300 371 457
#     4  12  25  44  69 107 161 205 249 308 369 458
#     4  12  28  55  81 111 149 196 262 335 395 453
#     4  12  25  44  81 109 148 205 245 300 393 453
#     4  12  28  48  78 110 150 206 256 316 388 458
#
# _framework density 21.154593999999999
#
# number of rings (size 3 to 8) (size 9 to 14) (size 15 to 20)
#    0.000    0.000    5.000    4.875    5.250    0.000 
#    0.000    0.625    0.000    0.000    0.000    0.000 
#    0.000    0.000    0.000    0.000    0.000    0.000 
#
# Total GULP energy -178225.380627 kJ/mol
# GULP energy per Si atom -5569.543145 kJ/mol
# Density = 2.110645 g / cm^3
# Si number density = 21.154594 Si / 1000 Ang^3
#
#
#
# Elastic Constant Matrix: (Units=GPa)
#
#
# Indices 1 2 3 4 5 6 
#
# 1 202.4273 65.6016 42.9427 0.0000 0.0000 0.0000
# 2 65.6016 186.9212 58.6815 0.0000 0.0000 0.0000
# 3 42.9427 58.6815 117.2866 0.0000 0.0000 0.0000
# 4 0.0000 0.0000 0.0000 23.7230 0.0000 0.0000
# 5 0.0000 0.0000 0.0000 0.0000 21.7672 0.0000
# 6 0.0000 0.0000 0.0000 0.0000 0.0000 23.4598
#
#
#
# Elastic Compliance Matrix: (Units=1/GPa)
#
#
# Indices 1 2 3 4 5 6 
#
# 1 0.005736 -0.001606 -0.001296 0.000000 0.000000 0.000000
# 2 -0.001606 0.006796 -0.002812 0.000000 0.000000 0.000000
# 3 -0.001296 -0.002812 0.010408 0.000000 0.000000 0.000000
# 4 0.000000 0.000000 0.000000 0.042153 0.000000 0.000000
# 5 0.000000 0.000000 0.000000 0.000000 0.045941 0.000000
# 6 0.000000 0.000000 0.000000 0.000000 0.000000 0.042626
#
#
# Mechanical properties :
#
#
# Convention : Reuss Voigt Hill
#
# Bulk Modulus (GPa) = 86.87961 93.45409 90.16685
# Shear Modulus (GPa) = 29.59875 36.41730 33.00803
#
# Velocity S-wave (km/s) = 3.74460 4.15358 3.95438
# Velocity P-wave (km/s) = 7.73654 8.20217 7.97276
#
# Compressibility (1/GPa) = 0.01151018
#
# Stress axis : x y z
#
# Youngs Moduli (GPa) = 174.35221 147.13716 96.08044
#
# Poissons Ratio (x) = 0.23629 0.12457
# Poissons Ratio (y) = 0.27999 0.27022
# Poissons Ratio (z) = 0.22605 0.41381
#
# Static dielectric constant tensor:
#      x y z
#    x 1.846970 0.000000 0.000000 
#    y 0.000000 1.736340 0.000000 
#    z 0.000000 0.000000 1.792700 
# 
# From -- ./inp_files/5743.got.cif
#   From: 2010.05.17/outbox.cif.g08.bks.cpg/sg64_3_cif.got.tgz:5743.got - 2010.06.03 16:29:19.
