data_PCOD9482744
_publ_section_title
;
Structure prediction by ZEFSAII (Michael W. Deem and Ramdas Pophale) SiO2 
 PCOD9482744
Probable space group: C M M M
;
_chemical_formula_sum "Si O2"
_cell_formula_units_Z 88
_cell_length_a 32.244022
_cell_length_b 18.046536
_cell_length_c 11.904236
_cell_angle_alpha 90.000000
_cell_angle_beta 90.000000
_cell_angle_gamma 90.000000
_cell_volume 6926.990454
_symmetry_space_group_name_H-M "C M M M"
_symmetry_group_IT_number 65
_symmetry_cell_setting 'orthorhombic'
loop_
_space_group_symop_operation_xyz
x,y,z
-x,-y,z
x,-y,-z
-x,y,-z
-x,-y,-z
x,y,-z
-x,y,z
x,-y,z
1/2+x,1/2+y,z
1/2-x,1/2-y,z
1/2+x,1/2-y,-z
1/2-x,1/2+y,-z
1/2-x,1/2-y,-z
1/2+x,1/2+y,-z
1/2-x,1/2+y,z
1/2+x,1/2-y,z
loop_
_atom_site_type_symbol
_atom_site_label
_atom_site_fract_x
_atom_site_fract_y
_atom_site_fract_z
Si Si1 0.084268 0.910258 0.745402
Si Si2 0.000000 0.090155 0.130268
Si Si3 0.744998 0.412486 0.261593
Si Si4 0.292564 0.798110 0.128033
Si Si5 0.887911 0.909987 0.500000
Si Si6 0.834284 0.850085 0.134466
Si Si7 0.291560 0.409966 0.500000
O O1 0.041421 0.886845 0.803644
O O2 0.089668 0.887591 0.615215
O O3 0.123469 0.879588 0.813295
O O4 0.085998 0.000000 0.749122
O O5 0.000000 0.000000 0.129087
O O6 0.000000 0.114265 0.000000
O O7 0.753235 0.500000 0.261512
O O8 0.782675 0.365169 0.210818
O O9 0.704341 0.395377 0.186097
O O10 0.732042 0.387656 0.386845
O O11 0.250000 0.750000 0.126095
O O12 0.326547 0.736933 0.160716
O O13 0.299919 0.823738 0.000000
O O14 0.839656 0.885335 0.500000
O O15 0.887044 0.000000 0.500000
O O16 0.833827 0.857735 0.000000
O O17 0.292833 0.500000 0.500000
#
# Coordination Sequence:
#
# PCOD9482744 Si02
#       7
#    16   8  16  16   8  16   8
#     4  10  18  28  42  56  74  99 126 156 189 225
#     4   9  18  29  39  57  79  92 116 160 193 218
#     4  10  17  26  40  54  71  97 126 157 190 220
#     4   8  16  28  37  51  75  95 119 157 192 221
#     4   9  16  27  39  54  74  95 126 162 187 214
#     4  10  18  27  39  54  74  99 124 154 192 225
#     4   9  16  26  37  54  76  94 122 165 191 210
#
# _framework density 12.70393
#
# number of rings (size 3 to 8) (size 9 to 14) (size 15 to 20)
#    0.000    2.636    1.818    2.727    0.000    3.636 
#    0.000    6.818    0.000    0.000    0.000    0.000 
#    0.000    0.000    0.000    0.818    0.000    9.091 
#
# Total GULP energy -244976.778063 kJ/mol
# GULP energy per Si atom -5567.654047 kJ/mol
# Density = 1.267502 g / cm^3
# Si number density = 12.703930 Si / 1000 Ang^3
#
#
#
# Elastic Constant Matrix: (Units=GPa)
#
#
# Indices 1 2 3 4 5 6 
#
# 1 47.3064 18.6589 32.9954 0.0000 0.0000 0.0000
# 2 18.6589 34.2671 33.1553 0.0000 0.0000 0.0000
# 3 32.9954 33.1553 102.2785 0.0000 0.0000 0.0000
# 4 0.0000 0.0000 0.0000 3.8952 0.0000 0.0000
# 5 0.0000 0.0000 0.0000 0.0000 15.1653 0.0000
# 6 0.0000 0.0000 0.0000 0.0000 0.0000 14.6092
#
#
#
# Elastic Compliance Matrix: (Units=1/GPa)
#
#
# Indices 1 2 3 4 5 6 
#
# 1 0.029441 -0.009968 -0.006267 0.000000 0.000000 0.000000
# 2 -0.009968 0.045893 -0.011661 0.000000 0.000000 0.000000
# 3 -0.006267 -0.011661 0.015579 0.000000 0.000000 0.000000
# 4 0.000000 0.000000 0.000000 0.256727 0.000000 0.000000
# 5 0.000000 0.000000 0.000000 0.000000 0.065940 0.000000
# 6 0.000000 0.000000 0.000000 0.000000 0.000000 0.068450
#
#
# Mechanical properties :
#
#
# Convention : Reuss Voigt Hill
#
# Bulk Modulus (GPa) = 28.47235 39.27458 33.87346
# Shear Modulus (GPa) = 9.09870 13.33677 11.21773
#
# Velocity S-wave (km/s) = 2.67912 3.24360 2.97478
# Velocity P-wave (km/s) = 5.65960 6.70897 6.20651
#
# Compressibility (1/GPa) = 0.03512180
#
# Stress axis : x y z
#
# Youngs Moduli (GPa) = 33.96598 21.78966 64.18861
#
# Poissons Ratio (x) = 0.21720 0.40224
# Poissons Ratio (y) = 0.33857 0.74853
# Poissons Ratio (z) = 0.21285 0.25410
#
# Static dielectric constant tensor:
#      x y z
#    x 1.398580 0.000000 0.000000 
#    y 0.000000 1.406770 0.000000 
#    z 0.000000 0.000000 1.437810 
# 
# From -- ./inp_files/34079.got.cif
#   From: 2010.05.17/outbox.cif.g08.bks.cpg/sg65_18_cif.got.tgz:34079.got - 2010.06.03 17:01:31.
