data_PCOD9482092
_publ_section_title
;
Structure prediction by ZEFSAII (Michael W. Deem and Ramdas Pophale) SiO2 
 PCOD9482092
Probable space group: C M C A
;
_chemical_formula_sum "Si O2"
_cell_formula_units_Z 68
_cell_length_a 16.842990
_cell_length_b 7.212751
_cell_length_c 23.156764
_cell_angle_alpha 90.000000
_cell_angle_beta 90.000000
_cell_angle_gamma 90.000000
_cell_volume 2813.183102
_symmetry_space_group_name_H-M "C M C A"
_symmetry_group_IT_number 64
_symmetry_cell_setting 'orthorhombic'
loop_
_space_group_symop_operation_xyz
x,y,z
-x,1/2-y,1/2+z
x,-y,-z
-x,1/2+y,1/2-z
-x,-y,-z
x,1/2+y,1/2-z
-x,y,z
x,1/2-y,1/2+z
1/2+x,1/2+y,z
1/2-x,-y,1/2+z
1/2+x,1/2-y,-z
1/2-x,y,1/2-z
1/2-x,1/2-y,-z
1/2+x,y,1/2-z
1/2-x,1/2+y,z
1/2+x,-y,1/2+z
loop_
_atom_site_type_symbol
_atom_site_label
_atom_site_fract_x
_atom_site_fract_y
_atom_site_fract_z
Si Si1 0.856825 0.506330 0.583627
Si Si2 0.408944 0.528183 0.329274
Si Si3 0.909058 0.096339 0.203801
Si Si4 0.500000 0.000000 0.500000
Si Si5 0.322617 0.921925 0.061668
O O1 0.868824 0.520502 0.652845
O O2 0.772464 0.585834 0.565046
O O3 0.853779 0.285244 0.570309
O O4 0.930626 0.569915 0.545874
O O5 0.500000 0.592284 0.338341
O O6 0.375078 0.601121 0.268478
O O7 0.412198 0.306878 0.317820
O O8 0.356219 0.547773 0.386198
O O9 0.000000 0.028061 0.210166
O O10 0.347431 0.000000 0.000000
#
# Coordination Sequence:
#
# PCOD9482092 Si02
#       5
#    16  16  16   4  16
#     4  11  24  43  67  92 131 168 212 263 321 380
#     4   9  20  38  61  90 125 165 209 259 316 372
#     4   9  18  38  61  89 123 165 212 260 308 376
#     4  12  24  44  70  92 122 176 204 248 338 378
#     4  11  24  42  63  94 133 164 210 270 316 375
#
# _framework density 24.171906
#
# number of rings (size 3 to 8) (size 9 to 14) (size 15 to 20)
#    0.000    1.882    2.353    0.706    1.647    3.294 
#    0.000    4.706    0.000    0.000    0.000    0.000 
#    0.000    0.000    0.000    0.000    0.000    0.000 
#
# Total GULP energy -189768.875053 kJ/mol
# GULP energy per Si atom -5581.437502 kJ/mol
# Density = 2.411689 g / cm^3
# Si number density = 24.171906 Si / 1000 Ang^3
#
#
#
# Elastic Constant Matrix: (Units=GPa)
#
#
# Indices 1 2 3 4 5 6 
#
# 1 87.3482 3.1598 71.1620 0.0000 0.0000 0.0000
# 2 3.1598 43.7880 16.4520 0.0000 0.0000 0.0000
# 3 71.1620 16.4520 225.5040 0.0000 0.0000 0.0000
# 4 0.0000 0.0000 0.0000 36.5026 0.0000 0.0000
# 5 0.0000 0.0000 0.0000 0.0000 44.3476 0.0000
# 6 0.0000 0.0000 0.0000 0.0000 0.0000 -106.6722
#
#
#
# Elastic Compliance Matrix: (Units=1/GPa)
#
#
# Indices 1 2 3 4 5 6 
#
# 1 0.015433 0.000736 -0.004924 0.000000 0.000000 0.000000
# 2 0.000736 0.023516 -0.001948 0.000000 0.000000 0.000000
# 3 -0.004924 -0.001948 0.006130 0.000000 0.000000 0.000000
# 4 0.000000 0.000000 0.000000 0.027395 0.000000 0.000000
# 5 0.000000 0.000000 0.000000 0.000000 0.022549 0.000000
# 6 0.000000 0.000000 0.000000 0.000000 0.000000 -0.009375
#
#
# Mechanical properties :
#
#
# Convention : Reuss Voigt Hill
#
# Bulk Modulus (GPa) = 30.47983 59.79864 45.13923
# Shear Modulus (GPa) = 45.93165 12.56003 29.24584
#
# Velocity S-wave (km/s) = 4.36387 2.28197 3.48215
# Velocity P-wave (km/s) = 6.16669 5.63346 5.90609
#
# Compressibility (1/GPa) = 0.03280859
#
# Stress axis : x y z
#
# Youngs Moduli (GPa) = 64.79478 42.52405 163.11904
#
# Poissons Ratio (x) = -0.03131 0.80320
# Poissons Ratio (y) = -0.04771 0.31776
# Poissons Ratio (z) = 0.31905 0.08284
#
# Static dielectric constant tensor:
#      x y z
#    x 1.743830 0.000000 0.000000 
#    y 0.000000 2.005310 0.000000 
#    z 0.000000 0.000000 1.969190 
# 
# From -- ./inp_files/38876.got.cif
#   From: 2010.05.17/outbox.cif.g08.bks.cpg/sg64_20_cif.got.tgz:38876.got - 2010.06.03 16:29:19.
