data_PCOD9482669
_publ_section_title
;
Structure prediction by ZEFSAII (Michael W. Deem and Ramdas Pophale) SiO2 
 PCOD9482669
Probable space group: C M M M
;
_chemical_formula_sum "Si O2"
_cell_formula_units_Z 76
_cell_length_a 29.912360
_cell_length_b 14.894978
_cell_length_c 11.288590
_cell_angle_alpha 90.000000
_cell_angle_beta 90.000000
_cell_angle_gamma 90.000000
_cell_volume 5029.562912
_symmetry_space_group_name_H-M "C M M M"
_symmetry_group_IT_number 65
_symmetry_cell_setting 'orthorhombic'
loop_
_space_group_symop_operation_xyz
x,y,z
-x,-y,z
x,-y,-z
-x,y,-z
-x,-y,-z
x,y,-z
-x,y,z
x,-y,z
1/2+x,1/2+y,z
1/2-x,1/2-y,z
1/2+x,1/2-y,-z
1/2-x,1/2+y,-z
1/2-x,1/2-y,-z
1/2+x,1/2+y,-z
1/2-x,1/2+y,z
1/2+x,1/2-y,z
loop_
_atom_site_type_symbol
_atom_site_label
_atom_site_fract_x
_atom_site_fract_y
_atom_site_fract_z
Si Si1 0.295604 0.696156 0.641149
Si Si2 0.948003 0.606473 0.141157
Si Si3 0.319458 0.000000 0.637599
Si Si4 0.222272 0.000000 0.263208
Si Si5 0.820036 0.602358 0.000000
Si Si6 0.267045 0.500000 0.000000
Si Si7 0.639675 0.829972 0.243451
O O1 0.298899 0.705180 0.500000
O O2 0.250000 0.750000 0.677220
O O3 0.292275 0.592186 0.675893
O O4 0.338069 0.742122 0.702348
O O5 0.939539 0.500000 0.162287
O O6 0.912744 0.664085 0.215102
O O7 0.000000 0.624016 0.168005
O O8 0.941493 0.621236 0.000000
O O9 0.276287 0.000000 0.722982
O O10 0.347112 0.088451 0.669242
O O11 0.305277 0.000000 0.500000
O O12 0.208726 0.000000 0.125257
O O13 0.766895 0.585236 0.000000
O O14 0.836468 0.649844 0.882097
O O15 0.839142 0.500000 0.000000
#
# Coordination Sequence:
#
# PCOD9482669 Si02
#       7
#    16  16   8   8   8   4  16
#     4  11  23  36  51  74 101 143 188 214 252 303
#     4   9  17  29  50  78 107 137 168 207 260 320
#     4  12  20  30  49  68  99 144 176 213 250 292
#     4  12  22  38  52  71 107 137 174 229 258 302
#     4  10  16  29  47  74 102 131 164 205 259 303
#     4  10  18  32  50  70  99 132 167 204 276 300
#     4  12  19  31  52  74 105 136 175 216 251 306
#
# _framework density 15.110658000000001
#
# number of rings (size 3 to 8) (size 9 to 14) (size 15 to 20)
#    0.316    0.842    7.368    2.211    0.000    0.842 
#    0.000    2.105    0.000    3.158    0.000    0.737 
#    0.000    3.368    0.000    0.000    0.000    0.000 
#
# Total GULP energy -211980.566190 kJ/mol
# GULP energy per Si atom -5578.435952 kJ/mol
# Density = 1.507627 g / cm^3
# Si number density = 15.110658 Si / 1000 Ang^3
#
#
#
# Elastic Constant Matrix: (Units=GPa)
#
#
# Indices 1 2 3 4 5 6 
#
# 1 93.0568 46.2883 21.2468 0.0000 0.0000 0.0000
# 2 46.2883 91.4676 24.7665 0.0000 0.0000 0.0000
# 3 21.2468 24.7665 71.0904 0.0000 0.0000 0.0000
# 4 0.0000 0.0000 0.0000 15.6724 0.0000 0.0000
# 5 0.0000 0.0000 0.0000 0.0000 13.2442 0.0000
# 6 0.0000 0.0000 0.0000 0.0000 0.0000 13.7946
#
#
#
# Elastic Compliance Matrix: (Units=1/GPa)
#
#
# Indices 1 2 3 4 5 6 
#
# 1 0.014609 -0.006858 -0.001977 0.000000 0.000000 0.000000
# 2 -0.006858 0.015291 -0.003277 0.000000 0.000000 0.000000
# 3 -0.001977 -0.003277 0.015799 0.000000 0.000000 0.000000
# 4 0.000000 0.000000 0.000000 0.063806 0.000000 0.000000
# 5 0.000000 0.000000 0.000000 0.000000 0.075505 0.000000
# 6 0.000000 0.000000 0.000000 0.000000 0.000000 0.072492
#
#
# Mechanical properties :
#
#
# Convention : Reuss Voigt Hill
#
# Bulk Modulus (GPa) = 46.56699 48.91312 47.74005
# Shear Modulus (GPa) = 17.30796 19.42977 18.36887
#
# Velocity S-wave (km/s) = 3.38807 3.58974 3.49036
# Velocity P-wave (km/s) = 6.79629 7.04428 6.92140
#
# Compressibility (1/GPa) = 0.02147444
#
# Stress axis : x y z
#
# Youngs Moduli (GPa) = 68.45277 65.39965 63.29410
#
# Poissons Ratio (x) = 0.44848 0.12513
# Poissons Ratio (y) = 0.46942 0.20744
# Poissons Ratio (z) = 0.13533 0.21434
#
# Static dielectric constant tensor:
#      x y z
#    x 1.511920 0.000000 0.000000 
#    y 0.000000 1.498370 0.000000 
#    z 0.000000 0.000000 1.515310 
# 
# From -- ./inp_files/32176.got.cif
#   From: 2010.05.17/outbox.cif.g08.bks.cpg/sg65_17_cif.got.tgz:32176.got - 2010.06.03 17:01:31.
