data_PCOD9482341
_publ_section_title
;
Structure prediction by ZEFSAII (Michael W. Deem and Ramdas Pophale) SiO2 
 PCOD9482341
Probable space group: C M C A
;
_chemical_formula_sum "Si O2"
_cell_formula_units_Z 96
_cell_length_a 14.536465
_cell_length_b 29.700527
_cell_length_c 10.501522
_cell_angle_alpha 90.000000
_cell_angle_beta 90.000000
_cell_angle_gamma 90.000000
_cell_volume 4533.934157
_symmetry_space_group_name_H-M "C M C A"
_symmetry_group_IT_number 64
_symmetry_cell_setting 'orthorhombic'
loop_
_space_group_symop_operation_xyz
x,y,z
-x,1/2-y,1/2+z
x,-y,-z
-x,1/2+y,1/2-z
-x,-y,-z
x,1/2+y,1/2-z
-x,y,z
x,1/2-y,1/2+z
1/2+x,1/2+y,z
1/2-x,-y,1/2+z
1/2+x,1/2-y,-z
1/2-x,y,1/2-z
1/2-x,1/2-y,-z
1/2+x,y,1/2-z
1/2-x,1/2+y,z
1/2+x,-y,1/2+z
loop_
_atom_site_type_symbol
_atom_site_label
_atom_site_fract_x
_atom_site_fract_y
_atom_site_fract_z
Si Si1 0.144314 0.272823 0.085716
Si Si2 0.353711 0.787489 0.369193
Si Si3 0.887421 0.036372 0.391076
Si Si4 0.609444 0.628901 0.506733
Si Si5 0.889941 0.385064 0.305270
Si Si6 0.887527 0.984232 0.138601
O O1 0.251545 0.267220 0.119951
O O2 0.103822 0.277730 0.229188
O O3 0.139537 0.319088 0.003751
O O4 0.103683 0.234063 0.996042
O O5 0.346775 0.841525 0.370968
O O6 0.854157 0.087062 0.423163
O O7 0.000000 0.038062 0.392579
O O8 0.862414 0.000000 0.500000
O O9 0.859379 0.016222 0.254839
O O10 0.500000 0.630300 0.484618
O O11 0.624730 0.616496 0.654272
O O12 0.854796 0.433193 0.347803
O O13 0.000000 0.381989 0.327622
O O14 0.000000 0.982917 0.143778
O O15 0.859885 0.000000 0.000000
#
# Coordination Sequence:
#
# PCOD9482341 Si02
#       6
#    16  16  16  16  16  16
#     4   9  18  33  50  68  89 120 158 190 231 282
#     4   9  18  33  51  67  88 122 157 191 230 282
#     4   9  14  24  43  65  90 120 151 182 217 266
#     4   9  16  27  47  72  93 117 155 196 231 269
#     4   9  16  28  47  70  93 121 154 189 233 277
#     4   9  16  26  41  65  96 123 149 182 223 273
#
# _framework density 21.173665
#
# number of rings (size 3 to 8) (size 9 to 14) (size 15 to 20)
#    0.000    3.000    1.667    0.000    0.000    0.667 
#    3.000    0.000    0.000    1.000    0.000    0.000 
#    0.000    0.000    0.000    0.000    0.000    0.000 
#
# Total GULP energy -267447.535294 kJ/mol
# GULP energy per Si atom -5571.823652 kJ/mol
# Density = 2.112547 g / cm^3
# Si number density = 21.173665 Si / 1000 Ang^3
#
#
#
# Elastic Constant Matrix: (Units=GPa)
#
#
# Indices 1 2 3 4 5 6 
#
# 1 110.9056 -438.9280 -190.0348 0.0000 0.0000 0.0000
# 2 -438.9280 3718.3732 1697.1456 0.0000 0.0000 0.0000
# 3 -190.0348 1697.1456 853.9786 0.0000 0.0000 0.0000
# 4 0.0000 0.0000 0.0000 43.7801 0.0000 0.0000
# 5 0.0000 0.0000 0.0000 0.0000 -2.8335 0.0000
# 6 0.0000 0.0000 0.0000 0.0000 0.0000 20.4216
#
#
#
# Elastic Compliance Matrix: (Units=1/GPa)
#
#
# Indices 1 2 3 4 5 6 
#
# 1 0.017314 0.003070 -0.002247 0.000000 0.000000 0.000000
# 2 0.003070 0.003438 -0.006149 0.000000 0.000000 0.000000
# 3 -0.002247 -0.006149 0.012892 0.000000 0.000000 0.000000
# 4 0.000000 0.000000 0.000000 0.022841 0.000000 0.000000
# 5 0.000000 0.000000 0.000000 0.000000 -0.352922 0.000000
# 6 0.000000 0.000000 0.000000 0.000000 0.000000 0.048968
#
#
# Mechanical properties :
#
#
# Convention : Reuss Voigt Hill
#
# Bulk Modulus (GPa) = 43.49791 757.73588 400.61690
# Shear Modulus (GPa) = -21.81958 253.27863 115.72952
#
# Velocity S-wave (km/s) = -3.21363 10.94894 7.40108
# Velocity P-wave (km/s) = 2.61115 22.77022 16.20650
#
# Compressibility (1/GPa) = 0.02298961
#
# Stress axis : x y z
#
# Youngs Moduli (GPa) = 57.75616 290.86942 77.56905
#
# Poissons Ratio (x) = -0.89284 0.17432
# Poissons Ratio (y) = -0.17729 0.47700
# Poissons Ratio (z) = 0.12980 1.78866
#
# Static dielectric constant tensor:
#      x y z
#    x 1.861820 0.000000 0.000000 
#    y 0.000000 1.753940 0.000000 
#    z 0.000000 0.000000 1.803810 
# 
# From -- ./inp_files/18714.got.cif
#   From: 2010.05.17/outbox.cif.g08.bks.cpg/sg64_10_cif.got.tgz:18714.got - 2010.06.03 16:29:19.
