data_PCOD9482611
_publ_section_title
;
Structure prediction by ZEFSAII (Michael W. Deem and Ramdas Pophale) SiO2 
 PCOD9482611
Probable space group: C M M M
;
_chemical_formula_sum "Si O2"
_cell_formula_units_Z 88
_cell_length_a 8.422912
_cell_length_b 14.929666
_cell_length_c 31.152710
_cell_angle_alpha 90.000000
_cell_angle_beta 90.000000
_cell_angle_gamma 90.000000
_cell_volume 3917.492625
_symmetry_space_group_name_H-M "C M M M"
_symmetry_group_IT_number 65
_symmetry_cell_setting 'orthorhombic'
loop_
_space_group_symop_operation_xyz
x,y,z
-x,-y,z
x,-y,-z
-x,y,-z
-x,-y,-z
x,y,-z
-x,y,z
x,-y,z
1/2+x,1/2+y,z
1/2-x,1/2-y,z
1/2+x,1/2-y,-z
1/2-x,1/2+y,-z
1/2-x,1/2-y,-z
1/2+x,1/2+y,-z
1/2-x,1/2+y,z
1/2+x,1/2-y,z
loop_
_atom_site_type_symbol
_atom_site_label
_atom_site_fract_x
_atom_site_fract_y
_atom_site_fract_z
Si Si1 0.189787 0.607423 0.546297
Si Si2 0.691043 0.351602 0.821205
Si Si3 0.691329 0.604732 0.363691
Si Si4 0.311329 0.353180 0.000000
Si Si5 0.319506 0.393335 0.727213
Si Si6 0.311389 0.146704 0.089537
O O1 0.249732 0.642014 0.500000
O O2 0.223075 0.500000 0.545833
O O3 0.257396 0.644592 0.590809
O O4 0.000000 0.617776 0.547300
O O5 0.500000 0.359284 0.821908
O O6 0.750000 0.250000 0.823061
O O7 0.752342 0.381962 0.774412
O O8 0.753155 0.394130 0.865418
O O9 0.500000 0.607087 0.361468
O O10 0.741715 0.500000 0.365570
O O11 0.753366 0.640981 0.317695
O O12 0.250000 0.250000 0.000000
O O13 0.250761 0.393324 0.044847
O O14 0.500000 0.352747 0.000000
O O15 0.500000 0.356384 0.730037
O O16 0.331669 0.500000 0.721293
O O17 0.500000 0.147497 0.088989
O O18 0.250000 0.250000 0.089459
#
# Coordination Sequence:
#
# PCOD9482611 Si02
#       6
#    16  16  16   8  16  16
#     4   8  13  20  29  44  70 102 130 156 194 245
#     4  10  18  29  45  64  88 115 143 176 213 252
#     4   8  13  22  36  53  72  96 131 171 204 236
#     4  10  16  24  38  58  83 110 141 172 209 253
#     4   8  15  28  45  63  83 111 146 180 212 248
#     4  10  17  26  39  58  85 113 141 172 210 252
#
# _framework density 22.463348
#
# number of rings (size 3 to 8) (size 9 to 14) (size 15 to 20)
#    0.000    3.091    0.000    6.818    0.000    0.364 
#    0.000    3.636    0.000    4.364    0.000    0.636 
#    0.000    5.818    0.000    1.636    0.000    4.364 
#
# Total GULP energy -245003.110885 kJ/mol
# GULP energy per Si atom -5568.252520 kJ/mol
# Density = 2.241222 g / cm^3
# Si number density = 22.463348 Si / 1000 Ang^3
#
#
#
# Elastic Constant Matrix: (Units=GPa)
#
#
# Indices 1 2 3 4 5 6 
#
# 1 73.3776 0.8259 60.0576 0.0000 0.0000 0.0000
# 2 0.8259 50.4718 19.4309 0.0000 0.0000 0.0000
# 3 60.0576 19.4309 335.2528 0.0000 0.0000 0.0000
# 4 0.0000 0.0000 0.0000 7.6419 0.0000 0.0000
# 5 0.0000 0.0000 0.0000 0.0000 -15.3196 0.0000
# 6 0.0000 0.0000 0.0000 0.0000 0.0000 -4.0347
#
#
#
# Elastic Compliance Matrix: (Units=1/GPa)
#
#
# Indices 1 2 3 4 5 6 
#
# 1 0.016006 0.000861 -0.002917 0.000000 0.000000 0.000000
# 2 0.000861 0.020312 -0.001332 0.000000 0.000000 0.000000
# 3 -0.002917 -0.001332 0.003583 0.000000 0.000000 0.000000
# 4 0.000000 0.000000 0.000000 0.130857 0.000000 0.000000
# 5 0.000000 0.000000 0.000000 0.000000 -0.065276 0.000000
# 6 0.000000 0.000000 0.000000 0.000000 0.000000 -0.247848
#
#
# Mechanical properties :
#
#
# Convention : Reuss Voigt Hill
#
# Bulk Modulus (GPa) = 30.18854 68.85900 49.52377
# Shear Modulus (GPa) = -40.14459 22.91004 -8.61727
#
# Velocity S-wave (km/s) = -4.23201 3.19703 -1.96073
# Velocity P-wave (km/s) = 3.22672 6.65947 4.11927
#
# Compressibility (1/GPa) = 0.03312515
#
# Stress axis : x y z
#
# Youngs Moduli (GPa) = 62.47596 49.23303 279.12671
#
# Poissons Ratio (x) = -0.04240 0.81429
# Poissons Ratio (y) = -0.05380 0.37166
# Poissons Ratio (z) = 0.18226 0.06555
#
# Static dielectric constant tensor:
#      x y z
#    x 1.771820 0.000000 0.000000 
#    y 0.000000 1.972350 0.000000 
#    z 0.000000 0.000000 1.971770 
# 
# From -- ./inp_files/76777.got.cif
#   From: 2010.05.17/outbox.cif.g08.bks.cpg/sg65_39_cif.got.tgz:76777.got - 2010.06.03 17:01:31.
