data_PCOD9482745
_publ_section_title
;
Structure prediction by ZEFSAII (Michael W. Deem and Ramdas Pophale) SiO2 
 PCOD9482745
Probable space group: C M M M
;
_chemical_formula_sum "Si O2"
_cell_formula_units_Z 88
_cell_length_a 20.626972
_cell_length_b 33.617254
_cell_length_c 8.622123
_cell_angle_alpha 90.000000
_cell_angle_beta 90.000000
_cell_angle_gamma 90.000000
_cell_volume 5978.771128
_symmetry_space_group_name_H-M "C M M M"
_symmetry_group_IT_number 65
_symmetry_cell_setting 'orthorhombic'
loop_
_space_group_symop_operation_xyz
x,y,z
-x,-y,z
x,-y,-z
-x,y,-z
-x,-y,-z
x,y,-z
-x,y,z
x,-y,z
1/2+x,1/2+y,z
1/2-x,1/2-y,z
1/2+x,1/2-y,-z
1/2-x,1/2+y,-z
1/2-x,1/2-y,-z
1/2+x,1/2+y,-z
1/2-x,1/2+y,z
1/2+x,1/2-y,z
loop_
_atom_site_type_symbol
_atom_site_label
_atom_site_fract_x
_atom_site_fract_y
_atom_site_fract_z
Si Si1 0.848494 0.244055 0.184719
Si Si2 0.428324 0.328874 0.811574
Si Si3 0.698114 0.621322 0.814402
Si Si4 0.269299 0.809056 0.316222
Si Si5 0.638959 0.546289 0.685083
Si Si6 0.000000 0.951825 0.175294
O O1 0.909679 0.216707 0.229266
O O2 0.787938 0.215700 0.231095
O O3 0.834429 0.286013 0.266116
O O4 0.848495 0.249653 0.000000
O O5 0.500000 0.339985 0.756007
O O6 0.369031 0.356905 0.761171
O O7 0.428632 0.330760 0.000000
O O8 0.756837 0.646106 0.739525
O O9 0.689867 0.576108 0.761723
O O10 0.702028 0.624282 0.000000
O O11 0.261003 0.805893 0.500000
O O12 0.642062 0.549066 0.500000
O O13 0.648280 0.500000 0.729652
O O14 0.566751 0.558577 0.740879
O O15 0.000000 0.000000 0.167773
O O16 0.000000 0.935590 0.000000
#
# Coordination Sequence:
#
# PCOD9482745 Si02
#       6
#    16  16  16  16  16   8
#     4   9  15  25  41  57  75  98 126 157 189 230
#     4   8  15  26  39  57  78  99 125 160 197 230
#     4  10  19  29  43  59  76  98 130 167 199 238
#     4  10  17  26  40  56  76  97 123 157 196 235
#     4  10  20  32  43  56  76  99 125 161 205 245
#     4   9  17  29  43  55  67  91 127 159 189 231
#
# _framework density 14.718743
#
# number of rings (size 3 to 8) (size 9 to 14) (size 15 to 20)
#    0.000    2.636    0.000    5.727    1.273    2.182 
#    0.000    0.000    0.000   10.909    0.000    0.000 
#    0.000    0.000    0.000    0.000    0.000    0.909 
#
# Total GULP energy -245045.648459 kJ/mol
# GULP energy per Si atom -5569.219283 kJ/mol
# Density = 1.468524 g / cm^3
# Si number density = 14.718743 Si / 1000 Ang^3
#
#
#
# Elastic Constant Matrix: (Units=GPa)
#
#
# Indices 1 2 3 4 5 6 
#
# 1 10.4733 14.6085 2.9645 0.0000 0.0000 0.0000
# 2 14.6085 78.6367 19.4193 0.0000 0.0000 0.0000
# 3 2.9645 19.4193 29.8681 0.0000 0.0000 0.0000
# 4 0.0000 0.0000 0.0000 18.9119 0.0000 0.0000
# 5 0.0000 0.0000 0.0000 0.0000 7.2641 0.0000
# 6 0.0000 0.0000 0.0000 0.0000 0.0000 21.7602
#
#
#
# Elastic Compliance Matrix: (Units=1/GPa)
#
#
# Indices 1 2 3 4 5 6 
#
# 1 0.129149 -0.024810 0.003312 0.000000 0.000000 0.000000
# 2 -0.024810 0.019915 -0.010486 0.000000 0.000000 0.000000
# 3 0.003312 -0.010486 0.039969 0.000000 0.000000 0.000000
# 4 0.000000 0.000000 0.000000 0.052877 0.000000 0.000000
# 5 0.000000 0.000000 0.000000 0.000000 0.137663 0.000000
# 6 0.000000 0.000000 0.000000 0.000000 0.000000 0.045955
#
#
# Mechanical properties :
#
#
# Convention : Reuss Voigt Hill
#
# Bulk Modulus (GPa) = 7.99576 21.44031 14.71804
# Shear Modulus (GPa) = 9.41293 15.05299 12.23296
#
# Velocity S-wave (km/s) = 2.53162 3.20145 2.88603
# Velocity P-wave (km/s) = 3.74027 5.31639 4.59639
#
# Compressibility (1/GPa) = 0.12506629
#
# Stress axis : x y z
#
# Youngs Moduli (GPa) = 7.74299 50.21285 25.01928
#
# Poissons Ratio (x) = 1.24580 -0.08288
# Poissons Ratio (y) = 0.19211 0.26235
# Poissons Ratio (z) = -0.02565 0.52652
#
# Static dielectric constant tensor:
#      x y z
#    x 1.484650 0.000000 0.000000 
#    y 0.000000 1.549150 0.000000 
#    z 0.000000 0.000000 1.490740 
# 
# From -- ./inp_files/14959.got.cif
#   From: 2010.05.17/outbox.cif.g08.bks.cpg/sg65_8_cif.got.tgz:14959.got - 2010.06.03 17:01:31.
