data_PCOD9482062
_publ_section_title
;
Structure prediction by ZEFSAII (Michael W. Deem and Ramdas Pophale) SiO2 
 PCOD9482062
Probable space group: C M C A
;
_chemical_formula_sum "Si O2"
_cell_formula_units_Z 72
_cell_length_a 18.241022
_cell_length_b 8.653512
_cell_length_c 23.555820
_cell_angle_alpha 90.000000
_cell_angle_beta 90.000000
_cell_angle_gamma 90.000000
_cell_volume 3718.260341
_symmetry_space_group_name_H-M "C M C A"
_symmetry_group_IT_number 64
_symmetry_cell_setting 'orthorhombic'
loop_
_space_group_symop_operation_xyz
x,y,z
-x,1/2-y,1/2+z
x,-y,-z
-x,1/2+y,1/2-z
-x,-y,-z
x,1/2+y,1/2-z
-x,y,z
x,1/2-y,1/2+z
1/2+x,1/2+y,z
1/2-x,-y,1/2+z
1/2+x,1/2-y,-z
1/2-x,y,1/2-z
1/2-x,1/2-y,-z
1/2+x,y,1/2-z
1/2-x,1/2+y,z
1/2+x,-y,1/2+z
loop_
_atom_site_type_symbol
_atom_site_label
_atom_site_fract_x
_atom_site_fract_y
_atom_site_fract_z
Si Si1 0.653071 0.076843 0.785568
Si Si2 0.500000 0.275534 0.079252
Si Si3 0.000000 0.721026 0.952640
Si Si4 0.796828 0.580458 0.322329
Si Si5 0.625782 0.526458 0.062311
Si Si6 0.000000 0.496087 0.156137
O O1 0.679953 0.248425 0.802138
O O2 0.572335 0.046545 0.808746
O O3 0.711579 0.957288 0.812797
O O4 0.660549 0.040132 0.718772
O O5 0.571550 0.384277 0.076592
O O6 0.500000 0.172170 0.135047
O O7 0.500000 0.181174 0.019498
O O8 0.000000 0.597427 0.902983
O O9 0.071258 0.828002 0.943039
O O10 0.818597 0.554363 0.387072
O O11 0.659371 0.500000 0.000000
#
# Coordination Sequence:
#
# PCOD9482062 Si02
#       6
#    16   8   8  16  16   8
#     4  11  26  40  69  88 133 163 207 259 327 360
#     4   9  21  32  64  91 132 165 210 249 323 365
#     4   9  17  40  56  92 128 172 195 268 312 366
#     4  11  23  46  62  92 128 169 205 261 315 382
#     4   9  19  39  66  88 125 174 210 252 314 378
#     4  12  23  38  62 103 119 163 212 268 295 382
#
# _framework density 19.363894999999999
#
# number of rings (size 3 to 8) (size 9 to 14) (size 15 to 20)
#    0.000    1.778    2.222    4.333    6.222    2.667 
#    0.000    3.333    0.000    0.000    0.000    0.000 
#    0.000    0.000    0.000    0.000    0.000    0.000 
#
# Total GULP energy -200986.605795 kJ/mol
# GULP energy per Si atom -5582.961272 kJ/mol
# Density = 1.931982 g / cm^3
# Si number density = 19.363895 Si / 1000 Ang^3
#
#
#
# Elastic Constant Matrix: (Units=GPa)
#
#
# Indices 1 2 3 4 5 6 
#
# 1 105.7953 37.2708 57.8721 0.0000 0.0000 0.0000
# 2 37.2708 86.6036 37.3545 0.0000 0.0000 0.0000
# 3 57.8721 37.3545 128.0739 0.0000 0.0000 0.0000
# 4 0.0000 0.0000 0.0000 29.7232 0.0000 0.0000
# 5 0.0000 0.0000 0.0000 0.0000 37.1189 0.0000
# 6 0.0000 0.0000 0.0000 0.0000 0.0000 -3.6528
#
#
#
# Elastic Compliance Matrix: (Units=1/GPa)
#
#
# Indices 1 2 3 4 5 6 
#
# 1 0.013486 -0.003632 -0.005034 0.000000 0.000000 0.000000
# 2 -0.003632 0.014187 -0.002496 0.000000 0.000000 0.000000
# 3 -0.005034 -0.002496 0.010811 0.000000 0.000000 0.000000
# 4 0.000000 0.000000 0.000000 0.033644 0.000000 0.000000
# 5 0.000000 0.000000 0.000000 0.000000 0.026940 0.000000
# 6 0.000000 0.000000 0.000000 0.000000 0.000000 -0.273761
#
#
# Mechanical properties :
#
#
# Convention : Reuss Voigt Hill
#
# Bulk Modulus (GPa) = 61.89133 65.05195 63.47164
# Shear Modulus (GPa) = -34.01804 25.16955 -4.42425
#
# Velocity S-wave (km/s) = -4.19594 3.60921 -1.51319
# Velocity P-wave (km/s) = 2.92525 7.14394 5.45862
#
# Compressibility (1/GPa) = 0.01615735
#
# Stress axis : x y z
#
# Youngs Moduli (GPa) = 74.15262 70.48776 92.49880
#
# Poissons Ratio (x) = 0.25603 0.46567
# Poissons Ratio (y) = 0.26934 0.23092
# Poissons Ratio (z) = 0.37331 0.17597
#
# Static dielectric constant tensor:
#      x y z
#    x 1.637400 0.000000 0.000000 
#    y 0.000000 1.700770 0.000000 
#    z 0.000000 0.000000 1.679940 
# 
# From -- ./inp_files/40738.got.cif
#   From: 2010.05.17/outbox.cif.g08.bks.cpg/sg64_21_cif.got.tgz:40738.got - 2010.06.03 16:29:19.
