data_PCOD9482748
_publ_section_title
;
Structure prediction by ZEFSAII (Michael W. Deem and Ramdas Pophale) SiO2 
 PCOD9482748
Probable space group: C M M M
;
_chemical_formula_sum "Si O2"
_cell_formula_units_Z 80
_cell_length_a 8.640298
_cell_length_b 15.100471
_cell_length_c 27.949214
_cell_angle_alpha 90.000000
_cell_angle_beta 90.000000
_cell_angle_gamma 90.000000
_cell_volume 3646.605763
_symmetry_space_group_name_H-M "C M M M"
_symmetry_group_IT_number 65
_symmetry_cell_setting 'orthorhombic'
loop_
_space_group_symop_operation_xyz
x,y,z
-x,-y,z
x,-y,-z
-x,y,-z
-x,-y,-z
x,y,-z
-x,y,z
x,-y,z
1/2+x,1/2+y,z
1/2-x,1/2-y,z
1/2+x,1/2-y,-z
1/2-x,1/2+y,-z
1/2-x,1/2-y,-z
1/2+x,1/2+y,-z
1/2-x,1/2+y,z
1/2+x,1/2-y,z
loop_
_atom_site_type_symbol
_atom_site_label
_atom_site_fract_x
_atom_site_fract_y
_atom_site_fract_z
Si Si1 0.814393 0.649186 0.052258
Si Si2 0.174779 0.894962 0.346323
Si Si3 0.688319 0.604750 0.551369
Si Si4 0.315950 0.648887 0.849921
Si Si5 0.182349 0.348629 0.752995
O O1 0.750000 0.750000 0.050918
O O2 0.745506 0.608171 0.100543
O O3 0.000000 0.651687 0.056432
O O4 0.775453 0.609814 0.000000
O O5 0.240549 0.859330 0.396921
O O6 0.274214 0.884905 0.298883
O O7 0.000000 0.859026 0.337848
O O8 0.159457 0.000000 0.353886
O O9 0.741056 0.642567 0.500000
O O10 0.500000 0.610127 0.552640
O O11 0.727606 0.500000 0.549819
O O12 0.500000 0.651951 0.850563
O O13 0.250000 0.750000 0.849724
O O14 0.258562 0.607810 0.799988
O O15 0.250000 0.250000 0.751500
O O16 0.000000 0.347962 0.760035
#
# Coordination Sequence:
#
# PCOD9482748 Si02
#       5
#    16  16  16  16  16
#     4   9  15  22  33  51  77 108 141 177 219 266
#     4   9  17  30  49  73  99 123 150 187 229 273
#     4   7  10  19  39  67  94 118 145 178 218 266
#     4  10  17  26  40  57  80 110 147 186 226 272
#     4  11  21  33  48  65  90 123 160 196 232 277
#
# _framework density 21.938207999999999
#
# number of rings (size 3 to 8) (size 9 to 14) (size 15 to 20)
#    0.000    2.800    0.000    8.400    0.000    1.600 
#    0.000    0.000    0.000    1.200    0.000    2.800 
#    0.000    0.800    0.000    8.400    0.000    7.000 
#
# Total GULP energy -222871.534198 kJ/mol
# GULP energy per Si atom -5571.788355 kJ/mol
# Density = 2.188828 g / cm^3
# Si number density = 21.938208 Si / 1000 Ang^3
#
#
#
# Elastic Constant Matrix: (Units=GPa)
#
#
# Indices 1 2 3 4 5 6 
#
# 1 120.4806 1.6859 77.5414 0.0000 0.0000 0.0000
# 2 1.6859 41.8665 17.7776 0.0000 0.0000 0.0000
# 3 77.5414 17.7776 270.7087 0.0000 0.0000 0.0000
# 4 0.0000 0.0000 0.0000 6.1493 0.0000 0.0000
# 5 0.0000 0.0000 0.0000 0.0000 -1.4503 0.0000
# 6 0.0000 0.0000 0.0000 0.0000 0.0000 3.1367
#
#
#
# Elastic Compliance Matrix: (Units=1/GPa)
#
#
# Indices 1 2 3 4 5 6 
#
# 1 0.010206 0.000854 -0.002979 0.000000 0.000000 0.000000
# 2 0.000854 0.024642 -0.001863 0.000000 0.000000 0.000000
# 3 -0.002979 -0.001863 0.004670 0.000000 0.000000 0.000000
# 4 0.000000 0.000000 0.000000 0.162620 0.000000 0.000000
# 5 0.000000 0.000000 0.000000 0.000000 -0.689512 0.000000
# 6 0.000000 0.000000 0.000000 0.000000 0.000000 0.318804
#
#
# Mechanical properties :
#
#
# Convention : Reuss Voigt Hill
#
# Bulk Modulus (GPa) = 31.70453 69.67393 50.68923
# Shear Modulus (GPa) = -33.31547 23.97054 -4.67246
#
# Velocity S-wave (km/s) = -3.90116 3.30909 -1.46098
# Velocity P-wave (km/s) = 2.41017 6.81383 4.50663
#
# Compressibility (1/GPa) = 0.03154123
#
# Stress axis : x y z
#
# Youngs Moduli (GPa) = 97.98467 40.58095 214.14382
#
# Poissons Ratio (x) = -0.03466 0.63802
# Poissons Ratio (y) = -0.08369 0.39893
# Poissons Ratio (z) = 0.29193 0.07560
#
# Static dielectric constant tensor:
#      x y z
#    x 1.752430 0.000000 0.000000 
#    y 0.000000 1.884690 0.000000 
#    z 0.000000 0.000000 1.942240 
# 
# From -- ./inp_files/76406.got.cif
#   From: 2010.05.17/outbox.cif.g08.bks.cpg/sg65_39_cif.got.tgz:76406.got - 2010.06.03 17:01:31.
