data_PCOD9482475
_publ_section_title
;
Structure prediction by ZEFSAII (Michael W. Deem and Ramdas Pophale) SiO2 
 PCOD9482475
Probable space group: C M C A
;
_chemical_formula_sum "Si O2"
_cell_formula_units_Z 48
_cell_length_a 9.000000
_cell_length_b 27.000000
_cell_length_c 21.000000
_cell_angle_alpha 90.000000
_cell_angle_beta 90.000000
_cell_angle_gamma 90.000000
_cell_volume 5103.000000
_symmetry_space_group_name_H-M "C M C A"
_symmetry_group_IT_number 64
_symmetry_cell_setting 'orthorhombic'
loop_
_space_group_symop_operation_xyz
x,y,z
-x,1/2-y,1/2+z
x,-y,-z
-x,1/2+y,1/2-z
-x,-y,-z
x,1/2+y,1/2-z
-x,y,z
x,1/2-y,1/2+z
1/2+x,1/2+y,z
1/2-x,-y,1/2+z
1/2+x,1/2-y,-z
1/2-x,y,1/2-z
1/2-x,1/2-y,-z
1/2+x,y,1/2-z
1/2-x,1/2+y,z
1/2+x,-y,1/2+z
loop_
_atom_site_type_symbol
_atom_site_label
_atom_site_fract_x
_atom_site_fract_y
_atom_site_fract_z
Si Si1 0.829398 0.368720 0.549314
Si Si2 0.679250 0.859769 0.088141
Si Si3 0.319340 0.820899 0.686255
Si Si4 0.171165 0.514815 0.432115
Si Si5 0.320769 0.787829 0.315102
Si Si6 0.819561 0.445050 0.321185
O O1 0.732060 0.361416 0.485547
O O2 0.788354 0.343467 0.616440
O O3 0.828787 0.426596 0.566071
O O4 0.000000 0.354079 0.533514
O O5 0.500000 0.861744 0.091826
O O6 0.746832 0.811958 0.123036
O O7 0.753621 0.902671 0.132008
O O8 0.500000 0.816586 0.693114
O O9 0.250000 0.846542 0.750000
O O10 0.235388 0.768419 0.684965
O O11 0.244882 0.500000 0.500000
O O12 0.222050 0.493291 0.364277
O O13 0.000000 0.495792 0.435834
O O14 0.250000 0.810721 0.250000
O O15 0.000000 0.707901 0.685876
O O16 0.750000 0.444694 0.250000
O O17 0.000000 0.440216 0.315226
#
# Coordination Sequence:
#
# PCOD9482475 Si02
#       6
#    16  16  16  16  16  16
#     4  10  21  39  62  88 116 157 200 239 291 349
#     4  12  24  38  58  87 120 153 194 243 297 351
#     4  10  21  38  61  87 119 153 195 242 291 347
#     4   9  17  35  62  84 111 154 197 235 284 344
#     4  11  22  39  62  85 116 155 196 240 293 350
#     4  11  22  38  60  87 120 155 197 243 291 349
#
# _framework density 9.4062319999999993
#
# number of rings (size 3 to 8) (size 9 to 14) (size 15 to 20)
#    0.000    1.500    1.667    5.500    0.000    2.667 
#    0.000    2.500    0.000    0.000    0.000    0.000 
#    0.000    0.000    0.000    0.000    0.000    0.000 
#
# Total GULP energy -267468.558706 kJ/mol
# GULP energy per Si atom -5572.261640 kJ/mol
# Density = 0.938482 g / cm^3
# Si number density = 9.406232 Si / 1000 Ang^3
#
#
#
# Elastic Constant Matrix: (Units=GPa)
#
#
# Indices 1 2 3 4 5 6 
#
# 1 137.1155 26.4488 81.1890 0.0000 0.0000 0.0000
# 2 26.4488 44.9901 54.5280 0.0000 0.0000 0.0000
# 3 81.1890 54.5280 210.1111 0.0000 0.0000 0.0000
# 4 0.0000 0.0000 0.0000 42.7849 0.0000 0.0000
# 5 0.0000 0.0000 0.0000 0.0000 39.6294 0.0000
# 6 0.0000 0.0000 0.0000 0.0000 0.0000 14.0638
#
#
#
# Elastic Compliance Matrix: (Units=1/GPa)
#
#
# Indices 1 2 3 4 5 6 
#
# 1 0.009542 -0.001664 -0.003255 0.000000 0.000000 0.000000
# 2 -0.001664 0.032717 -0.007848 0.000000 0.000000 0.000000
# 3 -0.003255 -0.007848 0.008054 0.000000 0.000000 0.000000
# 4 0.000000 0.000000 0.000000 0.023373 0.000000 0.000000
# 5 0.000000 0.000000 0.000000 0.000000 0.025234 0.000000
# 6 0.000000 0.000000 0.000000 0.000000 0.000000 0.071105
#
#
# Mechanical properties :
#
#
# Convention : Reuss Voigt Hill
#
# Bulk Modulus (GPa) = 40.35773 79.61646 59.98710
# Shear Modulus (GPa) = 24.53191 34.63234 29.58213
#
# Velocity S-wave (km/s) = 3.61505 4.29526 3.96975
# Velocity P-wave (km/s) = 6.23891 8.18608 7.27791
#
# Compressibility (1/GPa) = 0.02477840
#
# Stress axis : x y z
#
# Youngs Moduli (GPa) = 104.80518 30.56546 124.16542
#
# Poissons Ratio (x) = 0.05087 0.40417
# Poissons Ratio (y) = 0.17441 0.97440
# Poissons Ratio (z) = 0.34115 0.23986
#
# Static dielectric constant tensor:
#      x y z
#    x 1.651830 0.000000 0.000000 
#    y 0.000000 1.740290 0.000000 
#    z 0.000000 0.000000 1.704260 
# 
# From -- ./inp_files/37024.got.cif
#   From: 2010.05.17/outbox.ucp.g08.bks.cvg/sg64_19_cif.got.tgz:37024.got - 2010.06.11 16:36:46.
