data_PCOD9482858
_publ_section_title
;
Structure prediction by ZEFSAII (Michael W. Deem and Ramdas Pophale) SiO2 
 PCOD9482858
Probable space group: C M M M
;
_chemical_formula_sum "Si O2"
_cell_formula_units_Z 104
_cell_length_a 17.398693
_cell_length_b 14.923802
_cell_length_c 21.332484
_cell_angle_alpha 90.000000
_cell_angle_beta 90.000000
_cell_angle_gamma 90.000000
_cell_volume 5539.078654
_symmetry_space_group_name_H-M "C M M M"
_symmetry_group_IT_number 65
_symmetry_cell_setting 'orthorhombic'
loop_
_space_group_symop_operation_xyz
x,y,z
-x,-y,z
x,-y,-z
-x,y,-z
-x,-y,-z
x,y,-z
-x,y,z
x,-y,z
1/2+x,1/2+y,z
1/2-x,1/2-y,z
1/2+x,1/2-y,-z
1/2-x,1/2+y,-z
1/2-x,1/2-y,-z
1/2+x,1/2+y,-z
1/2-x,1/2+y,z
1/2+x,1/2-y,z
loop_
_atom_site_type_symbol
_atom_site_label
_atom_site_fract_x
_atom_site_fract_y
_atom_site_fract_z
Si Si1 0.000000 0.677431 0.933069
Si Si2 0.410037 0.795953 0.429337
Si Si3 0.218863 0.649625 0.665823
Si Si4 0.669581 0.895258 0.068205
Si Si5 0.849184 0.395597 0.796170
Si Si6 0.125012 0.097318 0.391480
Si Si7 0.500000 0.775826 0.201861
Si Si8 0.500000 0.598476 0.717063
O O1 0.923022 0.618223 0.930446
O O2 0.000000 0.739791 0.872845
O O3 0.000000 0.725368 0.000000
O O4 0.392912 0.827728 0.500000
O O5 0.500000 0.809905 0.415975
O O6 0.356531 0.841927 0.377559
O O7 0.394153 0.688707 0.427499
O O8 0.250000 0.750000 0.675532
O O9 0.201522 0.610391 0.733901
O O10 0.286267 0.600738 0.628349
O O11 0.691514 0.863973 0.138559
O O12 0.688930 0.000000 0.065923
O O13 0.695048 0.856198 0.000000
O O14 0.871432 0.500000 0.805446
O O15 0.924206 0.334679 0.784659
O O16 0.073483 0.103169 0.328697
O O17 0.107375 0.000000 0.420782
O O18 0.500000 0.683561 0.238587
O O19 0.500000 0.500000 0.747898
#
# Coordination Sequence:
#
# PCOD9482858 Si02
#       8
#     8  16  16  16  16  16   8   8
#     4   8  13  20  34  59  92 131 171 212 254 304
#     4  10  21  37  57  80 105 139 178 215 264 322
#     4  10  21  34  53  76 106 144 181 216 264 319
#     4   8  13  22  37  61  97 137 172 210 258 310
#     4  10  19  29  47  77 108 139 177 217 262 320
#     4  10  20  35  55  79 104 130 168 225 279 317
#     4  10  17  28  46  71 105 138 174 213 264 321
#     4  10  20  35  56  79 103 133 174 225 276 321
#
# _framework density 18.775686
#
# number of rings (size 3 to 8) (size 9 to 14) (size 15 to 20)
#    0.000    2.462    0.769    2.769    1.077    5.846 
#    0.000    0.769    0.000    2.077    0.000    5.385 
#    0.000    1.231    0.000    0.000    0.000    0.308 
#
# Total GULP energy -289584.698445 kJ/mol
# GULP energy per Si atom -5568.936509 kJ/mol
# Density = 1.873295 g / cm^3
# Si number density = 18.775686 Si / 1000 Ang^3
#
#
#
# Elastic Constant Matrix: (Units=GPa)
#
#
# Indices 1 2 3 4 5 6 
#
# 1 58.9468 5.9118 43.1964 0.0000 0.0000 0.0000
# 2 5.9118 62.0082 18.9053 0.0000 0.0000 0.0000
# 3 43.1964 18.9053 118.8293 0.0000 0.0000 0.0000
# 4 0.0000 0.0000 0.0000 17.9578 0.0000 0.0000
# 5 0.0000 0.0000 0.0000 0.0000 5.8596 0.0000
# 6 0.0000 0.0000 0.0000 0.0000 0.0000 15.3145
#
#
#
# Elastic Compliance Matrix: (Units=1/GPa)
#
#
# Indices 1 2 3 4 5 6 
#
# 1 0.023133 0.000377 -0.008469 0.000000 0.000000 0.000000
# 2 0.000377 0.016955 -0.002834 0.000000 0.000000 0.000000
# 3 -0.008469 -0.002834 0.011945 0.000000 0.000000 0.000000
# 4 0.000000 0.000000 0.000000 0.055686 0.000000 0.000000
# 5 0.000000 0.000000 0.000000 0.000000 0.170660 0.000000
# 6 0.000000 0.000000 0.000000 0.000000 0.000000 0.065298
#
#
# Mechanical properties :
#
#
# Convention : Reuss Voigt Hill
#
# Bulk Modulus (GPa) = 33.13531 41.75680 37.44606
# Shear Modulus (GPa) = 13.31238 19.27776 16.29507
#
# Velocity S-wave (km/s) = 2.66564 3.20776 2.94918
# Velocity P-wave (km/s) = 5.21157 6.00064 5.61997
#
# Compressibility (1/GPa) = 0.03017928
#
# Stress axis : x y z
#
# Youngs Moduli (GPa) = 43.22860 58.97912 83.71687
#
# Poissons Ratio (x) = -0.02221 0.70900
# Poissons Ratio (y) = -0.01628 0.23729
# Poissons Ratio (z) = 0.36611 0.16717
#
# Static dielectric constant tensor:
#      x y z
#    x 1.645690 0.000000 0.000000 
#    y 0.000000 1.660660 0.000000 
#    z 0.000000 0.000000 1.709620 
# 
# From -- ./inp_files/63844.got.cif
#   From: 2010.05.17/outbox.cif.g08.bks.cpg/sg65_32_cif.got.tgz:63844.got - 2010.06.03 17:01:31.
