data_PCOD9482008
_publ_section_title
;
Structure prediction by ZEFSAII (Michael W. Deem and Ramdas Pophale) SiO2 
 PCOD9482008
Probable space group: C M C A
;
_chemical_formula_sum "Si O2"
_cell_formula_units_Z 112
_cell_length_a 14.979213
_cell_length_b 13.929610
_cell_length_c 24.950852
_cell_angle_alpha 90.000000
_cell_angle_beta 90.000000
_cell_angle_gamma 90.000000
_cell_volume 5206.109924
_symmetry_space_group_name_H-M "C M C A"
_symmetry_group_IT_number 64
_symmetry_cell_setting 'orthorhombic'
loop_
_space_group_symop_operation_xyz
x,y,z
-x,1/2-y,1/2+z
x,-y,-z
-x,1/2+y,1/2-z
-x,-y,-z
x,1/2+y,1/2-z
-x,y,z
x,1/2-y,1/2+z
1/2+x,1/2+y,z
1/2-x,-y,1/2+z
1/2+x,1/2-y,-z
1/2-x,y,1/2-z
1/2-x,1/2-y,-z
1/2+x,y,1/2-z
1/2-x,1/2+y,z
1/2+x,-y,1/2+z
loop_
_atom_site_type_symbol
_atom_site_label
_atom_site_fract_x
_atom_site_fract_y
_atom_site_fract_z
Si Si1 0.906106 0.058253 0.801103
Si Si2 0.650405 0.635235 0.248408
Si Si3 0.239754 0.553200 0.875212
Si Si4 0.205836 0.792778 0.445867
Si Si5 0.000000 0.358109 0.052246
Si Si6 0.101945 0.676253 0.807182
Si Si7 0.500000 0.417411 0.571424
Si Si8 0.825400 0.159375 0.370349
O O1 0.904884 0.954011 0.772766
O O2 0.000000 0.072431 0.829381
O O3 0.828495 0.075055 0.842671
O O4 0.899025 0.128958 0.751251
O O5 0.750000 0.595240 0.250000
O O6 0.641837 0.719520 0.205126
O O7 0.639552 0.674090 0.309091
O O8 0.235097 0.597118 0.934545
O O9 0.160190 0.606854 0.843574
O O10 0.227686 0.440532 0.872040
O O11 0.250000 0.750000 0.500000
O O12 0.259308 0.736046 0.398240
O O13 0.095786 0.799023 0.441815
O O14 0.000000 0.465626 0.080789
O O15 0.000000 0.392815 0.990867
O O16 0.000000 0.684809 0.826923
O O17 0.413326 0.366126 0.595905
#
# Coordination Sequence:
#
# PCOD9482008 Si02
#       8
#    16  16  16  16   8  16   8  16
#     4  11  23  42  64  95 143 190 234 282 347 433
#     4  12  22  41  65  99 141 189 234 283 351 430
#     4  12  25  46  68  98 144 187 241 300 361 432
#     4  12  27  49  74 107 141 184 239 315 379 433
#     4  11  24  50  78 105 142 181 252 313 371 440
#     4  11  24  39  63  98 136 183 231 289 351 420
#     4  11  24  44  80 108 133 192 249 309 362 436
#     4  12  25  43  75 107 143 188 240 300 367 433
#
# _framework density 21.513183000000001
#
# number of rings (size 3 to 8) (size 9 to 14) (size 15 to 20)
#    0.000    0.429    5.714    3.429    4.000    0.571 
#    3.857    0.000    0.000    0.857    0.000    0.000 
#    0.000    0.000    0.000    0.000    0.000    0.000 
#
# Total GULP energy -312579.453253 kJ/mol
# GULP energy per Si atom -5581.775951 kJ/mol
# Density = 2.146422 g / cm^3
# Si number density = 21.513183 Si / 1000 Ang^3
#
#
#
# Elastic Constant Matrix: (Units=GPa)
#
#
# Indices 1 2 3 4 5 6 
#
# 1 158.6343 9.2593 33.4856 0.0000 0.0000 0.0000
# 2 9.2593 79.5720 10.2977 0.0000 0.0000 0.0000
# 3 33.4856 10.2977 70.9718 0.0000 0.0000 0.0000
# 4 0.0000 0.0000 0.0000 33.9768 0.0000 0.0000
# 5 0.0000 0.0000 0.0000 0.0000 29.4531 0.0000
# 6 0.0000 0.0000 0.0000 0.0000 0.0000 51.6632
#
#
#
# Elastic Compliance Matrix: (Units=1/GPa)
#
#
# Indices 1 2 3 4 5 6 
#
# 1 0.007013 -0.000395 -0.003252 0.000000 0.000000 0.000000
# 2 -0.000395 0.012830 -0.001675 0.000000 0.000000 0.000000
# 3 -0.003252 -0.001675 0.015867 0.000000 0.000000 0.000000
# 4 0.000000 0.000000 0.000000 0.029432 0.000000 0.000000
# 5 0.000000 0.000000 0.000000 0.000000 0.033952 0.000000
# 6 0.000000 0.000000 0.000000 0.000000 0.000000 0.019356
#
#
# Mechanical properties :
#
#
# Convention : Reuss Voigt Hill
#
# Bulk Modulus (GPa) = 39.89366 46.14036 43.01701
# Shear Modulus (GPa) = 36.37678 40.09431 38.23554
#
# Velocity S-wave (km/s) = 4.11652 4.32175 4.22039
# Velocity P-wave (km/s) = 6.41704 6.81157 6.61725
#
# Compressibility (1/GPa) = 0.02506664
#
# Stress axis : x y z
#
# Youngs Moduli (GPa) = 142.58717 77.94222 63.02267
#
# Poissons Ratio (x) = 0.03081 0.20493
# Poissons Ratio (y) = 0.05636 0.10557
# Poissons Ratio (z) = 0.46364 0.13056
#
# Static dielectric constant tensor:
#      x y z
#    x 1.797000 0.000000 0.000000 
#    y 0.000000 1.774230 0.000000 
#    z 0.000000 0.000000 1.843820 
# 
# From -- ./inp_files/50104.got.cif
#   From: 2010.05.17/outbox.cif.g08.bks.cpg/sg64_26_cif.got.tgz:50104.got - 2010.06.03 16:29:19.
