data_PCOD9482816
_publ_section_title
;
Structure prediction by ZEFSAII (Michael W. Deem and Ramdas Pophale) SiO2 
 PCOD9482816
Probable space group: C M M M
;
_chemical_formula_sum "Si O2"
_cell_formula_units_Z 72
_cell_length_a 25.954259
_cell_length_b 7.776283
_cell_length_c 21.483737
_cell_angle_alpha 90.000000
_cell_angle_beta 90.000000
_cell_angle_gamma 90.000000
_cell_volume 4336.012432
_symmetry_space_group_name_H-M "C M M M"
_symmetry_group_IT_number 65
_symmetry_cell_setting 'orthorhombic'
loop_
_space_group_symop_operation_xyz
x,y,z
-x,-y,z
x,-y,-z
-x,y,-z
-x,-y,-z
x,y,-z
-x,y,z
x,-y,z
1/2+x,1/2+y,z
1/2-x,1/2-y,z
1/2+x,1/2-y,-z
1/2-x,1/2+y,-z
1/2-x,1/2-y,-z
1/2+x,1/2+y,-z
1/2-x,1/2+y,z
1/2+x,1/2-y,z
loop_
_atom_site_type_symbol
_atom_site_label
_atom_site_fract_x
_atom_site_fract_y
_atom_site_fract_z
Si Si1 0.131702 0.693571 0.240095
Si Si2 0.060848 0.000000 0.197947
Si Si3 0.190603 0.300191 0.112914
Si Si4 0.689347 0.293510 0.636011
Si Si5 0.310603 0.293647 0.500000
Si Si6 0.382536 0.500000 0.068681
O O1 0.111627 0.500000 0.233386
O O2 0.088002 0.834214 0.228419
O O3 0.174258 0.718798 0.185552
O O4 0.158392 0.716502 0.306633
O O5 0.077160 0.000000 0.125204
O O6 0.000000 0.000000 0.205523
O O7 0.182937 0.500000 0.095469
O O8 0.250000 0.250000 0.104423
O O9 0.153924 0.167062 0.077344
O O10 0.684457 0.500000 0.638820
O O11 0.750000 0.250000 0.641376
O O12 0.670375 0.232308 0.567528
O O13 0.316006 0.500000 0.500000
O O14 0.250000 0.250000 0.500000
O O15 0.405643 0.500000 0.000000
#
# Coordination Sequence:
#
# PCOD9482816 Si02
#       6
#    16   8  16  16   8   8
#     4  10  20  33  53  78 102 131 174 215 262 311
#     4  10  22  41  60  77 100 126 165 224 271 307
#     4  10  19  32  49  74 108 142 170 204 242 293
#     4  10  17  27  44  72 109 148 178 209 247 298
#     4   8  16  26  38  62 104 147 182 207 237 287
#     4  10  22  37  54  78 105 135 171 202 245 309
#
# _framework density 16.605117
#
# number of rings (size 3 to 8) (size 9 to 14) (size 15 to 20)
#    0.000    2.222    2.222    1.333    0.000    4.222 
#    0.000    0.000    0.000    0.000    0.000    7.778 
#    0.000    1.778    0.000    0.000    0.000    0.000 
#
# Total GULP energy -200743.641759 kJ/mol
# GULP energy per Si atom -5576.212271 kJ/mol
# Density = 1.656732 g / cm^3
# Si number density = 16.605117 Si / 1000 Ang^3
#
#
#
# Elastic Constant Matrix: (Units=GPa)
#
#
# Indices 1 2 3 4 5 6 
#
# 1 63.9879 24.4409 19.7340 0.0000 0.0000 0.0000
# 2 24.4409 93.9362 25.0187 0.0000 0.0000 0.0000
# 3 19.7340 25.0187 115.6487 0.0000 0.0000 0.0000
# 4 0.0000 0.0000 0.0000 -2.7387 0.0000 0.0000
# 5 0.0000 0.0000 0.0000 0.0000 5.0497 0.0000
# 6 0.0000 0.0000 0.0000 0.0000 0.0000 8.2595
#
#
#
# Elastic Compliance Matrix: (Units=1/GPa)
#
#
# Indices 1 2 3 4 5 6 
#
# 1 0.017849 -0.004067 -0.002166 0.000000 0.000000 0.000000
# 2 -0.004067 0.012223 -0.001950 0.000000 0.000000 0.000000
# 3 -0.002166 -0.001950 0.009438 0.000000 0.000000 0.000000
# 4 0.000000 0.000000 0.000000 -0.365134 0.000000 0.000000
# 5 0.000000 0.000000 0.000000 0.000000 0.198030 0.000000
# 6 0.000000 0.000000 0.000000 0.000000 0.000000 0.121073
#
#
# Mechanical properties :
#
#
# Convention : Reuss Voigt Hill
#
# Bulk Modulus (GPa) = 43.20752 45.77333 44.49043
# Shear Modulus (GPa) = 284.70941 15.73938 150.22439
#
# Velocity S-wave (km/s) = 13.10843 3.08208 9.52182
# Velocity P-wave (km/s) = 15.97452 6.34754 12.15476
#
# Compressibility (1/GPa) = 0.02314412
#
# Stress axis : x y z
#
# Youngs Moduli (GPa) = 56.02401 81.81153 105.95058
#
# Poissons Ratio (x) = 0.33275 0.22948
# Poissons Ratio (y) = 0.22787 0.20663
# Poissons Ratio (z) = 0.12134 0.15955
#
# Static dielectric constant tensor:
#      x y z
#    x 1.491670 0.000000 0.000000 
#    y 0.000000 1.582180 0.000000 
#    z 0.000000 0.000000 1.595900 
# 
# From -- ./inp_files/64395.got.cif
#   From: 2010.05.17/outbox.cif.g08.bks.cpg/sg65_33_cif.got.tgz:64395.got - 2010.06.03 17:01:31.
