data_PCOD9482970
_publ_section_title
;
Structure prediction by ZEFSAII (Michael W. Deem and Ramdas Pophale) SiO2 
 PCOD9482970
Probable space group: C M M M
;
_chemical_formula_sum "Si O2"
_cell_formula_units_Z 80
_cell_length_a 14.356885
_cell_length_b 18.847380
_cell_length_c 18.236467
_cell_angle_alpha 90.000000
_cell_angle_beta 90.000000
_cell_angle_gamma 90.000000
_cell_volume 4934.599537
_symmetry_space_group_name_H-M "C M M M"
_symmetry_group_IT_number 65
_symmetry_cell_setting 'orthorhombic'
loop_
_space_group_symop_operation_xyz
x,y,z
-x,-y,z
x,-y,-z
-x,y,-z
-x,-y,-z
x,y,-z
-x,y,z
x,-y,z
1/2+x,1/2+y,z
1/2-x,1/2-y,z
1/2+x,1/2-y,-z
1/2-x,1/2+y,-z
1/2-x,1/2-y,-z
1/2+x,1/2+y,-z
1/2-x,1/2+y,z
1/2+x,1/2-y,z
loop_
_atom_site_type_symbol
_atom_site_label
_atom_site_fract_x
_atom_site_fract_y
_atom_site_fract_z
Si Si1 0.393889 0.585425 0.084365
Si Si2 0.890902 0.078114 0.643700
Si Si3 0.359071 0.732276 0.419083
Si Si4 0.894525 0.286112 0.261523
Si Si5 0.208979 0.860177 0.221361
O O1 0.500000 0.607064 0.105705
O O2 0.392286 0.500000 0.085942
O O3 0.318235 0.613566 0.141097
O O4 0.378470 0.607672 0.000000
O O5 0.872215 0.148076 0.595391
O O6 0.829722 0.086949 0.716695
O O7 0.000000 0.081492 0.664227
O O8 0.874305 0.000000 0.610139
O O9 0.394905 0.750018 0.500000
O O10 0.250000 0.750000 0.417892
O O11 0.397535 0.775299 0.349688
O O12 0.850666 0.211794 0.234175
O O13 0.817013 0.342979 0.236998
O O14 0.000000 0.297776 0.235429
#
# Coordination Sequence:
#
# PCOD9482970 Si02
#       5
#    16  16  16  16  16
#     4   9  17  29  49  77 102 125 155 190 237 300
#     4  10  19  30  48  75 101 126 160 204 257 310
#     4  10  18  32  50  70  98 132 167 202 252 308
#     4  10  19  31  48  71  95 127 173 209 238 289
#     4  10  17  31  48  70  98 133 158 200 249 290
#
# _framework density 16.212054999999999
#
# number of rings (size 3 to 8) (size 9 to 14) (size 15 to 20)
#    0.000    2.200    4.000    4.800    0.000    3.600 
#    0.000    3.000    0.000    4.200    0.000    1.400 
#    0.000    3.200    0.000    0.000    0.000    0.000 
#
# Total GULP energy -222753.663248 kJ/mol
# GULP energy per Si atom -5568.841581 kJ/mol
# Density = 1.617516 g / cm^3
# Si number density = 16.212055 Si / 1000 Ang^3
#
#
#
# Elastic Constant Matrix: (Units=GPa)
#
#
# Indices 1 2 3 4 5 6 
#
# 1 137.6729 37.1106 37.0160 0.0000 0.0000 0.0000
# 2 37.1106 46.3342 15.5561 0.0000 0.0000 0.0000
# 3 37.0160 15.5561 83.2839 0.0000 0.0000 0.0000
# 4 0.0000 0.0000 0.0000 8.3736 0.0000 0.0000
# 5 0.0000 0.0000 0.0000 0.0000 -11.2786 0.0000
# 6 0.0000 0.0000 0.0000 0.0000 0.0000 18.5085
#
#
#
# Elastic Compliance Matrix: (Units=1/GPa)
#
#
# Indices 1 2 3 4 5 6 
#
# 1 0.009978 -0.006938 -0.003139 0.000000 0.000000 0.000000
# 2 -0.006938 0.027850 -0.002119 0.000000 0.000000 0.000000
# 3 -0.003139 -0.002119 0.013798 0.000000 0.000000 0.000000
# 4 0.000000 0.000000 0.000000 0.119423 0.000000 0.000000
# 5 0.000000 0.000000 0.000000 0.000000 -0.088664 0.000000
# 6 0.000000 0.000000 0.000000 0.000000 0.000000 0.054029
#
#
# Mechanical properties :
#
#
# Convention : Reuss Voigt Hill
#
# Bulk Modulus (GPa) = 36.71627 49.62849 43.17238
# Shear Modulus (GPa) = 29.43220 14.96126 22.19673
#
# Velocity S-wave (km/s) = 4.26543 3.04114 3.70422
# Velocity P-wave (km/s) = 6.85239 6.55819 6.70690
#
# Compressibility (1/GPa) = 0.02723588
#
# Stress axis : x y z
#
# Youngs Moduli (GPa) = 100.22471 35.90645 72.47495
#
# Poissons Ratio (x) = 0.24910 0.22748
# Poissons Ratio (y) = 0.69532 0.15354
# Poissons Ratio (z) = 0.31458 0.07607
#
# Static dielectric constant tensor:
#      x y z
#    x 1.563640 0.000000 0.000000 
#    y 0.000000 1.559960 0.000000 
#    z 0.000000 0.000000 1.563120 
# 
# From -- ./inp_files/52858.got.cif
#   From: 2010.05.17/outbox.cif.g08.bks.cpg/sg65_27_cif.got.tgz:52858.got - 2010.06.03 17:01:31.
