data_PCOD9482047
_publ_section_title
;
Structure prediction by ZEFSAII (Michael W. Deem and Ramdas Pophale) SiO2 
 PCOD9482047
Probable space group: C M C A
;
_chemical_formula_sum "Si O2"
_cell_formula_units_Z 88
_cell_length_a 13.980316
_cell_length_b 21.584020
_cell_length_c 11.572037
_cell_angle_alpha 90.000000
_cell_angle_beta 90.000000
_cell_angle_gamma 90.000000
_cell_volume 3491.878599
_symmetry_space_group_name_H-M "C M C A"
_symmetry_group_IT_number 64
_symmetry_cell_setting 'orthorhombic'
loop_
_space_group_symop_operation_xyz
x,y,z
-x,1/2-y,1/2+z
x,-y,-z
-x,1/2+y,1/2-z
-x,-y,-z
x,1/2+y,1/2-z
-x,y,z
x,1/2-y,1/2+z
1/2+x,1/2+y,z
1/2-x,-y,1/2+z
1/2+x,1/2-y,-z
1/2-x,y,1/2-z
1/2-x,1/2-y,-z
1/2+x,y,1/2-z
1/2-x,1/2+y,z
1/2+x,-y,1/2+z
loop_
_atom_site_type_symbol
_atom_site_label
_atom_site_fract_x
_atom_site_fract_y
_atom_site_fract_z
Si Si1 0.000000 0.121821 0.386714
Si Si2 0.500000 0.057761 0.778272
Si Si3 0.500000 0.303834 0.328353
Si Si4 0.847077 0.860868 0.985003
Si Si5 0.668205 0.934417 0.040835
Si Si6 0.000000 0.734218 0.591527
Si Si7 0.700642 0.249607 0.871985
Si Si8 0.500000 0.938456 0.634037
O O1 0.000000 0.102841 0.252527
O O2 0.094052 0.091492 0.445142
O O3 0.000000 0.192325 0.434602
O O4 0.500000 0.009176 0.675677
O O5 0.597549 0.050384 0.852466
O O6 0.500000 0.254724 0.226862
O O7 0.396077 0.290284 0.380557
O O8 0.500000 0.368842 0.262087
O O9 0.819984 0.823207 0.868805
O O10 0.910305 0.917861 0.942744
O O11 0.750000 0.750000 0.000000
O O12 0.912107 0.809708 0.052009
O O13 0.755519 0.886306 0.054277
O O14 0.709005 0.000000 0.000000
O O15 0.750000 0.232589 0.750000
#
# Coordination Sequence:
#
# PCOD9482047 Si02
#       8
#     8   8   8  16  16   8  16   8
#     4  11  23  44  75 102 150 195 258 325 395 485
#     4  11  24  47  73 103 145 210 257 325 394 484
#     4  12  27  48  74 110 160 211 260 336 415 485
#     4  11  27  44  74 115 152 206 265 332 410 487
#     4  11  24  45  73 105 144 195 266 323 390 474
#     4  11  26  48  74 114 161 210 259 333 422 484
#     4  12  28  47  75 118 159 205 268 333 411 495
#     4  11  24  48  72 109 151 199 269 329 403 490
#
# _framework density 25.201333999999999
#
# number of rings (size 3 to 8) (size 9 to 14) (size 15 to 20)
#    0.000    0.727    1.818    4.909   12.727    2.182 
#    0.000    3.636    0.000    0.000    0.000    0.000 
#    0.000    0.000    0.000    0.000    0.000    0.000 
#
# Total GULP energy -245565.235433 kJ/mol
# GULP energy per Si atom -5581.028078 kJ/mol
# Density = 2.514397 g / cm^3
# Si number density = 25.201334 Si / 1000 Ang^3
#
#
#
# Elastic Constant Matrix: (Units=GPa)
#
#
# Indices 1 2 3 4 5 6 
#
# 1 171.5967 78.5857 71.2852 0.0000 0.0000 0.0000
# 2 78.5857 163.4595 33.7671 0.0000 0.0000 0.0000
# 3 71.2852 33.7671 112.7093 0.0000 0.0000 0.0000
# 4 0.0000 0.0000 0.0000 42.1412 0.0000 0.0000
# 5 0.0000 0.0000 0.0000 0.0000 36.8309 0.0000
# 6 0.0000 0.0000 0.0000 0.0000 0.0000 -8.4788
#
#
#
# Elastic Compliance Matrix: (Units=1/GPa)
#
#
# Indices 1 2 3 4 5 6 
#
# 1 0.009510 -0.003549 -0.004951 0.000000 0.000000 0.000000
# 2 -0.003549 0.007846 -0.000106 0.000000 0.000000 0.000000
# 3 -0.004951 -0.000106 0.012036 0.000000 0.000000 0.000000
# 4 0.000000 0.000000 0.000000 0.023730 0.000000 0.000000
# 5 0.000000 0.000000 0.000000 0.000000 0.027151 0.000000
# 6 0.000000 0.000000 0.000000 0.000000 0.000000 -0.117941
#
#
# Mechanical properties :
#
#
# Convention : Reuss Voigt Hill
#
# Bulk Modulus (GPa) = 82.11087 90.56017 86.33552
# Shear Modulus (GPa) = -304.94722 31.70715 -136.62003
#
# Velocity S-wave (km/s) = -11.01213 3.55089 -7.37083
# Velocity P-wave (km/s) = 11.35944 7.26805 6.17302
#
# Compressibility (1/GPa) = 0.01217866
#
# Stress axis : x y z
#
# Youngs Moduli (GPa) = 105.15254 127.45468 83.08590
#
# Poissons Ratio (x) = 0.45236 0.41140
# Poissons Ratio (y) = 0.37321 0.00879
# Poissons Ratio (z) = 0.52066 0.01349
#
# Static dielectric constant tensor:
#      x y z
#    x 1.529880 0.000000 0.000000 
#    y 0.000000 2.071410 0.000000 
#    z 0.000000 0.000000 2.174610 
# 
# From -- ./inp_files/14654.got.cif
#   From: 2010.05.17/outbox.cif.g08.bks.cpg/sg64_8_cif.got.tgz:14654.got - 2010.06.03 16:29:19.
