data_PCOD9482438
_publ_section_title
;
Structure prediction by ZEFSAII (Michael W. Deem and Ramdas Pophale) SiO2 
 PCOD9482438
Probable space group: C M C A
;
_chemical_formula_sum "Si O2"
_cell_formula_units_Z 40
_cell_length_a 9.000000
_cell_length_b 27.000000
_cell_length_c 18.000000
_cell_angle_alpha 90.000000
_cell_angle_beta 90.000000
_cell_angle_gamma 90.000000
_cell_volume 4374.000000
_symmetry_space_group_name_H-M "C M C A"
_symmetry_group_IT_number 64
_symmetry_cell_setting 'orthorhombic'
loop_
_space_group_symop_operation_xyz
x,y,z
-x,1/2-y,1/2+z
x,-y,-z
-x,1/2+y,1/2-z
-x,-y,-z
x,1/2+y,1/2-z
-x,y,z
x,1/2-y,1/2+z
1/2+x,1/2+y,z
1/2-x,-y,1/2+z
1/2+x,1/2-y,-z
1/2-x,y,1/2-z
1/2-x,1/2-y,-z
1/2+x,y,1/2-z
1/2-x,1/2+y,z
1/2+x,-y,1/2+z
loop_
_atom_site_type_symbol
_atom_site_label
_atom_site_fract_x
_atom_site_fract_y
_atom_site_fract_z
Si Si1 0.322470 0.931941 0.670097
Si Si2 0.820754 0.734566 0.830340
Si Si3 0.678749 0.832654 0.576901
Si Si4 0.323752 0.478032 0.416823
Si Si5 0.820803 0.637794 0.921692
O O1 0.500000 0.934638 0.674785
O O2 0.250000 0.926852 0.750000
O O3 0.284587 0.881956 0.624446
O O4 0.261731 0.982513 0.633756
O O5 0.750000 0.742249 0.750000
O O6 0.777166 0.780873 0.883610
O O7 0.778895 0.679953 0.861494
O O8 0.000000 0.735901 0.825002
O O9 0.500000 0.831338 0.567639
O O10 0.756047 0.841418 0.498382
O O11 0.305914 0.500000 0.500000
O O12 0.500000 0.479383 0.399194
O O13 0.274512 0.420131 0.410875
O O14 0.000000 0.636786 0.925846
#
# Coordination Sequence:
#
# PCOD9482438 Si02
#       5
#    16  16  16  16  16
#     4  11  23  37  57  85 116 150 190 235 285 338
#     4  10  22  39  57  82 115 149 188 233 283 337
#     4  10  21  37  58  85 114 146 188 235 282 337
#     4  10  20  37  59  83 114 151 189 231 281 337
#     4  10  21  37  60  86 113 148 190 233 281 339
#
# _framework density 9.1449470000000002
#
# number of rings (size 3 to 8) (size 9 to 14) (size 15 to 20)
#    0.000    1.800    2.000    1.800    0.000    4.400 
#    0.000    2.000    0.000    0.000    0.000    0.000 
#    0.000    0.000    0.000    0.000    0.000    0.000 
#
# Total GULP energy -223227.809631 kJ/mol
# GULP energy per Si atom -5580.695241 kJ/mol
# Density = 0.912413 g / cm^3
# Si number density = 9.144947 Si / 1000 Ang^3
#
#
#
# Elastic Constant Matrix: (Units=GPa)
#
#
# Indices 1 2 3 4 5 6 
#
# 1 4.2806 17.0762 17.1465 0.0000 0.0000 0.0000
# 2 17.0762 148.4770 19.6419 0.0000 0.0000 0.0000
# 3 17.1465 19.6419 55.8420 0.0000 0.0000 0.0000
# 4 0.0000 0.0000 0.0000 25.3701 0.0000 0.0000
# 5 0.0000 0.0000 0.0000 0.0000 30.5137 0.0000
# 6 0.0000 0.0000 0.0000 0.0000 0.0000 23.5813
#
#
#
# Elastic Compliance Matrix: (Units=1/GPa)
#
#
# Indices 1 2 3 4 5 6 
#
# 1 -0.541706 0.042264 0.151468 0.000000 0.000000 0.000000
# 2 0.042264 0.003766 -0.014302 0.000000 0.000000 0.000000
# 3 0.151468 -0.014302 -0.023571 0.000000 0.000000 0.000000
# 4 0.000000 0.000000 0.000000 0.039416 0.000000 0.000000
# 5 0.000000 0.000000 0.000000 0.000000 0.032772 0.000000
# 6 0.000000 0.000000 0.000000 0.000000 0.000000 0.042406
#
#
# Mechanical properties :
#
#
# Convention : Reuss Voigt Hill
#
# Bulk Modulus (GPa) = -4.93456 35.14765 15.10654
# Shear Modulus (GPa) = -5.72525 26.20868 10.24172
#
# Velocity S-wave (km/s) = -1.77118 3.78955 2.36893
# Velocity P-wave (km/s) = 2.62423 6.19728 3.96987
#
# Compressibility (1/GPa) = -0.20265211
#
# Stress axis : x y z
#
# Youngs Moduli (GPa) = -1.84602 265.50755 -42.42564
#
# Poissons Ratio (x) = -11.22128 6.42612
# Poissons Ratio (y) = 0.07802 -0.60677
# Poissons Ratio (z) = 0.27961 3.79729
#
# Static dielectric constant tensor:
#      x y z
#    x 1.608770 0.000000 0.000000 
#    y 0.000000 1.648400 0.000000 
#    z 0.000000 0.000000 1.621540 
# 
# From -- ./inp_files/29753.got.cif
#   From: 2010.05.17/outbox.ucp.g08.bks.cvg/sg64_15_cif.got.tgz:29753.got - 2010.06.11 16:36:46.
