data_PCOD9482976
_publ_section_title
;
Structure prediction by ZEFSAII (Michael W. Deem and Ramdas Pophale) SiO2 
 PCOD9482976
Probable space group: C M M M
;
_chemical_formula_sum "Si O2"
_cell_formula_units_Z 88
_cell_length_a 8.030416
_cell_length_b 30.155315
_cell_length_c 19.924779
_cell_angle_alpha 90.000000
_cell_angle_beta 90.000000
_cell_angle_gamma 90.000000
_cell_volume 4824.978985
_symmetry_space_group_name_H-M "C M M M"
_symmetry_group_IT_number 65
_symmetry_cell_setting 'orthorhombic'
loop_
_space_group_symop_operation_xyz
x,y,z
-x,-y,z
x,-y,-z
-x,y,-z
-x,-y,-z
x,y,-z
-x,y,z
x,-y,z
1/2+x,1/2+y,z
1/2-x,1/2-y,z
1/2+x,1/2-y,-z
1/2-x,1/2+y,-z
1/2-x,1/2-y,-z
1/2+x,1/2+y,-z
1/2-x,1/2+y,z
1/2+x,1/2-y,z
loop_
_atom_site_type_symbol
_atom_site_label
_atom_site_fract_x
_atom_site_fract_y
_atom_site_fract_z
Si Si1 0.311216 0.206123 0.870224
Si Si2 0.320192 0.331720 0.000000
Si Si3 0.806309 0.630161 0.238782
Si Si4 0.702310 0.802110 0.648533
Si Si5 0.203430 0.550866 0.850874
Si Si6 0.189684 0.424976 0.000000
Si Si7 0.699711 0.198708 0.500000
O O1 0.500000 0.212394 0.892227
O O2 0.250000 0.250000 0.832889
O O3 0.304802 0.163664 0.823791
O O4 0.200853 0.197754 0.934810
O O5 0.500000 0.353916 0.000000
O O6 0.189906 0.371607 0.000000
O O7 0.735265 0.660895 0.298590
O O8 0.734689 0.585085 0.206271
O O9 0.000000 0.620809 0.257161
O O10 0.500000 0.802269 0.652003
O O11 0.750000 0.750000 0.659570
O O12 0.757111 0.816836 0.573420
O O13 0.241572 0.500000 0.835037
O O14 0.000000 0.556082 0.852644
O O15 0.262225 0.561044 0.927460
O O16 0.000000 0.442345 0.000000
O O17 0.500000 0.194439 0.500000
O O18 0.750000 0.250000 0.500000
#
# Coordination Sequence:
#
# PCOD9482976 Si02
#       7
#    16   8  16  16  16   8   8
#     4  11  21  34  48  64  87 116 149 186 223 261
#     4  12  23  34  47  64  85 117 152 181 219 268
#     4   9  17  28  44  66  91 115 143 183 223 263
#     4   9  16  27  43  65  93 122 151 179 213 253
#     4   9  16  27  47  72  89 106 140 187 233 271
#     4  10  17  31  51  69  86 107 141 189 236 269
#     4   8  14  24  40  62  89 121 151 179 208 248
#
# _framework density 18.238420999999999
#
# number of rings (size 3 to 8) (size 9 to 14) (size 15 to 20)
#    0.000    2.364    1.818    2.455    0.000    1.091 
#    0.000    0.909    0.000    1.091    0.000    0.636 
#    0.000    5.091    0.000    0.000    0.000   31.818 
#
# Total GULP energy -244959.543777 kJ/mol
# GULP energy per Si atom -5567.262359 kJ/mol
# Density = 1.819691 g / cm^3
# Si number density = 18.238421 Si / 1000 Ang^3
#
#
#
# Elastic Constant Matrix: (Units=GPa)
#
#
# Indices 1 2 3 4 5 6 
#
# 1 24.5486 5.3273 10.7532 0.0000 0.0000 0.0000
# 2 5.3273 124.5923 55.5634 0.0000 0.0000 0.0000
# 3 10.7532 55.5634 133.8415 0.0000 0.0000 0.0000
# 4 0.0000 0.0000 0.0000 12.8968 0.0000 0.0000
# 5 0.0000 0.0000 0.0000 0.0000 7.4429 0.0000
# 6 0.0000 0.0000 0.0000 0.0000 0.0000 9.8918
#
#
#
# Elastic Compliance Matrix: (Units=1/GPa)
#
#
# Indices 1 2 3 4 5 6 
#
# 1 0.042235 -0.000359 -0.003244 0.000000 0.000000 0.000000
# 2 -0.000359 0.009853 -0.004061 0.000000 0.000000 0.000000
# 3 -0.003244 -0.004061 0.009418 0.000000 0.000000 0.000000
# 4 0.000000 0.000000 0.000000 0.077538 0.000000 0.000000
# 5 0.000000 0.000000 0.000000 0.000000 0.134356 0.000000
# 6 0.000000 0.000000 0.000000 0.000000 0.000000 0.101094
#
#
# Mechanical properties :
#
#
# Convention : Reuss Voigt Hill
#
# Bulk Modulus (GPa) = 21.65621 47.36337 34.50979
# Shear Modulus (GPa) = 12.33912 20.13553 16.23733
#
# Velocity S-wave (km/s) = 2.60387 3.32628 2.98700
# Velocity P-wave (km/s) = 4.57601 6.38573 5.55506
#
# Compressibility (1/GPa) = 0.04617613
#
# Stress axis : x y z
#
# Youngs Moduli (GPa) = 23.67729 101.49411 106.17670
#
# Poissons Ratio (x) = 0.03645 0.34446
# Poissons Ratio (y) = 0.00850 0.43123
# Poissons Ratio (z) = 0.07681 0.41221
#
# Static dielectric constant tensor:
#      x y z
#    x 1.700250 0.000000 0.000000 
#    y 0.000000 1.622240 0.000000 
#    z 0.000000 0.000000 1.669440 
# 
# From -- ./inp_files/60742.got.cif
#   From: 2010.05.17/outbox.cif.g08.bks.cpg/sg65_31_cif.got.tgz:60742.got - 2010.06.03 17:01:31.
