data_PCOD9482486
_publ_section_title
;
Structure prediction by ZEFSAII (Michael W. Deem and Ramdas Pophale) SiO2 
 PCOD9482486
Probable space group: C M C A
;
_chemical_formula_sum "Si O2"
_cell_formula_units_Z 52
_cell_length_a 9.000000
_cell_length_b 21.000000
_cell_length_c 27.000000
_cell_angle_alpha 90.000000
_cell_angle_beta 90.000000
_cell_angle_gamma 90.000000
_cell_volume 5103.000000
_symmetry_space_group_name_H-M "C M C A"
_symmetry_group_IT_number 64
_symmetry_cell_setting 'orthorhombic'
loop_
_space_group_symop_operation_xyz
x,y,z
-x,1/2-y,1/2+z
x,-y,-z
-x,1/2+y,1/2-z
-x,-y,-z
x,1/2+y,1/2-z
-x,y,z
x,1/2-y,1/2+z
1/2+x,1/2+y,z
1/2-x,-y,1/2+z
1/2+x,1/2-y,-z
1/2-x,y,1/2-z
1/2-x,1/2-y,-z
1/2+x,y,1/2-z
1/2-x,1/2+y,z
1/2+x,-y,1/2+z
loop_
_atom_site_type_symbol
_atom_site_label
_atom_site_fract_x
_atom_site_fract_y
_atom_site_fract_z
Si Si1 0.322592 0.573555 0.985149
Si Si2 0.169816 0.337426 0.832154
Si Si3 0.000000 0.254965 0.520007
Si Si4 0.821509 0.404554 0.369781
Si Si5 0.678926 0.795717 0.197324
Si Si6 0.282463 0.185665 0.054143
Si Si7 0.821513 0.471280 0.697212
O O1 0.500000 0.587248 0.990633
O O2 0.283426 0.587222 0.927957
O O3 0.298579 0.500000 0.000000
O O4 0.239315 0.621537 0.021581
O O5 0.257218 0.275060 0.813227
O O6 0.163140 0.331492 0.891563
O O7 0.250952 0.403548 0.818538
O O8 0.000000 0.337442 0.812476
O O9 0.127416 0.278889 0.558168
O O10 0.120878 0.232719 0.478386
O O11 0.736805 0.346158 0.343812
O O12 0.790748 0.471275 0.341462
O O13 0.000000 0.393085 0.366740
O O14 0.500000 0.795639 0.199476
O O15 0.750000 0.816204 0.250000
O O16 0.750000 0.488697 0.750000
O O17 0.000000 0.465066 0.701060
#
# Coordination Sequence:
#
# PCOD9482486 Si02
#       7
#    16  16   8  16  16  16  16
#     4  10  21  39  64  94 130 169 213 260 310 373
#     4  12  26  43  67  95 132 173 217 272 328 384
#     4  10  24  38  62  92 132 170 218 254 316 370
#     4  10  23  42  70  98 132 173 216 263 324 385
#     4  12  27  45  68  98 131 166 214 273 330 390
#     4  11  23  40  64  93 131 172 214 264 311 383
#     4  11  24  44  70  96 128 170 217 267 325 394
#
# _framework density 10.190084000000001
#
# number of rings (size 3 to 8) (size 9 to 14) (size 15 to 20)
#    0.000    1.077    1.538    4.154    6.462    3.692 
#    0.000    0.385    0.000    0.000    0.000    0.000 
#    0.000    0.000    0.000    0.000    0.000    0.000 
#
# Total GULP energy -289689.775254 kJ/mol
# GULP energy per Si atom -5570.957216 kJ/mol
# Density = 1.016689 g / cm^3
# Si number density = 10.190084 Si / 1000 Ang^3
#
#
#
# Elastic Constant Matrix: (Units=GPa)
#
#
# Indices 1 2 3 4 5 6 
#
# 1 134.4168 54.7386 18.4321 0.0000 0.0000 0.0000
# 2 54.7386 44.1465 19.3636 0.0000 0.0000 0.0000
# 3 18.4321 19.3636 104.8128 0.0000 0.0000 0.0000
# 4 0.0000 0.0000 0.0000 43.5693 0.0000 0.0000
# 5 0.0000 0.0000 0.0000 0.0000 29.3640 0.0000
# 6 0.0000 0.0000 0.0000 0.0000 0.0000 38.9316
#
#
#
# Elastic Compliance Matrix: (Units=1/GPa)
#
#
# Indices 1 2 3 4 5 6 
#
# 1 0.015101 -0.019107 0.000874 0.000000 0.000000 0.000000
# 2 -0.019107 0.048826 -0.005660 0.000000 0.000000 0.000000
# 3 0.000874 -0.005660 0.010433 0.000000 0.000000 0.000000
# 4 0.000000 0.000000 0.000000 0.022952 0.000000 0.000000
# 5 0.000000 0.000000 0.000000 0.000000 0.034055 0.000000
# 6 0.000000 0.000000 0.000000 0.000000 0.000000 0.025686
#
#
# Mechanical properties :
#
#
# Convention : Reuss Voigt Hill
#
# Bulk Modulus (GPa) = 37.63157 52.04941 44.84049
# Shear Modulus (GPa) = 23.39754 35.09576 29.24665
#
# Velocity S-wave (km/s) = 3.39197 4.15427 3.79232
# Velocity P-wave (km/s) = 5.81769 6.97175 6.42070
#
# Compressibility (1/GPa) = 0.02657343
#
# Stress axis : x y z
#
# Youngs Moduli (GPa) = 66.22177 20.48070 95.85202
#
# Poissons Ratio (x) = 0.39133 -0.08381
# Poissons Ratio (y) = 1.26533 0.54255
# Poissons Ratio (z) = -0.05791 0.11593
#
# Static dielectric constant tensor:
#      x y z
#    x 1.752990 0.000000 0.000000 
#    y 0.000000 1.714980 0.000000 
#    z 0.000000 0.000000 1.707770 
# 
# From -- ./inp_files/48246.got.cif
#   From: 2010.05.17/outbox.ucp.g08.bks.cvg/sg64_25_cif.got.tgz:48246.got - 2010.06.11 16:36:46.
