data_PCOD9482888
_publ_section_title
;
Structure prediction by ZEFSAII (Michael W. Deem and Ramdas Pophale) SiO2 
 PCOD9482888
Probable space group: C M M M
;
_chemical_formula_sum "Si O2"
_cell_formula_units_Z 96
_cell_length_a 7.969894
_cell_length_b 26.405247
_cell_length_c 24.508571
_cell_angle_alpha 90.000000
_cell_angle_beta 90.000000
_cell_angle_gamma 90.000000
_cell_volume 5157.755722
_symmetry_space_group_name_H-M "C M M M"
_symmetry_group_IT_number 65
_symmetry_cell_setting 'orthorhombic'
loop_
_space_group_symop_operation_xyz
x,y,z
-x,-y,z
x,-y,-z
-x,y,-z
-x,-y,-z
x,y,-z
-x,y,z
x,-y,z
1/2+x,1/2+y,z
1/2-x,1/2-y,z
1/2+x,1/2-y,-z
1/2-x,1/2+y,-z
1/2-x,1/2-y,-z
1/2+x,1/2+y,-z
1/2-x,1/2+y,z
1/2+x,1/2-y,z
loop_
_atom_site_type_symbol
_atom_site_label
_atom_site_fract_x
_atom_site_fract_y
_atom_site_fract_z
Si Si1 0.700384 0.693076 0.368697
Si Si2 0.201029 0.403167 0.561831
Si Si3 0.701466 0.902544 0.825125
Si Si4 0.199751 0.806734 0.755313
Si Si5 0.294497 0.000000 0.243615
Si Si6 0.205724 0.500000 0.369311
Si Si7 0.295562 0.059340 0.939545
O O1 0.500000 0.690387 0.367377
O O2 0.750000 0.750000 0.385078
O O3 0.763106 0.649782 0.408831
O O4 0.765854 0.684691 0.306630
O O5 0.267287 0.404787 0.500000
O O6 0.262609 0.449891 0.598649
O O7 0.000000 0.408812 0.558758
O O8 0.500000 0.906900 0.827301
O O9 0.742253 0.850013 0.796223
O O10 0.764005 0.909574 0.887097
O O11 0.761472 0.949709 0.788267
O O12 0.250000 0.750000 0.771816
O O13 0.000000 0.808797 0.752572
O O14 0.240075 0.000000 0.306428
O O15 0.500000 0.000000 0.243441
O O16 0.000000 0.500000 0.368839
O O17 0.500000 0.061471 0.940315
O O18 0.252605 0.000000 0.931805
O O19 0.237529 0.075155 0.000000
#
# Coordination Sequence:
#
# PCOD9482888 Si02
#       7
#    16  16  16  16   8   8  16
#     4  10  21  37  56  76  99 127 162 205 256 307
#     4  10  20  34  53  76 101 132 169 206 245 291
#     4  10  17  28  49  77 106 135 170 208 246 294
#     4  10  21  36  53  74  99 130 166 207 255 304
#     4   9  16  25  44  76 105 131 164 201 244 292
#     4   9  17  30  48  71 102 135 166 201 240 288
#     4   8  13  23  42  71 107 141 172 207 244 286
#
# _framework density 18.612746000000001
#
# number of rings (size 3 to 8) (size 9 to 14) (size 15 to 20)
#    0.000    2.500    0.833    2.750    0.000    5.000 
#    0.000    0.833    0.000    5.000    0.000    1.167 
#    0.000    0.000    0.000    0.000    0.000    0.000 
#
# Total GULP energy -267827.657274 kJ/mol
# GULP energy per Si atom -5579.742860 kJ/mol
# Density = 1.857038 g / cm^3
# Si number density = 18.612746 Si / 1000 Ang^3
#
#
#
# Elastic Constant Matrix: (Units=GPa)
#
#
# Indices 1 2 3 4 5 6 
#
# 1 13.5761 0.7264 12.3988 0.0000 0.0000 0.0000
# 2 0.7264 127.4607 110.7884 0.0000 0.0000 0.0000
# 3 12.3988 110.7884 182.3892 0.0000 0.0000 0.0000
# 4 0.0000 0.0000 0.0000 2.6758 0.0000 0.0000
# 5 0.0000 0.0000 0.0000 0.0000 10.5385 0.0000
# 6 0.0000 0.0000 0.0000 0.0000 0.0000 19.8138
#
#
#
# Elastic Compliance Matrix: (Units=1/GPa)
#
#
# Indices 1 2 3 4 5 6 
#
# 1 0.083587 0.009454 -0.011425 0.000000 0.000000 0.000000
# 2 0.009454 0.017690 -0.011388 0.000000 0.000000 0.000000
# 3 -0.011425 -0.011388 0.013177 0.000000 0.000000 0.000000
# 4 0.000000 0.000000 0.000000 0.373713 0.000000 0.000000
# 5 0.000000 0.000000 0.000000 0.000000 0.094890 0.000000
# 6 0.000000 0.000000 0.000000 0.000000 0.000000 0.050470
#
#
# Mechanical properties :
#
#
# Convention : Reuss Voigt Hill
#
# Bulk Modulus (GPa) = 11.39778 63.47258 37.43518
# Shear Modulus (GPa) = 7.25172 19.90646 13.57909
#
# Velocity S-wave (km/s) = 1.97600 3.27388 2.70396
# Velocity P-wave (km/s) = 3.36794 6.96181 5.46854
#
# Compressibility (1/GPa) = 0.08773639
#
# Stress axis : x y z
#
# Youngs Moduli (GPa) = 11.96355 56.52793 75.88955
#
# Poissons Ratio (x) = -0.53443 0.86704
# Poissons Ratio (y) = -0.11311 0.86426
# Poissons Ratio (z) = 0.13668 0.64376
#
# Static dielectric constant tensor:
#      x y z
#    x 1.675120 0.000000 0.000000 
#    y 0.000000 1.605510 0.000000 
#    z 0.000000 0.000000 1.662880 
# 
# From -- ./inp_files/67918.got.cif
#   From: 2010.05.17/outbox.cif.g08.bks.cpg/sg65_34_cif.got.tgz:67918.got - 2010.06.03 17:01:31.
