data_PCOD9482416
_publ_section_title
;
Structure prediction by ZEFSAII (Michael W. Deem and Ramdas Pophale) SiO2 
 PCOD9482416
Probable space group: C M C A
;
_chemical_formula_sum "Si O2"
_cell_formula_units_Z 48
_cell_length_a 9.000000
_cell_length_b 21.000000
_cell_length_c 27.000000
_cell_angle_alpha 90.000000
_cell_angle_beta 90.000000
_cell_angle_gamma 90.000000
_cell_volume 5103.000000
_symmetry_space_group_name_H-M "C M C A"
_symmetry_group_IT_number 64
_symmetry_cell_setting 'orthorhombic'
loop_
_space_group_symop_operation_xyz
x,y,z
-x,1/2-y,1/2+z
x,-y,-z
-x,1/2+y,1/2-z
-x,-y,-z
x,1/2+y,1/2-z
-x,y,z
x,1/2-y,1/2+z
1/2+x,1/2+y,z
1/2-x,-y,1/2+z
1/2+x,1/2-y,-z
1/2-x,y,1/2-z
1/2-x,1/2-y,-z
1/2+x,y,1/2-z
1/2-x,1/2+y,z
1/2+x,-y,1/2+z
loop_
_atom_site_type_symbol
_atom_site_label
_atom_site_fract_x
_atom_site_fract_y
_atom_site_fract_z
Si Si1 0.829876 0.808024 0.357070
Si Si2 0.327906 0.935456 0.357469
Si Si3 0.826831 0.563323 0.523949
Si Si4 0.830230 0.309071 0.023646
Si Si5 0.676194 0.693980 0.304154
Si Si6 0.822129 0.566973 0.304105
O O1 0.776504 0.877924 0.340851
O O2 0.821511 0.806279 0.416675
O O3 0.722498 0.755049 0.335277
O O4 0.000000 0.795848 0.341993
O O5 0.500000 0.920274 0.345244
O O6 0.317674 0.940794 0.416768
O O7 0.290534 0.003043 0.334027
O O8 0.763391 0.500000 0.500000
O O9 0.744660 0.625947 0.506919
O O10 0.000000 0.568400 0.510141
O O11 0.000000 0.308416 0.008835
O O12 0.750000 0.250000 0.000000
O O13 0.500000 0.687373 0.299780
O O14 0.750000 0.700817 0.250000
O O15 0.748478 0.630092 0.326720
O O16 0.750000 0.560202 0.250000
O O17 0.000000 0.575209 0.300554
#
# Coordination Sequence:
#
# PCOD9482416 Si02
#       6
#    16  16  16  16  16  16
#     4  10  21  37  56  79 108 141 179 222 267 315
#     4   9  19  35  54  77 106 139 175 217 264 313
#     4   9  18  34  55  78 105 138 175 216 264 316
#     4  10  21  36  55  79 108 142 179 222 267 314
#     4  11  22  37  57  80 108 141 178 220 266 316
#     4  10  20  35  54  77 107 140 176 217 261 311
#
# _framework density 9.4062319999999993
#
# number of rings (size 3 to 8) (size 9 to 14) (size 15 to 20)
#    0.000    2.167    0.000    4.000    0.000    5.667 
#    0.000    5.000    0.000    0.000    0.000    0.000 
#    0.000    0.000    0.000    0.000    0.000    0.000 
#
# Total GULP energy -267843.382919 kJ/mol
# GULP energy per Si atom -5580.070477 kJ/mol
# Density = 0.938482 g / cm^3
# Si number density = 9.406232 Si / 1000 Ang^3
#
#
#
# Elastic Constant Matrix: (Units=GPa)
#
#
# Indices 1 2 3 4 5 6 
#
# 1 111.2388 93.4139 29.2277 0.0000 0.0000 0.0000
# 2 93.4139 170.2062 30.4664 0.0000 0.0000 0.0000
# 3 29.2277 30.4664 -9.9812 0.0000 0.0000 0.0000
# 4 0.0000 0.0000 0.0000 53.9484 0.0000 0.0000
# 5 0.0000 0.0000 0.0000 0.0000 21.3282 0.0000
# 6 0.0000 0.0000 0.0000 0.0000 0.0000 35.9416
#
#
#
# Elastic Compliance Matrix: (Units=1/GPa)
#
#
# Indices 1 2 3 4 5 6 
#
# 1 0.014264 -0.009898 0.011559 0.000000 0.000000 0.000000
# 2 -0.009898 0.010667 0.003577 0.000000 0.000000 0.000000
# 3 0.011559 0.003577 -0.055423 0.000000 0.000000 0.000000
# 4 0.000000 0.000000 0.000000 0.018536 0.000000 0.000000
# 5 0.000000 0.000000 0.000000 0.000000 0.046886 0.000000
# 6 0.000000 0.000000 0.000000 0.000000 0.000000 0.027823
#
#
# Mechanical properties :
#
#
# Convention : Reuss Voigt Hill
#
# Bulk Modulus (GPa) = -49.95969 64.18663 7.11347
# Shear Modulus (GPa) = 109.63597 30.13404 69.88501
#
# Velocity S-wave (km/s) = 7.64231 4.00661 6.10155
# Velocity P-wave (km/s) = 7.15953 7.45635 7.30945
#
# Compressibility (1/GPa) = -0.02001614
#
# Stress axis : x y z
#
# Youngs Moduli (GPa) = 70.10511 93.74687 -18.04296
#
# Poissons Ratio (x) = 0.92787 0.20855
# Poissons Ratio (y) = 0.69387 0.06454
# Poissons Ratio (z) = -0.81031 -0.33533
#
# Static dielectric constant tensor:
#      x y z
#    x 1.634610 0.000000 0.000000 
#    y 0.000000 1.673330 0.000000 
#    z 0.000000 0.000000 1.634330 
# 
# From -- ./inp_files/48039.got.cif
#   From: 2010.05.17/outbox.ucp.g08.bks.cvg/sg64_25_cif.got.tgz:48039.got - 2010.06.11 16:36:46.
