data_PCOD9482667
_publ_section_title
;
Structure prediction by ZEFSAII (Michael W. Deem and Ramdas Pophale) SiO2 
 PCOD9482667
Probable space group: C M M M
;
_chemical_formula_sum "Si O2"
_cell_formula_units_Z 78
_cell_length_a 24.577820
_cell_length_b 15.645653
_cell_length_c 11.260216
_cell_angle_alpha 90.000000
_cell_angle_beta 90.000000
_cell_angle_gamma 90.000000
_cell_volume 4329.958906
_symmetry_space_group_name_H-M "C M M M"
_symmetry_group_IT_number 65
_symmetry_cell_setting 'orthorhombic'
loop_
_space_group_symop_operation_xyz
x,y,z
-x,-y,z
x,-y,-z
-x,y,-z
-x,-y,-z
x,y,-z
-x,y,z
x,-y,z
1/2+x,1/2+y,z
1/2-x,1/2-y,z
1/2+x,1/2-y,-z
1/2-x,1/2+y,-z
1/2-x,1/2-y,-z
1/2+x,1/2+y,-z
1/2-x,1/2+y,z
1/2+x,1/2-y,z
loop_
_atom_site_type_symbol
_atom_site_label
_atom_site_fract_x
_atom_site_fract_y
_atom_site_fract_z
Si Si1 0.384006 0.594149 0.143310
Si Si2 0.000000 0.851958 0.235735
Si Si3 0.811672 0.746902 0.857871
Si Si4 0.911330 0.348235 0.500000
Si Si5 0.500000 0.844012 0.143631
Si Si6 0.383160 0.899148 0.245092
Si Si7 0.500000 0.000000 0.500000
Si Si8 0.500000 0.298784 0.500000
O O1 0.363016 0.500000 0.176824
O O2 0.445225 0.605534 0.188633
O O3 0.347538 0.673142 0.187024
O O4 0.385583 0.598324 0.000000
O O5 0.000000 0.850044 0.377925
O O6 0.000000 0.754260 0.186629
O O7 0.750000 0.750000 0.811732
O O8 0.842651 0.658822 0.831135
O O9 0.809087 0.756130 0.000000
O O10 0.879617 0.360630 0.377623
O O11 0.953518 0.426123 0.500000
O O12 0.946865 0.262243 0.500000
O O13 0.445210 0.885748 0.197320
O O14 0.500000 0.849126 0.000000
O O15 0.371473 0.000000 0.243398
#
# Coordination Sequence:
#
# PCOD9482667 Si02
#       8
#    16   8  16   8   8  16   2   4
#     4  10  20  36  59  83 109 147 192 237 287 344
#     4  12  20  34  56  85 116 146 186 230 285 340
#     4  10  22  40  59  82 114 151 194 246 297 346
#     4  11  19  34  53  81 115 158 203 227 267 337
#     4  12  22  33  53  83 122 154 179 225 290 352
#     4  12  23  36  58  86 120 156 193 235 288 353
#     4  10  16  28  52  76 116 156 186 230 260 328
#     4  11  20  31  55  78 113 164 188 219 278 342
#
# _framework density 18.014028
#
# number of rings (size 3 to 8) (size 9 to 14) (size 15 to 20)
#    0.000    1.026    5.128    2.769    0.000    3.692 
#    0.000    3.590    0.000    0.000    0.000    0.000 
#    0.000    0.000    0.000    0.000    0.000    0.000 
#
# Total GULP energy -217493.177384 kJ/mol
# GULP energy per Si atom -5576.748138 kJ/mol
# Density = 1.797303 g / cm^3
# Si number density = 18.014028 Si / 1000 Ang^3
#
#
#
# Elastic Constant Matrix: (Units=GPa)
#
#
# Indices 1 2 3 4 5 6 
#
# 1 109.5372 44.4063 10.8845 0.0000 0.0000 0.0000
# 2 44.4063 100.8770 14.7144 0.0000 0.0000 0.0000
# 3 10.8845 14.7144 56.9419 0.0000 0.0000 0.0000
# 4 0.0000 0.0000 0.0000 -3.9225 0.0000 0.0000
# 5 0.0000 0.0000 0.0000 0.0000 598.2507 0.0000
# 6 0.0000 0.0000 0.0000 0.0000 0.0000 3.6999
#
#
#
# Elastic Compliance Matrix: (Units=1/GPa)
#
#
# Indices 1 2 3 4 5 6 
#
# 1 0.011156 -0.004780 -0.000897 0.000000 0.000000 0.000000
# 2 -0.004780 0.012350 -0.002278 0.000000 0.000000 0.000000
# 3 -0.000897 -0.002278 0.018322 0.000000 0.000000 0.000000
# 4 0.000000 0.000000 0.000000 -0.254940 0.000000 0.000000
# 5 0.000000 0.000000 0.000000 0.000000 0.001672 0.000000
# 6 0.000000 0.000000 0.000000 0.000000 0.000000 0.270281
#
#
# Mechanical properties :
#
#
# Convention : Reuss Voigt Hill
#
# Bulk Modulus (GPa) = 38.58363 45.26293 41.92328
# Shear Modulus (GPa) = 59.96017 132.76235 96.36126
#
# Velocity S-wave (km/s) = 5.77560 8.59415 7.32178
# Velocity P-wave (km/s) = 8.12046 11.12026 9.73658
#
# Compressibility (1/GPa) = 0.02591773
#
# Stress axis : x y z
#
# Youngs Moduli (GPa) = 89.63494 80.97483 54.57972
#
# Poissons Ratio (x) = 0.38707 0.04897
# Poissons Ratio (y) = 0.42847 0.12431
# Poissons Ratio (z) = 0.08043 0.18442
#
# Static dielectric constant tensor:
#      x y z
#    x 1.599080 0.000000 0.000000 
#    y 0.000000 1.622540 0.000000 
#    z 0.000000 0.000000 1.669200 
# 
# From -- ./inp_files/30508.got.cif
#   From: 2010.05.17/outbox.cif.g08.bks.cpg/sg65_16_cif.got.tgz:30508.got - 2010.06.03 17:01:31.
