data_PCOD9482271
_publ_section_title
;
Structure prediction by ZEFSAII (Michael W. Deem and Ramdas Pophale) SiO2 
 PCOD9482271
Probable space group: C M C A
;
_chemical_formula_sum "Si O2"
_cell_formula_units_Z 64
_cell_length_a 20.005778
_cell_length_b 9.149441
_cell_length_c 16.154608
_cell_angle_alpha 90.000000
_cell_angle_beta 90.000000
_cell_angle_gamma 90.000000
_cell_volume 2956.966676
_symmetry_space_group_name_H-M "C M C A"
_symmetry_group_IT_number 64
_symmetry_cell_setting 'orthorhombic'
loop_
_space_group_symop_operation_xyz
x,y,z
-x,1/2-y,1/2+z
x,-y,-z
-x,1/2+y,1/2-z
-x,-y,-z
x,1/2+y,1/2-z
-x,y,z
x,1/2-y,1/2+z
1/2+x,1/2+y,z
1/2-x,-y,1/2+z
1/2+x,1/2-y,-z
1/2-x,y,1/2-z
1/2-x,1/2-y,-z
1/2+x,y,1/2-z
1/2-x,1/2+y,z
1/2+x,-y,1/2+z
loop_
_atom_site_type_symbol
_atom_site_label
_atom_site_fract_x
_atom_site_fract_y
_atom_site_fract_z
Si Si1 0.202631 0.773756 0.827506
Si Si2 0.422694 0.207981 0.071319
Si Si3 0.423010 0.119814 0.877601
Si Si4 0.697444 0.577105 0.911494
O O1 0.250000 0.748226 0.750000
O O2 0.129281 0.705376 0.821565
O O3 0.239673 0.683981 0.900345
O O4 0.199793 0.944543 0.846907
O O5 0.500000 0.246646 0.088439
O O6 0.369606 0.328555 0.096489
O O7 0.407777 0.052718 0.114848
O O8 0.417610 0.180787 0.972006
O O9 0.500000 0.136997 0.851684
O O10 0.698601 0.500000 0.000000
#
# Coordination Sequence:
#
# PCOD9482271 Si02
#       4
#    16  16  16  16
#     4  12  26  42  62  95 137 177 222 272 332 391
#     4   9  19  37  66 104 133 163 215 275 327 386
#     4   9  19  39  68  99 135 169 208 269 337 396
#     4  12  24  40  65  95 132 176 227 276 319 388
#
# _framework density 21.643802000000001
#
# number of rings (size 3 to 8) (size 9 to 14) (size 15 to 20)
#    0.000    1.500    2.500    4.500    3.500    1.500 
#    0.000    2.500    0.000    4.500    0.000    0.000 
#    0.000    0.000    0.000    0.000    0.000    0.000 
#
# Total GULP energy -179140.135023 kJ/mol
# GULP energy per Si atom -5598.129219 kJ/mol
# Density = 2.159454 g / cm^3
# Si number density = 21.643802 Si / 1000 Ang^3
#
#
#
# Elastic Constant Matrix: (Units=GPa)
#
#
# Indices 1 2 3 4 5 6 
#
# 1 128.6731 102.4386 32.4719 0.0000 0.0000 0.0000
# 2 102.4386 142.0997 24.4550 0.0000 0.0000 0.0000
# 3 32.4719 24.4550 32.3412 0.0000 0.0000 0.0000
# 4 0.0000 0.0000 0.0000 17.0808 0.0000 0.0000
# 5 0.0000 0.0000 0.0000 0.0000 31.3884 0.0000
# 6 0.0000 0.0000 0.0000 0.0000 0.0000 48.7938
#
#
#
# Elastic Compliance Matrix: (Units=1/GPa)
#
#
# Indices 1 2 3 4 5 6 
#
# 1 0.021279 -0.013408 -0.011227 0.000000 0.000000 0.000000
# 2 -0.013408 0.016538 0.000956 0.000000 0.000000 0.000000
# 3 -0.011227 0.000956 0.041469 0.000000 0.000000 0.000000
# 4 0.000000 0.000000 0.000000 0.058545 0.000000 0.000000
# 5 0.000000 0.000000 0.000000 0.000000 0.031859 0.000000
# 6 0.000000 0.000000 0.000000 0.000000 0.000000 0.020494
#
#
# Mechanical properties :
#
#
# Convention : Reuss Voigt Hill
#
# Bulk Modulus (GPa) = 31.31811 69.09390 50.20601
# Shear Modulus (GPa) = 20.14638 29.03583 24.59110
#
# Velocity S-wave (km/s) = 3.05424 3.66666 3.37437
# Velocity P-wave (km/s) = 5.19028 7.06529 6.19909
#
# Compressibility (1/GPa) = 0.03193041
#
# Stress axis : x y z
#
# Youngs Moduli (GPa) = 46.99508 60.46602 24.11442
#
# Poissons Ratio (x) = 0.81071 0.27072
# Poissons Ratio (y) = 0.63010 -0.02306
# Poissons Ratio (z) = 0.52759 -0.05783
#
# Static dielectric constant tensor:
#      x y z
#    x 1.762600 0.000000 0.000000 
#    y 0.000000 1.748260 0.000000 
#    z 0.000000 0.000000 1.846570 
# 
# From -- ./inp_files/33873.got.cif
#   From: 2010.05.17/outbox.cif.g08.bks.cpg/sg64_17_cif.got.tgz:33873.got - 2010.06.03 16:29:19.
