data_PCOD9482363
_publ_section_title
;
Structure prediction by ZEFSAII (Michael W. Deem and Ramdas Pophale) SiO2 
 PCOD9482363
Probable space group: C M C A
;
_chemical_formula_sum "Si O2"
_cell_formula_units_Z 48
_cell_length_a 9.000000
_cell_length_b 27.000000
_cell_length_c 24.000000
_cell_angle_alpha 90.000000
_cell_angle_beta 90.000000
_cell_angle_gamma 90.000000
_cell_volume 5832.000000
_symmetry_space_group_name_H-M "C M C A"
_symmetry_group_IT_number 64
_symmetry_cell_setting 'orthorhombic'
loop_
_space_group_symop_operation_xyz
x,y,z
-x,1/2-y,1/2+z
x,-y,-z
-x,1/2+y,1/2-z
-x,-y,-z
x,1/2+y,1/2-z
-x,y,z
x,1/2-y,1/2+z
1/2+x,1/2+y,z
1/2-x,-y,1/2+z
1/2+x,1/2-y,-z
1/2-x,y,1/2-z
1/2-x,1/2-y,-z
1/2+x,y,1/2-z
1/2-x,1/2+y,z
1/2+x,-y,1/2+z
loop_
_atom_site_type_symbol
_atom_site_label
_atom_site_fract_x
_atom_site_fract_y
_atom_site_fract_z
Si Si1 0.319972 0.471459 0.589088
Si Si2 0.321280 0.084565 0.307951
Si Si3 0.825252 0.175636 0.512869
Si Si4 0.678901 0.569402 0.533718
Si Si5 0.827459 0.273688 0.586483
Si Si6 0.822907 0.693369 0.193503
O O1 0.500000 0.468695 0.597655
O O2 0.235127 0.447364 0.640191
O O3 0.286374 0.444560 0.530252
O O4 0.270357 0.527810 0.576694
O O5 0.500000 0.086718 0.304536
O O6 0.250000 0.065672 0.250000
O O7 0.252669 0.139546 0.315077
O O8 0.774928 0.125518 0.542545
O O9 0.813866 0.221964 0.553926
O O10 0.731132 0.186026 0.457688
O O11 0.000000 0.170765 0.497016
O O12 0.500000 0.566858 0.537084
O O13 0.725345 0.275113 0.640452
O O14 0.000000 0.282214 0.600801
O O15 0.750000 0.713628 0.250000
O O16 0.000000 0.688458 0.198538
#
# Coordination Sequence:
#
# PCOD9482363 Si02
#       6
#    16  16  16  16  16  16
#     4   9  16  29  49  72  97 125 158 193 231 276
#     4  11  21  33  49  71  97 124 155 191 234 281
#     4   9  17  30  48  70  98 132 165 194 230 278
#     4   8  15  28  48  71  95 127 161 191 228 276
#     4  10  19  30  46  71 100 128 160 197 236 279
#     4  11  21  34  51  70  94 123 156 194 238 286
#
# _framework density 8.2304530000000007
#
# number of rings (size 3 to 8) (size 9 to 14) (size 15 to 20)
#    0.000    2.333    0.000    6.500    0.000    2.000 
#    0.000    2.500    0.000    1.000    0.000    0.000 
#    0.000    0.000    0.000    0.000    0.000    0.000 
#
# Total GULP energy -267541.981670 kJ/mol
# GULP energy per Si atom -5573.791285 kJ/mol
# Density = 0.821172 g / cm^3
# Si number density = 8.230453 Si / 1000 Ang^3
#
#
#
# Elastic Constant Matrix: (Units=GPa)
#
#
# Indices 1 2 3 4 5 6 
#
# 1 104.1795 14.6079 37.1293 0.0000 0.0000 0.0000
# 2 14.6079 31.0114 -7.6012 0.0000 0.0000 0.0000
# 3 37.1293 -7.6012 53.2579 0.0000 0.0000 0.0000
# 4 0.0000 0.0000 0.0000 12.6860 0.0000 0.0000
# 5 0.0000 0.0000 0.0000 0.0000 26.0566 0.0000
# 6 0.0000 0.0000 0.0000 0.0000 0.0000 13.3926
#
#
#
# Elastic Compliance Matrix: (Units=1/GPa)
#
#
# Indices 1 2 3 4 5 6 
#
# 1 0.015372 -0.010226 -0.012176 0.000000 0.000000 0.000000
# 2 -0.010226 0.040217 0.012869 0.000000 0.000000 0.000000
# 3 -0.012176 0.012869 0.029102 0.000000 0.000000 0.000000
# 4 0.000000 0.000000 0.000000 0.078827 0.000000 0.000000
# 5 0.000000 0.000000 0.000000 0.000000 0.038378 0.000000
# 6 0.000000 0.000000 0.000000 0.000000 0.000000 0.074668
#
#
# Mechanical properties :
#
#
# Convention : Reuss Voigt Hill
#
# Bulk Modulus (GPa) = 15.23799 30.74678 22.99239
# Shear Modulus (GPa) = 15.74773 20.04789 17.89781
#
# Velocity S-wave (km/s) = 3.09637 3.49364 3.30099
# Velocity P-wave (km/s) = 4.69686 5.91551 5.34106
#
# Compressibility (1/GPa) = 0.06562544
#
# Stress axis : x y z
#
# Youngs Moduli (GPa) = 65.05210 24.86489 34.36171
#
# Poissons Ratio (x) = 0.25426 0.41840
# Poissons Ratio (y) = 0.66520 -0.44220
# Poissons Ratio (z) = 0.79210 -0.31998
#
# Static dielectric constant tensor:
#      x y z
#    x 1.553610 0.000000 0.000000 
#    y 0.000000 1.589460 0.000000 
#    z 0.000000 0.000000 1.550050 
# 
# From -- ./inp_files/43178.got.cif
#   From: 2010.05.17/outbox.ucp.g08.bks.cvg/sg64_22_cif.got.tgz:43178.got - 2010.06.11 16:36:46.
