data_PCOD9482931
_publ_section_title
;
Structure prediction by ZEFSAII (Michael W. Deem and Ramdas Pophale) SiO2 
 PCOD9482931
Probable space group: C M M M
;
_chemical_formula_sum "Si O2"
_cell_formula_units_Z 64
_cell_length_a 12.503923
_cell_length_b 30.591183
_cell_length_c 7.382886
_cell_angle_alpha 90.000000
_cell_angle_beta 90.000000
_cell_angle_gamma 90.000000
_cell_volume 2824.026223
_symmetry_space_group_name_H-M "C M M M"
_symmetry_group_IT_number 65
_symmetry_cell_setting 'orthorhombic'
loop_
_space_group_symop_operation_xyz
x,y,z
-x,-y,z
x,-y,-z
-x,y,-z
-x,-y,-z
x,y,-z
-x,y,z
x,-y,z
1/2+x,1/2+y,z
1/2-x,1/2-y,z
1/2+x,1/2-y,-z
1/2-x,1/2+y,-z
1/2-x,1/2-y,-z
1/2+x,1/2+y,-z
1/2-x,1/2+y,z
1/2+x,1/2-y,z
loop_
_atom_site_type_symbol
_atom_site_label
_atom_site_fract_x
_atom_site_fract_y
_atom_site_fract_z
Si Si1 0.761542 0.548318 0.281169
Si Si2 0.209228 0.704512 0.208323
Si Si3 0.000000 0.551494 0.745637
Si Si4 0.622148 0.630882 0.719298
Si Si5 0.000000 0.651549 0.223791
O O1 0.782755 0.552128 0.500000
O O2 0.716586 0.500000 0.249563
O O3 0.682398 0.586514 0.226651
O O4 0.877217 0.551563 0.189098
O O5 0.250000 0.750000 0.291499
O O6 0.307526 0.671168 0.215223
O O7 0.105240 0.678839 0.279052
O O8 0.179840 0.714469 0.000000
O O9 0.000000 0.500000 0.676338
O O10 0.000000 0.603233 0.690735
O O11 0.622259 0.631942 0.500000
O O12 0.500000 0.632397 0.780312
O O13 0.000000 0.645546 0.000000
#
# Coordination Sequence:
#
# PCOD9482931 Si02
#       5
#    16  16   8  16   8
#     4   9  17  30  50  77 108 142 180 220 265 321
#     4  10  22  39  60  81 106 143 185 228 274 326
#     4  10  17  29  52  79 107 142 178 221 274 330
#     4  10  21  36  55  81 112 143 181 227 272 321
#     4  10  20  36  55  82 110 137 184 231 269 329
#
# _framework density 22.662679000000001
#
# number of rings (size 3 to 8) (size 9 to 14) (size 15 to 20)
#    0.000    2.250    2.500    0.375    1.750    3.250 
#    0.000    3.125    0.000    0.750    0.000    1.750 
#    0.000    0.000    0.000    0.000    0.000    0.000 
#
# Total GULP energy -178205.972385 kJ/mol
# GULP energy per Si atom -5568.936637 kJ/mol
# Density = 2.261110 g / cm^3
# Si number density = 22.662679 Si / 1000 Ang^3
#
#
#
# Elastic Constant Matrix: (Units=GPa)
#
#
# Indices 1 2 3 4 5 6 
#
# 1 183.8744 106.2701 5.4060 0.0000 0.0000 0.0000
# 2 106.2701 250.6221 13.5104 0.0000 0.0000 0.0000
# 3 5.4060 13.5104 88.8703 0.0000 0.0000 0.0000
# 4 0.0000 0.0000 0.0000 -3.3688 0.0000 0.0000
# 5 0.0000 0.0000 0.0000 0.0000 -29.7574 0.0000
# 6 0.0000 0.0000 0.0000 0.0000 0.0000 30.6397
#
#
#
# Elastic Compliance Matrix: (Units=1/GPa)
#
#
# Indices 1 2 3 4 5 6 
#
# 1 0.007204 -0.003056 0.000026 0.000000 0.000000 0.000000
# 2 -0.003056 0.005320 -0.000623 0.000000 0.000000 0.000000
# 3 0.000026 -0.000623 0.011345 0.000000 0.000000 0.000000
# 4 0.000000 0.000000 0.000000 -0.296845 0.000000 0.000000
# 5 0.000000 0.000000 0.000000 0.000000 -0.033605 0.000000
# 6 0.000000 0.000000 0.000000 0.000000 0.000000 0.032637
#
#
# Mechanical properties :
#
#
# Convention : Reuss Voigt Hill
#
# Bulk Modulus (GPa) = 60.37220 85.97108 73.17164
# Shear Modulus (GPa) = -19.14849 26.04806 3.44979
#
# Velocity S-wave (km/s) = -2.90993 3.39393 1.23513
# Velocity P-wave (km/s) = 3.92518 7.30587 5.86442
#
# Compressibility (1/GPa) = 0.01656392
#
# Stress axis : x y z
#
# Youngs Moduli (GPa) = 138.81199 187.98740 88.14121
#
# Poissons Ratio (x) = 0.57451 -0.00233
# Poissons Ratio (y) = 0.42422 0.05489
# Poissons Ratio (z) = -0.00366 0.11708
#
# Static dielectric constant tensor:
#      x y z
#    x 1.764270 0.000000 0.000000 
#    y 0.000000 1.803980 0.000000 
#    z 0.000000 0.000000 2.032240 
# 
# From -- ./inp_files/4894.got.cif
#   From: 2010.05.17/outbox.cif.g08.bks.cpg/sg65_3_cif.got.tgz:4894.got - 2010.06.03 17:01:31.
