data_PCOD9482656
_publ_section_title
;
Structure prediction by ZEFSAII (Michael W. Deem and Ramdas Pophale) SiO2 
 PCOD9482656
Probable space group: C M M M
;
_chemical_formula_sum "Si O2"
_cell_formula_units_Z 96
_cell_length_a 12.602239
_cell_length_b 18.590042
_cell_length_c 22.815398
_cell_angle_alpha 90.000000
_cell_angle_beta 90.000000
_cell_angle_gamma 90.000000
_cell_volume 5345.103657
_symmetry_space_group_name_H-M "C M M M"
_symmetry_group_IT_number 65
_symmetry_cell_setting 'orthorhombic'
loop_
_space_group_symop_operation_xyz
x,y,z
-x,-y,z
x,-y,-z
-x,y,-z
-x,-y,-z
x,y,-z
-x,y,z
x,-y,z
1/2+x,1/2+y,z
1/2-x,1/2-y,z
1/2+x,1/2-y,-z
1/2-x,1/2+y,-z
1/2-x,1/2-y,-z
1/2+x,1/2+y,-z
1/2-x,1/2+y,z
1/2+x,1/2-y,z
loop_
_atom_site_type_symbol
_atom_site_label
_atom_site_fract_x
_atom_site_fract_y
_atom_site_fract_z
Si Si1 0.879044 0.912525 0.500000
Si Si2 0.500000 0.081850 0.881711
Si Si3 0.000000 0.383686 0.747874
Si Si4 0.264051 0.165747 0.730327
Si Si5 0.732719 0.087637 0.391530
Si Si6 0.500000 0.919219 0.387592
Si Si7 0.125905 0.913602 0.171591
Si Si8 0.222208 0.587562 0.933114
O O1 0.814353 0.891719 0.557934
O O2 0.000000 0.886844 0.500000
O O3 0.881332 0.000000 0.500000
O O4 0.500000 0.078627 0.811192
O O5 0.610227 0.113781 0.905633
O O6 0.500000 0.000000 0.904109
O O7 0.887661 0.343808 0.746869
O O8 0.000000 0.422203 0.683950
O O9 0.250000 0.250000 0.721950
O O10 0.241053 0.122352 0.670675
O O11 0.188758 0.131216 0.779537
O O12 0.612438 0.112913 0.405970
O O13 0.731064 0.000000 0.386262
O O14 0.500000 0.000000 0.411316
O O15 0.180969 0.894192 0.109810
O O16 0.000000 0.900115 0.172206
O O17 0.142009 0.000000 0.181324
O O18 0.219369 0.500000 0.933715
O O19 0.234040 0.611922 0.000000
#
# Coordination Sequence:
#
# PCOD9482656 Si02
#       8
#     8   8   8  16  16   8  16  16
#     4   9  18  33  54  81 111 146 186 221 262 318
#     4  10  16  26  50  80 108 136 170 221 282 335
#     4  10  19  33  51  76 104 143 179 222 280 326
#     4  11  23  37  56  81 112 146 186 232 281 329
#     4   9  18  34  56  82 111 141 178 223 271 323
#     4   8  15  27  49  80 107 131 167 214 265 319
#     4  10  21  36  55  81 111 148 189 228 277 337
#     4   9  17  29  48  78 111 139 173 223 280 333
#
# _framework density 17.960363999999998
#
# number of rings (size 3 to 8) (size 9 to 14) (size 15 to 20)
#    0.000    2.417    1.667    1.000    1.167    3.667 
#    0.000    5.417    0.000    0.500    0.000    0.000 
#    0.000    0.000    0.000    0.000    0.000    0.000 
#
# Total GULP energy -267290.408821 kJ/mol
# GULP energy per Si atom -5568.550184 kJ/mol
# Density = 1.791948 g / cm^3
# Si number density = 17.960364 Si / 1000 Ang^3
#
#
#
# Elastic Constant Matrix: (Units=GPa)
#
#
# Indices 1 2 3 4 5 6 
#
# 1 167.6876 38.5263 91.1654 0.0000 0.0000 0.0000
# 2 38.5263 37.6830 27.2222 0.0000 0.0000 0.0000
# 3 91.1654 27.2222 130.8578 0.0000 0.0000 0.0000
# 4 0.0000 0.0000 0.0000 -5.3141 0.0000 0.0000
# 5 0.0000 0.0000 0.0000 0.0000 -48.8881 0.0000
# 6 0.0000 0.0000 0.0000 0.0000 0.0000 3.3305
#
#
#
# Elastic Compliance Matrix: (Units=1/GPa)
#
#
# Indices 1 2 3 4 5 6 
#
# 1 0.010843 -0.006624 -0.006176 0.000000 0.000000 0.000000
# 2 -0.006624 0.035277 -0.002724 0.000000 0.000000 0.000000
# 3 -0.006176 -0.002724 0.012511 0.000000 0.000000 0.000000
# 4 0.000000 0.000000 0.000000 -0.188178 0.000000 0.000000
# 5 0.000000 0.000000 0.000000 0.000000 -0.020455 0.000000
# 6 0.000000 0.000000 0.000000 0.000000 0.000000 0.300251
#
#
# Mechanical properties :
#
#
# Convention : Reuss Voigt Hill
#
# Bulk Modulus (GPa) = 36.25364 72.22847 54.24106
# Shear Modulus (GPa) = 26.24778 1.77998 14.01388
#
# Velocity S-wave (km/s) = 3.82701 0.99660 2.79636
# Velocity P-wave (km/s) = 6.30533 6.45190 6.37904
#
# Compressibility (1/GPa) = 0.02758343
#
# Stress axis : x y z
#
# Youngs Moduli (GPa) = 92.22489 28.34698 79.92812
#
# Poissons Ratio (x) = 0.18777 0.49364
# Poissons Ratio (y) = 0.61091 0.21771
# Poissons Ratio (z) = 0.56959 0.07721
#
# Static dielectric constant tensor:
#      x y z
#    x 1.632330 0.000000 0.000000 
#    y 0.000000 1.595570 0.000000 
#    z 0.000000 0.000000 1.608010 
# 
# From -- ./inp_files/61691.got.cif
#   From: 2010.05.17/outbox.cif.g08.bks.cpg/sg65_31_cif.got.tgz:61691.got - 2010.06.03 17:01:31.
