data_PCOD9482938
_publ_section_title
;
Structure prediction by ZEFSAII (Michael W. Deem and Ramdas Pophale) SiO2 
 PCOD9482938
Probable space group: C M M M
;
_chemical_formula_sum "Si O2"
_cell_formula_units_Z 80
_cell_length_a 27.284204
_cell_length_b 23.878210
_cell_length_c 8.937662
_cell_angle_alpha 90.000000
_cell_angle_beta 90.000000
_cell_angle_gamma 90.000000
_cell_volume 5822.868496
_symmetry_space_group_name_H-M "C M M M"
_symmetry_group_IT_number 65
_symmetry_cell_setting 'orthorhombic'
loop_
_space_group_symop_operation_xyz
x,y,z
-x,-y,z
x,-y,-z
-x,y,-z
-x,-y,-z
x,y,-z
-x,y,z
x,-y,z
1/2+x,1/2+y,z
1/2-x,1/2-y,z
1/2+x,1/2-y,-z
1/2-x,1/2+y,-z
1/2-x,1/2-y,-z
1/2+x,1/2+y,-z
1/2-x,1/2+y,z
1/2+x,1/2-y,z
loop_
_atom_site_type_symbol
_atom_site_label
_atom_site_fract_x
_atom_site_fract_y
_atom_site_fract_z
Si Si1 0.741069 0.884830 0.177986
Si Si2 0.714072 0.000000 0.678437
Si Si3 0.105813 0.500000 0.181062
Si Si4 0.701249 0.289040 0.327740
Si Si5 0.944427 0.382794 0.817885
Si Si6 0.645589 0.191837 0.179396
O O1 0.739580 0.943971 0.260320
O O2 0.783850 0.844003 0.235889
O O3 0.689579 0.852468 0.209668
O O4 0.744056 0.892557 0.000000
O O5 0.658889 0.000000 0.744076
O O6 0.712822 0.000000 0.500000
O O7 0.076167 0.444084 0.222376
O O8 0.112442 0.500000 0.000000
O O9 0.690874 0.302603 0.500000
O O10 0.750000 0.250000 0.323893
O O11 0.659561 0.250093 0.256469
O O12 0.905125 0.336237 0.770064
O O13 0.000000 0.374541 0.765537
O O14 0.945001 0.381490 0.000000
O O15 0.644584 0.199683 0.000000
#
# Coordination Sequence:
#
# PCOD9482938 Si02
#       6
#    16   8   8  16  16  16
#     4  10  18  30  45  61  80 106 140 175 209 251
#     4  12  22  29  41  61  86 114 141 175 216 255
#     4  10  17  30  44  58  78 110 150 187 223 253
#     4   9  17  28  42  61  82 104 131 167 212 259
#     4   9  16  26  43  64  82 105 145 191 224 250
#     4   9  16  27  43  61  80 105 139 177 215 253
#
# _framework density 13.738932
#
# number of rings (size 3 to 8) (size 9 to 14) (size 15 to 20)
#    0.000    2.400    2.000    2.400    0.000    4.400 
#    0.000    0.000    0.000    3.000    0.000    0.000 
#    0.000    0.000    0.000    0.900    0.000   18.600 
#
# Total GULP energy -222965.941579 kJ/mol
# GULP energy per Si atom -5574.148539 kJ/mol
# Density = 1.370766 g / cm^3
# Si number density = 13.738932 Si / 1000 Ang^3
#
#
#
# Elastic Constant Matrix: (Units=GPa)
#
#
# Indices 1 2 3 4 5 6 
#
# 1 77.2446 64.3850 25.5805 0.0000 0.0000 0.0000
# 2 64.3850 102.4023 46.8074 0.0000 0.0000 0.0000
# 3 25.5805 46.8074 48.3105 0.0000 0.0000 0.0000
# 4 0.0000 0.0000 0.0000 16.4055 0.0000 0.0000
# 5 0.0000 0.0000 0.0000 0.0000 7.2298 0.0000
# 6 0.0000 0.0000 0.0000 0.0000 0.0000 14.3997
#
#
#
# Elastic Compliance Matrix: (Units=1/GPa)
#
#
# Indices 1 2 3 4 5 6 
#
# 1 0.027615 -0.019168 0.003949 0.000000 0.000000 0.000000
# 2 -0.019168 0.030833 -0.019724 0.000000 0.000000 0.000000
# 3 0.003949 -0.019724 0.037719 0.000000 0.000000 0.000000
# 4 0.000000 0.000000 0.000000 0.060955 0.000000 0.000000
# 5 0.000000 0.000000 0.000000 0.000000 0.138316 0.000000
# 6 0.000000 0.000000 0.000000 0.000000 0.000000 0.069446
#
#
# Mechanical properties :
#
#
# Convention : Reuss Voigt Hill
#
# Bulk Modulus (GPa) = 38.05008 55.72257 46.88633
# Shear Modulus (GPa) = 11.27319 13.68596 12.47957
#
# Velocity S-wave (km/s) = 2.86760 3.15960 3.01713
# Velocity P-wave (km/s) = 6.22249 7.34554 6.80721
#
# Compressibility (1/GPa) = 0.02628115
#
# Stress axis : x y z
#
# Youngs Moduli (GPa) = 36.21230 32.43278 26.51206
#
# Poissons Ratio (x) = 0.62167 -0.10471
# Poissons Ratio (y) = 0.69412 0.52293
# Poissons Ratio (z) = -0.14302 0.63971
#
# Static dielectric constant tensor:
#      x y z
#    x 1.436970 0.000000 0.000000 
#    y 0.000000 1.441780 0.000000 
#    z 0.000000 0.000000 1.455980 
# 
# From -- ./inp_files/12091.got.cif
#   From: 2010.05.17/outbox.cif.g08.bks.cpg/sg65_7_cif.got.tgz:12091.got - 2010.06.03 17:01:31.
