data_PCOD9482358
_publ_section_title
;
Structure prediction by ZEFSAII (Michael W. Deem and Ramdas Pophale) SiO2 
 PCOD9482358
Probable space group: C M C A
;
_chemical_formula_sum "Si O2"
_cell_formula_units_Z 48
_cell_length_a 9.000000
_cell_length_b 21.000000
_cell_length_c 27.000000
_cell_angle_alpha 90.000000
_cell_angle_beta 90.000000
_cell_angle_gamma 90.000000
_cell_volume 5103.000000
_symmetry_space_group_name_H-M "C M C A"
_symmetry_group_IT_number 64
_symmetry_cell_setting 'orthorhombic'
loop_
_space_group_symop_operation_xyz
x,y,z
-x,1/2-y,1/2+z
x,-y,-z
-x,1/2+y,1/2-z
-x,-y,-z
x,1/2+y,1/2-z
-x,y,z
x,1/2-y,1/2+z
1/2+x,1/2+y,z
1/2-x,-y,1/2+z
1/2+x,1/2-y,-z
1/2-x,y,1/2-z
1/2-x,1/2-y,-z
1/2+x,y,1/2-z
1/2-x,1/2+y,z
1/2+x,-y,1/2+z
loop_
_atom_site_type_symbol
_atom_site_label
_atom_site_fract_x
_atom_site_fract_y
_atom_site_fract_z
Si Si1 0.178423 0.676630 0.199639
Si Si2 0.175321 0.776066 0.548450
Si Si3 0.820383 0.400787 0.897805
Si Si4 0.677161 0.683754 0.699012
Si Si5 0.325308 0.854977 0.395686
Si Si6 0.323197 0.470789 0.445364
O O1 0.250000 0.652048 0.250000
O O2 0.209801 0.627360 0.156024
O O3 0.254778 0.745284 0.191213
O O4 0.000000 0.685945 0.202975
O O5 0.250000 0.750000 0.500000
O O6 0.234887 0.844474 0.565934
O O7 0.193305 0.718153 0.586856
O O8 0.000000 0.783918 0.540266
O O9 0.769777 0.471865 0.909567
O O10 0.000000 0.402913 0.903730
O O11 0.500000 0.687580 0.702375
O O12 0.750000 0.660866 0.750000
O O13 0.730167 0.639950 0.654106
O O14 0.500000 0.865159 0.387090
O O15 0.263784 0.905923 0.434872
O O16 0.304115 0.500000 0.500000
O O17 0.500000 0.458797 0.438597
#
# Coordination Sequence:
#
# PCOD9482358 Si02
#       6
#    16  16  16  16  16  16
#     4  10  18  33  55  82 115 147 184 228 285 338
#     4  10  20  35  55  80 109 143 186 237 287 333
#     4   9  18  35  56  78 110 149 184 231 286 336
#     4  11  21  35  58  87 117 149 189 233 286 343
#     4  11  22  38  58  83 117 152 190 238 291 342
#     4  10  21  38  60  82 111 154 201 240 286 346
#
# _framework density 9.4062319999999993
#
# number of rings (size 3 to 8) (size 9 to 14) (size 15 to 20)
#    0.000    1.833    1.667    4.500    0.000    3.000 
#    0.000    3.333    0.000    2.000    0.000    0.000 
#    0.000    0.000    0.000    0.000    0.000    0.000 
#
# Total GULP energy -267735.796235 kJ/mol
# GULP energy per Si atom -5577.829088 kJ/mol
# Density = 0.938482 g / cm^3
# Si number density = 9.406232 Si / 1000 Ang^3
#
#
#
# Elastic Constant Matrix: (Units=GPa)
#
#
# Indices 1 2 3 4 5 6 
#
# 1 72.5583 12.0526 40.1608 0.0000 0.0000 0.0000
# 2 12.0526 5.0254 -26.0187 0.0000 0.0000 0.0000
# 3 40.1608 -26.0187 60.3336 0.0000 0.0000 0.0000
# 4 0.0000 0.0000 0.0000 27.2169 0.0000 0.0000
# 5 0.0000 0.0000 0.0000 0.0000 20.0581 0.0000
# 6 0.0000 0.0000 0.0000 0.0000 0.0000 23.9208
#
#
#
# Elastic Compliance Matrix: (Units=1/GPa)
#
#
# Indices 1 2 3 4 5 6 
#
# 1 0.005403 0.025616 0.007451 0.000000 0.000000 0.000000
# 2 0.025616 -0.039966 -0.034287 0.000000 0.000000 0.000000
# 3 0.007451 -0.034287 -0.003171 0.000000 0.000000 0.000000
# 4 0.000000 0.000000 0.000000 0.036742 0.000000 0.000000
# 5 0.000000 0.000000 0.000000 0.000000 0.049855 0.000000
# 6 0.000000 0.000000 0.000000 0.000000 0.000000 0.041805
#
#
# Mechanical properties :
#
#
# Convention : Reuss Voigt Hill
#
# Bulk Modulus (GPa) = -24.89161 21.14518 -1.87322
# Shear Modulus (GPa) = 62.72296 21.68733 42.20515
#
# Velocity S-wave (km/s) = 5.78045 3.39900 4.74166
# Velocity P-wave (km/s) = 5.59386 5.16417 5.38330
#
# Compressibility (1/GPa) = -0.04017417
#
# Stress axis : x y z
#
# Youngs Moduli (GPa) = 185.08115 -25.02103 -315.35092
#
# Poissons Ratio (x) = 0.64095 2.34954
# Poissons Ratio (y) = -4.74113 -10.81241
# Poissons Ratio (z) = -1.37896 -0.85789
#
# Static dielectric constant tensor:
#      x y z
#    x 1.673170 0.000000 0.000000 
#    y 0.000000 1.637980 0.000000 
#    z 0.000000 0.000000 1.578110 
# 
# From -- ./inp_files/48122.got.cif
#   From: 2010.05.17/outbox.ucp.g08.bks.cvg/sg64_25_cif.got.tgz:48122.got - 2010.06.11 16:36:46.
