data_PCOD9482173
_publ_section_title
;
Structure prediction by ZEFSAII (Michael W. Deem and Ramdas Pophale) SiO2 
 PCOD9482173
Probable space group: C M C A
;
_chemical_formula_sum "Si O2"
_cell_formula_units_Z 48
_cell_length_a 18.251487
_cell_length_b 7.409110
_cell_length_c 15.840095
_cell_angle_alpha 90.000000
_cell_angle_beta 90.000000
_cell_angle_gamma 90.000000
_cell_volume 2142.012880
_symmetry_space_group_name_H-M "C M C A"
_symmetry_group_IT_number 64
_symmetry_cell_setting 'orthorhombic'
loop_
_space_group_symop_operation_xyz
x,y,z
-x,1/2-y,1/2+z
x,-y,-z
-x,1/2+y,1/2-z
-x,-y,-z
x,1/2+y,1/2-z
-x,y,z
x,1/2-y,1/2+z
1/2+x,1/2+y,z
1/2-x,-y,1/2+z
1/2+x,1/2-y,-z
1/2-x,y,1/2-z
1/2-x,1/2-y,-z
1/2+x,y,1/2-z
1/2-x,1/2+y,z
1/2+x,-y,1/2+z
loop_
_atom_site_type_symbol
_atom_site_label
_atom_site_fract_x
_atom_site_fract_y
_atom_site_fract_z
Si Si1 0.915621 0.046372 0.099492
Si Si2 0.298523 0.277789 0.165764
Si Si3 0.841268 0.086360 0.590329
O O1 0.898132 0.257198 0.112090
O O2 0.000000 0.005308 0.118099
O O3 0.860237 0.928244 0.154842
O O4 0.902619 0.000000 0.000000
O O5 0.250000 0.283243 0.250000
O O6 0.238107 0.317169 0.093472
O O7 0.334290 0.082977 0.152762
O O8 0.857703 0.000000 0.500000
#
# Coordination Sequence:
#
# PCOD9482173 Si02
#       3
#    16  16  16
#     4  11  25  46  73 110 148 187 240 304 371 441
#     4  12  25  42  72 105 145 192 247 306 362 431
#     4  12  23  41  73 106 140 191 247 296 355 432
#
# _framework density 22.408828
#
# number of rings (size 3 to 8) (size 9 to 14) (size 15 to 20)
#    0.000    0.333    6.667    3.000    0.000    3.333 
#    0.000    1.667    0.000    0.000    0.000    0.000 
#    0.000    0.000    0.000    0.000    0.000    0.000 
#
# Total GULP energy -134397.784406 kJ/mol
# GULP energy per Si atom -5599.907684 kJ/mol
# Density = 2.235782 g / cm^3
# Si number density = 22.408828 Si / 1000 Ang^3
#
#
#
# Elastic Constant Matrix: (Units=GPa)
#
#
# Indices 1 2 3 4 5 6 
#
# 1 105.6708 31.0855 55.7361 0.0000 0.0000 0.0000
# 2 31.0855 149.2136 65.1526 0.0000 0.0000 0.0000
# 3 55.7361 65.1526 113.7245 0.0000 0.0000 0.0000
# 4 0.0000 0.0000 0.0000 32.2079 0.0000 0.0000
# 5 0.0000 0.0000 0.0000 0.0000 23.8183 0.0000
# 6 0.0000 0.0000 0.0000 0.0000 0.0000 37.2884
#
#
#
# Elastic Compliance Matrix: (Units=1/GPa)
#
#
# Indices 1 2 3 4 5 6 
#
# 1 0.012764 0.000096 -0.006311 0.000000 0.000000 0.000000
# 2 0.000096 0.008938 -0.005168 0.000000 0.000000 0.000000
# 3 -0.006311 -0.005168 0.014847 0.000000 0.000000 0.000000
# 4 0.000000 0.000000 0.000000 0.031048 0.000000 0.000000
# 5 0.000000 0.000000 0.000000 0.000000 0.041985 0.000000
# 6 0.000000 0.000000 0.000000 0.000000 0.000000 0.026818
#
#
# Mechanical properties :
#
#
# Convention : Reuss Voigt Hill
#
# Bulk Modulus (GPa) = 72.54687 74.72861 73.63774
# Shear Modulus (GPa) = 30.53278 33.10522 31.81900
#
# Velocity S-wave (km/s) = 3.69526 3.84777 3.77229
# Velocity P-wave (km/s) = 7.11696 7.29114 7.20457
#
# Compressibility (1/GPa) = 0.01378419
#
# Stress axis : x y z
#
# Youngs Moduli (GPa) = 78.34826 111.87860 67.35482
#
# Poissons Ratio (x) = -0.01079 0.42505
# Poissons Ratio (y) = -0.00756 0.34809
# Poissons Ratio (z) = 0.49443 0.57819
#
# Static dielectric constant tensor:
#      x y z
#    x 1.766890 0.000000 0.000000 
#    y 0.000000 1.834360 0.000000 
#    z 0.000000 0.000000 1.896610 
# 
# From -- ./inp_files/24641.got.cif
#   From: 2010.05.17/outbox.cif.g08.bks.cpg/sg64_13_cif.got.tgz:24641.got - 2010.06.03 16:29:19.
