data_PCOD9482279
_publ_section_title
;
Structure prediction by ZEFSAII (Michael W. Deem and Ramdas Pophale) SiO2 
 PCOD9482279
Probable space group: C M C A
;
_chemical_formula_sum "Si O2"
_cell_formula_units_Z 48
_cell_length_a 9.762511
_cell_length_b 28.804617
_cell_length_c 8.671199
_cell_angle_alpha 90.000000
_cell_angle_beta 90.000000
_cell_angle_gamma 90.000000
_cell_volume 2438.387899
_symmetry_space_group_name_H-M "C M C A"
_symmetry_group_IT_number 64
_symmetry_cell_setting 'orthorhombic'
loop_
_space_group_symop_operation_xyz
x,y,z
-x,1/2-y,1/2+z
x,-y,-z
-x,1/2+y,1/2-z
-x,-y,-z
x,1/2+y,1/2-z
-x,y,z
x,1/2-y,1/2+z
1/2+x,1/2+y,z
1/2-x,-y,1/2+z
1/2+x,1/2-y,-z
1/2-x,y,1/2-z
1/2-x,1/2-y,-z
1/2+x,y,1/2-z
1/2-x,1/2+y,z
1/2+x,-y,1/2+z
loop_
_atom_site_type_symbol
_atom_site_label
_atom_site_fract_x
_atom_site_fract_y
_atom_site_fract_z
Si Si1 0.669968 0.291577 0.586968
Si Si2 0.257027 0.610214 0.565589
Si Si3 0.000000 0.446453 0.561477
Si Si4 0.000000 0.949360 0.569261
O O1 0.500000 0.286325 0.597749
O O2 0.750000 0.295088 0.750000
O O3 0.750000 0.250000 0.500000
O O4 0.707009 0.338602 0.495724
O O5 0.250000 0.610988 0.750000
O O6 0.373446 0.577582 0.499821
O O7 0.124685 0.584815 0.498031
O O8 0.000000 0.500000 0.500000
O O9 0.000000 0.449349 0.746346
O O10 0.000000 0.000000 0.500000
#
# Coordination Sequence:
#
# PCOD9482279 Si02
#       4
#    16  16   8   8
#     4  12  27  48  76 109 148 194 245 303 371 444
#     4  12  26  45  71 104 144 188 242 296 364 436
#     4  12  26  44  71 104 141 194 242 302 364 432
#     4  12  24  46  69 100 143 186 242 300 362 434
#
# _framework density 19.685137000000001
#
# number of rings (size 3 to 8) (size 9 to 14) (size 15 to 20)
#    0.000    0.000    1.667    9.000    4.667    0.000 
#    0.000    0.000    0.000    0.000    0.000    0.000 
#    0.000    0.000    0.000    0.000    0.000    0.000 
#
# Total GULP energy -134049.325194 kJ/mol
# GULP energy per Si atom -5585.388550 kJ/mol
# Density = 1.964033 g / cm^3
# Si number density = 19.685137 Si / 1000 Ang^3
#
#
#
# Elastic Constant Matrix: (Units=GPa)
#
#
# Indices 1 2 3 4 5 6 
#
# 1 249.0247 110.5861 97.7122 0.0000 0.0000 0.0000
# 2 110.5861 225.7327 107.1050 0.0000 0.0000 0.0000
# 3 97.7122 107.1050 257.7215 0.0000 0.0000 0.0000
# 4 0.0000 0.0000 0.0000 48.6275 0.0000 0.0000
# 5 0.0000 0.0000 0.0000 0.0000 34.8322 0.0000
# 6 0.0000 0.0000 0.0000 0.0000 0.0000 43.2824
#
#
#
# Elastic Compliance Matrix: (Units=1/GPa)
#
#
# Indices 1 2 3 4 5 6 
#
# 1 0.005407 -0.002088 -0.001182 0.000000 0.000000 0.000000
# 2 -0.002088 0.006324 -0.001837 0.000000 0.000000 0.000000
# 3 -0.001182 -0.001837 0.005092 0.000000 0.000000 0.000000
# 4 0.000000 0.000000 0.000000 0.020564 0.000000 0.000000
# 5 0.000000 0.000000 0.000000 0.000000 0.028709 0.000000
# 6 0.000000 0.000000 0.000000 0.000000 0.000000 0.023104
#
#
# Mechanical properties :
#
#
# Convention : Reuss Voigt Hill
#
# Bulk Modulus (GPa) = 151.30397 151.47616 151.39006
# Shear Modulus (GPa) = 49.20444 53.15348 51.17896
#
# Velocity S-wave (km/s) = 5.00500 5.20197 5.10443
# Velocity P-wave (km/s) = 10.50852 10.63942 10.57417
#
# Compressibility (1/GPa) = 0.00660921
#
# Stress axis : x y z
#
# Youngs Moduli (GPa) = 184.95621 158.12022 196.39801
#
# Poissons Ratio (x) = 0.33012 0.23219
# Poissons Ratio (y) = 0.38615 0.36073
# Poissons Ratio (z) = 0.21866 0.29042
#
# Static dielectric constant tensor:
#      x y z
#    x 1.611880 0.000000 0.000000 
#    y 0.000000 1.647200 0.000000 
#    z 0.000000 0.000000 1.675800 
# 
# From -- ./inp_files/3940.got.cif
#   From: 2010.05.17/outbox.cif.g08.bks.cpg/sg64_2_cif.got.tgz:3940.got - 2010.06.03 16:29:19.
