data_PCOD9482531
_publ_section_title
;
Structure prediction by ZEFSAII (Michael W. Deem and Ramdas Pophale) SiO2 
 PCOD9482531
Probable space group: C M M M
;
_chemical_formula_sum "Si O2"
_cell_formula_units_Z 64
_cell_length_a 18.231650
_cell_length_b 15.223372
_cell_length_c 11.973397
_cell_angle_alpha 90.000000
_cell_angle_beta 90.000000
_cell_angle_gamma 90.000000
_cell_volume 3323.182694
_symmetry_space_group_name_H-M "C M M M"
_symmetry_group_IT_number 65
_symmetry_cell_setting 'orthorhombic'
loop_
_space_group_symop_operation_xyz
x,y,z
-x,-y,z
x,-y,-z
-x,y,-z
-x,-y,-z
x,y,-z
-x,y,z
x,-y,z
1/2+x,1/2+y,z
1/2-x,1/2-y,z
1/2+x,1/2-y,-z
1/2-x,1/2+y,-z
1/2-x,1/2-y,-z
1/2+x,1/2+y,-z
1/2-x,1/2+y,z
1/2+x,1/2-y,z
loop_
_atom_site_type_symbol
_atom_site_label
_atom_site_fract_x
_atom_site_fract_y
_atom_site_fract_z
Si Si1 0.785102 0.151715 0.259944
Si Si2 0.628102 0.904441 0.252891
Si Si3 0.181804 0.181165 0.500000
Si Si4 0.412762 0.153291 0.500000
Si Si5 0.082911 0.774103 0.132400
O O1 0.750000 0.250000 0.264416
O O2 0.714795 0.096306 0.225474
O O3 0.811269 0.129340 0.384951
O O4 0.855091 0.161447 0.181020
O O5 0.618956 0.887869 0.386069
O O6 0.593127 0.820980 0.191161
O O7 0.596678 0.000000 0.224919
O O8 0.250000 0.250000 0.500000
O O9 0.111238 0.244569 0.500000
O O10 0.500000 0.142835 0.500000
O O11 0.000000 0.804630 0.154844
O O12 0.092707 0.764004 0.000000
#
# Coordination Sequence:
#
# PCOD9482531 Si02
#       5
#    16  16   8   8  16
#     4   9  17  32  54  72  99 133 175 215 250 292
#     4  11  22  34  50  77 110 142 170 202 251 312
#     4  10  14  30  52  73  97 131 173 217 246 285
#     4  12  21  31  50  80 112 138 168 206 252 305
#     4  10  21  36  54  76 101 133 174 219 263 303
#
# _framework density 19.258645999999999
#
# number of rings (size 3 to 8) (size 9 to 14) (size 15 to 20)
#    0.000    1.750    7.500    1.125    0.000    7.500 
#    0.000    1.250    0.000    0.750    0.000    1.750 
#    0.000    5.000    0.000    0.000    0.000    0.000 
#
# Total GULP energy -178418.532666 kJ/mol
# GULP energy per Si atom -5575.579146 kJ/mol
# Density = 1.921481 g / cm^3
# Si number density = 19.258646 Si / 1000 Ang^3
#
#
#
# Elastic Constant Matrix: (Units=GPa)
#
#
# Indices 1 2 3 4 5 6 
#
# 1 134.6838 9.6186 52.8941 0.0000 0.0000 0.0000
# 2 9.6186 15.5705 -9.3314 0.0000 0.0000 0.0000
# 3 52.8941 -9.3314 89.0950 0.0000 0.0000 0.0000
# 4 0.0000 0.0000 0.0000 -3.1344 0.0000 0.0000
# 5 0.0000 0.0000 0.0000 0.0000 26.5459 0.0000
# 6 0.0000 0.0000 0.0000 0.0000 0.0000 6.2960
#
#
#
# Elastic Compliance Matrix: (Units=1/GPa)
#
#
# Indices 1 2 3 4 5 6 
#
# 1 0.011424 -0.011867 -0.008025 0.000000 0.000000 0.000000
# 2 -0.011867 0.080852 0.015513 0.000000 0.000000 0.000000
# 3 -0.008025 0.015513 0.017613 0.000000 0.000000 0.000000
# 4 0.000000 0.000000 0.000000 -0.319044 0.000000 0.000000
# 5 0.000000 0.000000 0.000000 0.000000 0.037671 0.000000
# 6 0.000000 0.000000 0.000000 0.000000 0.000000 0.158832
#
#
# Mechanical properties :
#
#
# Convention : Reuss Voigt Hill
#
# Bulk Modulus (GPa) = 9.88812 38.41244 24.15028
# Shear Modulus (GPa) = 167.70432 18.35271 93.02851
#
# Velocity S-wave (km/s) = 9.34179 3.09035 6.95771
# Velocity P-wave (km/s) = 11.02290 5.72036 8.78142
#
# Compressibility (1/GPa) = 0.10113150
#
# Stress axis : x y z
#
# Youngs Moduli (GPa) = 87.53567 12.36834 56.77606
#
# Poissons Ratio (x) = 0.14677 0.45563
# Poissons Ratio (y) = 1.03874 -0.88077
# Poissons Ratio (z) = 0.70248 -0.19187
#
# Static dielectric constant tensor:
#      x y z
#    x 1.698990 0.000000 0.000000 
#    y 0.000000 1.680190 0.000000 
#    z 0.000000 0.000000 1.674090 
# 
# From -- ./inp_files/26136.got.cif
#   From: 2010.05.17/outbox.cif.g08.bks.cpg/sg65_14_cif.got.tgz:26136.got - 2010.06.03 17:01:31.
