data_PCOD9482655
_publ_section_title
;
Structure prediction by ZEFSAII (Michael W. Deem and Ramdas Pophale) SiO2 
 PCOD9482655
Probable space group: C M M M
;
_chemical_formula_sum "Si O2"
_cell_formula_units_Z 72
_cell_length_a 19.997987
_cell_length_b 28.561185
_cell_length_c 8.245966
_cell_angle_alpha 90.000000
_cell_angle_beta 90.000000
_cell_angle_gamma 90.000000
_cell_volume 4709.817118
_symmetry_space_group_name_H-M "C M M M"
_symmetry_group_IT_number 65
_symmetry_cell_setting 'orthorhombic'
loop_
_space_group_symop_operation_xyz
x,y,z
-x,-y,z
x,-y,-z
-x,y,-z
-x,-y,-z
x,y,-z
-x,y,z
x,-y,z
1/2+x,1/2+y,z
1/2-x,1/2-y,z
1/2+x,1/2-y,-z
1/2-x,1/2+y,-z
1/2-x,1/2-y,-z
1/2+x,1/2+y,-z
1/2-x,1/2+y,z
1/2+x,1/2-y,z
loop_
_atom_site_type_symbol
_atom_site_label
_atom_site_fract_x
_atom_site_fract_y
_atom_site_fract_z
Si Si1 0.353240 0.272056 0.801685
Si Si2 0.720370 0.177208 0.195282
Si Si3 0.500000 0.159502 0.303069
Si Si4 0.076941 0.500000 0.807325
Si Si5 0.371951 0.098722 0.692979
Si Si6 0.500000 0.265651 0.807514
O O1 0.328390 0.220042 0.751263
O O2 0.294902 0.307859 0.752221
O O3 0.428123 0.282669 0.742849
O O4 0.354337 0.271593 0.000000
O O5 0.692959 0.127676 0.253563
O O6 0.719547 0.177375 0.000000
O O7 0.500000 0.164630 0.500000
O O8 0.564866 0.130121 0.252708
O O9 0.500000 0.210004 0.222309
O O10 0.115819 0.453343 0.755796
O O11 0.000000 0.500000 0.740717
O O12 0.071898 0.500000 0.000000
O O13 0.373343 0.096858 0.500000
O O14 0.500000 0.274978 0.000000
#
# Coordination Sequence:
#
# PCOD9482655 Si02
#       6
#    16  16   8   8  16   8
#     4   8  15  25  42  65  88 113 148 189 222 253
#     4   9  16  29  44  62  87 116 149 186 222 259
#     4  10  20  29  39  60  89 118 145 181 226 259
#     4  11  23  35  49  67  85 112 151 188 221 259
#     4  11  21  33  46  62  88 119 149 185 225 262
#     4  10  16  26  45  65  84 117 158 188 216 257
#
# _framework density 15.287217
#
# number of rings (size 3 to 8) (size 9 to 14) (size 15 to 20)
#    0.000    2.333    3.333    2.333    0.000    1.333 
#    0.000    3.333    0.000    0.000    0.000    0.000 
#    0.000    0.889    0.000   10.444    0.000    2.000 
#
# Total GULP energy -200642.298116 kJ/mol
# GULP energy per Si atom -5573.397170 kJ/mol
# Density = 1.525242 g / cm^3
# Si number density = 15.287217 Si / 1000 Ang^3
#
#
#
# Elastic Constant Matrix: (Units=GPa)
#
#
# Indices 1 2 3 4 5 6 
#
# 1 137.6732 60.3350 13.5506 0.0000 0.0000 0.0000
# 2 60.3350 94.7030 11.4711 0.0000 0.0000 0.0000
# 3 13.5506 11.4711 9.7873 0.0000 0.0000 0.0000
# 4 0.0000 0.0000 0.0000 686.9998 0.0000 0.0000
# 5 0.0000 0.0000 0.0000 0.0000 10.2332 0.0000
# 6 0.0000 0.0000 0.0000 0.0000 0.0000 -12.1937
#
#
#
# Elastic Compliance Matrix: (Units=1/GPa)
#
#
# Indices 1 2 3 4 5 6 
#
# 1 0.010572 -0.005783 -0.007858 0.000000 0.000000 0.000000
# 2 -0.005783 0.015470 -0.010125 0.000000 0.000000 0.000000
# 3 -0.007858 -0.010125 0.124920 0.000000 0.000000 0.000000
# 4 0.000000 0.000000 0.000000 0.001456 0.000000 0.000000
# 5 0.000000 0.000000 0.000000 0.000000 0.097722 0.000000
# 6 0.000000 0.000000 0.000000 0.000000 0.000000 -0.082010
#
#
# Mechanical properties :
#
#
# Convention : Reuss Voigt Hill
#
# Bulk Modulus (GPa) = 9.66846 45.87520 27.77183
# Shear Modulus (GPa) = 19.98900 147.46164 83.72532
#
# Velocity S-wave (km/s) = 3.61995 9.83210 7.40858
# Velocity P-wave (km/s) = 4.87958 12.60823 9.55976
#
# Compressibility (1/GPa) = 0.10342913
#
# Stress axis : x y z
#
# Youngs Moduli (GPa) = 94.59380 64.64053 8.00515
#
# Poissons Ratio (x) = 0.37383 0.06291
# Poissons Ratio (y) = 0.54706 0.08105
# Poissons Ratio (z) = 0.74334 0.65446
#
# Static dielectric constant tensor:
#      x y z
#    x 1.548840 0.000000 0.000000 
#    y 0.000000 1.488020 0.000000 
#    z 0.000000 0.000000 1.522020 
# 
# From -- ./inp_files/11317.got.cif
#   From: 2010.05.17/outbox.cif.g08.bks.cpg/sg65_6_cif.got.tgz:11317.got - 2010.06.03 17:01:31.
