data_PCOD9482237
_publ_section_title
;
Structure prediction by ZEFSAII (Michael W. Deem and Ramdas Pophale) SiO2 
 PCOD9482237
Probable space group: C M C A
;
_chemical_formula_sum "Si O2"
_cell_formula_units_Z 64
_cell_length_a 19.156102
_cell_length_b 13.691530
_cell_length_c 10.827960
_cell_angle_alpha 90.000000
_cell_angle_beta 90.000000
_cell_angle_gamma 90.000000
_cell_volume 2839.917775
_symmetry_space_group_name_H-M "C M C A"
_symmetry_group_IT_number 64
_symmetry_cell_setting 'orthorhombic'
loop_
_space_group_symop_operation_xyz
x,y,z
-x,1/2-y,1/2+z
x,-y,-z
-x,1/2+y,1/2-z
-x,-y,-z
x,1/2+y,1/2-z
-x,y,z
x,1/2-y,1/2+z
1/2+x,1/2+y,z
1/2-x,-y,1/2+z
1/2+x,1/2-y,-z
1/2-x,y,1/2-z
1/2-x,1/2-y,-z
1/2+x,y,1/2-z
1/2-x,1/2+y,z
1/2+x,-y,1/2+z
loop_
_atom_site_type_symbol
_atom_site_label
_atom_site_fract_x
_atom_site_fract_y
_atom_site_fract_z
Si Si1 0.082378 0.721163 0.580799
Si Si2 0.166300 0.097848 0.385731
Si Si3 0.821686 0.897195 0.898982
Si Si4 0.330715 0.090071 0.742943
O O1 0.105968 0.833354 0.565118
O O2 0.121025 0.661946 0.472479
O O3 0.114567 0.671944 0.705446
O O4 0.000000 0.710198 0.578452
O O5 0.175511 0.135028 0.244186
O O6 0.242212 0.117135 0.444608
O O7 0.154392 0.981643 0.360378
O O8 0.833073 0.012731 0.872251
O O9 0.250000 0.123352 0.750000
#
# Coordination Sequence:
#
# PCOD9482237 Si02
#       4
#    16  16  16  16
#     4  12  22  31  59  90 112 148 181 233 297 326
#     4   8  19  38  54  79 113 148 184 226 277 329
#     4   8  18  38  56  78 107 144 193 231 262 328
#     4   8  19  36  56  79 109 145 187 231 273 327
#
# _framework density 22.535862999999999
#
# number of rings (size 3 to 8) (size 9 to 14) (size 15 to 20)
#    1.500    1.500    0.000    1.500    3.500    4.000 
#    0.000    0.000    0.000    0.000    0.000    3.500 
#    0.000    0.000    0.000    0.000    0.000    0.000 
#
# Total GULP energy -178251.387135 kJ/mol
# GULP energy per Si atom -5570.355848 kJ/mol
# Density = 2.248457 g / cm^3
# Si number density = 22.535863 Si / 1000 Ang^3
#
#
#
# Elastic Constant Matrix: (Units=GPa)
#
#
# Indices 1 2 3 4 5 6 
#
# 1 176.5374 88.4895 34.1325 0.0000 0.0000 0.0000
# 2 88.4895 98.2647 26.4891 0.0000 0.0000 0.0000
# 3 34.1325 26.4891 35.8896 0.0000 0.0000 0.0000
# 4 0.0000 0.0000 0.0000 18.9840 0.0000 0.0000
# 5 0.0000 0.0000 0.0000 0.0000 29.5860 0.0000
# 6 0.0000 0.0000 0.0000 0.0000 0.0000 3.7284
#
#
#
# Elastic Compliance Matrix: (Units=1/GPa)
#
#
# Indices 1 2 3 4 5 6 
#
# 1 0.010732 -0.008630 -0.003837 0.000000 0.000000 0.000000
# 2 -0.008630 0.019644 -0.006291 0.000000 0.000000 0.000000
# 3 -0.003837 -0.006291 0.036156 0.000000 0.000000 0.000000
# 4 0.000000 0.000000 0.000000 0.052676 0.000000 0.000000
# 5 0.000000 0.000000 0.000000 0.000000 0.033800 0.000000
# 6 0.000000 0.000000 0.000000 0.000000 0.000000 0.268211
#
#
# Mechanical properties :
#
#
# Convention : Reuss Voigt Hill
#
# Bulk Modulus (GPa) = 34.46452 67.65710 51.06081
# Shear Modulus (GPa) = 10.67445 21.23171 15.95308
#
# Velocity S-wave (km/s) = 2.17875 3.07274 2.66352
# Velocity P-wave (km/s) = 4.65356 6.53270 5.67150
#
# Compressibility (1/GPa) = 0.02901535
#
# Stress axis : x y z
#
# Youngs Moduli (GPa) = 93.17581 50.90529 27.65811
#
# Poissons Ratio (x) = 0.43933 0.10613
# Poissons Ratio (y) = 0.80414 0.17400
# Poissons Ratio (z) = 0.35753 0.32025
#
# Static dielectric constant tensor:
#      x y z
#    x 1.720550 0.000000 0.000000 
#    y 0.000000 1.913970 0.000000 
#    z 0.000000 0.000000 2.058760 
# 
# From -- ./inp_files/15645.got.cif
#   From: 2010.05.17/outbox.cif.g08.bks.cpg/sg64_8_cif.got.tgz:15645.got - 2010.06.03 16:29:19.
