data_PCOD9482906
_publ_section_title
;
Structure prediction by ZEFSAII (Michael W. Deem and Ramdas Pophale) SiO2 
 PCOD9482906
Probable space group: C M M M
;
_chemical_formula_sum "Si O2"
_cell_formula_units_Z 104
_cell_length_a 8.539489
_cell_length_b 33.701948
_cell_length_c 21.349068
_cell_angle_alpha 90.000000
_cell_angle_beta 90.000000
_cell_angle_gamma 90.000000
_cell_volume 6144.206567
_symmetry_space_group_name_H-M "C M M M"
_symmetry_group_IT_number 65
_symmetry_cell_setting 'orthorhombic'
loop_
_space_group_symop_operation_xyz
x,y,z
-x,-y,z
x,-y,-z
-x,y,-z
-x,-y,-z
x,y,-z
-x,y,z
x,-y,z
1/2+x,1/2+y,z
1/2-x,1/2-y,z
1/2+x,1/2-y,-z
1/2-x,1/2+y,-z
1/2-x,1/2-y,-z
1/2+x,1/2+y,-z
1/2-x,1/2+y,z
1/2+x,1/2-y,z
loop_
_atom_site_type_symbol
_atom_site_label
_atom_site_fract_x
_atom_site_fract_y
_atom_site_fract_z
Si Si1 0.190274 0.500000 0.788255
Si Si2 0.808805 0.453504 0.000000
Si Si3 0.810887 0.662875 0.430197
Si Si4 0.187577 0.500000 0.644388
Si Si5 0.312542 0.584963 0.366519
Si Si6 0.812824 0.129405 0.759928
Si Si7 0.810748 0.577229 0.134316
Si Si8 0.312509 0.793503 0.305217
O O1 0.243895 0.500000 0.716907
O O2 0.240029 0.538763 0.825816
O O3 0.000000 0.500000 0.787497
O O4 0.759873 0.430886 0.063123
O O5 0.759720 0.500000 0.000000
O O6 0.000000 0.454531 0.000000
O O7 0.760110 0.674335 0.500000
O O8 0.747993 0.619426 0.412145
O O9 0.760022 0.692520 0.374931
O O10 0.000000 0.661431 0.429023
O O11 0.248062 0.458443 0.617383
O O12 0.000000 0.500000 0.642957
O O13 0.500000 0.584010 0.367311
O O14 0.260518 0.599407 0.296466
O O15 0.752993 0.114167 0.826651
O O16 0.749083 0.172402 0.740949
O O17 0.000000 0.129962 0.759292
O O18 0.000000 0.578871 0.134672
O O19 0.500000 0.793372 0.303790
O O20 0.250000 0.750000 0.290931
#
# Coordination Sequence:
#
# PCOD9482906 Si02
#       8
#     8   8  16   8  16  16  16  16
#     4   9  16  24  43  69  94 127 170 211 249 292
#     4   9  16  26  45  71 102 139 180 221 253 287
#     4   9  19  36  55  74  99 132 165 195 235 293
#     4  11  19  29  47  70  93 126 171 215 255 298
#     4  10  20  32  47  70  98 127 164 211 256 293
#     4  10  20  33  49  71 100 133 167 206 251 298
#     4  10  17  29  47  71 100 136 178 215 251 293
#     4  10  20  35  56  81 106 129 156 196 244 297
#
# _framework density 16.926514000000001
#
# number of rings (size 3 to 8) (size 9 to 14) (size 15 to 20)
#    0.000    2.231    2.308    1.615    0.000    2.462 
#    0.000    1.154    0.000    2.769    0.000    0.538 
#    0.000    0.000    0.000    0.000    0.000    0.000 
#
# Total GULP energy -290059.879797 kJ/mol
# GULP energy per Si atom -5578.074611 kJ/mol
# Density = 1.688799 g / cm^3
# Si number density = 16.926514 Si / 1000 Ang^3
#
#
#
# Elastic Constant Matrix: (Units=GPa)
#
#
# Indices 1 2 3 4 5 6 
#
# 1 21.6327 20.7677 16.3716 0.0000 0.0000 0.0000
# 2 20.7677 123.0201 41.5361 0.0000 0.0000 0.0000
# 3 16.3716 41.5361 88.8786 0.0000 0.0000 0.0000
# 4 0.0000 0.0000 0.0000 13.4424 0.0000 0.0000
# 5 0.0000 0.0000 0.0000 0.0000 13.7476 0.0000
# 6 0.0000 0.0000 0.0000 0.0000 0.0000 21.2014
#
#
#
# Elastic Compliance Matrix: (Units=1/GPa)
#
#
# Indices 1 2 3 4 5 6 
#
# 1 0.058974 -0.007466 -0.007374 0.000000 0.000000 0.000000
# 2 -0.007466 0.010597 -0.003577 0.000000 0.000000 0.000000
# 3 -0.007374 -0.003577 0.014281 0.000000 0.000000 0.000000
# 4 0.000000 0.000000 0.000000 0.074392 0.000000 0.000000
# 5 0.000000 0.000000 0.000000 0.000000 0.072740 0.000000
# 6 0.000000 0.000000 0.000000 0.000000 0.000000 0.047167
#
#
# Mechanical properties :
#
#
# Convention : Reuss Voigt Hill
#
# Bulk Modulus (GPa) = 21.26831 43.43136 32.34983
# Shear Modulus (GPa) = 15.12136 20.00200 17.56168
#
# Velocity S-wave (km/s) = 2.99214 3.44131 3.22456
# Velocity P-wave (km/s) = 4.95274 6.44241 5.74605
#
# Compressibility (1/GPa) = 0.04701832
#
# Stress axis : x y z
#
# Youngs Moduli (GPa) = 16.95650 94.36737 70.02172
#
# Poissons Ratio (x) = 0.70455 0.51634
# Poissons Ratio (y) = 0.12660 0.25047
# Poissons Ratio (z) = 0.12504 0.33756
#
# Static dielectric constant tensor:
#      x y z
#    x 1.567500 0.000000 0.000000 
#    y 0.000000 1.552040 0.000000 
#    z 0.000000 0.000000 1.584320 
# 
# From -- ./inp_files/60980.got.cif
#   From: 2010.05.17/outbox.cif.g08.bks.cpg/sg65_31_cif.got.tgz:60980.got - 2010.06.03 17:01:31.
