data_PCOD9482574
_publ_section_title
;
Structure prediction by ZEFSAII (Michael W. Deem and Ramdas Pophale) SiO2 
 PCOD9482574
Probable space group: C M M M
;
_chemical_formula_sum "Si O2"
_cell_formula_units_Z 72
_cell_length_a 19.234629
_cell_length_b 8.658102
_cell_length_c 24.156709
_cell_angle_alpha 90.000000
_cell_angle_beta 90.000000
_cell_angle_gamma 90.000000
_cell_volume 4022.946708
_symmetry_space_group_name_H-M "C M M M"
_symmetry_group_IT_number 65
_symmetry_cell_setting 'orthorhombic'
loop_
_space_group_symop_operation_xyz
x,y,z
-x,-y,z
x,-y,-z
-x,y,-z
-x,-y,-z
x,y,-z
-x,y,z
x,-y,z
1/2+x,1/2+y,z
1/2-x,1/2-y,z
1/2+x,1/2-y,-z
1/2-x,1/2+y,-z
1/2-x,1/2-y,-z
1/2+x,1/2+y,-z
1/2-x,1/2+y,z
1/2+x,1/2-y,z
loop_
_atom_site_type_symbol
_atom_site_label
_atom_site_fract_x
_atom_site_fract_y
_atom_site_fract_z
Si Si1 0.919884 0.686874 0.160645
Si Si2 0.671236 0.814851 0.612979
Si Si3 0.826188 0.184944 0.936039
Si Si4 0.328124 0.186186 0.264790
Si Si5 0.329249 0.683833 0.500000
O O1 0.918041 0.500000 0.159467
O O2 0.882226 0.749392 0.106183
O O3 0.876798 0.738379 0.214706
O O4 0.000000 0.735608 0.163422
O O5 0.750000 0.750000 0.614832
O O6 0.642938 0.773743 0.673906
O O7 0.638360 0.744150 0.557471
O O8 0.672995 0.000000 0.607391
O O9 0.750000 0.250000 0.921492
O O10 0.824442 0.000000 0.932694
O O11 0.840503 0.229016 0.000000
O O12 0.250000 0.250000 0.258672
O O13 0.323635 0.000000 0.263091
O O14 0.326101 0.500000 0.500000
O O15 0.250000 0.750000 0.500000
#
# Coordination Sequence:
#
# PCOD9482574 Si02
#       5
#    16  16  16  16   8
#     4  10  21  36  53  75 104 136 169 206 250 297
#     4   9  15  24  38  58  86 118 152 190 236 287
#     4  10  21  37  57  80 105 133 167 206 247 294
#     4   9  18  31  48  70  95 126 163 203 245 291
#     4  10  16  22  34  56  87 118 149 187 235 287
#
# _framework density 17.897328999999999
#
# number of rings (size 3 to 8) (size 9 to 14) (size 15 to 20)
#    0.000    2.444    0.000    4.333    0.000    5.778 
#    0.000    2.222    0.000    0.000    0.000    0.778 
#    0.000    6.222    0.000    0.000    0.000    0.000 
#
# Total GULP energy -200676.616810 kJ/mol
# GULP energy per Si atom -5574.350467 kJ/mol
# Density = 1.785659 g / cm^3
# Si number density = 17.897329 Si / 1000 Ang^3
#
#
#
# Elastic Constant Matrix: (Units=GPa)
#
#
# Indices 1 2 3 4 5 6 
#
# 1 86.0217 24.2294 89.1350 0.0000 0.0000 0.0000
# 2 24.2294 45.6210 40.2497 0.0000 0.0000 0.0000
# 3 89.1350 40.2497 159.0320 0.0000 0.0000 0.0000
# 4 0.0000 0.0000 0.0000 25.6020 0.0000 0.0000
# 5 0.0000 0.0000 0.0000 0.0000 -3.7029 0.0000
# 6 0.0000 0.0000 0.0000 0.0000 0.0000 16.5732
#
#
#
# Elastic Compliance Matrix: (Units=1/GPa)
#
#
# Indices 1 2 3 4 5 6 
#
# 1 0.027790 -0.001310 -0.015244 0.000000 0.000000 0.000000
# 2 -0.001310 0.028283 -0.006424 0.000000 0.000000 0.000000
# 3 -0.015244 -0.006424 0.016458 0.000000 0.000000 0.000000
# 4 0.000000 0.000000 0.000000 0.039059 0.000000 0.000000
# 5 0.000000 0.000000 0.000000 0.000000 -0.270061 0.000000
# 6 0.000000 0.000000 0.000000 0.000000 0.000000 0.060338
#
#
# Mechanical properties :
#
#
# Convention : Reuss Voigt Hill
#
# Bulk Modulus (GPa) = 37.62971 66.43364 52.03168
# Shear Modulus (GPa) = -115.42647 16.83185 -49.29731
#
# Velocity S-wave (km/s) = -8.03951 3.07003 -5.25398
# Velocity P-wave (km/s) = 8.06891 7.05455 2.76953
#
# Compressibility (1/GPa) = 0.02657474
#
# Stress axis : x y z
#
# Youngs Moduli (GPa) = 35.98420 35.35677 60.76016
#
# Poissons Ratio (x) = 0.04631 0.92625
# Poissons Ratio (y) = 0.04713 0.39033
# Poissons Ratio (z) = 0.54856 0.22714
#
# Static dielectric constant tensor:
#      x y z
#    x 1.567870 0.000000 0.000000 
#    y 0.000000 1.604550 0.000000 
#    z 0.000000 0.000000 1.673280 
# 
# From -- ./inp_files/70354.got.cif
#   From: 2010.05.17/outbox.cif.g08.bks.cpg/sg65_36_cif.got.tgz:70354.got - 2010.06.03 17:01:31.
