data_PCOD9482286
_publ_section_title
;
Structure prediction by ZEFSAII (Michael W. Deem and Ramdas Pophale) SiO2 
 PCOD9482286
Probable space group: C M C A
;
_chemical_formula_sum "Si O2"
_cell_formula_units_Z 56
_cell_length_a 12.859035
_cell_length_b 24.569410
_cell_length_c 9.482296
_cell_angle_alpha 90.000000
_cell_angle_beta 90.000000
_cell_angle_gamma 90.000000
_cell_volume 2995.826197
_symmetry_space_group_name_H-M "C M C A"
_symmetry_group_IT_number 64
_symmetry_cell_setting 'orthorhombic'
loop_
_space_group_symop_operation_xyz
x,y,z
-x,1/2-y,1/2+z
x,-y,-z
-x,1/2+y,1/2-z
-x,-y,-z
x,1/2+y,1/2-z
-x,y,z
x,1/2-y,1/2+z
1/2+x,1/2+y,z
1/2-x,-y,1/2+z
1/2+x,1/2-y,-z
1/2-x,y,1/2-z
1/2-x,1/2-y,-z
1/2+x,y,1/2-z
1/2-x,1/2+y,z
1/2+x,-y,1/2+z
loop_
_atom_site_type_symbol
_atom_site_label
_atom_site_fract_x
_atom_site_fract_y
_atom_site_fract_z
Si Si1 0.888143 0.891232 0.004750
Si Si2 0.500000 0.548728 0.774437
Si Si3 0.500000 0.924943 0.758254
Si Si4 0.221515 0.696409 0.913447
Si Si5 0.500000 0.356412 0.456955
O O1 0.902737 0.939377 0.119484
O O2 0.791631 0.853676 0.031687
O O3 0.000000 0.859936 0.027922
O O4 0.902518 0.912911 0.846542
O O5 0.500000 0.488905 0.711201
O O6 0.500000 0.594784 0.656485
O O7 0.500000 0.885409 0.890571
O O8 0.250000 0.704447 0.750000
O O9 0.102288 0.679553 0.933642
O O10 0.250000 0.750000 0.000000
#
# Coordination Sequence:
#
# PCOD9482286 Si02
#       5
#    16   8   8  16   8
#     4   8  19  41  66  88 132 163 212 250 313 381
#     4   9  17  42  66  94 130 169 209 258 321 363
#     4   9  21  38  70  99 128 170 208 258 316 381
#     4  12  27  44  68  92 127 173 210 268 324 367
#     4  12  25  40  66  99 136 153 222 268 303 391
#
# _framework density 18.692674
#
# number of rings (size 3 to 8) (size 9 to 14) (size 15 to 20)
#    1.714    0.000    2.857    2.143    6.000    0.000 
#    0.000    8.571    0.000    0.000    0.000    0.000 
#    0.000    0.000    0.000    0.000    0.000    0.000 
#
# Total GULP energy -155894.288736 kJ/mol
# GULP energy per Si atom -5567.653169 kJ/mol
# Density = 1.865013 g / cm^3
# Si number density = 18.692674 Si / 1000 Ang^3
#
#
#
# Elastic Constant Matrix: (Units=GPa)
#
#
# Indices 1 2 3 4 5 6 
#
# 1 140.2452 66.6920 34.9943 0.0000 0.0000 0.0000
# 2 66.6920 116.4452 65.3141 0.0000 0.0000 0.0000
# 3 34.9943 65.3141 140.7432 0.0000 0.0000 0.0000
# 4 0.0000 0.0000 0.0000 32.1157 0.0000 0.0000
# 5 0.0000 0.0000 0.0000 0.0000 8.0311 0.0000
# 6 0.0000 0.0000 0.0000 0.0000 0.0000 71.4547
#
#
#
# Elastic Compliance Matrix: (Units=1/GPa)
#
#
# Indices 1 2 3 4 5 6 
#
# 1 0.009805 -0.005743 0.000227 0.000000 0.000000 0.000000
# 2 -0.005743 0.014973 -0.005521 0.000000 0.000000 0.000000
# 3 0.000227 -0.005521 0.009611 0.000000 0.000000 0.000000
# 4 0.000000 0.000000 0.000000 0.031137 0.000000 0.000000
# 5 0.000000 0.000000 0.000000 0.000000 0.124516 0.000000
# 6 0.000000 0.000000 0.000000 0.000000 0.000000 0.013995
#
#
# Mechanical properties :
#
#
# Convention : Reuss Voigt Hill
#
# Bulk Modulus (GPa) = 81.19566 81.27049 81.23308
# Shear Modulus (GPa) = 21.71878 37.68250 29.70064
#
# Velocity S-wave (km/s) = 3.41234 4.49474 3.99042
# Velocity P-wave (km/s) = 7.68485 8.39694 8.04877
#
# Compressibility (1/GPa) = 0.01231593
#
# Stress axis : x y z
#
# Youngs Moduli (GPa) = 101.99258 66.78473 104.05145
#
# Poissons Ratio (x) = 0.38354 -0.02365
# Poissons Ratio (y) = 0.58573 0.57444
# Poissons Ratio (z) = -0.02318 0.36870
#
# Static dielectric constant tensor:
#      x y z
#    x 1.648610 0.000000 0.000000 
#    y 0.000000 1.620020 0.000000 
#    z 0.000000 0.000000 1.676600 
# 
# From -- ./inp_files/5403.got.cif
#   From: 2010.05.17/outbox.cif.g08.bks.cpg/sg64_3_cif.got.tgz:5403.got - 2010.06.03 16:29:19.
