data_PCOD9482823
_publ_section_title
;
Structure prediction by ZEFSAII (Michael W. Deem and Ramdas Pophale) SiO2 
 PCOD9482823
Probable space group: C M M M
;
_chemical_formula_sum "Si O2"
_cell_formula_units_Z 56
_cell_length_a 8.601614
_cell_length_b 14.765559
_cell_length_c 21.091887
_cell_angle_alpha 90.000000
_cell_angle_beta 90.000000
_cell_angle_gamma 90.000000
_cell_volume 2678.830770
_symmetry_space_group_name_H-M "C M M M"
_symmetry_group_IT_number 65
_symmetry_cell_setting 'orthorhombic'
loop_
_space_group_symop_operation_xyz
x,y,z
-x,-y,z
x,-y,-z
-x,y,-z
-x,-y,-z
x,y,-z
-x,y,z
x,-y,z
1/2+x,1/2+y,z
1/2-x,1/2-y,z
1/2+x,1/2-y,-z
1/2-x,1/2+y,-z
1/2-x,1/2-y,-z
1/2+x,1/2+y,-z
1/2-x,1/2+y,z
1/2+x,1/2-y,z
loop_
_atom_site_type_symbol
_atom_site_label
_atom_site_fract_x
_atom_site_fract_y
_atom_site_fract_z
Si Si1 0.685523 0.853267 0.300278
Si Si2 0.813407 0.500000 0.925948
Si Si3 0.185601 0.148016 0.167518
Si Si4 0.186583 0.146746 0.569350
O O1 0.500000 0.852791 0.298470
O O2 0.750000 0.750000 0.300855
O O3 0.751726 0.890841 0.234566
O O4 0.743064 0.894453 0.366678
O O5 0.745727 0.413332 0.889542
O O6 0.000000 0.500000 0.920468
O O7 0.771970 0.500000 0.000000
O O8 0.250000 0.250000 0.161057
O O9 0.000000 0.150075 0.169477
O O10 0.225738 0.107032 0.500000
O O11 0.250000 0.250000 0.567444
O O12 0.000000 0.148237 0.575104
#
# Coordination Sequence:
#
# PCOD9482823 Si02
#       4
#    16   8  16  16
#     4  10  17  27  45  70 103 143 189 238 288 342
#     4  11  25  45  67  93 124 155 192 239 291 351
#     4  11  22  39  63  90 122 159 200 244 293 349
#     4   9  15  22  34  57  93 136 182 233 287 340
#
# _framework density 20.904643
#
# number of rings (size 3 to 8) (size 9 to 14) (size 15 to 20)
#    0.000    1.857    0.000    9.857    0.000    3.429 
#    0.000    0.000    0.000    0.000    0.000    1.000 
#    0.000    8.000    0.000    0.000    0.000    0.286 
#
# Total GULP energy -156417.331431 kJ/mol
# GULP energy per Si atom -5586.333265 kJ/mol
# Density = 2.085706 g / cm^3
# Si number density = 20.904643 Si / 1000 Ang^3
#
#
#
# Elastic Constant Matrix: (Units=GPa)
#
#
# Indices 1 2 3 4 5 6 
#
# 1 179.6927 34.9031 110.4483 0.0000 0.0000 0.0000
# 2 34.9031 96.5690 67.3250 0.0000 0.0000 0.0000
# 3 110.4483 67.3250 255.2271 0.0000 0.0000 0.0000
# 4 0.0000 0.0000 0.0000 112.7941 0.0000 0.0000
# 5 0.0000 0.0000 0.0000 0.0000 37.6553 0.0000
# 6 0.0000 0.0000 0.0000 0.0000 0.0000 10.4211
#
#
#
# Elastic Compliance Matrix: (Units=1/GPa)
#
#
# Indices 1 2 3 4 5 6 
#
# 1 0.007606 -0.000557 -0.003145 0.000000 0.000000 0.000000
# 2 -0.000557 0.012730 -0.003117 0.000000 0.000000 0.000000
# 3 -0.003145 -0.003117 0.006101 0.000000 0.000000 0.000000
# 4 0.000000 0.000000 0.000000 0.008866 0.000000 0.000000
# 5 0.000000 0.000000 0.000000 0.000000 0.026557 0.000000
# 6 0.000000 0.000000 0.000000 0.000000 0.000000 0.095959
#
#
# Mechanical properties :
#
#
# Convention : Reuss Voigt Hill
#
# Bulk Modulus (GPa) = 78.12433 106.31573 92.22003
# Shear Modulus (GPa) = 28.45413 53.42825 40.94119
#
# Velocity S-wave (km/s) = 3.69336 5.06098 4.43027
# Velocity P-wave (km/s) = 7.45928 9.22601 8.38928
#
# Compressibility (1/GPa) = 0.01280011
#
# Stress axis : x y z
#
# Youngs Moduli (GPa) = 131.47446 78.55742 163.90490
#
# Poissons Ratio (x) = 0.04374 0.51542
# Poissons Ratio (y) = 0.07320 0.51088
# Poissons Ratio (z) = 0.41344 0.24486
#
# Static dielectric constant tensor:
#      x y z
#    x 1.686830 0.000000 0.000000 
#    y 0.000000 1.493660 0.000000 
#    z 0.000000 0.000000 1.789800 
# 
# From -- ./inp_files/58570.got.cif
#   From: 2010.05.17/outbox.cif.g08.bks.cpg/sg65_30_cif.got.tgz:58570.got - 2010.06.03 17:01:31.
