data_PCOD9482617
_publ_section_title
;
Structure prediction by ZEFSAII (Michael W. Deem and Ramdas Pophale) SiO2 
 PCOD9482617
Probable space group: C M M M
;
_chemical_formula_sum "Si O2"
_cell_formula_units_Z 72
_cell_length_a 21.304065
_cell_length_b 17.075736
_cell_length_c 12.282173
_cell_angle_alpha 90.000000
_cell_angle_beta 90.000000
_cell_angle_gamma 90.000000
_cell_volume 4468.040701
_symmetry_space_group_name_H-M "C M M M"
_symmetry_group_IT_number 65
_symmetry_cell_setting 'orthorhombic'
loop_
_space_group_symop_operation_xyz
x,y,z
-x,-y,z
x,-y,-z
-x,y,-z
-x,-y,-z
x,y,-z
-x,y,z
x,-y,z
1/2+x,1/2+y,z
1/2-x,1/2-y,z
1/2+x,1/2-y,-z
1/2-x,1/2+y,-z
1/2-x,1/2-y,-z
1/2+x,1/2+y,-z
1/2-x,1/2+y,z
1/2+x,1/2-y,z
loop_
_atom_site_type_symbol
_atom_site_label
_atom_site_fract_x
_atom_site_fract_y
_atom_site_fract_z
Si Si1 0.272304 0.659576 0.000000
Si Si2 0.134981 0.592634 0.000000
Si Si3 0.860740 0.635539 0.238772
Si Si4 0.322787 0.279217 0.375422
Si Si5 0.712842 0.591910 0.776954
Si Si6 0.074948 0.500000 0.374618
O O1 0.250000 0.750000 0.000000
O O2 0.305761 0.637478 0.887877
O O3 0.210262 0.605016 0.000000
O O4 0.114918 0.631317 0.114231
O O5 0.120408 0.500000 0.000000
O O6 0.858978 0.719714 0.296042
O O7 0.788055 0.605926 0.236043
O O8 0.898939 0.575350 0.312180
O O9 0.344873 0.276641 0.500000
O O10 0.250000 0.250000 0.375071
O O11 0.320462 0.365134 0.323331
O O12 0.700923 0.500000 0.784753
O O13 0.096575 0.500000 0.500000
O O14 0.000000 0.500000 0.372776
#
# Coordination Sequence:
#
# PCOD9482617 Si02
#       6
#     8   8  16  16  16   8
#     4  10  16  24  38  60  86 118 152 187 218 262
#     4  10  16  26  44  62  78 106 146 179 219 274
#     4  10  17  32  44  61  87 115 144 187 229 262
#     4   9  18  28  40  59  83 114 151 179 216 270
#     4  10  17  27  42  63  87 117 151 185 225 271
#     4  11  22  33  47  65  85 118 159 189 224 276
#
# _framework density 16.114446000000001
#
# number of rings (size 3 to 8) (size 9 to 14) (size 15 to 20)
#    0.000    2.111    2.222    6.333    0.000    1.333 
#    0.000    1.111    0.000    0.000    0.000    0.000 
#    0.000    0.889    0.000    4.667    0.000   22.222 
#
# Total GULP energy -200554.610566 kJ/mol
# GULP energy per Si atom -5570.961405 kJ/mol
# Density = 1.607777 g / cm^3
# Si number density = 16.114446 Si / 1000 Ang^3
#
#
#
# Elastic Constant Matrix: (Units=GPa)
#
#
# Indices 1 2 3 4 5 6 
#
# 1 13.1898 4.8987 16.6912 0.0000 0.0000 0.0000
# 2 4.8987 127.3408 67.6244 0.0000 0.0000 0.0000
# 3 16.6912 67.6244 168.6604 0.0000 0.0000 0.0000
# 4 0.0000 0.0000 0.0000 21.9491 0.0000 0.0000
# 5 0.0000 0.0000 0.0000 0.0000 6.5504 0.0000
# 6 0.0000 0.0000 0.0000 0.0000 0.0000 6.6782
#
#
#
# Elastic Compliance Matrix: (Units=1/GPa)
#
#
# Indices 1 2 3 4 5 6 
#
# 1 0.086912 0.001555 -0.009225 0.000000 0.000000 0.000000
# 2 0.001555 0.010005 -0.004166 0.000000 0.000000 0.000000
# 3 -0.009225 -0.004166 0.008512 0.000000 0.000000 0.000000
# 4 0.000000 0.000000 0.000000 0.045560 0.000000 0.000000
# 5 0.000000 0.000000 0.000000 0.000000 0.152663 0.000000
# 6 0.000000 0.000000 0.000000 0.000000 0.000000 0.149740
#
#
# Mechanical properties :
#
#
# Convention : Reuss Voigt Hill
#
# Bulk Modulus (GPa) = 12.23097 54.17997 33.20547
# Shear Modulus (GPa) = 9.91443 21.70066 15.80755
#
# Velocity S-wave (km/s) = 2.48312 3.67367 3.13542
# Velocity P-wave (km/s) = 3.97840 7.18953 5.81021
#
# Compressibility (1/GPa) = 0.08175966
#
# Stress axis : x y z
#
# Youngs Moduli (GPa) = 11.50588 99.94800 117.47909
#
# Poissons Ratio (x) = -0.15546 1.08372
# Poissons Ratio (y) = -0.01790 0.48936
# Poissons Ratio (z) = 0.10614 0.41633
#
# Static dielectric constant tensor:
#      x y z
#    x 1.502860 0.000000 0.000000 
#    y 0.000000 1.537220 0.000000 
#    z 0.000000 0.000000 1.602420 
# 
# From -- ./inp_files/26584.got.cif
#   From: 2010.05.17/outbox.cif.g08.bks.cpg/sg65_14_cif.got.tgz:26584.got - 2010.06.03 17:01:31.
