data_PCOD9482404
_publ_section_title
;
Structure prediction by ZEFSAII (Michael W. Deem and Ramdas Pophale) SiO2 
 PCOD9482404
Probable space group: C M C A
;
_chemical_formula_sum "Si O2"
_cell_formula_units_Z 56
_cell_length_a 15.000000
_cell_length_b 12.000000
_cell_length_c 30.000000
_cell_angle_alpha 90.000000
_cell_angle_beta 90.000000
_cell_angle_gamma 90.000000
_cell_volume 5400.000000
_symmetry_space_group_name_H-M "C M C A"
_symmetry_group_IT_number 64
_symmetry_cell_setting 'orthorhombic'
loop_
_space_group_symop_operation_xyz
x,y,z
-x,1/2-y,1/2+z
x,-y,-z
-x,1/2+y,1/2-z
-x,-y,-z
x,1/2+y,1/2-z
-x,y,z
x,1/2-y,1/2+z
1/2+x,1/2+y,z
1/2-x,-y,1/2+z
1/2+x,1/2-y,-z
1/2-x,y,1/2-z
1/2-x,1/2-y,-z
1/2+x,y,1/2-z
1/2-x,1/2+y,z
1/2+x,-y,1/2+z
loop_
_atom_site_type_symbol
_atom_site_label
_atom_site_fract_x
_atom_site_fract_y
_atom_site_fract_z
Si Si1 0.297491 0.490409 0.397220
Si Si2 0.104017 0.552534 0.806530
Si Si3 0.352978 0.856719 0.361655
Si Si4 0.101419 0.618211 0.973004
Si Si5 0.600793 0.189942 0.064151
Si Si6 0.100157 0.972015 0.791138
Si Si7 0.212388 0.767730 0.800241
O O1 0.346412 0.491899 0.349704
O O2 0.197916 0.455010 0.387626
O O3 0.336800 0.394984 0.430239
O O4 0.323103 0.605506 0.419980
O O5 0.128621 0.496584 0.759627
O O6 0.131733 0.680266 0.801914
O O7 0.000000 0.537353 0.812803
O O8 0.400531 0.788072 0.400147
O O9 0.283471 0.775647 0.336091
O O10 0.401837 0.916936 0.320832
O O11 0.000000 0.631763 0.957447
O O12 0.107783 0.500000 0.000000
O O13 0.118641 0.709532 0.011599
O O14 0.500000 0.138985 0.065519
O O15 0.171863 0.887223 0.810139
O O16 0.000000 0.925236 0.790123
O O17 0.250000 0.764621 0.750000
#
# Coordination Sequence:
#
# PCOD9482404 Si02
#       7
#    16  16  16  16  16  16  16
#     4  10  20  33  56  83 111 143 180 228 275 323
#     4  10  21  36  55  81 106 141 188 221 262 327
#     4  11  23  37  55  83 111 144 183 226 271 322
#     4   8  15  31  54  81 112 141 175 225 278 322
#     4  10  20  36  58  83 110 144 183 226 274 325
#     4  11  24  39  55  76 109 149 182 220 271 321
#     4  11  23  37  56  75 111 141 178 226 271 313
#
# _framework density 10.370369999999999
#
# number of rings (size 3 to 8) (size 9 to 14) (size 15 to 20)
#    0.000    1.857    1.429    3.857    6.000    0.571 
#    0.000    0.000    0.000    0.000    0.000    0.000 
#    0.000   28.571    0.000    0.000    0.000    0.000 
#
# Total GULP energy -312162.984152 kJ/mol
# GULP energy per Si atom -5574.339003 kJ/mol
# Density = 1.034677 g / cm^3
# Si number density = 10.370370 Si / 1000 Ang^3
#
#
#
# Elastic Constant Matrix: (Units=GPa)
#
#
# Indices 1 2 3 4 5 6 
#
# 1 45.1832 18.5218 22.5967 0.0000 0.0000 0.0000
# 2 18.5218 35.4196 -2.6352 0.0000 0.0000 0.0000
# 3 22.5967 -2.6352 51.1954 0.0000 0.0000 0.0000
# 4 0.0000 0.0000 0.0000 7.4603 0.0000 0.0000
# 5 0.0000 0.0000 0.0000 0.0000 27.7909 0.0000
# 6 0.0000 0.0000 0.0000 0.0000 0.0000 540.8738
#
#
#
# Elastic Compliance Matrix: (Units=1/GPa)
#
#
# Indices 1 2 3 4 5 6 
#
# 1 0.041276 -0.023028 -0.019404 0.000000 0.000000 0.000000
# 2 -0.023028 0.041189 0.012284 0.000000 0.000000 0.000000
# 3 -0.019404 0.012284 0.028730 0.000000 0.000000 0.000000
# 4 0.000000 0.000000 0.000000 0.134043 0.000000 0.000000
# 5 0.000000 0.000000 0.000000 0.000000 0.035983 0.000000
# 6 0.000000 0.000000 0.000000 0.000000 0.000000 0.001849
#
#
# Mechanical properties :
#
#
# Convention : Reuss Voigt Hill
#
# Bulk Modulus (GPa) = 19.64653 23.19609 21.42131
# Shear Modulus (GPa) = 13.87617 121.44600 67.66108
#
# Velocity S-wave (km/s) = 2.58937 7.66038 5.71779
# Velocity P-wave (km/s) = 4.29334 9.45780 7.34448
#
# Compressibility (1/GPa) = 0.05089958
#
# Stress axis : x y z
#
# Youngs Moduli (GPa) = 24.22723 24.27849 34.80719
#
# Poissons Ratio (x) = 0.55908 0.67539
# Poissons Ratio (y) = 0.55790 -0.42758
# Poissons Ratio (z) = 0.47010 -0.29824
#
# Static dielectric constant tensor:
#      x y z
#    x 1.700310 0.000000 0.000000 
#    y 0.000000 1.792190 0.000000 
#    z 0.000000 0.000000 1.787870 
# 
# From -- ./inp_files/53242.got.cif
#   From: 2010.05.17/outbox.ucp.g08.bks.cvg/sg64_27_cif.got.tgz:53242.got - 2010.06.11 16:36:46.
