data_PCOD9482926
_publ_section_title
;
Structure prediction by ZEFSAII (Michael W. Deem and Ramdas Pophale) SiO2 
 PCOD9482926
Probable space group: C M M M
;
_chemical_formula_sum "Si O2"
_cell_formula_units_Z 116
_cell_length_a 7.545535
_cell_length_b 29.237738
_cell_length_c 29.182635
_cell_angle_alpha 90.000000
_cell_angle_beta 90.000000
_cell_angle_gamma 90.000000
_cell_volume 6438.108793
_symmetry_space_group_name_H-M "C M M M"
_symmetry_group_IT_number 65
_symmetry_cell_setting 'orthorhombic'
loop_
_space_group_symop_operation_xyz
x,y,z
-x,-y,z
x,-y,-z
-x,y,-z
-x,-y,-z
x,y,-z
-x,y,z
x,-y,z
1/2+x,1/2+y,z
1/2-x,1/2-y,z
1/2+x,1/2-y,-z
1/2-x,1/2+y,-z
1/2-x,1/2-y,-z
1/2+x,1/2+y,-z
1/2-x,1/2+y,z
1/2+x,1/2-y,z
loop_
_atom_site_type_symbol
_atom_site_label
_atom_site_fract_x
_atom_site_fract_y
_atom_site_fract_z
Si Si1 0.209786 0.444795 0.574711
Si Si2 0.783013 0.553155 0.141080
Si Si3 0.293147 0.102486 0.950222
Si Si4 0.715797 0.947641 0.679345
Si Si5 0.290122 0.301260 0.807435
Si Si6 0.000000 0.081620 0.500000
Si Si7 0.707914 0.103997 0.767985
Si Si8 0.789132 0.198520 0.087712
O O1 0.225863 0.500000 0.568483
O O2 0.262488 0.434763 0.627407
O O3 0.343519 0.421756 0.539750
O O4 0.000000 0.433791 0.568133
O O5 0.735038 0.500000 0.142215
O O6 0.718568 0.577624 0.094702
O O7 0.718947 0.579326 0.186506
O O8 0.000000 0.555765 0.141002
O O9 0.500000 0.089517 0.951896
O O10 0.283669 0.156835 0.941592
O O11 0.214600 0.091439 0.000000
O O12 0.500000 0.947758 0.679218
O O13 0.780199 0.915220 0.720210
O O14 0.771675 0.000000 0.688178
O O15 0.500000 0.306188 0.810264
O O16 0.250000 0.250000 0.791415
O O17 0.223316 0.342016 0.775921
O O18 0.219364 0.305552 0.859762
O O19 0.500000 0.092398 0.767307
O O20 0.750000 0.250000 0.071623
O O21 0.000000 0.193218 0.088594
#
# Coordination Sequence:
#
# PCOD9482926 Si02
#       8
#    16  16  16  16  16   4  16  16
#     4   9  17  28  41  61  92 129 174 222 259 296
#     4   9  17  29  48  73  95 119 158 201 236 281
#     4  10  20  33  49  70  96 122 151 192 240 288
#     4   8  15  28  45  67  97 132 170 209 248 289
#     4  10  20  33  50  73  97 121 153 191 235 292
#     4  12  19  26  44  66  90 132 184 222 258 300
#     4  10  17  29  52  74  95 126 161 197 244 291
#     4  10  20  34  53  72  94 120 149 188 234 291
#
# _framework density 18.017714000000002
#
# number of rings (size 3 to 8) (size 9 to 14) (size 15 to 20)
#    0.000    2.483    1.379    2.897    0.000    4.138 
#    1.241    1.379    0.000    2.483    0.000    0.966 
#    0.000    0.000    0.000    0.621    4.966    2.138 
#
# Total GULP energy -323039.611544 kJ/mol
# GULP energy per Si atom -5569.648475 kJ/mol
# Density = 1.797671 g / cm^3
# Si number density = 18.017714 Si / 1000 Ang^3
#
#
#
# Elastic Constant Matrix: (Units=GPa)
#
#
# Indices 1 2 3 4 5 6 
#
# 1 57.5141 -3.4114 21.3445 0.0000 0.0000 0.0000
# 2 -3.4114 72.6775 60.4516 0.0000 0.0000 0.0000
# 3 21.3445 60.4516 139.5171 0.0000 0.0000 0.0000
# 4 0.0000 0.0000 0.0000 -379.5942 0.0000 0.0000
# 5 0.0000 0.0000 0.0000 0.0000 -5.5989 0.0000
# 6 0.0000 0.0000 0.0000 0.0000 0.0000 7.2839
#
#
#
# Elastic Compliance Matrix: (Units=1/GPa)
#
#
# Indices 1 2 3 4 5 6 
#
# 1 0.019685 0.005361 -0.005334 0.000000 0.000000 0.000000
# 2 0.005361 0.022973 -0.010774 0.000000 0.000000 0.000000
# 3 -0.005334 -0.010774 0.012652 0.000000 0.000000 0.000000
# 4 0.000000 0.000000 0.000000 -0.002634 0.000000 0.000000
# 5 0.000000 0.000000 0.000000 0.000000 -0.178608 0.000000
# 6 0.000000 0.000000 0.000000 0.000000 0.000000 0.137289
#
#
# Mechanical properties :
#
#
# Convention : Reuss Voigt Hill
#
# Bulk Modulus (GPa) = 29.57308 47.38644 38.47976
# Shear Modulus (GPa) = 113.32075 -62.82689 25.24693
#
# Velocity S-wave (km/s) = 7.93918 -5.91145 3.74736
# Velocity P-wave (km/s) = 10.02446 4.49851 6.33456
#
# Compressibility (1/GPa) = 0.03381453
#
# Stress axis : x y z
#
# Youngs Moduli (GPa) = 50.80081 43.53000 79.03896
#
# Poissons Ratio (x) = -0.23337 0.42163
# Poissons Ratio (y) = -0.27235 0.85157
# Poissons Ratio (z) = 0.27099 0.46899
#
# Static dielectric constant tensor:
#      x y z
#    x 1.675310 0.000000 0.000000 
#    y 0.000000 1.588740 0.000000 
#    z 0.000000 0.000000 1.637890 
# 
# From -- ./inp_files/74097.got.cif
#   From: 2010.05.17/outbox.cif.g08.bks.cpg/sg65_38_cif.got.tgz:74097.got - 2010.06.03 17:01:31.
