data_PCOD9482212
_publ_section_title
;
Structure prediction by ZEFSAII (Michael W. Deem and Ramdas Pophale) SiO2 
 PCOD9482212
Probable space group: C M C A
;
_chemical_formula_sum "Si O2"
_cell_formula_units_Z 80
_cell_length_a 21.043366
_cell_length_b 11.986920
_cell_length_c 15.363391
_cell_angle_alpha 90.000000
_cell_angle_beta 90.000000
_cell_angle_gamma 90.000000
_cell_volume 3875.340787
_symmetry_space_group_name_H-M "C M C A"
_symmetry_group_IT_number 64
_symmetry_cell_setting 'orthorhombic'
loop_
_space_group_symop_operation_xyz
x,y,z
-x,1/2-y,1/2+z
x,-y,-z
-x,1/2+y,1/2-z
-x,-y,-z
x,1/2+y,1/2-z
-x,y,z
x,1/2-y,1/2+z
1/2+x,1/2+y,z
1/2-x,-y,1/2+z
1/2+x,1/2-y,-z
1/2-x,y,1/2-z
1/2-x,1/2-y,-z
1/2+x,y,1/2-z
1/2-x,1/2+y,z
1/2+x,-y,1/2+z
loop_
_atom_site_type_symbol
_atom_site_label
_atom_site_fract_x
_atom_site_fract_y
_atom_site_fract_z
Si Si1 0.575504 0.386326 0.454012
Si Si2 0.158091 0.500000 0.500000
Si Si3 0.143576 0.187234 0.721947
Si Si4 0.750000 0.018946 0.750000
Si Si5 0.871809 0.212043 0.908255
Si Si6 0.757898 0.839957 0.883553
O O1 0.599976 0.500000 0.500000
O O2 0.500000 0.395345 0.444586
O O3 0.604800 0.362903 0.358728
O O4 0.592411 0.286132 0.519973
O O5 0.120538 0.418266 0.434784
O O6 0.202211 0.591317 0.453416
O O7 0.189948 0.096330 0.766463
O O8 0.107568 0.232405 0.807473
O O9 0.191552 0.274733 0.676640
O O10 0.728785 0.939644 0.827379
O O11 0.798508 0.258605 0.912211
#
# Coordination Sequence:
#
# PCOD9482212 Si02
#       6
#    16   8  16   8  16  16
#     4  11  28  49  69  94 126 177 238 279 321 392
#     4  12  24  36  61 104 141 176 212 262 338 406
#     4  12  23  41  67  99 137 173 211 276 338 394
#     4  12  20  36  62 104 138 166 216 266 338 412
#     4  12  24  41  68  99 138 177 215 273 334 401
#     4  12  22  38  61 104 139 173 212 265 340 409
#
# _framework density 20.643345
#
# number of rings (size 3 to 8) (size 9 to 14) (size 15 to 20)
#    0.000    0.200    8.000    1.800    4.200    0.800 
#    0.000    0.500    0.000    0.000    0.000    0.000 
#    0.000    0.000    0.000    0.000    0.000    0.000 
#
# Total GULP energy -223161.474505 kJ/mol
# GULP energy per Si atom -5579.036863 kJ/mol
# Density = 2.059636 g / cm^3
# Si number density = 20.643345 Si / 1000 Ang^3
#
#
#
# Elastic Constant Matrix: (Units=GPa)
#
#
# Indices 1 2 3 4 5 6 
#
# 1 34.2167 12.8995 21.3228 0.0000 0.0000 0.0000
# 2 12.8995 109.2041 46.6254 0.0000 0.0000 0.0000
# 3 21.3228 46.6254 93.2683 0.0000 0.0000 0.0000
# 4 0.0000 0.0000 0.0000 37.4452 0.0000 0.0000
# 5 0.0000 0.0000 0.0000 0.0000 17.2507 0.0000
# 6 0.0000 0.0000 0.0000 0.0000 0.0000 42.0802
#
#
#
# Elastic Compliance Matrix: (Units=1/GPa)
#
#
# Indices 1 2 3 4 5 6 
#
# 1 0.034149 -0.000891 -0.007362 0.000000 0.000000 0.000000
# 2 -0.000891 0.011665 -0.005628 0.000000 0.000000 0.000000
# 3 -0.007362 -0.005628 0.015218 0.000000 0.000000 0.000000
# 4 0.000000 0.000000 0.000000 0.026706 0.000000 0.000000
# 5 0.000000 0.000000 0.000000 0.000000 0.057969 0.000000
# 6 0.000000 0.000000 0.000000 0.000000 0.000000 0.023764
#
#
# Mechanical properties :
#
#
# Convention : Reuss Voigt Hill
#
# Bulk Modulus (GPa) = 30.05558 44.26494 37.16026
# Shear Modulus (GPa) = 24.00130 29.74465 26.87298
#
# Velocity S-wave (km/s) = 3.41349 3.80002 3.61193
# Velocity P-wave (km/s) = 5.48880 6.38301 5.95272
#
# Compressibility (1/GPa) = 0.03327169
#
# Stress axis : x y z
#
# Youngs Moduli (GPa) = 29.28352 85.72470 65.71060
#
# Poissons Ratio (x) = 0.07635 0.48375
# Poissons Ratio (y) = 0.02608 0.36981
# Poissons Ratio (z) = 0.21558 0.48245
#
# Static dielectric constant tensor:
#      x y z
#    x 1.702810 0.000000 0.000000 
#    y 0.000000 1.750460 0.000000 
#    z 0.000000 0.000000 1.873740 
# 
# From -- ./inp_files/27128.got.cif
#   From: 2010.05.17/outbox.cif.g08.bks.cpg/sg64_14_cif.got.tgz:27128.got - 2010.06.03 16:29:19.
