data_PCOD9482708
_publ_section_title
;
Structure prediction by ZEFSAII (Michael W. Deem and Ramdas Pophale) SiO2 
 PCOD9482708
Probable space group: C M M M
;
_chemical_formula_sum "Si O2"
_cell_formula_units_Z 72
_cell_length_a 15.356500
_cell_length_b 34.418805
_cell_length_c 7.423585
_cell_angle_alpha 90.000000
_cell_angle_beta 90.000000
_cell_angle_gamma 90.000000
_cell_volume 3923.753512
_symmetry_space_group_name_H-M "C M M M"
_symmetry_group_IT_number 65
_symmetry_cell_setting 'orthorhombic'
loop_
_space_group_symop_operation_xyz
x,y,z
-x,-y,z
x,-y,-z
-x,y,-z
-x,-y,-z
x,y,-z
-x,y,z
x,-y,z
1/2+x,1/2+y,z
1/2-x,1/2-y,z
1/2+x,1/2-y,-z
1/2-x,1/2+y,-z
1/2-x,1/2-y,-z
1/2+x,1/2+y,-z
1/2-x,1/2+y,z
1/2+x,1/2-y,z
loop_
_atom_site_type_symbol
_atom_site_label
_atom_site_fract_x
_atom_site_fract_y
_atom_site_fract_z
Si Si1 0.597460 0.684184 0.780366
Si Si2 0.894236 0.500000 0.706866
Si Si3 0.598591 0.226252 0.219278
Si Si4 0.221126 0.657399 0.784789
Si Si5 0.901077 0.415496 0.283856
O O1 0.500000 0.673492 0.719585
O O2 0.614689 0.729154 0.728253
O O3 0.679407 0.658816 0.719227
O O4 0.594992 0.683480 0.000000
O O5 0.862398 0.500000 0.500000
O O6 0.871691 0.542055 0.786578
O O7 0.000000 0.500000 0.703063
O O8 0.500000 0.215676 0.273111
O O9 0.667203 0.194636 0.284263
O O10 0.600597 0.225943 0.000000
O O11 0.165962 0.618767 0.752322
O O12 0.225780 0.662078 0.000000
O O13 0.906984 0.419365 0.500000
O O14 0.000000 0.406770 0.219378
#
# Coordination Sequence:
#
# PCOD9482708 Si02
#       5
#    16   8  16  16  16
#     4   8  14  24  37  54  78 110 144 170 193 227
#     4   7  12  26  45  59  74 103 136 154 173 227
#     4   8  13  21  34  54  80 107 134 164 196 231
#     4  10  17  24  39  63  85 103 130 171 207 229
#     4   9  17  29  44  61  82 107 131 154 187 238
#
# _framework density 18.349775000000001
#
# number of rings (size 3 to 8) (size 9 to 14) (size 15 to 20)
#    0.000    3.444    0.000    4.000    0.000    4.000 
#    0.000    0.556    0.000    5.333    0.000    3.889 
#    0.000    6.222    0.000    0.000    0.000    0.000 
#
# Total GULP energy -200590.052243 kJ/mol
# GULP energy per Si atom -5571.945896 kJ/mol
# Density = 1.830801 g / cm^3
# Si number density = 18.349775 Si / 1000 Ang^3
#
#
#
# Elastic Constant Matrix: (Units=GPa)
#
#
# Indices 1 2 3 4 5 6 
#
# 1 155.2845 103.0203 6.6134 0.0000 0.0000 0.0000
# 2 103.0203 103.1357 -0.9237 0.0000 0.0000 0.0000
# 3 6.6134 -0.9237 56.9704 0.0000 0.0000 0.0000
# 4 0.0000 0.0000 0.0000 13.5162 0.0000 0.0000
# 5 0.0000 0.0000 0.0000 0.0000 18.7579 0.0000
# 6 0.0000 0.0000 0.0000 0.0000 0.0000 19.3848
#
#
#
# Elastic Compliance Matrix: (Units=1/GPa)
#
#
# Indices 1 2 3 4 5 6 
#
# 1 0.019462 -0.019463 -0.002575 0.000000 0.000000 0.000000
# 2 -0.019463 0.029162 0.002732 0.000000 0.000000 0.000000
# 3 -0.002575 0.002732 0.017896 0.000000 0.000000 0.000000
# 4 0.000000 0.000000 0.000000 0.073985 0.000000 0.000000
# 5 0.000000 0.000000 0.000000 0.000000 0.053311 0.000000
# 6 0.000000 0.000000 0.000000 0.000000 0.000000 0.051587
#
#
# Mechanical properties :
#
#
# Convention : Reuss Voigt Hill
#
# Bulk Modulus (GPa) = 35.83158 59.20118 47.51638
# Shear Modulus (GPa) = 17.04640 24.11050 20.57845
#
# Velocity S-wave (km/s) = 3.05121 3.62876 3.35245
# Velocity P-wave (km/s) = 5.65531 7.06328 6.39814
#
# Compressibility (1/GPa) = 0.02790834
#
# Stress axis : x y z
#
# Youngs Moduli (GPa) = 51.38247 34.29139 55.87789
#
# Poissons Ratio (x) = 0.66742 0.14387
# Poissons Ratio (y) = 1.00007 -0.15267
# Poissons Ratio (z) = 0.13230 -0.09369
#
# Static dielectric constant tensor:
#      x y z
#    x 1.640700 0.000000 0.000000 
#    y 0.000000 1.636400 0.000000 
#    z 0.000000 0.000000 1.731280 
# 
# From -- ./inp_files/7684.got.cif
#   From: 2010.05.17/outbox.cif.g08.bks.cpg/sg65_4_cif.got.tgz:7684.got - 2010.06.03 17:01:31.
