data_PCOD9482712
_publ_section_title
;
Structure prediction by ZEFSAII (Michael W. Deem and Ramdas Pophale) SiO2 
 PCOD9482712
Probable space group: C M M M
;
_chemical_formula_sum "Si O2"
_cell_formula_units_Z 104
_cell_length_a 19.279692
_cell_length_b 8.683706
_cell_length_c 35.370002
_cell_angle_alpha 90.000000
_cell_angle_beta 90.000000
_cell_angle_gamma 90.000000
_cell_volume 5921.616629
_symmetry_space_group_name_H-M "C M M M"
_symmetry_group_IT_number 65
_symmetry_cell_setting 'orthorhombic'
loop_
_space_group_symop_operation_xyz
x,y,z
-x,-y,z
x,-y,-z
-x,y,-z
-x,-y,-z
x,y,-z
-x,y,z
x,-y,z
1/2+x,1/2+y,z
1/2-x,1/2-y,z
1/2+x,1/2-y,-z
1/2-x,1/2+y,-z
1/2-x,1/2-y,-z
1/2+x,1/2+y,-z
1/2-x,1/2+y,z
1/2+x,1/2-y,z
loop_
_atom_site_type_symbol
_atom_site_label
_atom_site_fract_x
_atom_site_fract_y
_atom_site_fract_z
Si Si1 0.328932 0.185290 0.418037
Si Si2 0.171192 0.816100 0.340768
Si Si3 0.671711 0.814740 0.500000
Si Si4 0.827933 0.314698 0.737673
Si Si5 0.419496 0.185393 0.809815
Si Si6 0.827256 0.315676 0.042639
Si Si7 0.080846 0.816010 0.109751
O O1 0.250000 0.250000 0.419286
O O2 0.361209 0.255578 0.379986
O O3 0.360181 0.228173 0.459206
O O4 0.326812 0.000000 0.414588
O O5 0.250000 0.750000 0.340773
O O6 0.141441 0.752145 0.301489
O O7 0.173333 0.000000 0.340572
O O8 0.750000 0.750000 0.500000
O O9 0.676351 0.000000 0.500000
O O10 0.825004 0.500000 0.734902
O O11 0.750000 0.250000 0.742043
O O12 0.873478 0.270155 0.773896
O O13 0.500000 0.231577 0.804396
O O14 0.394509 0.255481 0.849431
O O15 0.417399 0.000000 0.812845
O O16 0.824888 0.500000 0.044804
O O17 0.750000 0.250000 0.047558
O O18 0.876107 0.251575 0.075207
O O19 0.850609 0.272468 0.000000
O O20 0.000000 0.769908 0.106234
O O21 0.085011 0.000000 0.109206
#
# Coordination Sequence:
#
# PCOD9482712 Si02
#       7
#    16  16   8  16  16  16  16
#     4   9  14  21  31  45  67  97 135 176 219 265
#     4  10  17  25  37  54  78 108 142 181 225 271
#     4   8  14  20  28  42  62  92 131 174 215 260
#     4  10  19  31  48  69  92 119 153 193 235 280
#     4   9  19  36  55  73  96 128 164 201 242 287
#     4  10  21  37  57  80 107 139 173 210 251 293
#     4  10  21  36  55  79 106 136 169 205 245 291
#
# _framework density 17.562771000000001
#
# number of rings (size 3 to 8) (size 9 to 14) (size 15 to 20)
#    0.000    2.462    0.000    5.077    0.000    4.615 
#    0.000    3.077    0.000    0.000    0.000    0.000 
#    0.000    0.000    0.000    0.692    0.000   16.615 
#
# Total GULP energy -289742.537059 kJ/mol
# GULP energy per Si atom -5571.971867 kJ/mol
# Density = 1.752280 g / cm^3
# Si number density = 17.562771 Si / 1000 Ang^3
#
#
#
# Elastic Constant Matrix: (Units=GPa)
#
#
# Indices 1 2 3 4 5 6 
#
# 1 27.5491 19.6126 61.9770 0.0000 0.0000 0.0000
# 2 19.6126 65.4194 64.3539 0.0000 0.0000 0.0000
# 3 61.9770 64.3539 231.6440 0.0000 0.0000 0.0000
# 4 0.0000 0.0000 0.0000 30.2755 0.0000 0.0000
# 5 0.0000 0.0000 0.0000 0.0000 -13.5668 0.0000
# 6 0.0000 0.0000 0.0000 0.0000 0.0000 16.0090
#
#
#
# Elastic Compliance Matrix: (Units=1/GPa)
#
#
# Indices 1 2 3 4 5 6 
#
# 1 0.092197 -0.004644 -0.023377 0.000000 0.000000 0.000000
# 2 -0.004644 0.021268 -0.004666 0.000000 0.000000 0.000000
# 3 -0.023377 -0.004666 0.011868 0.000000 0.000000 0.000000
# 4 0.000000 0.000000 0.000000 0.033030 0.000000 0.000000
# 5 0.000000 0.000000 0.000000 0.000000 -0.073709 0.000000
# 6 0.000000 0.000000 0.000000 0.000000 0.000000 0.062465
#
#
# Mechanical properties :
#
#
# Convention : Reuss Voigt Hill
#
# Bulk Modulus (GPa) = 16.67817 68.49993 42.58905
# Shear Modulus (GPa) = 21.50727 18.45482 19.98105
#
# Velocity S-wave (km/s) = 3.50322 3.24511 3.37663
# Velocity P-wave (km/s) = 5.08727 7.28893 6.28526
#
# Compressibility (1/GPa) = 0.05995860
#
# Stress axis : x y z
#
# Youngs Moduli (GPa) = 10.84635 47.01816 84.26010
#
# Poissons Ratio (x) = 0.21834 1.96979
# Poissons Ratio (y) = 0.05037 0.39318
# Poissons Ratio (z) = 0.25356 0.21940
#
# Static dielectric constant tensor:
#      x y z
#    x 1.570980 0.000000 0.000000 
#    y 0.000000 1.586510 0.000000 
#    z 0.000000 0.000000 1.656930 
# 
# From -- ./inp_files/78375.got.cif
#   From: 2010.05.17/outbox.cif.g08.bks.cpg/sg65_40_cif.got.tgz:78375.got - 2010.06.03 17:01:31.
