data_PCOD9482995
_publ_section_title
;
Structure prediction by ZEFSAII (Michael W. Deem and Ramdas Pophale) SiO2 
 PCOD9482995
Probable space group: C M M M
;
_chemical_formula_sum "Si O2"
_cell_formula_units_Z 88
_cell_length_a 29.578584
_cell_length_b 13.867948
_cell_length_c 11.717920
_cell_angle_alpha 90.000000
_cell_angle_beta 90.000000
_cell_angle_gamma 90.000000
_cell_volume 4806.623580
_symmetry_space_group_name_H-M "C M M M"
_symmetry_group_IT_number 65
_symmetry_cell_setting 'orthorhombic'
loop_
_space_group_symop_operation_xyz
x,y,z
-x,-y,z
x,-y,-z
-x,y,-z
-x,-y,-z
x,y,-z
-x,y,z
x,-y,z
1/2+x,1/2+y,z
1/2-x,1/2-y,z
1/2+x,1/2-y,-z
1/2-x,1/2+y,-z
1/2-x,1/2-y,-z
1/2+x,1/2+y,-z
1/2-x,1/2+y,z
1/2+x,1/2-y,z
loop_
_atom_site_type_symbol
_atom_site_label
_atom_site_fract_x
_atom_site_fract_y
_atom_site_fract_z
Si Si1 0.312224 0.108740 0.245259
Si Si2 0.289189 0.613649 0.726515
Si Si3 0.344658 0.103714 0.500000
Si Si4 0.334166 0.315251 0.500000
Si Si5 0.948298 0.115638 0.246288
Si Si6 0.863538 0.215517 0.864926
Si Si7 0.570789 0.608963 0.500000
O O1 0.260368 0.138458 0.226441
O O2 0.316997 0.103084 0.382539
O O3 0.347299 0.184736 0.193920
O O4 0.319555 0.000000 0.200909
O O5 0.288757 0.500000 0.699074
O O6 0.303747 0.670402 0.611956
O O7 0.327010 0.638534 0.819012
O O8 0.361811 0.213789 0.500000
O O9 0.370636 0.000000 0.500000
O O10 0.374760 0.391170 0.500000
O O11 0.911951 0.176584 0.176379
O O12 0.944544 0.149237 0.378496
O O13 0.000000 0.126989 0.207571
O O14 0.937452 0.000000 0.242256
O O15 0.862177 0.225318 0.000000
O O16 0.553175 0.500000 0.500000
#
# Coordination Sequence:
#
# PCOD9482995 Si02
#       7
#    16  16   8   8  16  16   8
#     4  10  22  39  58  83 114 150 193 242 294 344
#     4  11  22  35  55  85 119 154 192 237 289 349
#     4  10  19  33  54  82 112 145 189 238 290 345
#     4  12  19  31  59  88 121 157 188 235 295 353
#     4  10  21  38  61  89 119 149 184 235 300 363
#     4  12  25  39  56  79 111 157 207 246 282 334
#     4  10  17  31  58  91 121 148 183 229 291 363
#
# _framework density 18.308070000000001
#
# number of rings (size 3 to 8) (size 9 to 14) (size 15 to 20)
#    0.000    1.273    3.636    2.727    0.000    6.909 
#    0.000    2.727    0.000    0.545    0.000    1.273 
#    0.000    7.273    0.000    0.000    0.000    0.000 
#
# Total GULP energy -245360.198383 kJ/mol
# GULP energy per Si atom -5576.368145 kJ/mol
# Density = 1.826640 g / cm^3
# Si number density = 18.308070 Si / 1000 Ang^3
#
#
#
# Elastic Constant Matrix: (Units=GPa)
#
#
# Indices 1 2 3 4 5 6 
#
# 1 119.2976 47.5223 44.5741 0.0000 0.0000 0.0000
# 2 47.5223 121.8668 34.0910 0.0000 0.0000 0.0000
# 3 44.5741 34.0910 105.3154 0.0000 0.0000 0.0000
# 4 0.0000 0.0000 0.0000 0.6324 0.0000 0.0000
# 5 0.0000 0.0000 0.0000 0.0000 -14.3892 0.0000
# 6 0.0000 0.0000 0.0000 0.0000 0.0000 24.1968
#
#
#
# Elastic Compliance Matrix: (Units=1/GPa)
#
#
# Indices 1 2 3 4 5 6 
#
# 1 0.011044 -0.003298 -0.003607 0.000000 0.000000 0.000000
# 2 -0.003298 0.010007 -0.001844 0.000000 0.000000 0.000000
# 3 -0.003607 -0.001844 0.011619 0.000000 0.000000 0.000000
# 4 0.000000 0.000000 0.000000 1.581210 0.000000 0.000000
# 5 0.000000 0.000000 0.000000 0.000000 -0.069496 0.000000
# 6 0.000000 0.000000 0.000000 0.000000 0.000000 0.041328
#
#
# Mechanical properties :
#
#
# Convention : Reuss Voigt Hill
#
# Bulk Modulus (GPa) = 65.90410 66.53941 66.22175
# Shear Modulus (GPa) = 3.10894 16.77415 9.94154
#
# Velocity S-wave (km/s) = 1.30454 3.03019 2.33279
# Velocity P-wave (km/s) = 6.19230 6.97610 6.59585
#
# Compressibility (1/GPa) = 0.01517356
#
# Stress axis : x y z
#
# Youngs Moduli (GPa) = 90.55037 99.92675 86.06862
#
# Poissons Ratio (x) = 0.32951 0.31042
# Poissons Ratio (y) = 0.29859 0.15869
# Poissons Ratio (z) = 0.32659 0.18424
#
# Static dielectric constant tensor:
#      x y z
#    x 1.619320 0.000000 0.000000 
#    y 0.000000 1.696180 0.000000 
#    z 0.000000 0.000000 1.633620 
# 
# From -- ./inp_files/33836.got.cif
#   From: 2010.05.17/outbox.cif.g08.bks.cpg/sg65_17_cif.got.tgz:33836.got - 2010.06.03 17:01:31.
