data_PCOD9482524
_publ_section_title
;
Structure prediction by ZEFSAII (Michael W. Deem and Ramdas Pophale) SiO2 
 PCOD9482524
Probable space group: C M C A
;
_chemical_formula_sum "Si O2"
_cell_formula_units_Z 40
_cell_length_a 18.000000
_cell_length_b 30.000000
_cell_length_c 9.000000
_cell_angle_alpha 90.000000
_cell_angle_beta 90.000000
_cell_angle_gamma 90.000000
_cell_volume 4860.000000
_symmetry_space_group_name_H-M "C M C A"
_symmetry_group_IT_number 64
_symmetry_cell_setting 'orthorhombic'
loop_
_space_group_symop_operation_xyz
x,y,z
-x,1/2-y,1/2+z
x,-y,-z
-x,1/2+y,1/2-z
-x,-y,-z
x,1/2+y,1/2-z
-x,y,z
x,1/2-y,1/2+z
1/2+x,1/2+y,z
1/2-x,-y,1/2+z
1/2+x,1/2-y,-z
1/2-x,y,1/2-z
1/2-x,1/2-y,-z
1/2+x,y,1/2-z
1/2-x,1/2+y,z
1/2+x,-y,1/2+z
loop_
_atom_site_type_symbol
_atom_site_label
_atom_site_fract_x
_atom_site_fract_y
_atom_site_fract_z
Si Si1 0.216986 0.451977 0.413399
Si Si2 0.411953 0.884560 0.344740
Si Si3 0.674388 0.783581 0.845351
Si Si4 0.199343 0.360555 0.100258
Si Si5 0.410559 0.205975 0.464152
O O1 0.216795 0.500000 0.500000
O O2 0.250000 0.462064 0.250000
O O3 0.136316 0.427716 0.396467
O O4 0.267293 0.408027 0.461518
O O5 0.500000 0.893201 0.338992
O O6 0.378965 0.870299 0.183142
O O7 0.399649 0.842240 0.455852
O O8 0.750000 0.772841 0.750000
O O9 0.637140 0.742911 0.940958
O O10 0.618255 0.795301 0.707609
O O11 0.692361 0.823026 0.969377
O O12 0.250000 0.348891 0.250000
O O13 0.500000 0.215917 0.468651
#
# Coordination Sequence:
#
# PCOD9482524 Si02
#       5
#    16  16  16  16  16
#     4   9  19  35  56  80 106 136 174 221 277 327
#     4   9  19  37  57  78 108 144 183 223 268 326
#     4  12  23  36  57  82 111 147 194 234 268 323
#     4   9  20  38  56  80 109 141 181 227 278 322
#     4  11  24  38  53  80 116 151 184 225 279 329
#
# _framework density 8.2304530000000007
#
# number of rings (size 3 to 8) (size 9 to 14) (size 15 to 20)
#    0.000    2.400    0.000    4.800    0.000   10.000 
#    0.000    0.000    0.000    9.600    0.000    0.000 
#    0.000    0.000    0.000    0.000    0.000    0.000 
#
# Total GULP energy -222727.081174 kJ/mol
# GULP energy per Si atom -5568.177029 kJ/mol
# Density = 0.821172 g / cm^3
# Si number density = 8.230453 Si / 1000 Ang^3
#
#
#
# Elastic Constant Matrix: (Units=GPa)
#
#
# Indices 1 2 3 4 5 6 
#
# 1 129.5585 68.2203 54.5988 0.0000 0.0000 0.0000
# 2 68.2203 150.6266 71.2322 0.0000 0.0000 0.0000
# 3 54.5988 71.2322 117.1413 0.0000 0.0000 0.0000
# 4 0.0000 0.0000 0.0000 48.4159 0.0000 0.0000
# 5 0.0000 0.0000 0.0000 0.0000 34.5130 0.0000
# 6 0.0000 0.0000 0.0000 0.0000 0.0000 29.1194
#
#
#
# Elastic Compliance Matrix: (Units=1/GPa)
#
#
# Indices 1 2 3 4 5 6 
#
# 1 0.010790 -0.003521 -0.002888 0.000000 0.000000 0.000000
# 2 -0.003521 0.010468 -0.004724 0.000000 0.000000 0.000000
# 3 -0.002888 -0.004724 0.012755 0.000000 0.000000 0.000000
# 4 0.000000 0.000000 0.000000 0.020654 0.000000 0.000000
# 5 0.000000 0.000000 0.000000 0.000000 0.028975 0.000000
# 6 0.000000 0.000000 0.000000 0.000000 0.000000 0.034341
#
#
# Mechanical properties :
#
#
# Convention : Reuss Voigt Hill
#
# Bulk Modulus (GPa) = 85.13093 87.26990 86.20042
# Shear Modulus (GPa) = 34.68258 35.96135 35.32196
#
# Velocity S-wave (km/s) = 4.59515 4.67910 4.63731
# Velocity P-wave (km/s) = 8.94333 9.07323 9.00851
#
# Compressibility (1/GPa) = 0.01174661
#
# Stress axis : x y z
#
# Youngs Moduli (GPa) = 92.68229 95.53178 78.39807
#
# Poissons Ratio (x) = 0.33637 0.22640
# Poissons Ratio (y) = 0.32634 0.37037
# Poissons Ratio (z) = 0.26765 0.45131
#
# Static dielectric constant tensor:
#      x y z
#    x 1.609910 0.000000 0.000000 
#    y 0.000000 1.566290 0.000000 
#    z 0.000000 0.000000 1.554870 
# 
# From -- ./inp_files/7268.got.cif
#   From: 2010.05.17/outbox.ucp.g08.bks.cvg/sg64_4_cif.got.tgz:7268.got - 2010.06.11 16:36:46.
