data_PCOD9482370
_publ_section_title
;
Structure prediction by ZEFSAII (Michael W. Deem and Ramdas Pophale) SiO2 
 PCOD9482370
Probable space group: C M C A
;
_chemical_formula_sum "Si O2"
_cell_formula_units_Z 48
_cell_length_a 9.000000
_cell_length_b 24.000000
_cell_length_c 24.000000
_cell_angle_alpha 90.000000
_cell_angle_beta 90.000000
_cell_angle_gamma 90.000000
_cell_volume 5184.000000
_symmetry_space_group_name_H-M "C M C A"
_symmetry_group_IT_number 64
_symmetry_cell_setting 'orthorhombic'
loop_
_space_group_symop_operation_xyz
x,y,z
-x,1/2-y,1/2+z
x,-y,-z
-x,1/2+y,1/2-z
-x,-y,-z
x,1/2+y,1/2-z
-x,y,z
x,1/2-y,1/2+z
1/2+x,1/2+y,z
1/2-x,-y,1/2+z
1/2+x,1/2-y,-z
1/2-x,y,1/2-z
1/2-x,1/2-y,-z
1/2+x,y,1/2-z
1/2-x,1/2+y,z
1/2+x,-y,1/2+z
loop_
_atom_site_type_symbol
_atom_site_label
_atom_site_fract_x
_atom_site_fract_y
_atom_site_fract_z
Si Si1 0.320453 0.312827 0.688594
Si Si2 0.325783 0.522026 0.585225
Si Si3 0.820120 0.864431 0.472955
Si Si4 0.680769 0.396220 0.593737
Si Si5 0.326313 0.595285 0.692940
Si Si6 0.321822 0.696650 0.872366
O O1 0.500000 0.314505 0.694164
O O2 0.250000 0.312491 0.750000
O O3 0.271712 0.364895 0.649892
O O4 0.283861 0.256580 0.653911
O O5 0.500000 0.516639 0.569719
O O6 0.269766 0.573335 0.547260
O O7 0.263287 0.459574 0.584917
O O8 0.315994 0.546670 0.647293
O O9 0.784528 0.860886 0.538182
O O10 0.747017 0.818953 0.432545
O O11 0.000000 0.862018 0.465596
O O12 0.500000 0.399216 0.596303
O O13 0.500000 0.608410 0.700872
O O14 0.250000 0.578650 0.750000
O O15 0.243796 0.649174 0.668192
O O16 0.500000 0.692534 0.875413
#
# Coordination Sequence:
#
# PCOD9482370 Si02
#       6
#    16  16  16  16  16  16
#     4  10  22  37  53  73  99 135 173 207 246 295
#     4   8  15  28  49  76 102 130 165 203 245 297
#     4   9  17  31  55  82 102 127 166 208 251 299
#     4   9  17  32  53  76 103 134 168 205 246 298
#     4  10  19  31  50  76 101 130 170 213 258 302
#     4  10  20  34  51  73 102 133 167 209 256 301
#
# _framework density 9.2592590000000001
#
# number of rings (size 3 to 8) (size 9 to 14) (size 15 to 20)
#    0.000    2.667    0.000    3.000    0.000    6.000 
#    0.000    0.833    0.000   13.000    0.000    0.000 
#    0.000    0.000    0.000    0.000    0.000    0.000 
#
# Total GULP energy -267589.401476 kJ/mol
# GULP energy per Si atom -5574.779197 kJ/mol
# Density = 0.923818 g / cm^3
# Si number density = 9.259259 Si / 1000 Ang^3
#
#
#
# Elastic Constant Matrix: (Units=GPa)
#
#
# Indices 1 2 3 4 5 6 
#
# 1 28.3146 9.1248 21.8999 0.0000 0.0000 0.0000
# 2 9.1248 50.6825 35.4945 0.0000 0.0000 0.0000
# 3 21.8999 35.4945 108.7200 0.0000 0.0000 0.0000
# 4 0.0000 0.0000 0.0000 10.0355 0.0000 0.0000
# 5 0.0000 0.0000 0.0000 0.0000 24.5167 0.0000
# 6 0.0000 0.0000 0.0000 0.0000 0.0000 15.6229
#
#
#
# Elastic Compliance Matrix: (Units=1/GPa)
#
#
# Indices 1 2 3 4 5 6 
#
# 1 0.042011 -0.002122 -0.007770 0.000000 0.000000 0.000000
# 2 -0.002122 0.025686 -0.007958 0.000000 0.000000 0.000000
# 3 -0.007770 -0.007958 0.013361 0.000000 0.000000 0.000000
# 4 0.000000 0.000000 0.000000 0.099647 0.000000 0.000000
# 5 0.000000 0.000000 0.000000 0.000000 0.040788 0.000000
# 6 0.000000 0.000000 0.000000 0.000000 0.000000 0.064009
#
#
# Mechanical properties :
#
#
# Convention : Reuss Voigt Hill
#
# Bulk Modulus (GPa) = 22.04697 35.63951 28.84324
# Shear Modulus (GPa) = 14.86672 18.11488 16.49080
#
# Velocity S-wave (km/s) = 2.83645 3.13102 2.98737
# Velocity P-wave (km/s) = 4.76009 5.68842 5.24484
#
# Compressibility (1/GPa) = 0.04535770
#
# Stress axis : x y z
#
# Youngs Moduli (GPa) = 23.80347 38.93122 74.84336
#
# Poissons Ratio (x) = 0.08262 0.58150
# Poissons Ratio (y) = 0.05052 0.59564
# Poissons Ratio (z) = 0.18494 0.30983
#
# Static dielectric constant tensor:
#      x y z
#    x 1.624200 0.000000 0.000000 
#    y 0.000000 1.648600 0.000000 
#    z 0.000000 0.000000 1.654260 
# 
# From -- ./inp_files/42960.got.cif
#   From: 2010.05.17/outbox.ucp.g08.bks.cvg/sg64_22_cif.got.tgz:42960.got - 2010.06.11 16:36:46.
