data_PCOD9482569
_publ_section_title
;
Structure prediction by ZEFSAII (Michael W. Deem and Ramdas Pophale) SiO2 
 PCOD9482569
Probable space group: C M M M
;
_chemical_formula_sum "Si O2"
_cell_formula_units_Z 72
_cell_length_a 8.648292
_cell_length_b 24.022294
_cell_length_c 21.612032
_cell_angle_alpha 90.000000
_cell_angle_beta 90.000000
_cell_angle_gamma 90.000000
_cell_volume 4489.938831
_symmetry_space_group_name_H-M "C M M M"
_symmetry_group_IT_number 65
_symmetry_cell_setting 'orthorhombic'
loop_
_space_group_symop_operation_xyz
x,y,z
-x,-y,z
x,-y,-z
-x,y,-z
-x,-y,-z
x,y,-z
-x,y,z
x,-y,z
1/2+x,1/2+y,z
1/2-x,1/2-y,z
1/2+x,1/2-y,-z
1/2-x,1/2+y,-z
1/2-x,1/2-y,-z
1/2+x,1/2+y,-z
1/2-x,1/2+y,z
1/2+x,1/2-y,z
loop_
_atom_site_type_symbol
_atom_site_label
_atom_site_fract_x
_atom_site_fract_y
_atom_site_fract_z
Si Si1 0.314741 0.812987 0.126378
Si Si2 0.814770 0.000000 0.572365
Si Si3 0.816014 0.186576 0.000000
Si Si4 0.313582 0.187227 0.736454
Si Si5 0.812800 0.615911 0.381289
Si Si6 0.686025 0.188157 0.500000
O O1 0.500000 0.811703 0.120209
O O2 0.250000 0.750000 0.128137
O O3 0.244125 0.839376 0.064297
O O4 0.273409 0.834989 0.194692
O O5 0.753567 0.055078 0.606087
O O6 0.762355 0.000000 0.500000
O O7 0.000000 0.000000 0.572418
O O8 0.750000 0.250000 0.000000
O O9 0.000000 0.189102 0.000000
O O10 0.500000 0.191335 0.734007
O O11 0.250000 0.250000 0.728438
O O12 0.262672 0.146247 0.681848
O O13 0.765347 0.654658 0.438989
O O14 0.000000 0.612424 0.380879
O O15 0.500000 0.190555 0.500000
O O16 0.750000 0.250000 0.500000
#
# Coordination Sequence:
#
# PCOD9482569 Si02
#       6
#    16   8   8  16  16   8
#     4   9  15  24  37  56  84 118 152 187 222 263
#     4  11  23  37  53  73  91 114 153 200 243 277
#     4  10  16  22  34  54  80 115 156 191 220 260
#     4   9  18  30  46  68  95 125 157 189 230 279
#     4  10  20  35  52  70  92 123 156 189 232 283
#     4  10  20  31  48  71  95 122 152 184 225 272
#
# _framework density 16.035852999999999
#
# number of rings (size 3 to 8) (size 9 to 14) (size 15 to 20)
#    0.000    2.333    1.111    4.000    0.000    3.111 
#    0.000    0.000    0.000    0.000    0.000    0.000 
#    0.000    0.889    0.000   10.222    0.000    4.667 
#
# Total GULP energy -200587.487950 kJ/mol
# GULP energy per Si atom -5571.874665 kJ/mol
# Density = 1.599935 g / cm^3
# Si number density = 16.035853 Si / 1000 Ang^3
#
#
#
# Elastic Constant Matrix: (Units=GPa)
#
#
# Indices 1 2 3 4 5 6 
#
# 1 40.2356 21.5801 45.3938 0.0000 0.0000 0.0000
# 2 21.5801 93.8462 69.3623 0.0000 0.0000 0.0000
# 3 45.3938 69.3623 195.0272 0.0000 0.0000 0.0000
# 4 0.0000 0.0000 0.0000 1.0532 0.0000 0.0000
# 5 0.0000 0.0000 0.0000 0.0000 13.1266 0.0000
# 6 0.0000 0.0000 0.0000 0.0000 0.0000 21.0166
#
#
#
# Elastic Compliance Matrix: (Units=1/GPa)
#
#
# Indices 1 2 3 4 5 6 
#
# 1 0.034196 -0.002687 -0.007004 0.000000 0.000000 0.000000
# 2 -0.002687 0.014667 -0.004591 0.000000 0.000000 0.000000
# 3 -0.007004 -0.004591 0.008390 0.000000 0.000000 0.000000
# 4 0.000000 0.000000 0.000000 0.949459 0.000000 0.000000
# 5 0.000000 0.000000 0.000000 0.000000 0.076181 0.000000
# 6 0.000000 0.000000 0.000000 0.000000 0.000000 0.047582
#
#
# Mechanical properties :
#
#
# Convention : Reuss Voigt Hill
#
# Bulk Modulus (GPa) = 34.85495 66.86459 50.85977
# Shear Modulus (GPa) = 4.27862 19.89080 12.08471
#
# Velocity S-wave (km/s) = 1.63522 3.52575 2.74817
# Velocity P-wave (km/s) = 5.03469 7.63950 6.46955
#
# Compressibility (1/GPa) = 0.02869033
#
# Stress axis : x y z
#
# Youngs Moduli (GPa) = 29.24278 68.18141 119.18320
#
# Poissons Ratio (x) = 0.18320 0.83474
# Poissons Ratio (y) = 0.07857 0.54716
# Poissons Ratio (z) = 0.20481 0.31301
#
# Static dielectric constant tensor:
#      x y z
#    x 1.539740 0.000000 0.000000 
#    y 0.000000 1.486640 0.000000 
#    z 0.000000 0.000000 1.607000 
# 
# From -- ./inp_files/59428.got.cif
#   From: 2010.05.17/outbox.cif.g08.bks.cpg/sg65_30_cif.got.tgz:59428.got - 2010.06.03 17:01:31.
