data_PCOD9482254
_publ_section_title
;
Structure prediction by ZEFSAII (Michael W. Deem and Ramdas Pophale) SiO2 
 PCOD9482254
Probable space group: C M C A
;
_chemical_formula_sum "Si O2"
_cell_formula_units_Z 56
_cell_length_a 19.302752
_cell_length_b 16.037848
_cell_length_c 9.088289
_cell_angle_alpha 90.000000
_cell_angle_beta 90.000000
_cell_angle_gamma 90.000000
_cell_volume 2813.503455
_symmetry_space_group_name_H-M "C M C A"
_symmetry_group_IT_number 64
_symmetry_cell_setting 'orthorhombic'
loop_
_space_group_symop_operation_xyz
x,y,z
-x,1/2-y,1/2+z
x,-y,-z
-x,1/2+y,1/2-z
-x,-y,-z
x,1/2+y,1/2-z
-x,y,z
x,1/2-y,1/2+z
1/2+x,1/2+y,z
1/2-x,-y,1/2+z
1/2+x,1/2-y,-z
1/2-x,y,1/2-z
1/2-x,1/2-y,-z
1/2+x,y,1/2-z
1/2-x,1/2+y,z
1/2+x,-y,1/2+z
loop_
_atom_site_type_symbol
_atom_site_label
_atom_site_fract_x
_atom_site_fract_y
_atom_site_fract_z
Si Si1 0.805257 0.000000 0.000000
Si Si2 0.924808 0.867625 0.470554
Si Si3 0.725487 0.830990 0.083640
Si Si4 0.077525 0.475391 0.747931
O O1 0.756229 0.918453 0.019345
O O2 0.858295 0.014041 0.137239
O O3 0.856895 0.821238 0.423629
O O4 0.915149 0.898784 0.638346
O O5 0.000000 0.826059 0.458558
O O6 0.924966 0.946335 0.359454
O O7 0.750000 0.830019 0.250000
O O8 0.750000 0.750000 0.000000
O O9 0.000000 0.469648 0.678536
#
# Coordination Sequence:
#
# PCOD9482254 Si02
#       4
#     8  16  16  16
#     4  12  23  40  69  94 136 170 218 274 331 372
#     4   9  19  40  64  90 130 173 214 264 327 386
#     4  12  28  44  66 100 132 171 224 271 321 390
#     4   9  18  35  65 100 127 168 220 265 322 393
#
# _framework density 19.904008999999999
#
# number of rings (size 3 to 8) (size 9 to 14) (size 15 to 20)
#    0.000    1.714    2.857    3.857    4.000    0.000 
#    0.000    4.286    0.000    0.000    0.000    0.000 
#    0.000    0.000    0.000    0.000    0.000    0.000 
#
# Total GULP energy -156108.312384 kJ/mol
# GULP energy per Si atom -5575.296871 kJ/mol
# Density = 1.985871 g / cm^3
# Si number density = 19.904009 Si / 1000 Ang^3
#
#
#
# Elastic Constant Matrix: (Units=GPa)
#
#
# Indices 1 2 3 4 5 6 
#
# 1 183.0412 41.1805 48.1652 0.0000 0.0000 0.0000
# 2 41.1805 83.7504 29.3614 0.0000 0.0000 0.0000
# 3 48.1652 29.3614 88.3155 0.0000 0.0000 0.0000
# 4 0.0000 0.0000 0.0000 4.1935 0.0000 0.0000
# 5 0.0000 0.0000 0.0000 0.0000 33.0355 0.0000
# 6 0.0000 0.0000 0.0000 0.0000 0.0000 -8.6919
#
#
#
# Elastic Compliance Matrix: (Units=1/GPa)
#
#
# Indices 1 2 3 4 5 6 
#
# 1 0.006747 -0.002295 -0.002917 0.000000 0.000000 0.000000
# 2 -0.002295 0.014296 -0.003501 0.000000 0.000000 0.000000
# 3 -0.002917 -0.003501 0.014078 0.000000 0.000000 0.000000
# 4 0.000000 0.000000 0.000000 0.238463 0.000000 0.000000
# 5 0.000000 0.000000 0.000000 0.000000 0.030270 0.000000
# 6 0.000000 0.000000 0.000000 0.000000 0.000000 -0.115049
#
#
# Mechanical properties :
#
#
# Convention : Reuss Voigt Hill
#
# Bulk Modulus (GPa) = 56.51293 65.83572 61.17432
# Shear Modulus (GPa) = 23.57049 21.46742 22.51895
#
# Velocity S-wave (km/s) = 3.44497 3.28769 3.36724
# Velocity P-wave (km/s) = 6.65418 6.89640 6.77637
#
# Compressibility (1/GPa) = 0.01769507
#
# Stress axis : x y z
#
# Youngs Moduli (GPa) = 148.21225 69.94857 71.03401
#
# Poissons Ratio (x) = 0.16053 0.20718
# Poissons Ratio (y) = 0.34015 0.24871
# Poissons Ratio (z) = 0.43229 0.24491
#
# Static dielectric constant tensor:
#      x y z
#    x 1.730330 0.000000 0.000000 
#    y 0.000000 1.683470 0.000000 
#    z 0.000000 0.000000 1.710430 
# 
# From -- ./inp_files/6449.got.cif
#   From: 2010.05.17/outbox.cif.g08.bks.cpg/sg64_4_cif.got.tgz:6449.got - 2010.06.03 16:29:19.
