data_PCOD9482256
_publ_section_title
;
Structure prediction by ZEFSAII (Michael W. Deem and Ramdas Pophale) SiO2 
 PCOD9482256
Probable space group: C M C A
;
_chemical_formula_sum "Si O2"
_cell_formula_units_Z 108
_cell_length_a 16.095716
_cell_length_b 22.198607
_cell_length_c 14.235984
_cell_angle_alpha 90.000000
_cell_angle_beta 90.000000
_cell_angle_gamma 90.000000
_cell_volume 5086.552301
_symmetry_space_group_name_H-M "C M C A"
_symmetry_group_IT_number 64
_symmetry_cell_setting 'orthorhombic'
loop_
_space_group_symop_operation_xyz
x,y,z
-x,1/2-y,1/2+z
x,-y,-z
-x,1/2+y,1/2-z
-x,-y,-z
x,1/2+y,1/2-z
-x,y,z
x,1/2-y,1/2+z
1/2+x,1/2+y,z
1/2-x,-y,1/2+z
1/2+x,1/2-y,-z
1/2-x,y,1/2-z
1/2-x,1/2-y,-z
1/2+x,y,1/2-z
1/2-x,1/2+y,z
1/2+x,-y,1/2+z
loop_
_atom_site_type_symbol
_atom_site_label
_atom_site_fract_x
_atom_site_fract_y
_atom_site_fract_z
Si Si1 0.000000 0.500000 0.000000
Si Si2 0.811569 0.226543 0.918929
Si Si3 0.904444 0.156480 0.075158
Si Si4 0.187761 0.030648 0.098962
Si Si5 0.878798 0.450947 0.866638
Si Si6 0.592925 0.058255 0.736811
Si Si7 0.347994 0.172044 0.228099
Si Si8 0.750000 0.145655 0.750000
O O1 0.926073 0.451441 0.965201
O O2 0.850524 0.279899 0.856207
O O3 0.762986 0.185620 0.843165
O O4 0.750000 0.250000 0.000000
O O5 0.877651 0.189138 0.979721
O O6 0.851691 0.095943 0.087338
O O7 0.886688 0.192449 0.172409
O O8 0.000000 0.140476 0.071286
O O9 0.280308 0.038887 0.137007
O O10 0.129077 0.986244 0.157344
O O11 0.198550 0.000000 0.000000
O O12 0.915474 0.511912 0.822718
O O13 0.890387 0.389985 0.806885
O O14 0.500000 0.082169 0.715252
O O15 0.665912 0.105939 0.756327
O O16 0.250000 0.162437 0.250000
#
# Coordination Sequence:
#
# PCOD9482256 Si02
#       8
#     4  16  16  16  16  16  16   8
#     4  12  28  40  72 116 152 188 248 308 378 454
#     4  12  25  49  76 105 142 199 260 316 381 456
#     4  12  27  45  70 108 147 191 258 318 375 460
#     4  12  23  41  70 100 142 195 235 289 372 461
#     4  12  23  45  70 108 148 187 239 304 375 458
#     4  12  25  43  70 106 149 187 235 300 384 456
#     4  12  23  47  80 105 140 204 258 309 380 458
#     4  12  26  46  78 104 150 196 242 320 382 446
#
# _framework density 21.232455999999999
#
# number of rings (size 3 to 8) (size 9 to 14) (size 15 to 20)
#    0.000    0.000    8.148    1.333    1.037    4.741 
#    0.000    2.222    0.000    0.000    0.000    0.000 
#    0.000    0.000    0.000    0.000    0.000    0.000 
#
# Total GULP energy -301217.984888 kJ/mol
# GULP energy per Si atom -5578.110831 kJ/mol
# Density = 2.118413 g / cm^3
# Si number density = 21.232456 Si / 1000 Ang^3
#
#
#
# Elastic Constant Matrix: (Units=GPa)
#
#
# Indices 1 2 3 4 5 6 
#
# 1 154.3563 35.1117 21.0256 0.0000 0.0000 0.0000
# 2 35.1117 94.0080 53.8164 0.0000 0.0000 0.0000
# 3 21.0256 53.8164 121.7694 0.0000 0.0000 0.0000
# 4 0.0000 0.0000 0.0000 42.8356 0.0000 0.0000
# 5 0.0000 0.0000 0.0000 0.0000 23.3242 0.0000
# 6 0.0000 0.0000 0.0000 0.0000 0.0000 3.4442
#
#
#
# Elastic Compliance Matrix: (Units=1/GPa)
#
#
# Indices 1 2 3 4 5 6 
#
# 1 0.007081 -0.002603 -0.000072 0.000000 0.000000 0.000000
# 2 -0.002603 0.015197 -0.006267 0.000000 0.000000 0.000000
# 3 -0.000072 -0.006267 0.010994 0.000000 0.000000 0.000000
# 4 0.000000 0.000000 0.000000 0.023345 0.000000 0.000000
# 5 0.000000 0.000000 0.000000 0.000000 0.042874 0.000000
# 6 0.000000 0.000000 0.000000 0.000000 0.000000 0.290347
#
#
# Mechanical properties :
#
#
# Convention : Reuss Voigt Hill
#
# Bulk Modulus (GPa) = 64.98755 65.56013 65.27384
# Shear Modulus (GPa) = 12.11088 31.26614 21.68851
#
# Velocity S-wave (km/s) = 2.39088 3.84156 3.19953
# Velocity P-wave (km/s) = 6.18837 7.11485 6.66772
#
# Compressibility (1/GPa) = 0.01538756
#
# Stress axis : x y z
#
# Youngs Moduli (GPa) = 141.23280 65.80081 90.95526
#
# Poissons Ratio (x) = 0.17130 0.00655
# Poissons Ratio (y) = 0.36767 0.57002
# Poissons Ratio (z) = 0.01017 0.41238
#
# Static dielectric constant tensor:
#      x y z
#    x 1.699330 0.000000 0.000000 
#    y 0.000000 1.785020 0.000000 
#    z 0.000000 0.000000 1.879890 
# 
# From -- ./inp_files/24317.got.cif
#   From: 2010.05.17/outbox.cif.g08.bks.cpg/sg64_13_cif.got.tgz:24317.got - 2010.06.03 16:29:19.
