data_PCOD9482387
_publ_section_title
;
Structure prediction by ZEFSAII (Michael W. Deem and Ramdas Pophale) SiO2 
 PCOD9482387
Probable space group: C M C A
;
_chemical_formula_sum "Si O2"
_cell_formula_units_Z 48
_cell_length_a 9.000000
_cell_length_b 24.000000
_cell_length_c 24.000000
_cell_angle_alpha 90.000000
_cell_angle_beta 90.000000
_cell_angle_gamma 90.000000
_cell_volume 5184.000000
_symmetry_space_group_name_H-M "C M C A"
_symmetry_group_IT_number 64
_symmetry_cell_setting 'orthorhombic'
loop_
_space_group_symop_operation_xyz
x,y,z
-x,1/2-y,1/2+z
x,-y,-z
-x,1/2+y,1/2-z
-x,-y,-z
x,1/2+y,1/2-z
-x,y,z
x,1/2-y,1/2+z
1/2+x,1/2+y,z
1/2-x,-y,1/2+z
1/2+x,1/2-y,-z
1/2-x,y,1/2-z
1/2-x,1/2-y,-z
1/2+x,y,1/2-z
1/2-x,1/2+y,z
1/2+x,-y,1/2+z
loop_
_atom_site_type_symbol
_atom_site_label
_atom_site_fract_x
_atom_site_fract_y
_atom_site_fract_z
Si Si1 0.180729 0.357769 0.918094
Si Si2 0.177036 0.021781 0.063659
Si Si3 0.820463 0.240471 0.134394
Si Si4 0.830914 0.682425 0.967186
Si Si5 0.330071 0.917245 0.112532
Si Si6 0.674678 0.836938 0.304351
O O1 0.249451 0.418690 0.924059
O O2 0.245597 0.319799 0.868835
O O3 0.000000 0.359685 0.917701
O O4 0.239464 0.324480 0.972978
O O5 0.000000 0.023405 0.074440
O O6 0.263474 0.977020 0.100889
O O7 0.195966 0.000000 0.000000
O O8 0.769470 0.277760 0.080542
O O9 0.758592 0.278979 0.183325
O O10 0.000000 0.238048 0.135459
O O11 0.836984 0.619744 0.943512
O O12 0.000000 0.701893 0.975859
O O13 0.500000 0.918102 0.134453
O O14 0.217919 0.881507 0.149163
O O15 0.500000 0.828601 0.300200
O O16 0.750000 0.861164 0.250000
#
# Coordination Sequence:
#
# PCOD9482387 Si02
#       6
#    16  16  16  16  16  16
#     4  11  20  32  50  75 108 152 191 225 269 323
#     4  11  22  34  50  77 112 153 194 231 271 324
#     4  10  20  35  52  78 110 143 181 228 276 328
#     4   8  16  29  48  73 105 143 181 220 266 316
#     4  10  19  35  56  81 110 145 186 232 277 324
#     4  11  22  39  62  87 110 139 178 228 283 335
#
# _framework density 9.2592590000000001
#
# number of rings (size 3 to 8) (size 9 to 14) (size 15 to 20)
#    0.000    1.833    1.667    5.000    0.000    0.667 
#    0.000    1.667    0.000    1.000    0.000    7.000 
#    0.000    0.000    0.000    0.000    0.000    0.000 
#
# Total GULP energy -267260.652291 kJ/mol
# GULP energy per Si atom -5567.930256 kJ/mol
# Density = 0.923818 g / cm^3
# Si number density = 9.259259 Si / 1000 Ang^3
#
#
#
# Elastic Constant Matrix: (Units=GPa)
#
#
# Indices 1 2 3 4 5 6 
#
# 1 98.5880 35.9688 5.5613 0.0000 0.0000 0.0000
# 2 35.9688 83.3942 12.5216 0.0000 0.0000 0.0000
# 3 5.5613 12.5216 21.3221 0.0000 0.0000 0.0000
# 4 0.0000 0.0000 0.0000 95.5126 0.0000 0.0000
# 5 0.0000 0.0000 0.0000 0.0000 17.4427 0.0000
# 6 0.0000 0.0000 0.0000 0.0000 0.0000 31.0335
#
#
#
# Elastic Compliance Matrix: (Units=1/GPa)
#
#
# Indices 1 2 3 4 5 6 
#
# 1 0.012038 -0.005177 -0.000099 0.000000 0.000000 0.000000
# 2 -0.005177 0.015377 -0.007680 0.000000 0.000000 0.000000
# 3 -0.000099 -0.007680 0.051436 0.000000 0.000000 0.000000
# 4 0.000000 0.000000 0.000000 0.010470 0.000000 0.000000
# 5 0.000000 0.000000 0.000000 0.000000 0.057331 0.000000
# 6 0.000000 0.000000 0.000000 0.000000 0.000000 0.032223
#
#
# Mechanical properties :
#
#
# Convention : Reuss Voigt Hill
#
# Bulk Modulus (GPa) = 18.89022 34.60086 26.74554
# Shear Modulus (GPa) = 22.47863 38.74794 30.61328
#
# Velocity S-wave (km/s) = 3.48781 4.57923 4.07027
# Velocity P-wave (km/s) = 5.14224 6.83258 6.04676
#
# Compressibility (1/GPa) = 0.05293745
#
# Stress axis : x y z
#
# Youngs Moduli (GPa) = 83.07302 65.03088 19.44172
#
# Poissons Ratio (x) = 0.33667 0.00193
# Poissons Ratio (y) = 0.43007 0.14932
# Poissons Ratio (z) = 0.00826 0.49945
#
# Static dielectric constant tensor:
#      x y z
#    x 1.612350 0.000000 0.000000 
#    y 0.000000 1.649000 0.000000 
#    z 0.000000 0.000000 1.367040 
# 
# From -- ./inp_files/43055.got.cif
#   From: 2010.05.17/outbox.ucp.g08.bks.cvg/sg64_22_cif.got.tgz:43055.got - 2010.06.11 16:36:46.
