data_PCOD9482949
_publ_section_title
;
Structure prediction by ZEFSAII (Michael W. Deem and Ramdas Pophale) SiO2 
 PCOD9482949
Probable space group: C M M M
;
_chemical_formula_sum "Si O2"
_cell_formula_units_Z 116
_cell_length_a 26.780531
_cell_length_b 24.474176
_cell_length_c 7.387466
_cell_angle_alpha 90.000000
_cell_angle_beta 90.000000
_cell_angle_gamma 90.000000
_cell_volume 4841.977398
_symmetry_space_group_name_H-M "C M M M"
_symmetry_group_IT_number 65
_symmetry_cell_setting 'orthorhombic'
loop_
_space_group_symop_operation_xyz
x,y,z
-x,-y,z
x,-y,-z
-x,y,-z
-x,-y,-z
x,y,-z
-x,y,z
x,-y,z
1/2+x,1/2+y,z
1/2-x,1/2-y,z
1/2+x,1/2-y,-z
1/2-x,1/2+y,-z
1/2-x,1/2-y,-z
1/2+x,1/2+y,-z
1/2-x,1/2+y,z
1/2+x,1/2-y,z
loop_
_atom_site_type_symbol
_atom_site_label
_atom_site_fract_x
_atom_site_fract_y
_atom_site_fract_z
Si Si1 0.661440 0.672922 0.210287
Si Si2 0.078342 0.440393 0.291430
Si Si3 0.553402 0.180803 0.207408
Si Si4 0.053578 0.140544 0.711695
Si Si5 0.000000 0.918380 0.000000
Si Si6 0.701134 0.558358 0.220882
Si Si7 0.837018 0.710185 0.778058
Si Si8 0.689932 0.091379 0.781485
O O1 0.601330 0.673428 0.223957
O O2 0.676789 0.614440 0.287840
O O3 0.680942 0.730473 0.284144
O O4 0.676809 0.671837 0.000000
O O5 0.062420 0.438958 0.500000
O O6 0.064888 0.500000 0.215912
O O7 0.057977 0.385242 0.204324
O O8 0.138521 0.434261 0.285696
O O9 0.500000 0.195015 0.291540
O O10 0.605736 0.201293 0.285742
O O11 0.552800 0.199987 0.000000
O O12 0.058265 0.128130 0.500000
O O13 0.000000 0.170805 0.740791
O O14 0.043378 0.088569 0.840641
O O15 0.680109 0.500000 0.281270
O O16 0.759373 0.562164 0.270821
O O17 0.698147 0.558805 0.000000
O O18 0.808115 0.655298 0.726816
O O19 0.837301 0.711000 0.000000
O O20 0.686762 0.089701 0.000000
#
# Coordination Sequence:
#
# PCOD9482949 Si02
#       8
#    16  16  16  16   4  16  16  16
#     4  10  17  30  50  75 109 143 176 218 273 324
#     4  10  20  32  48  70  97 132 170 209 256 310
#     4   9  18  33  49  70  97 125 166 214 257 307
#     4   9  17  30  51  80 110 144 187 222 261 328
#     4   8  14  32  52  78 109 148 182 222 273 306
#     4   9  18  30  50  79 106 135 174 221 269 321
#     4   8  16  28  48  74  99 134 173 215 265 317
#     4   9  17  33  52  72  98 131 178 224 264 314
#
# _framework density 23.957156000000001
#
# number of rings (size 3 to 8) (size 9 to 14) (size 15 to 20)
#    0.414    2.483    0.690    1.655    0.000    3.310 
#    0.000    8.966    0.000    1.655    0.000    8.207 
#    0.000    0.000    0.000    0.000    0.000    0.000 
#
# Total GULP energy -322931.718587 kJ/mol
# GULP energy per Si atom -5567.788252 kJ/mol
# Density = 2.390263 g / cm^3
# Si number density = 23.957156 Si / 1000 Ang^3
#
#
#
# Elastic Constant Matrix: (Units=GPa)
#
#
# Indices 1 2 3 4 5 6 
#
# 1 21.1790 33.5324 -16.7825 0.0000 0.0000 0.0000
# 2 33.5324 171.8407 8.0732 0.0000 0.0000 0.0000
# 3 -16.7825 8.0732 94.1579 0.0000 0.0000 0.0000
# 4 0.0000 0.0000 0.0000 8.6085 0.0000 0.0000
# 5 0.0000 0.0000 0.0000 0.0000 -115.5578 0.0000
# 6 0.0000 0.0000 0.0000 0.0000 0.0000 43.6419
#
#
#
# Elastic Compliance Matrix: (Units=1/GPa)
#
#
# Indices 1 2 3 4 5 6 
#
# 1 0.090564 -0.018505 0.017729 0.000000 0.000000 0.000000
# 2 -0.018505 0.009624 -0.004124 0.000000 0.000000 0.000000
# 3 0.017729 -0.004124 0.014134 0.000000 0.000000 0.000000
# 4 0.000000 0.000000 0.000000 0.116164 0.000000 0.000000
# 5 0.000000 0.000000 0.000000 0.000000 -0.008654 0.000000
# 6 0.000000 0.000000 0.000000 0.000000 0.000000 0.022914
#
#
# Mechanical properties :
#
#
# Convention : Reuss Voigt Hill
#
# Bulk Modulus (GPa) = 9.56736 37.42485 23.49610
# Shear Modulus (GPa) = 17.27784 4.82881 11.05332
#
# Velocity S-wave (km/s) = 2.68843 1.42126 2.15030
# Velocity P-wave (km/s) = 3.69311 4.28355 3.99924
#
# Compressibility (1/GPa) = 0.10452209
#
# Stress axis : x y z
#
# Youngs Moduli (GPa) = 11.04187 103.90543 70.75166
#
# Poissons Ratio (x) = 1.92280 -1.25433
# Poissons Ratio (y) = 0.20433 0.29175
# Poissons Ratio (z) = -0.19576 0.42846
#
# Static dielectric constant tensor:
#      x y z
#    x 1.921000 0.000000 0.000000 
#    y 0.000000 1.952490 0.000000 
#    z 0.000000 0.000000 1.907410 
# 
# From -- ./inp_files/18971.got.cif
#   From: 2010.05.17/outbox.cif.g08.bks.cpg/sg65_10_cif.got.tgz:18971.got - 2010.06.03 17:01:31.
