data_PCOD9482597
_publ_section_title
;
Structure prediction by ZEFSAII (Michael W. Deem and Ramdas Pophale) SiO2 
 PCOD9482597
Probable space group: C M M M
;
_chemical_formula_sum "Si O2"
_cell_formula_units_Z 80
_cell_length_a 25.082509
_cell_length_b 26.636966
_cell_length_c 7.461821
_cell_angle_alpha 90.000000
_cell_angle_beta 90.000000
_cell_angle_gamma 90.000000
_cell_volume 4985.406318
_symmetry_space_group_name_H-M "C M M M"
_symmetry_group_IT_number 65
_symmetry_cell_setting 'orthorhombic'
loop_
_space_group_symop_operation_xyz
x,y,z
-x,-y,z
x,-y,-z
-x,y,-z
-x,-y,-z
x,y,-z
-x,y,z
x,-y,z
1/2+x,1/2+y,z
1/2-x,1/2-y,z
1/2+x,1/2-y,-z
1/2-x,1/2+y,-z
1/2-x,1/2-y,-z
1/2+x,1/2+y,-z
1/2-x,1/2+y,z
1/2+x,1/2-y,z
loop_
_atom_site_type_symbol
_atom_site_label
_atom_site_fract_x
_atom_site_fract_y
_atom_site_fract_z
Si Si1 0.117328 0.744597 0.279457
Si Si2 0.681661 0.146025 0.285143
Si Si3 0.500000 0.231842 0.708632
Si Si4 0.894037 0.556647 0.786116
Si Si5 0.000000 0.385934 0.217862
Si Si6 0.783247 0.802392 0.708066
O O1 0.117395 0.744538 0.500000
O O2 0.141663 0.690481 0.223739
O O3 0.056733 0.749676 0.216545
O O4 0.159111 0.787100 0.218013
O O5 0.684622 0.151449 0.500000
O O6 0.656209 0.092493 0.246723
O O7 0.741161 0.157805 0.214809
O O8 0.500000 0.246391 0.500000
O O9 0.500000 0.171335 0.719479
O O10 0.889114 0.500000 0.716271
O O11 0.947101 0.585003 0.719919
O O12 0.900360 0.553192 0.000000
O O13 0.000000 0.384793 0.000000
O O14 0.792316 0.815883 0.500000
O O15 0.750000 0.750000 0.710688
#
# Coordination Sequence:
#
# PCOD9482597 Si02
#       6
#    16  16   8  16   8  16
#     4   8  13  21  35  56  77  94 116 146 180 214
#     4   9  15  25  41  56  70  90 120 155 184 212
#     4  10  16  23  39  59  76  94 121 157 184 202
#     4  10  20  31  40  50  68  96 127 157 190 224
#     4  10  19  30  40  48  66  98 130 155 185 221
#     4   7  11  20  35  54  73  93 114 139 177 222
#
# _framework density 16.046835000000002
#
# number of rings (size 3 to 8) (size 9 to 14) (size 15 to 20)
#    0.000    3.200    2.000    2.700    0.000    1.600 
#    0.000    0.000    0.000    8.400    0.000    0.000 
#    0.000    0.000    0.000    0.900    0.000   22.000 
#
# Total GULP energy -222742.308892 kJ/mol
# GULP energy per Si atom -5568.557722 kJ/mol
# Density = 1.601031 g / cm^3
# Si number density = 16.046835 Si / 1000 Ang^3
#
#
#
# Elastic Constant Matrix: (Units=GPa)
#
#
# Indices 1 2 3 4 5 6 
#
# 1 163.5690 59.8488 3.5436 0.0000 0.0000 0.0000
# 2 59.8488 51.1619 -4.2009 0.0000 0.0000 0.0000
# 3 3.5436 -4.2009 46.0203 0.0000 0.0000 0.0000
# 4 0.0000 0.0000 0.0000 13.0248 0.0000 0.0000
# 5 0.0000 0.0000 0.0000 0.0000 3.3415 0.0000
# 6 0.0000 0.0000 0.0000 0.0000 0.0000 12.1039
#
#
#
# Elastic Compliance Matrix: (Units=1/GPa)
#
#
# Indices 1 2 3 4 5 6 
#
# 1 0.010870 -0.012881 -0.002013 0.000000 0.000000 0.000000
# 2 -0.012881 0.034958 0.004183 0.000000 0.000000 0.000000
# 3 -0.002013 0.004183 0.022266 0.000000 0.000000 0.000000
# 4 0.000000 0.000000 0.000000 0.076777 0.000000 0.000000
# 5 0.000000 0.000000 0.000000 0.000000 0.299268 0.000000
# 6 0.000000 0.000000 0.000000 0.000000 0.000000 0.082618
#
#
# Mechanical properties :
#
#
# Convention : Reuss Voigt Hill
#
# Bulk Modulus (GPa) = 21.42615 42.12603 31.77609
# Shear Modulus (GPa) = 8.86938 19.13136 14.00037
#
# Velocity S-wave (km/s) = 2.35355 3.45660 2.95696
# Velocity P-wave (km/s) = 4.55706 6.49921 5.61278
#
# Compressibility (1/GPa) = 0.04667195
#
# Stress axis : x y z
#
# Youngs Moduli (GPa) = 91.99222 28.60583 44.91077
#
# Poissons Ratio (x) = 0.36849 0.09040
# Poissons Ratio (y) = 1.18500 -0.18786
# Poissons Ratio (z) = 0.18517 -0.11966
#
# Static dielectric constant tensor:
#      x y z
#    x 1.586450 0.000000 0.000000 
#    y 0.000000 1.513910 0.000000 
#    z 0.000000 0.000000 1.612630 
# 
# From -- ./inp_files/14512.got.cif
#   From: 2010.05.17/outbox.cif.g08.bks.cpg/sg65_8_cif.got.tgz:14512.got - 2010.06.03 17:01:31.
