data_PCOD9482698
_publ_section_title
;
Structure prediction by ZEFSAII (Michael W. Deem and Ramdas Pophale) SiO2 
 PCOD9482698
Probable space group: C M M M
;
_chemical_formula_sum "Si O2"
_cell_formula_units_Z 88
_cell_length_a 29.512625
_cell_length_b 18.661465
_cell_length_c 12.156346
_cell_angle_alpha 90.000000
_cell_angle_beta 90.000000
_cell_angle_gamma 90.000000
_cell_volume 6695.093197
_symmetry_space_group_name_H-M "C M M M"
_symmetry_group_IT_number 65
_symmetry_cell_setting 'orthorhombic'
loop_
_space_group_symop_operation_xyz
x,y,z
-x,-y,z
x,-y,-z
-x,y,-z
-x,-y,-z
x,y,-z
-x,y,z
x,-y,z
1/2+x,1/2+y,z
1/2-x,1/2-y,z
1/2+x,1/2-y,-z
1/2-x,1/2+y,-z
1/2-x,1/2-y,-z
1/2+x,1/2+y,-z
1/2-x,1/2+y,z
1/2+x,1/2-y,z
loop_
_atom_site_type_symbol
_atom_site_label
_atom_site_fract_x
_atom_site_fract_y
_atom_site_fract_z
Si Si1 0.714923 0.815588 0.500000
Si Si2 0.840868 0.168855 0.872358
Si Si3 0.199920 0.085750 0.500000
Si Si4 0.754130 0.417271 0.127826
Si Si5 0.375011 0.586284 0.678797
Si Si6 0.448598 0.413092 0.500000
Si Si7 0.202285 0.705982 0.740232
O O1 0.750000 0.750000 0.500000
O O2 0.749932 0.882236 0.500000
O O3 0.688297 0.808521 0.385702
O O4 0.794867 0.120955 0.868584
O O5 0.874762 0.125248 0.794938
O O6 0.829997 0.244193 0.813296
O O7 0.853298 0.177315 0.000000
O O8 0.169939 0.107325 0.392953
O O9 0.201610 0.000000 0.500000
O O10 0.750685 0.500000 0.163321
O O11 0.786828 0.369003 0.201241
O O12 0.768569 0.415469 0.000000
O O13 0.373733 0.500000 0.690322
O O14 0.418377 0.606352 0.605546
O O15 0.450134 0.500000 0.500000
O O16 0.500000 0.386450 0.500000
O O17 0.250000 0.750000 0.737065
#
# Coordination Sequence:
#
# PCOD9482698 Si02
#       7
#     8  16   8  16  16   8  16
#     4  10  17  23  33  46  62  87 115 148 189 225
#     4  10  18  26  36  50  70  94 121 157 193 217
#     4   9  16  25  36  51  69  88 114 154 196 219
#     4   9  16  25  36  48  65  94 130 162 189 218
#     4   9  16  25  39  57  73  90 116 147 178 216
#     4   8  15  28  44  60  77  96 115 138 172 214
#     4   9  17  26  34  46  66  91 121 156 194 227
#
# _framework density 13.143955
#
# number of rings (size 3 to 8) (size 9 to 14) (size 15 to 20)
#    0.000    2.818    0.000    5.455    0.000    6.182 
#    0.000    0.000    0.000    0.545    0.000    2.545 
#    0.000    0.000    0.000    0.000    0.000    1.818 
#
# Total GULP energy -244990.245690 kJ/mol
# GULP energy per Si atom -5567.960129 kJ/mol
# Density = 1.311404 g / cm^3
# Si number density = 13.143955 Si / 1000 Ang^3
#
#
#
# Elastic Constant Matrix: (Units=GPa)
#
#
# Indices 1 2 3 4 5 6 
#
# 1 28.5865 12.6795 35.6787 0.0000 0.0000 0.0000
# 2 12.6795 58.9047 37.8317 0.0000 0.0000 0.0000
# 3 35.6787 37.8317 126.3167 0.0000 0.0000 0.0000
# 4 0.0000 0.0000 0.0000 18.8403 0.0000 0.0000
# 5 0.0000 0.0000 0.0000 0.0000 5.3649 0.0000
# 6 0.0000 0.0000 0.0000 0.0000 0.0000 7.1385
#
#
#
# Elastic Compliance Matrix: (Units=1/GPa)
#
#
# Indices 1 2 3 4 5 6 
#
# 1 0.054273 -0.002274 -0.014649 0.000000 0.000000 0.000000
# 2 -0.002274 0.021115 -0.005682 0.000000 0.000000 0.000000
# 3 -0.014649 -0.005682 0.013756 0.000000 0.000000 0.000000
# 4 0.000000 0.000000 0.000000 0.053078 0.000000 0.000000
# 5 0.000000 0.000000 0.000000 0.000000 0.186398 0.000000
# 6 0.000000 0.000000 0.000000 0.000000 0.000000 0.140085
#
#
# Mechanical properties :
#
#
# Convention : Reuss Voigt Hill
#
# Bulk Modulus (GPa) = 22.76085 42.90973 32.83529
# Shear Modulus (GPa) = 9.45969 14.77660 12.11815
#
# Velocity S-wave (km/s) = 2.68563 3.35657 3.03967
# Velocity P-wave (km/s) = 5.19336 6.90933 6.11187
#
# Compressibility (1/GPa) = 0.04393510
#
# Stress axis : x y z
#
# Youngs Moduli (GPa) = 18.42530 47.35937 72.69682
#
# Poissons Ratio (x) = 0.10772 1.06490
# Poissons Ratio (y) = 0.04191 0.41303
# Poissons Ratio (z) = 0.26990 0.26907
#
# Static dielectric constant tensor:
#      x y z
#    x 1.413660 0.000000 0.000000 
#    y 0.000000 1.397690 0.000000 
#    z 0.000000 0.000000 1.476610 
# 
# From -- ./inp_files/27670.got.cif
#   From: 2010.05.17/outbox.cif.g08.bks.cpg/sg65_14_cif.got.tgz:27670.got - 2010.06.03 17:01:31.
