data_PCOD9482973
_publ_section_title
;
Structure prediction by ZEFSAII (Michael W. Deem and Ramdas Pophale) SiO2 
 PCOD9482973
Probable space group: C M M M
;
_chemical_formula_sum "Si O2"
_cell_formula_units_Z 112
_cell_length_a 18.016584
_cell_length_b 20.139923
_cell_length_c 19.072021
_cell_angle_alpha 90.000000
_cell_angle_beta 90.000000
_cell_angle_gamma 90.000000
_cell_volume 6920.332683
_symmetry_space_group_name_H-M "C M M M"
_symmetry_group_IT_number 65
_symmetry_cell_setting 'orthorhombic'
loop_
_space_group_symop_operation_xyz
x,y,z
-x,-y,z
x,-y,-z
-x,y,-z
-x,-y,-z
x,y,-z
-x,y,z
x,-y,z
1/2+x,1/2+y,z
1/2-x,1/2-y,z
1/2+x,1/2-y,-z
1/2-x,1/2+y,-z
1/2-x,1/2-y,-z
1/2+x,1/2+y,-z
1/2-x,1/2+y,z
1/2+x,1/2-y,z
loop_
_atom_site_type_symbol
_atom_site_label
_atom_site_fract_x
_atom_site_fract_y
_atom_site_fract_z
Si Si1 0.738131 0.079169 0.080761
Si Si2 0.306708 0.309082 0.419151
Si Si3 0.585642 0.711590 0.704553
Si Si4 0.279806 0.323360 0.199233
Si Si5 0.686279 0.922026 0.578840
Si Si6 0.633421 0.861909 0.282112
Si Si7 0.080267 0.420699 0.137831
O O1 0.781176 0.125304 0.135288
O O2 0.651724 0.099197 0.092802
O O3 0.744884 0.000000 0.096668
O O4 0.758788 0.089038 0.000000
O O5 0.326615 0.295351 0.500000
O O6 0.250000 0.250000 0.396354
O O7 0.376864 0.309334 0.368767
O O8 0.259908 0.376838 0.416449
O O9 0.500000 0.692517 0.711237
O O10 0.640851 0.683638 0.763956
O O11 0.594327 0.791200 0.709100
O O12 0.250000 0.250000 0.177972
O O13 0.218060 0.348948 0.255185
O O14 0.655234 0.910058 0.500000
O O15 0.635938 0.899281 0.643857
O O16 0.702366 0.000000 0.585079
O O17 0.595634 0.900839 0.218223
O O18 0.077473 0.500000 0.133125
O O19 0.000000 0.393745 0.115444
#
# Coordination Sequence:
#
# PCOD9482973 Si02
#       7
#    16  16  16  16  16  16  16
#     4   9  18  32  52  77 101 130 169 209 249 299
#     4  10  18  33  52  71  99 132 171 216 258 304
#     4  11  20  31  49  75 101 131 169 213 263 305
#     4   9  18  33  51  72 100 130 166 207 251 299
#     4  10  19  30  50  75  97 128 172 218 258 295
#     4  10  17  31  49  70  98 132 171 209 248 298
#     4   9  17  28  44  70 103 136 164 196 246 302
#
# _framework density 16.184193
#
# number of rings (size 3 to 8) (size 9 to 14) (size 15 to 20)
#    0.000    2.286    2.857    1.286    0.000    1.429 
#    0.000    1.429    0.000    3.429    0.000    8.000 
#    0.000    0.000    0.000    0.000    0.000    0.000 
#
# Total GULP energy -312037.933972 kJ/mol
# GULP energy per Si atom -5572.105964 kJ/mol
# Density = 1.614736 g / cm^3
# Si number density = 16.184193 Si / 1000 Ang^3
#
#
#
# Elastic Constant Matrix: (Units=GPa)
#
#
# Indices 1 2 3 4 5 6 
#
# 1 91.8881 25.2566 32.2531 0.0000 0.0000 0.0000
# 2 25.2566 54.0308 38.3866 0.0000 0.0000 0.0000
# 3 32.2531 38.3866 95.6766 0.0000 0.0000 0.0000
# 4 0.0000 0.0000 0.0000 28.9208 0.0000 0.0000
# 5 0.0000 0.0000 0.0000 0.0000 6.2873 0.0000
# 6 0.0000 0.0000 0.0000 0.0000 0.0000 13.1157
#
#
#
# Elastic Compliance Matrix: (Units=1/GPa)
#
#
# Indices 1 2 3 4 5 6 
#
# 1 0.012972 -0.004136 -0.002714 0.000000 0.000000 0.000000
# 2 -0.004136 0.027205 -0.009521 0.000000 0.000000 0.000000
# 3 -0.002714 -0.009521 0.015187 0.000000 0.000000 0.000000
# 4 0.000000 0.000000 0.000000 0.034577 0.000000 0.000000
# 5 0.000000 0.000000 0.000000 0.000000 0.159051 0.000000
# 6 0.000000 0.000000 0.000000 0.000000 0.000000 0.076245
#
#
# Mechanical properties :
#
#
# Convention : Reuss Voigt Hill
#
# Bulk Modulus (GPa) = 44.20222 48.15425 46.17823
# Shear Modulus (GPa) = 13.67920 19.37804 16.52862
#
# Velocity S-wave (km/s) = 2.91042 3.46402 3.19922
# Velocity P-wave (km/s) = 6.21814 6.76888 6.49935
#
# Compressibility (1/GPa) = 0.02262330
#
# Stress axis : x y z
#
# Youngs Moduli (GPa) = 77.08861 36.75731 65.84777
#
# Poissons Ratio (x) = 0.15202 0.17868
# Poissons Ratio (y) = 0.31883 0.62693
# Poissons Ratio (z) = 0.20919 0.34996
#
# Static dielectric constant tensor:
#      x y z
#    x 1.154760 0.000000 0.000000 
#    y 0.000000 1.539510 0.000000 
#    z 0.000000 0.000000 1.556800 
# 
# From -- ./inp_files/63959.got.cif
#   From: 2010.05.17/outbox.cif.g08.bks.cpg/sg65_32_cif.got.tgz:63959.got - 2010.06.03 17:01:31.
