data_PCOD9482112
_publ_section_title
;
Structure prediction by ZEFSAII (Michael W. Deem and Ramdas Pophale) SiO2 
 PCOD9482112
Probable space group: C M C A
;
_chemical_formula_sum "Si O2"
_cell_formula_units_Z 48
_cell_length_a 15.682065
_cell_length_b 8.345605
_cell_length_c 14.176496
_cell_angle_alpha 90.000000
_cell_angle_beta 90.000000
_cell_angle_gamma 90.000000
_cell_volume 1855.367628
_symmetry_space_group_name_H-M "C M C A"
_symmetry_group_IT_number 64
_symmetry_cell_setting 'orthorhombic'
loop_
_space_group_symop_operation_xyz
x,y,z
-x,1/2-y,1/2+z
x,-y,-z
-x,1/2+y,1/2-z
-x,-y,-z
x,1/2+y,1/2-z
-x,y,z
x,1/2-y,1/2+z
1/2+x,1/2+y,z
1/2-x,-y,1/2+z
1/2+x,1/2-y,-z
1/2-x,y,1/2-z
1/2-x,1/2-y,-z
1/2+x,y,1/2-z
1/2-x,1/2+y,z
1/2+x,-y,1/2+z
loop_
_atom_site_type_symbol
_atom_site_label
_atom_site_fract_x
_atom_site_fract_y
_atom_site_fract_z
Si Si1 0.131425 0.344690 0.556575
Si Si2 0.903763 0.646561 0.770994
Si Si3 0.171107 0.849226 0.613794
O O1 0.101327 0.500000 0.500000
O O2 0.091902 0.293329 0.654810
O O3 0.123670 0.198990 0.482283
O O4 0.231161 0.368801 0.583487
O O5 0.864754 0.500852 0.830535
O O6 0.843695 0.700765 0.685290
O O7 0.000000 0.614422 0.738285
#
# Coordination Sequence:
#
# PCOD9482112 Si02
#       3
#    16  16  16
#     4  11  24  44  71 100 135 182 233 281 333 403
#     4  12  26  44  71 105 142 180 222 285 352 408
#     4  11  24  44  68 100 139 182 231 278 335 407
#
# _framework density 25.870884
#
# number of rings (size 3 to 8) (size 9 to 14) (size 15 to 20)
#    0.000    0.667    0.000    9.000    0.000    7.333 
#    0.000    0.000    0.000    0.000    0.000    0.000 
#    0.000    0.000    0.000    0.000    0.000    0.000 
#
# Total GULP energy -134629.982702 kJ/mol
# GULP energy per Si atom -5609.582613 kJ/mol
# Density = 2.581200 g / cm^3
# Si number density = 25.870884 Si / 1000 Ang^3
#
#
#
# Elastic Constant Matrix: (Units=GPa)
#
#
# Indices 1 2 3 4 5 6 
#
# 1 83.5533 28.5700 14.5458 0.0000 0.0000 0.0000
# 2 28.5700 115.6225 42.6640 0.0000 0.0000 0.0000
# 3 14.5458 42.6640 157.0863 0.0000 0.0000 0.0000
# 4 0.0000 0.0000 0.0000 82.3372 0.0000 0.0000
# 5 0.0000 0.0000 0.0000 0.0000 41.3429 0.0000
# 6 0.0000 0.0000 0.0000 0.0000 0.0000 20.5714
#
#
#
# Elastic Compliance Matrix: (Units=1/GPa)
#
#
# Indices 1 2 3 4 5 6 
#
# 1 0.013092 -0.003098 -0.000371 0.000000 0.000000 0.000000
# 2 -0.003098 0.010345 -0.002523 0.000000 0.000000 0.000000
# 3 -0.000371 -0.002523 0.007085 0.000000 0.000000 0.000000
# 4 0.000000 0.000000 0.000000 0.012145 0.000000 0.000000
# 5 0.000000 0.000000 0.000000 0.000000 0.024188 0.000000
# 6 0.000000 0.000000 0.000000 0.000000 0.000000 0.048611
#
#
# Mechanical properties :
#
#
# Convention : Reuss Voigt Hill
#
# Bulk Modulus (GPa) = 53.93961 58.64687 56.29324
# Shear Modulus (GPa) = 37.41642 46.88245 42.14944
#
# Velocity S-wave (km/s) = 3.80712 4.26158 4.04074
# Velocity P-wave (km/s) = 6.34195 6.85077 6.60126
#
# Compressibility (1/GPa) = 0.01853925
#
# Stress axis : x y z
#
# Youngs Moduli (GPa) = 76.38034 96.66207 141.13400
#
# Poissons Ratio (x) = 0.29948 0.05234
# Poissons Ratio (y) = 0.23664 0.35606
# Poissons Ratio (z) = 0.02833 0.24386
#
# Static dielectric constant tensor:
#      x y z
#    x 1.969040 0.000000 0.000000 
#    y 0.000000 2.121970 0.000000 
#    z 0.000000 0.000000 1.949610 
# 
# From -- ./inp_files/24596.got.cif
#   From: 2010.05.17/outbox.cif.g08.bks.cpg/sg64_13_cif.got.tgz:24596.got - 2010.06.03 16:29:19.
