data_PCOD9482991
_publ_section_title
;
Structure prediction by ZEFSAII (Michael W. Deem and Ramdas Pophale) SiO2 
 PCOD9482991
Probable space group: C M M M
;
_chemical_formula_sum "Si O2"
_cell_formula_units_Z 96
_cell_length_a 12.645532
_cell_length_b 28.319648
_cell_length_c 14.815738
_cell_angle_alpha 90.000000
_cell_angle_beta 90.000000
_cell_angle_gamma 90.000000
_cell_volume 5305.767868
_symmetry_space_group_name_H-M "C M M M"
_symmetry_group_IT_number 65
_symmetry_cell_setting 'orthorhombic'
loop_
_space_group_symop_operation_xyz
x,y,z
-x,-y,z
x,-y,-z
-x,y,-z
-x,-y,-z
x,y,-z
-x,y,z
x,-y,z
1/2+x,1/2+y,z
1/2-x,1/2-y,z
1/2+x,1/2-y,-z
1/2-x,1/2+y,-z
1/2-x,1/2-y,-z
1/2+x,1/2+y,-z
1/2-x,1/2+y,z
1/2+x,1/2-y,z
loop_
_atom_site_type_symbol
_atom_site_label
_atom_site_fract_x
_atom_site_fract_y
_atom_site_fract_z
Si Si1 0.184880 0.446680 0.819151
Si Si2 0.623722 0.353333 0.400005
Si Si3 0.000000 0.661693 0.393223
Si Si4 0.121410 0.947136 0.691547
Si Si5 0.500000 0.053670 0.670666
Si Si6 0.626677 0.849093 0.899032
Si Si7 0.706326 0.803094 0.282525
O O1 0.179054 0.500000 0.856997
O O2 0.298777 0.438856 0.773637
O O3 0.156558 0.404035 0.884624
O O4 0.101612 0.444454 0.736368
O O5 0.657481 0.338359 0.500000
O O6 0.500000 0.341183 0.388856
O O7 0.634704 0.409364 0.387097
O O8 0.697230 0.332322 0.324080
O O9 0.103096 0.683959 0.343440
O O10 0.000000 0.672378 0.500000
O O11 0.000000 0.603927 0.381914
O O12 0.000000 0.943574 0.722616
O O13 0.141184 0.000000 0.658361
O O14 0.500000 0.000000 0.628224
O O15 0.500000 0.845194 0.889494
O O16 0.679124 0.819718 0.818472
O O17 0.656491 0.833927 0.000000
O O18 0.750000 0.750000 0.285473
#
# Coordination Sequence:
#
# PCOD9482991 Si02
#       7
#    16  16   8  16   8  16  16
#     4  10  17  31  56  85 122 156 192 237 298 371
#     4  10  21  36  57  87 119 155 200 246 294 353
#     4  12  24  41  64  94 126 164 211 253 305 371
#     4   9  17  30  52  80 113 159 201 236 285 346
#     4  10  18  33  60  91 124 164 198 238 304 375
#     4  11  22  40  66  92 119 150 196 250 311 376
#     4  12  25  43  64  84 120 160 200 254 315 355
#
# _framework density 18.093516999999999
#
# number of rings (size 3 to 8) (size 9 to 14) (size 15 to 20)
#    0.000    1.500    5.000    0.500    1.167    2.500 
#    0.000    2.500    0.000    7.000    0.000    2.333 
#    0.000    0.000    0.000    0.000    0.000    0.000 
#
# Total GULP energy -267639.403520 kJ/mol
# GULP energy per Si atom -5575.820907 kJ/mol
# Density = 1.805234 g / cm^3
# Si number density = 18.093517 Si / 1000 Ang^3
#
#
#
# Elastic Constant Matrix: (Units=GPa)
#
#
# Indices 1 2 3 4 5 6 
#
# 1 61.7596 45.6709 49.8549 0.0000 0.0000 0.0000
# 2 45.6709 104.7499 52.7613 0.0000 0.0000 0.0000
# 3 49.8549 52.7613 121.4174 0.0000 0.0000 0.0000
# 4 0.0000 0.0000 0.0000 -9.1879 0.0000 0.0000
# 5 0.0000 0.0000 0.0000 0.0000 23.1484 0.0000
# 6 0.0000 0.0000 0.0000 0.0000 0.0000 24.9720
#
#
#
# Elastic Compliance Matrix: (Units=1/GPa)
#
#
# Indices 1 2 3 4 5 6 
#
# 1 0.029201 -0.008568 -0.008267 0.000000 0.000000 0.000000
# 2 -0.008568 0.014735 -0.002885 0.000000 0.000000 0.000000
# 3 -0.008267 -0.002885 0.012884 0.000000 0.000000 0.000000
# 4 0.000000 0.000000 0.000000 -0.108839 0.000000 0.000000
# 5 0.000000 0.000000 0.000000 0.000000 0.043200 0.000000
# 6 0.000000 0.000000 0.000000 0.000000 0.000000 0.040045
#
#
# Mechanical properties :
#
#
# Convention : Reuss Voigt Hill
#
# Bulk Modulus (GPa) = 57.53488 64.94457 61.23972
# Shear Modulus (GPa) = 65.39414 17.09582 41.24498
#
# Velocity S-wave (km/s) = 6.01837 3.07719 4.77964
# Velocity P-wave (km/s) = 8.95332 6.97117 8.02369
#
# Compressibility (1/GPa) = 0.01738076
#
# Stress axis : x y z
#
# Youngs Moduli (GPa) = 34.24526 67.86441 77.61330
#
# Poissons Ratio (x) = 0.58143 0.64164
# Poissons Ratio (y) = 0.29340 0.22393
# Poissons Ratio (z) = 0.28311 0.19580
#
# Static dielectric constant tensor:
#      x y z
#    x 1.961720 0.000000 0.000000 
#    y 0.000000 1.682030 0.000000 
#    z 0.000000 0.000000 1.601150 
# 
# From -- ./inp_files/38948.got.cif
#   From: 2010.05.17/outbox.cif.g08.bks.cpg/sg65_20_cif.got.tgz:38948.got - 2010.06.03 17:01:31.
