data_PCOD9482953
_publ_section_title
;
Structure prediction by ZEFSAII (Michael W. Deem and Ramdas Pophale) SiO2 
 PCOD9482953
Probable space group: C M M M
;
_chemical_formula_sum "Si O2"
_cell_formula_units_Z 80
_cell_length_a 17.778716
_cell_length_b 18.476739
_cell_length_c 14.637651
_cell_angle_alpha 90.000000
_cell_angle_beta 90.000000
_cell_angle_gamma 90.000000
_cell_volume 4808.361430
_symmetry_space_group_name_H-M "C M M M"
_symmetry_group_IT_number 65
_symmetry_cell_setting 'orthorhombic'
loop_
_space_group_symop_operation_xyz
x,y,z
-x,-y,z
x,-y,-z
-x,y,-z
-x,-y,-z
x,y,-z
-x,y,z
x,-y,z
1/2+x,1/2+y,z
1/2-x,1/2-y,z
1/2+x,1/2-y,-z
1/2-x,1/2+y,-z
1/2-x,1/2-y,-z
1/2+x,1/2+y,-z
1/2-x,1/2+y,z
1/2+x,1/2-y,z
loop_
_atom_site_type_symbol
_atom_site_label
_atom_site_fract_x
_atom_site_fract_y
_atom_site_fract_z
Si Si1 0.412007 0.204062 0.217558
Si Si2 0.208846 0.080680 0.396166
Si Si3 0.339226 0.735249 0.605008
Si Si4 0.209123 0.416400 0.208972
Si Si5 0.184359 0.811101 0.104860
O O1 0.500000 0.192174 0.208179
O O2 0.388470 0.224062 0.321039
O O3 0.363044 0.133646 0.190859
O O4 0.383427 0.272016 0.157288
O O5 0.239466 0.087785 0.500000
O O6 0.153551 0.148425 0.384521
O O7 0.270697 0.086044 0.316898
O O8 0.175278 0.000000 0.388528
O O9 0.354555 0.755040 0.500000
O O10 0.250000 0.750000 0.622785
O O11 0.199394 0.500000 0.182704
O O12 0.279491 0.378894 0.157622
O O13 0.250000 0.750000 0.105842
O O14 0.166606 0.828273 0.000000
#
# Coordination Sequence:
#
# PCOD9482953 Si02
#       5
#    16  16  16  16  16
#     4  11  21  33  49  76 113 143 169 204 256 320
#     4   9  16  27  49  76  99 127 167 216 260 294
#     4  10  17  30  51  72  99 137 184 226 253 288
#     4  10  19  33  54  78 103 134 176 218 253 295
#     4   9  18  35  56  75  95 126 173 221 259 298
#
# _framework density 16.637685000000001
#
# number of rings (size 3 to 8) (size 9 to 14) (size 15 to 20)
#    0.000    2.200    4.000    0.600    0.000    1.600 
#    0.000    0.000    0.000    2.400    0.000   14.000 
#    0.000    0.000    0.000    0.000    0.000    0.000 
#
# Total GULP energy -222804.765830 kJ/mol
# GULP energy per Si atom -5570.119146 kJ/mol
# Density = 1.659982 g / cm^3
# Si number density = 16.637685 Si / 1000 Ang^3
#
#
#
# Elastic Constant Matrix: (Units=GPa)
#
#
# Indices 1 2 3 4 5 6 
#
# 1 55.7374 36.5485 32.5627 0.0000 0.0000 0.0000
# 2 36.5485 132.7973 33.0349 0.0000 0.0000 0.0000
# 3 32.5627 33.0349 81.7232 0.0000 0.0000 0.0000
# 4 0.0000 0.0000 0.0000 11.4632 0.0000 0.0000
# 5 0.0000 0.0000 0.0000 0.0000 8.0118 0.0000
# 6 0.0000 0.0000 0.0000 0.0000 0.0000 12.6755
#
#
#
# Elastic Compliance Matrix: (Units=1/GPa)
#
#
# Indices 1 2 3 4 5 6 
#
# 1 0.026189 -0.005128 -0.008362 0.000000 0.000000 0.000000
# 2 -0.005128 0.009376 -0.001747 0.000000 0.000000 0.000000
# 3 -0.008362 -0.001747 0.016275 0.000000 0.000000 0.000000
# 4 0.000000 0.000000 0.000000 0.087236 0.000000 0.000000
# 5 0.000000 0.000000 0.000000 0.000000 0.124816 0.000000
# 6 0.000000 0.000000 0.000000 0.000000 0.000000 0.078892
#
#
# Mechanical properties :
#
#
# Convention : Reuss Voigt Hill
#
# Bulk Modulus (GPa) = 46.80355 52.72780 49.76568
# Shear Modulus (GPa) = 13.14477 17.63755 15.39116
#
# Velocity S-wave (km/s) = 2.81385 3.25944 3.04481
# Velocity P-wave (km/s) = 6.22488 6.77686 6.50673
#
# Compressibility (1/GPa) = 0.02136590
#
# Stress axis : x y z
#
# Youngs Moduli (GPa) = 38.18402 106.65464 61.44542
#
# Poissons Ratio (x) = 0.54687 0.51383
# Poissons Ratio (y) = 0.19579 0.10735
# Poissons Ratio (z) = 0.31931 0.18633
#
# Static dielectric constant tensor:
#      x y z
#    x 1.524380 0.000000 0.000000 
#    y 0.000000 1.601920 0.000000 
#    z 0.000000 0.000000 1.587400 
# 
# From -- ./inp_files/42333.got.cif
#   From: 2010.05.17/outbox.cif.g08.bks.cpg/sg65_22_cif.got.tgz:42333.got - 2010.06.03 17:01:31.
