data_PCOD9482735
_publ_section_title
;
Structure prediction by ZEFSAII (Michael W. Deem and Ramdas Pophale) SiO2 
 PCOD9482735
Probable space group: C M M M
;
_chemical_formula_sum "Si O2"
_cell_formula_units_Z 72
_cell_length_a 15.280944
_cell_length_b 34.351630
_cell_length_c 7.868042
_cell_angle_alpha 90.000000
_cell_angle_beta 90.000000
_cell_angle_gamma 90.000000
_cell_volume 4130.134577
_symmetry_space_group_name_H-M "C M M M"
_symmetry_group_IT_number 65
_symmetry_cell_setting 'orthorhombic'
loop_
_space_group_symop_operation_xyz
x,y,z
-x,-y,z
x,-y,-z
-x,y,-z
-x,-y,-z
x,y,-z
-x,y,z
x,-y,z
1/2+x,1/2+y,z
1/2-x,1/2-y,z
1/2+x,1/2-y,-z
1/2-x,1/2+y,-z
1/2-x,1/2-y,-z
1/2+x,1/2+y,-z
1/2-x,1/2+y,z
1/2+x,1/2-y,z
loop_
_atom_site_type_symbol
_atom_site_label
_atom_site_fract_x
_atom_site_fract_y
_atom_site_fract_z
Si Si1 0.099764 0.000000 0.202509
Si Si2 0.600092 0.584619 0.298727
Si Si3 0.719567 0.656934 0.796409
Si Si4 0.902019 0.316578 0.207605
Si Si5 0.900776 0.773192 0.207138
O O1 0.136598 0.958422 0.257626
O O2 0.000000 0.000000 0.272336
O O3 0.096799 0.000000 0.000000
O O4 0.593580 0.587967 0.500000
O O5 0.500000 0.587904 0.227501
O O6 0.663314 0.618668 0.238022
O O7 0.819700 0.657971 0.734223
O O8 0.667292 0.694808 0.730535
O O9 0.723947 0.661214 0.000000
O O10 0.884431 0.271498 0.256568
O O11 0.000000 0.327188 0.265779
O O12 0.904532 0.317368 0.000000
O O13 0.000000 0.783647 0.257654
O O14 0.898366 0.773534 0.000000
#
# Coordination Sequence:
#
# PCOD9482735 Si02
#       5
#     8  16  16  16  16
#     4   9  17  31  51  71  90 113 142 173 203 246
#     4  10  20  32  45  64  93 123 144 167 209 263
#     4  10  17  25  42  66  88 113 150 191 222 254
#     4   8  14  24  38  59  87 117 150 190 232 263
#     4   8  13  21  35  58  87 115 145 185 228 263
#
# _framework density 17.432845
#
# number of rings (size 3 to 8) (size 9 to 14) (size 15 to 20)
#    0.000    3.000    0.000    3.667    0.000    6.222 
#    0.000    0.000    0.000    3.333    0.000    3.889 
#    0.000    6.222    0.000    0.000    0.000    0.000 
#
# Total GULP energy -200568.866179 kJ/mol
# GULP energy per Si atom -5571.357394 kJ/mol
# Density = 1.739317 g / cm^3
# Si number density = 17.432845 Si / 1000 Ang^3
#
#
#
# Elastic Constant Matrix: (Units=GPa)
#
#
# Indices 1 2 3 4 5 6 
#
# 1 132.4038 83.3981 10.7887 0.0000 0.0000 0.0000
# 2 83.3981 83.1694 -2.1848 0.0000 0.0000 0.0000
# 3 10.7887 -2.1848 16.6208 0.0000 0.0000 0.0000
# 4 0.0000 0.0000 0.0000 270.6339 0.0000 0.0000
# 5 0.0000 0.0000 0.0000 0.0000 4.2363 0.0000
# 6 0.0000 0.0000 0.0000 0.0000 0.0000 17.9924
#
#
#
# Elastic Compliance Matrix: (Units=1/GPa)
#
#
# Indices 1 2 3 4 5 6 
#
# 1 0.025903 -0.026508 -0.020298 0.000000 0.000000 0.000000
# 2 -0.026508 0.039192 0.022358 0.000000 0.000000 0.000000
# 3 -0.020298 0.022358 0.076280 0.000000 0.000000 0.000000
# 4 0.000000 0.000000 0.000000 0.003695 0.000000 0.000000
# 5 0.000000 0.000000 0.000000 0.000000 0.236054 0.000000
# 6 0.000000 0.000000 0.000000 0.000000 0.000000 0.055579
#
#
# Mechanical properties :
#
#
# Convention : Reuss Voigt Hill
#
# Bulk Modulus (GPa) = 10.81327 46.24424 28.52875
# Shear Modulus (GPa) = 9.68195 67.91867 38.80031
#
# Velocity S-wave (km/s) = 2.35922 6.24858 4.72285
# Velocity P-wave (km/s) = 3.69290 8.86816 6.79271
#
# Compressibility (1/GPa) = 0.09247898
#
# Stress axis : x y z
#
# Youngs Moduli (GPa) = 38.60527 25.51574 13.10955
#
# Poissons Ratio (x) = 0.67636 0.26610
# Poissons Ratio (y) = 1.02333 -0.29310
# Poissons Ratio (z) = 0.78363 -0.57048
#
# Static dielectric constant tensor:
#      x y z
#    x 1.622740 0.000000 0.000000 
#    y 0.000000 1.584700 0.000000 
#    z 0.000000 0.000000 1.633550 
# 
# From -- ./inp_files/7637.got.cif
#   From: 2010.05.17/outbox.cif.g08.bks.cpg/sg65_4_cif.got.tgz:7637.got - 2010.06.03 17:01:31.
