data_PCOD9482898
_publ_section_title
;
Structure prediction by ZEFSAII (Michael W. Deem and Ramdas Pophale) SiO2 
 PCOD9482898
Probable space group: C M M M
;
_chemical_formula_sum "Si O2"
_cell_formula_units_Z 104
_cell_length_a 21.546861
_cell_length_b 31.894615
_cell_length_c 7.357859
_cell_angle_alpha 90.000000
_cell_angle_beta 90.000000
_cell_angle_gamma 90.000000
_cell_volume 5056.532876
_symmetry_space_group_name_H-M "C M M M"
_symmetry_group_IT_number 65
_symmetry_cell_setting 'orthorhombic'
loop_
_space_group_symop_operation_xyz
x,y,z
-x,-y,z
x,-y,-z
-x,y,-z
-x,-y,-z
x,y,-z
-x,y,z
x,-y,z
1/2+x,1/2+y,z
1/2-x,1/2-y,z
1/2+x,1/2-y,-z
1/2-x,1/2+y,-z
1/2-x,1/2-y,-z
1/2+x,1/2+y,-z
1/2-x,1/2+y,z
1/2+x,1/2-y,z
loop_
_atom_site_type_symbol
_atom_site_label
_atom_site_fract_x
_atom_site_fract_y
_atom_site_fract_z
Si Si1 0.109547 0.409483 0.717698
Si Si2 0.068158 0.314762 0.217426
Si Si3 0.071185 0.000000 0.276993
Si Si4 0.239274 0.626713 0.721795
Si Si5 0.160975 0.929881 0.706442
Si Si6 0.904812 0.500000 0.292403
Si Si7 0.802804 0.719650 0.209402
Si Si8 0.740223 0.000000 0.219656
O O1 0.111922 0.414402 0.500000
O O2 0.076882 0.364887 0.751947
O O3 0.180298 0.401408 0.782796
O O4 0.080982 0.453566 0.786897
O O5 0.127870 0.288769 0.287869
O O6 0.000000 0.302431 0.285620
O O7 0.068825 0.309533 0.000000
O O8 0.106811 0.958311 0.212409
O O9 0.076274 0.000000 0.500000
O O10 0.000000 0.000000 0.227621
O O11 0.239233 0.626117 0.500000
O O12 0.306256 0.610724 0.787017
O O13 0.225625 0.673235 0.785142
O O14 0.142134 0.920024 0.500000
O O15 0.220008 0.961117 0.707747
O O16 0.927831 0.500000 0.500000
O O17 0.829597 0.500000 0.288691
O O18 0.750000 0.750000 0.290608
O O19 0.811566 0.733491 0.000000
O O20 0.740702 0.000000 0.000000
#
# Coordination Sequence:
#
# PCOD9482898 Si02
#       8
#    16  16   8  16  16   8  16   8
#     4   9  17  28  45  66  90 121 157 192 224 264
#     4   9  18  33  51  69  92 122 154 188 229 277
#     4   8  14  24  42  65  84 113 159 198 224 263
#     4   9  16  27  45  67  89 118 149 183 230 277
#     4   9  16  28  43  59  87 121 152 191 235 277
#     4  10  17  29  43  59  91 127 155 190 231 269
#     4   9  18  32  50  72  96 117 142 186 234 275
#     4  11  19  23  36  63  90 115 152 193 227 268
#
# _framework density 20.567451999999999
#
# number of rings (size 3 to 8) (size 9 to 14) (size 15 to 20)
#    0.000    2.846    1.538    1.154    0.000    1.846 
#    0.000    0.385    0.000    6.923    0.000    0.000 
#    0.000    0.000    0.000    0.000    0.000    0.000 
#
# Total GULP energy -289560.198366 kJ/mol
# GULP energy per Si atom -5568.465353 kJ/mol
# Density = 2.052064 g / cm^3
# Si number density = 20.567452 Si / 1000 Ang^3
#
#
#
# Elastic Constant Matrix: (Units=GPa)
#
#
# Indices 1 2 3 4 5 6 
#
# 1 162.0809 54.0394 2.9215 0.0000 0.0000 0.0000
# 2 54.0394 82.9900 -0.7903 0.0000 0.0000 0.0000
# 3 2.9215 -0.7903 92.0876 0.0000 0.0000 0.0000
# 4 0.0000 0.0000 0.0000 12.6221 0.0000 0.0000
# 5 0.0000 0.0000 0.0000 0.0000 10.2748 0.0000
# 6 0.0000 0.0000 0.0000 0.0000 0.0000 21.0969
#
#
#
# Elastic Compliance Matrix: (Units=1/GPa)
#
#
# Indices 1 2 3 4 5 6 
#
# 1 0.007889 -0.005140 -0.000294 0.000000 0.000000 0.000000
# 2 -0.005140 0.015399 0.000295 0.000000 0.000000 0.000000
# 3 -0.000294 0.000295 0.010871 0.000000 0.000000 0.000000
# 4 0.000000 0.000000 0.000000 0.079226 0.000000 0.000000
# 5 0.000000 0.000000 0.000000 0.000000 0.097325 0.000000
# 6 0.000000 0.000000 0.000000 0.000000 0.000000 0.047400
#
#
# Mechanical properties :
#
#
# Convention : Reuss Voigt Hill
#
# Bulk Modulus (GPa) = 41.87353 49.94440 45.90897
# Shear Modulus (GPa) = 18.09313 27.53131 22.81222
#
# Velocity S-wave (km/s) = 2.96919 3.66264 3.33399
# Velocity P-wave (km/s) = 5.67081 6.49788 6.09838
#
# Compressibility (1/GPa) = 0.02388143
#
# Stress axis : x y z
#
# Youngs Moduli (GPa) = 126.76458 64.93883 91.98702
#
# Poissons Ratio (x) = 0.33376 0.02708
# Poissons Ratio (y) = 0.65151 -0.02716
# Poissons Ratio (z) = 0.03732 -0.01917
#
# Static dielectric constant tensor:
#      x y z
#    x 1.753840 0.000000 0.000000 
#    y 0.000000 1.774970 0.000000 
#    z 0.000000 0.000000 1.798250 
# 
# From -- ./inp_files/15110.got.cif
#   From: 2010.05.17/outbox.cif.g08.bks.cpg/sg65_8_cif.got.tgz:15110.got - 2010.06.03 17:01:31.
