data_PCOD9482519
_publ_section_title
;
Structure prediction by ZEFSAII (Michael W. Deem and Ramdas Pophale) SiO2 
 PCOD9482519
Probable space group: C M C A
;
_chemical_formula_sum "Si O2"
_cell_formula_units_Z 48
_cell_length_a 15.000000
_cell_length_b 21.000000
_cell_length_c 15.000000
_cell_angle_alpha 90.000000
_cell_angle_beta 90.000000
_cell_angle_gamma 90.000000
_cell_volume 4725.000000
_symmetry_space_group_name_H-M "C M C A"
_symmetry_group_IT_number 64
_symmetry_cell_setting 'orthorhombic'
loop_
_space_group_symop_operation_xyz
x,y,z
-x,1/2-y,1/2+z
x,-y,-z
-x,1/2+y,1/2-z
-x,-y,-z
x,1/2+y,1/2-z
-x,y,z
x,1/2-y,1/2+z
1/2+x,1/2+y,z
1/2-x,-y,1/2+z
1/2+x,1/2-y,-z
1/2-x,y,1/2-z
1/2-x,1/2-y,-z
1/2+x,y,1/2-z
1/2-x,1/2+y,z
1/2+x,-y,1/2+z
loop_
_atom_site_type_symbol
_atom_site_label
_atom_site_fract_x
_atom_site_fract_y
_atom_site_fract_z
Si Si1 0.095137 0.940936 0.433216
Si Si2 0.396475 0.187108 0.167734
Si Si3 0.144803 0.463325 0.268324
Si Si4 0.175514 0.176031 0.828939
Si Si5 0.245117 0.645143 0.015921
Si Si6 0.103856 0.601190 0.344900
O O1 0.102279 0.960668 0.330098
O O2 0.183786 0.904912 0.462391
O O3 0.000000 0.905234 0.443449
O O4 0.091453 0.000000 0.500000
O O5 0.500000 0.173665 0.143430
O O6 0.385538 0.262308 0.188167
O O7 0.325900 0.172510 0.088566
O O8 0.376312 0.143618 0.255511
O O9 0.250000 0.470804 0.250000
O O10 0.132609 0.394776 0.317298
O O11 0.113743 0.526374 0.320157
O O12 0.250000 0.178076 0.750000
O O13 0.214573 0.182826 0.930100
O O14 0.326926 0.619279 0.076484
O O15 0.000000 0.613715 0.368784
#
# Coordination Sequence:
#
# PCOD9482519 Si02
#       6
#    16  16  16  16  16  16
#     4  11  22  37  65 101 135 176 230 284 333 398
#     4  11  25  45  70 102 135 180 232 287 344 408
#     4  11  21  42  68  99 138 183 225 277 349 408
#     4  11  24  44  66  98 138 186 228 278 345 405
#     4  12  23  43  71  96 138 179 234 275 345 410
#     4  11  25  44  70 100 137 182 230 283 346 415
#
# _framework density 10.15873
#
# number of rings (size 3 to 8) (size 9 to 14) (size 15 to 20)
#    0.000    0.833    3.333    6.000    0.000    4.667 
#    0.000    2.500    0.000    0.000    0.000    0.000 
#    0.000    0.000    0.000    0.000    0.000    0.000 
#
# Total GULP energy -268000.416747 kJ/mol
# GULP energy per Si atom -5583.342016 kJ/mol
# Density = 1.013561 g / cm^3
# Si number density = 10.158730 Si / 1000 Ang^3
#
#
#
# Elastic Constant Matrix: (Units=GPa)
#
#
# Indices 1 2 3 4 5 6 
#
# 1 118.5505 27.0133 48.8571 0.0000 0.0000 0.0000
# 2 27.0133 80.2194 23.7819 0.0000 0.0000 0.0000
# 3 48.8571 23.7819 132.8174 0.0000 0.0000 0.0000
# 4 0.0000 0.0000 0.0000 28.5644 0.0000 0.0000
# 5 0.0000 0.0000 0.0000 0.0000 -165.4577 0.0000
# 6 0.0000 0.0000 0.0000 0.0000 0.0000 -5.2397
#
#
#
# Elastic Compliance Matrix: (Units=1/GPa)
#
#
# Indices 1 2 3 4 5 6 
#
# 1 0.010396 -0.002500 -0.003377 0.000000 0.000000 0.000000
# 2 -0.002500 0.013766 -0.001545 0.000000 0.000000 0.000000
# 3 -0.003377 -0.001545 0.009048 0.000000 0.000000 0.000000
# 4 0.000000 0.000000 0.000000 0.035009 0.000000 0.000000
# 5 0.000000 0.000000 0.000000 0.000000 -0.006044 0.000000
# 6 0.000000 0.000000 0.000000 0.000000 0.000000 -0.190852
#
#
# Mechanical properties :
#
#
# Convention : Reuss Voigt Hill
#
# Bulk Modulus (GPa) = 54.44719 58.98798 56.71759
# Shear Modulus (GPa) = -46.42039 -12.96424 -29.69231
#
# Velocity S-wave (km/s) = -4.78509 -2.52877 -3.82700
# Velocity P-wave (km/s) = 1.91653 4.53541 2.90661
#
# Compressibility (1/GPa) = 0.01836642
#
# Stress axis : x y z
#
# Youngs Moduli (GPa) = 96.18645 72.64412 110.52207
#
# Poissons Ratio (x) = 0.18160 0.37320
# Poissons Ratio (y) = 0.24045 0.17079
# Poissons Ratio (z) = 0.32480 0.11226
#
# Static dielectric constant tensor:
#      x y z
#    x 1.757670 0.000000 0.000000 
#    y 0.000000 1.746570 0.000000 
#    z 0.000000 0.000000 1.729710 
# 
# From -- ./inp_files/23941.got.cif
#   From: 2010.05.17/outbox.ucp.g08.bks.cvg/sg64_12_cif.got.tgz:23941.got - 2010.06.11 16:36:46.
