data_PCOD9482221
_publ_section_title
;
Structure prediction by ZEFSAII (Michael W. Deem and Ramdas Pophale) SiO2 
 PCOD9482221
Probable space group: C M C A
;
_chemical_formula_sum "Si O2"
_cell_formula_units_Z 72
_cell_length_a 13.671025
_cell_length_b 25.385741
_cell_length_c 9.363969
_cell_angle_alpha 90.000000
_cell_angle_beta 90.000000
_cell_angle_gamma 90.000000
_cell_volume 3249.757013
_symmetry_space_group_name_H-M "C M C A"
_symmetry_group_IT_number 64
_symmetry_cell_setting 'orthorhombic'
loop_
_space_group_symop_operation_xyz
x,y,z
-x,1/2-y,1/2+z
x,-y,-z
-x,1/2+y,1/2-z
-x,-y,-z
x,1/2+y,1/2-z
-x,y,z
x,1/2-y,1/2+z
1/2+x,1/2+y,z
1/2-x,-y,1/2+z
1/2+x,1/2-y,-z
1/2-x,y,1/2-z
1/2-x,1/2-y,-z
1/2+x,y,1/2-z
1/2-x,1/2+y,z
1/2+x,-y,1/2+z
loop_
_atom_site_type_symbol
_atom_site_label
_atom_site_fract_x
_atom_site_fract_y
_atom_site_fract_z
Si Si1 0.113577 0.586745 0.525718
Si Si2 0.386404 0.921775 0.821034
Si Si3 0.619413 0.694583 0.330498
Si Si4 0.243483 0.500000 0.000000
Si Si5 0.118950 0.796980 0.997254
O O1 0.117479 0.581905 0.351601
O O2 0.185313 0.541611 0.578653
O O3 0.144486 0.646282 0.563846
O O4 0.000000 0.578262 0.567311
O O5 0.500000 0.929015 0.859238
O O6 0.351289 0.864255 0.875812
O O7 0.322803 0.966897 0.891696
O O8 0.500000 0.693378 0.331327
O O9 0.649773 0.703075 0.167249
O O10 0.649770 0.744095 0.424143
O O11 0.000000 0.797136 0.996880
#
# Coordination Sequence:
#
# PCOD9482221 Si02
#       5
#    16  16  16   8  16
#     4   9  19  35  53  75 106 142 177 219 275 328
#     4   9  19  35  53  75 106 142 177 219 275 328
#     4   8  14  28  51  76 103 137 175 216 267 326
#     4  12  20  32  54  76  98 136 190 230 254 308
#     4   8  14  28  51  76 103 137 175 216 267 326
#
# _framework density 22.155503
#
# number of rings (size 3 to 8) (size 9 to 14) (size 15 to 20)
#    0.000    3.111    0.000    4.000    0.000    0.000 
#    0.000    5.556    0.000   10.667    0.000    0.000 
#    0.000    0.000    0.000    0.000    0.000    0.000 
#
# Total GULP energy -201218.709222 kJ/mol
# GULP energy per Si atom -5589.408590 kJ/mol
# Density = 2.210508 g / cm^3
# Si number density = 22.155503 Si / 1000 Ang^3
#
#
#
# Elastic Constant Matrix: (Units=GPa)
#
#
# Indices 1 2 3 4 5 6 
#
# 1 112.7721 70.0132 21.7555 0.0000 0.0000 0.0000
# 2 70.0132 219.3473 63.8967 0.0000 0.0000 0.0000
# 3 21.7555 63.8967 24.4057 0.0000 0.0000 0.0000
# 4 0.0000 0.0000 0.0000 33.0175 0.0000 0.0000
# 5 0.0000 0.0000 0.0000 0.0000 25.1583 0.0000
# 6 0.0000 0.0000 0.0000 0.0000 0.0000 0.3905
#
#
#
# Elastic Compliance Matrix: (Units=1/GPa)
#
#
# Indices 1 2 3 4 5 6 
#
# 1 0.011098 -0.002783 -0.002607 0.000000 0.000000 0.000000
# 2 -0.002783 0.019907 -0.049637 0.000000 0.000000 0.000000
# 3 -0.002607 -0.049637 0.173253 0.000000 0.000000 0.000000
# 4 0.000000 0.000000 0.000000 0.030287 0.000000 0.000000
# 5 0.000000 0.000000 0.000000 0.000000 0.039748 0.000000
# 6 0.000000 0.000000 0.000000 0.000000 0.000000 2.560748
#
#
# Mechanical properties :
#
#
# Convention : Reuss Voigt Hill
#
# Bulk Modulus (GPa) = 10.61522 74.20621 42.41072
# Shear Modulus (GPa) = 1.67983 25.10392 13.39187
#
# Velocity S-wave (km/s) = 0.87169 3.36977 2.46122
# Velocity P-wave (km/s) = 2.41138 6.97901 5.22117
#
# Compressibility (1/GPa) = 0.09420433
#
# Stress axis : x y z
#
# Youngs Moduli (GPa) = 90.10522 50.23390 5.77189
#
# Poissons Ratio (x) = 0.13981 0.01504
# Poissons Ratio (y) = 0.25077 0.28650
# Poissons Ratio (z) = 0.23486 2.49348
#
# Static dielectric constant tensor:
#      x y z
#    x 1.883250 0.000000 0.000000 
#    y 0.000000 1.817220 0.000000 
#    z 0.000000 0.000000 1.770020 
# 
# From -- ./inp_files/14378.got.cif
#   From: 2010.05.17/outbox.cif.g08.bks.cpg/sg64_8_cif.got.tgz:14378.got - 2010.06.03 16:29:19.
