data_PCOD9482659
_publ_section_title
;
Structure prediction by ZEFSAII (Michael W. Deem and Ramdas Pophale) SiO2 
 PCOD9482659
Probable space group: C M M M
;
_chemical_formula_sum "Si O2"
_cell_formula_units_Z 88
_cell_length_a 31.759776
_cell_length_b 24.217646
_cell_length_c 8.896491
_cell_angle_alpha 90.000000
_cell_angle_beta 90.000000
_cell_angle_gamma 90.000000
_cell_volume 6842.709472
_symmetry_space_group_name_H-M "C M M M"
_symmetry_group_IT_number 65
_symmetry_cell_setting 'orthorhombic'
loop_
_space_group_symop_operation_xyz
x,y,z
-x,-y,z
x,-y,-z
-x,y,-z
-x,-y,-z
x,y,-z
-x,y,z
x,-y,z
1/2+x,1/2+y,z
1/2-x,1/2-y,z
1/2+x,1/2-y,-z
1/2-x,1/2+y,-z
1/2-x,1/2-y,-z
1/2+x,1/2+y,-z
1/2-x,1/2+y,z
1/2+x,1/2-y,z
loop_
_atom_site_type_symbol
_atom_site_label
_atom_site_fract_x
_atom_site_fract_y
_atom_site_fract_z
Si Si1 0.855058 0.500000 0.324404
Si Si2 0.410972 0.108907 0.679656
Si Si3 0.706440 0.715015 0.172767
Si Si4 0.000000 0.564996 0.684501
Si Si5 0.752559 0.383466 0.320438
Si Si6 0.337383 0.184719 0.681649
Si Si7 0.234598 0.500000 0.822660
O O1 0.840662 0.500000 0.500000
O O2 0.883603 0.446479 0.301280
O O3 0.814852 0.500000 0.219322
O O4 0.415201 0.117506 0.500000
O O5 0.457701 0.095927 0.736949
O O6 0.381329 0.158382 0.735969
O O7 0.750000 0.750000 0.174402
O O8 0.717737 0.659352 0.260806
O O9 0.673198 0.755855 0.249858
O O10 0.695575 0.703585 0.000000
O O11 0.000000 0.500000 0.727442
O O12 0.000000 0.564826 0.500000
O O13 0.751131 0.387181 0.500000
O O14 0.798509 0.356892 0.280369
O O15 0.748066 0.443576 0.248754
O O16 0.337746 0.188418 0.500000
O O17 0.240849 0.500000 0.000000
#
# Coordination Sequence:
#
# PCOD9482659 Si02
#       7
#     8  16  16   8  16  16   8
#     4  10  16  27  40  52  72 100 132 166 201 241
#     4   9  15  23  37  56  76  98 129 167 206 243
#     4   9  17  28  40  56  76  94 119 156 196 232
#     4   9  14  20  34  56  80 100 124 167 214 241
#     4  10  18  29  43  56  74  99 127 156 192 233
#     4   9  16  26  40  55  72  97 129 161 195 236
#     4  12  22  28  37  57  81 102 128 161 197 232
#
# _framework density 12.860403
#
# number of rings (size 3 to 8) (size 9 to 14) (size 15 to 20)
#    0.000    2.455    2.727    1.909    0.000    2.909 
#    0.000    0.000    0.000    0.000    0.000    3.182 
#    0.000    0.000    0.000    0.000    0.000    0.909 
#
# Total GULP energy -245080.396179 kJ/mol
# GULP energy per Si atom -5570.009004 kJ/mol
# Density = 1.283113 g / cm^3
# Si number density = 12.860403 Si / 1000 Ang^3
#
#
#
# Elastic Constant Matrix: (Units=GPa)
#
#
# Indices 1 2 3 4 5 6 
#
# 1 70.7612 51.7002 18.8445 0.0000 0.0000 0.0000
# 2 51.7002 103.6624 41.3692 0.0000 0.0000 0.0000
# 3 18.8445 41.3692 39.4626 0.0000 0.0000 0.0000
# 4 0.0000 0.0000 0.0000 13.2120 0.0000 0.0000
# 5 0.0000 0.0000 0.0000 0.0000 4.6508 0.0000
# 6 0.0000 0.0000 0.0000 0.0000 0.0000 -2.7999
#
#
#
# Elastic Compliance Matrix: (Units=1/GPa)
#
#
# Indices 1 2 3 4 5 6 
#
# 1 0.022303 -0.011817 0.001737 0.000000 0.000000 0.000000
# 2 -0.011817 0.022846 -0.018307 0.000000 0.000000 0.000000
# 3 0.001737 -0.018307 0.043702 0.000000 0.000000 0.000000
# 4 0.000000 0.000000 0.000000 0.075689 0.000000 0.000000
# 5 0.000000 0.000000 0.000000 0.000000 0.215018 0.000000
# 6 0.000000 0.000000 0.000000 0.000000 0.000000 -0.357161
#
#
# Mechanical properties :
#
#
# Convention : Reuss Voigt Hill
#
# Bulk Modulus (GPa) = 31.17346 48.63487 39.90417
# Shear Modulus (GPa) = 55.64020 9.81073 32.72546
#
# Velocity S-wave (km/s) = 6.58473 2.76499 5.04994
# Velocity P-wave (km/s) = 9.06113 6.93493 8.06837
#
# Compressibility (1/GPa) = 0.03207857
#
# Stress axis : x y z
#
# Youngs Moduli (GPa) = 44.83714 43.77151 22.88206
#
# Poissons Ratio (x) = 0.51723 -0.03975
# Poissons Ratio (y) = 0.52982 0.41890
# Poissons Ratio (z) = -0.07789 0.80132
#
# Static dielectric constant tensor:
#      x y z
#    x 1.415850 0.000000 0.000000 
#    y 0.000000 1.416320 0.000000 
#    z 0.000000 0.000000 1.427700 
# 
# From -- ./inp_files/18835.got.cif
#   From: 2010.05.17/outbox.cif.g08.bks.cpg/sg65_10_cif.got.tgz:18835.got - 2010.06.03 17:01:31.
