data_PCOD9482150
_publ_section_title
;
Structure prediction by ZEFSAII (Michael W. Deem and Ramdas Pophale) SiO2 
 PCOD9482150
Probable space group: C M C A
;
_chemical_formula_sum "Si O2"
_cell_formula_units_Z 52
_cell_length_a 7.777591
_cell_length_b 10.324811
_cell_length_c 28.282862
_cell_angle_alpha 90.000000
_cell_angle_beta 90.000000
_cell_angle_gamma 90.000000
_cell_volume 2271.174828
_symmetry_space_group_name_H-M "C M C A"
_symmetry_group_IT_number 64
_symmetry_cell_setting 'orthorhombic'
loop_
_space_group_symop_operation_xyz
x,y,z
-x,1/2-y,1/2+z
x,-y,-z
-x,1/2+y,1/2-z
-x,-y,-z
x,1/2+y,1/2-z
-x,y,z
x,1/2-y,1/2+z
1/2+x,1/2+y,z
1/2-x,-y,1/2+z
1/2+x,1/2-y,-z
1/2-x,y,1/2-z
1/2-x,1/2-y,-z
1/2+x,y,1/2-z
1/2-x,1/2+y,z
1/2+x,-y,1/2+z
loop_
_atom_site_type_symbol
_atom_site_label
_atom_site_fract_x
_atom_site_fract_y
_atom_site_fract_z
Si Si1 0.295795 0.014794 0.195747
Si Si2 0.302068 0.650786 0.041759
Si Si3 0.000000 0.000000 0.500000
Si Si4 0.297096 0.762060 0.359970
O O1 0.500000 0.013381 0.192611
O O2 0.250000 0.989678 0.250000
O O3 0.229706 0.903840 0.160930
O O4 0.235037 0.155452 0.178110
O O5 0.500000 0.607965 0.035883
O O6 0.290784 0.728523 0.090651
O O7 0.154519 0.542632 0.037722
O O8 0.250000 0.750000 0.000000
O O9 0.500000 0.744908 0.367800
#
# Coordination Sequence:
#
# PCOD9482150 Si02
#       4
#    16  16   4  16
#     4  11  25  44  69 100 138 180 233 292 356 425
#     4  12  26  46  72 104 144 189 240 298 355 428
#     4  12  26  48  72 100 144 188 238 292 358 426
#     4  11  25  45  70 103 140 183 236 294 354 429
#
# _framework density 22.895638000000002
#
# number of rings (size 3 to 8) (size 9 to 14) (size 15 to 20)
#    0.000    0.615    3.077    3.231    4.308    7.385 
#    0.000    0.000    0.000    0.000    0.000    0.000 
#    0.000    0.000    0.000    0.000    0.000    0.000 
#
# Total GULP energy -145022.639024 kJ/mol
# GULP energy per Si atom -5577.793809 kJ/mol
# Density = 2.284353 g / cm^3
# Si number density = 22.895638 Si / 1000 Ang^3
#
#
#
# Elastic Constant Matrix: (Units=GPa)
#
#
# Indices 1 2 3 4 5 6 
#
# 1 178.2981 12.4259 19.9281 0.0000 0.0000 0.0000
# 2 12.4259 50.3888 -16.8592 0.0000 0.0000 0.0000
# 3 19.9281 -16.8592 88.2784 0.0000 0.0000 0.0000
# 4 0.0000 0.0000 0.0000 45.1365 0.0000 0.0000
# 5 0.0000 0.0000 0.0000 0.0000 39.7068 0.0000
# 6 0.0000 0.0000 0.0000 0.0000 0.0000 10.8956
#
#
#
# Elastic Compliance Matrix: (Units=1/GPa)
#
#
# Indices 1 2 3 4 5 6 
#
# 1 0.005945 -0.002046 -0.001733 0.000000 0.000000 0.000000
# 2 -0.002046 0.021904 0.004645 0.000000 0.000000 0.000000
# 3 -0.001733 0.004645 0.012606 0.000000 0.000000 0.000000
# 4 0.000000 0.000000 0.000000 0.022155 0.000000 0.000000
# 5 0.000000 0.000000 0.000000 0.000000 0.025185 0.000000
# 6 0.000000 0.000000 0.000000 0.000000 0.000000 0.091780
#
#
# Mechanical properties :
#
#
# Convention : Reuss Voigt Hill
#
# Bulk Modulus (GPa) = 23.70317 38.66165 31.18241
# Shear Modulus (GPa) = 26.05467 39.24584 32.65025
#
# Velocity S-wave (km/s) = 3.37705 4.14468 3.78040
# Velocity P-wave (km/s) = 5.05778 6.31088 5.71876
#
# Compressibility (1/GPa) = 0.04218845
#
# Stress axis : x y z
#
# Youngs Moduli (GPa) = 168.21391 45.65313 79.32707
#
# Poissons Ratio (x) = 0.09339 0.13745
# Poissons Ratio (y) = 0.34412 -0.36848
# Poissons Ratio (z) = 0.29146 -0.21206
#
# Static dielectric constant tensor:
#      x y z
#    x 1.831840 0.000000 0.000000 
#    y 0.000000 2.097460 0.000000 
#    z 0.000000 0.000000 1.682630 
# 
# From -- ./inp_files/47367.got.cif
#   From: 2010.05.17/outbox.cif.g08.bks.cpg/sg64_24_cif.got.tgz:47367.got - 2010.06.03 16:29:19.
