data_PCOD9482376
_publ_section_title
;
Structure prediction by ZEFSAII (Michael W. Deem and Ramdas Pophale) SiO2 
 PCOD9482376
Probable space group: C M C A
;
_chemical_formula_sum "Si O2"
_cell_formula_units_Z 48
_cell_length_a 9.000000
_cell_length_b 21.000000
_cell_length_c 27.000000
_cell_angle_alpha 90.000000
_cell_angle_beta 90.000000
_cell_angle_gamma 90.000000
_cell_volume 5103.000000
_symmetry_space_group_name_H-M "C M C A"
_symmetry_group_IT_number 64
_symmetry_cell_setting 'orthorhombic'
loop_
_space_group_symop_operation_xyz
x,y,z
-x,1/2-y,1/2+z
x,-y,-z
-x,1/2+y,1/2-z
-x,-y,-z
x,1/2+y,1/2-z
-x,y,z
x,1/2-y,1/2+z
1/2+x,1/2+y,z
1/2-x,-y,1/2+z
1/2+x,1/2-y,-z
1/2-x,y,1/2-z
1/2-x,1/2-y,-z
1/2+x,y,1/2-z
1/2-x,1/2+y,z
1/2+x,-y,1/2+z
loop_
_atom_site_type_symbol
_atom_site_label
_atom_site_fract_x
_atom_site_fract_y
_atom_site_fract_z
Si Si1 0.177237 0.902974 0.130838
Si Si2 0.674146 0.338236 0.033071
Si Si3 0.320976 0.520266 0.198699
Si Si4 0.677917 0.701259 0.699320
Si Si5 0.321845 0.659460 0.165747
Si Si6 0.672953 0.307023 0.565559
O O1 0.203384 0.893429 0.072610
O O2 0.265212 0.846576 0.157659
O O3 0.000000 0.892743 0.138678
O O4 0.216495 0.970602 0.155069
O O5 0.500000 0.339989 0.018298
O O6 0.697258 0.269049 0.058881
O O7 0.778204 0.338699 0.985713
O O8 0.500000 0.521091 0.203168
O O9 0.250000 0.497892 0.250000
O O10 0.268372 0.592533 0.188072
O O11 0.500000 0.700539 0.701636
O O12 0.750000 0.678371 0.750000
O O13 0.729490 0.774273 0.690382
O O14 0.500000 0.658847 0.168672
O O15 0.270843 0.665491 0.109404
O O16 0.500000 0.316734 0.576205
#
# Coordination Sequence:
#
# PCOD9482376 Si02
#       6
#    16  16  16  16  16  16
#     4  10  20  37  58  81 109 142 183 226 272 324
#     4   9  18  33  54  81 112 143 177 222 274 327
#     4  10  22  39  58  79 108 147 186 224 271 326
#     4  11  22  34  53  79 108 139 178 227 274 321
#     4  10  21  37  55  79 109 144 183 223 270 324
#     4  10  19  32  55  84 111 142 180 225 274 322
#
# _framework density 9.4062319999999993
#
# number of rings (size 3 to 8) (size 9 to 14) (size 15 to 20)
#    0.000    2.000    1.667    2.000    0.000    4.667 
#    0.000    0.833    0.000    5.000    0.000    0.000 
#    0.000    0.000    0.000    0.000    0.000    0.000 
#
# Total GULP energy -267828.948107 kJ/mol
# GULP energy per Si atom -5579.769752 kJ/mol
# Density = 0.938482 g / cm^3
# Si number density = 9.406232 Si / 1000 Ang^3
#
#
#
# Elastic Constant Matrix: (Units=GPa)
#
#
# Indices 1 2 3 4 5 6 
#
# 1 -12.7863 5.2147 -3.8530 0.0000 0.0000 0.0000
# 2 5.2147 43.9339 -7.5659 0.0000 0.0000 0.0000
# 3 -3.8530 -7.5659 30.9019 0.0000 0.0000 0.0000
# 4 0.0000 0.0000 0.0000 -32.5534 0.0000 0.0000
# 5 0.0000 0.0000 0.0000 0.0000 25.3192 0.0000
# 6 0.0000 0.0000 0.0000 0.0000 0.0000 20.3706
#
#
#
# Elastic Compliance Matrix: (Units=1/GPa)
#
#
# Indices 1 2 3 4 5 6 
#
# 1 -0.072991 0.007409 -0.007287 0.000000 0.000000 0.000000
# 2 0.007409 0.023011 0.006558 0.000000 0.000000 0.000000
# 3 -0.007287 0.006558 0.033057 0.000000 0.000000 0.000000
# 4 0.000000 0.000000 0.000000 -0.030719 0.000000 0.000000
# 5 0.000000 0.000000 0.000000 0.000000 0.039496 0.000000
# 6 0.000000 0.000000 0.000000 0.000000 0.000000 0.049090
#
#
# Mechanical properties :
#
#
# Convention : Reuss Voigt Hill
#
# Bulk Modulus (GPa) = -280.64879 5.51570 -137.56654
# Shear Modulus (GPa) = 189.40878 7.17749 98.29314
#
# Velocity S-wave (km/s) = 10.04496 1.95539 7.23619
# Velocity P-wave (km/s) = 3.86928 2.83485 1.86211
#
# Compressibility (1/GPa) = -0.00356317
#
# Stress axis : x y z
#
# Youngs Moduli (GPa) = -13.70025 43.45674 30.25036
#
# Poissons Ratio (x) = -0.32196 0.22043
# Poissons Ratio (y) = 0.10150 -0.19837
# Poissons Ratio (z) = -0.09983 -0.28498
#
# Static dielectric constant tensor:
#      x y z
#    x 1.629030 0.000000 0.000000 
#    y 0.000000 1.658990 0.000000 
#    z 0.000000 0.000000 1.691430 
# 
# From -- ./inp_files/48045.got.cif
#   From: 2010.05.17/outbox.ucp.g08.bks.cvg/sg64_25_cif.got.tgz:48045.got - 2010.06.11 16:36:46.
