data_PCOD9482760
_publ_section_title
;
Structure prediction by ZEFSAII (Michael W. Deem and Ramdas Pophale) SiO2 
 PCOD9482760
Probable space group: C M M M
;
_chemical_formula_sum "Si O2"
_cell_formula_units_Z 80
_cell_length_a 24.569155
_cell_length_b 27.397956
_cell_length_c 7.580963
_cell_angle_alpha 90.000000
_cell_angle_beta 90.000000
_cell_angle_gamma 90.000000
_cell_volume 5103.084516
_symmetry_space_group_name_H-M "C M M M"
_symmetry_group_IT_number 65
_symmetry_cell_setting 'orthorhombic'
loop_
_space_group_symop_operation_xyz
x,y,z
-x,-y,z
x,-y,-z
-x,y,-z
-x,-y,-z
x,y,-z
-x,y,z
x,-y,z
1/2+x,1/2+y,z
1/2-x,1/2-y,z
1/2+x,1/2-y,-z
1/2-x,1/2+y,-z
1/2-x,1/2-y,-z
1/2+x,1/2+y,-z
1/2-x,1/2+y,z
1/2+x,1/2-y,z
loop_
_atom_site_type_symbol
_atom_site_label
_atom_site_fract_x
_atom_site_fract_y
_atom_site_fract_z
Si Si1 0.192489 0.860430 0.794471
Si Si2 0.118972 0.767494 0.291972
Si Si3 0.000000 0.783280 0.705411
Si Si4 0.714123 0.203371 0.786963
Si Si5 0.500000 0.397163 0.786002
Si Si6 0.114338 0.944292 0.783849
O O1 0.152572 0.813169 0.786842
O O2 0.250934 0.842781 0.721409
O O3 0.160066 0.906383 0.719273
O O4 0.201698 0.871574 0.000000
O O5 0.115992 0.777942 0.500000
O O6 0.153487 0.718032 0.266882
O O7 0.057759 0.765788 0.219024
O O8 0.000000 0.768411 0.500000
O O9 0.000000 0.841941 0.718492
O O10 0.750000 0.250000 0.728959
O O11 0.714868 0.202242 0.000000
O O12 0.554859 0.424733 0.730819
O O13 0.500000 0.394900 0.000000
O O14 0.122793 0.000000 0.729075
O O15 0.114658 0.943374 0.000000
#
# Coordination Sequence:
#
# PCOD9482760 Si02
#       6
#    16  16   8  16   8  16
#     4   9  16  27  41  56  74  96 122 156 192 223
#     4  10  18  27  39  54  73  97 125 154 187 226
#     4  10  20  29  37  53  78 102 125 159 194 224
#     4   8  15  26  39  55  74  93 118 152 188 225
#     4  10  17  26  42  56  70  98 136 167 191 219
#     4   9  16  25  39  59  77  95 127 167 196 218
#
# _framework density 15.676792000000001
#
# number of rings (size 3 to 8) (size 9 to 14) (size 15 to 20)
#    0.000    2.800    2.000    2.100    0.000    5.600 
#    0.000    0.000    0.000    3.000    0.000    0.000 
#    0.000    0.000    0.000    0.900    0.000   20.800 
#
# Total GULP energy -222751.107550 kJ/mol
# GULP energy per Si atom -5568.777689 kJ/mol
# Density = 1.564111 g / cm^3
# Si number density = 15.676792 Si / 1000 Ang^3
#
#
#
# Elastic Constant Matrix: (Units=GPa)
#
#
# Indices 1 2 3 4 5 6 
#
# 1 126.8433 74.3545 -4.5547 0.0000 0.0000 0.0000
# 2 74.3545 79.5315 -0.2943 0.0000 0.0000 0.0000
# 3 -4.5547 -0.2943 31.4197 0.0000 0.0000 0.0000
# 4 0.0000 0.0000 0.0000 -13.7786 0.0000 0.0000
# 5 0.0000 0.0000 0.0000 0.0000 9.8896 0.0000
# 6 0.0000 0.0000 0.0000 0.0000 0.0000 15.5118
#
#
#
# Elastic Compliance Matrix: (Units=1/GPa)
#
#
# Indices 1 2 3 4 5 6 
#
# 1 0.017622 -0.016466 0.002400 0.000000 0.000000 0.000000
# 2 -0.016466 0.027960 -0.002125 0.000000 0.000000 0.000000
# 3 0.002400 -0.002125 0.032155 0.000000 0.000000 0.000000
# 4 0.000000 0.000000 0.000000 -0.072577 0.000000 0.000000
# 5 0.000000 0.000000 0.000000 0.000000 0.101116 0.000000
# 6 0.000000 0.000000 0.000000 0.000000 0.000000 0.064467
#
#
# Mechanical properties :
#
#
# Convention : Reuss Voigt Hill
#
# Bulk Modulus (GPa) = 22.04798 41.86726 31.95762
# Shear Modulus (GPa) = 22.90997 13.54384 18.22690
#
# Velocity S-wave (km/s) = 3.82697 2.94248 3.41349
# Velocity P-wave (km/s) = 5.79846 6.18940 5.99712
#
# Compressibility (1/GPa) = 0.04535562
#
# Stress axis : x y z
#
# Youngs Moduli (GPa) = 56.74596 35.76499 31.09914
#
# Poissons Ratio (x) = 0.58892 -0.07465
# Poissons Ratio (y) = 0.93440 0.06609
# Poissons Ratio (z) = -0.13621 0.07600
#
# Static dielectric constant tensor:
#      x y z
#    x 1.568790 0.000000 0.000000 
#    y 0.000000 1.505150 0.000000 
#    z 0.000000 0.000000 1.576410 
# 
# From -- ./inp_files/12541.got.cif
#   From: 2010.05.17/outbox.cif.g08.bks.cpg/sg65_7_cif.got.tgz:12541.got - 2010.06.03 17:01:31.
