data_PCOD9482959
_publ_section_title
;
Structure prediction by ZEFSAII (Michael W. Deem and Ramdas Pophale) SiO2 
 PCOD9482959
Probable space group: C M M M
;
_chemical_formula_sum "Si O2"
_cell_formula_units_Z 88
_cell_length_a 19.970038
_cell_length_b 28.711472
_cell_length_c 7.440015
_cell_angle_alpha 90.000000
_cell_angle_beta 90.000000
_cell_angle_gamma 90.000000
_cell_volume 4265.875351
_symmetry_space_group_name_H-M "C M M M"
_symmetry_group_IT_number 65
_symmetry_cell_setting 'orthorhombic'
loop_
_space_group_symop_operation_xyz
x,y,z
-x,-y,z
x,-y,-z
-x,y,-z
-x,-y,-z
x,y,-z
-x,y,z
x,-y,z
1/2+x,1/2+y,z
1/2-x,1/2-y,z
1/2+x,1/2-y,-z
1/2-x,1/2+y,-z
1/2-x,1/2-y,-z
1/2+x,1/2+y,-z
1/2-x,1/2+y,z
1/2+x,1/2-y,z
loop_
_atom_site_type_symbol
_atom_site_label
_atom_site_fract_x
_atom_site_fract_y
_atom_site_fract_z
Si Si1 0.339979 0.709071 0.716409
Si Si2 0.159182 0.411518 0.708853
Si Si3 0.192111 0.946197 0.217986
Si Si4 0.925260 0.120920 0.788669
Si Si5 0.577540 0.000000 0.720265
Si Si6 0.688034 0.811411 0.280145
O O1 0.339297 0.709268 0.500000
O O2 0.396420 0.673036 0.773078
O O3 0.345609 0.762774 0.775272
O O4 0.266288 0.691271 0.774494
O O5 0.139619 0.407622 0.500000
O O6 0.236686 0.426839 0.718231
O O7 0.115252 0.453538 0.785165
O O8 0.155661 0.359344 0.784987
O O9 0.131179 0.914097 0.284245
O O10 0.184374 0.000000 0.271362
O O11 0.193690 0.944485 0.000000
O O12 0.000000 0.116716 0.712614
O O13 0.929793 0.110115 0.000000
O O14 0.500000 0.000000 0.768852
O O15 0.581946 0.000000 0.500000
O O16 0.688057 0.812276 0.500000
#
# Coordination Sequence:
#
# PCOD9482959 Si02
#       6
#    16  16  16  16   8  16
#     4   9  16  30  50  72  99 126 160 203 248 295
#     4  10  17  30  53  76  99 129 163 201 245 292
#     4  10  20  33  50  73  99 127 167 212 250 295
#     4  10  21  35  49  69 101 137 169 206 253 299
#     4   9  18  30  47  75 104 127 154 192 241 293
#     4   8  15  27  48  76 100 122 154 203 249 286
#
# _framework density 20.628827000000001
#
# number of rings (size 3 to 8) (size 9 to 14) (size 15 to 20)
#    0.000    2.636    2.727    1.091    0.000    0.727 
#    0.000    5.455    0.000    4.364    0.000    2.545 
#    0.000    0.000    0.000    0.000    0.000    0.000 
#
# Total GULP energy -245543.980052 kJ/mol
# GULP energy per Si atom -5580.545001 kJ/mol
# Density = 2.058188 g / cm^3
# Si number density = 20.628827 Si / 1000 Ang^3
#
#
#
# Elastic Constant Matrix: (Units=GPa)
#
#
# Indices 1 2 3 4 5 6 
#
# 1 86.2002 52.6993 -10.3374 0.0000 0.0000 0.0000
# 2 52.6993 173.3498 -4.5292 0.0000 0.0000 0.0000
# 3 -10.3374 -4.5292 62.3512 0.0000 0.0000 0.0000
# 4 0.0000 0.0000 0.0000 10.5472 0.0000 0.0000
# 5 0.0000 0.0000 0.0000 0.0000 14.5343 0.0000
# 6 0.0000 0.0000 0.0000 0.0000 0.0000 24.0967
#
#
#
# Elastic Compliance Matrix: (Units=1/GPa)
#
#
# Indices 1 2 3 4 5 6 
#
# 1 0.014516 -0.004358 0.002090 0.000000 0.000000 0.000000
# 2 -0.004358 0.007088 -0.000208 0.000000 0.000000 0.000000
# 3 0.002090 -0.000208 0.016370 0.000000 0.000000 0.000000
# 4 0.000000 0.000000 0.000000 0.094811 0.000000 0.000000
# 5 0.000000 0.000000 0.000000 0.000000 0.068803 0.000000
# 6 0.000000 0.000000 0.000000 0.000000 0.000000 0.041499
#
#
# Mechanical properties :
#
#
# Convention : Reuss Voigt Hill
#
# Bulk Modulus (GPa) = 30.28289 44.17406 37.22847
# Shear Modulus (GPa) = 19.30151 28.77354 24.03753
#
# Velocity S-wave (km/s) = 3.06217 3.73878 3.41726
# Velocity P-wave (km/s) = 5.21673 6.33232 5.80140
#
# Compressibility (1/GPa) = 0.03302195
#
# Stress axis : x y z
#
# Youngs Moduli (GPa) = 68.88913 141.07912 61.08882
#
# Poissons Ratio (x) = 0.61487 -0.12768
# Poissons Ratio (y) = 0.30024 0.01269
# Poissons Ratio (z) = -0.14398 0.02930
#
# Static dielectric constant tensor:
#      x y z
#    x 1.689370 0.000000 0.000000 
#    y 0.000000 1.747700 0.000000 
#    z 0.000000 0.000000 1.792020 
# 
# From -- ./inp_files/10124.got.cif
#   From: 2010.05.17/outbox.cif.g08.bks.cpg/sg65_6_cif.got.tgz:10124.got - 2010.06.03 17:01:31.
