data_PCOD9482189
_publ_section_title
;
Structure prediction by ZEFSAII (Michael W. Deem and Ramdas Pophale) SiO2 
 PCOD9482189
Probable space group: C M C A
;
_chemical_formula_sum "Si O2"
_cell_formula_units_Z 64
_cell_length_a 28.125361
_cell_length_b 10.334289
_cell_length_c 9.793150
_cell_angle_alpha 90.000000
_cell_angle_beta 90.000000
_cell_angle_gamma 90.000000
_cell_volume 2846.433975
_symmetry_space_group_name_H-M "C M C A"
_symmetry_group_IT_number 64
_symmetry_cell_setting 'orthorhombic'
loop_
_space_group_symop_operation_xyz
x,y,z
-x,1/2-y,1/2+z
x,-y,-z
-x,1/2+y,1/2-z
-x,-y,-z
x,1/2+y,1/2-z
-x,y,z
x,1/2-y,1/2+z
1/2+x,1/2+y,z
1/2-x,-y,1/2+z
1/2+x,1/2-y,-z
1/2-x,y,1/2-z
1/2-x,1/2-y,-z
1/2+x,y,1/2-z
1/2-x,1/2+y,z
1/2+x,-y,1/2+z
loop_
_atom_site_type_symbol
_atom_site_label
_atom_site_fract_x
_atom_site_fract_y
_atom_site_fract_z
Si Si1 0.943105 0.055376 0.347124
Si Si2 0.330496 0.760891 0.039122
Si Si3 0.891690 0.830561 0.196207
Si Si4 0.255791 0.096570 0.108608
O O1 0.922509 0.199780 0.327839
O O2 0.000000 0.058496 0.335661
O O3 0.931675 0.000000 0.500000
O O4 0.921789 0.957989 0.233363
O O5 0.361430 0.808257 0.165278
O O6 0.281406 0.713145 0.108680
O O7 0.359231 0.663859 0.940208
O O8 0.309070 0.865131 0.931688
O O9 0.250000 0.026705 0.250000
O O10 0.236253 0.000000 0.000000
#
# Coordination Sequence:
#
# PCOD9482189 Si02
#       4
#    16  16  16  16
#     4  11  26  49  75 109 146 183 231 304 367 424
#     4  11  26  42  66 103 141 188 239 288 349 418
#     4  12  25  47  77 106 142 190 239 291 354 434
#     4  11  26  42  64  96 145 186 236 294 348 411
#
# _framework density 22.484273000000002
#
# number of rings (size 3 to 8) (size 9 to 14) (size 15 to 20)
#    0.000    0.750    5.000    0.750   10.500    0.000 
#    0.000    1.250    0.000    0.000    0.000    0.000 
#    0.000    0.000    0.000    0.000    0.000    0.000 
#
# Total GULP energy -178711.426862 kJ/mol
# GULP energy per Si atom -5584.732089 kJ/mol
# Density = 2.243310 g / cm^3
# Si number density = 22.484273 Si / 1000 Ang^3
#
#
#
# Elastic Constant Matrix: (Units=GPa)
#
#
# Indices 1 2 3 4 5 6 
#
# 1 95.4977 19.0452 21.6886 0.0000 0.0000 0.0000
# 2 19.0452 72.7787 -2.4408 0.0000 0.0000 0.0000
# 3 21.6886 -2.4408 105.2946 0.0000 0.0000 0.0000
# 4 0.0000 0.0000 0.0000 27.3638 0.0000 0.0000
# 5 0.0000 0.0000 0.0000 0.0000 36.5124 0.0000
# 6 0.0000 0.0000 0.0000 0.0000 0.0000 11.5307
#
#
#
# Elastic Compliance Matrix: (Units=1/GPa)
#
#
# Indices 1 2 3 4 5 6 
#
# 1 0.011658 -0.003134 -0.002474 0.000000 0.000000 0.000000
# 2 -0.003134 0.014593 0.000984 0.000000 0.000000 0.000000
# 3 -0.002474 0.000984 0.010030 0.000000 0.000000 0.000000
# 4 0.000000 0.000000 0.000000 0.036545 0.000000 0.000000
# 5 0.000000 0.000000 0.000000 0.000000 0.027388 0.000000
# 6 0.000000 0.000000 0.000000 0.000000 0.000000 0.086725
#
#
# Mechanical properties :
#
#
# Convention : Reuss Voigt Hill
#
# Bulk Modulus (GPa) = 36.99160 38.90632 37.94896
# Shear Modulus (GPa) = 24.36673 30.76659 27.56666
#
# Velocity S-wave (km/s) = 3.29557 3.70315 3.50529
# Velocity P-wave (km/s) = 5.56497 5.96873 5.77039
#
# Compressibility (1/GPa) = 0.02703316
#
# Stress axis : x y z
#
# Youngs Moduli (GPa) = 85.77574 68.52442 99.70522
#
# Poissons Ratio (x) = 0.21474 0.24667
# Poissons Ratio (y) = 0.26880 -0.09809
# Poissons Ratio (z) = 0.21221 -0.06741
#
# Static dielectric constant tensor:
#      x y z
#    x 1.817770 0.000000 0.000000 
#    y 0.000000 1.902100 0.000000 
#    z 0.000000 0.000000 1.887990 
# 
# From -- ./inp_files/10871.got.cif
#   From: 2010.05.17/outbox.cif.g08.bks.cpg/sg64_6_cif.got.tgz:10871.got - 2010.06.03 16:29:19.
