data_PCOD9482817
_publ_section_title
;
Structure prediction by ZEFSAII (Michael W. Deem and Ramdas Pophale) SiO2 
 PCOD9482817
Probable space group: C M M M
;
_chemical_formula_sum "Si O2"
_cell_formula_units_Z 88
_cell_length_a 24.779508
_cell_length_b 33.625618
_cell_length_c 7.886520
_cell_angle_alpha 90.000000
_cell_angle_beta 90.000000
_cell_angle_gamma 90.000000
_cell_volume 6571.255645
_symmetry_space_group_name_H-M "C M M M"
_symmetry_group_IT_number 65
_symmetry_cell_setting 'orthorhombic'
loop_
_space_group_symop_operation_xyz
x,y,z
-x,-y,z
x,-y,-z
-x,y,-z
-x,-y,-z
x,y,-z
-x,y,z
x,-y,z
1/2+x,1/2+y,z
1/2-x,1/2-y,z
1/2+x,1/2-y,-z
1/2-x,1/2+y,-z
1/2-x,1/2-y,-z
1/2+x,1/2+y,-z
1/2-x,1/2+y,z
1/2+x,1/2-y,z
loop_
_atom_site_type_symbol
_atom_site_label
_atom_site_fract_x
_atom_site_fract_y
_atom_site_fract_z
Si Si1 0.435278 0.047364 0.000000
Si Si2 0.500000 0.159541 0.697898
Si Si3 0.722642 0.291108 0.702326
Si Si4 0.381281 0.250071 0.795579
Si Si5 0.174806 0.332602 0.800606
Si Si6 0.099773 0.600781 0.693785
Si Si7 0.000000 0.746936 0.193273
O O1 0.408399 0.067097 0.834072
O O2 0.500000 0.056009 0.000000
O O3 0.428939 0.000000 0.000000
O O4 0.500000 0.171798 0.500000
O O5 0.551938 0.132491 0.727488
O O6 0.500000 0.198945 0.807512
O O7 0.726829 0.292616 0.500000
O O8 0.750000 0.250000 0.765611
O O9 0.660582 0.284933 0.750727
O O10 0.761619 0.324836 0.774629
O O11 0.356641 0.207364 0.735082
O O12 0.441777 0.257335 0.729303
O O13 0.383939 0.247074 0.000000
O O14 0.153025 0.372364 0.714401
O O15 0.163070 0.335884 0.000000
O O16 0.094432 0.586435 0.500000
O O17 0.000000 0.762238 0.000000
#
# Coordination Sequence:
#
# PCOD9482817 Si02
#       7
#     8   8  16  16  16  16   8
#     4  11  24  38  52  66  85 112 136 163 210 265
#     4  10  20  28  40  61  82 101 131 175 216 249
#     4   9  17  27  37  52  78 105 131 166 208 251
#     4   9  17  26  37  54  77 105 137 171 209 252
#     4  10  17  27  45  62  79 103 133 170 212 253
#     4  11  21  33  49  68  85 104 136 175 212 256
#     4  10  18  26  40  56  77 107 139 177 215 252
#
# _framework density 13.391657
#
# number of rings (size 3 to 8) (size 9 to 14) (size 15 to 20)
#    0.000    2.091    3.636    1.091    1.273    4.000 
#    0.000    0.909    0.000    0.000    0.000    0.000 
#    0.000    0.000    0.000    0.000    0.000    0.000 
#
# Total GULP energy -245165.285237 kJ/mol
# GULP energy per Si atom -5571.938301 kJ/mol
# Density = 1.336118 g / cm^3
# Si number density = 13.391657 Si / 1000 Ang^3
#
#
#
# Elastic Constant Matrix: (Units=GPa)
#
#
# Indices 1 2 3 4 5 6 
#
# 1 87.2951 28.9293 18.3524 0.0000 0.0000 0.0000
# 2 28.9293 44.5902 22.8629 0.0000 0.0000 0.0000
# 3 18.3524 22.8629 42.7332 0.0000 0.0000 0.0000
# 4 0.0000 0.0000 0.0000 5.7459 0.0000 0.0000
# 5 0.0000 0.0000 0.0000 0.0000 10.7813 0.0000
# 6 0.0000 0.0000 0.0000 0.0000 0.0000 15.7375
#
#
#
# Elastic Compliance Matrix: (Units=1/GPa)
#
#
# Indices 1 2 3 4 5 6 
#
# 1 0.014678 -0.008669 -0.001666 0.000000 0.000000 0.000000
# 2 -0.008669 0.036024 -0.015550 0.000000 0.000000 0.000000
# 3 -0.001666 -0.015550 0.032436 0.000000 0.000000 0.000000
# 4 0.000000 0.000000 0.000000 0.174037 0.000000 0.000000
# 5 0.000000 0.000000 0.000000 0.000000 0.092753 0.000000
# 6 0.000000 0.000000 0.000000 0.000000 0.000000 0.063542
#
#
# Mechanical properties :
#
#
# Convention : Reuss Voigt Hill
#
# Bulk Modulus (GPa) = 31.87945 34.98975 33.43460
# Shear Modulus (GPa) = 10.51090 13.41789 11.96439
#
# Velocity S-wave (km/s) = 2.80462 3.16881 2.99226
# Velocity P-wave (km/s) = 5.86046 6.29072 6.07940
#
# Compressibility (1/GPa) = 0.03136817
#
# Stress axis : x y z
#
# Youngs Moduli (GPa) = 68.12698 27.75937 30.82985
#
# Poissons Ratio (x) = 0.24065 0.05136
# Poissons Ratio (y) = 0.59059 0.47941
# Poissons Ratio (z) = 0.11349 0.43167
#
# Static dielectric constant tensor:
#      x y z
#    x 1.487660 0.000000 0.000000 
#    y 0.000000 1.401920 0.000000 
#    z 0.000000 0.000000 1.468470 
# 
# From -- ./inp_files/15012.got.cif
#   From: 2010.05.17/outbox.cif.g08.bks.cpg/sg65_8_cif.got.tgz:15012.got - 2010.06.03 17:01:31.
