data_PCOD9482322
_publ_section_title
;
Structure prediction by ZEFSAII (Michael W. Deem and Ramdas Pophale) SiO2 
 PCOD9482322
Probable space group: C M C A
;
_chemical_formula_sum "Si O2"
_cell_formula_units_Z 112
_cell_length_a 14.050327
_cell_length_b 11.616762
_cell_length_c 31.635915
_cell_angle_alpha 90.000000
_cell_angle_beta 90.000000
_cell_angle_gamma 90.000000
_cell_volume 5163.592052
_symmetry_space_group_name_H-M "C M C A"
_symmetry_group_IT_number 64
_symmetry_cell_setting 'orthorhombic'
loop_
_space_group_symop_operation_xyz
x,y,z
-x,1/2-y,1/2+z
x,-y,-z
-x,1/2+y,1/2-z
-x,-y,-z
x,1/2+y,1/2-z
-x,y,z
x,1/2-y,1/2+z
1/2+x,1/2+y,z
1/2-x,-y,1/2+z
1/2+x,1/2-y,-z
1/2-x,y,1/2-z
1/2-x,1/2-y,-z
1/2+x,y,1/2-z
1/2-x,1/2+y,z
1/2+x,-y,1/2+z
loop_
_atom_site_type_symbol
_atom_site_label
_atom_site_fract_x
_atom_site_fract_y
_atom_site_fract_z
Si Si1 0.149157 0.491951 0.225469
Si Si2 0.384103 0.549821 0.932868
Si Si3 0.641474 0.246171 0.736523
Si Si4 0.383893 0.924593 0.039884
Si Si5 0.114422 0.209027 0.860807
Si Si6 0.384050 0.169916 0.479671
Si Si7 0.116069 0.967126 0.628830
O O1 0.250000 0.490127 0.250000
O O2 0.104273 0.367022 0.238106
O O3 0.104953 0.619429 0.237505
O O4 0.156024 0.494629 0.174419
O O5 0.500000 0.545141 0.930943
O O6 0.349645 0.605887 0.889727
O O7 0.350824 0.423510 0.945639
O O8 0.360708 0.629089 0.973147
O O9 0.750000 0.259262 0.750000
O O10 0.639281 0.206723 0.688035
O O11 0.500000 0.927928 0.039311
O O12 0.351618 0.795809 0.031422
O O13 0.356609 0.966054 0.086462
O O14 0.351730 0.000000 0.000000
O O15 0.143387 0.333834 0.877888
O O16 0.000000 0.206186 0.862920
O O17 0.500000 0.170252 0.478407
O O18 0.000000 0.973242 0.632985
#
# Coordination Sequence:
#
# PCOD9482322 Si02
#       7
#    16  16  16  16  16  16  16
#     4   9  18  34  52  68  91 121 163 201 243 290
#     4   8  13  22  36  56  86 124 158 186 220 266
#     4   9  18  33  51  68  89 116 157 200 240 289
#     4   9  15  23  37  60  93 129 159 187 227 280
#     4   9  16  27  44  66  92 122 157 192 234 284
#     4   8  13  21  34  54  87 127 158 186 220 264
#     4   9  17  28  44  68  98 127 156 197 242 281
#
# _framework density 21.690327
#
# number of rings (size 3 to 8) (size 9 to 14) (size 15 to 20)
#    0.000    3.286    0.000    1.714    0.000    4.000 
#    2.571    0.000    0.000    0.000    0.000    0.000 
#   17.143   16.571    0.000    0.000    0.000    0.286 
#
# Total GULP energy -312196.580376 kJ/mol
# GULP energy per Si atom -5574.938935 kJ/mol
# Density = 2.164096 g / cm^3
# Si number density = 21.690327 Si / 1000 Ang^3
#
#
#
# Elastic Constant Matrix: (Units=GPa)
#
#
# Indices 1 2 3 4 5 6 
#
# 1 62.7783 13.4554 2.4819 0.0000 0.0000 0.0000
# 2 13.4554 182.3599 99.5041 0.0000 0.0000 0.0000
# 3 2.4819 99.5041 114.2718 0.0000 0.0000 0.0000
# 4 0.0000 0.0000 0.0000 39.6637 0.0000 0.0000
# 5 0.0000 0.0000 0.0000 0.0000 33.5194 0.0000
# 6 0.0000 0.0000 0.0000 0.0000 0.0000 -10.1366
#
#
#
# Elastic Compliance Matrix: (Units=1/GPa)
#
#
# Indices 1 2 3 4 5 6 
#
# 1 0.016289 -0.001922 0.001320 0.000000 0.000000 0.000000
# 2 -0.001922 0.010674 -0.009253 0.000000 0.000000 0.000000
# 3 0.001320 -0.009253 0.016780 0.000000 0.000000 0.000000
# 4 0.000000 0.000000 0.000000 0.025212 0.000000 0.000000
# 5 0.000000 0.000000 0.000000 0.000000 0.029834 0.000000
# 6 0.000000 0.000000 0.000000 0.000000 0.000000 -0.098652
#
#
# Mechanical properties :
#
#
# Convention : Reuss Voigt Hill
#
# Bulk Modulus (GPa) = 41.61065 65.58809 53.59937
# Shear Modulus (GPa) = 179.48027 28.87385 104.17706
#
# Velocity S-wave (km/s) = 9.10639 3.65250 6.93783
# Velocity P-wave (km/s) = 11.39272 6.93482 9.43095
#
# Compressibility (1/GPa) = 0.02403231
#
# Stress axis : x y z
#
# Youngs Moduli (GPa) = 61.39170 93.68146 59.59548
#
# Poissons Ratio (x) = 0.18006 -0.07866
# Poissons Ratio (y) = 0.11800 0.55145
# Poissons Ratio (z) = -0.08103 0.86686
#
# Static dielectric constant tensor:
#      x y z
#    x 1.849710 0.000000 0.000000 
#    y 0.000000 1.822630 0.000000 
#    z 0.000000 0.000000 1.711570 
# 
# From -- ./inp_files/46691.got.cif
#   From: 2010.05.17/outbox.cif.g08.bks.cpg/sg64_24_cif.got.tgz:46691.got - 2010.06.03 16:29:19.
