data_PCOD9482781
_publ_section_title
;
Structure prediction by ZEFSAII (Michael W. Deem and Ramdas Pophale) SiO2 
 PCOD9482781
Probable space group: C M M M
;
_chemical_formula_sum "Si O2"
_cell_formula_units_Z 112
_cell_length_a 17.722068
_cell_length_b 15.532503
_cell_length_c 19.961174
_cell_angle_alpha 90.000000
_cell_angle_beta 90.000000
_cell_angle_gamma 90.000000
_cell_volume 5494.673929
_symmetry_space_group_name_H-M "C M M M"
_symmetry_group_IT_number 65
_symmetry_cell_setting 'orthorhombic'
loop_
_space_group_symop_operation_xyz
x,y,z
-x,-y,z
x,-y,-z
-x,y,-z
-x,-y,-z
x,y,-z
-x,y,z
x,-y,z
1/2+x,1/2+y,z
1/2-x,1/2-y,z
1/2+x,1/2-y,-z
1/2-x,1/2+y,-z
1/2-x,1/2-y,-z
1/2+x,1/2+y,-z
1/2-x,1/2+y,z
1/2+x,1/2-y,z
loop_
_atom_site_type_symbol
_atom_site_label
_atom_site_fract_x
_atom_site_fract_y
_atom_site_fract_z
Si Si1 0.650307 0.345931 0.926814
Si Si2 0.414579 0.654139 0.787149
Si Si3 0.085977 0.766161 0.420606
Si Si4 0.635318 0.092286 0.646867
Si Si5 0.206646 0.839776 0.679074
Si Si6 0.914306 0.636732 0.795373
Si Si7 0.674120 0.137881 0.074021
O O1 0.602031 0.373123 0.863228
O O2 0.658644 0.241390 0.925870
O O3 0.736487 0.377467 0.921207
O O4 0.620165 0.370340 0.000000
O O5 0.500000 0.629939 0.766702
O O6 0.345392 0.626621 0.739576
O O7 0.410486 0.759043 0.786928
O O8 0.095956 0.773153 0.500000
O O9 0.100089 0.669003 0.395736
O O10 0.147846 0.819177 0.379794
O O11 0.000000 0.790906 0.403334
O O12 0.725609 0.102618 0.652238
O O13 0.608593 0.100471 0.723664
O O14 0.613851 0.000000 0.619272
O O15 0.250000 0.750000 0.699208
O O16 0.864747 0.607161 0.858162
O O17 0.000000 0.614237 0.810416
O O18 0.648703 0.107049 0.000000
#
# Coordination Sequence:
#
# PCOD9482781 Si02
#       7
#    16  16  16  16  16  16  16
#     4   8  14  22  35  59  95 131 162 206 266 322
#     4  10  17  26  46  72  97 130 171 215 265 313
#     4  10  21  38  61  87 111 137 170 209 255 305
#     4  11  23  36  53  79 110 145 179 212 255 307
#     4  10  19  33  55  76 103 137 176 218 253 299
#     4  10  18  28  45  70 101 135 173 216 263 312
#     4   8  14  24  39  60  90 131 174 213 258 310
#
# _framework density 20.383374
#
# number of rings (size 3 to 8) (size 9 to 14) (size 15 to 20)
#    0.000    2.429    2.857    2.571    2.000    4.571 
#    0.000    3.571    0.000    2.143    0.000    2.000 
#    0.000    0.000    0.000    5.143    0.000    1.286 
#
# Total GULP energy -312482.468079 kJ/mol
# GULP energy per Si atom -5580.044073 kJ/mol
# Density = 2.033698 g / cm^3
# Si number density = 20.383374 Si / 1000 Ang^3
#
#
#
# Elastic Constant Matrix: (Units=GPa)
#
#
# Indices 1 2 3 4 5 6 
#
# 1 70.5098 -12.3438 30.2120 0.0000 0.0000 0.0000
# 2 -12.3438 11.7842 -7.6444 0.0000 0.0000 0.0000
# 3 30.2120 -7.6444 79.3654 0.0000 0.0000 0.0000
# 4 0.0000 0.0000 0.0000 -4.0434 0.0000 0.0000
# 5 0.0000 0.0000 0.0000 0.0000 46.3135 0.0000
# 6 0.0000 0.0000 0.0000 0.0000 0.0000 -7.5635
#
#
#
# Elastic Compliance Matrix: (Units=1/GPa)
#
#
# Indices 1 2 3 4 5 6 
#
# 1 0.019626 0.016758 -0.005857 0.000000 0.000000 0.000000
# 2 0.016758 0.104825 0.003717 0.000000 0.000000 0.000000
# 3 -0.005857 0.003717 0.015187 0.000000 0.000000 0.000000
# 4 0.000000 0.000000 0.000000 -0.247315 0.000000 0.000000
# 5 0.000000 0.000000 0.000000 0.000000 0.021592 0.000000
# 6 0.000000 0.000000 0.000000 0.000000 0.000000 -0.132214
#
#
# Mechanical properties :
#
#
# Convention : Reuss Voigt Hill
#
# Bulk Modulus (GPa) = 5.92151 20.23410 13.07780
# Shear Modulus (GPa) = -26.14453 17.03702 -4.55375
#
# Velocity S-wave (km/s) = -3.58528 2.89421 -1.49630
# Velocity P-wave (km/s) = 3.77195 4.59531 1.85597
#
# Compressibility (1/GPa) = 0.16887587
#
# Stress axis : x y z
#
# Youngs Moduli (GPa) = 50.95343 9.53973 65.84365
#
# Poissons Ratio (x) = -0.15987 0.38563
# Poissons Ratio (y) = -0.85390 -0.24476
# Poissons Ratio (z) = 0.29842 -0.03546
#
# Static dielectric constant tensor:
#      x y z
#    x 1.703960 0.000000 0.000000 
#    y 0.000000 1.804440 0.000000 
#    z 0.000000 0.000000 1.709980 
# 
# From -- ./inp_files/54880.got.cif
#   From: 2010.05.17/outbox.cif.g08.bks.cpg/sg65_28_cif.got.tgz:54880.got - 2010.06.03 17:01:31.
