data_PCOD9482512
_publ_section_title
;
Structure prediction by ZEFSAII (Michael W. Deem and Ramdas Pophale) SiO2 
 PCOD9482512
Probable space group: C M C A
;
_chemical_formula_sum "Si O2"
_cell_formula_units_Z 60
_cell_length_a 21.000000
_cell_length_b 21.000000
_cell_length_c 15.000000
_cell_angle_alpha 90.000000
_cell_angle_beta 90.000000
_cell_angle_gamma 90.000000
_cell_volume 6615.000000
_symmetry_space_group_name_H-M "C M C A"
_symmetry_group_IT_number 64
_symmetry_cell_setting 'orthorhombic'
loop_
_space_group_symop_operation_xyz
x,y,z
-x,1/2-y,1/2+z
x,-y,-z
-x,1/2+y,1/2-z
-x,-y,-z
x,1/2+y,1/2-z
-x,y,z
x,1/2-y,1/2+z
1/2+x,1/2+y,z
1/2-x,-y,1/2+z
1/2+x,1/2-y,-z
1/2-x,y,1/2-z
1/2-x,1/2-y,-z
1/2+x,y,1/2-z
1/2-x,1/2+y,z
1/2+x,-y,1/2+z
loop_
_atom_site_type_symbol
_atom_site_label
_atom_site_fract_x
_atom_site_fract_y
_atom_site_fract_z
Si Si1 0.000000 0.744954 0.494918
Si Si2 0.615583 0.836350 0.587865
Si Si3 0.803260 0.124824 0.584429
Si Si4 0.254289 0.262970 0.856720
Si Si5 0.672798 0.932678 0.452783
Si Si6 0.922849 0.914959 0.735401
Si Si7 0.175564 0.468540 0.248449
Si Si8 0.619816 0.678020 0.424824
O O1 0.942756 0.710380 0.434560
O O2 0.942077 0.779125 0.554486
O O3 0.683537 0.802260 0.609525
O O4 0.629499 0.880580 0.501742
O O5 0.595309 0.879214 0.672410
O O6 0.770027 0.190193 0.617180
O O7 0.747040 0.085989 0.535371
O O8 0.825468 0.084103 0.670032
O O9 0.859317 0.141452 0.515606
O O10 0.250000 0.269301 0.750000
O O11 0.185951 0.285385 0.897036
O O12 0.663303 0.938761 0.346424
O O13 0.660759 0.000000 0.500000
O O14 0.900249 0.870260 0.653638
O O15 0.000000 0.926372 0.731819
O O16 0.877892 0.977848 0.732326
O O17 0.250000 0.492996 0.250000
#
# Coordination Sequence:
#
# PCOD9482512 Si02
#       8
#     8  16  16  16  16  16  16  16
#     4  12  26  46  63  99 142 188 225 273 350 418
#     4  12  24  44  71 100 138 182 229 294 342 416
#     4  11  24  42  65 103 141 173 221 293 348 408
#     4  12  23  41  74 104 138 174 235 294 356 402
#     4  11  22  41  70 102 131 173 229 292 343 397
#     4  12  26  46  66 102 139 181 231 279 342 421
#     4  10  25  45  70  98 137 179 233 286 346 407
#     4  12  25  42  71 103 139 185 229 282 346 427
#
# _framework density 9.0702949999999998
#
# number of rings (size 3 to 8) (size 9 to 14) (size 15 to 20)
#    0.000    0.533    6.667    2.400    5.600    0.000 
#    2.400    3.000    0.000    0.000    0.000    0.000 
#    0.000    0.000    0.000    0.000    0.000    0.000 
#
# Total GULP energy -334175.596631 kJ/mol
# GULP energy per Si atom -5569.593277 kJ/mol
# Density = 0.904965 g / cm^3
# Si number density = 9.070295 Si / 1000 Ang^3
#
#
#
# Elastic Constant Matrix: (Units=GPa)
#
#
# Indices 1 2 3 4 5 6 
#
# 1 180.6096 62.6183 58.8221 0.0000 0.0000 0.0000
# 2 62.6183 89.3708 47.0389 0.0000 0.0000 0.0000
# 3 58.8221 47.0389 130.3833 0.0000 0.0000 0.0000
# 4 0.0000 0.0000 0.0000 39.4841 0.0000 0.0000
# 5 0.0000 0.0000 0.0000 0.0000 33.4947 0.0000
# 6 0.0000 0.0000 0.0000 0.0000 0.0000 31.8150
#
#
#
# Elastic Compliance Matrix: (Units=1/GPa)
#
#
# Indices 1 2 3 4 5 6 
#
# 1 0.007669 -0.004385 -0.001878 0.000000 0.000000 0.000000
# 2 -0.004385 0.016319 -0.003909 0.000000 0.000000 0.000000
# 3 -0.001878 -0.003909 0.009927 0.000000 0.000000 0.000000
# 4 0.000000 0.000000 0.000000 0.025327 0.000000 0.000000
# 5 0.000000 0.000000 0.000000 0.000000 0.029855 0.000000
# 6 0.000000 0.000000 0.000000 0.000000 0.000000 0.031432
#
#
# Mechanical properties :
#
#
# Convention : Reuss Voigt Hill
#
# Bulk Modulus (GPa) = 73.68509 81.92469 77.80489
# Shear Modulus (GPa) = 34.38879 36.41773 35.40326
#
# Velocity S-wave (km/s) = 4.35867 4.48540 4.42249
# Velocity P-wave (km/s) = 8.12636 8.49024 8.31029
#
# Compressibility (1/GPa) = 0.01357127
#
# Stress axis : x y z
#
# Youngs Moduli (GPa) = 130.40253 61.27778 100.73297
#
# Poissons Ratio (x) = 0.26868 0.18915
# Poissons Ratio (y) = 0.57178 0.39380
# Poissons Ratio (z) = 0.24487 0.23956
#
# Static dielectric constant tensor:
#      x y z
#    x 1.596980 0.000000 0.000000 
#    y 0.000000 1.652160 0.000000 
#    z 0.000000 0.000000 1.627570 
# 
# From -- ./inp_files/26753.got.cif
#   From: 2010.05.17/outbox.ucp.g08.bks.cvg/sg64_14_cif.got.tgz:26753.got - 2010.06.11 16:36:46.
