data_PCOD9482053
_publ_section_title
;
Structure prediction by ZEFSAII (Michael W. Deem and Ramdas Pophale) SiO2 
 PCOD9482053
Probable space group: C M C A
;
_chemical_formula_sum "Si O2"
_cell_formula_units_Z 56
_cell_length_a 10.078545
_cell_length_b 11.934881
_cell_length_c 18.899410
_cell_angle_alpha 90.000000
_cell_angle_beta 90.000000
_cell_angle_gamma 90.000000
_cell_volume 2273.338877
_symmetry_space_group_name_H-M "C M C A"
_symmetry_group_IT_number 64
_symmetry_cell_setting 'orthorhombic'
loop_
_space_group_symop_operation_xyz
x,y,z
-x,1/2-y,1/2+z
x,-y,-z
-x,1/2+y,1/2-z
-x,-y,-z
x,1/2+y,1/2-z
-x,y,z
x,1/2-y,1/2+z
1/2+x,1/2+y,z
1/2-x,-y,1/2+z
1/2+x,1/2-y,-z
1/2-x,y,1/2-z
1/2-x,1/2-y,-z
1/2+x,y,1/2-z
1/2-x,1/2+y,z
1/2+x,-y,1/2+z
loop_
_atom_site_type_symbol
_atom_site_label
_atom_site_fract_x
_atom_site_fract_y
_atom_site_fract_z
Si Si1 0.500000 0.644763 0.761359
Si Si2 0.500000 0.909727 0.100195
Si Si3 0.778485 0.412095 0.903082
Si Si4 0.750000 0.808605 0.750000
Si Si5 0.500000 0.742263 0.473091
Si Si6 0.000000 0.513665 0.591979
O O1 0.500000 0.591599 0.684265
O O2 0.626096 0.726134 0.760350
O O3 0.500000 0.556114 0.825380
O O4 0.368771 0.979375 0.082203
O O5 0.500000 0.796236 0.055165
O O6 0.757977 0.383231 0.820284
O O7 0.866937 0.314394 0.938711
O O8 0.630789 0.442912 0.925161
O O9 0.500000 0.868844 0.448529
#
# Coordination Sequence:
#
# PCOD9482053 Si02
#       6
#     8   8  16   8   8   8
#     4  12  23  42  70 108 137 190 238 297 364 406
#     4  11  25  46  70 101 149 191 233 296 361 430
#     4  11  23  45  71 104 139 190 236 292 360 417
#     4  12  22  42  72 106 144 178 244 308 338 426
#     4  11  26  52  68 104 153 186 236 296 358 432
#     4  12  24  46  77 105 141 188 245 298 351 430
#
# _framework density 24.633368999999998
#
# number of rings (size 3 to 8) (size 9 to 14) (size 15 to 20)
#    0.000    0.571    2.857    6.857    0.000    1.143 
#    5.143    2.857    0.000    0.000    0.000    0.000 
#    0.000    0.000    0.000    0.000    0.000    0.000 
#
# Total GULP energy -156883.056894 kJ/mol
# GULP energy per Si atom -5602.966318 kJ/mol
# Density = 2.457730 g / cm^3
# Si number density = 24.633369 Si / 1000 Ang^3
#
#
#
# Elastic Constant Matrix: (Units=GPa)
#
#
# Indices 1 2 3 4 5 6 
#
# 1 247.4094 74.8682 28.9890 0.0000 0.0000 0.0000
# 2 74.8682 74.2598 23.4230 0.0000 0.0000 0.0000
# 3 28.9890 23.4230 175.7034 0.0000 0.0000 0.0000
# 4 0.0000 0.0000 0.0000 48.5123 0.0000 0.0000
# 5 0.0000 0.0000 0.0000 0.0000 23.7511 0.0000
# 6 0.0000 0.0000 0.0000 0.0000 0.0000 126.9602
#
#
#
# Elastic Compliance Matrix: (Units=1/GPa)
#
#
# Indices 1 2 3 4 5 6 
#
# 1 0.005822 -0.005811 -0.000186 0.000000 0.000000 0.000000
# 2 -0.005811 0.019858 -0.001688 0.000000 0.000000 0.000000
# 3 -0.000186 -0.001688 0.005947 0.000000 0.000000 0.000000
# 4 0.000000 0.000000 0.000000 0.020613 0.000000 0.000000
# 5 0.000000 0.000000 0.000000 0.000000 0.042103 0.000000
# 6 0.000000 0.000000 0.000000 0.000000 0.000000 0.007876
#
#
# Mechanical properties :
#
#
# Convention : Reuss Voigt Hill
#
# Bulk Modulus (GPa) = 61.51631 83.54811 72.53221
# Shear Modulus (GPa) = 40.64711 64.51755 52.58233
#
# Velocity S-wave (km/s) = 4.06653 5.12328 4.62518
# Velocity P-wave (km/s) = 6.86118 8.30588 7.61785
#
# Compressibility (1/GPa) = 0.01625585
#
# Stress axis : x y z
#
# Youngs Moduli (GPa) = 171.75624 50.35836 168.14735
#
# Poissons Ratio (x) = 0.29265 0.03126
# Poissons Ratio (y) = 0.99812 0.28391
# Poissons Ratio (z) = 0.03193 0.08503
#
# Static dielectric constant tensor:
#      x y z
#    x 1.937590 0.000000 0.000000 
#    y 0.000000 1.919720 0.000000 
#    z 0.000000 0.000000 2.093070 
# 
# From -- ./inp_files/36204.got.cif
#   From: 2010.05.17/outbox.cif.g08.bks.cpg/sg64_19_cif.got.tgz:36204.got - 2010.06.03 16:29:19.
