data_PCOD9482725
_publ_section_title
;
Structure prediction by ZEFSAII (Michael W. Deem and Ramdas Pophale) SiO2 
 PCOD9482725
Probable space group: C M M M
;
_chemical_formula_sum "Si O2"
_cell_formula_units_Z 88
_cell_length_a 20.459411
_cell_length_b 33.739969
_cell_length_c 8.844208
_cell_angle_alpha 90.000000
_cell_angle_beta 90.000000
_cell_angle_gamma 90.000000
_cell_volume 6105.155835
_symmetry_space_group_name_H-M "C M M M"
_symmetry_group_IT_number 65
_symmetry_cell_setting 'orthorhombic'
loop_
_space_group_symop_operation_xyz
x,y,z
-x,-y,z
x,-y,-z
-x,y,-z
-x,-y,-z
x,y,-z
-x,y,z
x,-y,z
1/2+x,1/2+y,z
1/2-x,1/2-y,z
1/2+x,1/2-y,-z
1/2-x,1/2+y,-z
1/2-x,1/2-y,-z
1/2+x,1/2+y,-z
1/2-x,1/2+y,z
1/2+x,1/2-y,z
loop_
_atom_site_type_symbol
_atom_site_label
_atom_site_fract_x
_atom_site_fract_y
_atom_site_fract_z
Si Si1 0.848671 0.241684 0.180659
Si Si2 0.426497 0.324889 0.681479
Si Si3 0.694976 0.618970 0.680902
Si Si4 0.273915 0.807183 0.318429
Si Si5 0.637622 0.545669 0.819780
Si Si6 0.000000 0.048055 0.670374
O O1 0.910535 0.216968 0.239286
O O2 0.788226 0.216331 0.249745
O O3 0.836520 0.285622 0.246766
O O4 0.845367 0.242140 0.000000
O O5 0.421046 0.319632 0.500000
O O6 0.500000 0.338349 0.716612
O O7 0.370262 0.356121 0.725763
O O8 0.692369 0.613839 0.500000
O O9 0.756868 0.647111 0.715940
O O10 0.690296 0.576732 0.759499
O O11 0.274180 0.802312 0.500000
O O12 0.649652 0.500000 0.772580
O O13 0.567018 0.558263 0.753532
O O14 0.634420 0.546723 0.000000
O O15 0.000000 0.064351 0.500000
O O16 0.000000 0.000000 0.662951
#
# Coordination Sequence:
#
# PCOD9482725 Si02
#       6
#    16  16  16  16  16   8
#     4  10  17  25  40  60  79  98 122 154 190 229
#     4   9  18  31  43  56  77 104 131 160 194 233
#     4   9  18  29  43  60  74  96 130 166 197 230
#     4   9  16  28  43  57  74  97 125 155 189 229
#     4  10  20  31  41  55  75  97 122 156 201 244
#     4   9  17  29  43  53  63  87 123 157 187 227
#
# _framework density 14.414046000000001
#
# number of rings (size 3 to 8) (size 9 to 14) (size 15 to 20)
#    0.000    2.636    0.000    5.182    1.273    6.182 
#    0.000    0.000    0.000    0.000    0.000    0.000 
#    0.000    0.000    0.000    0.000    0.000    0.909 
#
# Total GULP energy -245034.830377 kJ/mol
# GULP energy per Si atom -5568.973418 kJ/mol
# Density = 1.438124 g / cm^3
# Si number density = 14.414046 Si / 1000 Ang^3
#
#
#
# Elastic Constant Matrix: (Units=GPa)
#
#
# Indices 1 2 3 4 5 6 
#
# 1 11.0380 16.4339 5.9814 0.0000 0.0000 0.0000
# 2 16.4339 88.8642 29.2377 0.0000 0.0000 0.0000
# 3 5.9814 29.2377 43.1414 0.0000 0.0000 0.0000
# 4 0.0000 0.0000 0.0000 10.2438 0.0000 0.0000
# 5 0.0000 0.0000 0.0000 0.0000 24.3985 0.0000
# 6 0.0000 0.0000 0.0000 0.0000 0.0000 23.8353
#
#
#
# Elastic Compliance Matrix: (Units=1/GPa)
#
#
# Indices 1 2 3 4 5 6 
#
# 1 0.125172 -0.022443 -0.002145 0.000000 0.000000 0.000000
# 2 -0.022443 0.018506 -0.009430 0.000000 0.000000 0.000000
# 3 -0.002145 -0.009430 0.029868 0.000000 0.000000 0.000000
# 4 0.000000 0.000000 0.000000 0.097620 0.000000 0.000000
# 5 0.000000 0.000000 0.000000 0.000000 0.040986 0.000000
# 6 0.000000 0.000000 0.000000 0.000000 0.000000 0.041955
#
#
# Mechanical properties :
#
#
# Convention : Reuss Voigt Hill
#
# Bulk Modulus (GPa) = 9.47773 27.37218 18.42496
# Shear Modulus (GPa) = 10.93344 17.78824 14.36084
#
# Velocity S-wave (km/s) = 2.75712 3.51677 3.15986
# Velocity P-wave (km/s) = 4.08965 5.95999 5.11110
#
# Compressibility (1/GPa) = 0.10551044
#
# Stress axis : x y z
#
# Youngs Moduli (GPa) = 7.98900 54.03574 33.48053
#
# Poissons Ratio (x) = 1.21271 0.07181
# Poissons Ratio (y) = 0.17930 0.31573
# Poissons Ratio (z) = 0.01714 0.50958
#
# Static dielectric constant tensor:
#      x y z
#    x 1.476020 0.000000 0.000000 
#    y 0.000000 1.529270 0.000000 
#    z 0.000000 0.000000 1.479430 
# 
# From -- ./inp_files/14958.got.cif
#   From: 2010.05.17/outbox.cif.g08.bks.cpg/sg65_8_cif.got.tgz:14958.got - 2010.06.03 17:01:31.
