data_PCOD9482044
_publ_section_title
;
Structure prediction by ZEFSAII (Michael W. Deem and Ramdas Pophale) SiO2 
 PCOD9482044
Probable space group: C M C A
;
_chemical_formula_sum "Si O2"
_cell_formula_units_Z 56
_cell_length_a 9.995943
_cell_length_b 17.399746
_cell_length_c 16.200555
_cell_angle_alpha 90.000000
_cell_angle_beta 90.000000
_cell_angle_gamma 90.000000
_cell_volume 2817.711811
_symmetry_space_group_name_H-M "C M C A"
_symmetry_group_IT_number 64
_symmetry_cell_setting 'orthorhombic'
loop_
_space_group_symop_operation_xyz
x,y,z
-x,1/2-y,1/2+z
x,-y,-z
-x,1/2+y,1/2-z
-x,-y,-z
x,1/2+y,1/2-z
-x,y,z
x,1/2-y,1/2+z
1/2+x,1/2+y,z
1/2-x,-y,1/2+z
1/2+x,1/2-y,-z
1/2-x,y,1/2-z
1/2-x,1/2-y,-z
1/2+x,y,1/2-z
1/2-x,1/2+y,z
1/2+x,-y,1/2+z
loop_
_atom_site_type_symbol
_atom_site_label
_atom_site_fract_x
_atom_site_fract_y
_atom_site_fract_z
Si Si1 0.500000 0.905127 0.499759
Si Si2 0.500000 0.024032 0.729665
Si Si3 0.782570 0.376741 0.366717
Si Si4 0.000000 0.146795 0.177578
Si Si5 0.250000 0.264521 0.750000
Si Si6 0.500000 0.953378 0.088019
O O1 0.370584 0.882600 0.447915
O O2 0.500000 0.849797 0.579094
O O3 0.500000 0.000000 0.500000
O O4 0.369632 0.071774 0.699312
O O5 0.500000 0.999445 0.825774
O O6 0.500000 0.944518 0.683908
O O7 0.780593 0.293259 0.325489
O O8 0.635197 0.404254 0.395270
O O9 0.127468 0.183737 0.221180
O O10 0.500000 0.000000 0.000000
#
# Coordination Sequence:
#
# PCOD9482044 Si02
#       6
#     8   8  16   8   8   8
#     4  11  23  44  72 102 138 184 232 300 351 411
#     4  11  23  45  72  96 139 191 242 284 347 428
#     4  11  23  46  74  96 143 198 227 283 374 428
#     4  12  28  42  71 106 137 176 245 289 350 420
#     4  12  26  46  70 100 144 194 226 288 362 442
#     4  12  24  36  74 113 132 171 258 298 328 418
#
# _framework density 19.874282000000001
#
# number of rings (size 3 to 8) (size 9 to 14) (size 15 to 20)
#    0.000    0.571    5.714    3.429    4.000    1.143 
#    0.000    2.857    0.000    0.000    0.000    0.000 
#    0.000    0.000    0.000    0.000    0.000    0.000 
#
# Total GULP energy -156016.607063 kJ/mol
# GULP energy per Si atom -5572.021681 kJ/mol
# Density = 1.982905 g / cm^3
# Si number density = 19.874282 Si / 1000 Ang^3
#
#
#
# Elastic Constant Matrix: (Units=GPa)
#
#
# Indices 1 2 3 4 5 6 
#
# 1 189.8873 50.9836 60.2668 0.0000 0.0000 0.0000
# 2 50.9836 67.2125 -1.2978 0.0000 0.0000 0.0000
# 3 60.2668 -1.2978 116.5832 0.0000 0.0000 0.0000
# 4 0.0000 0.0000 0.0000 42.0935 0.0000 0.0000
# 5 0.0000 0.0000 0.0000 0.0000 41.1175 0.0000
# 6 0.0000 0.0000 0.0000 0.0000 0.0000 79.4519
#
#
#
# Elastic Compliance Matrix: (Units=1/GPa)
#
#
# Indices 1 2 3 4 5 6 
#
# 1 0.008401 -0.006458 -0.004415 0.000000 0.000000 0.000000
# 2 -0.006458 0.019846 0.003559 0.000000 0.000000 0.000000
# 3 -0.004415 0.003559 0.010899 0.000000 0.000000 0.000000
# 4 0.000000 0.000000 0.000000 0.023757 0.000000 0.000000
# 5 0.000000 0.000000 0.000000 0.000000 0.024321 0.000000
# 6 0.000000 0.000000 0.000000 0.000000 0.000000 0.012586
#
#
# Mechanical properties :
#
#
# Convention : Reuss Voigt Hill
#
# Bulk Modulus (GPa) = 40.78432 65.95426 53.36929
# Shear Modulus (GPa) = 40.77954 50.11462 45.44708
#
# Velocity S-wave (km/s) = 4.53468 5.02698 4.78716
# Velocity P-wave (km/s) = 6.92701 8.18241 7.58074
#
# Compressibility (1/GPa) = 0.02451923
#
# Stress axis : x y z
#
# Youngs Moduli (GPa) = 119.02659 50.38876 91.74760
#
# Poissons Ratio (x) = 0.32542 0.40506
# Poissons Ratio (y) = 0.76869 -0.32657
# Poissons Ratio (z) = 0.52550 -0.17935
#
# Static dielectric constant tensor:
#      x y z
#    x 1.716330 0.000000 0.000000 
#    y 0.000000 1.675580 0.000000 
#    z 0.000000 0.000000 1.566940 
# 
# From -- ./inp_files/29131.got.cif
#   From: 2010.05.17/outbox.cif.g08.bks.cpg/sg64_15_cif.got.tgz:29131.got - 2010.06.03 16:29:19.
