data_PCOD9482757
_publ_section_title
;
Structure prediction by ZEFSAII (Michael W. Deem and Ramdas Pophale) SiO2 
 PCOD9482757
Probable space group: C M M M
;
_chemical_formula_sum "Si O2"
_cell_formula_units_Z 80
_cell_length_a 8.632476
_cell_length_b 18.779503
_cell_length_c 27.136536
_cell_angle_alpha 90.000000
_cell_angle_beta 90.000000
_cell_angle_gamma 90.000000
_cell_volume 4399.201785
_symmetry_space_group_name_H-M "C M M M"
_symmetry_group_IT_number 65
_symmetry_cell_setting 'orthorhombic'
loop_
_space_group_symop_operation_xyz
x,y,z
-x,-y,z
x,-y,-z
-x,y,-z
-x,-y,-z
x,y,-z
-x,y,z
x,-y,z
1/2+x,1/2+y,z
1/2-x,1/2-y,z
1/2+x,1/2-y,-z
1/2-x,1/2+y,-z
1/2-x,1/2-y,-z
1/2+x,1/2+y,-z
1/2-x,1/2+y,z
1/2+x,1/2-y,z
loop_
_atom_site_type_symbol
_atom_site_label
_atom_site_fract_x
_atom_site_fract_y
_atom_site_fract_z
Si Si1 0.315542 0.669784 0.742861
Si Si2 0.685607 0.669000 0.053915
Si Si3 0.315345 0.831051 0.154712
Si Si4 0.186950 0.670724 0.444636
Si Si5 0.812798 0.583061 0.349139
O O1 0.500000 0.673661 0.746412
O O2 0.250000 0.750000 0.737067
O O3 0.248120 0.638418 0.794039
O O4 0.262770 0.624047 0.696358
O O5 0.500000 0.671823 0.058588
O O6 0.750000 0.750000 0.052435
O O7 0.755997 0.635587 0.103449
O O8 0.723714 0.637088 0.000000
O O9 0.500000 0.829061 0.155182
O O10 0.250000 0.750000 0.154649
O O11 0.235625 0.648738 0.500000
O O12 0.250000 0.750000 0.435761
O O13 0.235786 0.618996 0.400712
O O14 0.000000 0.673371 0.444266
O O15 0.773405 0.500000 0.348429
O O16 0.000000 0.589619 0.345242
#
# Coordination Sequence:
#
# PCOD9482757 Si02
#       5
#    16  16  16  16  16
#     4  11  21  34  52  72  97 129 169 212 255 304
#     4   9  15  22  33  52  82 119 156 194 240 294
#     4  10  17  26  41  61  87 119 159 203 248 297
#     4   9  18  33  54  79 105 135 170 206 245 291
#     4  10  21  36  53  75 104 135 168 208 253 300
#
# _framework density 18.185117000000002
#
# number of rings (size 3 to 8) (size 9 to 14) (size 15 to 20)
#    0.000    2.200    0.000    7.200    0.000    4.400 
#    0.000    2.000    0.000    0.000    0.000    4.200 
#    0.000    0.800    0.000    8.400    0.000    7.000 
#
# Total GULP energy -223039.902023 kJ/mol
# GULP energy per Si atom -5575.997551 kJ/mol
# Density = 1.814373 g / cm^3
# Si number density = 18.185117 Si / 1000 Ang^3
#
#
#
# Elastic Constant Matrix: (Units=GPa)
#
#
# Indices 1 2 3 4 5 6 
#
# 1 95.2932 33.6104 74.2448 0.0000 0.0000 0.0000
# 2 33.6104 47.7056 74.2385 0.0000 0.0000 0.0000
# 3 74.2448 74.2385 217.9635 0.0000 0.0000 0.0000
# 4 0.0000 0.0000 0.0000 -4.3763 0.0000 0.0000
# 5 0.0000 0.0000 0.0000 0.0000 -148.2192 0.0000
# 6 0.0000 0.0000 0.0000 0.0000 0.0000 14.5543
#
#
#
# Elastic Compliance Matrix: (Units=1/GPa)
#
#
# Indices 1 2 3 4 5 6 
#
# 1 0.014945 -0.005548 -0.003201 0.000000 0.000000 0.000000
# 2 -0.005548 0.046663 -0.014004 0.000000 0.000000 0.000000
# 3 -0.003201 -0.014004 0.010448 0.000000 0.000000 0.000000
# 4 0.000000 0.000000 0.000000 -0.228506 0.000000 0.000000
# 5 0.000000 0.000000 0.000000 0.000000 -0.006747 0.000000
# 6 0.000000 0.000000 0.000000 0.000000 0.000000 0.068708
#
#
# Mechanical properties :
#
#
# Convention : Reuss Voigt Hill
#
# Bulk Modulus (GPa) = 37.66408 80.57219 59.11813
# Shear Modulus (GPa) = -124.58044 -15.68365 -70.13204
#
# Velocity S-wave (km/s) = -8.28586 -2.93993 -6.21686
# Velocity P-wave (km/s) = 8.41334 5.73399 4.35348
#
# Compressibility (1/GPa) = 0.02655049
#
# Stress axis : x y z
#
# Youngs Moduli (GPa) = 66.91379 21.43048 95.71280
#
# Poissons Ratio (x) = 0.11889 0.30638
# Poissons Ratio (y) = 0.37121 1.34032
# Poissons Ratio (z) = 0.21419 0.30010
#
# Static dielectric constant tensor:
#      x y z
#    x 1.612280 0.000000 0.000000 
#    y 0.000000 1.579800 0.000000 
#    z 0.000000 0.000000 1.691950 
# 
# From -- ./inp_files/72846.got.cif
#   From: 2010.05.17/outbox.cif.g08.bks.cpg/sg65_37_cif.got.tgz:72846.got - 2010.06.03 17:01:31.
