data_PCOD9482201
_publ_section_title
;
Structure prediction by ZEFSAII (Michael W. Deem and Ramdas Pophale) SiO2 
 PCOD9482201
Probable space group: C M C A
;
_chemical_formula_sum "Si O2"
_cell_formula_units_Z 56
_cell_length_a 26.022543
_cell_length_b 10.030314
_cell_length_c 10.147031
_cell_angle_alpha 90.000000
_cell_angle_beta 90.000000
_cell_angle_gamma 90.000000
_cell_volume 2648.519964
_symmetry_space_group_name_H-M "C M C A"
_symmetry_group_IT_number 64
_symmetry_cell_setting 'orthorhombic'
loop_
_space_group_symop_operation_xyz
x,y,z
-x,1/2-y,1/2+z
x,-y,-z
-x,1/2+y,1/2-z
-x,-y,-z
x,1/2+y,1/2-z
-x,y,z
x,1/2-y,1/2+z
1/2+x,1/2+y,z
1/2-x,-y,1/2+z
1/2+x,1/2-y,-z
1/2-x,y,1/2-z
1/2-x,1/2-y,-z
1/2+x,y,1/2-z
1/2-x,1/2+y,z
1/2+x,-y,1/2+z
loop_
_atom_site_type_symbol
_atom_site_label
_atom_site_fract_x
_atom_site_fract_y
_atom_site_fract_z
Si Si1 0.165611 0.500000 0.500000
Si Si2 0.786104 0.771715 0.872214
Si Si3 0.382356 0.317038 0.215695
Si Si4 0.940540 0.046555 0.349850
O O1 0.197667 0.574724 0.388371
O O2 0.136956 0.617761 0.578310
O O3 0.750000 0.749348 0.750000
O O4 0.837966 0.692816 0.828845
O O5 0.750000 0.750000 0.000000
O O6 0.425692 0.418351 0.264324
O O7 0.404274 0.170058 0.188783
O O8 0.000000 0.084821 0.330841
O O9 0.933421 0.000000 0.500000
#
# Coordination Sequence:
#
# PCOD9482201 Si02
#       4
#     8  16  16  16
#     4  12  26  44  69 104 140 198 237 300 366 426
#     4  12  27  45  70 106 148 198 243 298 363 442
#     4  12  25  49  73 107 150 187 249 305 372 440
#     4  11  26  47  75 107 143 193 244 308 379 444
#
# _framework density 21.143884
#
# number of rings (size 3 to 8) (size 9 to 14) (size 15 to 20)
#    0.000    0.286    5.714    2.571    4.000    0.000 
#    0.000    1.429    0.000    0.000    0.000    0.000 
#    0.000    0.000    0.000    0.000    0.000    0.000 
#
# Total GULP energy -156297.480112 kJ/mol
# GULP energy per Si atom -5582.052861 kJ/mol
# Density = 2.109576 g / cm^3
# Si number density = 21.143884 Si / 1000 Ang^3
#
#
#
# Elastic Constant Matrix: (Units=GPa)
#
#
# Indices 1 2 3 4 5 6 
#
# 1 98.7434 33.5388 52.1962 0.0000 0.0000 0.0000
# 2 33.5388 99.1756 25.9943 0.0000 0.0000 0.0000
# 3 52.1962 25.9943 113.1802 0.0000 0.0000 0.0000
# 4 0.0000 0.0000 0.0000 43.4308 0.0000 0.0000
# 5 0.0000 0.0000 0.0000 0.0000 19.2099 0.0000
# 6 0.0000 0.0000 0.0000 0.0000 0.0000 33.0301
#
#
#
# Elastic Compliance Matrix: (Units=1/GPa)
#
#
# Indices 1 2 3 4 5 6 
#
# 1 0.014350 -0.003318 -0.005856 0.000000 0.000000 0.000000
# 2 -0.003318 0.011496 -0.001110 0.000000 0.000000 0.000000
# 3 -0.005856 -0.001110 0.011791 0.000000 0.000000 0.000000
# 4 0.000000 0.000000 0.000000 0.023025 0.000000 0.000000
# 5 0.000000 0.000000 0.000000 0.000000 0.052057 0.000000
# 6 0.000000 0.000000 0.000000 0.000000 0.000000 0.030275
#
#
# Mechanical properties :
#
#
# Convention : Reuss Voigt Hill
#
# Bulk Modulus (GPa) = 58.58530 59.39532 58.99031
# Shear Modulus (GPa) = 29.54193 32.42547 30.98370
#
# Velocity S-wave (km/s) = 3.74195 3.92032 3.83217
# Velocity P-wave (km/s) = 6.81452 6.97452 6.89498
#
# Compressibility (1/GPa) = 0.01706913
#
# Stress axis : x y z
#
# Youngs Moduli (GPa) = 69.68866 86.98567 84.81081
#
# Poissons Ratio (x) = 0.28861 0.49662
# Poissons Ratio (y) = 0.23122 0.09416
# Poissons Ratio (z) = 0.40807 0.09657
#
# Static dielectric constant tensor:
#      x y z
#    x 1.608290 0.000000 0.000000 
#    y 0.000000 1.729530 0.000000 
#    z 0.000000 0.000000 1.772370 
# 
# From -- ./inp_files/18838.got.cif
#   From: 2010.05.17/outbox.cif.g08.bks.cpg/sg64_10_cif.got.tgz:18838.got - 2010.06.03 16:29:19.
