data_PCOD9482975
_publ_section_title
;
Structure prediction by ZEFSAII (Michael W. Deem and Ramdas Pophale) SiO2 
 PCOD9482975
Probable space group: C M M M
;
_chemical_formula_sum "Si O2"
_cell_formula_units_Z 88
_cell_length_a 18.195204
_cell_length_b 21.278333
_cell_length_c 14.376440
_cell_angle_alpha 90.000000
_cell_angle_beta 90.000000
_cell_angle_gamma 90.000000
_cell_volume 5566.034405
_symmetry_space_group_name_H-M "C M M M"
_symmetry_group_IT_number 65
_symmetry_cell_setting 'orthorhombic'
loop_
_space_group_symop_operation_xyz
x,y,z
-x,-y,z
x,-y,-z
-x,y,-z
-x,-y,-z
x,y,-z
-x,y,z
x,-y,z
1/2+x,1/2+y,z
1/2-x,1/2-y,z
1/2+x,1/2-y,-z
1/2-x,1/2+y,-z
1/2-x,1/2-y,-z
1/2+x,1/2+y,-z
1/2-x,1/2+y,z
1/2+x,1/2-y,z
loop_
_atom_site_type_symbol
_atom_site_label
_atom_site_fract_x
_atom_site_fract_y
_atom_site_fract_z
Si Si1 0.411456 0.000000 0.792878
Si Si2 0.916325 0.303894 0.285853
Si Si3 0.588307 0.871584 0.104496
Si Si4 0.617621 0.323838 0.387313
Si Si5 0.780676 0.361804 0.393023
Si Si6 0.177083 0.500000 0.395560
Si Si7 0.000000 0.071357 0.612112
O O1 0.387158 0.936940 0.847345
O O2 0.380012 0.000000 0.688827
O O3 0.500000 0.000000 0.789468
O O4 0.899366 0.314780 0.176789
O O5 0.912378 0.234372 0.328181
O O6 0.852754 0.341737 0.338114
O O7 0.000000 0.328115 0.301181
O O8 0.500000 0.877096 0.096867
O O9 0.617706 0.863821 0.000000
O O10 0.610580 0.313163 0.500000
O O11 0.703548 0.331937 0.364283
O O12 0.571090 0.386299 0.364423
O O13 0.792619 0.343097 0.500000
O O14 0.775236 0.437043 0.388615
O O15 0.143221 0.500000 0.500000
O O16 0.000000 0.066937 0.500000
O O17 0.000000 0.000000 0.648816
#
# Coordination Sequence:
#
# PCOD9482975 Si02
#       7
#     8  16  16  16  16   8   8
#     4  10  17  31  50  71  98 135 176 210 244 289
#     4  11  20  32  50  73 102 132 170 209 246 302
#     4   9  18  31  49  72  97 128 171 217 256 295
#     4  10  20  34  51  73 102 134 170 207 254 308
#     4  10  21  33  48  69 101 140 171 203 245 298
#     4  10  20  32  45  71 102 135 175 201 236 295
#     4   9  18  32  52  76  99 126 167 220 259 286
#
# _framework density 15.810180000000001
#
# number of rings (size 3 to 8) (size 9 to 14) (size 15 to 20)
#    0.000    2.091    2.727    1.364    1.273    3.818 
#    0.000    1.818    0.000    2.182    0.000    0.000 
#    0.000    1.455    0.000    0.000    0.000    0.182 
#
# Total GULP energy -245026.143459 kJ/mol
# GULP energy per Si atom -5568.775988 kJ/mol
# Density = 1.577419 g / cm^3
# Si number density = 15.810180 Si / 1000 Ang^3
#
#
#
# Elastic Constant Matrix: (Units=GPa)
#
#
# Indices 1 2 3 4 5 6 
#
# 1 76.1805 18.9655 37.9313 0.0000 0.0000 0.0000
# 2 18.9655 87.3964 38.5990 0.0000 0.0000 0.0000
# 3 37.9313 38.5990 90.7767 0.0000 0.0000 0.0000
# 4 0.0000 0.0000 0.0000 12.8638 0.0000 0.0000
# 5 0.0000 0.0000 0.0000 0.0000 5.5612 0.0000
# 6 0.0000 0.0000 0.0000 0.0000 0.0000 9.4581
#
#
#
# Elastic Compliance Matrix: (Units=1/GPa)
#
#
# Indices 1 2 3 4 5 6 
#
# 1 0.016607 -0.000664 -0.006657 0.000000 0.000000 0.000000
# 2 -0.000664 0.014114 -0.005724 0.000000 0.000000 0.000000
# 3 -0.006657 -0.005724 0.016232 0.000000 0.000000 0.000000
# 4 0.000000 0.000000 0.000000 0.077737 0.000000 0.000000
# 5 0.000000 0.000000 0.000000 0.000000 0.179816 0.000000
# 6 0.000000 0.000000 0.000000 0.000000 0.000000 0.105730
#
#
# Mechanical properties :
#
#
# Convention : Reuss Voigt Hill
#
# Bulk Modulus (GPa) = 47.93196 49.48279 48.70738
# Shear Modulus (GPa) = 11.27957 16.16714 13.72336
#
# Velocity S-wave (km/s) = 2.67392 3.20125 2.94939
# Velocity P-wave (km/s) = 6.31792 6.71044 6.51713
#
# Compressibility (1/GPa) = 0.02086291
#
# Stress axis : x y z
#
# Youngs Moduli (GPa) = 60.21738 70.85044 61.60819
#
# Poissons Ratio (x) = 0.04702 0.41012
# Poissons Ratio (y) = 0.03996 0.35266
# Poissons Ratio (z) = 0.40086 0.40556
#
# Static dielectric constant tensor:
#      x y z
#    x 1.527410 0.000000 0.000000 
#    y 0.000000 1.563690 0.000000 
#    z 0.000000 0.000000 1.527890 
# 
# From -- ./inp_files/42805.got.cif
#   From: 2010.05.17/outbox.cif.g08.bks.cpg/sg65_22_cif.got.tgz:42805.got - 2010.06.03 17:01:31.
