data_PCOD9482722
_publ_section_title
;
Structure prediction by ZEFSAII (Michael W. Deem and Ramdas Pophale) SiO2 
 PCOD9482722
Probable space group: C M M M
;
_chemical_formula_sum "Si O2"
_cell_formula_units_Z 104
_cell_length_a 13.871020
_cell_length_b 23.211834
_cell_length_c 19.966177
_cell_angle_alpha 90.000000
_cell_angle_beta 90.000000
_cell_angle_gamma 90.000000
_cell_volume 6428.546220
_symmetry_space_group_name_H-M "C M M M"
_symmetry_group_IT_number 65
_symmetry_cell_setting 'orthorhombic'
loop_
_space_group_symop_operation_xyz
x,y,z
-x,-y,z
x,-y,-z
-x,y,-z
-x,-y,-z
x,y,-z
-x,y,z
x,-y,z
1/2+x,1/2+y,z
1/2-x,1/2-y,z
1/2+x,1/2-y,-z
1/2-x,1/2+y,-z
1/2-x,1/2-y,-z
1/2+x,1/2+y,-z
1/2-x,1/2+y,z
1/2+x,1/2-y,z
loop_
_atom_site_type_symbol
_atom_site_label
_atom_site_fract_x
_atom_site_fract_y
_atom_site_fract_z
Si Si1 0.882355 0.352442 0.924462
Si Si2 0.117559 0.000000 0.076327
Si Si3 0.615854 0.388165 0.839293
Si Si4 0.214063 0.069067 0.708938
Si Si5 0.617342 0.719963 0.075841
Si Si6 0.887112 0.432419 0.199372
Si Si7 0.888604 0.930087 0.424523
O O1 0.853030 0.285965 0.912451
O O2 0.854579 0.393692 0.863418
O O3 0.000000 0.353297 0.925530
O O4 0.851450 0.369407 0.000000
O O5 0.147041 0.942821 0.115949
O O6 0.000000 0.000000 0.074647
O O7 0.151773 0.000000 0.000000
O O8 0.500000 0.387945 0.840232
O O9 0.650376 0.399115 0.764411
O O10 0.649040 0.328514 0.872324
O O11 0.322569 0.078612 0.735082
O O12 0.183062 0.087691 0.634756
O O13 0.195475 0.000000 0.713763
O O14 0.500000 0.720247 0.077101
O O15 0.645249 0.703741 0.000000
O O16 0.876197 0.500000 0.182025
O O17 0.000000 0.421469 0.211802
O O18 0.864562 0.910410 0.500000
O O19 0.000000 0.913764 0.409706
O O20 0.887040 0.000000 0.426007
#
# Coordination Sequence:
#
# PCOD9482722 Si02
#       7
#    16   8  16  16  16  16  16
#     4   8  14  27  46  62  77 105 147 192 235 270
#     4   9  16  24  34  50  78 118 152 171 194 238
#     4  10  17  25  39  60  86 115 144 172 207 253
#     4  10  18  28  42  61  89 115 143 177 216 257
#     4   8  14  25  41  59  81 112 146 180 219 262
#     4   9  18  31  46  62  81 107 142 186 235 276
#     4   8  14  25  43  67  93 121 147 167 195 246
#
# _framework density 16.177841000000001
#
# number of rings (size 3 to 8) (size 9 to 14) (size 15 to 20)
#    0.000    3.154    0.769    2.308    0.000    2.769 
#    0.000    3.846    0.000    2.308    0.000    3.231 
#    0.000    2.462    0.000    8.000    0.000    4.000 
#
# Total GULP energy -289867.125663 kJ/mol
# GULP energy per Si atom -5574.367801 kJ/mol
# Density = 1.614102 g / cm^3
# Si number density = 16.177841 Si / 1000 Ang^3
#
#
#
# Elastic Constant Matrix: (Units=GPa)
#
#
# Indices 1 2 3 4 5 6 
#
# 1 69.7793 32.5547 52.5442 0.0000 0.0000 0.0000
# 2 32.5547 42.5627 52.1519 0.0000 0.0000 0.0000
# 3 52.5442 52.1519 147.5201 0.0000 0.0000 0.0000
# 4 0.0000 0.0000 0.0000 10.0135 0.0000 0.0000
# 5 0.0000 0.0000 0.0000 0.0000 14.1431 0.0000
# 6 0.0000 0.0000 0.0000 0.0000 0.0000 15.4751
#
#
#
# Elastic Compliance Matrix: (Units=1/GPa)
#
#
# Indices 1 2 3 4 5 6 
#
# 1 0.023275 -0.013486 -0.003523 0.000000 0.000000 0.000000
# 2 -0.013486 0.049264 -0.012612 0.000000 0.000000 0.000000
# 3 -0.003523 -0.012612 0.012492 0.000000 0.000000 0.000000
# 4 0.000000 0.000000 0.000000 0.099865 0.000000 0.000000
# 5 0.000000 0.000000 0.000000 0.000000 0.070706 0.000000
# 6 0.000000 0.000000 0.000000 0.000000 0.000000 0.064620
#
#
# Mechanical properties :
#
#
# Convention : Reuss Voigt Hill
#
# Bulk Modulus (GPa) = 38.77638 59.37374 49.07506
# Shear Modulus (GPa) = 12.88457 16.10041 14.49249
#
# Velocity S-wave (km/s) = 2.82518 3.15812 2.99628
# Velocity P-wave (km/s) = 5.88753 7.07663 6.50929
#
# Compressibility (1/GPa) = 0.02578890
#
# Stress axis : x y z
#
# Youngs Moduli (GPa) = 42.96408 20.29889 80.05024
#
# Poissons Ratio (x) = 0.27376 0.28198
# Poissons Ratio (y) = 0.57943 1.00962
# Poissons Ratio (z) = 0.15134 0.25602
#
# Static dielectric constant tensor:
#      x y z
#    x 1.617330 0.000000 0.000000 
#    y 0.000000 1.531480 0.000000 
#    z 0.000000 0.000000 1.519530 
# 
# From -- ./inp_files/53490.got.cif
#   From: 2010.05.17/outbox.cif.g08.bks.cpg/sg65_27_cif.got.tgz:53490.got - 2010.06.03 17:01:31.
