data_PCOD9482602
_publ_section_title
;
Structure prediction by ZEFSAII (Michael W. Deem and Ramdas Pophale) SiO2 
 PCOD9482602
Probable space group: C M M M
;
_chemical_formula_sum "Si O2"
_cell_formula_units_Z 64
_cell_length_a 14.580666
_cell_length_b 8.566180
_cell_length_c 22.483719
_cell_angle_alpha 90.000000
_cell_angle_beta 90.000000
_cell_angle_gamma 90.000000
_cell_volume 2808.230206
_symmetry_space_group_name_H-M "C M M M"
_symmetry_group_IT_number 65
_symmetry_cell_setting 'orthorhombic'
loop_
_space_group_symop_operation_xyz
x,y,z
-x,-y,z
x,-y,-z
-x,y,-z
-x,-y,-z
x,y,-z
-x,y,z
x,-y,z
1/2+x,1/2+y,z
1/2-x,1/2-y,z
1/2+x,1/2-y,-z
1/2-x,1/2+y,-z
1/2-x,1/2-y,-z
1/2+x,1/2+y,-z
1/2-x,1/2+y,z
1/2+x,1/2-y,z
loop_
_atom_site_type_symbol
_atom_site_label
_atom_site_fract_x
_atom_site_fract_y
_atom_site_fract_z
Si Si1 0.148495 0.181600 0.257230
Si Si2 0.105176 0.825615 0.878522
Si Si3 0.645548 0.815316 0.622373
Si Si4 0.610654 0.000000 0.929601
Si Si5 0.854658 0.814709 0.500000
O O1 0.250000 0.250000 0.248173
O O2 0.102807 0.192325 0.192943
O O3 0.105277 0.267440 0.313877
O O4 0.154844 0.000000 0.273490
O O5 0.146933 0.664656 0.903535
O O6 0.000000 0.831048 0.900809
O O7 0.145090 0.000000 0.891123
O O8 0.750000 0.750000 0.625280
O O9 0.604459 0.744833 0.562089
O O10 0.647405 0.000000 0.616640
O O11 0.500000 0.000000 0.917019
O O12 0.623720 0.000000 0.000000
O O13 0.750000 0.750000 0.500000
O O14 0.852849 0.000000 0.500000
#
# Coordination Sequence:
#
# PCOD9482602 Si02
#       5
#    16  16  16   8   8
#     4  10  19  30  47  71  97 129 163 200 243 292
#     4   9  19  34  52  76 103 130 163 202 243 289
#     4  10  17  25  38  58  87 118 157 196 240 288
#     4   9  18  32  54  80 102 127 160 200 244 289
#     4  10  16  24  36  52  81 118 153 196 241 285
#
# _framework density 22.790154000000001
#
# number of rings (size 3 to 8) (size 9 to 14) (size 15 to 20)
#    0.000    2.375    0.000    7.125    3.500    0.500 
#    0.000    2.500    0.000    0.750    0.000    0.875 
#    0.000    7.000    0.000    0.000    0.000    0.000 
#
# Total GULP energy -178602.824592 kJ/mol
# GULP energy per Si atom -5581.338269 kJ/mol
# Density = 2.273828 g / cm^3
# Si number density = 22.790154 Si / 1000 Ang^3
#
#
#
# Elastic Constant Matrix: (Units=GPa)
#
#
# Indices 1 2 3 4 5 6 
#
# 1 66.7003 19.9786 -0.8995 0.0000 0.0000 0.0000
# 2 19.9786 272.7354 92.0105 0.0000 0.0000 0.0000
# 3 -0.8995 92.0105 75.0725 0.0000 0.0000 0.0000
# 4 0.0000 0.0000 0.0000 40.7114 0.0000 0.0000
# 5 0.0000 0.0000 0.0000 0.0000 8.1500 0.0000
# 6 0.0000 0.0000 0.0000 0.0000 0.0000 0.8618
#
#
#
# Elastic Compliance Matrix: (Units=1/GPa)
#
#
# Indices 1 2 3 4 5 6 
#
# 1 0.015647 -0.002062 0.002715 0.000000 0.000000 0.000000
# 2 -0.002062 0.006523 -0.008020 0.000000 0.000000 0.000000
# 3 0.002715 -0.008020 0.023182 0.000000 0.000000 0.000000
# 4 0.000000 0.000000 0.000000 0.024563 0.000000 0.000000
# 5 0.000000 0.000000 0.000000 0.000000 0.122699 0.000000
# 6 0.000000 0.000000 0.000000 0.000000 0.000000 1.160380
#
#
# Mechanical properties :
#
#
# Convention : Reuss Voigt Hill
#
# Bulk Modulus (GPa) = 32.66056 70.74305 51.70180
# Shear Modulus (GPa) = 3.62862 30.17254 16.90058
#
# Velocity S-wave (km/s) = 1.26319 3.64253 2.72614
# Velocity P-wave (km/s) = 4.06074 6.98564 5.71353
#
# Compressibility (1/GPa) = 0.03061797
#
# Stress axis : x y z
#
# Youngs Moduli (GPa) = 63.91135 153.30143 43.13706
#
# Poissons Ratio (x) = 0.31611 -0.11710
# Poissons Ratio (y) = 0.13178 0.34594
# Poissons Ratio (z) = -0.17350 1.22941
#
# Static dielectric constant tensor:
#      x y z
#    x 1.916580 0.000000 0.000000 
#    y 0.000000 1.818680 0.000000 
#    z 0.000000 0.000000 1.857930 
# 
# From -- ./inp_files/64235.got.cif
#   From: 2010.05.17/outbox.cif.g08.bks.cpg/sg65_33_cif.got.tgz:64235.got - 2010.06.03 17:01:31.
