data_PCOD9482510
_publ_section_title
;
Structure prediction by ZEFSAII (Michael W. Deem and Ramdas Pophale) SiO2 
 PCOD9482510
Probable space group: C M C A
;
_chemical_formula_sum "Si O2"
_cell_formula_units_Z 56
_cell_length_a 21.000000
_cell_length_b 24.000000
_cell_length_c 12.000000
_cell_angle_alpha 90.000000
_cell_angle_beta 90.000000
_cell_angle_gamma 90.000000
_cell_volume 6048.000000
_symmetry_space_group_name_H-M "C M C A"
_symmetry_group_IT_number 64
_symmetry_cell_setting 'orthorhombic'
loop_
_space_group_symop_operation_xyz
x,y,z
-x,1/2-y,1/2+z
x,-y,-z
-x,1/2+y,1/2-z
-x,-y,-z
x,1/2+y,1/2-z
-x,y,z
x,1/2-y,1/2+z
1/2+x,1/2+y,z
1/2-x,-y,1/2+z
1/2+x,1/2-y,-z
1/2-x,y,1/2-z
1/2-x,1/2-y,-z
1/2+x,y,1/2-z
1/2-x,1/2+y,z
1/2+x,-y,1/2+z
loop_
_atom_site_type_symbol
_atom_site_label
_atom_site_fract_x
_atom_site_fract_y
_atom_site_fract_z
Si Si1 0.180903 0.015944 0.806315
Si Si2 0.182781 0.386920 0.682537
Si Si3 0.822500 0.277077 0.261913
Si Si4 0.641808 0.145247 0.941079
Si Si5 0.424428 0.967431 0.117622
Si Si6 0.708580 0.125400 0.559727
Si Si7 0.580227 0.821231 0.824340
O O1 0.250000 0.025258 0.750000
O O2 0.123710 0.014745 0.715893
O O3 0.178657 0.067654 0.892537
O O4 0.181886 0.952579 0.848674
O O5 0.250000 0.378394 0.750000
O O6 0.184738 0.357422 0.562635
O O7 0.119405 0.367124 0.749158
O O8 0.750000 0.251683 0.250000
O O9 0.845027 0.306185 0.147766
O O10 0.809972 0.326499 0.351879
O O11 0.879953 0.235266 0.293824
O O12 0.595884 0.096617 0.897572
O O13 0.714089 0.120538 0.954903
O O14 0.605654 0.166043 0.051211
O O15 0.500000 0.973920 0.142459
O O16 0.412336 0.000000 0.000000
O O17 0.500000 0.820727 0.815887
#
# Coordination Sequence:
#
# PCOD9482510 Si02
#       7
#    16  16  16  16  16  16  16
#     4  11  21  38  64 100 134 172 219 268 320 392
#     4  11  24  40  67  97 133 174 218 270 326 389
#     4  10  24  43  70  97 129 170 220 277 331 395
#     4  11  22  42  68  97 128 167 215 272 333 391
#     4  11  23  38  62  96 137 174 213 265 330 398
#     4  11  21  42  68 100 132 165 219 277 330 390
#     4  12  27  45  65  94 133 174 224 273 328 394
#
# _framework density 9.2592590000000001
#
# number of rings (size 3 to 8) (size 9 to 14) (size 15 to 20)
#    0.000    1.000    4.286    2.571    4.000    4.000 
#    0.000    0.714    0.000    1.714    0.000    0.000 
#    0.000    0.000    0.000    0.000    0.000    0.000 
#
# Total GULP energy -312147.250059 kJ/mol
# GULP energy per Si atom -5574.058037 kJ/mol
# Density = 0.923818 g / cm^3
# Si number density = 9.259259 Si / 1000 Ang^3
#
#
#
# Elastic Constant Matrix: (Units=GPa)
#
#
# Indices 1 2 3 4 5 6 
#
# 1 159.6234 25.6069 47.0856 0.0000 0.0000 0.0000
# 2 25.6069 78.3802 15.6337 0.0000 0.0000 0.0000
# 3 47.0856 15.6337 97.4086 0.0000 0.0000 0.0000
# 4 0.0000 0.0000 0.0000 26.3418 0.0000 0.0000
# 5 0.0000 0.0000 0.0000 0.0000 35.2710 0.0000
# 6 0.0000 0.0000 0.0000 0.0000 0.0000 29.3579
#
#
#
# Elastic Compliance Matrix: (Units=1/GPa)
#
#
# Indices 1 2 3 4 5 6 
#
# 1 0.007543 -0.001795 -0.003358 0.000000 0.000000 0.000000
# 2 -0.001795 0.013607 -0.001316 0.000000 0.000000 0.000000
# 3 -0.003358 -0.001316 0.012101 0.000000 0.000000 0.000000
# 4 0.000000 0.000000 0.000000 0.037962 0.000000 0.000000
# 5 0.000000 0.000000 0.000000 0.000000 0.028352 0.000000
# 6 0.000000 0.000000 0.000000 0.000000 0.000000 0.034062
#
#
# Mechanical properties :
#
#
# Convention : Reuss Voigt Hill
#
# Bulk Modulus (GPa) = 49.23058 56.89605 53.06332
# Shear Modulus (GPa) = 32.60789 34.66654 33.63722
#
# Velocity S-wave (km/s) = 4.20077 4.33135 4.26656
# Velocity P-wave (km/s) = 7.08314 7.47025 7.27927
#
# Compressibility (1/GPa) = 0.02031258
#
# Stress axis : x y z
#
# Youngs Moduli (GPa) = 132.56895 73.49059 82.64028
#
# Poissons Ratio (x) = 0.13188 0.27753
# Poissons Ratio (y) = 0.23790 0.10879
# Poissons Ratio (z) = 0.44520 0.09675
#
# Static dielectric constant tensor:
#      x y z
#    x 1.616980 0.000000 0.000000 
#    y 0.000000 1.696430 0.000000 
#    z 0.000000 0.000000 1.681460 
# 
# From -- ./inp_files/17566.got.cif
#   From: 2010.05.17/outbox.ucp.g08.bks.cvg/sg64_9_cif.got.tgz:17566.got - 2010.06.11 16:36:46.
