data_PCOD9482051
_publ_section_title
;
Structure prediction by ZEFSAII (Michael W. Deem and Ramdas Pophale) SiO2 
 PCOD9482051
Probable space group: C M C A
;
_chemical_formula_sum "Si O2"
_cell_formula_units_Z 116
_cell_length_a 16.424805
_cell_length_b 12.047690
_cell_length_c 28.079046
_cell_angle_alpha 90.000000
_cell_angle_beta 90.000000
_cell_angle_gamma 90.000000
_cell_volume 5556.308549
_symmetry_space_group_name_H-M "C M C A"
_symmetry_group_IT_number 64
_symmetry_cell_setting 'orthorhombic'
loop_
_space_group_symop_operation_xyz
x,y,z
-x,1/2-y,1/2+z
x,-y,-z
-x,1/2+y,1/2-z
-x,-y,-z
x,1/2+y,1/2-z
-x,y,z
x,1/2-y,1/2+z
1/2+x,1/2+y,z
1/2-x,-y,1/2+z
1/2+x,1/2-y,-z
1/2-x,y,1/2-z
1/2-x,1/2-y,-z
1/2+x,y,1/2-z
1/2-x,1/2+y,z
1/2+x,-y,1/2+z
loop_
_atom_site_type_symbol
_atom_site_label
_atom_site_fract_x
_atom_site_fract_y
_atom_site_fract_z
Si Si1 0.089402 0.745781 0.687221
Si Si2 0.867060 0.312619 0.527779
Si Si3 0.180567 0.108615 0.468946
Si Si4 0.353508 0.967533 0.862523
Si Si5 0.907071 0.783527 0.367843
Si Si6 0.662691 0.675336 0.222015
Si Si7 0.500000 0.500000 0.000000
Si Si8 0.205545 0.445142 0.299584
O O1 0.099603 0.763962 0.743669
O O2 0.158136 0.655197 0.675912
O O3 0.000000 0.705857 0.674069
O O4 0.105114 0.866507 0.665372
O O5 0.869568 0.212723 0.489420
O O6 0.775508 0.359950 0.526758
O O7 0.884248 0.260952 0.579920
O O8 0.929450 0.409138 0.515554
O O9 0.163116 0.000000 0.500000
O O10 0.162945 0.078841 0.414737
O O11 0.401394 0.083174 0.865866
O O12 0.271124 0.000044 0.834524
O O13 0.844364 0.734676 0.328761
O O14 0.000000 0.748814 0.356817
O O15 0.750000 0.676323 0.250000
O O16 0.645171 0.545160 0.214688
O O17 0.250000 0.411633 0.250000
#
# Coordination Sequence:
#
# PCOD9482051 Si02
#       8
#    16  16  16  16  16  16   4  16
#     4  12  26  44  66 104 144 182 233 303 372 422
#     4  11  25  46  74 109 148 189 245 306 377 439
#     4  11  24  47  74 105 138 192 249 305 355 450
#     4  12  25  45  74  98 140 187 247 298 357 439
#     4  12  25  44  71 105 143 191 240 299 369 443
#     4  11  23  45  69 100 137 193 243 290 361 441
#     4  12  24  52  74 112 156 190 232 310 384 440
#     4  11  24  44  71  97 138 189 245 292 358 443
#
# _framework density 20.877171000000001
#
# number of rings (size 3 to 8) (size 9 to 14) (size 15 to 20)
#    0.000    0.552    5.517    3.724    1.931    1.103 
#    4.966    1.034    0.000    0.000    0.000    0.000 
#    0.000    0.000    0.000    0.000    0.000    0.000 
#
# Total GULP energy -323767.903023 kJ/mol
# GULP energy per Si atom -5582.205225 kJ/mol
# Density = 2.082965 g / cm^3
# Si number density = 20.877171 Si / 1000 Ang^3
#
#
#
# Elastic Constant Matrix: (Units=GPa)
#
#
# Indices 1 2 3 4 5 6 
#
# 1 85.2408 33.8740 33.7986 0.0000 0.0000 0.0000
# 2 33.8740 127.6517 51.9182 0.0000 0.0000 0.0000
# 3 33.7986 51.9182 126.5380 0.0000 0.0000 0.0000
# 4 0.0000 0.0000 0.0000 35.8618 0.0000 0.0000
# 5 0.0000 0.0000 0.0000 0.0000 -1.6952 0.0000
# 6 0.0000 0.0000 0.0000 0.0000 0.0000 32.6621
#
#
#
# Elastic Compliance Matrix: (Units=1/GPa)
#
#
# Indices 1 2 3 4 5 6 
#
# 1 0.013803 -0.002597 -0.002621 0.000000 0.000000 0.000000
# 2 -0.002597 0.009891 -0.003365 0.000000 0.000000 0.000000
# 3 -0.002621 -0.003365 0.009984 0.000000 0.000000 0.000000
# 4 0.000000 0.000000 0.000000 0.027885 0.000000 0.000000
# 5 0.000000 0.000000 0.000000 0.000000 -0.589908 0.000000
# 6 0.000000 0.000000 0.000000 0.000000 0.000000 0.030617
#
#
# Mechanical properties :
#
#
# Convention : Reuss Voigt Hill
#
# Bulk Modulus (GPa) = 60.56186 64.29022 62.42604
# Shear Modulus (GPa) = -10.52501 28.02173 8.74836
#
# Velocity S-wave (km/s) = -2.24774 3.66760 2.04927
# Velocity P-wave (km/s) = 4.72601 6.98545 5.96371
#
# Compressibility (1/GPa) = 0.01651204
#
# Stress axis : x y z
#
# Youngs Moduli (GPa) = 72.44952 101.09795 100.16489
#
# Poissons Ratio (x) = 0.26251 0.26257
# Poissons Ratio (y) = 0.18812 0.33704
# Poissons Ratio (z) = 0.18992 0.34018
#
# Static dielectric constant tensor:
#      x y z
#    x 1.756310 0.000000 0.000000 
#    y 0.000000 1.765420 0.000000 
#    z 0.000000 0.000000 1.747180 
# 
# From -- ./inp_files/50493.got.cif
#   From: 2010.05.17/outbox.cif.g08.bks.cpg/sg64_26_cif.got.tgz:50493.got - 2010.06.03 16:29:19.
