data_PCOD9482033
_publ_section_title
;
Structure prediction by ZEFSAII (Michael W. Deem and Ramdas Pophale) SiO2 
 PCOD9482033
Probable space group: C M C A
;
_chemical_formula_sum "Si O2"
_cell_formula_units_Z 56
_cell_length_a 14.864821
_cell_length_b 15.449391
_cell_length_c 9.327579
_cell_angle_alpha 90.000000
_cell_angle_beta 90.000000
_cell_angle_gamma 90.000000
_cell_volume 2142.101200
_symmetry_space_group_name_H-M "C M C A"
_symmetry_group_IT_number 64
_symmetry_cell_setting 'orthorhombic'
loop_
_space_group_symop_operation_xyz
x,y,z
-x,1/2-y,1/2+z
x,-y,-z
-x,1/2+y,1/2-z
-x,-y,-z
x,1/2+y,1/2-z
-x,y,z
x,1/2-y,1/2+z
1/2+x,1/2+y,z
1/2-x,-y,1/2+z
1/2+x,1/2-y,-z
1/2-x,y,1/2-z
1/2-x,1/2-y,-z
1/2+x,y,1/2-z
1/2-x,1/2+y,z
1/2+x,-y,1/2+z
loop_
_atom_site_type_symbol
_atom_site_label
_atom_site_fract_x
_atom_site_fract_y
_atom_site_fract_z
Si Si1 0.895288 0.361787 0.347473
Si Si2 0.407336 0.414715 0.596145
Si Si3 0.750000 0.003508 0.250000
Si Si4 0.847670 0.246367 0.577576
O O1 0.823364 0.438748 0.322066
O O2 0.891006 0.332898 0.513440
O O3 0.000000 0.381279 0.311613
O O4 0.860290 0.282000 0.243446
O O5 0.413722 0.500000 0.500000
O O6 0.500000 0.408315 0.683403
O O7 0.312534 0.430347 0.666621
O O8 0.399780 0.332744 0.495746
O O9 0.750000 0.250000 0.500000
#
# Coordination Sequence:
#
# PCOD9482033 Si02
#       4
#    16  16   8  16
#     4  12  24  44  70 101 140 181 231 287 347 414
#     4  11  23  43  69  97 135 183 230 279 349 419
#     4  12  24  40  70  98 134 182 230 282 338 412
#     4  12  24  45  71 102 137 182 230 285 347 419
#
# _framework density 26.142557
#
# number of rings (size 3 to 8) (size 9 to 14) (size 15 to 20)
#    0.000    0.286    5.714    3.429    4.000    0.000 
#    0.000    0.000    0.000    3.429    0.000    0.000 
#    0.000    0.000    0.000    0.000    0.000    0.000 
#
# Total GULP energy -156423.287650 kJ/mol
# GULP energy per Si atom -5586.545987 kJ/mol
# Density = 2.608306 g / cm^3
# Si number density = 26.142557 Si / 1000 Ang^3
#
#
#
# Elastic Constant Matrix: (Units=GPa)
#
#
# Indices 1 2 3 4 5 6 
#
# 1 229.1450 1.0862 39.6063 0.0000 0.0000 0.0000
# 2 1.0862 58.5533 9.6079 0.0000 0.0000 0.0000
# 3 39.6063 9.6079 84.1518 0.0000 0.0000 0.0000
# 4 0.0000 0.0000 0.0000 29.4609 0.0000 0.0000
# 5 0.0000 0.0000 0.0000 0.0000 30.3906 0.0000
# 6 0.0000 0.0000 0.0000 0.0000 0.0000 62.4873
#
#
#
# Elastic Compliance Matrix: (Units=1/GPa)
#
#
# Indices 1 2 3 4 5 6 
#
# 1 0.004755 0.000284 -0.002270 0.000000 0.000000 0.000000
# 2 0.000284 0.017422 -0.002123 0.000000 0.000000 0.000000
# 3 -0.002270 -0.002123 0.013194 0.000000 0.000000 0.000000
# 4 0.000000 0.000000 0.000000 0.033943 0.000000 0.000000
# 5 0.000000 0.000000 0.000000 0.000000 0.032905 0.000000
# 6 0.000000 0.000000 0.000000 0.000000 0.000000 0.016003
#
#
# Mechanical properties :
#
#
# Convention : Reuss Voigt Hill
#
# Bulk Modulus (GPa) = 36.82853 52.49454 44.66154
# Shear Modulus (GPa) = 36.90272 45.90441 41.40356
#
# Velocity S-wave (km/s) = 3.76120 4.19492 3.98397
# Velocity P-wave (km/s) = 5.74285 6.60204 6.18737
#
# Compressibility (1/GPa) = 0.02715286
#
# Stress axis : x y z
#
# Youngs Moduli (GPa) = 210.29882 57.40028 75.79050
#
# Poissons Ratio (x) = -0.01632 0.17208
# Poissons Ratio (y) = -0.05980 0.16090
# Poissons Ratio (z) = 0.47748 0.12185
#
# Static dielectric constant tensor:
#      x y z
#    x 1.739390 0.000000 0.000000 
#    y 0.000000 1.995920 0.000000 
#    z 0.000000 0.000000 2.213380 
# 
# From -- ./inp_files/13765.got.cif
#   From: 2010.05.17/outbox.cif.g08.bks.cpg/sg64_7_cif.got.tgz:13765.got - 2010.06.03 16:29:19.
