data_PCOD9482274
_publ_section_title
;
Structure prediction by ZEFSAII (Michael W. Deem and Ramdas Pophale) SiO2 
 PCOD9482274
Probable space group: C M C A
;
_chemical_formula_sum "Si O2"
_cell_formula_units_Z 104
_cell_length_a 29.547545
_cell_length_b 19.689411
_cell_length_c 8.337072
_cell_angle_alpha 90.000000
_cell_angle_beta 90.000000
_cell_angle_gamma 90.000000
_cell_volume 4850.289704
_symmetry_space_group_name_H-M "C M C A"
_symmetry_group_IT_number 64
_symmetry_cell_setting 'orthorhombic'
loop_
_space_group_symop_operation_xyz
x,y,z
-x,1/2-y,1/2+z
x,-y,-z
-x,1/2+y,1/2-z
-x,-y,-z
x,1/2+y,1/2-z
-x,y,z
x,1/2-y,1/2+z
1/2+x,1/2+y,z
1/2-x,-y,1/2+z
1/2+x,1/2-y,-z
1/2-x,y,1/2-z
1/2-x,1/2-y,-z
1/2+x,y,1/2-z
1/2-x,1/2+y,z
1/2+x,-y,1/2+z
loop_
_atom_site_type_symbol
_atom_site_label
_atom_site_fract_x
_atom_site_fract_y
_atom_site_fract_z
Si Si1 0.849161 0.950262 0.651611
Si Si2 0.500000 0.286264 0.506327
Si Si3 0.601119 0.323311 0.484233
Si Si4 0.500000 0.154143 0.332299
Si Si5 0.872251 0.677209 0.619049
Si Si6 0.579867 0.937571 0.589512
Si Si7 0.233775 0.676977 0.564640
Si Si8 0.750000 0.913730 0.750000
O O1 0.871151 0.878340 0.590945
O O2 0.883196 0.970068 0.793166
O O3 0.798664 0.949596 0.726284
O O4 0.850100 0.000000 0.500000
O O5 0.546458 0.325179 0.458227
O O6 0.500000 0.205129 0.480104
O O7 0.500000 0.290686 0.696161
O O8 0.622746 0.327246 0.309008
O O9 0.608456 0.249374 0.561290
O O10 0.543279 0.107089 0.318930
O O11 0.896850 0.615472 0.530583
O O12 0.820078 0.675756 0.571580
O O13 0.556902 0.000000 0.500000
O O14 0.250000 0.664424 0.750000
O O15 0.250000 0.750000 0.500000
O O16 0.247809 0.627025 0.419477
#
# Coordination Sequence:
#
# PCOD9482274 Si02
#       8
#    16   8  16   8  16  16  16   8
#     4  12  27  52  73 104 149 198 255 310 380 458
#     4  12  24  44  76 108 147 186 242 306 375 442
#     4  12  25  44  74 108 145 194 246 309 378 445
#     4  12  25  48  72 114 146 189 248 311 369 457
#     4  12  24  44  71 105 150 191 243 311 376 445
#     4  12  26  47  74 105 150 195 245 306 375 451
#     4  12  24  41  70 111 151 196 250 310 383 457
#     4  12  26  48  76 106 150 196 258 316 380 462
#
# _framework density 21.442017
#
# number of rings (size 3 to 8) (size 9 to 14) (size 15 to 20)
#    0.000    0.000    5.385    5.769    0.000    0.615 
#    4.154    3.077    0.000    0.000    0.000    0.000 
#    0.000    0.000    0.000    0.000    0.000    0.000 
#
# Total GULP energy -290491.454514 kJ/mol
# GULP energy per Si atom -5586.374125 kJ/mol
# Density = 2.139321 g / cm^3
# Si number density = 21.442017 Si / 1000 Ang^3
#
#
#
# Elastic Constant Matrix: (Units=GPa)
#
#
# Indices 1 2 3 4 5 6 
#
# 1 114.0256 17.0688 -5.1322 0.0000 0.0000 0.0000
# 2 17.0688 70.7749 8.4757 0.0000 0.0000 0.0000
# 3 -5.1322 8.4757 82.1507 0.0000 0.0000 0.0000
# 4 0.0000 0.0000 0.0000 -4.2617 0.0000 0.0000
# 5 0.0000 0.0000 0.0000 0.0000 23.8196 0.0000
# 6 0.0000 0.0000 0.0000 0.0000 0.0000 -0.1303
#
#
#
# Elastic Compliance Matrix: (Units=1/GPa)
#
#
# Indices 1 2 3 4 5 6 
#
# 1 0.009151 -0.002304 0.000809 0.000000 0.000000 0.000000
# 2 -0.002304 0.014886 -0.001680 0.000000 0.000000 0.000000
# 3 0.000809 -0.001680 0.012397 0.000000 0.000000 0.000000
# 4 0.000000 0.000000 0.000000 -0.234648 0.000000 0.000000
# 5 0.000000 0.000000 0.000000 0.000000 0.041982 0.000000
# 6 0.000000 0.000000 0.000000 0.000000 0.000000 -7.677014
#
#
# Mechanical properties :
#
#
# Convention : Reuss Voigt Hill
#
# Bulk Modulus (GPa) = 33.23872 34.19731 33.71801
# Shear Modulus (GPa) = -0.63964 20.32144 9.84090
#
# Velocity S-wave (km/s) = -0.54677 3.08188 2.14465
# Velocity P-wave (km/s) = 3.89059 5.35232 4.67889
#
# Compressibility (1/GPa) = 0.03008540
#
# Stress axis : x y z
#
# Youngs Moduli (GPa) = 109.27434 67.17674 80.66711
#
# Poissons Ratio (x) = 0.15477 -0.06529
# Poissons Ratio (y) = 0.25176 0.13550
# Poissons Ratio (z) = -0.08845 0.11284
#
# Static dielectric constant tensor:
#      x y z
#    x 1.786920 0.000000 0.000000 
#    y 0.000000 1.729420 0.000000 
#    z 0.000000 0.000000 1.791610 
# 
# From -- ./inp_files/11228.got.cif
#   From: 2010.05.17/outbox.cif.g08.bks.cpg/sg64_6_cif.got.tgz:11228.got - 2010.06.03 16:29:19.
