data_PCOD9482539
_publ_section_title
;
Structure prediction by ZEFSAII (Michael W. Deem and Ramdas Pophale) SiO2 
 PCOD9482539
Probable space group: C M M M
;
_chemical_formula_sum "Si O2"
_cell_formula_units_Z 52
_cell_length_a 15.063666
_cell_length_b 13.933873
_cell_length_c 12.325278
_cell_angle_alpha 90.000000
_cell_angle_beta 90.000000
_cell_angle_gamma 90.000000
_cell_volume 2587.016801
_symmetry_space_group_name_H-M "C M M M"
_symmetry_group_IT_number 65
_symmetry_cell_setting 'orthorhombic'
loop_
_space_group_symop_operation_xyz
x,y,z
-x,-y,z
x,-y,-z
-x,y,-z
-x,-y,-z
x,y,-z
-x,y,z
x,-y,z
1/2+x,1/2+y,z
1/2-x,1/2-y,z
1/2+x,1/2-y,-z
1/2-x,1/2+y,-z
1/2-x,1/2-y,-z
1/2+x,1/2+y,-z
1/2-x,1/2+y,z
1/2+x,1/2-y,z
loop_
_atom_site_type_symbol
_atom_site_label
_atom_site_fract_x
_atom_site_fract_y
_atom_site_fract_z
Si Si1 0.630556 0.384411 0.797160
Si Si2 0.500000 0.299448 0.374720
Si Si3 0.000000 0.152843 0.000000
Si Si4 0.000000 0.614224 0.743529
Si Si5 0.822415 0.383796 0.876530
O O1 0.624390 0.500000 0.790787
O O2 0.584208 0.340691 0.691411
O O3 0.732836 0.356648 0.814635
O O4 0.576395 0.354481 0.904107
O O5 0.500000 0.326159 0.500000
O O6 0.500000 0.184504 0.358335
O O7 0.913206 0.639041 0.814777
O O8 0.000000 0.500000 0.721061
O O9 0.820516 0.500000 0.882925
O O10 0.824097 0.347470 0.000000
#
# Coordination Sequence:
#
# PCOD9482539 Si02
#       5
#    16   8   4   8  16
#     4  10  19  34  61  92 122 152 184 230 296 362
#     4  11  25  42  58  82 117 156 203 249 290 341
#     4  10  15  28  54  88 125 152 175 218 278 356
#     4  10  22  41  60  80 113 158 207 249 288 333
#     4   9  17  34  60  90 123 154 186 233 294 357
#
# _framework density 20.100372
#
# number of rings (size 3 to 8) (size 9 to 14) (size 15 to 20)
#    0.000    2.154    1.538    3.231    0.000    4.615 
#   11.077    4.615    0.000    5.538    0.000    0.000 
#    0.000    0.000    0.000    0.000    0.000    0.000 
#
# Total GULP energy -144821.912334 kJ/mol
# GULP energy per Si atom -5570.073551 kJ/mol
# Density = 2.005462 g / cm^3
# Si number density = 20.100372 Si / 1000 Ang^3
#
#
#
# Elastic Constant Matrix: (Units=GPa)
#
#
# Indices 1 2 3 4 5 6 
#
# 1 191.3537 20.9327 69.8486 0.0000 0.0000 0.0000
# 2 20.9327 105.7962 36.5119 0.0000 0.0000 0.0000
# 3 69.8486 36.5119 169.8319 0.0000 0.0000 0.0000
# 4 0.0000 0.0000 0.0000 21.1338 0.0000 0.0000
# 5 0.0000 0.0000 0.0000 0.0000 6.7423 0.0000
# 6 0.0000 0.0000 0.0000 0.0000 0.0000 -75.2283
#
#
#
# Elastic Compliance Matrix: (Units=1/GPa)
#
#
# Indices 1 2 3 4 5 6 
#
# 1 0.006163 -0.000372 -0.002455 0.000000 0.000000 0.000000
# 2 -0.000372 0.010232 -0.002047 0.000000 0.000000 0.000000
# 3 -0.002455 -0.002047 0.007338 0.000000 0.000000 0.000000
# 4 0.000000 0.000000 0.000000 0.047318 0.000000 0.000000
# 5 0.000000 0.000000 0.000000 0.000000 0.148317 0.000000
# 6 0.000000 0.000000 0.000000 0.000000 0.000000 -0.013293
#
#
# Mechanical properties :
#
#
# Convention : Reuss Voigt Hill
#
# Bulk Modulus (GPa) = 71.50258 80.17423 75.83841
# Shear Modulus (GPa) = 22.67745 13.17547 17.92646
#
# Velocity S-wave (km/s) = 3.36253 2.56302 2.98962
# Velocity P-wave (km/s) = 7.12218 6.98085 7.05187
#
# Compressibility (1/GPa) = 0.01398551
#
# Stress axis : x y z
#
# Youngs Moduli (GPa) = 162.26897 97.73131 136.28261
#
# Poissons Ratio (x) = 0.03638 0.33451
# Poissons Ratio (y) = 0.06040 0.27893
# Poissons Ratio (z) = 0.39829 0.20003
#
# Static dielectric constant tensor:
#      x y z
#    x 1.719320 0.000000 0.000000 
#    y 0.000000 1.808670 0.000000 
#    z 0.000000 0.000000 1.626880 
# 
# From -- ./inp_files/23558.got.cif
#   From: 2010.05.17/outbox.cif.g08.bks.cpg/sg65_12_cif.got.tgz:23558.got - 2010.06.03 17:01:31.
