data_PCOD9482936
_publ_section_title
;
Structure prediction by ZEFSAII (Michael W. Deem and Ramdas Pophale) SiO2 
 PCOD9482936
Probable space group: C M M M
;
_chemical_formula_sum "Si O2"
_cell_formula_units_Z 104
_cell_length_a 14.311114
_cell_length_b 27.795630
_cell_length_c 12.309957
_cell_angle_alpha 90.000000
_cell_angle_beta 90.000000
_cell_angle_gamma 90.000000
_cell_volume 4896.733844
_symmetry_space_group_name_H-M "C M M M"
_symmetry_group_IT_number 65
_symmetry_cell_setting 'orthorhombic'
loop_
_space_group_symop_operation_xyz
x,y,z
-x,-y,z
x,-y,-z
-x,y,-z
-x,-y,-z
x,y,-z
-x,y,z
x,-y,z
1/2+x,1/2+y,z
1/2-x,1/2-y,z
1/2+x,1/2-y,-z
1/2-x,1/2+y,-z
1/2-x,1/2-y,-z
1/2+x,1/2+y,-z
1/2-x,1/2+y,z
1/2+x,1/2-y,z
loop_
_atom_site_type_symbol
_atom_site_label
_atom_site_fract_x
_atom_site_fract_y
_atom_site_fract_z
Si Si1 0.311910 0.945041 0.500000
Si Si2 0.136657 0.741127 0.738282
Si Si3 0.147609 0.649109 0.124633
Si Si4 0.859422 0.237709 0.500000
Si Si5 0.600700 0.422870 0.270815
Si Si6 0.179034 0.446935 0.744286
Si Si7 0.630208 0.332870 0.876898
Si Si8 0.140292 0.122852 0.500000
O O1 0.357300 0.942742 0.380595
O O2 0.244958 0.898582 0.500000
O O3 0.267227 0.000000 0.500000
O O4 0.250000 0.750000 0.735253
O O5 0.110536 0.692344 0.800431
O O6 0.104351 0.742187 0.613889
O O7 0.103347 0.787176 0.805484
O O8 0.143305 0.597343 0.183504
O O9 0.257532 0.662338 0.119709
O O10 0.113061 0.648430 0.000000
O O11 0.750000 0.250000 0.500000
O O12 0.868324 0.179954 0.500000
O O13 0.500000 0.448904 0.260530
O O14 0.705696 0.445130 0.261505
O O15 0.599386 0.381355 0.180968
O O16 0.600269 0.398654 0.389558
O O17 0.153677 0.500000 0.785936
O O18 0.599174 0.327959 0.000000
#
# Coordination Sequence:
#
# PCOD9482936 Si02
#       8
#     8  16  16   8  16  16  16   8
#     4   8  16  27  41  55  71  97 129 168 209 250
#     4   9  16  25  39  60  81  99 121 153 201 257
#     4   9  17  27  41  59  78 102 131 161 205 261
#     4  10  18  23  41  66  81 101 118 157 209 261
#     4  10  19  29  42  57  76 107 144 182 219 253
#     4   9  18  30  43  58  78 104 138 183 224 255
#     4   9  16  27  40  54  76 101 127 167 207 244
#     4  10  17  30  42  57  83 101 132 173 220 262
#
# _framework density 21.238645999999999
#
# number of rings (size 3 to 8) (size 9 to 14) (size 15 to 20)
#    0.000    2.769    1.538    0.692    6.462    2.769 
#    0.000    0.000    0.000    4.615    0.000    4.308 
#    0.000    0.000    0.000    0.000    0.000    0.769 
#
# Total GULP energy -289694.824897 kJ/mol
# GULP energy per Si atom -5571.054325 kJ/mol
# Density = 2.119031 g / cm^3
# Si number density = 21.238646 Si / 1000 Ang^3
#
#
#
# Elastic Constant Matrix: (Units=GPa)
#
#
# Indices 1 2 3 4 5 6 
#
# 1 47.9531 -1.5710 3.3252 0.0000 0.0000 0.0000
# 2 -1.5710 156.5387 90.8242 0.0000 0.0000 0.0000
# 3 3.3252 90.8242 201.1146 0.0000 0.0000 0.0000
# 4 0.0000 0.0000 0.0000 16.5154 0.0000 0.0000
# 5 0.0000 0.0000 0.0000 0.0000 -4.5308 0.0000
# 6 0.0000 0.0000 0.0000 0.0000 0.0000 -19.0849
#
#
#
# Elastic Compliance Matrix: (Units=1/GPa)
#
#
# Indices 1 2 3 4 5 6 
#
# 1 0.020913 0.000556 -0.000597 0.000000 0.000000 0.000000
# 2 0.000556 0.008671 -0.003925 0.000000 0.000000 0.000000
# 3 -0.000597 -0.003925 0.006755 0.000000 0.000000 0.000000
# 4 0.000000 0.000000 0.000000 0.060550 0.000000 0.000000
# 5 0.000000 0.000000 0.000000 0.000000 -0.220710 0.000000
# 6 0.000000 0.000000 0.000000 0.000000 0.000000 -0.052398
#
#
# Mechanical properties :
#
#
# Convention : Reuss Voigt Hill
#
# Bulk Modulus (GPa) = 35.20196 65.64037 50.42117
# Shear Modulus (GPa) = -31.48257 19.44848 -6.01704
#
# Velocity S-wave (km/s) = -3.85427 3.02936 -1.68500
# Velocity P-wave (km/s) = 1.78795 6.57337 4.47283
#
# Compressibility (1/GPa) = 0.02840751
#
# Stress axis : x y z
#
# Youngs Moduli (GPa) = 47.81644 115.32504 148.04376
#
# Poissons Ratio (x) = -0.06415 0.08838
# Poissons Ratio (y) = -0.02660 0.58109
# Poissons Ratio (z) = 0.02855 0.45266
#
# Static dielectric constant tensor:
#      x y z
#    x 1.835020 0.000000 0.000000 
#    y 0.000000 1.714960 0.000000 
#    z 0.000000 0.000000 1.745180 
# 
# From -- ./inp_files/27549.got.cif
#   From: 2010.05.17/outbox.cif.g08.bks.cpg/sg65_14_cif.got.tgz:27549.got - 2010.06.03 17:01:31.
