data_PCOD9482037
_publ_section_title
;
Structure prediction by ZEFSAII (Michael W. Deem and Ramdas Pophale) SiO2 
 PCOD9482037
Probable space group: C M C A
;
_chemical_formula_sum "Si O2"
_cell_formula_units_Z 88
_cell_length_a 29.583728
_cell_length_b 8.556789
_cell_length_c 16.796074
_cell_angle_alpha 90.000000
_cell_angle_beta 90.000000
_cell_angle_gamma 90.000000
_cell_volume 4251.787034
_symmetry_space_group_name_H-M "C M C A"
_symmetry_group_IT_number 64
_symmetry_cell_setting 'orthorhombic'
loop_
_space_group_symop_operation_xyz
x,y,z
-x,1/2-y,1/2+z
x,-y,-z
-x,1/2+y,1/2-z
-x,-y,-z
x,1/2+y,1/2-z
-x,y,z
x,1/2-y,1/2+z
1/2+x,1/2+y,z
1/2-x,-y,1/2+z
1/2+x,1/2-y,-z
1/2-x,y,1/2-z
1/2-x,1/2-y,-z
1/2+x,y,1/2-z
1/2-x,1/2+y,z
1/2+x,-y,1/2+z
loop_
_atom_site_type_symbol
_atom_site_label
_atom_site_fract_x
_atom_site_fract_y
_atom_site_fract_z
Si Si1 0.598992 0.759060 0.029074
Si Si2 0.193531 0.455606 0.297489
Si Si3 0.000000 0.754958 0.466287
Si Si4 0.272080 0.376251 0.644010
Si Si5 0.401679 0.061200 0.630565
Si Si6 0.000000 0.558596 0.631523
Si Si7 0.673090 0.500000 0.500000
O O1 0.548947 0.833707 0.039262
O O2 0.603678 0.691577 0.938818
O O3 0.639262 0.879050 0.043304
O O4 0.599652 0.605570 0.084755
O O5 0.218749 0.586213 0.351912
O O6 0.205541 0.506430 0.208485
O O7 0.215999 0.294402 0.324924
O O8 0.140554 0.438634 0.311278
O O9 0.000000 0.663935 0.551187
O O10 0.000000 0.618872 0.400042
O O11 0.294809 0.407976 0.560219
O O12 0.451058 0.084482 0.670130
#
# Coordination Sequence:
#
# PCOD9482037 Si02
#       7
#    16  16   8  16  16   8   8
#     4   9  18  31  54  88 120 155 196 246 293 350
#     4  11  23  44  62  84 117 164 195 240 307 353
#     4   7  12  27  48  78 120 155 191 235 294 349
#     4  11  26  41  63  87 120 157 203 240 293 362
#     4   9  17  34  61  83 116 157 199 238 299 349
#     4   7  12  26  54  88 106 146 203 242 275 358
#     4  12  24  37  56  96 124 147 204 254 290 346
#
# _framework density 20.697179999999999
#
# number of rings (size 3 to 8) (size 9 to 14) (size 15 to 20)
#    0.000    2.364    1.818    4.364    5.091    2.545 
#    0.000    0.000    0.000    3.273    0.000    0.000 
#    0.000    0.000    0.000    0.000    0.000    0.000 
#
# Total GULP energy -245378.110882 kJ/mol
# GULP energy per Si atom -5576.775247 kJ/mol
# Density = 2.065007 g / cm^3
# Si number density = 20.697180 Si / 1000 Ang^3
#
#
#
# Elastic Constant Matrix: (Units=GPa)
#
#
# Indices 1 2 3 4 5 6 
#
# 1 136.7595 -3.7366 2.4215 0.0000 0.0000 0.0000
# 2 -3.7366 53.4849 -8.5608 0.0000 0.0000 0.0000
# 3 2.4215 -8.5608 9.9692 0.0000 0.0000 0.0000
# 4 0.0000 0.0000 0.0000 6.8583 0.0000 0.0000
# 5 0.0000 0.0000 0.0000 0.0000 23.5526 0.0000
# 6 0.0000 0.0000 0.0000 0.0000 0.0000 -3.8764
#
#
#
# Elastic Compliance Matrix: (Units=1/GPa)
#
#
# Indices 1 2 3 4 5 6 
#
# 1 0.007347 0.000264 -0.001558 0.000000 0.000000 0.000000
# 2 0.000264 0.021686 0.018558 0.000000 0.000000 0.000000
# 3 -0.001558 0.018558 0.116624 0.000000 0.000000 0.000000
# 4 0.000000 0.000000 0.000000 0.145808 0.000000 0.000000
# 5 0.000000 0.000000 0.000000 0.000000 0.042458 0.000000
# 6 0.000000 0.000000 0.000000 0.000000 0.000000 -0.257969
#
#
# Mechanical properties :
#
#
# Convention : Reuss Voigt Hill
#
# Bulk Modulus (GPa) = 5.54988 20.05131 12.80059
# Shear Modulus (GPa) = 49.26748 19.31286 34.29017
#
# Velocity S-wave (km/s) = 4.88422 3.05801 4.07474
# Velocity P-wave (km/s) = 5.87323 4.70930 5.32317
#
# Compressibility (1/GPa) = 0.18018416
#
# Stress axis : x y z
#
# Youngs Moduli (GPa) = 136.11178 46.11334 8.57459
#
# Poissons Ratio (x) = -0.01217 0.01336
# Poissons Ratio (y) = -0.03592 -0.15913
# Poissons Ratio (z) = 0.21205 -0.85577
#
# Static dielectric constant tensor:
#      x y z
#    x 1.794200 0.000000 0.000000 
#    y 0.000000 1.755510 0.000000 
#    z 0.000000 0.000000 1.714660 
# 
# From -- ./inp_files/35733.got.cif
#   From: 2010.05.17/outbox.cif.g08.bks.cpg/sg64_18_cif.got.tgz:35733.got - 2010.06.03 16:29:19.
