data_PCOD9482357
_publ_section_title
;
Structure prediction by ZEFSAII (Michael W. Deem and Ramdas Pophale) SiO2 
 PCOD9482357
Probable space group: C M C A
;
_chemical_formula_sum "Si O2"
_cell_formula_units_Z 48
_cell_length_a 15.000000
_cell_length_b 21.000000
_cell_length_c 15.000000
_cell_angle_alpha 90.000000
_cell_angle_beta 90.000000
_cell_angle_gamma 90.000000
_cell_volume 4725.000000
_symmetry_space_group_name_H-M "C M C A"
_symmetry_group_IT_number 64
_symmetry_cell_setting 'orthorhombic'
loop_
_space_group_symop_operation_xyz
x,y,z
-x,1/2-y,1/2+z
x,-y,-z
-x,1/2+y,1/2-z
-x,-y,-z
x,1/2+y,1/2-z
-x,y,z
x,1/2-y,1/2+z
1/2+x,1/2+y,z
1/2-x,-y,1/2+z
1/2+x,1/2-y,-z
1/2-x,y,1/2-z
1/2-x,1/2-y,-z
1/2+x,y,1/2-z
1/2-x,1/2+y,z
1/2+x,-y,1/2+z
loop_
_atom_site_type_symbol
_atom_site_label
_atom_site_fract_x
_atom_site_fract_y
_atom_site_fract_z
Si Si1 0.100015 0.671234 0.662193
Si Si2 0.889952 0.068440 0.701375
Si Si3 0.852619 0.763406 0.982530
Si Si4 0.102358 0.382226 0.010119
Si Si5 0.392804 0.424678 0.680488
Si Si6 0.852221 0.707036 0.275709
O O1 0.144408 0.616086 0.721805
O O2 0.126647 0.687916 0.561793
O O3 0.100776 0.736732 0.719831
O O4 0.000000 0.648654 0.652923
O O5 0.859363 0.094615 0.604432
O O6 0.000000 0.071013 0.699885
O O7 0.863710 0.994632 0.711898
O O8 0.897784 0.694378 0.994745
O O9 0.868708 0.785750 0.881267
O O10 0.750000 0.750000 0.000000
O O11 0.000000 0.404633 0.010540
O O12 0.143765 0.409423 0.919065
O O13 0.500000 0.427007 0.674407
O O14 0.372679 0.364009 0.742096
O O15 0.750000 0.718821 0.250000
#
# Coordination Sequence:
#
# PCOD9482357 Si02
#       6
#    16  16  16  16  16  16
#     4  11  22  38  61  90 120 153 198 246 294 355
#     4   9  19  35  58  87 119 154 195 243 296 348
#     4  12  23  37  58  86 121 155 198 247 298 351
#     4  10  18  32  58  87 116 150 197 250 294 340
#     4  10  20  36  58  87 119 153 195 245 295 350
#     4  12  23  39  60  85 119 160 199 242 297 353
#
# _framework density 10.15873
#
# number of rings (size 3 to 8) (size 9 to 14) (size 15 to 20)
#    0.000    1.333    5.000    1.500    0.000    4.000 
#    0.000    3.333    0.000    3.000    0.000    0.000 
#    0.000    0.000    0.000    0.000    0.000    0.000 
#
# Total GULP energy -267731.778806 kJ/mol
# GULP energy per Si atom -5577.745392 kJ/mol
# Density = 1.013561 g / cm^3
# Si number density = 10.158730 Si / 1000 Ang^3
#
#
#
# Elastic Constant Matrix: (Units=GPa)
#
#
# Indices 1 2 3 4 5 6 
#
# 1 38.1980 -11.0623 0.5067 0.0000 0.0000 0.0000
# 2 -11.0623 121.7375 63.6163 0.0000 0.0000 0.0000
# 3 0.5067 63.6163 173.9071 0.0000 0.0000 0.0000
# 4 0.0000 0.0000 0.0000 30.4566 0.0000 0.0000
# 5 0.0000 0.0000 0.0000 0.0000 23.3064 0.0000
# 6 0.0000 0.0000 0.0000 0.0000 0.0000 450.7912
#
#
#
# Elastic Compliance Matrix: (Units=1/GPa)
#
#
# Indices 1 2 3 4 5 6 
#
# 1 0.027092 0.003095 -0.001211 0.000000 0.000000 0.000000
# 2 0.003095 0.010509 -0.003853 0.000000 0.000000 0.000000
# 3 -0.001211 -0.003853 0.007163 0.000000 0.000000 0.000000
# 4 0.000000 0.000000 0.000000 0.032834 0.000000 0.000000
# 5 0.000000 0.000000 0.000000 0.000000 0.042907 0.000000
# 6 0.000000 0.000000 0.000000 0.000000 0.000000 0.002218
#
#
# Mechanical properties :
#
#
# Convention : Reuss Voigt Hill
#
# Bulk Modulus (GPa) = 24.49489 48.88488 36.68989
# Shear Modulus (GPa) = 35.64544 119.62965 77.63754
#
# Velocity S-wave (km/s) = 4.19313 7.68167 6.18831
# Velocity P-wave (km/s) = 5.96031 10.13855 8.31611
#
# Compressibility (1/GPa) = 0.04082484
#
# Stress axis : x y z
#
# Youngs Moduli (GPa) = 36.91171 95.15418 139.60030
#
# Poissons Ratio (x) = -0.29447 0.16905
# Poissons Ratio (y) = -0.11423 0.53793
# Poissons Ratio (z) = 0.04470 0.36666
#
# Static dielectric constant tensor:
#      x y z
#    x 1.528800 0.000000 0.000000 
#    y 0.000000 1.766950 0.000000 
#    z 0.000000 0.000000 1.691410 
# 
# From -- ./inp_files/23887.got.cif
#   From: 2010.05.17/outbox.ucp.g08.bks.cvg/sg64_12_cif.got.tgz:23887.got - 2010.06.11 16:36:46.
