data_PCOD9482093
_publ_section_title
;
Structure prediction by ZEFSAII (Michael W. Deem and Ramdas Pophale) SiO2 
 PCOD9482093
Probable space group: C M C A
;
_chemical_formula_sum "Si O2"
_cell_formula_units_Z 64
_cell_length_a 8.480047
_cell_length_b 19.958435
_cell_length_c 17.396147
_cell_angle_alpha 90.000000
_cell_angle_beta 90.000000
_cell_angle_gamma 90.000000
_cell_volume 2944.271209
_symmetry_space_group_name_H-M "C M C A"
_symmetry_group_IT_number 64
_symmetry_cell_setting 'orthorhombic'
loop_
_space_group_symop_operation_xyz
x,y,z
-x,1/2-y,1/2+z
x,-y,-z
-x,1/2+y,1/2-z
-x,-y,-z
x,1/2+y,1/2-z
-x,y,z
x,1/2-y,1/2+z
1/2+x,1/2+y,z
1/2-x,-y,1/2+z
1/2+x,1/2-y,-z
1/2-x,y,1/2-z
1/2-x,1/2-y,-z
1/2+x,y,1/2-z
1/2-x,1/2+y,z
1/2+x,-y,1/2+z
loop_
_atom_site_type_symbol
_atom_site_label
_atom_site_fract_x
_atom_site_fract_y
_atom_site_fract_z
Si Si1 0.811501 0.986795 0.168827
Si Si2 0.183529 0.630558 0.122557
Si Si3 0.315475 0.769984 0.167105
Si Si4 0.813437 0.372415 0.453057
O O1 0.750000 0.959370 0.250000
O O2 0.734469 0.058949 0.155351
O O3 0.000000 0.993569 0.171600
O O4 0.773003 0.936825 0.099082
O O5 0.284602 0.691043 0.157223
O O6 0.000000 0.643224 0.138445
O O7 0.217070 0.629169 0.031474
O O8 0.500000 0.785031 0.161456
O O9 0.250000 0.790843 0.250000
O O10 0.224504 0.808410 0.099493
O O11 0.000000 0.374725 0.471348
#
# Coordination Sequence:
#
# PCOD9482093 Si02
#       4
#    16  16  16  16
#     4  11  24  42  65  93 127 165 207 257 311 370
#     4  12  25  42  65  93 127 166 210 258 311 370
#     4  12  25  43  66  93 127 165 209 258 312 371
#     4  11  24  43  66  94 128 165 208 257 312 371
#
# _framework density 21.737128999999999
#
# number of rings (size 3 to 8) (size 9 to 14) (size 15 to 20)
#    0.000    0.500    0.000    9.000    0.000    9.000 
#    0.000    0.000    0.000    0.000    0.000    0.000 
#    0.000    0.000    0.000    0.000    0.000    0.000 
#
# Total GULP energy -179390.160102 kJ/mol
# GULP energy per Si atom -5605.942503 kJ/mol
# Density = 2.168765 g / cm^3
# Si number density = 21.737129 Si / 1000 Ang^3
#
#
#
# Elastic Constant Matrix: (Units=GPa)
#
#
# Indices 1 2 3 4 5 6 
#
# 1 42.6815 -8.8991 -1.7054 0.0000 0.0000 0.0000
# 2 -8.8991 71.4013 -11.1104 0.0000 0.0000 0.0000
# 3 -1.7054 -11.1104 87.4800 0.0000 0.0000 0.0000
# 4 0.0000 0.0000 0.0000 26.8494 0.0000 0.0000
# 5 0.0000 0.0000 0.0000 0.0000 40.3217 0.0000
# 6 0.0000 0.0000 0.0000 0.0000 0.0000 25.9198
#
#
#
# Elastic Compliance Matrix: (Units=1/GPa)
#
#
# Indices 1 2 3 4 5 6 
#
# 1 0.024119 0.003141 0.000869 0.000000 0.000000 0.000000
# 2 0.003141 0.014697 0.001928 0.000000 0.000000 0.000000
# 3 0.000869 0.001928 0.011693 0.000000 0.000000 0.000000
# 4 0.000000 0.000000 0.000000 0.037245 0.000000 0.000000
# 5 0.000000 0.000000 0.000000 0.000000 0.024801 0.000000
# 6 0.000000 0.000000 0.000000 0.000000 0.000000 0.038581
#
#
# Mechanical properties :
#
#
# Convention : Reuss Voigt Hill
#
# Bulk Modulus (GPa) = 16.02938 17.57032 16.79985
# Shear Modulus (GPa) = 31.23958 33.50334 32.37146
#
# Velocity S-wave (km/s) = 3.79509 3.93019 3.86323
# Velocity P-wave (km/s) = 5.15692 5.35685 5.25784
#
# Compressibility (1/GPa) = 0.06238546
#
# Stress axis : x y z
#
# Youngs Moduli (GPa) = 41.46103 68.04180 85.52142
#
# Poissons Ratio (x) = -0.21374 -0.07433
# Poissons Ratio (y) = -0.13024 -0.16487
# Poissons Ratio (z) = -0.03604 -0.13117
#
# Static dielectric constant tensor:
#      x y z
#    x 1.721810 0.000000 0.000000 
#    y 0.000000 1.772140 0.000000 
#    z 0.000000 0.000000 1.761510 
# 
# From -- ./inp_files/20887.got.cif
#   From: 2010.05.17/outbox.cif.g08.bks.cpg/sg64_11_cif.got.tgz:20887.got - 2010.06.03 16:29:19.
