data_PCOD9482220
_publ_section_title
;
Structure prediction by ZEFSAII (Michael W. Deem and Ramdas Pophale) SiO2 
 PCOD9482220
Probable space group: C M C A
;
_chemical_formula_sum "Si O2"
_cell_formula_units_Z 72
_cell_length_a 14.449053
_cell_length_b 10.220709
_cell_length_c 18.639132
_cell_angle_alpha 90.000000
_cell_angle_beta 90.000000
_cell_angle_gamma 90.000000
_cell_volume 2752.618925
_symmetry_space_group_name_H-M "C M C A"
_symmetry_group_IT_number 64
_symmetry_cell_setting 'orthorhombic'
loop_
_space_group_symop_operation_xyz
x,y,z
-x,1/2-y,1/2+z
x,-y,-z
-x,1/2+y,1/2-z
-x,-y,-z
x,1/2+y,1/2-z
-x,y,z
x,1/2-y,1/2+z
1/2+x,1/2+y,z
1/2-x,-y,1/2+z
1/2+x,1/2-y,-z
1/2-x,y,1/2-z
1/2-x,1/2-y,-z
1/2+x,y,1/2-z
1/2-x,1/2+y,z
1/2+x,-y,1/2+z
loop_
_atom_site_type_symbol
_atom_site_label
_atom_site_fract_x
_atom_site_fract_y
_atom_site_fract_z
Si Si1 0.608599 0.701913 0.251522
Si Si2 0.110033 0.457896 0.177942
Si Si3 0.101329 0.820111 0.476559
Si Si4 0.601720 0.047526 0.397889
Si Si5 0.747040 0.500000 0.000000
O O1 0.500000 0.726241 0.268464
O O2 0.646837 0.844258 0.231168
O O3 0.650370 0.602688 0.309762
O O4 0.612059 0.613271 0.179331
O O5 0.110739 0.398880 0.098632
O O6 0.000000 0.470688 0.194389
O O7 0.102074 0.670306 0.452968
O O8 0.000000 0.847737 0.509093
O O9 0.187001 0.877631 0.519162
O O10 0.500000 0.983733 0.400898
O O11 0.685266 0.965475 0.430005
#
# Coordination Sequence:
#
# PCOD9482220 Si02
#       5
#    16  16  16  16   8
#     4   8  14  28  51  76 102 133 169 211 262 316
#     4   8  14  28  51  76 102 133 169 211 262 316
#     4   9  19  35  53  75 105 138 171 214 266 311
#     4   9  19  35  53  75 105 138 171 214 266 311
#     4  12  20  32  54  76 100 136 184 218 248 308
#
# _framework density 26.156907
#
# number of rings (size 3 to 8) (size 9 to 14) (size 15 to 20)
#    0.000    3.111    0.000    4.000    0.000    0.000 
#    0.000    5.556    0.000   16.000    0.000    0.000 
#    0.000    0.000    0.000    0.000    0.000    1.778 
#
# Total GULP energy -201046.948081 kJ/mol
# GULP energy per Si atom -5584.637447 kJ/mol
# Density = 2.609737 g / cm^3
# Si number density = 26.156907 Si / 1000 Ang^3
#
#
#
# Elastic Constant Matrix: (Units=GPa)
#
#
# Indices 1 2 3 4 5 6 
#
# 1 130.0310 -4.5652 4.8887 0.0000 0.0000 0.0000
# 2 -4.5652 62.7774 13.5860 0.0000 0.0000 0.0000
# 3 4.8887 13.5860 37.0457 0.0000 0.0000 0.0000
# 4 0.0000 0.0000 0.0000 37.6194 0.0000 0.0000
# 5 0.0000 0.0000 0.0000 0.0000 11.2488 0.0000
# 6 0.0000 0.0000 0.0000 0.0000 0.0000 14.4386
#
#
#
# Elastic Compliance Matrix: (Units=1/GPa)
#
#
# Indices 1 2 3 4 5 6 
#
# 1 0.007771 0.000855 -0.001339 0.000000 0.000000 0.000000
# 2 0.000855 0.017397 -0.006493 0.000000 0.000000 0.000000
# 3 -0.001339 -0.006493 0.029552 0.000000 0.000000 0.000000
# 4 0.000000 0.000000 0.000000 0.026582 0.000000 0.000000
# 5 0.000000 0.000000 0.000000 0.000000 0.088899 0.000000
# 6 0.000000 0.000000 0.000000 0.000000 0.000000 0.069259
#
#
# Mechanical properties :
#
#
# Convention : Reuss Voigt Hill
#
# Bulk Modulus (GPa) = 24.53073 28.63033 26.58053
# Shear Modulus (GPa) = 18.72656 27.05767 22.89212
#
# Velocity S-wave (km/s) = 2.67859 3.21976 2.96156
# Velocity P-wave (km/s) = 4.35490 4.97914 4.67744
#
# Compressibility (1/GPa) = 0.04076520
#
# Stress axis : x y z
#
# Youngs Moduli (GPa) = 128.68639 57.48246 33.83916
#
# Poissons Ratio (x) = -0.04914 0.04531
# Poissons Ratio (y) = -0.11001 0.21971
# Poissons Ratio (z) = 0.17231 0.37322
#
# Static dielectric constant tensor:
#      x y z
#    x 2.125200 0.000000 0.000000 
#    y 0.000000 2.067200 0.000000 
#    z 0.000000 0.000000 2.064280 
# 
# From -- ./inp_files/44882.got.cif
#   From: 2010.05.17/outbox.cif.g08.bks.cpg/sg64_23_cif.got.tgz:44882.got - 2010.06.03 16:29:19.
