data_PCOD9482554
_publ_section_title
;
Structure prediction by ZEFSAII (Michael W. Deem and Ramdas Pophale) SiO2 
 PCOD9482554
Probable space group: C M M M
;
_chemical_formula_sum "Si O2"
_cell_formula_units_Z 88
_cell_length_a 19.088104
_cell_length_b 8.608034
_cell_length_c 29.819161
_cell_angle_alpha 90.000000
_cell_angle_beta 90.000000
_cell_angle_gamma 90.000000
_cell_volume 4899.617601
_symmetry_space_group_name_H-M "C M M M"
_symmetry_group_IT_number 65
_symmetry_cell_setting 'orthorhombic'
loop_
_space_group_symop_operation_xyz
x,y,z
-x,-y,z
x,-y,-z
-x,y,-z
-x,-y,-z
x,y,-z
-x,y,z
x,-y,z
1/2+x,1/2+y,z
1/2-x,1/2-y,z
1/2+x,1/2-y,-z
1/2-x,1/2+y,-z
1/2-x,1/2-y,-z
1/2+x,1/2+y,-z
1/2-x,1/2+y,z
1/2+x,1/2-y,z
loop_
_atom_site_type_symbol
_atom_site_label
_atom_site_fract_x
_atom_site_fract_y
_atom_site_fract_z
Si Si1 0.672536 0.186072 0.448536
Si Si2 0.169948 0.814504 0.000000
Si Si3 0.419447 0.687948 0.631603
Si Si4 0.670343 0.686385 0.184501
Si Si5 0.671054 0.312671 0.283359
Si Si6 0.169945 0.685228 0.907530
O O1 0.655900 0.231605 0.500000
O O2 0.750000 0.250000 0.438134
O O3 0.618291 0.251386 0.412816
O O4 0.673996 0.000000 0.446191
O O5 0.250000 0.750000 0.000000
O O6 0.137911 0.752270 0.046520
O O7 0.171933 0.000000 0.000000
O O8 0.500000 0.737861 0.633563
O O9 0.417796 0.500000 0.631108
O O10 0.376698 0.740681 0.675545
O O11 0.671597 0.500000 0.179825
O O12 0.750000 0.750000 0.186252
O O13 0.641642 0.728127 0.233799
O O14 0.637519 0.758414 0.139552
O O15 0.674887 0.500000 0.284603
O O16 0.750000 0.250000 0.288018
O O17 0.172239 0.500000 0.909430
O O18 0.250000 0.750000 0.906611
#
# Coordination Sequence:
#
# PCOD9482554 Si02
#       6
#    16   8  16  16  16  16
#     4  10  21  37  57  80 105 133 167 206 246 290
#     4  10  16  22  30  42  64  98 137 174 217 268
#     4  10  21  36  53  75 104 136 168 203 246 294
#     4   9  15  24  37  54  76 103 139 182 227 272
#     4   9  18  31  48  69  92 121 158 200 242 286
#     4  10  16  22  31  46  69  98 135 177 221 268
#
# _framework density 17.960584999999998
#
# number of rings (size 3 to 8) (size 9 to 14) (size 15 to 20)
#    0.000    2.364    0.000    6.273    0.000    4.727 
#    0.000    1.818    0.000    0.000    0.000    0.000 
#    0.000    0.000    0.000    0.818    0.000   20.182 
#
# Total GULP energy -245229.249354 kJ/mol
# GULP energy per Si atom -5573.392031 kJ/mol
# Density = 1.791971 g / cm^3
# Si number density = 17.960585 Si / 1000 Ang^3
#
#
#
# Elastic Constant Matrix: (Units=GPa)
#
#
# Indices 1 2 3 4 5 6 
#
# 1 57.6055 21.9032 80.4436 0.0000 0.0000 0.0000
# 2 21.9032 77.2332 49.3420 0.0000 0.0000 0.0000
# 3 80.4436 49.3420 185.6157 0.0000 0.0000 0.0000
# 4 0.0000 0.0000 0.0000 25.3020 0.0000 0.0000
# 5 0.0000 0.0000 0.0000 0.0000 -3.4704 0.0000
# 6 0.0000 0.0000 0.0000 0.0000 0.0000 12.4434
#
#
#
# Elastic Compliance Matrix: (Units=1/GPa)
#
#
# Indices 1 2 3 4 5 6 
#
# 1 0.043979 -0.000356 -0.018965 0.000000 0.000000 0.000000
# 2 -0.000356 0.015599 -0.003993 0.000000 0.000000 0.000000
# 3 -0.018965 -0.003993 0.014668 0.000000 0.000000 0.000000
# 4 0.000000 0.000000 0.000000 0.039522 0.000000 0.000000
# 5 0.000000 0.000000 0.000000 0.000000 -0.288152 0.000000
# 6 0.000000 0.000000 0.000000 0.000000 0.000000 0.080364
#
#
# Mechanical properties :
#
#
# Convention : Reuss Voigt Hill
#
# Bulk Modulus (GPa) = 36.20695 69.31469 52.76082
# Shear Modulus (GPa) = -130.94396 18.10605 -56.41896
#
# Velocity S-wave (km/s) = -8.54778 3.17850 -5.61078
# Velocity P-wave (km/s) = 8.78729 7.22128 3.54045
#
# Compressibility (1/GPa) = 0.02761901
#
# Stress axis : x y z
#
# Youngs Moduli (GPa) = 22.73802 64.10481 68.17467
#
# Poissons Ratio (x) = 0.02282 1.29296
# Poissons Ratio (y) = 0.00809 0.27219
# Poissons Ratio (z) = 0.43124 0.25594
#
# Static dielectric constant tensor:
#      x y z
#    x 1.567760 0.000000 0.000000 
#    y 0.000000 1.606470 0.000000 
#    z 0.000000 0.000000 1.693340 
# 
# From -- ./inp_files/77937.got.cif
#   From: 2010.05.17/outbox.cif.g08.bks.cpg/sg65_39_cif.got.tgz:77937.got - 2010.06.03 17:01:31.
