data_PCOD9482716
_publ_section_title
;
Structure prediction by ZEFSAII (Michael W. Deem and Ramdas Pophale) SiO2 
 PCOD9482716
Probable space group: C M M M
;
_chemical_formula_sum "Si O2"
_cell_formula_units_Z 80
_cell_length_a 8.742810
_cell_length_b 14.924866
_cell_length_c 27.994383
_cell_angle_alpha 90.000000
_cell_angle_beta 90.000000
_cell_angle_gamma 90.000000
_cell_volume 3652.854560
_symmetry_space_group_name_H-M "C M M M"
_symmetry_group_IT_number 65
_symmetry_cell_setting 'orthorhombic'
loop_
_space_group_symop_operation_xyz
x,y,z
-x,-y,z
x,-y,-z
-x,y,-z
-x,-y,-z
x,y,-z
-x,y,z
x,-y,z
1/2+x,1/2+y,z
1/2-x,1/2-y,z
1/2+x,1/2-y,-z
1/2-x,1/2+y,-z
1/2-x,1/2-y,-z
1/2+x,1/2+y,-z
1/2-x,1/2+y,z
1/2+x,1/2-y,z
loop_
_atom_site_type_symbol
_atom_site_label
_atom_site_fract_x
_atom_site_fract_y
_atom_site_fract_z
Si Si1 0.683512 0.351291 0.552472
Si Si2 0.670096 0.606349 0.852014
Si Si3 0.814913 0.149796 0.746739
Si Si4 0.677874 0.109273 0.051342
Si Si5 0.682970 0.148007 0.350467
O O1 0.716281 0.391414 0.500000
O O2 0.500000 0.347909 0.558263
O O3 0.750000 0.250000 0.550419
O O4 0.757543 0.392960 0.599821
O O5 0.500000 0.646113 0.850136
O O6 0.658427 0.500000 0.859328
O O7 0.736421 0.615861 0.798845
O O8 0.751680 0.642092 0.899150
O O9 0.750000 0.250000 0.746180
O O10 0.746835 0.106674 0.698670
O O11 0.000000 0.145852 0.743934
O O12 0.500000 0.133297 0.051264
O O13 0.685205 0.000000 0.051706
O O14 0.747128 0.137577 0.000000
O O15 0.500000 0.150786 0.349561
O O16 0.750000 0.250000 0.351086
#
# Coordination Sequence:
#
# PCOD9482716 Si02
#       5
#    16  16  16  16  16
#     4   9  15  22  33  50  74 104 137 173 214 257
#     4   9  18  31  47  68  91 115 144 180 220 257
#     4  10  19  31  46  63  87 117 149 182 215 258
#     4   8  14  25  42  65  91 116 141 172 213 259
#     4  10  17  25  38  55  78 108 143 178 213 256
#
# _framework density 21.900680999999999
#
# number of rings (size 3 to 8) (size 9 to 14) (size 15 to 20)
#    0.000    2.800    0.000    6.000    0.000    3.200 
#    0.000    2.000    0.000    0.600    0.000    0.000 
#    0.000    0.800    0.000    9.200    0.000    7.200 
#
# Total GULP energy -222829.986155 kJ/mol
# GULP energy per Si atom -5570.749654 kJ/mol
# Density = 2.185083 g / cm^3
# Si number density = 21.900681 Si / 1000 Ang^3
#
#
#
# Elastic Constant Matrix: (Units=GPa)
#
#
# Indices 1 2 3 4 5 6 
#
# 1 101.6439 5.5344 96.9118 0.0000 0.0000 0.0000
# 2 5.5344 44.5326 13.2021 0.0000 0.0000 0.0000
# 3 96.9118 13.2021 301.6119 0.0000 0.0000 0.0000
# 4 0.0000 0.0000 0.0000 13.7622 0.0000 0.0000
# 5 0.0000 0.0000 0.0000 0.0000 38.4089 0.0000
# 6 0.0000 0.0000 0.0000 0.0000 0.0000 -1.6676
#
#
#
# Elastic Compliance Matrix: (Units=1/GPa)
#
#
# Indices 1 2 3 4 5 6 
#
# 1 0.014191 -0.000417 -0.004542 0.000000 0.000000 0.000000
# 2 -0.000417 0.022763 -0.000862 0.000000 0.000000 0.000000
# 3 -0.004542 -0.000862 0.004813 0.000000 0.000000 0.000000
# 4 0.000000 0.000000 0.000000 0.072663 0.000000 0.000000
# 5 0.000000 0.000000 0.000000 0.000000 0.026036 0.000000
# 6 0.000000 0.000000 0.000000 0.000000 0.000000 -0.599671
#
#
# Mechanical properties :
#
#
# Convention : Reuss Voigt Hill
#
# Bulk Modulus (GPa) = 33.19573 75.45390 54.32482
# Shear Modulus (GPa) = -11.42798 32.24338 10.40770
#
# Velocity S-wave (km/s) = -2.28679 3.84116 2.18233
# Velocity P-wave (km/s) = 2.86666 7.36208 5.58650
#
# Compressibility (1/GPa) = 0.03012436
#
# Stress axis : x y z
#
# Youngs Moduli (GPa) = 70.46689 43.93107 207.79184
#
# Poissons Ratio (x) = 0.01833 0.94369
# Poissons Ratio (y) = 0.02940 0.17918
# Poissons Ratio (z) = 0.32003 0.03788
#
# Static dielectric constant tensor:
#      x y z
#    x 1.759860 0.000000 0.000000 
#    y 0.000000 1.868530 0.000000 
#    z 0.000000 0.000000 1.913740 
# 
# From -- ./inp_files/72722.got.cif
#   From: 2010.05.17/outbox.cif.g08.bks.cpg/sg65_37_cif.got.tgz:72722.got - 2010.06.03 17:01:31.
