data_PCOD9482703
_publ_section_title
;
Structure prediction by ZEFSAII (Michael W. Deem and Ramdas Pophale) SiO2 
 PCOD9482703
Probable space group: C M M M
;
_chemical_formula_sum "Si O2"
_cell_formula_units_Z 88
_cell_length_a 35.350078
_cell_length_b 23.619752
_cell_length_c 8.885966
_cell_angle_alpha 90.000000
_cell_angle_beta 90.000000
_cell_angle_gamma 90.000000
_cell_volume 7419.426843
_symmetry_space_group_name_H-M "C M M M"
_symmetry_group_IT_number 65
_symmetry_cell_setting 'orthorhombic'
loop_
_space_group_symop_operation_xyz
x,y,z
-x,-y,z
x,-y,-z
-x,y,-z
-x,-y,-z
x,y,-z
-x,y,z
x,-y,z
1/2+x,1/2+y,z
1/2-x,1/2-y,z
1/2+x,1/2-y,-z
1/2-x,1/2+y,-z
1/2-x,1/2-y,-z
1/2+x,1/2+y,-z
1/2-x,1/2+y,z
1/2+x,1/2-y,z
loop_
_atom_site_type_symbol
_atom_site_label
_atom_site_fract_x
_atom_site_fract_y
_atom_site_fract_z
Si Si1 0.769925 0.066411 0.819644
Si Si2 0.349412 0.625935 0.179877
Si Si3 0.000000 0.068723 0.173610
Si Si4 0.695229 0.733455 0.819629
Si Si5 0.232410 0.667988 0.320314
Si Si6 0.421156 0.433860 0.679659
O O1 0.811796 0.089808 0.778279
O O2 0.738532 0.104174 0.736291
O O3 0.767302 0.000000 0.787003
O O4 0.766118 0.074962 0.000000
O O5 0.339869 0.691829 0.211775
O O6 0.386029 0.602056 0.260924
O O7 0.354085 0.619920 0.000000
O O8 0.038820 0.086336 0.253353
O O9 0.000000 0.000000 0.179665
O O10 0.000000 0.086051 0.000000
O O11 0.730672 0.699348 0.749020
O O12 0.697740 0.795602 0.747371
O O13 0.699964 0.736986 0.000000
O O14 0.232614 0.671564 0.500000
O O15 0.422949 0.431932 0.500000
O O16 0.415701 0.500000 0.724953
#
# Coordination Sequence:
#
# PCOD9482703 Si02
#       6
#    16  16   8  16  16  16
#     4   9  17  28  39  50  67  92 118 142 171 209
#     4   9  17  27  39  53  67  86 113 143 172 205
#     4   9  17  29  43  53  63  85 115 141 164 199
#     4   9  16  27  39  49  64  87 114 139 166 204
#     4  10  17  24  36  52  68  85 108 140 175 207
#     4  10  19  28  38  53  72  90 108 136 175 213
#
# _framework density 11.860754
#
# number of rings (size 3 to 8) (size 9 to 14) (size 15 to 20)
#    0.000    2.636    0.000    5.727    0.000    6.909 
#    0.000    0.000    0.000    0.000    0.000    0.000 
#    0.000    0.000    0.000    0.000    0.000    0.000 
#
# Total GULP energy -244956.892929 kJ/mol
# GULP energy per Si atom -5567.202112 kJ/mol
# Density = 1.183376 g / cm^3
# Si number density = 11.860754 Si / 1000 Ang^3
#
#
#
# Elastic Constant Matrix: (Units=GPa)
#
#
# Indices 1 2 3 4 5 6 
#
# 1 62.6535 46.8483 37.5677 0.0000 0.0000 0.0000
# 2 46.8483 73.6696 40.6116 0.0000 0.0000 0.0000
# 3 37.5677 40.6116 57.1112 0.0000 0.0000 0.0000
# 4 0.0000 0.0000 0.0000 9.9895 0.0000 0.0000
# 5 0.0000 0.0000 0.0000 0.0000 29.2618 0.0000
# 6 0.0000 0.0000 0.0000 0.0000 0.0000 15.9031
#
#
#
# Elastic Compliance Matrix: (Units=1/GPa)
#
#
# Indices 1 2 3 4 5 6 
#
# 1 0.034613 -0.015559 -0.011704 0.000000 0.000000 0.000000
# 2 -0.015559 0.029320 -0.010615 0.000000 0.000000 0.000000
# 3 -0.011704 -0.010615 0.032757 0.000000 0.000000 0.000000
# 4 0.000000 0.000000 0.000000 0.100105 0.000000 0.000000
# 5 0.000000 0.000000 0.000000 0.000000 0.034174 0.000000
# 6 0.000000 0.000000 0.000000 0.000000 0.000000 0.062881
#
#
# Mechanical properties :
#
#
# Convention : Reuss Voigt Hill
#
# Bulk Modulus (GPa) = 47.76982 49.27659 48.52321
# Shear Modulus (GPa) = 13.27725 15.59131 14.43428
#
# Velocity S-wave (km/s) = 3.34941 3.62958 3.49231
# Velocity P-wave (km/s) = 7.43781 7.69423 7.56711
#
# Compressibility (1/GPa) = 0.02093372
#
# Stress axis : x y z
#
# Youngs Moduli (GPa) = 28.89098 34.10652 30.52791
#
# Poissons Ratio (x) = 0.53066 0.35731
# Poissons Ratio (y) = 0.44951 0.32404
# Poissons Ratio (z) = 0.33815 0.36203
#
# Static dielectric constant tensor:
#      x y z
#    x 1.366500 0.000000 0.000000 
#    y 0.000000 1.410670 0.000000 
#    z 0.000000 0.000000 1.394370 
# 
# From -- ./inp_files/19005.got.cif
#   From: 2010.05.17/outbox.cif.g08.bks.cpg/sg65_10_cif.got.tgz:19005.got - 2010.06.03 17:01:31.
