data_PCOD9482765
_publ_section_title
;
Structure prediction by ZEFSAII (Michael W. Deem and Ramdas Pophale) SiO2 
 PCOD9482765
Probable space group: C M M M
;
_chemical_formula_sum "Si O2"
_cell_formula_units_Z 80
_cell_length_a 24.385024
_cell_length_b 27.187525
_cell_length_c 8.642005
_cell_angle_alpha 90.000000
_cell_angle_beta 90.000000
_cell_angle_gamma 90.000000
_cell_volume 5729.376657
_symmetry_space_group_name_H-M "C M M M"
_symmetry_group_IT_number 65
_symmetry_cell_setting 'orthorhombic'
loop_
_space_group_symop_operation_xyz
x,y,z
-x,-y,z
x,-y,-z
-x,y,-z
-x,-y,-z
x,y,-z
-x,y,z
x,-y,z
1/2+x,1/2+y,z
1/2-x,1/2-y,z
1/2+x,1/2-y,-z
1/2-x,1/2+y,-z
1/2-x,1/2-y,-z
1/2+x,1/2+y,-z
1/2-x,1/2+y,z
1/2+x,1/2-y,z
loop_
_atom_site_type_symbol
_atom_site_label
_atom_site_fract_x
_atom_site_fract_y
_atom_site_fract_z
Si Si1 0.283348 0.301738 0.179359
Si Si2 0.385398 0.944243 0.688810
Si Si3 0.000000 0.395791 0.311644
Si Si4 0.317051 0.851468 0.684396
Si Si5 0.616366 0.758427 0.186055
Si Si6 0.500000 0.781134 0.685698
O O1 0.250000 0.250000 0.183861
O O2 0.245428 0.339780 0.269921
O O3 0.343506 0.286164 0.237048
O O4 0.286575 0.316826 0.000000
O O5 0.385934 0.945174 0.500000
O O6 0.444769 0.923411 0.738025
O O7 0.339714 0.904473 0.735015
O O8 0.376727 0.000000 0.742188
O O9 0.000000 0.395903 0.500000
O O10 0.000000 0.338718 0.263987
O O11 0.323190 0.847694 0.500000
O O12 0.355274 0.809102 0.757933
O O13 0.555383 0.756886 0.251453
O O14 0.615989 0.758407 0.000000
O O15 0.500000 0.780266 0.500000
#
# Coordination Sequence:
#
# PCOD9482765 Si02
#       6
#    16  16   8  16  16   8
#     4   8  16  29  42  56  76 103 132 160 199 252
#     4   9  16  25  38  57  80 106 137 174 212 245
#     4   9  15  25  38  54  76 102 136 173 205 235
#     4  10  17  26  42  62  79  99 134 176 209 237
#     4  10  19  30  42  57  79 108 135 160 202 252
#     4  11  19  28  43  63  82 102 137 176 205 234
#
# _framework density 13.963125
#
# number of rings (size 3 to 8) (size 9 to 14) (size 15 to 20)
#    0.000    2.600    2.000    3.000    0.000    5.600 
#    0.000    0.000    0.000    2.400    0.000    1.400 
#    0.000    0.000    0.000    0.900    0.000   18.200 
#
# Total GULP energy -222803.506122 kJ/mol
# GULP energy per Si atom -5570.087653 kJ/mol
# Density = 1.393134 g / cm^3
# Si number density = 13.963125 Si / 1000 Ang^3
#
#
#
# Elastic Constant Matrix: (Units=GPa)
#
#
# Indices 1 2 3 4 5 6 
#
# 1 126.7889 64.6315 27.5195 0.0000 0.0000 0.0000
# 2 64.6315 69.6257 17.6862 0.0000 0.0000 0.0000
# 3 27.5195 17.6862 25.5644 0.0000 0.0000 0.0000
# 4 0.0000 0.0000 0.0000 -10.0278 0.0000 0.0000
# 5 0.0000 0.0000 0.0000 0.0000 21.5585 0.0000
# 6 0.0000 0.0000 0.0000 0.0000 0.0000 14.7313
#
#
#
# Elastic Compliance Matrix: (Units=1/GPa)
#
#
# Indices 1 2 3 4 5 6 
#
# 1 0.016408 -0.013036 -0.008645 0.000000 0.000000 0.000000
# 2 -0.013036 0.027781 -0.005187 0.000000 0.000000 0.000000
# 3 -0.008645 -0.005187 0.052011 0.000000 0.000000 0.000000
# 4 0.000000 0.000000 0.000000 -0.099723 0.000000 0.000000
# 5 0.000000 0.000000 0.000000 0.000000 0.046386 0.000000
# 6 0.000000 0.000000 0.000000 0.000000 0.000000 0.067882
#
#
# Mechanical properties :
#
#
# Convention : Reuss Voigt Hill
#
# Bulk Modulus (GPa) = 23.54847 49.07262 36.31054
# Shear Modulus (GPa) = 27.98992 12.72852 20.35922
#
# Velocity S-wave (km/s) = 4.48209 3.02252 3.82261
# Velocity P-wave (km/s) = 6.60960 6.88488 6.74864
#
# Compressibility (1/GPa) = 0.04246561
#
# Stress axis : x y z
#
# Youngs Moduli (GPa) = 60.94407 35.99637 19.22652
#
# Poissons Ratio (x) = 0.46923 0.16621
# Poissons Ratio (y) = 0.79444 0.09973
# Poissons Ratio (z) = 0.52686 0.18671
#
# Static dielectric constant tensor:
#      x y z
#    x 1.475850 0.000000 0.000000 
#    y 0.000000 1.444490 0.000000 
#    z 0.000000 0.000000 1.477140 
# 
# From -- ./inp_files/14537.got.cif
#   From: 2010.05.17/outbox.cif.g08.bks.cpg/sg65_8_cif.got.tgz:14537.got - 2010.06.03 17:01:31.
