data_PCOD9482509
_publ_section_title
;
Structure prediction by ZEFSAII (Michael W. Deem and Ramdas Pophale) SiO2 
 PCOD9482509
Probable space group: C M C A
;
_chemical_formula_sum "Si O2"
_cell_formula_units_Z 32
_cell_length_a 24.000000
_cell_length_b 9.000000
_cell_length_c 15.000000
_cell_angle_alpha 90.000000
_cell_angle_beta 90.000000
_cell_angle_gamma 90.000000
_cell_volume 3240.000000
_symmetry_space_group_name_H-M "C M C A"
_symmetry_group_IT_number 64
_symmetry_cell_setting 'orthorhombic'
loop_
_space_group_symop_operation_xyz
x,y,z
-x,1/2-y,1/2+z
x,-y,-z
-x,1/2+y,1/2-z
-x,-y,-z
x,1/2+y,1/2-z
-x,y,z
x,1/2-y,1/2+z
1/2+x,1/2+y,z
1/2-x,-y,1/2+z
1/2+x,1/2-y,-z
1/2-x,y,1/2-z
1/2-x,1/2-y,-z
1/2+x,y,1/2-z
1/2-x,1/2+y,z
1/2+x,-y,1/2+z
loop_
_atom_site_type_symbol
_atom_site_label
_atom_site_fract_x
_atom_site_fract_y
_atom_site_fract_z
Si Si1 0.500000 0.368835 0.326610
Si Si2 0.118346 0.658373 0.551128
Si Si3 0.000000 0.228009 0.367600
Si Si4 0.373167 0.720658 0.636231
Si Si5 0.317226 0.479784 0.219989
O O1 0.500000 0.548032 0.347459
O O2 0.500000 0.327092 0.222210
O O3 0.441184 0.295722 0.360016
O O4 0.108473 0.500000 0.500000
O O5 0.140791 0.761085 0.469217
O O6 0.161292 0.625313 0.634797
O O7 0.058687 0.725456 0.584507
O O8 0.348695 0.581566 0.691864
O O9 0.344310 0.862081 0.688022
O O10 0.250000 0.484729 0.250000
#
# Coordination Sequence:
#
# PCOD9482509 Si02
#       5
#     8  16   8  16  16
#     4  12  25  41  75 102 141 182 233 295 356 421
#     4  10  24  42  70 102 145 188 227 286 362 417
#     4  12  24  43  70 109 147 183 229 292 363 418
#     4  11  24  45  69 100 139 183 233 290 356 416
#     4  11  24  45  69  97 136 187 237 288 345 417
#
# _framework density 9.8765429999999999
#
# number of rings (size 3 to 8) (size 9 to 14) (size 15 to 20)
#    0.000    1.000    2.500    3.375    3.500    3.000 
#    0.000    2.500    0.000    0.000    0.000    0.000 
#    0.000    0.000    0.000    0.000    0.000    0.000 
#
# Total GULP energy -178444.910576 kJ/mol
# GULP energy per Si atom -5576.403455 kJ/mol
# Density = 0.985406 g / cm^3
# Si number density = 9.876543 Si / 1000 Ang^3
#
#
#
# Elastic Constant Matrix: (Units=GPa)
#
#
# Indices 1 2 3 4 5 6 
#
# 1 174.0248 35.4130 42.5235 0.0000 0.0000 0.0000
# 2 35.4130 74.7774 33.9768 0.0000 0.0000 0.0000
# 3 42.5235 33.9768 131.8356 0.0000 0.0000 0.0000
# 4 0.0000 0.0000 0.0000 39.9104 0.0000 0.0000
# 5 0.0000 0.0000 0.0000 0.0000 44.5726 0.0000
# 6 0.0000 0.0000 0.0000 0.0000 0.0000 35.9463
#
#
#
# Elastic Compliance Matrix: (Units=1/GPa)
#
#
# Indices 1 2 3 4 5 6 
#
# 1 0.006612 -0.002449 -0.001501 0.000000 0.000000 0.000000
# 2 -0.002449 0.016054 -0.003348 0.000000 0.000000 0.000000
# 3 -0.001501 -0.003348 0.008932 0.000000 0.000000 0.000000
# 4 0.000000 0.000000 0.000000 0.025056 0.000000 0.000000
# 5 0.000000 0.000000 0.000000 0.000000 0.022435 0.000000
# 6 0.000000 0.000000 0.000000 0.000000 0.000000 0.027819
#
#
# Mechanical properties :
#
#
# Convention : Reuss Voigt Hill
#
# Bulk Modulus (GPa) = 58.81694 67.16269 62.98982
# Shear Modulus (GPa) = 39.31712 42.00084 40.65898
#
# Velocity S-wave (km/s) = 4.46626 4.61618 4.54184
# Velocity P-wave (km/s) = 7.51248 7.90487 7.71117
#
# Compressibility (1/GPa) = 0.01700191
#
# Stress axis : x y z
#
# Youngs Moduli (GPa) = 151.25131 62.29065 111.95442
#
# Poissons Ratio (x) = 0.15254 0.16809
# Poissons Ratio (y) = 0.37039 0.37477
# Poissons Ratio (z) = 0.22709 0.20852
#
# Static dielectric constant tensor:
#      x y z
#    x 1.700090 0.000000 0.000000 
#    y 0.000000 1.751580 0.000000 
#    z 0.000000 0.000000 1.730670 
# 
# From -- ./inp_files/26956.got.cif
#   From: 2010.05.17/outbox.ucp.g08.bks.cvg/sg64_14_cif.got.tgz:26956.got - 2010.06.11 16:36:46.
