data_PCOD9482694
_publ_section_title
;
Structure prediction by ZEFSAII (Michael W. Deem and Ramdas Pophale) SiO2 
 PCOD9482694
Probable space group: C M M M
;
_chemical_formula_sum "Si O2"
_cell_formula_units_Z 88
_cell_length_a 20.274167
_cell_length_b 14.340643
_cell_length_c 14.507282
_cell_angle_alpha 90.000000
_cell_angle_beta 90.000000
_cell_angle_gamma 90.000000
_cell_volume 4217.913773
_symmetry_space_group_name_H-M "C M M M"
_symmetry_group_IT_number 65
_symmetry_cell_setting 'orthorhombic'
loop_
_space_group_symop_operation_xyz
x,y,z
-x,-y,z
x,-y,-z
-x,y,-z
-x,-y,-z
x,y,-z
-x,y,z
x,-y,z
1/2+x,1/2+y,z
1/2-x,1/2-y,z
1/2+x,1/2-y,-z
1/2-x,1/2+y,-z
1/2-x,1/2-y,-z
1/2+x,1/2+y,-z
1/2-x,1/2+y,z
1/2+x,1/2-y,z
loop_
_atom_site_type_symbol
_atom_site_label
_atom_site_fract_x
_atom_site_fract_y
_atom_site_fract_z
Si Si1 0.739370 0.638371 0.198117
Si Si2 0.806298 0.169419 0.000000
Si Si3 0.303878 0.666234 0.602576
Si Si4 0.392061 0.103140 0.188807
Si Si5 0.425895 0.188897 0.000000
Si Si6 0.076601 0.500000 0.608754
Si Si7 0.076323 0.294103 0.646731
O O1 0.750000 0.750000 0.199975
O O2 0.707894 0.614883 0.298650
O O3 0.813389 0.601130 0.194316
O O4 0.703699 0.618313 0.099544
O O5 0.750000 0.250000 0.000000
O O6 0.874320 0.226212 0.000000
O O7 0.298750 0.620683 0.500000
O O8 0.250000 0.750000 0.601678
O O9 0.375656 0.715316 0.610492
O O10 0.419992 0.192935 0.243488
O O11 0.415639 0.000000 0.219936
O O12 0.413226 0.122751 0.086293
O O13 0.500000 0.224431 0.000000
O O14 0.073575 0.500000 0.500000
O O15 0.106245 0.397382 0.626291
O O16 0.000000 0.500000 0.638115
O O17 0.000000 0.287509 0.616446
#
# Coordination Sequence:
#
# PCOD9482694 Si02
#       7
#    16   8  16  16   8   8  16
#     4  10  17  34  56  71  92 137 179 215 261 298
#     4  10  16  34  60  71  93 137 178 216 254 302
#     4  10  19  32  51  70  92 128 175 222 265 297
#     4  12  22  34  49  74 107 144 181 212 249 307
#     4  12  23  33  50  80 110 143 176 210 253 305
#     4   9  18  30  42  59  91 133 166 191 230 287
#     4  11  20  31  47  69 100 138 173 208 250 306
#
# _framework density 20.863394
#
# number of rings (size 3 to 8) (size 9 to 14) (size 15 to 20)
#    0.000    1.364    8.182    1.364    0.000    2.545 
#    0.000    0.000    0.000    0.000    0.000    0.000 
#    0.000    3.636    0.000    1.636    1.091    0.000 
#
# Total GULP energy -244990.007170 kJ/mol
# GULP energy per Si atom -5567.954708 kJ/mol
# Density = 2.081591 g / cm^3
# Si number density = 20.863394 Si / 1000 Ang^3
#
#
#
# Elastic Constant Matrix: (Units=GPa)
#
#
# Indices 1 2 3 4 5 6 
#
# 1 129.7236 17.3581 29.8590 0.0000 0.0000 0.0000
# 2 17.3581 31.5614 9.7213 0.0000 0.0000 0.0000
# 3 29.8590 9.7213 148.6756 0.0000 0.0000 0.0000
# 4 0.0000 0.0000 0.0000 -8.7438 0.0000 0.0000
# 5 0.0000 0.0000 0.0000 0.0000 66.6146 0.0000
# 6 0.0000 0.0000 0.0000 0.0000 0.0000 -2.4844
#
#
#
# Elastic Compliance Matrix: (Units=1/GPa)
#
#
# Indices 1 2 3 4 5 6 
#
# 1 0.008617 -0.004292 -0.001450 0.000000 0.000000 0.000000
# 2 -0.004292 0.034474 -0.001392 0.000000 0.000000 0.000000
# 3 -0.001450 -0.001392 0.007108 0.000000 0.000000 0.000000
# 4 0.000000 0.000000 0.000000 -0.114367 0.000000 0.000000
# 5 0.000000 0.000000 0.000000 0.000000 0.015012 0.000000
# 6 0.000000 0.000000 0.000000 0.000000 0.000000 -0.402516
#
#
# Mechanical properties :
#
#
# Convention : Reuss Voigt Hill
#
# Bulk Modulus (GPa) = 27.83181 47.09304 37.46243
# Shear Modulus (GPa) = -11.75290 27.94543 8.09626
#
# Velocity S-wave (km/s) = -2.37602 3.66382 1.97206
# Velocity P-wave (km/s) = 2.41695 6.36547 4.81460
#
# Compressibility (1/GPa) = 0.03593011
#
# Stress axis : x y z
#
# Youngs Moduli (GPa) = 116.05252 29.00752 140.68148
#
# Poissons Ratio (x) = 0.12451 0.20397
# Poissons Ratio (y) = 0.49815 0.19583
# Poissons Ratio (z) = 0.16826 0.04038
#
# Static dielectric constant tensor:
#      x y z
#    x 1.740700 0.000000 0.000000 
#    y 0.000000 1.817450 0.000000 
#    z 0.000000 0.000000 1.960600 
# 
# From -- ./inp_files/42597.got.cif
#   From: 2010.05.17/outbox.cif.g08.bks.cpg/sg65_22_cif.got.tgz:42597.got - 2010.06.03 17:01:31.
