data_PCOD9482098
_publ_section_title
;
Structure prediction by ZEFSAII (Michael W. Deem and Ramdas Pophale) SiO2 
 PCOD9482098
Probable space group: C M C A
;
_chemical_formula_sum "Si O2"
_cell_formula_units_Z 56
_cell_length_a 23.166264
_cell_length_b 13.549154
_cell_length_c 8.105926
_cell_angle_alpha 90.000000
_cell_angle_beta 90.000000
_cell_angle_gamma 90.000000
_cell_volume 2544.314628
_symmetry_space_group_name_H-M "C M C A"
_symmetry_group_IT_number 64
_symmetry_cell_setting 'orthorhombic'
loop_
_space_group_symop_operation_xyz
x,y,z
-x,1/2-y,1/2+z
x,-y,-z
-x,1/2+y,1/2-z
-x,-y,-z
x,1/2+y,1/2-z
-x,y,z
x,1/2-y,1/2+z
1/2+x,1/2+y,z
1/2-x,-y,1/2+z
1/2+x,1/2-y,-z
1/2-x,y,1/2-z
1/2-x,1/2-y,-z
1/2+x,y,1/2-z
1/2-x,1/2+y,z
1/2+x,-y,1/2+z
loop_
_atom_site_type_symbol
_atom_site_label
_atom_site_fract_x
_atom_site_fract_y
_atom_site_fract_z
Si Si1 0.935682 0.482139 0.200284
Si Si2 0.763286 0.000000 0.000000
Si Si3 0.834649 0.646679 0.906735
Si Si4 0.851567 0.869133 0.796673
O O1 0.883909 0.403019 0.207098
O O2 0.913714 0.575818 0.308056
O O3 0.000000 0.451115 0.249779
O O4 0.938446 0.500000 0.000000
O O5 0.723011 0.919354 0.092112
O O6 0.804194 0.060098 0.123094
O O7 0.836445 0.761438 0.864364
O O8 0.848110 0.638792 0.100176
#
# Coordination Sequence:
#
# PCOD9482098 Si02
#       4
#    16   8  16  16
#     4   9  20  44  68  92 130 173 223 277 331 394
#     4  12  24  42  64  98 144 178 222 272 340 408
#     4  11  24  42  68  98 133 177 225 275 342 396
#     4  11  25  41  68 100 133 180 221 281 336 404
#
# _framework density 22.009855999999999
#
# number of rings (size 3 to 8) (size 9 to 14) (size 15 to 20)
#    0.000    1.429    4.286    1.714    4.000    1.143 
#    0.000    0.714    0.000    0.000    0.000    0.000 
#    0.000    0.000    0.000    0.000    0.000    0.000 
#
# Total GULP energy -156136.816631 kJ/mol
# GULP energy per Si atom -5576.314880 kJ/mol
# Density = 2.195976 g / cm^3
# Si number density = 22.009856 Si / 1000 Ang^3
#
#
#
# Elastic Constant Matrix: (Units=GPa)
#
#
# Indices 1 2 3 4 5 6 
#
# 1 161.4225 80.2353 43.8313 0.0000 0.0000 0.0000
# 2 80.2353 156.8593 43.7535 0.0000 0.0000 0.0000
# 3 43.8313 43.7535 47.8417 0.0000 0.0000 0.0000
# 4 0.0000 0.0000 0.0000 50.2414 0.0000 0.0000
# 5 0.0000 0.0000 0.0000 0.0000 11.3826 0.0000
# 6 0.0000 0.0000 0.0000 0.0000 0.0000 21.1429
#
#
#
# Elastic Compliance Matrix: (Units=1/GPa)
#
#
# Indices 1 2 3 4 5 6 
#
# 1 0.009305 -0.003197 -0.005601 0.000000 0.000000 0.000000
# 2 -0.003197 0.009657 -0.005902 0.000000 0.000000 0.000000
# 3 -0.005601 -0.005902 0.031432 0.000000 0.000000 0.000000
# 4 0.000000 0.000000 0.000000 0.019904 0.000000 0.000000
# 5 0.000000 0.000000 0.000000 0.000000 0.087853 0.000000
# 6 0.000000 0.000000 0.000000 0.000000 0.000000 0.047297
#
#
# Mechanical properties :
#
#
# Convention : Reuss Voigt Hill
#
# Bulk Modulus (GPa) = 47.63639 77.97376 62.80507
# Shear Modulus (GPa) = 20.67423 29.77361 25.22392
#
# Velocity S-wave (km/s) = 3.06815 3.68195 3.38898
# Velocity P-wave (km/s) = 5.85163 7.31979 6.62650
#
# Compressibility (1/GPa) = 0.02099235
#
# Stress axis : x y z
#
# Youngs Moduli (GPa) = 107.46952 103.55165 31.81500
#
# Poissons Ratio (x) = 0.33109 0.17819
# Poissons Ratio (y) = 0.34361 0.18779
# Poissons Ratio (z) = 0.60192 0.61121
#
# Static dielectric constant tensor:
#      x y z
#    x 1.832140 0.000000 0.000000 
#    y 0.000000 1.889650 0.000000 
#    z 0.000000 0.000000 1.852970 
# 
# From -- ./inp_files/7612.got.cif
#   From: 2010.05.17/outbox.cif.g08.bks.cpg/sg64_4_cif.got.tgz:7612.got - 2010.06.03 16:29:19.
