data_PCOD9482402
_publ_section_title
;
Structure prediction by ZEFSAII (Michael W. Deem and Ramdas Pophale) SiO2 
 PCOD9482402
Probable space group: C M C A
;
_chemical_formula_sum "Si O2"
_cell_formula_units_Z 40
_cell_length_a 9.000000
_cell_length_b 27.000000
_cell_length_c 18.000000
_cell_angle_alpha 90.000000
_cell_angle_beta 90.000000
_cell_angle_gamma 90.000000
_cell_volume 4374.000000
_symmetry_space_group_name_H-M "C M C A"
_symmetry_group_IT_number 64
_symmetry_cell_setting 'orthorhombic'
loop_
_space_group_symop_operation_xyz
x,y,z
-x,1/2-y,1/2+z
x,-y,-z
-x,1/2+y,1/2-z
-x,-y,-z
x,1/2+y,1/2-z
-x,y,z
x,1/2-y,1/2+z
1/2+x,1/2+y,z
1/2-x,-y,1/2+z
1/2+x,1/2-y,-z
1/2-x,y,1/2-z
1/2-x,1/2-y,-z
1/2+x,y,1/2-z
1/2-x,1/2+y,z
1/2+x,-y,1/2+z
loop_
_atom_site_type_symbol
_atom_site_label
_atom_site_fract_x
_atom_site_fract_y
_atom_site_fract_z
Si Si1 0.323547 0.853244 0.168934
Si Si2 0.673225 0.943193 0.412515
Si Si3 0.321650 0.255900 0.832517
Si Si4 0.174019 0.054414 0.091036
Si Si5 0.676922 0.645873 0.331645
O O1 0.500000 0.855637 0.177773
O O2 0.250000 0.856326 0.250000
O O3 0.266229 0.898722 0.120900
O O4 0.289258 0.798640 0.135250
O O5 0.500000 0.936576 0.392250
O O6 0.681996 0.942978 0.501776
O O7 0.718233 0.998437 0.386818
O O8 0.500000 0.262377 0.827992
O O9 0.250000 0.253896 0.750000
O O10 0.246787 0.304313 0.867786
O O11 0.274267 0.096910 0.125282
O O12 0.000000 0.061742 0.111810
O O13 0.500000 0.650505 0.326177
O O14 0.750000 0.642027 0.250000
#
# Coordination Sequence:
#
# PCOD9482402 Si02
#       5
#    16  16  16  16  16
#     4  10  20  33  53  79 106 135 170 210 253 300
#     4   9  19  36  57  76 100 135 171 209 257 305
#     4   9  17  31  50  73 102 135 167 205 252 301
#     4   9  19  37  56  75 101 135 171 209 256 307
#     4  11  21  33  53  79 104 134 170 211 254 299
#
# _framework density 9.1449470000000002
#
# number of rings (size 3 to 8) (size 9 to 14) (size 15 to 20)
#    0.000    2.400    0.000    5.400    0.000    4.800 
#    0.000    3.000    0.000    0.000    0.000    0.000 
#    0.000    0.000    0.000    0.000    0.000    0.000 
#
# Total GULP energy -222997.966300 kJ/mol
# GULP energy per Si atom -5574.949157 kJ/mol
# Density = 0.912413 g / cm^3
# Si number density = 9.144947 Si / 1000 Ang^3
#
#
#
# Elastic Constant Matrix: (Units=GPa)
#
#
# Indices 1 2 3 4 5 6 
#
# 1 111.1392 93.1001 23.7747 0.0000 0.0000 0.0000
# 2 93.1001 188.4944 36.6846 0.0000 0.0000 0.0000
# 3 23.7747 36.6846 14.6617 0.0000 0.0000 0.0000
# 4 0.0000 0.0000 0.0000 48.2975 0.0000 0.0000
# 5 0.0000 0.0000 0.0000 0.0000 22.3975 0.0000
# 6 0.0000 0.0000 0.0000 0.0000 0.0000 29.7808
#
#
#
# Elastic Compliance Matrix: (Units=1/GPa)
#
#
# Indices 1 2 3 4 5 6 
#
# 1 0.016419 -0.005707 -0.012345 0.000000 0.000000 0.000000
# 2 -0.005707 0.012324 -0.021582 0.000000 0.000000 0.000000
# 3 -0.012345 -0.021582 0.142222 0.000000 0.000000 0.000000
# 4 0.000000 0.000000 0.000000 0.020705 0.000000 0.000000
# 5 0.000000 0.000000 0.000000 0.000000 0.044648 0.000000
# 6 0.000000 0.000000 0.000000 0.000000 0.000000 0.033579
#
#
# Mechanical properties :
#
#
# Convention : Reuss Voigt Hill
#
# Bulk Modulus (GPa) = 10.90537 69.04599 39.97568
# Shear Modulus (GPa) = 13.16719 30.81087 21.98903
#
# Velocity S-wave (km/s) = 2.68604 4.10882 3.47111
# Velocity P-wave (km/s) = 3.94907 7.76806 6.16190
#
# Compressibility (1/GPa) = 0.09169792
#
# Stress axis : x y z
#
# Youngs Moduli (GPa) = 60.90350 81.14057 7.03124
#
# Poissons Ratio (x) = 0.46308 0.08680
# Poissons Ratio (y) = 0.34759 0.15175
# Poissons Ratio (z) = 0.75186 1.75116
#
# Static dielectric constant tensor:
#      x y z
#    x 1.610400 0.000000 0.000000 
#    y 0.000000 1.677170 0.000000 
#    z 0.000000 0.000000 1.610310 
# 
# From -- ./inp_files/29757.got.cif
#   From: 2010.05.17/outbox.ucp.g08.bks.cvg/sg64_15_cif.got.tgz:29757.got - 2010.06.11 16:36:46.
