data_PCOD9482316
_publ_section_title
;
Structure prediction by ZEFSAII (Michael W. Deem and Ramdas Pophale) SiO2 
 PCOD9482316
Probable space group: C M C A
;
_chemical_formula_sum "Si O2"
_cell_formula_units_Z 80
_cell_length_a 9.404845
_cell_length_b 9.487703
_cell_length_c 28.293721
_cell_angle_alpha 90.000000
_cell_angle_beta 90.000000
_cell_angle_gamma 90.000000
_cell_volume 2524.659367
_symmetry_space_group_name_H-M "C M C A"
_symmetry_group_IT_number 64
_symmetry_cell_setting 'orthorhombic'
loop_
_space_group_symop_operation_xyz
x,y,z
-x,1/2-y,1/2+z
x,-y,-z
-x,1/2+y,1/2-z
-x,-y,-z
x,1/2+y,1/2-z
-x,y,z
x,1/2-y,1/2+z
1/2+x,1/2+y,z
1/2-x,-y,1/2+z
1/2+x,1/2-y,-z
1/2-x,y,1/2-z
1/2-x,1/2-y,-z
1/2+x,y,1/2-z
1/2-x,1/2+y,z
1/2+x,-y,1/2+z
loop_
_atom_site_type_symbol
_atom_site_label
_atom_site_fract_x
_atom_site_fract_y
_atom_site_fract_z
Si Si1 0.000000 0.129179 0.627796
Si Si2 0.767719 0.788569 0.696074
Si Si3 0.000000 0.726437 0.973343
Si Si4 0.000000 0.675766 0.573043
Si Si5 0.240700 0.000000 0.500000
Si Si6 0.500000 0.009809 0.776632
Si Si7 0.757046 0.901882 0.600324
Si Si8 0.000000 0.435584 0.331359
O O1 0.000000 0.143744 0.686667
O O2 0.000000 0.237612 0.583565
O O3 0.136163 0.028595 0.616077
O O4 0.750000 0.734015 0.750000
O O5 0.682229 0.847634 0.649708
O O6 0.863842 0.665726 0.675506
O O7 0.863793 0.923418 0.707742
O O8 0.863793 0.627570 0.984806
O O9 0.000000 0.838350 0.016386
O O10 0.864190 0.775343 0.585173
O O11 0.000000 0.551342 0.611891
O O12 0.307586 0.949608 0.549832
O O13 0.500000 0.991236 0.720058
#
# Coordination Sequence:
#
# PCOD9482316 Si02
#       8
#     8  16   8   8   8   8  16   8
#     4   7  10  17  30  50  75  98 120 151 192 234
#     4   9  17  28  41  59  83 108 134 164 196 232
#     4   7   8  12  26  48  72  95 116 144 190 239
#     4   7  10  17  30  50  75  98 120 151 192 234
#     4   7   8  12  26  48  72  95 116 144 190 239
#     4   9  17  28  41  59  83 108 134 164 196 232
#     4   7  10  17  30  50  75  98 120 151 192 234
#     4   9  17  28  41  59  83 108 134 164 196 232
#
# _framework density 31.687443999999999
#
# number of rings (size 3 to 8) (size 9 to 14) (size 15 to 20)
#    0.000    4.200    0.000    4.800    0.000    0.800 
#    0.000    0.000    0.000    0.000    0.000    2.800 
#    0.000   19.200    0.000    0.000    0.000    0.000 
#
# Total GULP energy -223565.059409 kJ/mol
# GULP energy per Si atom -5589.126485 kJ/mol
# Density = 3.161532 g / cm^3
# Si number density = 31.687444 Si / 1000 Ang^3
#
#
#
# Elastic Constant Matrix: (Units=GPa)
#
#
# Indices 1 2 3 4 5 6 
#
# 1 56.1158 27.5841 108.5226 0.0000 0.0000 0.0000
# 2 27.5841 86.5879 61.5050 0.0000 0.0000 0.0000
# 3 108.5226 61.5050 462.8161 0.0000 0.0000 0.0000
# 4 0.0000 0.0000 0.0000 89.6616 0.0000 0.0000
# 5 0.0000 0.0000 0.0000 0.0000 109.1570 0.0000
# 6 0.0000 0.0000 0.0000 0.0000 0.0000 56.7007
#
#
#
# Elastic Compliance Matrix: (Units=1/GPa)
#
#
# Indices 1 2 3 4 5 6 
#
# 1 0.035137 -0.005898 -0.007455 0.000000 0.000000 0.000000
# 2 -0.005898 0.013743 -0.000443 0.000000 0.000000 0.000000
# 3 -0.007455 -0.000443 0.003968 0.000000 0.000000 0.000000
# 4 0.000000 0.000000 0.000000 0.011153 0.000000 0.000000
# 5 0.000000 0.000000 0.000000 0.000000 0.009161 0.000000
# 6 0.000000 0.000000 0.000000 0.000000 0.000000 0.017636
#
#
# Mechanical properties :
#
#
# Convention : Reuss Voigt Hill
#
# Bulk Modulus (GPa) = 39.59670 111.19369 75.39520
# Shear Modulus (GPa) = 39.42904 78.29773 58.86338
#
# Velocity S-wave (km/s) = 3.53131 4.97625 4.31469
# Velocity P-wave (km/s) = 5.39907 8.25738 6.97618
#
# Compressibility (1/GPa) = 0.02525463
#
# Stress axis : x y z
#
# Youngs Moduli (GPa) = 28.45970 72.76550 252.03176
#
# Poissons Ratio (x) = 0.42917 1.87898
# Poissons Ratio (y) = 0.16785 0.11174
# Poissons Ratio (z) = 0.21218 0.03226
#
# Static dielectric constant tensor:
#      x y z
#    x 2.539890 0.000000 0.000000 
#    y 0.000000 2.484450 0.000000 
#    z 0.000000 0.000000 2.506940 
# 
# From -- ./inp_files/45705.got.cif
#   From: 2010.05.17/outbox.cif.g08.bks.cpg/sg64_23_cif.got.tgz:45705.got - 2010.06.03 16:29:19.
