data_PCOD9482853
_publ_section_title
;
Structure prediction by ZEFSAII (Michael W. Deem and Ramdas Pophale) SiO2 
 PCOD9482853
Probable space group: C M M M
;
_chemical_formula_sum "Si O2"
_cell_formula_units_Z 72
_cell_length_a 28.209384
_cell_length_b 10.460908
_cell_length_c 17.148628
_cell_angle_alpha 90.000000
_cell_angle_beta 90.000000
_cell_angle_gamma 90.000000
_cell_volume 5060.487597
_symmetry_space_group_name_H-M "C M M M"
_symmetry_group_IT_number 65
_symmetry_cell_setting 'orthorhombic'
loop_
_space_group_symop_operation_xyz
x,y,z
-x,-y,z
x,-y,-z
-x,y,-z
-x,-y,-z
x,y,-z
-x,y,z
x,-y,z
1/2+x,1/2+y,z
1/2-x,1/2-y,z
1/2+x,1/2-y,-z
1/2-x,1/2+y,-z
1/2-x,1/2-y,-z
1/2+x,1/2+y,-z
1/2-x,1/2+y,z
1/2+x,1/2-y,z
loop_
_atom_site_type_symbol
_atom_site_label
_atom_site_fract_x
_atom_site_fract_y
_atom_site_fract_z
Si Si1 0.790859 0.647733 0.407533
Si Si2 0.942706 0.500000 0.088000
Si Si3 0.054170 0.344850 0.500000
Si Si4 0.942607 0.251334 0.812116
Si Si5 0.606257 0.846849 0.341061
Si Si6 0.942569 0.000000 0.089961
O O1 0.803384 0.659172 0.500000
O O2 0.775440 0.500000 0.395975
O O3 0.750000 0.750000 0.390892
O O4 0.837915 0.669627 0.356781
O O5 0.929973 0.626466 0.135061
O O6 0.000000 0.500000 0.083517
O O7 0.924193 0.500000 0.000000
O O8 0.054581 0.500000 0.500000
O O9 0.080335 0.306807 0.420959
O O10 0.000000 0.301595 0.500000
O O11 0.915542 0.270164 0.730942
O O12 0.000000 0.251378 0.799325
O O13 0.929586 0.125362 0.860808
O O14 0.597532 0.000000 0.329071
O O15 0.000000 0.000000 0.085546
O O16 0.925503 0.000000 0.000000
#
# Coordination Sequence:
#
# PCOD9482853 Si02
#       6
#    16   8   8  16  16   8
#     4   9  17  31  49  67  89 117 153 194 236 274
#     4   9  16  26  42  65  90 117 150 189 230 267
#     4   9  16  24  39  63  93 129 159 183 212 263
#     4  10  18  28  44  66  94 125 155 191 226 267
#     4  10  17  28  44  67  95 122 155 190 230 267
#     4   9  18  32  46  61  88 129 164 187 226 277
#
# _framework density 14.227879
#
# number of rings (size 3 to 8) (size 9 to 14) (size 15 to 20)
#    0.000    2.556    2.222    1.333    0.000    3.556 
#    2.000    0.000    0.000    0.667    0.000    3.111 
#    0.000    5.333    0.000    0.000    0.000    0.000 
#
# Total GULP energy -200496.570284 kJ/mol
# GULP energy per Si atom -5569.349175 kJ/mol
# Density = 1.419550 g / cm^3
# Si number density = 14.227879 Si / 1000 Ang^3
#
#
#
# Elastic Constant Matrix: (Units=GPa)
#
#
# Indices 1 2 3 4 5 6 
#
# 1 59.4227 44.4297 48.4318 0.0000 0.0000 0.0000
# 2 44.4297 106.3016 70.8230 0.0000 0.0000 0.0000
# 3 48.4318 70.8230 137.3326 0.0000 0.0000 0.0000
# 4 0.0000 0.0000 0.0000 16.8503 0.0000 0.0000
# 5 0.0000 0.0000 0.0000 0.0000 5.0612 0.0000
# 6 0.0000 0.0000 0.0000 0.0000 0.0000 12.0959
#
#
#
# Elastic Compliance Matrix: (Units=1/GPa)
#
#
# Indices 1 2 3 4 5 6 
#
# 1 0.027086 -0.007551 -0.005658 0.000000 0.000000 0.000000
# 2 -0.007551 0.016436 -0.005813 0.000000 0.000000 0.000000
# 3 -0.005658 -0.005813 0.012275 0.000000 0.000000 0.000000
# 4 0.000000 0.000000 0.000000 0.059346 0.000000 0.000000
# 5 0.000000 0.000000 0.000000 0.000000 0.197580 0.000000
# 6 0.000000 0.000000 0.000000 0.000000 0.000000 0.082672
#
#
# Mechanical properties :
#
#
# Convention : Reuss Voigt Hill
#
# Bulk Modulus (GPa) = 56.33080 70.04731 63.18906
# Shear Modulus (GPa) = 11.38023 16.09299 13.73661
#
# Velocity S-wave (km/s) = 2.83124 3.36681 3.11057
# Velocity P-wave (km/s) = 7.09688 8.02828 7.57690
#
# Compressibility (1/GPa) = 0.01775228
#
# Stress axis : x y z
#
# Youngs Moduli (GPa) = 36.91946 60.84064 81.46735
#
# Poissons Ratio (x) = 0.45942 0.46094
# Poissons Ratio (y) = 0.27879 0.47359
# Poissons Ratio (z) = 0.20889 0.35368
#
# Static dielectric constant tensor:
#      x y z
#    x 1.445830 0.000000 0.000000 
#    y 0.000000 1.471950 0.000000 
#    z 0.000000 0.000000 1.465470 
# 
# From -- ./inp_files/57182.got.cif
#   From: 2010.05.17/outbox.cif.g08.bks.cpg/sg65_29_cif.got.tgz:57182.got - 2010.06.03 17:01:31.
