data_PCOD9482846
_publ_section_title
;
Structure prediction by ZEFSAII (Michael W. Deem and Ramdas Pophale) SiO2 
 PCOD9482846
Probable space group: C M M M
;
_chemical_formula_sum "Si O2"
_cell_formula_units_Z 80
_cell_length_a 24.580655
_cell_length_b 27.533992
_cell_length_c 7.522746
_cell_angle_alpha 90.000000
_cell_angle_beta 90.000000
_cell_angle_gamma 90.000000
_cell_volume 5091.421260
_symmetry_space_group_name_H-M "C M M M"
_symmetry_group_IT_number 65
_symmetry_cell_setting 'orthorhombic'
loop_
_space_group_symop_operation_xyz
x,y,z
-x,-y,z
x,-y,-z
-x,y,-z
-x,-y,-z
x,y,-z
-x,y,z
x,-y,z
1/2+x,1/2+y,z
1/2-x,1/2-y,z
1/2+x,1/2-y,-z
1/2-x,1/2+y,-z
1/2-x,1/2-y,-z
1/2+x,1/2+y,-z
1/2-x,1/2+y,z
1/2+x,1/2-y,z
loop_
_atom_site_type_symbol
_atom_site_label
_atom_site_fract_x
_atom_site_fract_y
_atom_site_fract_z
Si Si1 0.187620 0.856359 0.782251
Si Si2 0.117509 0.762879 0.214266
Si Si3 0.000000 0.795197 0.702807
Si Si4 0.712927 0.201097 0.791752
Si Si5 0.500000 0.405047 0.797132
Si Si6 0.115325 0.944474 0.782317
O O1 0.146069 0.813336 0.728612
O O2 0.247741 0.840804 0.718864
O O3 0.162340 0.907266 0.725533
O O4 0.188971 0.855693 0.000000
O O5 0.154901 0.718476 0.282192
O O6 0.054587 0.765180 0.261684
O O7 0.121118 0.762125 0.000000
O O8 0.000000 0.810613 0.500000
O O9 0.000000 0.846594 0.803507
O O10 0.750000 0.250000 0.784436
O O11 0.704442 0.189701 0.000000
O O12 0.556611 0.424470 0.720006
O O13 0.500000 0.423416 0.000000
O O14 0.123081 0.000000 0.728189
O O15 0.115162 0.943097 0.000000
#
# Coordination Sequence:
#
# PCOD9482846 Si02
#       6
#    16  16   8  16   8  16
#     4   8  12  20  36  57  74  88 115 155 187 211
#     4   9  15  26  41  54  68  93 124 150 180 218
#     4  12  22  27  35  53  76  98 123 157 192 218
#     4   7  11  19  35  56  71  84 112 151 183 213
#     4  10  17  28  40  50  68 100 136 161 183 209
#     4   9  15  21  34  57  78  94 120 159 192 212
#
# _framework density 15.712705
#
# number of rings (size 3 to 8) (size 9 to 14) (size 15 to 20)
#    0.000    3.200    2.000    3.600    0.000    1.200 
#    0.000    0.000    0.000    6.600    0.000    0.000 
#    0.000    0.000    0.000    0.900    0.000   24.400 
#
# Total GULP energy -222702.769672 kJ/mol
# GULP energy per Si atom -5567.569242 kJ/mol
# Density = 1.567694 g / cm^3
# Si number density = 15.712705 Si / 1000 Ang^3
#
#
#
# Elastic Constant Matrix: (Units=GPa)
#
#
# Indices 1 2 3 4 5 6 
#
# 1 140.0720 83.3840 2.1300 0.0000 0.0000 0.0000
# 2 83.3840 91.4379 4.0909 0.0000 0.0000 0.0000
# 3 2.1300 4.0909 40.2518 0.0000 0.0000 0.0000
# 4 0.0000 0.0000 0.0000 -13.9100 0.0000 0.0000
# 5 0.0000 0.0000 0.0000 0.0000 -83.4683 0.0000
# 6 0.0000 0.0000 0.0000 0.0000 0.0000 16.6132
#
#
#
# Elastic Compliance Matrix: (Units=1/GPa)
#
#
# Indices 1 2 3 4 5 6 
#
# 1 0.015633 -0.014284 0.000624 0.000000 0.000000 0.000000
# 2 -0.014284 0.024037 -0.001687 0.000000 0.000000 0.000000
# 3 0.000624 -0.001687 0.024982 0.000000 0.000000 0.000000
# 4 0.000000 0.000000 0.000000 -0.071891 0.000000 0.000000
# 5 0.000000 0.000000 0.000000 0.000000 -0.011981 0.000000
# 6 0.000000 0.000000 0.000000 0.000000 0.000000 0.060193
#
#
# Mechanical properties :
#
#
# Convention : Reuss Voigt Hill
#
# Bulk Modulus (GPa) = 29.44691 50.10794 39.77743
# Shear Modulus (GPa) = 60.25097 -4.00922 28.12088
#
# Velocity S-wave (km/s) = 6.19908 -1.59910 4.23506
# Velocity P-wave (km/s) = 8.36778 5.34320 7.02031
#
# Compressibility (1/GPa) = 0.03395943
#
# Stress axis : x y z
#
# Youngs Moduli (GPa) = 63.96871 41.60187 40.02872
#
# Poissons Ratio (x) = 0.59423 -0.02500
# Poissons Ratio (y) = 0.91371 0.06753
# Poissons Ratio (z) = -0.03995 0.07019
#
# Static dielectric constant tensor:
#      x y z
#    x 1.554480 0.000000 0.000000 
#    y 0.000000 1.508000 0.000000 
#    z 0.000000 0.000000 1.580170 
# 
# From -- ./inp_files/12542.got.cif
#   From: 2010.05.17/outbox.cif.g08.bks.cpg/sg65_7_cif.got.tgz:12542.got - 2010.06.03 17:01:31.
