data_PCOD9482630
_publ_section_title
;
Structure prediction by ZEFSAII (Michael W. Deem and Ramdas Pophale) SiO2 
 PCOD9482630
Probable space group: C M M M
;
_chemical_formula_sum "Si O2"
_cell_formula_units_Z 64
_cell_length_a 8.642680
_cell_length_b 18.347220
_cell_length_c 21.599875
_cell_angle_alpha 90.000000
_cell_angle_beta 90.000000
_cell_angle_gamma 90.000000
_cell_volume 3425.073848
_symmetry_space_group_name_H-M "C M M M"
_symmetry_group_IT_number 65
_symmetry_cell_setting 'orthorhombic'
loop_
_space_group_symop_operation_xyz
x,y,z
-x,-y,z
x,-y,-z
-x,y,-z
-x,-y,-z
x,y,-z
-x,y,z
x,-y,z
1/2+x,1/2+y,z
1/2-x,1/2-y,z
1/2+x,1/2-y,-z
1/2-x,1/2+y,-z
1/2-x,1/2-y,-z
1/2+x,1/2+y,-z
1/2-x,1/2+y,z
1/2+x,1/2-y,z
loop_
_atom_site_type_symbol
_atom_site_label
_atom_site_fract_x
_atom_site_fract_y
_atom_site_fract_z
Si Si1 0.316254 0.331270 0.000000
Si Si2 0.313414 0.915572 0.118342
Si Si3 0.315055 0.666960 0.627363
Si Si4 0.314970 0.833262 0.500000
Si Si5 0.685912 0.832100 0.244039
O O1 0.250000 0.250000 0.000000
O O2 0.258468 0.373032 0.939063
O O3 0.500000 0.328120 0.000000
O O4 0.500000 0.912172 0.112665
O O5 0.272556 0.878289 0.183542
O O6 0.266876 0.000000 0.117345
O O7 0.500000 0.668645 0.624866
O O8 0.250000 0.750000 0.628794
O O9 0.247790 0.633357 0.564084
O O10 0.256090 0.635629 0.692484
O O11 0.500000 0.831131 0.500000
O O12 0.250000 0.750000 0.500000
O O13 0.500000 0.828897 0.249992
O O14 0.750000 0.750000 0.236198
#
# Coordination Sequence:
#
# PCOD9482630 Si02
#       5
#     8  16  16   8  16
#     4  12  25  40  61  87 113 143 179 220 265 316
#     4  10  22  40  60  82 111 145 179 219 267 318
#     4  10  17  26  41  64  96 132 170 213 263 314
#     4  10  16  24  38  60  93 130 169 212 261 315
#     4  10  19  32  51  75 103 137 177 218 263 314
#
# _framework density 18.685727
#
# number of rings (size 3 to 8) (size 9 to 14) (size 15 to 20)
#    0.000    1.750    0.000    9.375    0.000    6.000 
#    0.000    0.000    0.000    0.000    0.000    0.875 
#    0.000    7.000    0.000    0.000    0.000    0.000 
#
# Total GULP energy -178656.745947 kJ/mol
# GULP energy per Si atom -5583.023311 kJ/mol
# Density = 1.864320 g / cm^3
# Si number density = 18.685727 Si / 1000 Ang^3
#
#
#
# Elastic Constant Matrix: (Units=GPa)
#
#
# Indices 1 2 3 4 5 6 
#
# 1 118.8846 37.2887 90.7321 0.0000 0.0000 0.0000
# 2 37.2887 83.4400 80.4617 0.0000 0.0000 0.0000
# 3 90.7321 80.4617 238.8811 0.0000 0.0000 0.0000
# 4 0.0000 0.0000 0.0000 -9.8854 0.0000 0.0000
# 5 0.0000 0.0000 0.0000 0.0000 36.2928 0.0000
# 6 0.0000 0.0000 0.0000 0.0000 0.0000 14.9062
#
#
#
# Elastic Compliance Matrix: (Units=1/GPa)
#
#
# Indices 1 2 3 4 5 6 
#
# 1 0.011959 -0.001428 -0.004061 0.000000 0.000000 0.000000
# 2 -0.001428 0.017920 -0.005494 0.000000 0.000000 0.000000
# 3 -0.004061 -0.005494 0.007579 0.000000 0.000000 0.000000
# 4 0.000000 0.000000 0.000000 -0.101159 0.000000 0.000000
# 5 0.000000 0.000000 0.000000 0.000000 0.027554 0.000000
# 6 0.000000 0.000000 0.000000 0.000000 0.000000 0.067086
#
#
# Mechanical properties :
#
#
# Convention : Reuss Voigt Hill
#
# Bulk Modulus (GPa) = 64.54720 95.35231 79.94975
# Shear Modulus (GPa) = 86.10408 23.77761 54.94085
#
# Velocity S-wave (km/s) = 6.79560 3.57108 5.42830
# Velocity P-wave (km/s) = 9.80776 8.25492 9.06465
#
# Compressibility (1/GPa) = 0.01549254
#
# Stress axis : x y z
#
# Youngs Moduli (GPa) = 83.61922 55.80213 131.94084
#
# Poissons Ratio (x) = 0.07969 0.53585
# Poissons Ratio (y) = 0.11942 0.72484
# Poissons Ratio (z) = 0.33960 0.30656
#
# Static dielectric constant tensor:
#      x y z
#    x 1.627210 0.000000 0.000000 
#    y 0.000000 1.624300 0.000000 
#    z 0.000000 0.000000 1.696290 
# 
# From -- ./inp_files/58895.got.cif
#   From: 2010.05.17/outbox.cif.g08.bks.cpg/sg65_30_cif.got.tgz:58895.got - 2010.06.03 17:01:31.
