data_PCOD9482311
_publ_section_title
;
Structure prediction by ZEFSAII (Michael W. Deem and Ramdas Pophale) SiO2 
 PCOD9482311
Probable space group: C M C A
;
_chemical_formula_sum "Si O2"
_cell_formula_units_Z 40
_cell_length_a 17.933534
_cell_length_b 13.372345
_cell_length_c 6.793769
_cell_angle_alpha 90.000000
_cell_angle_beta 90.000000
_cell_angle_gamma 90.000000
_cell_volume 1629.236868
_symmetry_space_group_name_H-M "C M C A"
_symmetry_group_IT_number 64
_symmetry_cell_setting 'orthorhombic'
loop_
_space_group_symop_operation_xyz
x,y,z
-x,1/2-y,1/2+z
x,-y,-z
-x,1/2+y,1/2-z
-x,-y,-z
x,1/2+y,1/2-z
-x,y,z
x,1/2-y,1/2+z
1/2+x,1/2+y,z
1/2-x,-y,1/2+z
1/2+x,1/2-y,-z
1/2-x,y,1/2-z
1/2-x,1/2-y,-z
1/2+x,y,1/2-z
1/2-x,1/2+y,z
1/2+x,-y,1/2+z
loop_
_atom_site_type_symbol
_atom_site_label
_atom_site_fract_x
_atom_site_fract_y
_atom_site_fract_z
Si Si1 0.830003 0.327999 0.225959
Si Si2 0.416165 0.362706 0.648809
Si Si3 0.129904 0.500000 0.500000
O O1 0.750000 0.275202 0.250000
O O2 0.893726 0.246215 0.267621
O O3 0.674210 0.413001 0.109175
O O4 0.855026 0.377652 0.021690
O O5 0.500000 0.363447 0.567596
O O6 0.412779 0.442387 0.825499
#
# Coordination Sequence:
#
# PCOD9482311 Si02
#       3
#    16  16   8
#     4  12  28  48  79 110 156 199 256 313 380 448
#     4  12  27  50  78 113 153 201 255 315 378 451
#     4  12  29  46  82 110 153 200 258 304 387 448
#
# _framework density 24.551369999999999
#
# number of rings (size 3 to 8) (size 9 to 14) (size 15 to 20)
#    0.000    0.000    4.000    4.200    5.600    6.400 
#    0.000    0.000    0.000    0.000    0.000    0.000 
#    0.000    0.000    0.000    0.000    0.000    0.000 
#
# Total GULP energy -111889.163971 kJ/mol
# GULP energy per Si atom -5594.458199 kJ/mol
# Density = 2.449549 g / cm^3
# Si number density = 24.551370 Si / 1000 Ang^3
#
#
#
# Elastic Constant Matrix: (Units=GPa)
#
#
# Indices 1 2 3 4 5 6 
#
# 1 136.1782 4.9146 52.2439 0.0000 0.0000 0.0000
# 2 4.9146 95.4289 25.4311 0.0000 0.0000 0.0000
# 3 52.2439 25.4311 143.9260 0.0000 0.0000 0.0000
# 4 0.0000 0.0000 0.0000 62.2313 0.0000 0.0000
# 5 0.0000 0.0000 0.0000 0.0000 21.9199 0.0000
# 6 0.0000 0.0000 0.0000 0.0000 0.0000 -5.3350
#
#
#
# Elastic Compliance Matrix: (Units=1/GPa)
#
#
# Indices 1 2 3 4 5 6 
#
# 1 0.008546 0.000406 -0.003174 0.000000 0.000000 0.000000
# 2 0.000406 0.011016 -0.002094 0.000000 0.000000 0.000000
# 3 -0.003174 -0.002094 0.008470 0.000000 0.000000 0.000000
# 4 0.000000 0.000000 0.000000 0.016069 0.000000 0.000000
# 5 0.000000 0.000000 0.000000 0.000000 0.045621 0.000000
# 6 0.000000 0.000000 0.000000 0.000000 0.000000 -0.187440
#
#
# Mechanical properties :
#
#
# Convention : Reuss Voigt Hill
#
# Bulk Modulus (GPa) = 54.61942 60.07915 57.34928
# Shear Modulus (GPa) = -61.05665 35.29279 -12.88193
#
# Velocity S-wave (km/s) = -4.99229 3.79556 -2.29310
# Velocity P-wave (km/s) = 3.30685 6.61304 4.04951
#
# Compressibility (1/GPa) = 0.01830851
#
# Stress axis : x y z
#
# Youngs Moduli (GPa) = 117.00926 90.77637 118.06263
#
# Poissons Ratio (x) = -0.03683 0.37472
# Poissons Ratio (y) = -0.04747 0.24719
# Poissons Ratio (z) = 0.37138 0.19006
#
# Static dielectric constant tensor:
#      x y z
#    x 1.920380 0.000000 0.000000 
#    y 0.000000 1.955030 0.000000 
#    z 0.000000 0.000000 2.026610 
# 
# From -- ./inp_files/4849.got.cif
#   From: 2010.05.17/outbox.cif.g08.bks.cpg/sg64_3_cif.got.tgz:4849.got - 2010.06.03 16:29:19.
