data_PCOD9482603
_publ_section_title
;
Structure prediction by ZEFSAII (Michael W. Deem and Ramdas Pophale) SiO2 
 PCOD9482603
Probable space group: C M M M
;
_chemical_formula_sum "Si O2"
_cell_formula_units_Z 96
_cell_length_a 23.924365
_cell_length_b 14.669224
_cell_length_c 15.969252
_cell_angle_alpha 90.000000
_cell_angle_beta 90.000000
_cell_angle_gamma 90.000000
_cell_volume 5604.438840
_symmetry_space_group_name_H-M "C M M M"
_symmetry_group_IT_number 65
_symmetry_cell_setting 'orthorhombic'
loop_
_space_group_symop_operation_xyz
x,y,z
-x,-y,z
x,-y,-z
-x,y,-z
-x,-y,-z
x,y,-z
-x,y,z
x,-y,z
1/2+x,1/2+y,z
1/2-x,1/2-y,z
1/2+x,1/2-y,-z
1/2-x,1/2+y,-z
1/2-x,1/2-y,-z
1/2+x,1/2+y,-z
1/2-x,1/2+y,z
1/2+x,1/2-y,z
loop_
_atom_site_type_symbol
_atom_site_label
_atom_site_fract_x
_atom_site_fract_y
_atom_site_fract_z
Si Si1 0.721536 0.603612 0.184707
Si Si2 0.363087 0.898089 0.000000
Si Si3 0.764878 0.856595 0.000000
Si Si4 0.433093 0.393273 0.596730
Si Si5 0.567440 0.607591 0.094402
Si Si6 0.376990 0.291374 0.748136
Si Si7 0.356151 0.892401 0.184635
O O1 0.707820 0.500000 0.209059
O O2 0.706205 0.617922 0.086646
O O3 0.686741 0.674673 0.238724
O O4 0.788531 0.614448 0.188334
O O5 0.375549 0.859690 0.091450
O O6 0.295593 0.904299 0.000000
O O7 0.386765 0.000000 0.000000
O O8 0.750000 0.750000 0.000000
O O9 0.418794 0.372977 0.500000
O O10 0.500000 0.383010 0.605712
O O11 0.420255 0.500000 0.612324
O O12 0.402174 0.331915 0.663961
O O13 0.500000 0.613744 0.097736
O O14 0.581632 0.500000 0.103231
O O15 0.592002 0.663535 0.171800
O O16 0.584393 0.637459 0.000000
O O17 0.380211 0.182191 0.752829
O O18 0.369727 0.000000 0.195045
#
# Coordination Sequence:
#
# PCOD9482603 Si02
#       7
#    16   8   8  16  16  16  16
#     4  10  19  29  42  66 101 135 169 209 246 281
#     4   8  14  28  42  52  80 132 182 210 231 257
#     4  10  16  24  36  54  88 133 173 203 231 268
#     4   9  19  37  59  81 102 121 149 199 259 310
#     4   9  19  33  45  65 101 132 152 187 246 310
#     4  12  20  28  52  77  95 126 172 206 241 298
#     4   9  19  32  45  66 102 142 175 211 244 273
#
# _framework density 17.129280000000001
#
# number of rings (size 3 to 8) (size 9 to 14) (size 15 to 20)
#    0.000    2.333    0.000    7.250    2.333    1.333 
#    0.000    0.000    0.000    4.500    0.000    4.667 
#    0.000    0.000    0.000    0.000    0.000    0.000 
#
# Total GULP energy -267657.439918 kJ/mol
# GULP energy per Si atom -5576.196665 kJ/mol
# Density = 1.709029 g / cm^3
# Si number density = 17.129280 Si / 1000 Ang^3
#
#
#
# Elastic Constant Matrix: (Units=GPa)
#
#
# Indices 1 2 3 4 5 6 
#
# 1 19.7378 21.1448 31.4434 0.0000 0.0000 0.0000
# 2 21.1448 114.0168 63.6299 0.0000 0.0000 0.0000
# 3 31.4434 63.6299 102.6576 0.0000 0.0000 0.0000
# 4 0.0000 0.0000 0.0000 24.6099 0.0000 0.0000
# 5 0.0000 0.0000 0.0000 0.0000 26.3249 0.0000
# 6 0.0000 0.0000 0.0000 0.0000 0.0000 12.1734
#
#
#
# Elastic Compliance Matrix: (Units=1/GPa)
#
#
# Indices 1 2 3 4 5 6 
#
# 1 0.099303 -0.002204 -0.029050 0.000000 0.000000 0.000000
# 2 -0.002204 0.013458 -0.007666 0.000000 0.000000 0.000000
# 3 -0.029050 -0.007666 0.023391 0.000000 0.000000 0.000000
# 4 0.000000 0.000000 0.000000 0.040634 0.000000 0.000000
# 5 0.000000 0.000000 0.000000 0.000000 0.037987 0.000000
# 6 0.000000 0.000000 0.000000 0.000000 0.000000 0.082146
#
#
# Mechanical properties :
#
#
# Convention : Reuss Voigt Hill
#
# Bulk Modulus (GPa) = 17.14939 52.09425 34.62182
# Shear Modulus (GPa) = 12.68404 20.63460 16.65932
#
# Velocity S-wave (km/s) = 2.72414 3.47456 3.12198
# Velocity P-wave (km/s) = 4.46409 6.82460 5.76642
#
# Compressibility (1/GPa) = 0.05831112
#
# Stress axis : x y z
#
# Youngs Moduli (GPa) = 10.07018 74.30624 42.75206
#
# Poissons Ratio (x) = 0.16378 1.24193
# Poissons Ratio (y) = 0.02220 0.32775
# Poissons Ratio (z) = 0.29254 0.56966
#
# Static dielectric constant tensor:
#      x y z
#    x 1.604550 0.000000 0.000000 
#    y 0.000000 1.529810 0.000000 
#    z 0.000000 0.000000 1.566190 
# 
# From -- ./inp_files/45674.got.cif
#   From: 2010.05.17/outbox.cif.g08.bks.cpg/sg65_23_cif.got.tgz:45674.got - 2010.06.03 17:01:31.
