data_PCOD9482555
_publ_section_title
;
Structure prediction by ZEFSAII (Michael W. Deem and Ramdas Pophale) SiO2 
 PCOD9482555
Probable space group: C M M M
;
_chemical_formula_sum "Si O2"
_cell_formula_units_Z 72
_cell_length_a 8.574521
_cell_length_b 17.498810
_cell_length_c 25.002735
_cell_angle_alpha 90.000000
_cell_angle_beta 90.000000
_cell_angle_gamma 90.000000
_cell_volume 3751.508216
_symmetry_space_group_name_H-M "C M M M"
_symmetry_group_IT_number 65
_symmetry_cell_setting 'orthorhombic'
loop_
_space_group_symop_operation_xyz
x,y,z
-x,-y,z
x,-y,-z
-x,y,-z
-x,-y,-z
x,y,-z
-x,y,z
x,-y,z
1/2+x,1/2+y,z
1/2-x,1/2-y,z
1/2+x,1/2-y,-z
1/2-x,1/2+y,-z
1/2-x,1/2-y,-z
1/2+x,1/2+y,-z
1/2-x,1/2+y,z
1/2+x,1/2-y,z
loop_
_atom_site_type_symbol
_atom_site_label
_atom_site_fract_x
_atom_site_fract_y
_atom_site_fract_z
Si Si1 0.310065 0.413051 0.500000
Si Si2 0.685739 0.337513 0.831564
Si Si3 0.687629 0.336190 0.389359
Si Si4 0.313039 0.162711 0.058445
Si Si5 0.185976 0.662460 0.278802
O O1 0.259346 0.500000 0.500000
O O2 0.500000 0.410639 0.500000
O O3 0.260485 0.374579 0.555360
O O4 0.500000 0.335155 0.829686
O O5 0.750000 0.250000 0.832364
O O6 0.742463 0.372882 0.887676
O O7 0.751404 0.372550 0.776603
O O8 0.500000 0.336304 0.386533
O O9 0.750000 0.250000 0.391421
O O10 0.752888 0.372229 0.334450
O O11 0.500000 0.165002 0.063422
O O12 0.250000 0.250000 0.056769
O O13 0.273823 0.128484 0.000000
O O14 0.250000 0.750000 0.279182
O O15 0.000000 0.664477 0.278290
#
# Coordination Sequence:
#
# PCOD9482555 Si02
#       5
#     8  16  16  16  16
#     4   9  19  34  51  71  94 121 150 180 216 261
#     4  10  16  22  32  46  66  92 126 167 212 255
#     4  10  18  30  49  70  92 116 147 184 221 263
#     4   9  15  21  28  39  58  87 124 164 206 251
#     4  10  17  26  39  56  79 103 133 172 216 260
#
# _framework density 19.192281000000001
#
# number of rings (size 3 to 8) (size 9 to 14) (size 15 to 20)
#    0.000    2.333    0.000    9.667    0.000    1.333 
#    0.000    1.667    0.000    5.333    0.000    0.000 
#    0.000    0.000    0.000    0.000    0.000    1.111 
#
# Total GULP energy -200577.884296 kJ/mol
# GULP energy per Si atom -5571.607897 kJ/mol
# Density = 1.914860 g / cm^3
# Si number density = 19.192281 Si / 1000 Ang^3
#
#
#
# Elastic Constant Matrix: (Units=GPa)
#
#
# Indices 1 2 3 4 5 6 
#
# 1 132.8357 5.1751 77.1944 0.0000 0.0000 0.0000
# 2 5.1751 9.4732 30.6691 0.0000 0.0000 0.0000
# 3 77.1944 30.6691 265.1205 0.0000 0.0000 0.0000
# 4 0.0000 0.0000 0.0000 -7.0474 0.0000 0.0000
# 5 0.0000 0.0000 0.0000 0.0000 37.7942 0.0000
# 6 0.0000 0.0000 0.0000 0.0000 0.0000 2.7252
#
#
#
# Elastic Compliance Matrix: (Units=1/GPa)
#
#
# Indices 1 2 3 4 5 6 
#
# 1 0.009261 0.005868 -0.003375 0.000000 0.000000 0.000000
# 2 0.005868 0.172484 -0.021662 0.000000 0.000000 0.000000
# 3 -0.003375 -0.021662 0.007260 0.000000 0.000000 0.000000
# 4 0.000000 0.000000 0.000000 -0.141897 0.000000 0.000000
# 5 0.000000 0.000000 0.000000 0.000000 0.026459 0.000000
# 6 0.000000 0.000000 0.000000 0.000000 0.000000 0.366951
#
#
# Mechanical properties :
#
#
# Convention : Reuss Voigt Hill
#
# Bulk Modulus (GPa) = 6.63711 70.38962 38.51337
# Shear Modulus (GPa) = 9.45040 26.32046 17.88543
#
# Velocity S-wave (km/s) = 2.22143 3.70727 3.05603
# Velocity P-wave (km/s) = 3.16945 7.42164 5.70641
#
# Compressibility (1/GPa) = 0.15066804
#
# Stress axis : x y z
#
# Youngs Moduli (GPa) = 107.98001 5.79765 137.73246
#
# Poissons Ratio (x) = -0.03402 0.46489
# Poissons Ratio (y) = -0.63366 2.98349
# Poissons Ratio (z) = 0.36447 0.12559
#
# Static dielectric constant tensor:
#      x y z
#    x 1.640500 0.000000 0.000000 
#    y 0.000000 1.623410 0.000000 
#    z 0.000000 0.000000 1.791860 
# 
# From -- ./inp_files/67218.got.cif
#   From: 2010.05.17/outbox.cif.g08.bks.cpg/sg65_34_cif.got.tgz:67218.got - 2010.06.03 17:01:31.
