data_PCOD9482344
_publ_section_title
;
Structure prediction by ZEFSAII (Michael W. Deem and Ramdas Pophale) SiO2 
 PCOD9482344
Probable space group: C M C A
;
_chemical_formula_sum "Si O2"
_cell_formula_units_Z 128
_cell_length_a 7.474638
_cell_length_b 23.085345
_cell_length_c 34.914419
_cell_angle_alpha 90.000000
_cell_angle_beta 90.000000
_cell_angle_gamma 90.000000
_cell_volume 6024.643499
_symmetry_space_group_name_H-M "C M C A"
_symmetry_group_IT_number 64
_symmetry_cell_setting 'orthorhombic'
loop_
_space_group_symop_operation_xyz
x,y,z
-x,1/2-y,1/2+z
x,-y,-z
-x,1/2+y,1/2-z
-x,-y,-z
x,1/2+y,1/2-z
-x,y,z
x,1/2-y,1/2+z
1/2+x,1/2+y,z
1/2-x,-y,1/2+z
1/2+x,1/2-y,-z
1/2-x,y,1/2-z
1/2-x,1/2-y,-z
1/2+x,y,1/2-z
1/2-x,1/2+y,z
1/2+x,-y,1/2+z
loop_
_atom_site_type_symbol
_atom_site_label
_atom_site_fract_x
_atom_site_fract_y
_atom_site_fract_z
Si Si1 0.217128 0.399246 0.871781
Si Si2 0.213962 0.779920 0.206811
Si Si3 0.713705 0.352851 0.706936
Si Si4 0.710397 0.716468 0.415041
Si Si5 0.281043 0.169254 0.628419
Si Si6 0.793366 0.465809 0.556669
Si Si7 0.281018 0.906562 0.438066
Si Si8 0.715430 0.850620 0.513908
O O1 0.276153 0.392949 0.827896
O O2 0.280083 0.340087 0.892777
O O3 0.284767 0.451036 0.898228
O O4 0.000000 0.401638 0.873264
O O5 0.250000 0.800067 0.250000
O O6 0.282734 0.713488 0.203180
O O7 0.278812 0.819510 0.171848
O O8 0.000000 0.776426 0.202837
O O9 0.500000 0.349150 0.702719
O O10 0.750000 0.373020 0.750000
O O11 0.500000 0.717676 0.406956
O O12 0.779034 0.775179 0.396591
O O13 0.730042 0.703588 0.460062
O O14 0.500000 0.167831 0.628746
O O15 0.223896 0.113747 0.603961
O O16 0.717034 0.529524 0.550373
O O17 0.717267 0.409381 0.535332
O O18 0.000000 0.468219 0.544233
O O19 0.500000 0.908746 0.438207
O O20 0.229485 0.859348 0.470119
O O21 0.500000 0.850348 0.514861
#
# Coordination Sequence:
#
# PCOD9482344 Si02
#       8
#    16  16  16  16  16  16  16  16
#     4   9  16  28  45  64  89 117 142 175 222 270
#     4   9  16  28  46  68  91 115 144 178 216 260
#     4   9  16  26  42  66  92 114 138 172 218 268
#     4   9  16  28  45  65  89 118 148 177 218 269
#     4   9  16  28  47  67  90 120 152 181 213 268
#     4   9  17  29  46  66  86 113 153 195 226 255
#     4   9  17  29  46  66  87 118 157 190 220 258
#     4   9  17  29  45  66  91 116 147 191 233 262
#
# _framework density 21.246071000000001
#
# number of rings (size 3 to 8) (size 9 to 14) (size 15 to 20)
#    0.000    3.000    1.250    0.375    0.000    2.500 
#    0.000    1.250    0.000    6.000    0.000    3.500 
#    0.000    0.000    0.000    0.000    0.000    0.000 
#
# Total GULP energy -356859.721817 kJ/mol
# GULP energy per Si atom -5575.933153 kJ/mol
# Density = 2.119771 g / cm^3
# Si number density = 21.246071 Si / 1000 Ang^3
#
#
#
# Elastic Constant Matrix: (Units=GPa)
#
#
# Indices 1 2 3 4 5 6 
#
# 1 57.6264 -2.3944 -8.6440 0.0000 0.0000 0.0000
# 2 -2.3944 26.5932 9.1543 0.0000 0.0000 0.0000
# 3 -8.6440 9.1543 128.3469 0.0000 0.0000 0.0000
# 4 0.0000 0.0000 0.0000 27.2726 0.0000 0.0000
# 5 0.0000 0.0000 0.0000 0.0000 12.4402 0.0000
# 6 0.0000 0.0000 0.0000 0.0000 0.0000 -0.8246
#
#
#
# Elastic Compliance Matrix: (Units=1/GPa)
#
#
# Indices 1 2 3 4 5 6 
#
# 1 0.017568 0.001204 0.001097 0.000000 0.000000 0.000000
# 2 0.001204 0.038633 -0.002674 0.000000 0.000000 0.000000
# 3 0.001097 -0.002674 0.008056 0.000000 0.000000 0.000000
# 4 0.000000 0.000000 0.000000 0.036667 0.000000 0.000000
# 5 0.000000 0.000000 0.000000 0.000000 0.080385 0.000000
# 6 0.000000 0.000000 0.000000 0.000000 0.000000 -1.212782
#
#
# Mechanical properties :
#
#
# Convention : Reuss Voigt Hill
#
# Bulk Modulus (GPa) = 15.74547 23.19982 19.47264
# Shear Modulus (GPa) = -4.95267 22.07435 8.56084
#
# Velocity S-wave (km/s) = -1.52845 3.22683 2.00951
# Velocity P-wave (km/s) = 2.07659 4.98262 3.81698
#
# Compressibility (1/GPa) = 0.06351035
#
# Stress axis : x y z
#
# Youngs Moduli (GPa) = 56.92242 25.88483 124.13056
#
# Poissons Ratio (x) = -0.03117 -0.13621
# Poissons Ratio (y) = -0.06854 0.33197
# Poissons Ratio (z) = -0.06246 0.06923
#
# Static dielectric constant tensor:
#      x y z
#    x 1.752290 0.000000 0.000000 
#    y 0.000000 1.751810 0.000000 
#    z 0.000000 0.000000 1.796840 
# 
# From -- ./inp_files/49650.got.cif
#   From: 2010.05.17/outbox.cif.g08.bks.cpg/sg64_25_cif.got.tgz:49650.got - 2010.06.03 16:29:19.
