data_PCOD9482039
_publ_section_title
;
Structure prediction by ZEFSAII (Michael W. Deem and Ramdas Pophale) SiO2 
 PCOD9482039
Probable space group: C M C A
;
_chemical_formula_sum "Si O2"
_cell_formula_units_Z 68
_cell_length_a 16.454833
_cell_length_b 7.861468
_cell_length_c 22.616840
_cell_angle_alpha 90.000000
_cell_angle_beta 90.000000
_cell_angle_gamma 90.000000
_cell_volume 2925.695041
_symmetry_space_group_name_H-M "C M C A"
_symmetry_group_IT_number 64
_symmetry_cell_setting 'orthorhombic'
loop_
_space_group_symop_operation_xyz
x,y,z
-x,1/2-y,1/2+z
x,-y,-z
-x,1/2+y,1/2-z
-x,-y,-z
x,1/2+y,1/2-z
-x,y,z
x,1/2-y,1/2+z
1/2+x,1/2+y,z
1/2-x,-y,1/2+z
1/2+x,1/2-y,-z
1/2-x,y,1/2-z
1/2-x,1/2-y,-z
1/2+x,y,1/2-z
1/2-x,1/2+y,z
1/2+x,-y,1/2+z
loop_
_atom_site_type_symbol
_atom_site_label
_atom_site_fract_x
_atom_site_fract_y
_atom_site_fract_z
Si Si1 0.500000 0.500000 0.500000
Si Si2 0.907954 0.485691 0.675317
Si Si3 0.673463 0.568070 0.063041
Si Si4 0.162241 0.358129 0.219148
Si Si5 0.853999 0.465805 0.088875
O O1 0.571020 0.467829 0.551139
O O2 0.868677 0.543832 0.614132
O O3 0.850421 0.332287 0.696474
O O4 0.902552 0.614780 0.729018
O O5 0.000000 0.427822 0.665022
O O6 0.770052 0.551023 0.068909
O O7 0.649342 0.763774 0.072775
O O8 0.646821 0.500000 0.000000
O O9 0.250000 0.378850 0.250000
O O10 0.145815 0.472123 0.160840
#
# Coordination Sequence:
#
# PCOD9482039 Si02
#       5
#     4  16  16  16  16
#     4  12  28  48  70 104 146 188 228 300 366 406
#     4  11  25  42  66 102 139 180 233 295 350 422
#     4  11  24  46  70  97 139 186 239 289 355 432
#     4  11  23  44  69  99 136 185 230 289 359 426
#     4  11  26  45  72 101 141 185 237 294 358 432
#
# _framework density 23.242342000000001
#
# number of rings (size 3 to 8) (size 9 to 14) (size 15 to 20)
#    0.000    0.941    3.529    2.118   11.529    0.471 
#    0.000    0.000    0.000    0.000    0.000    0.000 
#    0.000    0.000    0.000    0.000    0.000    0.000 
#
# Total GULP energy -189663.040393 kJ/mol
# GULP energy per Si atom -5578.324717 kJ/mol
# Density = 2.318944 g / cm^3
# Si number density = 23.242342 Si / 1000 Ang^3
#
#
#
# Elastic Constant Matrix: (Units=GPa)
#
#
# Indices 1 2 3 4 5 6 
#
# 1 145.9239 -9.1709 70.8207 0.0000 0.0000 0.0000
# 2 -9.1709 12.4473 11.6564 0.0000 0.0000 0.0000
# 3 70.8207 11.6564 221.6702 0.0000 0.0000 0.0000
# 4 0.0000 0.0000 0.0000 25.3564 0.0000 0.0000
# 5 0.0000 0.0000 0.0000 0.0000 29.1740 0.0000
# 6 0.0000 0.0000 0.0000 0.0000 0.0000 -5.0720
#
#
#
# Elastic Compliance Matrix: (Units=1/GPa)
#
#
# Indices 1 2 3 4 5 6 
#
# 1 0.009154 0.009974 -0.003449 0.000000 0.000000 0.000000
# 2 0.009974 0.095368 -0.008201 0.000000 0.000000 0.000000
# 3 -0.003449 -0.008201 0.006044 0.000000 0.000000 0.000000
# 4 0.000000 0.000000 0.000000 0.039438 0.000000 0.000000
# 5 0.000000 0.000000 0.000000 0.000000 0.034277 0.000000
# 6 0.000000 0.000000 0.000000 0.000000 0.000000 -0.197161
#
#
# Mechanical properties :
#
#
# Convention : Reuss Voigt Hill
#
# Bulk Modulus (GPa) = 9.32725 58.51709 33.92217
# Shear Modulus (GPa) = 190.76669 30.34071 110.55370
#
# Velocity S-wave (km/s) = 9.06948 3.61696 6.90427
# Velocity P-wave (km/s) = 10.66282 6.53259 8.84224
#
# Compressibility (1/GPa) = 0.10721277
#
# Stress axis : x y z
#
# Youngs Moduli (GPa) = 109.24688 10.48574 165.44351
#
# Poissons Ratio (x) = -0.10458 0.57060
# Poissons Ratio (y) = -1.08963 1.35687
# Poissons Ratio (z) = 0.37678 0.08600
#
# Static dielectric constant tensor:
#      x y z
#    x 1.785100 0.000000 0.000000 
#    y 0.000000 1.924810 0.000000 
#    z 0.000000 0.000000 2.007350 
# 
# From -- ./inp_files/39867.got.cif
#   From: 2010.05.17/outbox.cif.g08.bks.cpg/sg64_20_cif.got.tgz:39867.got - 2010.06.03 16:29:19.
