data_PCOD9482042
_publ_section_title
;
Structure prediction by ZEFSAII (Michael W. Deem and Ramdas Pophale) SiO2 
 PCOD9482042
Probable space group: C M C A
;
_chemical_formula_sum "Si O2"
_cell_formula_units_Z 88
_cell_length_a 14.424585
_cell_length_b 20.253075
_cell_length_c 14.738202
_cell_angle_alpha 90.000000
_cell_angle_beta 90.000000
_cell_angle_gamma 90.000000
_cell_volume 4305.650784
_symmetry_space_group_name_H-M "C M C A"
_symmetry_group_IT_number 64
_symmetry_cell_setting 'orthorhombic'
loop_
_space_group_symop_operation_xyz
x,y,z
-x,1/2-y,1/2+z
x,-y,-z
-x,1/2+y,1/2-z
-x,-y,-z
x,1/2+y,1/2-z
-x,y,z
x,1/2-y,1/2+z
1/2+x,1/2+y,z
1/2-x,-y,1/2+z
1/2+x,1/2-y,-z
1/2-x,y,1/2-z
1/2-x,1/2-y,-z
1/2+x,y,1/2-z
1/2-x,1/2+y,z
1/2+x,-y,1/2+z
loop_
_atom_site_type_symbol
_atom_site_label
_atom_site_fract_x
_atom_site_fract_y
_atom_site_fract_z
Si Si1 0.394750 0.631706 0.070787
Si Si2 0.500000 0.383140 0.461349
Si Si3 0.335147 0.775402 0.066228
Si Si4 0.000000 0.477686 0.863277
Si Si5 0.606521 0.595406 0.872481
Si Si6 0.151915 0.536304 0.285876
Si Si7 0.750000 0.828472 0.250000
O O1 0.500000 0.606349 0.077984
O O2 0.396083 0.709948 0.072350
O O3 0.340025 0.602530 0.155709
O O4 0.355888 0.609990 0.973038
O O5 0.593413 0.336454 0.457469
O O6 0.500000 0.443152 0.386218
O O7 0.500000 0.428945 0.551088
O O8 0.291612 0.789534 0.164692
O O9 0.250000 0.750000 0.000000
O O10 0.913040 0.460137 0.800811
O O11 0.500000 0.618795 0.868955
O O12 0.610998 0.518104 0.853521
O O13 0.667775 0.629335 0.795485
O O14 0.250000 0.513648 0.250000
#
# Coordination Sequence:
#
# PCOD9482042 Si02
#       7
#    16   8  16   8  16  16   8
#     4  11  24  46  68 101 141 187 233 298 355 420
#     4  11  28  51  77 101 154 196 237 318 361 445
#     4  12  27  48  70 108 147 188 249 290 366 439
#     4  11  26  49  74 111 143 194 250 298 384 422
#     4  11  23  44  71 101 138 184 236 291 358 426
#     4  12  25  42  72 105 141 182 242 301 362 433
#     4  12  26  42  72 104 140 194 234 298 356 434
#
# _framework density 20.438257
#
# number of rings (size 3 to 8) (size 9 to 14) (size 15 to 20)
#    0.000    0.545    5.455    1.636    5.091    1.455 
#    3.273    0.000    0.000    0.000    0.000    0.000 
#    0.000    0.000    0.000    0.000    0.000    0.000 
#
# Total GULP energy -245491.486300 kJ/mol
# GULP energy per Si atom -5579.351961 kJ/mol
# Density = 2.039174 g / cm^3
# Si number density = 20.438257 Si / 1000 Ang^3
#
#
#
# Elastic Constant Matrix: (Units=GPa)
#
#
# Indices 1 2 3 4 5 6 
#
# 1 110.2512 22.8297 58.7010 0.0000 0.0000 0.0000
# 2 22.8297 101.1371 75.3822 0.0000 0.0000 0.0000
# 3 58.7010 75.3822 116.9688 0.0000 0.0000 0.0000
# 4 0.0000 0.0000 0.0000 36.0233 0.0000 0.0000
# 5 0.0000 0.0000 0.0000 0.0000 27.3830 0.0000
# 6 0.0000 0.0000 0.0000 0.0000 0.0000 24.4889
#
#
#
# Elastic Compliance Matrix: (Units=1/GPa)
#
#
# Indices 1 2 3 4 5 6 
#
# 1 0.013070 0.003731 -0.008963 0.000000 0.000000 0.000000
# 2 0.003731 0.020092 -0.014821 0.000000 0.000000 0.000000
# 3 -0.008963 -0.014821 0.022599 0.000000 0.000000 0.000000
# 4 0.000000 0.000000 0.000000 0.027760 0.000000 0.000000
# 5 0.000000 0.000000 0.000000 0.000000 0.036519 0.000000
# 6 0.000000 0.000000 0.000000 0.000000 0.000000 0.040835
#
#
# Mechanical properties :
#
#
# Convention : Reuss Voigt Hill
#
# Bulk Modulus (GPa) = 63.88196 71.35366 67.61781
# Shear Modulus (GPa) = 24.24824 29.00866 26.62845
#
# Velocity S-wave (km/s) = 3.44817 3.77149 3.61345
# Velocity P-wave (km/s) = 6.86856 7.34528 7.11092
#
# Compressibility (1/GPa) = 0.01565387
#
# Stress axis : x y z
#
# Youngs Moduli (GPa) = 76.51029 49.77075 44.24949
#
# Poissons Ratio (x) = -0.18567 0.39663
# Poissons Ratio (y) = -0.28543 0.65581
# Poissons Ratio (z) = 0.68580 0.73764
#
# Static dielectric constant tensor:
#      x y z
#    x 1.889410 0.000000 0.000000 
#    y 0.000000 1.731880 0.000000 
#    z 0.000000 0.000000 1.722050 
# 
# From -- ./inp_files/23789.got.cif
#   From: 2010.05.17/outbox.cif.g08.bks.cpg/sg64_12_cif.got.tgz:23789.got - 2010.06.03 16:29:19.
