data_PCOD9482880
_publ_section_title
;
Structure prediction by ZEFSAII (Michael W. Deem and Ramdas Pophale) SiO2 
 PCOD9482880
Probable space group: C M M M
;
_chemical_formula_sum "Si O2"
_cell_formula_units_Z 96
_cell_length_a 22.886828
_cell_length_b 25.016326
_cell_length_c 7.275237
_cell_angle_alpha 90.000000
_cell_angle_beta 90.000000
_cell_angle_gamma 90.000000
_cell_volume 4165.395842
_symmetry_space_group_name_H-M "C M M M"
_symmetry_group_IT_number 65
_symmetry_cell_setting 'orthorhombic'
loop_
_space_group_symop_operation_xyz
x,y,z
-x,-y,z
x,-y,-z
-x,y,-z
-x,-y,-z
x,y,-z
-x,y,z
x,-y,z
1/2+x,1/2+y,z
1/2-x,1/2-y,z
1/2+x,1/2-y,-z
1/2-x,1/2+y,-z
1/2-x,1/2-y,-z
1/2+x,1/2+y,-z
1/2-x,1/2+y,z
1/2+x,1/2-y,z
loop_
_atom_site_type_symbol
_atom_site_label
_atom_site_fract_x
_atom_site_fract_y
_atom_site_fract_z
Si Si1 0.210397 0.315611 0.709056
Si Si2 0.000000 0.720343 0.723176
Si Si3 0.876019 0.771138 0.277224
Si Si4 0.625132 0.904827 0.777289
Si Si5 0.824003 0.118726 0.276946
Si Si6 0.839305 0.000000 0.296738
Si Si7 0.000000 0.594968 0.208515
Si Si8 0.792210 0.500000 0.221496
O O1 0.229528 0.305647 0.500000
O O2 0.183222 0.260343 0.787152
O O3 0.150411 0.349548 0.708087
O O4 0.260853 0.355716 0.785448
O O5 0.061093 0.748064 0.781613
O O6 0.000000 0.719197 0.500000
O O7 0.000000 0.659513 0.791738
O O8 0.874536 0.766865 0.500000
O O9 0.868202 0.833372 0.231589
O O10 0.561507 0.920193 0.708218
O O11 0.671277 0.948921 0.725532
O O12 0.622359 0.901334 0.000000
O O13 0.820041 0.113159 0.500000
O O14 0.845725 0.060010 0.211987
O O15 0.867530 0.000000 0.500000
O O16 0.769614 0.000000 0.311398
O O17 0.000000 0.573962 0.000000
O O18 0.784814 0.500000 0.000000
#
# Coordination Sequence:
#
# PCOD9482880 Si02
#       8
#    16   8  16  16  16   8   8   8
#     4  10  17  28  49  71  94 122 154 193 234 279
#     4  10  18  30  51  72  91 122 158 195 234 276
#     4   9  17  28  45  72  99 122 153 191 234 283
#     4  10  20  32  47  67  93 126 160 196 233 272
#     4   9  17  28  45  72  99 122 153 191 234 283
#     4  10  18  30  51  72  91 122 158 195 234 276
#     4  10  20  33  48  66  93 127 161 195 232 274
#     4  10  20  33  48  66  93 127 161 195 232 274
#
# _framework density 23.047028999999998
#
# number of rings (size 3 to 8) (size 9 to 14) (size 15 to 20)
#    0.000    2.333    3.333    0.500    0.000    2.333 
#    0.000    1.667    0.000    5.500    0.000    5.833 
#    0.000    0.000    0.000    1.500    0.000    1.667 
#
# Total GULP energy -267669.868919 kJ/mol
# GULP energy per Si atom -5576.455602 kJ/mol
# Density = 2.299457 g / cm^3
# Si number density = 23.047029 Si / 1000 Ang^3
#
#
#
# Elastic Constant Matrix: (Units=GPa)
#
#
# Indices 1 2 3 4 5 6 
#
# 1 53.0364 -9.5326 -3.8841 0.0000 0.0000 0.0000
# 2 -9.5326 133.8131 -0.2537 0.0000 0.0000 0.0000
# 3 -3.8841 -0.2537 98.1414 0.0000 0.0000 0.0000
# 4 0.0000 0.0000 0.0000 -1.1307 0.0000 0.0000
# 5 0.0000 0.0000 0.0000 0.0000 7.0959 0.0000
# 6 0.0000 0.0000 0.0000 0.0000 0.0000 66.4586
#
#
#
# Elastic Compliance Matrix: (Units=1/GPa)
#
#
# Indices 1 2 3 4 5 6 
#
# 1 0.019156 0.001366 0.000762 0.000000 0.000000 0.000000
# 2 0.001366 0.007571 0.000074 0.000000 0.000000 0.000000
# 3 0.000762 0.000074 0.010220 0.000000 0.000000 0.000000
# 4 0.000000 0.000000 0.000000 -0.884429 0.000000 0.000000
# 5 0.000000 0.000000 0.000000 0.000000 0.140927 0.000000
# 6 0.000000 0.000000 0.000000 0.000000 0.000000 0.015047
#
#
# Mechanical properties :
#
#
# Convention : Reuss Voigt Hill
#
# Bulk Modulus (GPa) = 24.18413 28.62778 26.40596
# Shear Modulus (GPa) = -7.33000 34.39551 13.53275
#
# Velocity S-wave (km/s) = -1.78532 3.86736 2.42581
# Velocity P-wave (km/s) = 2.50327 5.69125 4.39640
#
# Compressibility (1/GPa) = 0.04134942
#
# Stress axis : x y z
#
# Youngs Moduli (GPa) = 52.20213 132.09048 97.85010
#
# Poissons Ratio (x) = -0.18045 -0.07453
# Poissons Ratio (y) = -0.07131 -0.00721
# Poissons Ratio (z) = -0.03976 -0.00973
#
# Static dielectric constant tensor:
#      x y z
#    x 1.836240 0.000000 0.000000 
#    y 0.000000 1.935590 0.000000 
#    z 0.000000 0.000000 1.857360 
# 
# From -- ./inp_files/29309.got.cif
#   From: 2010.05.17/outbox.cif.g08.bks.cpg/sg65_15_cif.got.tgz:29309.got - 2010.06.03 17:01:31.
