data_PCOD9482697
_publ_section_title
;
Structure prediction by ZEFSAII (Michael W. Deem and Ramdas Pophale) SiO2 
 PCOD9482697
Probable space group: C M M M
;
_chemical_formula_sum "Si O2"
_cell_formula_units_Z 68
_cell_length_a 10.074155
_cell_length_b 38.616128
_cell_length_c 8.464738
_cell_angle_alpha 90.000000
_cell_angle_beta 90.000000
_cell_angle_gamma 90.000000
_cell_volume 3292.993507
_symmetry_space_group_name_H-M "C M M M"
_symmetry_group_IT_number 65
_symmetry_cell_setting 'orthorhombic'
loop_
_space_group_symop_operation_xyz
x,y,z
-x,-y,z
x,-y,-z
-x,y,-z
-x,-y,-z
x,y,-z
-x,y,z
x,-y,z
1/2+x,1/2+y,z
1/2-x,1/2-y,z
1/2+x,1/2-y,-z
1/2-x,1/2+y,-z
1/2-x,1/2-y,-z
1/2+x,1/2+y,-z
1/2-x,1/2+y,z
1/2+x,1/2-y,z
loop_
_atom_site_type_symbol
_atom_site_label
_atom_site_fract_x
_atom_site_fract_y
_atom_site_fract_z
Si Si1 0.770503 0.819874 0.825196
Si Si2 0.500000 0.225213 0.835101
Si Si3 0.340642 0.888329 0.314970
Si Si4 0.716630 0.291324 0.500000
Si Si5 0.500000 0.781641 0.500000
Si Si6 0.660616 0.037806 0.186299
O O1 0.632615 0.797965 0.835887
O O2 0.732333 0.859338 0.787747
O O3 0.838733 0.804609 0.666804
O O4 0.832241 0.816851 0.000000
O O5 0.500000 0.240478 0.659746
O O6 0.500000 0.245594 0.000000
O O7 0.316413 0.882657 0.500000
O O8 0.500000 0.885585 0.286203
O O9 0.296245 0.927217 0.271355
O O10 0.750000 0.250000 0.500000
O O11 0.870109 0.305255 0.500000
O O12 0.500000 0.037326 0.199852
O O13 0.707969 0.000000 0.244417
O O14 0.691211 0.040323 0.000000
#
# Coordination Sequence:
#
# PCOD9482697 Si02
#       6
#    16   8  16   8   4  16
#     4  10  17  26  40  55  73  95 121 153 192 231
#     4   8  14  22  36  54  69  89 115 147 183 219
#     4  10  17  22  34  52  71  93 124 163 198 232
#     4  10  20  32  44  60  81  98 121 157 194 239
#     4   8  16  28  44  56  76  96 119 144 183 232
#     4   8  14  23  31  41  62  92 124 158 196 232
#
# _framework density 20.649903999999999
#
# number of rings (size 3 to 8) (size 9 to 14) (size 15 to 20)
#    0.000    2.824    2.353    1.412    0.000    1.882 
#    0.000    2.353    0.000    0.000    0.000    0.000 
#    0.000    0.000    0.000    0.000    0.000    0.000 
#
# Total GULP energy -189325.398770 kJ/mol
# GULP energy per Si atom -5568.394081 kJ/mol
# Density = 2.060290 g / cm^3
# Si number density = 20.649904 Si / 1000 Ang^3
#
#
#
# Elastic Constant Matrix: (Units=GPa)
#
#
# Indices 1 2 3 4 5 6 
#
# 1 27.9567 13.5041 6.0408 0.0000 0.0000 0.0000
# 2 13.5041 156.5616 72.9150 0.0000 0.0000 0.0000
# 3 6.0408 72.9150 199.7381 0.0000 0.0000 0.0000
# 4 0.0000 0.0000 0.0000 56.5939 0.0000 0.0000
# 5 0.0000 0.0000 0.0000 0.0000 -31.7290 0.0000
# 6 0.0000 0.0000 0.0000 0.0000 0.0000 14.3476
#
#
#
# Elastic Compliance Matrix: (Units=1/GPa)
#
#
# Indices 1 2 3 4 5 6 
#
# 1 0.037325 -0.003246 0.000056 0.000000 0.000000 0.000000
# 2 -0.003246 0.007978 -0.002814 0.000000 0.000000 0.000000
# 3 0.000056 -0.002814 0.006032 0.000000 0.000000 0.000000
# 4 0.000000 0.000000 0.000000 0.017670 0.000000 0.000000
# 5 0.000000 0.000000 0.000000 0.000000 -0.031517 0.000000
# 6 0.000000 0.000000 0.000000 0.000000 0.000000 0.069698
#
#
# Mechanical properties :
#
#
# Convention : Reuss Voigt Hill
#
# Bulk Modulus (GPa) = 25.42736 63.24180 44.33458
# Shear Modulus (GPa) = 37.79203 27.29558 32.54381
#
# Velocity S-wave (km/s) = 4.28264 3.63964 3.97417
# Velocity P-wave (km/s) = 6.06589 6.95376 6.52494
#
# Compressibility (1/GPa) = 0.03932771
#
# Stress axis : x y z
#
# Youngs Moduli (GPa) = 26.79157 125.34712 165.77727
#
# Poissons Ratio (x) = 0.40682 -0.00927
# Poissons Ratio (y) = 0.08695 0.46653
# Poissons Ratio (z) = -0.00150 0.35275
#
# Static dielectric constant tensor:
#      x y z
#    x 1.787060 0.000000 0.000000 
#    y 0.000000 1.745950 0.000000 
#    z 0.000000 0.000000 1.827390 
# 
# From -- ./inp_files/9531.got.cif
#   From: 2010.05.17/outbox.cif.g08.bks.cpg/sg65_5_cif.got.tgz:9531.got - 2010.06.03 17:01:31.
