data_PCOD9482284
_publ_section_title
;
Structure prediction by ZEFSAII (Michael W. Deem and Ramdas Pophale) SiO2 
 PCOD9482284
Probable space group: C M C A
;
_chemical_formula_sum "Si O2"
_cell_formula_units_Z 116
_cell_length_a 26.889518
_cell_length_b 22.452031
_cell_length_c 8.758318
_cell_angle_alpha 90.000000
_cell_angle_beta 90.000000
_cell_angle_gamma 90.000000
_cell_volume 5287.609331
_symmetry_space_group_name_H-M "C M C A"
_symmetry_group_IT_number 64
_symmetry_cell_setting 'orthorhombic'
loop_
_space_group_symop_operation_xyz
x,y,z
-x,1/2-y,1/2+z
x,-y,-z
-x,1/2+y,1/2-z
-x,-y,-z
x,1/2+y,1/2-z
-x,y,z
x,1/2-y,1/2+z
1/2+x,1/2+y,z
1/2-x,-y,1/2+z
1/2+x,1/2-y,-z
1/2-x,y,1/2-z
1/2-x,1/2-y,-z
1/2+x,y,1/2-z
1/2-x,1/2+y,z
1/2+x,-y,1/2+z
loop_
_atom_site_type_symbol
_atom_site_label
_atom_site_fract_x
_atom_site_fract_y
_atom_site_fract_z
Si Si1 0.500000 0.500000 0.000000
Si Si2 0.885325 0.710167 0.826230
Si Si3 0.412700 0.080521 0.359831
Si Si4 0.241171 0.388841 0.916293
Si Si5 0.214699 0.712662 0.893087
Si Si6 0.661201 0.104451 0.627530
Si Si7 0.166648 0.010142 0.337121
Si Si8 0.441094 0.809167 0.858948
O O1 0.543209 0.464536 0.899960
O O2 0.836560 0.748373 0.872657
O O3 0.855834 0.660694 0.727898
O O4 0.921745 0.748981 0.722928
O O5 0.912995 0.686634 0.977541
O O6 0.386735 0.094890 0.520981
O O7 0.369040 0.050081 0.263986
O O8 0.429922 0.137351 0.260127
O O9 0.250000 0.360927 0.750000
O O10 0.215831 0.452248 0.881057
O O11 0.204152 0.347531 0.011864
O O12 0.291432 0.390928 0.014858
O O13 0.250000 0.699086 0.750000
O O14 0.250000 0.750000 0.000000
O O15 0.673868 0.050018 0.741674
O O16 0.141084 0.000000 0.500000
O O17 0.500000 0.806435 0.886186
#
# Coordination Sequence:
#
# PCOD9482284 Si02
#       8
#     4  16  16  16  16  16  16  16
#     4  12  24  52  78 112 152 212 258 332 396 468
#     4  12  27  49  76 110 155 198 260 330 397 475
#     4  12  25  49  77 111 153 200 263 324 403 474
#     4  12  27  43  71 107 150 198 250 305 373 464
#     4  12  25  44  69 103 147 194 245 297 372 462
#     4  12  26  48  72 111 151 205 255 318 394 471
#     4  12  27  44  72 108 152 200 255 318 383 470
#     4  12  27  50  79 113 148 201 269 339 411 481
#
# _framework density 21.938079999999999
#
# number of rings (size 3 to 8) (size 9 to 14) (size 15 to 20)
#    0.000    0.000    4.828    4.966    3.862    0.000 
#    2.483    0.345    0.000    0.000    0.000    0.000 
#    0.000    0.000    0.000    0.000    0.000    0.000 
#
# Total GULP energy -323833.169132 kJ/mol
# GULP energy per Si atom -5583.330502 kJ/mol
# Density = 2.188815 g / cm^3
# Si number density = 21.938080 Si / 1000 Ang^3
#
#
#
# Elastic Constant Matrix: (Units=GPa)
#
#
# Indices 1 2 3 4 5 6 
#
# 1 135.2716 45.6083 51.3681 0.0000 0.0000 0.0000
# 2 45.6083 93.6790 53.2243 0.0000 0.0000 0.0000
# 3 51.3681 53.2243 154.8084 0.0000 0.0000 0.0000
# 4 0.0000 0.0000 0.0000 30.6864 0.0000 0.0000
# 5 0.0000 0.0000 0.0000 0.0000 -182.0813 0.0000
# 6 0.0000 0.0000 0.0000 0.0000 0.0000 21.3181
#
#
#
# Elastic Compliance Matrix: (Units=1/GPa)
#
#
# Indices 1 2 3 4 5 6 
#
# 1 0.009271 -0.003437 -0.001894 0.000000 0.000000 0.000000
# 2 -0.003437 0.014540 -0.003859 0.000000 0.000000 0.000000
# 3 -0.001894 -0.003859 0.008415 0.000000 0.000000 0.000000
# 4 0.000000 0.000000 0.000000 0.032588 0.000000 0.000000
# 5 0.000000 0.000000 0.000000 0.000000 -0.005492 0.000000
# 6 0.000000 0.000000 0.000000 0.000000 0.000000 0.046909
#
#
# Mechanical properties :
#
#
# Convention : Reuss Voigt Hill
#
# Bulk Modulus (GPa) = 72.22534 76.01782 74.12158
# Shear Modulus (GPa) = 38.69186 -10.44482 14.12352
#
# Velocity S-wave (km/s) = 4.20418 -2.18435 2.54005
# Velocity P-wave (km/s) = 7.52068 5.32583 6.51633
#
# Compressibility (1/GPa) = 0.01384556
#
# Stress axis : x y z
#
# Youngs Moduli (GPa) = 107.86505 68.77354 118.83778
#
# Poissons Ratio (x) = 0.23639 0.22514
# Poissons Ratio (y) = 0.37076 0.45855
# Poissons Ratio (z) = 0.20435 0.26537
#
# Static dielectric constant tensor:
#      x y z
#    x 1.874580 0.000000 0.000000 
#    y 0.000000 1.916740 0.000000 
#    z 0.000000 0.000000 1.993770 
# 
# From -- ./inp_files/10660.got.cif
#   From: 2010.05.17/outbox.cif.g08.bks.cpg/sg64_6_cif.got.tgz:10660.got - 2010.06.03 16:29:19.
