data_PCOD9482767
_publ_section_title
;
Structure prediction by ZEFSAII (Michael W. Deem and Ramdas Pophale) SiO2 
 PCOD9482767
Probable space group: C M M M
;
_chemical_formula_sum "Si O2"
_cell_formula_units_Z 96
_cell_length_a 29.646868
_cell_length_b 23.987915
_cell_length_c 9.429230
_cell_angle_alpha 90.000000
_cell_angle_beta 90.000000
_cell_angle_gamma 90.000000
_cell_volume 6705.752964
_symmetry_space_group_name_H-M "C M M M"
_symmetry_group_IT_number 65
_symmetry_cell_setting 'orthorhombic'
loop_
_space_group_symop_operation_xyz
x,y,z
-x,-y,z
x,-y,-z
-x,y,-z
-x,-y,-z
x,y,-z
-x,y,z
x,-y,z
1/2+x,1/2+y,z
1/2-x,1/2-y,z
1/2+x,1/2-y,-z
1/2-x,1/2+y,-z
1/2-x,1/2-y,-z
1/2+x,1/2+y,-z
1/2-x,1/2+y,z
1/2+x,1/2-y,z
loop_
_atom_site_type_symbol
_atom_site_label
_atom_site_fract_x
_atom_site_fract_y
_atom_site_fract_z
Si Si1 0.910974 0.598129 0.333483
Si Si2 0.910729 0.732910 0.666528
Si Si3 0.500000 0.769301 0.163645
Si Si4 0.823382 0.232857 0.167727
Si Si5 0.759704 0.658743 0.832922
Si Si6 0.000000 0.405170 0.837013
Si Si7 0.310809 0.063501 0.669886
O O1 0.918075 0.585112 0.500000
O O2 0.906605 0.665402 0.320983
O O3 0.863029 0.573368 0.286863
O O4 0.954227 0.578649 0.244443
O O5 0.914485 0.745599 0.500000
O O6 0.867382 0.761041 0.737355
O O7 0.955521 0.748770 0.752408
O O8 0.500000 0.837193 0.163762
O O9 0.500000 0.751421 0.000000
O O10 0.794061 0.289345 0.184835
O O11 0.789608 0.182472 0.205901
O O12 0.834605 0.228548 0.000000
O O13 0.778466 0.607570 0.744300
O O14 0.759062 0.645188 0.000000
O O15 0.000000 0.423717 0.000000
O O16 0.309571 0.071861 0.500000
O O17 0.298144 0.000000 0.701498
#
# Coordination Sequence:
#
# PCOD9482767 Si02
#       7
#    16  16   8  16  16   8  16
#     4   9  17  29  42  58  80 107 138 175 220 263
#     4  10  17  26  42  64  86 112 145 180 213 257
#     4   9  17  27  39  58  86 117 143 172 214 261
#     4   9  17  29  45  65  88 113 139 175 219 261
#     4   9  18  31  46  64  86 111 142 177 217 263
#     4   9  17  27  42  60  75 100 138 180 220 258
#     4  10  20  33  47  63  84 111 144 181 222 265
#
# _framework density 14.316065999999999
#
# number of rings (size 3 to 8) (size 9 to 14) (size 15 to 20)
#    0.000    2.667    1.667    2.000    0.000    4.333 
#    0.000    2.083    0.000    2.500    0.000    0.000 
#    0.000    0.000    0.000    0.750    0.000   14.000 
#
# Total GULP energy -267577.015795 kJ/mol
# GULP energy per Si atom -5574.521162 kJ/mol
# Density = 1.428348 g / cm^3
# Si number density = 14.316066 Si / 1000 Ang^3
#
#
#
# Elastic Constant Matrix: (Units=GPa)
#
#
# Indices 1 2 3 4 5 6 
#
# 1 97.9190 41.0920 67.1664 0.0000 0.0000 0.0000
# 2 41.0920 56.5424 40.4490 0.0000 0.0000 0.0000
# 3 67.1664 40.4490 80.4389 0.0000 0.0000 0.0000
# 4 0.0000 0.0000 0.0000 14.9803 0.0000 0.0000
# 5 0.0000 0.0000 0.0000 0.0000 29.7170 0.0000
# 6 0.0000 0.0000 0.0000 0.0000 0.0000 7.6604
#
#
#
# Elastic Compliance Matrix: (Units=1/GPa)
#
#
# Indices 1 2 3 4 5 6 
#
# 1 0.024779 -0.005008 -0.018172 0.000000 0.000000 0.000000
# 2 -0.005008 0.028635 -0.010217 0.000000 0.000000 0.000000
# 3 -0.018172 -0.010217 0.032743 0.000000 0.000000 0.000000
# 4 0.000000 0.000000 0.000000 0.066755 0.000000 0.000000
# 5 0.000000 0.000000 0.000000 0.000000 0.033651 0.000000
# 6 0.000000 0.000000 0.000000 0.000000 0.000000 0.130542
#
#
# Mechanical properties :
#
#
# Convention : Reuss Voigt Hill
#
# Bulk Modulus (GPa) = 51.64768 59.14613 55.39690
# Shear Modulus (GPa) = 12.80890 16.21773 14.51332
#
# Velocity S-wave (km/s) = 2.99444 3.36941 3.18744
# Velocity P-wave (km/s) = 6.93618 7.51941 7.23367
#
# Compressibility (1/GPa) = 0.01936195
#
# Stress axis : x y z
#
# Youngs Moduli (GPa) = 40.35626 34.92266 30.54056
#
# Poissons Ratio (x) = 0.17490 0.55499
# Poissons Ratio (y) = 0.20212 0.31204
# Poissons Ratio (z) = 0.73336 0.35681
#
# Static dielectric constant tensor:
#      x y z
#    x 1.463960 0.000000 0.000000 
#    y 0.000000 1.448540 0.000000 
#    z 0.000000 0.000000 1.475220 
# 
# From -- ./inp_files/16679.got.cif
#   From: 2010.05.17/outbox.cif.g08.bks.cpg/sg65_9_cif.got.tgz:16679.got - 2010.06.03 17:01:31.
