data_PCOD9482925
_publ_section_title
;
Structure prediction by ZEFSAII (Michael W. Deem and Ramdas Pophale) SiO2 
 PCOD9482925
Probable space group: C M M M
;
_chemical_formula_sum "Si O2"
_cell_formula_units_Z 104
_cell_length_a 16.919981
_cell_length_b 28.276607
_cell_length_c 12.067515
_cell_angle_alpha 90.000000
_cell_angle_beta 90.000000
_cell_angle_gamma 90.000000
_cell_volume 5773.577691
_symmetry_space_group_name_H-M "C M M M"
_symmetry_group_IT_number 65
_symmetry_cell_setting 'orthorhombic'
loop_
_space_group_symop_operation_xyz
x,y,z
-x,-y,z
x,-y,-z
-x,y,-z
-x,-y,-z
x,y,-z
-x,y,z
x,-y,z
1/2+x,1/2+y,z
1/2-x,1/2-y,z
1/2+x,1/2-y,-z
1/2-x,1/2+y,-z
1/2-x,1/2-y,-z
1/2+x,1/2+y,-z
1/2-x,1/2+y,z
1/2+x,1/2-y,z
loop_
_atom_site_type_symbol
_atom_site_label
_atom_site_fract_x
_atom_site_fract_y
_atom_site_fract_z
Si Si1 0.500000 0.945741 0.634650
Si Si2 0.096333 0.699340 0.772164
Si Si3 0.907817 0.096678 0.867350
Si Si4 0.596067 0.704658 0.126534
Si Si5 0.347859 0.883628 0.367994
Si Si6 0.658552 0.052448 0.000000
Si Si7 0.240641 0.946972 0.226206
Si Si8 0.408786 0.152430 0.000000
O O1 0.500000 0.947223 0.500000
O O2 0.577267 0.916383 0.668323
O O3 0.500000 0.000000 0.674753
O O4 0.119334 0.753998 0.789476
O O5 0.134161 0.669037 0.674490
O O6 0.000000 0.696575 0.762580
O O7 0.123349 0.673651 0.886121
O O8 0.881210 0.151030 0.846340
O O9 0.850226 0.062227 0.802886
O O10 0.000000 0.091898 0.838428
O O11 0.901208 0.089232 0.000000
O O12 0.500000 0.704822 0.123375
O O13 0.621992 0.715577 0.000000
O O14 0.341966 0.885145 0.500000
O O15 0.273860 0.907848 0.309080
O O16 0.712470 0.056763 0.890425
O O17 0.599927 0.096330 0.000000
O O18 0.622270 0.000000 0.000000
O O19 0.253827 0.000000 0.270067
O O20 0.500000 0.167048 0.000000
#
# Coordination Sequence:
#
# PCOD9482925 Si02
#       8
#     8  16  16  16  16   8  16   8
#     4   9  18  34  52  71  97 131 185 240 264 289
#     4  10  17  29  51  77 108 143 178 221 264 313
#     4   9  18  34  58  86 112 135 170 219 271 336
#     4   8  14  27  50  81 110 138 171 213 267 326
#     4  11  22  35  53  77 105 146 194 233 264 303
#     4  10  20  33  46  69 105 144 174 210 269 325
#     4  11  22  36  54  76 110 145 173 217 278 331
#     4  10  18  29  47  72 102 145 184 212 254 316
#
# _framework density 18.013095
#
# number of rings (size 3 to 8) (size 9 to 14) (size 15 to 20)
#    0.000    2.231    3.846    1.385    0.000    1.385 
#    0.000    1.538    0.000    5.077    0.000    3.231 
#    0.000    0.000    0.000    0.000    0.000    0.000 
#
# Total GULP energy -289988.223848 kJ/mol
# GULP energy per Si atom -5576.696612 kJ/mol
# Density = 1.797210 g / cm^3
# Si number density = 18.013095 Si / 1000 Ang^3
#
#
#
# Elastic Constant Matrix: (Units=GPa)
#
#
# Indices 1 2 3 4 5 6 
#
# 1 34.1251 2.2555 14.0717 0.0000 0.0000 0.0000
# 2 2.2555 22.4170 6.5002 0.0000 0.0000 0.0000
# 3 14.0717 6.5002 53.8130 0.0000 0.0000 0.0000
# 4 0.0000 0.0000 0.0000 16.2498 0.0000 0.0000
# 5 0.0000 0.0000 0.0000 0.0000 15.0731 0.0000
# 6 0.0000 0.0000 0.0000 0.0000 0.0000 18.6488
#
#
#
# Elastic Compliance Matrix: (Units=1/GPa)
#
#
# Indices 1 2 3 4 5 6 
#
# 1 0.032861 -0.000844 -0.008491 0.000000 0.000000 0.000000
# 2 -0.000844 0.046250 -0.005366 0.000000 0.000000 0.000000
# 3 -0.008491 -0.005366 0.021451 0.000000 0.000000 0.000000
# 4 0.000000 0.000000 0.000000 0.061539 0.000000 0.000000
# 5 0.000000 0.000000 0.000000 0.000000 0.066343 0.000000
# 6 0.000000 0.000000 0.000000 0.000000 0.000000 0.053623
#
#
# Mechanical properties :
#
#
# Convention : Reuss Voigt Hill
#
# Bulk Modulus (GPa) = 14.05283 17.33445 15.69364
# Shear Modulus (GPa) = 14.91693 15.82952 15.37323
#
# Velocity S-wave (km/s) = 2.88082 2.96764 2.92455
# Velocity P-wave (km/s) = 4.34556 4.62457 4.48723
#
# Compressibility (1/GPa) = 0.07116006
#
# Stress axis : x y z
#
# Youngs Moduli (GPa) = 30.43117 21.62169 46.61717
#
# Poissons Ratio (x) = 0.01826 0.39582
# Poissons Ratio (y) = 0.02569 0.25014
# Poissons Ratio (z) = 0.25839 0.11602
#
# Static dielectric constant tensor:
#      x y z
#    x 1.627220 0.000000 0.000000 
#    y 0.000000 1.635570 0.000000 
#    z 0.000000 0.000000 1.595590 
# 
# From -- ./inp_files/27526.got.cif
#   From: 2010.05.17/outbox.cif.g08.bks.cpg/sg65_14_cif.got.tgz:27526.got - 2010.06.03 17:01:31.
