data_PCOD9482700
_publ_section_title
;
Structure prediction by ZEFSAII (Michael W. Deem and Ramdas Pophale) SiO2 
 PCOD9482700
Probable space group: C M M M
;
_chemical_formula_sum "Si O2"
_cell_formula_units_Z 104
_cell_length_a 9.391775
_cell_length_b 29.145784
_cell_length_c 20.841877
_cell_angle_alpha 90.000000
_cell_angle_beta 90.000000
_cell_angle_gamma 90.000000
_cell_volume 5705.060445
_symmetry_space_group_name_H-M "C M M M"
_symmetry_group_IT_number 65
_symmetry_cell_setting 'orthorhombic'
loop_
_space_group_symop_operation_xyz
x,y,z
-x,-y,z
x,-y,-z
-x,y,-z
-x,-y,-z
x,y,-z
-x,y,z
x,-y,z
1/2+x,1/2+y,z
1/2-x,1/2-y,z
1/2+x,1/2-y,-z
1/2-x,1/2+y,-z
1/2-x,1/2-y,-z
1/2+x,1/2+y,-z
1/2-x,1/2+y,z
1/2+x,1/2-y,z
loop_
_atom_site_type_symbol
_atom_site_label
_atom_site_fract_x
_atom_site_fract_y
_atom_site_fract_z
Si Si1 0.329088 0.701610 0.500000
Si Si2 0.330870 0.296555 0.742275
Si Si3 0.330903 0.361318 0.377739
Si Si4 0.829493 0.552038 0.424181
Si Si5 0.669478 0.950578 0.870307
Si Si6 0.664966 0.843991 0.853126
Si Si7 0.337147 0.151166 0.000000
Si Si8 0.333672 0.563487 0.000000
O O1 0.500000 0.708903 0.500000
O O2 0.250000 0.750000 0.500000
O O3 0.291975 0.671866 0.562807
O O4 0.500000 0.288864 0.745614
O O5 0.250000 0.250000 0.724655
O O6 0.302519 0.334611 0.687922
O O7 0.268425 0.314903 0.808995
O O8 0.500000 0.370048 0.382420
O O9 0.247685 0.408672 0.384779
O O10 0.795769 0.558006 0.500000
O O11 0.788899 0.500000 0.406176
O O12 0.000000 0.555887 0.417770
O O13 0.500000 0.949562 0.882738
O O14 0.700740 0.898780 0.845548
O O15 0.697571 0.000000 0.835564
O O16 0.756049 0.953085 0.936229
O O17 0.500000 0.838303 0.832921
O O18 0.671527 0.828495 0.928221
O O19 0.500000 0.129869 0.000000
O O20 0.204213 0.117051 0.000000
O O21 0.500000 0.553944 0.000000
#
# Coordination Sequence:
#
# PCOD9482700 Si02
#       8
#     8  16  16  16  16  16   8   8
#     4  10  20  34  53  80 111 143 184 231 277 322
#     4  11  24  41  60  82 109 143 184 230 282 343
#     4  10  21  37  57  83 115 150 189 231 276 328
#     4   9  18  33  55  86 121 155 193 234 274 320
#     4   9  17  30  48  70 100 140 180 215 257 317
#     4   9  18  35  58  82 108 141 182 230 281 335
#     4   8  16  33  56  79 105 139 180 225 276 336
#     4  10  17  23  38  70 108 140 172 213 263 316
#
# _framework density 18.229430000000001
#
# number of rings (size 3 to 8) (size 9 to 14) (size 15 to 20)
#    0.000    2.462    0.769    3.231    0.000    5.846 
#    0.000    1.923    0.000    2.769    0.000    0.000 
#    0.000    0.000    0.000    0.000    0.000    0.000 
#
# Total GULP energy -289540.496684 kJ/mol
# GULP energy per Si atom -5568.086475 kJ/mol
# Density = 1.818794 g / cm^3
# Si number density = 18.229430 Si / 1000 Ang^3
#
#
#
# Elastic Constant Matrix: (Units=GPa)
#
#
# Indices 1 2 3 4 5 6 
#
# 1 51.7394 60.1182 36.7989 0.0000 0.0000 0.0000
# 2 60.1182 114.5326 40.9648 0.0000 0.0000 0.0000
# 3 36.7989 40.9648 73.3059 0.0000 0.0000 0.0000
# 4 0.0000 0.0000 0.0000 2.2448 0.0000 0.0000
# 5 0.0000 0.0000 0.0000 0.0000 33.4643 0.0000
# 6 0.0000 0.0000 0.0000 0.0000 0.0000 26.1156
#
#
#
# Elastic Compliance Matrix: (Units=1/GPa)
#
#
# Indices 1 2 3 4 5 6 
#
# 1 0.061751 -0.026653 -0.016104 0.000000 0.000000 0.000000
# 2 -0.026653 0.022416 0.000853 0.000000 0.000000 0.000000
# 3 -0.016104 0.000853 0.021249 0.000000 0.000000 0.000000
# 4 0.000000 0.000000 0.000000 0.445476 0.000000 0.000000
# 5 0.000000 0.000000 0.000000 0.000000 0.029883 0.000000
# 6 0.000000 0.000000 0.000000 0.000000 0.000000 0.038291
#
#
# Mechanical properties :
#
#
# Convention : Reuss Voigt Hill
#
# Bulk Modulus (GPa) = 46.28007 57.26018 51.77012
# Shear Modulus (GPa) = 7.04150 19.14469 13.09309
#
# Velocity S-wave (km/s) = 1.96751 3.24421 2.68291
# Velocity P-wave (km/s) = 5.53210 6.74627 6.16913
#
# Compressibility (1/GPa) = 0.02160758
#
# Stress axis : x y z
#
# Youngs Moduli (GPa) = 16.19414 44.61051 47.06118
#
# Poissons Ratio (x) = 1.18901 0.75788
# Poissons Ratio (y) = 0.43162 -0.04014
# Poissons Ratio (z) = 0.26079 -0.03805
#
# Static dielectric constant tensor:
#      x y z
#    x 1.597250 0.000000 0.000000 
#    y 0.000000 1.676690 0.000000 
#    z 0.000000 0.000000 1.627220 
# 
# From -- ./inp_files/60939.got.cif
#   From: 2010.05.17/outbox.cif.g08.bks.cpg/sg65_31_cif.got.tgz:60939.got - 2010.06.03 17:01:31.
