data_PCOD9482940
_publ_section_title
;
Structure prediction by ZEFSAII (Michael W. Deem and Ramdas Pophale) SiO2 
 PCOD9482940
Probable space group: C M M M
;
_chemical_formula_sum "Si O2"
_cell_formula_units_Z 120
_cell_length_a 16.954462
_cell_length_b 22.766525
_cell_length_c 17.986600
_cell_angle_alpha 90.000000
_cell_angle_beta 90.000000
_cell_angle_gamma 90.000000
_cell_volume 6942.722972
_symmetry_space_group_name_H-M "C M M M"
_symmetry_group_IT_number 65
_symmetry_cell_setting 'orthorhombic'
loop_
_space_group_symop_operation_xyz
x,y,z
-x,-y,z
x,-y,-z
-x,y,-z
-x,-y,-z
x,y,-z
-x,y,z
x,-y,z
1/2+x,1/2+y,z
1/2-x,1/2-y,z
1/2+x,1/2-y,-z
1/2-x,1/2+y,-z
1/2-x,1/2-y,-z
1/2+x,1/2+y,-z
1/2-x,1/2+y,z
1/2+x,1/2-y,z
loop_
_atom_site_type_symbol
_atom_site_label
_atom_site_fract_x
_atom_site_fract_y
_atom_site_fract_z
Si Si1 0.643254 0.628291 0.086731
Si Si2 0.085494 0.233235 0.179617
Si Si3 0.245646 0.678258 0.326653
Si Si4 0.413131 0.307574 0.648542
Si Si5 0.094424 0.432079 0.085569
Si Si6 0.300879 0.160842 0.840598
Si Si7 0.091649 0.000000 0.090078
Si Si8 0.411995 0.820164 0.413470
O O1 0.591766 0.673015 0.134648
O O2 0.731948 0.649962 0.100632
O O3 0.632239 0.561016 0.112734
O O4 0.622188 0.631555 0.000000
O O5 0.090539 0.218421 0.267072
O O6 0.154369 0.277082 0.155717
O O7 0.000000 0.261218 0.165893
O O8 0.250000 0.750000 0.329323
O O9 0.330378 0.658404 0.359434
O O10 0.236843 0.658868 0.241375
O O11 0.165690 0.659755 0.368988
O O12 0.500000 0.336184 0.640473
O O13 0.411658 0.250685 0.595595
O O14 0.118198 0.500000 0.095877
O O15 0.135890 0.389575 0.143318
O O16 0.000000 0.428993 0.091661
O O17 0.114887 0.415613 0.000000
O O18 0.000000 0.000000 0.113101
O O19 0.093262 0.000000 0.000000
O O20 0.405441 0.835541 0.500000
O O21 0.500000 0.838964 0.386188
#
# Coordination Sequence:
#
# PCOD9482940 Si02
#       8
#    16  16  16  16  16  16   8  16
#     4  11  23  36  53  74  98 130 173 226 271 313
#     4  11  21  34  51  72 102 139 172 211 263 318
#     4  10  17  30  46  68 101 135 166 201 252 306
#     4   9  17  30  45  64  96 136 172 205 247 301
#     4   9  20  37  52  67  92 129 173 220 266 315
#     4  12  20  32  51  76 101 131 169 211 266 322
#     4   9  20  40  58  72  93 127 172 219 271 323
#     4   9  17  28  46  72 100 134 174 208 239 292
#
# _framework density 17.284285000000001
#
# number of rings (size 3 to 8) (size 9 to 14) (size 15 to 20)
#    0.000    1.933    4.000    2.000    0.933    5.333 
#    0.000    0.000    0.000    0.000    0.000    0.000 
#    0.000    0.533    0.000    4.733    0.000   16.667 
#
# Total GULP energy -334282.786406 kJ/mol
# GULP energy per Si atom -5571.379773 kJ/mol
# Density = 1.724494 g / cm^3
# Si number density = 17.284285 Si / 1000 Ang^3
#
#
#
# Elastic Constant Matrix: (Units=GPa)
#
#
# Indices 1 2 3 4 5 6 
#
# 1 121.8017 19.6564 9.9128 0.0000 0.0000 0.0000
# 2 19.6564 34.3553 8.2506 0.0000 0.0000 0.0000
# 3 9.9128 8.2506 29.9477 0.0000 0.0000 0.0000
# 4 0.0000 0.0000 0.0000 -0.5985 0.0000 0.0000
# 5 0.0000 0.0000 0.0000 0.0000 22.4669 0.0000
# 6 0.0000 0.0000 0.0000 0.0000 0.0000 3.3255
#
#
#
# Elastic Compliance Matrix: (Units=1/GPa)
#
#
# Indices 1 2 3 4 5 6 
#
# 1 0.009125 -0.004814 -0.001694 0.000000 0.000000 0.000000
# 2 -0.004814 0.033710 -0.007694 0.000000 0.000000 0.000000
# 3 -0.001694 -0.007694 0.036072 0.000000 0.000000 0.000000
# 4 0.000000 0.000000 0.000000 -1.670939 0.000000 0.000000
# 5 0.000000 0.000000 0.000000 0.000000 0.044510 0.000000
# 6 0.000000 0.000000 0.000000 0.000000 0.000000 0.300709
#
#
# Mechanical properties :
#
#
# Convention : Reuss Voigt Hill
#
# Bulk Modulus (GPa) = 19.80080 29.08270 24.44175
# Shear Modulus (GPa) = -4.16120 14.92445 5.38163
#
# Velocity S-wave (km/s) = -1.55330 2.94167 1.76645
# Velocity P-wave (km/s) = 2.87469 5.32922 4.28161
#
# Compressibility (1/GPa) = 0.05050300
#
# Stress axis : x y z
#
# Youngs Moduli (GPa) = 109.59126 29.66521 27.72247
#
# Poissons Ratio (x) = 0.14281 0.04696
# Poissons Ratio (y) = 0.52756 0.21328
# Poissons Ratio (z) = 0.18566 0.22823
#
# Static dielectric constant tensor:
#      x y z
#    x 1.684570 0.000000 0.000000 
#    y 0.000000 1.553650 0.000000 
#    z 0.000000 0.000000 1.570060 
# 
# From -- ./inp_files/54972.got.cif
#   From: 2010.05.17/outbox.cif.g08.bks.cpg/sg65_28_cif.got.tgz:54972.got - 2010.06.03 17:01:31.
