data_PCOD9482869
_publ_section_title
;
Structure prediction by ZEFSAII (Michael W. Deem and Ramdas Pophale) SiO2 
 PCOD9482869
Probable space group: C M M M
;
_chemical_formula_sum "Si O2"
_cell_formula_units_Z 112
_cell_length_a 18.998112
_cell_length_b 18.700969
_cell_length_c 18.999069
_cell_angle_alpha 90.000000
_cell_angle_beta 90.000000
_cell_angle_gamma 90.000000
_cell_volume 6750.048199
_symmetry_space_group_name_H-M "C M M M"
_symmetry_group_IT_number 65
_symmetry_cell_setting 'orthorhombic'
loop_
_space_group_symop_operation_xyz
x,y,z
-x,-y,z
x,-y,-z
-x,y,-z
-x,-y,-z
x,y,-z
-x,y,z
x,-y,z
1/2+x,1/2+y,z
1/2-x,1/2-y,z
1/2+x,1/2-y,-z
1/2-x,1/2+y,-z
1/2-x,1/2-y,-z
1/2+x,1/2+y,-z
1/2-x,1/2+y,z
1/2+x,1/2-y,z
loop_
_atom_site_type_symbol
_atom_site_label
_atom_site_fract_x
_atom_site_fract_y
_atom_site_fract_z
Si Si1 0.919874 0.730898 0.168798
Si Si2 0.583657 0.765796 0.581647
Si Si3 0.611875 0.079018 0.209093
Si Si4 0.674984 0.290141 0.703748
Si Si5 0.417767 0.078276 0.625320
Si Si6 0.811319 0.191621 0.918078
Si Si7 0.218993 0.082234 0.204546
O O1 0.916349 0.645215 0.164951
O O2 0.871488 0.751957 0.235554
O O3 0.883632 0.769390 0.103070
O O4 0.000000 0.753562 0.179616
O O5 0.589966 0.746750 0.500000
O O6 0.500000 0.763143 0.600797
O O7 0.630577 0.717795 0.632780
O O8 0.609226 0.848198 0.592383
O O9 0.587426 0.085882 0.290201
O O10 0.696412 0.082868 0.209406
O O11 0.590706 0.000000 0.184281
O O12 0.750000 0.250000 0.698421
O O13 0.689157 0.369971 0.731697
O O14 0.500000 0.075434 0.605560
O O15 0.386540 0.000000 0.606857
O O16 0.750000 0.250000 0.902619
O O17 0.801101 0.124433 0.866671
O O18 0.807861 0.172986 0.000000
O O19 0.195425 0.000000 0.205149
#
# Coordination Sequence:
#
# PCOD9482869 Si02
#       7
#    16  16  16  16  16  16  16
#     4  11  19  31  53  78 104 138 173 211 258 303
#     4  10  20  32  48  73 104 139 178 220 266 315
#     4  10  17  28  47  76 108 136 170 208 248 301
#     4  11  19  34  53  76 104 136 176 220 257 305
#     4   9  16  26  42  67 102 142 175 206 250 301
#     4  10  20  36  54  76 106 139 175 213 251 303
#     4  10  19  33  55  79 102 132 173 219 265 306
#
# _framework density 16.592473999999999
#
# number of rings (size 3 to 8) (size 9 to 14) (size 15 to 20)
#    0.000    1.857    4.286    1.714    0.000    2.000 
#    0.000    1.429    0.000   11.571    0.000    6.000 
#    0.000    0.000    0.000    0.000    0.000    0.000 
#
# Total GULP energy -312218.763379 kJ/mol
# GULP energy per Si atom -5575.335060 kJ/mol
# Density = 1.655471 g / cm^3
# Si number density = 16.592474 Si / 1000 Ang^3
#
#
#
# Elastic Constant Matrix: (Units=GPa)
#
#
# Indices 1 2 3 4 5 6 
#
# 1 84.1499 35.0397 30.8786 0.0000 0.0000 0.0000
# 2 35.0397 120.4901 50.3888 0.0000 0.0000 0.0000
# 3 30.8786 50.3888 75.5726 0.0000 0.0000 0.0000
# 4 0.0000 0.0000 0.0000 6.6665 0.0000 0.0000
# 5 0.0000 0.0000 0.0000 0.0000 21.0783 0.0000
# 6 0.0000 0.0000 0.0000 0.0000 0.0000 17.1038
#
#
#
# Elastic Compliance Matrix: (Units=1/GPa)
#
#
# Indices 1 2 3 4 5 6 
#
# 1 0.014466 -0.002406 -0.004306 0.000000 0.000000 0.000000
# 2 -0.002406 0.011909 -0.006957 0.000000 0.000000 0.000000
# 3 -0.004306 -0.006957 0.019631 0.000000 0.000000 0.000000
# 4 0.000000 0.000000 0.000000 0.150004 0.000000 0.000000
# 5 0.000000 0.000000 0.000000 0.000000 0.047442 0.000000
# 6 0.000000 0.000000 0.000000 0.000000 0.000000 0.058467
#
#
# Mechanical properties :
#
#
# Convention : Reuss Voigt Hill
#
# Bulk Modulus (GPa) = 53.57346 56.98075 55.27711
# Shear Modulus (GPa) = 14.90407 19.89674 17.40040
#
# Velocity S-wave (km/s) = 3.00032 3.46662 3.24187
# Velocity P-wave (km/s) = 6.66037 7.10205 6.88475
#
# Compressibility (1/GPa) = 0.01866596
#
# Stress axis : x y z
#
# Youngs Moduli (GPa) = 69.12973 83.97348 50.94065
#
# Poissons Ratio (x) = 0.20202 0.21938
# Poissons Ratio (y) = 0.16631 0.35440
# Poissons Ratio (z) = 0.29771 0.58422
#
# Static dielectric constant tensor:
#      x y z
#    x 1.564760 0.000000 0.000000 
#    y 0.000000 1.584060 0.000000 
#    z 0.000000 0.000000 1.554490 
# 
# From -- ./inp_files/56053.got.cif
#   From: 2010.05.17/outbox.cif.g08.bks.cpg/sg65_29_cif.got.tgz:56053.got - 2010.06.03 17:01:31.
