data_PCOD9482573
_publ_section_title
;
Structure prediction by ZEFSAII (Michael W. Deem and Ramdas Pophale) SiO2 
 PCOD9482573
Probable space group: C M M M
;
_chemical_formula_sum "Si O2"
_cell_formula_units_Z 72
_cell_length_a 8.640746
_cell_length_b 23.886921
_cell_length_c 21.572007
_cell_angle_alpha 90.000000
_cell_angle_beta 90.000000
_cell_angle_gamma 90.000000
_cell_volume 4452.479871
_symmetry_space_group_name_H-M "C M M M"
_symmetry_group_IT_number 65
_symmetry_cell_setting 'orthorhombic'
loop_
_space_group_symop_operation_xyz
x,y,z
-x,-y,z
x,-y,-z
-x,y,-z
-x,-y,-z
x,y,-z
-x,y,z
x,-y,z
1/2+x,1/2+y,z
1/2-x,1/2-y,z
1/2+x,1/2-y,-z
1/2-x,1/2+y,-z
1/2-x,1/2-y,-z
1/2+x,1/2+y,-z
1/2-x,1/2+y,z
1/2+x,1/2-y,z
loop_
_atom_site_type_symbol
_atom_site_label
_atom_site_fract_x
_atom_site_fract_y
_atom_site_fract_z
Si Si1 0.685344 0.312580 0.500000
Si Si2 0.686354 0.813079 0.263832
Si Si3 0.685923 0.500000 0.573212
Si Si4 0.814468 0.313415 0.126750
Si Si5 0.684131 0.686198 0.000000
Si Si6 0.313540 0.117833 0.615824
O O1 0.500000 0.312446 0.500000
O O2 0.750000 0.250000 0.500000
O O3 0.747296 0.344748 0.439806
O O4 0.500000 0.808847 0.265328
O O5 0.750000 0.750000 0.271941
O O6 0.728078 0.835624 0.195078
O O7 0.734967 0.853585 0.319416
O O8 0.500000 0.500000 0.575801
O O9 0.730425 0.500000 0.500000
O O10 0.751213 0.555522 0.605302
O O11 0.750000 0.250000 0.128489
O O12 0.744273 0.339871 0.064430
O O13 0.000000 0.312249 0.120802
O O14 0.750000 0.750000 0.000000
O O15 0.500000 0.688704 0.000000
O O16 0.500000 0.117532 0.612867
#
# Coordination Sequence:
#
# PCOD9482573 Si02
#       6
#     8  16   8  16   8  16
#     4  12  24  37  52  75 102 130 162 198 238 290
#     4   9  19  32  48  71  98 128 162 197 240 291
#     4  11  23  39  57  77  98 123 160 203 248 296
#     4   9  15  25  39  58  87 122 157 193 231 274
#     4  10  16  22  34  56  84 119 162 197 226 268
#     4  11  22  37  56  76  97 126 162 203 248 293
#
# _framework density 16.170763000000001
#
# number of rings (size 3 to 8) (size 9 to 14) (size 15 to 20)
#    0.000    1.889    1.111    5.667    0.000    4.889 
#    0.000    0.000    0.000    0.000    0.000    0.000 
#    0.000    0.889    0.000   10.222    0.000    4.667 
#
# Total GULP energy -200738.617636 kJ/mol
# GULP energy per Si atom -5576.072712 kJ/mol
# Density = 1.613396 g / cm^3
# Si number density = 16.170763 Si / 1000 Ang^3
#
#
#
# Elastic Constant Matrix: (Units=GPa)
#
#
# Indices 1 2 3 4 5 6 
#
# 1 74.7660 29.6487 56.3625 0.0000 0.0000 0.0000
# 2 29.6487 94.3410 68.6362 0.0000 0.0000 0.0000
# 3 56.3625 68.6362 198.1924 0.0000 0.0000 0.0000
# 4 0.0000 0.0000 0.0000 2.5206 0.0000 0.0000
# 5 0.0000 0.0000 0.0000 0.0000 17.8201 0.0000
# 6 0.0000 0.0000 0.0000 0.0000 0.0000 20.4307
#
#
#
# Elastic Compliance Matrix: (Units=1/GPa)
#
#
# Indices 1 2 3 4 5 6 
#
# 1 0.017457 -0.002506 -0.004097 0.000000 0.000000 0.000000
# 2 -0.002506 0.014530 -0.004319 0.000000 0.000000 0.000000
# 3 -0.004097 -0.004319 0.007706 0.000000 0.000000 0.000000
# 4 0.000000 0.000000 0.000000 0.396737 0.000000 0.000000
# 5 0.000000 0.000000 0.000000 0.000000 0.056116 0.000000
# 6 0.000000 0.000000 0.000000 0.000000 0.000000 0.048946
#
#
# Mechanical properties :
#
#
# Convention : Reuss Voigt Hill
#
# Bulk Modulus (GPa) = 56.02293 75.17714 65.60003
# Shear Modulus (GPa) = 8.78294 22.33107 15.55701
#
# Velocity S-wave (km/s) = 2.33306 3.72015 3.10505
# Velocity P-wave (km/s) = 6.47899 8.06493 7.31507
#
# Compressibility (1/GPa) = 0.01784983
#
# Stress axis : x y z
#
# Youngs Moduli (GPa) = 57.28341 68.82453 129.76182
#
# Poissons Ratio (x) = 0.17246 0.53160
# Poissons Ratio (y) = 0.14354 0.56047
# Poissons Ratio (z) = 0.23467 0.29727
#
# Static dielectric constant tensor:
#      x y z
#    x 1.541320 0.000000 0.000000 
#    y 0.000000 1.496390 0.000000 
#    z 0.000000 0.000000 1.606340 
# 
# From -- ./inp_files/59345.got.cif
#   From: 2010.05.17/outbox.cif.g08.bks.cpg/sg65_30_cif.got.tgz:59345.got - 2010.06.03 17:01:31.
