data_PCOD9482958
_publ_section_title
;
Structure prediction by ZEFSAII (Michael W. Deem and Ramdas Pophale) SiO2 
 PCOD9482958
Probable space group: C M M M
;
_chemical_formula_sum "Si O2"
_cell_formula_units_Z 88
_cell_length_a 8.616049
_cell_length_b 24.306028
_cell_length_c 23.897527
_cell_angle_alpha 90.000000
_cell_angle_beta 90.000000
_cell_angle_gamma 90.000000
_cell_volume 5004.666185
_symmetry_space_group_name_H-M "C M M M"
_symmetry_group_IT_number 65
_symmetry_cell_setting 'orthorhombic'
loop_
_space_group_symop_operation_xyz
x,y,z
-x,-y,z
x,-y,-z
-x,y,-z
-x,-y,-z
x,y,-z
-x,y,z
x,-y,z
1/2+x,1/2+y,z
1/2-x,1/2-y,z
1/2+x,1/2-y,-z
1/2-x,1/2+y,-z
1/2-x,1/2-y,-z
1/2+x,1/2+y,-z
1/2-x,1/2+y,z
1/2+x,1/2-y,z
loop_
_atom_site_type_symbol
_atom_site_label
_atom_site_fract_x
_atom_site_fract_y
_atom_site_fract_z
Si Si1 0.187307 0.435945 0.881014
Si Si2 0.320708 0.566705 0.000000
Si Si3 0.189618 0.121944 0.438829
Si Si4 0.182101 0.613828 0.232608
Si Si5 0.314666 0.688625 0.329105
Si Si6 0.819028 0.000000 0.415491
Si Si7 0.675956 0.000000 0.700853
O O1 0.238619 0.500000 0.873075
O O2 0.240791 0.416481 0.942047
O O3 0.241763 0.397331 0.830193
O O4 0.000000 0.436893 0.878941
O O5 0.312594 0.500000 0.000000
O O6 0.500000 0.583018 0.000000
O O7 0.233063 0.144817 0.500000
O O8 0.242604 0.155384 0.384334
O O9 0.245070 0.058547 0.435418
O O10 0.000000 0.120871 0.436482
O O11 0.265743 0.656647 0.272958
O O12 0.192016 0.554248 0.262171
O O13 0.000000 0.629044 0.229826
O O14 0.500000 0.690363 0.331866
O O15 0.250000 0.750000 0.329483
O O16 0.798039 0.000000 0.348858
O O17 0.000000 0.000000 0.431201
O O18 0.500000 0.000000 0.676989
#
# Coordination Sequence:
#
# PCOD9482958 Si02
#       7
#    16   8  16  16  16   8   8
#     4   9  16  28  47  71 101 140 177 205 242 298
#     4   9  17  27  39  65 106 145 176 209 245 284
#     4   9  18  32  52  77 102 130 165 206 254 309
#     4  10  19  33  53  77 104 135 171 211 257 306
#     4  11  23  38  55  74  98 130 172 219 264 308
#     4  10  17  30  52  78 103 131 165 202 248 309
#     4  10  18  29  49  76 107 134 160 204 259 308
#
# _framework density 17.583589
#
# number of rings (size 3 to 8) (size 9 to 14) (size 15 to 20)
#    0.000    2.273    2.727    1.091    0.000    3.273 
#    0.000    0.000    0.000    4.909    0.000    0.636 
#    0.000    0.000    0.000    0.000    0.000    0.000 
#
# Total GULP energy -245253.315707 kJ/mol
# GULP energy per Si atom -5573.938993 kJ/mol
# Density = 1.754357 g / cm^3
# Si number density = 17.583589 Si / 1000 Ang^3
#
#
#
# Elastic Constant Matrix: (Units=GPa)
#
#
# Indices 1 2 3 4 5 6 
#
# 1 20.1640 23.6818 29.2734 0.0000 0.0000 0.0000
# 2 23.6818 99.6314 61.6403 0.0000 0.0000 0.0000
# 3 29.2734 61.6403 171.1396 0.0000 0.0000 0.0000
# 4 0.0000 0.0000 0.0000 43.2507 0.0000 0.0000
# 5 0.0000 0.0000 0.0000 0.0000 11.6390 0.0000
# 6 0.0000 0.0000 0.0000 0.0000 0.0000 12.0908
#
#
#
# Elastic Compliance Matrix: (Units=1/GPa)
#
#
# Indices 1 2 3 4 5 6 
#
# 1 0.077354 -0.013125 -0.008504 0.000000 0.000000 0.000000
# 2 -0.013125 0.015142 -0.003209 0.000000 0.000000 0.000000
# 3 -0.008504 -0.003209 0.008453 0.000000 0.000000 0.000000
# 4 0.000000 0.000000 0.000000 0.023121 0.000000 0.000000
# 5 0.000000 0.000000 0.000000 0.000000 0.085918 0.000000
# 6 0.000000 0.000000 0.000000 0.000000 0.000000 0.082708
#
#
# Mechanical properties :
#
#
# Convention : Reuss Voigt Hill
#
# Bulk Modulus (GPa) = 19.50319 57.79175 38.64747
# Shear Modulus (GPa) = 13.90961 25.15207 19.53084
#
# Velocity S-wave (km/s) = 2.81562 3.78620 3.33640
# Velocity P-wave (km/s) = 4.65683 7.21471 6.07199
#
# Compressibility (1/GPa) = 0.05127367
#
# Stress axis : x y z
#
# Youngs Moduli (GPa) = 12.92753 66.04162 118.29455
#
# Poissons Ratio (x) = 0.86682 1.00598
# Poissons Ratio (y) = 0.16968 0.37957
# Poissons Ratio (z) = 0.10994 0.21191
#
# Static dielectric constant tensor:
#      x y z
#    x 1.612200 0.000000 0.000000 
#    y 0.000000 1.579120 0.000000 
#    z 0.000000 0.000000 1.621250 
# 
# From -- ./inp_files/67623.got.cif
#   From: 2010.05.17/outbox.cif.g08.bks.cpg/sg65_34_cif.got.tgz:67623.got - 2010.06.03 17:01:31.
