data_PCOD9482832
_publ_section_title
;
Structure prediction by ZEFSAII (Michael W. Deem and Ramdas Pophale) SiO2 
 PCOD9482832
Probable space group: C M M M
;
_chemical_formula_sum "Si O2"
_cell_formula_units_Z 104
_cell_length_a 23.957044
_cell_length_b 14.222369
_cell_length_c 14.737256
_cell_angle_alpha 90.000000
_cell_angle_beta 90.000000
_cell_angle_gamma 90.000000
_cell_volume 5021.365108
_symmetry_space_group_name_H-M "C M M M"
_symmetry_group_IT_number 65
_symmetry_cell_setting 'orthorhombic'
loop_
_space_group_symop_operation_xyz
x,y,z
-x,-y,z
x,-y,-z
-x,y,-z
-x,-y,-z
x,y,-z
-x,y,z
x,-y,z
1/2+x,1/2+y,z
1/2-x,1/2-y,z
1/2+x,1/2-y,-z
1/2-x,1/2+y,-z
1/2-x,1/2-y,-z
1/2+x,1/2+y,-z
1/2-x,1/2+y,z
1/2+x,1/2-y,z
loop_
_atom_site_type_symbol
_atom_site_label
_atom_site_fract_x
_atom_site_fract_y
_atom_site_fract_z
Si Si1 0.230071 0.356690 0.101122
Si Si2 0.000000 0.885092 0.396111
Si Si3 0.888759 0.115551 0.708769
Si Si4 0.355751 0.606229 0.100821
Si Si5 0.168823 0.613112 0.282949
Si Si6 0.563689 0.114965 0.395888
Si Si7 0.276596 0.385113 0.395583
O O1 0.250000 0.250000 0.097502
O O2 0.289832 0.403071 0.123390
O O3 0.184510 0.367472 0.178767
O O4 0.212263 0.386386 0.000000
O O5 0.055906 0.856218 0.344260
O O6 0.000000 0.853080 0.500000
O O7 0.000000 0.000000 0.397730
O O8 0.884903 0.151049 0.812302
O O9 0.832746 0.143300 0.656134
O O10 0.888494 0.000000 0.711979
O O11 0.377872 0.500000 0.093605
O O12 0.360271 0.650137 0.000000
O O13 0.167773 0.500000 0.291183
O O14 0.110647 0.647382 0.325157
O O15 0.221233 0.646651 0.343200
O O16 0.577943 0.141733 0.500000
O O17 0.500000 0.144709 0.376575
O O18 0.563463 0.000000 0.394534
O O19 0.277108 0.355489 0.500000
O O20 0.275940 0.500000 0.395123
#
# Coordination Sequence:
#
# PCOD9482832 Si02
#       7
#    16   8  16  16  16  16  16
#     4  10  20  32  46  67  93 121 153 191 236 285
#     4   9  16  24  35  55  87 121 148 178 220 271
#     4   9  15  24  37  58  86 116 146 179 221 268
#     4   9  16  28  46  66  88 113 143 183 229 274
#     4  10  17  27  46  72  97 122 157 195 234 279
#     4   8  14  25  43  71 105 133 156 188 231 280
#     4   9  15  22  36  61  89 114 144 182 219 259
#
# _framework density 20.711500000000001
#
# number of rings (size 3 to 8) (size 9 to 14) (size 15 to 20)
#    0.000    2.846    1.538    1.846    0.000    4.615 
#    0.000    0.385    0.000    4.615    2.000    2.154 
#    0.000    0.000    0.000    0.000    0.000    0.000 
#
# Total GULP energy -290305.420261 kJ/mol
# GULP energy per Si atom -5582.796543 kJ/mol
# Density = 2.066436 g / cm^3
# Si number density = 20.711500 Si / 1000 Ang^3
#
#
#
# Elastic Constant Matrix: (Units=GPa)
#
#
# Indices 1 2 3 4 5 6 
#
# 1 160.9565 11.5128 124.7070 0.0000 0.0000 0.0000
# 2 11.5128 51.9999 3.7344 0.0000 0.0000 0.0000
# 3 124.7070 3.7344 215.2670 0.0000 0.0000 0.0000
# 4 0.0000 0.0000 0.0000 20.4585 0.0000 0.0000
# 5 0.0000 0.0000 0.0000 0.0000 35.9074 0.0000
# 6 0.0000 0.0000 0.0000 0.0000 0.0000 13.6790
#
#
#
# Elastic Compliance Matrix: (Units=1/GPa)
#
#
# Indices 1 2 3 4 5 6 
#
# 1 0.011490 -0.002069 -0.006621 0.000000 0.000000 0.000000
# 2 -0.002069 0.019627 0.000858 0.000000 0.000000 0.000000
# 3 -0.006621 0.000858 0.008466 0.000000 0.000000 0.000000
# 4 0.000000 0.000000 0.000000 0.048879 0.000000 0.000000
# 5 0.000000 0.000000 0.000000 0.000000 0.027849 0.000000
# 6 0.000000 0.000000 0.000000 0.000000 0.000000 0.073105
#
#
# Mechanical properties :
#
#
# Convention : Reuss Voigt Hill
#
# Bulk Modulus (GPa) = 41.80452 78.68131 60.24291
# Shear Modulus (GPa) = 23.46827 33.22694 28.34760
#
# Velocity S-wave (km/s) = 3.36981 4.00969 3.70359
# Velocity P-wave (km/s) = 5.94717 7.71417 6.88757
#
# Compressibility (1/GPa) = 0.02392086
#
# Stress axis : x y z
#
# Youngs Moduli (GPa) = 87.02898 50.94974 118.12018
#
# Poissons Ratio (x) = 0.10539 0.78203
# Poissons Ratio (y) = 0.18002 -0.10133
# Poissons Ratio (z) = 0.57619 -0.04371
#
# Static dielectric constant tensor:
#      x y z
#    x 1.699960 0.000000 0.000000 
#    y 0.000000 1.728040 0.000000 
#    z 0.000000 0.000000 1.752340 
# 
# From -- ./inp_files/44595.got.cif
#   From: 2010.05.17/outbox.cif.g08.bks.cpg/sg65_23_cif.got.tgz:44595.got - 2010.06.03 17:01:31.
