data_PCOD9482543
_publ_section_title
;
Structure prediction by ZEFSAII (Michael W. Deem and Ramdas Pophale) SiO2 
 PCOD9482543
Probable space group: C M M M
;
_chemical_formula_sum "Si O2"
_cell_formula_units_Z 72
_cell_length_a 8.776048
_cell_length_b 15.449523
_cell_length_c 24.978734
_cell_angle_alpha 90.000000
_cell_angle_beta 90.000000
_cell_angle_gamma 90.000000
_cell_volume 3386.760519
_symmetry_space_group_name_H-M "C M M M"
_symmetry_group_IT_number 65
_symmetry_cell_setting 'orthorhombic'
loop_
_space_group_symop_operation_xyz
x,y,z
-x,-y,z
x,-y,-z
-x,y,-z
-x,-y,-z
x,y,-z
-x,y,z
x,-y,z
1/2+x,1/2+y,z
1/2-x,1/2-y,z
1/2+x,1/2-y,-z
1/2-x,1/2+y,-z
1/2-x,1/2-y,-z
1/2+x,1/2+y,-z
1/2-x,1/2+y,z
1/2+x,1/2-y,z
loop_
_atom_site_type_symbol
_atom_site_label
_atom_site_fract_x
_atom_site_fract_y
_atom_site_fract_z
Si Si1 0.179517 0.845495 0.332091
Si Si2 0.682212 0.651590 0.000000
Si Si3 0.316972 0.152133 0.891617
Si Si4 0.317787 0.152239 0.225580
Si Si5 0.172827 0.396725 0.441217
O O1 0.250000 0.750000 0.332395
O O2 0.251711 0.889982 0.279424
O O3 0.223740 0.880150 0.390203
O O4 0.000000 0.843252 0.325268
O O5 0.750000 0.750000 0.000000
O O6 0.743845 0.611445 0.944705
O O7 0.500000 0.654895 0.000000
O O8 0.500000 0.155891 0.897732
O O9 0.250000 0.250000 0.889463
O O10 0.282617 0.112988 0.832964
O O11 0.500000 0.157395 0.230350
O O12 0.250000 0.250000 0.223992
O O13 0.225173 0.364800 0.500000
O O14 0.161815 0.500000 0.445024
O O15 0.000000 0.362928 0.431810
#
# Coordination Sequence:
#
# PCOD9482543 Si02
#       5
#    16   8  16  16  16
#     4  11  21  32  49  72  99 128 159 197 236 279
#     4  10  16  20  28  42  64  96 135 178 219 264
#     4   9  15  22  32  46  67  98 137 180 222 265
#     4   9  16  26  40  57  80 111 147 187 230 275
#     4   9  19  37  58  76  96 124 156 191 234 283
#
# _framework density 21.259252
#
# number of rings (size 3 to 8) (size 9 to 14) (size 15 to 20)
#    0.000    2.444    0.000    7.667    0.000    4.000 
#    0.000    1.111    0.000    0.000    0.000    0.000 
#    0.000    0.000    0.000    1.000    0.000   20.444 
#
# Total GULP energy -200638.057844 kJ/mol
# GULP energy per Si atom -5573.279385 kJ/mol
# Density = 2.121086 g / cm^3
# Si number density = 21.259252 Si / 1000 Ang^3
#
#
#
# Elastic Constant Matrix: (Units=GPa)
#
#
# Indices 1 2 3 4 5 6 
#
# 1 140.5655 6.2779 99.6378 0.0000 0.0000 0.0000
# 2 6.2779 23.8944 16.7338 0.0000 0.0000 0.0000
# 3 99.6378 16.7338 245.8570 0.0000 0.0000 0.0000
# 4 0.0000 0.0000 0.0000 32.2781 0.0000 0.0000
# 5 0.0000 0.0000 0.0000 0.0000 49.9334 0.0000
# 6 0.0000 0.0000 0.0000 0.0000 0.0000 3.3783
#
#
#
# Elastic Compliance Matrix: (Units=1/GPa)
#
#
# Indices 1 2 3 4 5 6 
#
# 1 0.009983 0.000221 -0.004061 0.000000 0.000000 0.000000
# 2 0.000221 0.043950 -0.003081 0.000000 0.000000 0.000000
# 3 -0.004061 -0.003081 0.005923 0.000000 0.000000 0.000000
# 4 0.000000 0.000000 0.000000 0.030981 0.000000 0.000000
# 5 0.000000 0.000000 0.000000 0.000000 0.020027 0.000000
# 6 0.000000 0.000000 0.000000 0.000000 0.000000 0.296009
#
#
# Mechanical properties :
#
#
# Convention : Reuss Voigt Hill
#
# Bulk Modulus (GPa) = 21.73228 72.84622 47.28925
# Shear Modulus (GPa) = 11.46652 36.29577 23.88115
#
# Velocity S-wave (km/s) = 2.32495 4.13642 3.35525
# Velocity P-wave (km/s) = 4.17754 7.55998 6.10759
#
# Compressibility (1/GPa) = 0.04601450
#
# Stress axis : x y z
#
# Youngs Moduli (GPa) = 100.17440 22.75292 168.84021
#
# Poissons Ratio (x) = -0.00503 0.68560
# Poissons Ratio (y) = -0.02214 0.52019
# Poissons Ratio (z) = 0.40677 0.07010
#
# Static dielectric constant tensor:
#      x y z
#    x 1.723150 0.000000 0.000000 
#    y 0.000000 1.779040 0.000000 
#    z 0.000000 0.000000 1.901970 
# 
# From -- ./inp_files/67251.got.cif
#   From: 2010.05.17/outbox.cif.g08.bks.cpg/sg65_34_cif.got.tgz:67251.got - 2010.06.03 17:01:31.
