data_PCOD9482593
_publ_section_title
;
Structure prediction by ZEFSAII (Michael W. Deem and Ramdas Pophale) SiO2 
 PCOD9482593
Probable space group: C M M M
;
_chemical_formula_sum "Si O2"
_cell_formula_units_Z 88
_cell_length_a 18.674597
_cell_length_b 8.638673
_cell_length_c 29.618872
_cell_angle_alpha 90.000000
_cell_angle_beta 90.000000
_cell_angle_gamma 90.000000
_cell_volume 4778.227114
_symmetry_space_group_name_H-M "C M M M"
_symmetry_group_IT_number 65
_symmetry_cell_setting 'orthorhombic'
loop_
_space_group_symop_operation_xyz
x,y,z
-x,-y,z
x,-y,-z
-x,y,-z
-x,-y,-z
x,y,-z
-x,y,z
x,-y,z
1/2+x,1/2+y,z
1/2-x,1/2-y,z
1/2+x,1/2-y,-z
1/2-x,1/2+y,-z
1/2-x,1/2-y,-z
1/2+x,1/2+y,-z
1/2-x,1/2+y,z
1/2+x,1/2-y,z
loop_
_atom_site_type_symbol
_atom_site_label
_atom_site_fract_x
_atom_site_fract_y
_atom_site_fract_z
Si Si1 0.169003 0.814283 0.192269
Si Si2 0.831697 0.315950 0.000000
Si Si3 0.331086 0.685101 0.092097
Si Si4 0.170156 0.813933 0.637867
Si Si5 0.583450 0.814507 0.722904
Si Si6 0.082726 0.811612 0.449380
O O1 0.250000 0.750000 0.196064
O O2 0.139627 0.776644 0.141887
O O3 0.121213 0.744888 0.231735
O O4 0.171912 0.000000 0.196182
O O5 0.750000 0.250000 0.000000
O O6 0.865153 0.256132 0.046912
O O7 0.671560 0.000000 0.000000
O O8 0.328778 0.500000 0.087274
O O9 0.250000 0.750000 0.093580
O O10 0.250000 0.750000 0.641572
O O11 0.123588 0.756517 0.679936
O O12 0.133300 0.759957 0.591127
O O13 0.171836 0.000000 0.638105
O O14 0.500000 0.770487 0.722355
O O15 0.588850 0.000000 0.720948
O O16 0.103870 0.761447 0.500000
O O17 0.000000 0.765169 0.441633
O O18 0.083495 0.000000 0.449353
#
# Coordination Sequence:
#
# PCOD9482593 Si02
#       6
#    16   8  16  16  16  16
#     4  10  20  34  54  78 105 137 173 215 262 313
#     4  10  16  22  36  60  93 132 169 206 249 299
#     4   9  16  26  41  64  95 130 166 206 252 301
#     4  11  22  36  56  81 110 143 178 218 263 312
#     4  11  24  40  57  77 103 135 172 217 266 317
#     4   8  15  30  53  80 108 140 180 222 262 306
#
# _framework density 18.416872000000001
#
# number of rings (size 3 to 8) (size 9 to 14) (size 15 to 20)
#    0.000    2.182    0.000    5.727    0.000    4.727 
#    0.000    0.000    0.000    1.636    0.000    7.000 
#    0.000    5.091    0.000    0.000    0.000    0.000 
#
# Total GULP energy -245470.108282 kJ/mol
# GULP energy per Si atom -5578.866097 kJ/mol
# Density = 1.837495 g / cm^3
# Si number density = 18.416872 Si / 1000 Ang^3
#
#
#
# Elastic Constant Matrix: (Units=GPa)
#
#
# Indices 1 2 3 4 5 6 
#
# 1 96.9652 38.1549 95.1023 0.0000 0.0000 0.0000
# 2 38.1549 65.7423 60.6754 0.0000 0.0000 0.0000
# 3 95.1023 60.6754 211.3412 0.0000 0.0000 0.0000
# 4 0.0000 0.0000 0.0000 -8.6332 0.0000 0.0000
# 5 0.0000 0.0000 0.0000 0.0000 -31.7196 0.0000
# 6 0.0000 0.0000 0.0000 0.0000 0.0000 10.7947
#
#
#
# Elastic Compliance Matrix: (Units=1/GPa)
#
#
# Indices 1 2 3 4 5 6 
#
# 1 0.019330 -0.004341 -0.007452 0.000000 0.000000 0.000000
# 2 -0.004341 0.021669 -0.004268 0.000000 0.000000 0.000000
# 3 -0.007452 -0.004268 0.009310 0.000000 0.000000 0.000000
# 4 0.000000 0.000000 0.000000 -0.115832 0.000000 0.000000
# 5 0.000000 0.000000 0.000000 0.000000 -0.031526 0.000000
# 6 0.000000 0.000000 0.000000 0.000000 0.000000 0.092638
#
#
# Mechanical properties :
#
#
# Convention : Reuss Voigt Hill
#
# Bulk Modulus (GPa) = 54.98135 84.65709 69.81922
# Shear Modulus (GPa) = 148.04491 6.09613 77.07052
#
# Velocity S-wave (km/s) = 8.97552 1.82134 6.47600
# Velocity P-wave (km/s) = 11.71887 7.10563 9.69077
#
# Compressibility (1/GPa) = 0.01818799
#
# Stress axis : x y z
#
# Youngs Moduli (GPa) = 51.73294 46.14888 107.40682
#
# Poissons Ratio (x) = 0.20032 0.80042
# Poissons Ratio (y) = 0.22456 0.45839
# Poissons Ratio (z) = 0.38552 0.19695
#
# Static dielectric constant tensor:
#      x y z
#    x 1.598910 0.000000 0.000000 
#    y 0.000000 1.619000 0.000000 
#    z 0.000000 0.000000 1.673780 
# 
# From -- ./inp_files/77973.got.cif
#   From: 2010.05.17/outbox.cif.g08.bks.cpg/sg65_39_cif.got.tgz:77973.got - 2010.06.03 17:01:31.
