data_PCOD9482299
_publ_section_title
;
Structure prediction by ZEFSAII (Michael W. Deem and Ramdas Pophale) SiO2 
 PCOD9482299
Probable space group: C M C A
;
_chemical_formula_sum "Si O2"
_cell_formula_units_Z 64
_cell_length_a 21.064738
_cell_length_b 14.362172
_cell_length_c 7.657089
_cell_angle_alpha 90.000000
_cell_angle_beta 90.000000
_cell_angle_gamma 90.000000
_cell_volume 2316.540409
_symmetry_space_group_name_H-M "C M C A"
_symmetry_group_IT_number 64
_symmetry_cell_setting 'orthorhombic'
loop_
_space_group_symop_operation_xyz
x,y,z
-x,1/2-y,1/2+z
x,-y,-z
-x,1/2+y,1/2-z
-x,-y,-z
x,1/2+y,1/2-z
-x,y,z
x,1/2-y,1/2+z
1/2+x,1/2+y,z
1/2-x,-y,1/2+z
1/2+x,1/2-y,-z
1/2-x,y,1/2-z
1/2-x,1/2-y,-z
1/2+x,y,1/2-z
1/2-x,1/2+y,z
1/2+x,-y,1/2+z
loop_
_atom_site_type_symbol
_atom_site_label
_atom_site_fract_x
_atom_site_fract_y
_atom_site_fract_z
Si Si1 0.118695 0.937432 0.850663
Si Si2 0.744347 0.859554 0.460673
Si Si3 0.429967 0.737857 0.323125
Si Si4 0.377802 0.388323 0.386350
O O1 0.082565 0.842063 0.820286
O O2 0.111073 0.010228 0.690582
O O3 0.189686 0.908683 0.923996
O O4 0.088573 0.000000 0.000000
O O5 0.750000 0.879029 0.250000
O O6 0.750000 0.750000 0.500000
O O7 0.815180 0.891179 0.506527
O O8 0.500000 0.778874 0.317450
O O9 0.424154 0.673027 0.494641
O O10 0.377322 0.817619 0.284454
#
# Coordination Sequence:
#
# PCOD9482299 Si02
#       4
#    16  16  16  16
#     4  12  27  48  79 119 159 213 273 342 422 507
#     4  12  25  48  78 113 158 205 260 340 426 506
#     4  12  28  51  80 115 165 227 286 347 411 490
#     4  12  26  49  79 117 163 213 278 345 421 501
#
# _framework density 27.627407000000002
#
# number of rings (size 3 to 8) (size 9 to 14) (size 15 to 20)
#    0.000    0.000    5.000    4.500    0.000    7.500 
#    0.000    0.000    0.000    0.000    0.000    0.000 
#    0.000    0.000    0.000    0.000    0.000    0.000 
#
# Total GULP energy -178835.265647 kJ/mol
# GULP energy per Si atom -5588.602051 kJ/mol
# Density = 2.756453 g / cm^3
# Si number density = 27.627407 Si / 1000 Ang^3
#
#
#
# Elastic Constant Matrix: (Units=GPa)
#
#
# Indices 1 2 3 4 5 6 
#
# 1 99.0679 15.4037 26.6881 0.0000 0.0000 0.0000
# 2 15.4037 199.8591 18.9021 0.0000 0.0000 0.0000
# 3 26.6881 18.9021 125.9583 0.0000 0.0000 0.0000
# 4 0.0000 0.0000 0.0000 72.7636 0.0000 0.0000
# 5 0.0000 0.0000 0.0000 0.0000 35.5071 0.0000
# 6 0.0000 0.0000 0.0000 0.0000 0.0000 16.0574
#
#
#
# Elastic Compliance Matrix: (Units=1/GPa)
#
#
# Indices 1 2 3 4 5 6 
#
# 1 0.010781 -0.000624 -0.002191 0.000000 0.000000 0.000000
# 2 -0.000624 0.005112 -0.000635 0.000000 0.000000 0.000000
# 3 -0.002191 -0.000635 0.008499 0.000000 0.000000 0.000000
# 4 0.000000 0.000000 0.000000 0.013743 0.000000 0.000000
# 5 0.000000 0.000000 0.000000 0.000000 0.028163 0.000000
# 6 0.000000 0.000000 0.000000 0.000000 0.000000 0.062277
#
#
# Mechanical properties :
#
#
# Convention : Reuss Voigt Hill
#
# Bulk Modulus (GPa) = 57.16683 60.76369 58.96526
# Shear Modulus (GPa) = 35.38463 49.12504 42.25484
#
# Velocity S-wave (km/s) = 3.58268 4.22136 3.91507
# Velocity P-wave (km/s) = 6.15233 6.76769 6.46733
#
# Compressibility (1/GPa) = 0.01749266
#
# Stress axis : x y z
#
# Youngs Moduli (GPa) = 92.75376 195.63157 117.66655
#
# Poissons Ratio (x) = 0.12202 0.25778
# Poissons Ratio (y) = 0.05785 0.07471
# Poissons Ratio (z) = 0.20320 0.12421
#
# Static dielectric constant tensor:
#      x y z
#    x 2.295080 0.000000 0.000000 
#    y 0.000000 2.098690 0.000000 
#    z 0.000000 0.000000 2.607590 
# 
# From -- ./inp_files/8949.got.cif
#   From: 2010.05.17/outbox.cif.g08.bks.cpg/sg64_5_cif.got.tgz:8949.got - 2010.06.03 16:29:19.
