data_PCOD9482792
_publ_section_title
;
Structure prediction by ZEFSAII (Michael W. Deem and Ramdas Pophale) SiO2 
 PCOD9482792
Probable space group: C M M M
;
_chemical_formula_sum "Si O2"
_cell_formula_units_Z 66
_cell_length_a 14.631440
_cell_length_b 20.896373
_cell_length_c 9.572443
_cell_angle_alpha 90.000000
_cell_angle_beta 90.000000
_cell_angle_gamma 90.000000
_cell_volume 2926.717278
_symmetry_space_group_name_H-M "C M M M"
_symmetry_group_IT_number 65
_symmetry_cell_setting 'orthorhombic'
loop_
_space_group_symop_operation_xyz
x,y,z
-x,-y,z
x,-y,-z
-x,y,-z
-x,-y,-z
x,y,-z
-x,y,z
x,-y,z
1/2+x,1/2+y,z
1/2-x,1/2-y,z
1/2+x,1/2-y,-z
1/2-x,1/2+y,-z
1/2-x,1/2-y,-z
1/2+x,1/2+y,-z
1/2-x,1/2+y,z
1/2+x,1/2-y,z
loop_
_atom_site_type_symbol
_atom_site_label
_atom_site_fract_x
_atom_site_fract_y
_atom_site_fract_z
Si Si1 0.000000 0.500000 0.500000
Si Si2 0.351507 0.500000 0.330800
Si Si3 0.644578 0.137765 0.849572
Si Si4 0.636821 0.000000 0.244425
Si Si5 0.865680 0.873206 0.837893
Si Si6 0.861712 0.249012 0.659922
O O1 0.078254 0.500000 0.381002
O O2 0.364027 0.500000 0.500000
O O3 0.243319 0.500000 0.291978
O O4 0.388063 0.564064 0.254235
O O5 0.755008 0.133469 0.842906
O O6 0.611093 0.183301 0.726575
O O7 0.615309 0.064839 0.836652
O O8 0.619403 0.165766 0.000000
O O9 0.894308 0.809126 0.756813
O O10 0.895133 0.878066 0.000000
O O11 0.890260 0.241517 0.500000
O O12 0.750000 0.250000 0.660774
#
# Coordination Sequence:
#
# PCOD9482792 Si02
#       6
#     2   8  16   8  16  16
#     4  12  24  36  46  64  76 100 134 202 252 288
#     4  10  17  27  42  59  83 112 147 181 209 250
#     4   9  17  29  44  59  78 103 134 173 215 260
#     4  10  21  32  47  59  78 101 143 182 238 272
#     4   9  16  25  38  58  84 112 140 168 201 241
#     4   9  16  24  38  60  84 106 132 166 203 242
#
# _framework density 22.550863
#
# number of rings (size 3 to 8) (size 9 to 14) (size 15 to 20)
#    0.000    2.667    0.606    2.182    1.697    8.727 
#    0.000    1.212    0.000    0.000    0.000    0.000 
#    0.000    0.000    0.000    0.000    0.000    2.424 
#
# Total GULP energy -184055.127352 kJ/mol
# GULP energy per Si atom -5577.428102 kJ/mol
# Density = 2.249954 g / cm^3
# Si number density = 22.550863 Si / 1000 Ang^3
#
#
#
# Elastic Constant Matrix: (Units=GPa)
#
#
# Indices 1 2 3 4 5 6 
#
# 1 82.9730 2.2228 2.5491 0.0000 0.0000 0.0000
# 2 2.2228 182.2548 100.1339 0.0000 0.0000 0.0000
# 3 2.5491 100.1339 217.7247 0.0000 0.0000 0.0000
# 4 0.0000 0.0000 0.0000 55.7700 0.0000 0.0000
# 5 0.0000 0.0000 0.0000 0.0000 -8.5106 0.0000
# 6 0.0000 0.0000 0.0000 0.0000 0.0000 -30.0331
#
#
#
# Elastic Compliance Matrix: (Units=1/GPa)
#
#
# Indices 1 2 3 4 5 6 
#
# 1 0.012058 -0.000093 -0.000098 0.000000 0.000000 0.000000
# 2 -0.000093 0.007343 -0.003376 0.000000 0.000000 0.000000
# 3 -0.000098 -0.003376 0.006147 0.000000 0.000000 0.000000
# 4 0.000000 0.000000 0.000000 0.017931 0.000000 0.000000
# 5 0.000000 0.000000 0.000000 0.000000 -0.117500 0.000000
# 6 0.000000 0.000000 0.000000 0.000000 0.000000 -0.033297
#
#
# Mechanical properties :
#
#
# Convention : Reuss Voigt Hill
#
# Bulk Modulus (GPa) = 54.31098 76.97379 65.64239
# Shear Modulus (GPa) = -53.16502 28.64836 -12.25833
#
# Velocity S-wave (km/s) = -4.86074 3.56812 -2.33402
# Velocity P-wave (km/s) = 2.71410 7.15422 4.68062
#
# Compressibility (1/GPa) = 0.01841248
#
# Stress axis : x y z
#
# Youngs Moduli (GPa) = 82.93501 136.18882 162.68811
#
# Poissons Ratio (x) = 0.01266 0.01601
# Poissons Ratio (y) = 0.00771 0.54922
# Poissons Ratio (z) = 0.00816 0.45976
#
# Static dielectric constant tensor:
#      x y z
#    x 1.852780 0.000000 0.000000 
#    y 0.000000 1.811030 0.000000 
#    z 0.000000 0.000000 1.769290 
# 
# From -- ./inp_files/10970.got.cif
#   From: 2010.05.17/outbox.cif.g08.bks.cpg/sg65_6_cif.got.tgz:10970.got - 2010.06.03 17:01:31.
