data_PCOD9482727
_publ_section_title
;
Structure prediction by ZEFSAII (Michael W. Deem and Ramdas Pophale) SiO2 
 PCOD9482727
Probable space group: C M M M
;
_chemical_formula_sum "Si O2"
_cell_formula_units_Z 104
_cell_length_a 24.462148
_cell_length_b 14.472336
_cell_length_c 14.973144
_cell_angle_alpha 90.000000
_cell_angle_beta 90.000000
_cell_angle_gamma 90.000000
_cell_volume 5300.858697
_symmetry_space_group_name_H-M "C M M M"
_symmetry_group_IT_number 65
_symmetry_cell_setting 'orthorhombic'
loop_
_space_group_symop_operation_xyz
x,y,z
-x,-y,z
x,-y,-z
-x,y,-z
-x,-y,-z
x,y,-z
-x,y,z
x,-y,z
1/2+x,1/2+y,z
1/2-x,1/2-y,z
1/2+x,1/2-y,-z
1/2-x,1/2+y,-z
1/2-x,1/2-y,-z
1/2+x,1/2+y,-z
1/2-x,1/2+y,z
1/2+x,1/2-y,z
loop_
_atom_site_type_symbol
_atom_site_label
_atom_site_fract_x
_atom_site_fract_y
_atom_site_fract_z
Si Si1 0.063250 0.857909 0.100077
Si Si2 0.285960 0.386762 0.603963
Si Si3 0.607974 0.390890 0.707741
Si Si4 0.335064 0.111326 0.605606
Si Si5 0.436613 0.864038 0.905361
Si Si6 0.062114 0.393536 0.292395
Si Si7 0.000000 0.886736 0.396025
O O1 0.099054 0.882233 0.185988
O O2 0.063289 0.746820 0.096386
O O3 0.000000 0.887506 0.115353
O O4 0.079411 0.889990 0.000000
O O5 0.295177 0.360148 0.500000
O O6 0.284720 0.500000 0.604493
O O7 0.335453 0.354761 0.666541
O O8 0.225327 0.355523 0.633023
O O9 0.608849 0.500000 0.688330
O O10 0.554104 0.354957 0.656612
O O11 0.338746 0.124798 0.500000
O O12 0.389435 0.150648 0.650937
O O13 0.335227 0.000000 0.621965
O O14 0.500000 0.893887 0.906884
O O15 0.416385 0.894689 0.809508
O O16 0.411207 0.893223 0.000000
O O17 0.056527 0.500000 0.321855
O O18 0.000000 0.354001 0.294752
O O19 0.000000 0.858653 0.500000
O O20 0.000000 0.000000 0.394986
#
# Coordination Sequence:
#
# PCOD9482727 Si02
#       7
#    16  16  16  16  16  16   8
#     4   9  17  29  43  59  82 114 147 174 209 259
#     4   8  14  25  41  60  83 113 147 176 202 245
#     4  10  17  25  40  63  85 109 142 181 219 242
#     4   8  14  25  41  62  88 116 142 166 198 246
#     4   8  15  28  44  61  83 113 141 165 203 257
#     4   9  16  25  42  70  93 106 129 170 213 248
#     4   9  16  24  35  57  87 109 129 168 220 258
#
# _framework density 19.619463
#
# number of rings (size 3 to 8) (size 9 to 14) (size 15 to 20)
#    0.000    3.308    0.769    2.308    0.000    2.769 
#    0.000    3.846    0.000    3.692    0.000    8.615 
#    0.000    0.000    0.000    0.000    0.000    0.000 
#
# Total GULP energy -289657.043378 kJ/mol
# GULP energy per Si atom -5570.327757 kJ/mol
# Density = 1.957481 g / cm^3
# Si number density = 19.619463 Si / 1000 Ang^3
#
#
#
# Elastic Constant Matrix: (Units=GPa)
#
#
# Indices 1 2 3 4 5 6 
#
# 1 162.8335 16.3409 101.5911 0.0000 0.0000 0.0000
# 2 16.3409 52.9276 -4.4181 0.0000 0.0000 0.0000
# 3 101.5911 -4.4181 101.4304 0.0000 0.0000 0.0000
# 4 0.0000 0.0000 0.0000 25.0250 0.0000 0.0000
# 5 0.0000 0.0000 0.0000 0.0000 12.6912 0.0000
# 6 0.0000 0.0000 0.0000 0.0000 0.0000 12.0607
#
#
#
# Elastic Compliance Matrix: (Units=1/GPa)
#
#
# Indices 1 2 3 4 5 6 
#
# 1 0.018902 -0.007443 -0.019256 0.000000 0.000000 0.000000
# 2 -0.007443 0.021894 0.008409 0.000000 0.000000 0.000000
# 3 -0.019256 0.008409 0.029512 0.000000 0.000000 0.000000
# 4 0.000000 0.000000 0.000000 0.039960 0.000000 0.000000
# 5 0.000000 0.000000 0.000000 0.000000 0.078795 0.000000
# 6 0.000000 0.000000 0.000000 0.000000 0.000000 0.082914
#
#
# Mechanical properties :
#
#
# Convention : Reuss Voigt Hill
#
# Bulk Modulus (GPa) = 29.65062 60.46880 45.05971
# Shear Modulus (GPa) = 15.63476 23.53388 19.58432
#
# Velocity S-wave (km/s) = 2.82601 3.46716 3.16287
# Velocity P-wave (km/s) = 5.07879 6.84953 6.02951
#
# Compressibility (1/GPa) = 0.03372611
#
# Stress axis : x y z
#
# Youngs Moduli (GPa) = 52.90435 45.67533 33.88459
#
# Poissons Ratio (x) = 0.33997 0.65249
# Poissons Ratio (y) = 0.39378 -0.28492
# Poissons Ratio (z) = 1.01874 -0.38407
#
# Static dielectric constant tensor:
#      x y z
#    x 1.696650 0.000000 0.000000 
#    y 0.000000 1.768800 0.000000 
#    z 0.000000 0.000000 1.701760 
# 
# From -- ./inp_files/44637.got.cif
#   From: 2010.05.17/outbox.cif.g08.bks.cpg/sg65_23_cif.got.tgz:44637.got - 2010.06.03 17:01:31.
