data_PCOD9482448
_publ_section_title
;
Structure prediction by ZEFSAII (Michael W. Deem and Ramdas Pophale) SiO2 
 PCOD9482448
Probable space group: C M C A
;
_chemical_formula_sum "Si O2"
_cell_formula_units_Z 56
_cell_length_a 15.000000
_cell_length_b 12.000000
_cell_length_c 30.000000
_cell_angle_alpha 90.000000
_cell_angle_beta 90.000000
_cell_angle_gamma 90.000000
_cell_volume 5400.000000
_symmetry_space_group_name_H-M "C M C A"
_symmetry_group_IT_number 64
_symmetry_cell_setting 'orthorhombic'
loop_
_space_group_symop_operation_xyz
x,y,z
-x,1/2-y,1/2+z
x,-y,-z
-x,1/2+y,1/2-z
-x,-y,-z
x,1/2+y,1/2-z
-x,y,z
x,1/2-y,1/2+z
1/2+x,1/2+y,z
1/2-x,-y,1/2+z
1/2+x,1/2-y,-z
1/2-x,y,1/2-z
1/2-x,1/2-y,-z
1/2+x,y,1/2-z
1/2-x,1/2+y,z
1/2+x,-y,1/2+z
loop_
_atom_site_type_symbol
_atom_site_label
_atom_site_fract_x
_atom_site_fract_y
_atom_site_fract_z
Si Si1 0.900378 0.800298 0.821675
Si Si2 0.900400 0.699982 0.921993
Si Si3 0.602068 0.314013 0.162680
Si Si4 0.350401 0.891983 0.244097
Si Si5 0.705781 0.409076 0.684374
Si Si6 0.757997 0.555885 0.602955
Si Si7 0.901446 0.566790 0.454158
O O1 0.893262 0.757923 0.872896
O O2 0.897454 0.692063 0.789787
O O3 0.809323 0.868546 0.811469
O O4 0.000000 0.852542 0.816732
O O5 0.817108 0.618548 0.925216
O O6 0.894946 0.800125 0.957441
O O7 0.000000 0.649558 0.924534
O O8 0.500000 0.308011 0.147051
O O9 0.606694 0.389181 0.207330
O O10 0.641334 0.195157 0.177551
O O11 0.672529 0.361203 0.127211
O O12 0.250000 0.845638 0.250000
O O13 0.334635 0.012769 0.222813
O O14 0.707554 0.487798 0.641182
O O15 0.820215 0.474666 0.575143
O O16 0.899002 0.500000 0.500000
O O17 0.000000 0.545211 0.433369
#
# Coordination Sequence:
#
# PCOD9482448 Si02
#       7
#    16  16  16  16  16  16  16
#     4  11  22  39  61  86 115 155 203 250 300 364
#     4  10  20  38  62  92 123 157 203 244 300 376
#     4  12  27  41  58  89 121 159 211 260 305 363
#     4  12  23  41  59  80 121 162 202 253 305 357
#     4  12  23  41  62  84 118 159 199 258 303 365
#     4  12  21  41  66  91 123 162 200 256 319 364
#     4  10  22  40  65  95 126 163 207 253 306 373
#
# _framework density 10.370369999999999
#
# number of rings (size 3 to 8) (size 9 to 14) (size 15 to 20)
#    0.000    0.714    7.143    0.857    2.000    2.857 
#    0.000    0.000    0.000    0.429    0.000    0.000 
#    0.000    0.000    0.000    0.000    0.000    0.000 
#
# Total GULP energy -312941.480859 kJ/mol
# GULP energy per Si atom -5588.240730 kJ/mol
# Density = 1.034677 g / cm^3
# Si number density = 10.370370 Si / 1000 Ang^3
#
#
#
# Elastic Constant Matrix: (Units=GPa)
#
#
# Indices 1 2 3 4 5 6 
#
# 1 112.4657 30.3807 -8.4694 0.0000 0.0000 0.0000
# 2 30.3807 54.6774 -20.3002 0.0000 0.0000 0.0000
# 3 -8.4694 -20.3002 -13.7548 0.0000 0.0000 0.0000
# 4 0.0000 0.0000 0.0000 -3.0389 0.0000 0.0000
# 5 0.0000 0.0000 0.0000 0.0000 11.2646 0.0000
# 6 0.0000 0.0000 0.0000 0.0000 0.0000 24.6821
#
#
#
# Elastic Compliance Matrix: (Units=1/GPa)
#
#
# Indices 1 2 3 4 5 6 
#
# 1 0.010421 -0.005280 0.001375 0.000000 0.000000 0.000000
# 2 -0.005280 0.014490 -0.018134 0.000000 0.000000 0.000000
# 3 0.001375 -0.018134 -0.046785 0.000000 0.000000 0.000000
# 4 0.000000 0.000000 0.000000 -0.329066 0.000000 0.000000
# 5 0.000000 0.000000 0.000000 0.000000 0.088774 0.000000
# 6 0.000000 0.000000 0.000000 0.000000 0.000000 0.040515
#
#
# Mechanical properties :
#
#
# Convention : Reuss Voigt Hill
#
# Bulk Modulus (GPa) = -15.16277 17.40117 1.11920
# Shear Modulus (GPa) = -25.05546 16.70004 -4.17771
#
# Velocity S-wave (km/s) = -3.47944 2.84065 -1.42078
# Velocity P-wave (km/s) = 4.84443 4.37803 1.46653
#
# Compressibility (1/GPa) = -0.06595101
#
# Stress axis : x y z
#
# Youngs Moduli (GPa) = 95.95598 69.01303 -21.37434
#
# Poissons Ratio (x) = 0.36438 0.02940
# Poissons Ratio (y) = 0.50663 -0.38761
# Poissons Ratio (z) = -0.13198 1.25150
#
# Static dielectric constant tensor:
#      x y z
#    x 1.736430 0.000000 0.000000 
#    y 0.000000 1.773380 0.000000 
#    z 0.000000 0.000000 1.762440 
# 
# From -- ./inp_files/53254.got.cif
#   From: 2010.05.17/outbox.ucp.g08.bks.cvg/sg64_27_cif.got.tgz:53254.got - 2010.06.11 16:36:46.
