data_PCOD9482549
_publ_section_title
;
Structure prediction by ZEFSAII (Michael W. Deem and Ramdas Pophale) SiO2 
 PCOD9482549
Probable space group: C M M M
;
_chemical_formula_sum "Si O2"
_cell_formula_units_Z 88
_cell_length_a 8.425286
_cell_length_b 15.109368
_cell_length_c 31.162763
_cell_angle_alpha 90.000000
_cell_angle_beta 90.000000
_cell_angle_gamma 90.000000
_cell_volume 3967.042998
_symmetry_space_group_name_H-M "C M M M"
_symmetry_group_IT_number 65
_symmetry_cell_setting 'orthorhombic'
loop_
_space_group_symop_operation_xyz
x,y,z
-x,-y,z
x,-y,-z
-x,y,-z
-x,-y,-z
x,y,-z
-x,y,z
x,-y,z
1/2+x,1/2+y,z
1/2-x,1/2-y,z
1/2+x,1/2-y,-z
1/2-x,1/2+y,-z
1/2-x,1/2-y,-z
1/2+x,1/2+y,-z
1/2-x,1/2+y,z
1/2+x,1/2-y,z
loop_
_atom_site_type_symbol
_atom_site_label
_atom_site_fract_x
_atom_site_fract_y
_atom_site_fract_z
Si Si1 0.816554 0.105696 0.545699
Si Si2 0.309295 0.647732 0.268263
Si Si3 0.192355 0.849959 0.639304
Si Si4 0.688595 0.147995 0.000000
Si Si5 0.688466 0.148002 0.178849
Si Si6 0.188565 0.851996 0.089443
O O1 0.744419 0.137002 0.500000
O O2 0.744218 0.122861 0.592457
O O3 0.000000 0.138498 0.546465
O O4 0.823690 0.000000 0.543361
O O5 0.500000 0.647624 0.266300
O O6 0.250000 0.750000 0.268511
O O7 0.260444 0.608214 0.314714
O O8 0.244803 0.607851 0.224047
O O9 0.250000 0.750000 0.642873
O O10 0.000000 0.858034 0.637666
O O11 0.750000 0.250000 0.000000
O O12 0.749190 0.108235 0.955193
O O13 0.500000 0.148690 0.000000
O O14 0.500000 0.148912 0.177520
O O15 0.750000 0.250000 0.179355
O O16 0.752636 0.108212 0.134423
O O17 0.250000 0.750000 0.089690
O O18 0.000000 0.851273 0.088852
#
# Coordination Sequence:
#
# PCOD9482549 Si02
#       6
#    16  16  16   8  16  16
#     4   8  14  26  44  64  85 110 141 174 205 241
#     4   9  15  23  33  47  68  91 115 146 186 231
#     4   9  17  27  41  62  85 108 135 169 209 249
#     4  10  16  22  28  36  50  70 100 140 183 224
#     4  10  16  22  31  43  58  79 108 141 180 226
#     4  10  16  22  29  38  52  73 102 138 182 227
#
# _framework density 22.182769
#
# number of rings (size 3 to 8) (size 9 to 14) (size 15 to 20)
#    0.000    2.727    0.000    8.455    0.000    1.091 
#    0.000    0.000    0.000    0.545    0.000    1.273 
#    0.000    0.000    0.000    0.000    0.000    0.000 
#
# Total GULP energy -245039.757613 kJ/mol
# GULP energy per Si atom -5569.085400 kJ/mol
# Density = 2.213228 g / cm^3
# Si number density = 22.182769 Si / 1000 Ang^3
#
#
#
# Elastic Constant Matrix: (Units=GPa)
#
#
# Indices 1 2 3 4 5 6 
#
# 1 120.2011 -0.8948 69.0921 0.0000 0.0000 0.0000
# 2 -0.8948 39.9426 22.4954 0.0000 0.0000 0.0000
# 3 69.0921 22.4954 332.9033 0.0000 0.0000 0.0000
# 4 0.0000 0.0000 0.0000 6.7103 0.0000 0.0000
# 5 0.0000 0.0000 0.0000 0.0000 3.0134 0.0000
# 6 0.0000 0.0000 0.0000 0.0000 0.0000 -5.5547
#
#
#
# Elastic Compliance Matrix: (Units=1/GPa)
#
#
# Indices 1 2 3 4 5 6 
#
# 1 0.009519 0.001378 -0.002069 0.000000 0.000000 0.000000
# 2 0.001378 0.026226 -0.002058 0.000000 0.000000 0.000000
# 3 -0.002069 -0.002058 0.003572 0.000000 0.000000 0.000000
# 4 0.000000 0.000000 0.000000 0.149025 0.000000 0.000000
# 5 0.000000 0.000000 0.000000 0.000000 0.331846 0.000000
# 6 0.000000 0.000000 0.000000 0.000000 0.000000 -0.180029
#
#
# Mechanical properties :
#
#
# Convention : Reuss Voigt Hill
#
# Bulk Modulus (GPa) = 29.56849 74.93696 52.25272
# Shear Modulus (GPa) = 14.00834 27.65743 20.83288
#
# Velocity S-wave (km/s) = 2.51569 3.53483 3.06788
# Velocity P-wave (km/s) = 4.66869 7.10739 6.01297
#
# Compressibility (1/GPa) = 0.03381979
#
# Stress axis : x y z
#
# Youngs Moduli (GPa) = 105.05584 38.13013 279.93136
#
# Poissons Ratio (x) = -0.05256 0.57909
# Poissons Ratio (y) = -0.14480 0.57617
# Poissons Ratio (z) = 0.21733 0.07848
#
# Static dielectric constant tensor:
#      x y z
#    x 1.708050 0.000000 0.000000 
#    y 0.000000 1.808850 0.000000 
#    z 0.000000 0.000000 1.970610 
# 
# From -- ./inp_files/76772.got.cif
#   From: 2010.05.17/outbox.cif.g08.bks.cpg/sg65_39_cif.got.tgz:76772.got - 2010.06.03 17:01:31.
