data_PCOD9482751
_publ_section_title
;
Structure prediction by ZEFSAII (Michael W. Deem and Ramdas Pophale) SiO2 
 PCOD9482751
Probable space group: C M M M
;
_chemical_formula_sum "Si O2"
_cell_formula_units_Z 72
_cell_length_a 15.016635
_cell_length_b 8.777184
_cell_length_c 24.644431
_cell_angle_alpha 90.000000
_cell_angle_beta 90.000000
_cell_angle_gamma 90.000000
_cell_volume 3248.228877
_symmetry_space_group_name_H-M "C M M M"
_symmetry_group_IT_number 65
_symmetry_cell_setting 'orthorhombic'
loop_
_space_group_symop_operation_xyz
x,y,z
-x,-y,z
x,-y,-z
-x,y,-z
-x,-y,-z
x,y,-z
-x,y,z
x,-y,z
1/2+x,1/2+y,z
1/2-x,1/2-y,z
1/2+x,1/2-y,-z
1/2-x,1/2+y,-z
1/2-x,1/2-y,-z
1/2+x,1/2+y,-z
1/2-x,1/2+y,z
1/2+x,1/2-y,z
loop_
_atom_site_type_symbol
_atom_site_label
_atom_site_fract_x
_atom_site_fract_y
_atom_site_fract_z
Si Si1 0.648847 0.317812 0.669454
Si Si2 0.109507 0.674901 0.000000
Si Si3 0.151226 0.680699 0.221119
Si Si4 0.850482 0.317263 0.440385
Si Si5 0.894973 0.169025 0.109969
O O1 0.651839 0.500000 0.669702
O O2 0.750000 0.250000 0.669314
O O3 0.607776 0.256156 0.725462
O O4 0.607877 0.256767 0.613283
O O5 0.140573 0.757299 0.945181
O O6 0.137695 0.500000 0.000000
O O7 0.000000 0.675257 0.000000
O O8 0.152372 0.500000 0.227908
O O9 0.250000 0.750000 0.219273
O O10 0.113147 0.728065 0.163140
O O11 0.890524 0.285261 0.500000
O O12 0.846567 0.500000 0.433715
O O13 0.750000 0.250000 0.442689
O O14 0.000000 0.152531 0.100608
O O15 0.856501 0.000000 0.120162
#
# Coordination Sequence:
#
# PCOD9482751 Si02
#       5
#    16   8  16  16  16
#     4  10  17  26  40  58  84 118 156 194 237 287
#     4   9  17  31  52  77 102 129 162 197 237 285
#     4  11  21  34  51  71  99 132 167 203 244 293
#     4   9  15  22  33  51  77 110 149 191 234 280
#     4  10  20  35  55  78 103 130 162 200 242 287
#
# _framework density 22.165925999999999
#
# number of rings (size 3 to 8) (size 9 to 14) (size 15 to 20)
#    0.000    2.111    0.000    8.333    0.000    4.000 
#    0.000    0.556    0.000    0.000    0.000    0.000 
#    0.000    0.889    0.000    9.333    0.000    7.778 
#
# Total GULP energy -200960.794439 kJ/mol
# GULP energy per Si atom -5582.244290 kJ/mol
# Density = 2.211548 g / cm^3
# Si number density = 22.165926 Si / 1000 Ang^3
#
#
#
# Elastic Constant Matrix: (Units=GPa)
#
#
# Indices 1 2 3 4 5 6 
#
# 1 43.5715 9.4365 13.3221 0.0000 0.0000 0.0000
# 2 9.4365 207.3023 103.1700 0.0000 0.0000 0.0000
# 3 13.3221 103.1700 240.7082 0.0000 0.0000 0.0000
# 4 0.0000 0.0000 0.0000 -4.2305 0.0000 0.0000
# 5 0.0000 0.0000 0.0000 0.0000 3.4955 0.0000
# 6 0.0000 0.0000 0.0000 0.0000 0.0000 5.7322
#
#
#
# Elastic Compliance Matrix: (Units=1/GPa)
#
#
# Indices 1 2 3 4 5 6 
#
# 1 0.023392 -0.000535 -0.001066 0.000000 0.000000 0.000000
# 2 -0.000535 0.006144 -0.002604 0.000000 0.000000 0.000000
# 3 -0.001066 -0.002604 0.005329 0.000000 0.000000 0.000000
# 4 0.000000 0.000000 0.000000 -0.236377 0.000000 0.000000
# 5 0.000000 0.000000 0.000000 0.000000 0.286084 0.000000
# 6 0.000000 0.000000 0.000000 0.000000 0.000000 0.174453
#
#
# Mechanical properties :
#
#
# Convention : Reuss Voigt Hill
#
# Bulk Modulus (GPa) = 37.79577 82.60436 60.20006
# Shear Modulus (GPa) = 18.09935 25.37633 21.73784
#
# Velocity S-wave (km/s) = 2.86061 3.38721 3.13499
# Velocity P-wave (km/s) = 5.29142 7.25568 6.34996
#
# Compressibility (1/GPa) = 0.02645799
#
# Stress axis : x y z
#
# Youngs Moduli (GPa) = 42.74908 162.75838 187.63798
#
# Poissons Ratio (x) = 0.08700 0.19994
# Poissons Ratio (y) = 0.02285 0.48858
# Poissons Ratio (z) = 0.04555 0.42380
#
# Static dielectric constant tensor:
#      x y z
#    x 1.858770 0.000000 0.000000 
#    y 0.000000 1.766130 0.000000 
#    z 0.000000 0.000000 1.886050 
# 
# From -- ./inp_files/70750.got.cif
#   From: 2010.05.17/outbox.cif.g08.bks.cpg/sg65_36_cif.got.tgz:70750.got - 2010.06.03 17:01:31.
