data_PCOD9482129
_publ_section_title
;
Structure prediction by ZEFSAII (Michael W. Deem and Ramdas Pophale) SiO2 
 PCOD9482129
Probable space group: C M C A
;
_chemical_formula_sum "Si O2"
_cell_formula_units_Z 40
_cell_length_a 14.018691
_cell_length_b 11.389279
_cell_length_c 10.622019
_cell_angle_alpha 90.000000
_cell_angle_beta 90.000000
_cell_angle_gamma 90.000000
_cell_volume 1695.941115
_symmetry_space_group_name_H-M "C M C A"
_symmetry_group_IT_number 64
_symmetry_cell_setting 'orthorhombic'
loop_
_space_group_symop_operation_xyz
x,y,z
-x,1/2-y,1/2+z
x,-y,-z
-x,1/2+y,1/2-z
-x,-y,-z
x,1/2+y,1/2-z
-x,y,z
x,1/2-y,1/2+z
1/2+x,1/2+y,z
1/2-x,-y,1/2+z
1/2+x,1/2-y,-z
1/2-x,y,1/2-z
1/2-x,1/2-y,-z
1/2+x,y,1/2-z
1/2-x,1/2+y,z
1/2+x,-y,1/2+z
loop_
_atom_site_type_symbol
_atom_site_label
_atom_site_fract_x
_atom_site_fract_y
_atom_site_fract_z
Si Si1 0.213375 0.177283 0.381390
Si Si2 0.160339 0.000000 0.000000
Si Si3 0.000000 0.151182 0.312273
Si Si4 0.000000 0.094099 0.837291
O O1 0.250000 0.232107 0.250000
O O2 0.250000 0.250000 0.500000
O O3 0.101175 0.150035 0.383210
O O4 0.273355 0.057760 0.395935
O O5 0.091101 0.908987 0.070653
O O6 0.000000 0.285957 0.256449
O O7 0.000000 0.033436 0.228635
#
# Coordination Sequence:
#
# PCOD9482129 Si02
#       4
#    16   8   8   8
#     4  12  27  48  80 118 165 217 268 341 414 493
#     4  11  24  47  76 110 170 215 262 343 410 478
#     4  12  26  49  86 119 157 218 280 332 416 492
#     4  11  24  48  80 113 161 215 278 326 413 492
#
# _framework density 23.585723000000002
#
# number of rings (size 3 to 8) (size 9 to 14) (size 15 to 20)
#    0.000    0.400    8.000    0.000    0.000    7.200 
#    0.000    0.000    0.000    0.000    0.000    0.000 
#    0.000    0.000    0.000    0.000    0.000    0.000 
#
# Total GULP energy -111683.959563 kJ/mol
# GULP energy per Si atom -5584.197978 kJ/mol
# Density = 2.353204 g / cm^3
# Si number density = 23.585723 Si / 1000 Ang^3
#
#
#
# Elastic Constant Matrix: (Units=GPa)
#
#
# Indices 1 2 3 4 5 6 
#
# 1 247.5218 33.9075 58.2553 0.0000 0.0000 0.0000
# 2 33.9075 128.9858 30.7903 0.0000 0.0000 0.0000
# 3 58.2553 30.7903 126.9395 0.0000 0.0000 0.0000
# 4 0.0000 0.0000 0.0000 41.8671 0.0000 0.0000
# 5 0.0000 0.0000 0.0000 0.0000 35.9483 0.0000
# 6 0.0000 0.0000 0.0000 0.0000 0.0000 23.3622
#
#
#
# Elastic Compliance Matrix: (Units=1/GPa)
#
#
# Indices 1 2 3 4 5 6 
#
# 1 0.004596 -0.000748 -0.001928 0.000000 0.000000 0.000000
# 2 -0.000748 0.008351 -0.001682 0.000000 0.000000 0.000000
# 3 -0.001928 -0.001682 0.009171 0.000000 0.000000 0.000000
# 4 0.000000 0.000000 0.000000 0.023885 0.000000 0.000000
# 5 0.000000 0.000000 0.000000 0.000000 0.027818 0.000000
# 6 0.000000 0.000000 0.000000 0.000000 0.000000 0.042804
#
#
# Mechanical properties :
#
#
# Convention : Reuss Voigt Hill
#
# Bulk Modulus (GPa) = 74.61925 83.26147 78.94036
# Shear Modulus (GPa) = 38.51828 45.60177 42.06003
#
# Velocity S-wave (km/s) = 4.04557 4.40187 4.22748
# Velocity P-wave (km/s) = 7.31631 7.82391 7.57436
#
# Compressibility (1/GPa) = 0.01340137
#
# Stress axis : x y z
#
# Youngs Moduli (GPa) = 217.56842 119.74574 109.04443
#
# Poissons Ratio (x) = 0.08958 0.21022
# Poissons Ratio (y) = 0.16275 0.18345
# Poissons Ratio (z) = 0.41944 0.20145
#
# Static dielectric constant tensor:
#      x y z
#    x 1.870080 0.000000 0.000000 
#    y 0.000000 2.030280 0.000000 
#    z 0.000000 0.000000 1.901340 
# 
# From -- ./inp_files/13525.got.cif
#   From: 2010.05.17/outbox.cif.g08.bks.cpg/sg64_7_cif.got.tgz:13525.got - 2010.06.03 16:29:19.
