data_PCOD9482378
_publ_section_title
;
Structure prediction by ZEFSAII (Michael W. Deem and Ramdas Pophale) SiO2 
 PCOD9482378
Probable space group: C M C A
;
_chemical_formula_sum "Si O2"
_cell_formula_units_Z 48
_cell_length_a 9.000000
_cell_length_b 21.000000
_cell_length_c 27.000000
_cell_angle_alpha 90.000000
_cell_angle_beta 90.000000
_cell_angle_gamma 90.000000
_cell_volume 5103.000000
_symmetry_space_group_name_H-M "C M C A"
_symmetry_group_IT_number 64
_symmetry_cell_setting 'orthorhombic'
loop_
_space_group_symop_operation_xyz
x,y,z
-x,1/2-y,1/2+z
x,-y,-z
-x,1/2+y,1/2-z
-x,-y,-z
x,1/2+y,1/2-z
-x,y,z
x,1/2-y,1/2+z
1/2+x,1/2+y,z
1/2-x,-y,1/2+z
1/2+x,1/2-y,-z
1/2-x,y,1/2-z
1/2-x,1/2-y,-z
1/2+x,y,1/2-z
1/2-x,1/2+y,z
1/2+x,-y,1/2+z
loop_
_atom_site_type_symbol
_atom_site_label
_atom_site_fract_x
_atom_site_fract_y
_atom_site_fract_z
Si Si1 0.821162 0.228603 0.449305
Si Si2 0.322071 0.918825 0.198683
Si Si3 0.176436 0.068417 0.299129
Si Si4 0.819163 0.099046 0.403211
Si Si5 0.322836 0.856734 0.396742
Si Si6 0.828844 0.530991 0.946014
O O1 0.750000 0.250000 0.500000
O O2 0.767636 0.158231 0.435053
O O3 0.786365 0.283962 0.409919
O O4 0.000000 0.226095 0.453790
O O5 0.500000 0.913946 0.200035
O O6 0.250000 0.896769 0.250000
O O7 0.255733 0.880982 0.152748
O O8 0.282377 0.993993 0.193583
O O9 0.250000 0.092763 0.250000
O O10 0.217430 0.109669 0.346328
O O11 0.000000 0.068976 0.294202
O O12 0.000000 0.095231 0.408574
O O13 0.764664 0.028337 0.415380
O O14 0.500000 0.862786 0.392711
O O15 0.263063 0.905032 0.439068
O O16 0.000000 0.544567 0.930595
O O17 0.833672 0.500000 0.000000
#
# Coordination Sequence:
#
# PCOD9482378 Si02
#       6
#    16  16  16  16  16  16
#     4  10  22  39  58  78 108 148 187 227 274 328
#     4  10  19  34  57  84 112 144 184 226 274 328
#     4   9  17  31  53  79 106 134 173 219 268 317
#     4   9  17  34  55  77 104 140 182 224 268 320
#     4  11  22  35  53  82 116 147 180 225 282 333
#     4  10  19  33  56  80 102 138 188 234 276 325
#
# _framework density 9.4062319999999993
#
# number of rings (size 3 to 8) (size 9 to 14) (size 15 to 20)
#    0.000    2.167    1.667    2.000    0.000    3.667 
#    0.000    2.500    0.000    2.000    0.000    0.000 
#    0.000    0.000    0.000    0.000    0.000    0.000 
#
# Total GULP energy -267523.576564 kJ/mol
# GULP energy per Si atom -5573.407845 kJ/mol
# Density = 0.938482 g / cm^3
# Si number density = 9.406232 Si / 1000 Ang^3
#
#
#
# Elastic Constant Matrix: (Units=GPa)
#
#
# Indices 1 2 3 4 5 6 
#
# 1 14.5434 8.1873 9.8961 0.0000 0.0000 0.0000
# 2 8.1873 14.5388 -8.2418 0.0000 0.0000 0.0000
# 3 9.8961 -8.2418 70.3351 0.0000 0.0000 0.0000
# 4 0.0000 0.0000 0.0000 21.8922 0.0000 0.0000
# 5 0.0000 0.0000 0.0000 0.0000 29.6394 0.0000
# 6 0.0000 0.0000 0.0000 0.0000 0.0000 6.9188
#
#
#
# Elastic Compliance Matrix: (Units=1/GPa)
#
#
# Indices 1 2 3 4 5 6 
#
# 1 0.148935 -0.102563 -0.032973 0.000000 0.000000 0.000000
# 2 -0.102563 0.144304 0.031340 0.000000 0.000000 0.000000
# 3 -0.032973 0.031340 0.022529 0.000000 0.000000 0.000000
# 4 0.000000 0.000000 0.000000 0.045678 0.000000 0.000000
# 5 0.000000 0.000000 0.000000 0.000000 0.033739 0.000000
# 6 0.000000 0.000000 0.000000 0.000000 0.000000 0.144534
#
#
# Mechanical properties :
#
#
# Convention : Reuss Voigt Hill
#
# Bulk Modulus (GPa) = 9.31303 13.23340 11.27321
# Shear Modulus (GPa) = 6.37833 17.66179 12.02006
#
# Velocity S-wave (km/s) = 1.84332 3.06737 2.53047
# Velocity P-wave (km/s) = 3.08085 4.42658 3.81355
#
# Compressibility (1/GPa) = 0.10737649
#
# Stress axis : x y z
#
# Youngs Moduli (GPa) = 6.71432 6.92980 44.38654
#
# Poissons Ratio (x) = 0.71074 1.46357
# Poissons Ratio (y) = 0.68864 -1.39107
# Poissons Ratio (z) = 0.22139 -0.21718
#
# Static dielectric constant tensor:
#      x y z
#    x 1.631020 0.000000 0.000000 
#    y 0.000000 1.645330 0.000000 
#    z 0.000000 0.000000 1.786950 
# 
# From -- ./inp_files/48071.got.cif
#   From: 2010.05.17/outbox.ucp.g08.bks.cvg/sg64_25_cif.got.tgz:48071.got - 2010.06.11 16:36:46.
