data_PCOD9482867
_publ_section_title
;
Structure prediction by ZEFSAII (Michael W. Deem and Ramdas Pophale) SiO2 
 PCOD9482867
Probable space group: C M M M
;
_chemical_formula_sum "Si O2"
_cell_formula_units_Z 120
_cell_length_a 27.712265
_cell_length_b 26.036517
_cell_length_c 7.511683
_cell_angle_alpha 90.000000
_cell_angle_beta 90.000000
_cell_angle_gamma 90.000000
_cell_volume 5419.911086
_symmetry_space_group_name_H-M "C M M M"
_symmetry_group_IT_number 65
_symmetry_cell_setting 'orthorhombic'
loop_
_space_group_symop_operation_xyz
x,y,z
-x,-y,z
x,-y,-z
-x,y,-z
-x,-y,-z
x,y,-z
-x,y,z
x,-y,z
1/2+x,1/2+y,z
1/2-x,1/2-y,z
1/2+x,1/2-y,-z
1/2-x,1/2+y,-z
1/2-x,1/2-y,-z
1/2+x,1/2+y,-z
1/2-x,1/2+y,z
1/2+x,1/2-y,z
loop_
_atom_site_type_symbol
_atom_site_label
_atom_site_fract_x
_atom_site_fract_y
_atom_site_fract_z
Si Si1 0.628072 0.642323 0.717620
Si Si2 0.815175 0.442311 0.713682
Si Si3 0.573452 0.943737 0.794622
Si Si4 0.055388 0.943357 0.717156
Si Si5 0.947181 0.331065 0.215261
Si Si6 0.750000 0.750000 0.245094
Si Si7 0.357566 0.242590 0.711004
Si Si8 0.266735 0.630914 0.701000
O O1 0.629429 0.640732 0.500000
O O2 0.587761 0.603320 0.779751
O O3 0.620677 0.701944 0.761347
O O4 0.680713 0.624943 0.784079
O O5 0.821849 0.436363 0.500000
O O6 0.796205 0.500000 0.746784
O O7 0.868471 0.439217 0.792259
O O8 0.778360 0.399186 0.781059
O O9 0.555488 0.889947 0.717802
O O10 0.561436 0.000000 0.715777
O O11 0.557405 0.945105 0.000000
O O12 0.055748 0.942485 0.500000
O O13 0.000000 0.938074 0.772557
O O14 0.072996 0.000000 0.770614
O O15 0.899266 0.299657 0.267262
O O16 0.000000 0.309418 0.269000
O O17 0.946300 0.332468 0.000000
O O18 0.693743 0.761280 0.188040
O O19 0.740871 0.692003 0.312615
O O20 0.343866 0.242770 0.500000
O O21 0.270033 0.609968 0.500000
#
# Coordination Sequence:
#
# PCOD9482867 Si02
#       8
#    16  16  16  16  16   8  16  16
#     4   8  15  25  38  61  90 118 152 192 229 270
#     4   9  17  28  44  69  98 125 154 191 236 283
#     4   9  18  33  52  71  91 120 159 198 237 287
#     4   8  13  21  33  50  77 114 148 179 222 269
#     4  10  22  38  53  72 100 130 161 203 253 300
#     4  10  17  28  47  72  99 126 159 198 237 278
#     4  10  19  32  52  75  99 130 166 202 242 291
#     4   9  15  23  37  58  86 119 149 179 221 271
#
# _framework density 22.140584
#
# number of rings (size 3 to 8) (size 9 to 14) (size 15 to 20)
#    0.000    2.933    0.000    3.200    0.000    3.200 
#    0.000    5.667    0.000    3.200    0.000    2.800 
#    0.000    0.533    0.000    2.933    0.000    2.400 
#
# Total GULP energy -334035.052477 kJ/mol
# GULP energy per Si atom -5567.250875 kJ/mol
# Density = 2.209019 g / cm^3
# Si number density = 22.140584 Si / 1000 Ang^3
#
#
#
# Elastic Constant Matrix: (Units=GPa)
#
#
# Indices 1 2 3 4 5 6 
#
# 1 145.7031 98.3026 12.5042 0.0000 0.0000 0.0000
# 2 98.3026 121.2647 12.8875 0.0000 0.0000 0.0000
# 3 12.5042 12.8875 67.1802 0.0000 0.0000 0.0000
# 4 0.0000 0.0000 0.0000 8.9024 0.0000 0.0000
# 5 0.0000 0.0000 0.0000 0.0000 8.8055 0.0000
# 6 0.0000 0.0000 0.0000 0.0000 0.0000 43.5633
#
#
#
# Elastic Compliance Matrix: (Units=1/GPa)
#
#
# Indices 1 2 3 4 5 6 
#
# 1 0.015163 -0.012241 -0.000474 0.000000 0.000000 0.000000
# 2 -0.012241 0.018301 -0.001232 0.000000 0.000000 0.000000
# 3 -0.000474 -0.001232 0.015210 0.000000 0.000000 0.000000
# 4 0.000000 0.000000 0.000000 0.112330 0.000000 0.000000
# 5 0.000000 0.000000 0.000000 0.000000 0.113565 0.000000
# 6 0.000000 0.000000 0.000000 0.000000 0.000000 0.022955
#
#
# Mechanical properties :
#
#
# Convention : Reuss Voigt Hill
#
# Bulk Modulus (GPa) = 48.12665 64.61519 56.37092
# Shear Modulus (GPa) = 15.04461 26.28448 20.66455
#
# Velocity S-wave (km/s) = 2.60956 3.44926 3.05836
# Velocity P-wave (km/s) = 5.55552 6.71644 6.16337
#
# Compressibility (1/GPa) = 0.02077851
#
# Stress axis : x y z
#
# Youngs Moduli (GPa) = 65.95032 54.64242 65.74649
#
# Poissons Ratio (x) = 0.66890 0.03116
# Poissons Ratio (y) = 0.80732 0.08102
# Poissons Ratio (z) = 0.03126 0.06733
#
# Static dielectric constant tensor:
#      x y z
#    x 1.801290 0.000000 0.000000 
#    y 0.000000 1.788620 0.000000 
#    z 0.000000 0.000000 1.887720 
# 
# From -- ./inp_files/17081.got.cif
#   From: 2010.05.17/outbox.cif.g08.bks.cpg/sg65_9_cif.got.tgz:17081.got - 2010.06.03 17:01:31.
