data_PCOD9482441
_publ_section_title
;
Structure prediction by ZEFSAII (Michael W. Deem and Ramdas Pophale) SiO2 
 PCOD9482441
Probable space group: C M C A
;
_chemical_formula_sum "Si O2"
_cell_formula_units_Z 58
_cell_length_a 9.000000
_cell_length_b 24.000000
_cell_length_c 27.000000
_cell_angle_alpha 90.000000
_cell_angle_beta 90.000000
_cell_angle_gamma 90.000000
_cell_volume 5832.000000
_symmetry_space_group_name_H-M "C M C A"
_symmetry_group_IT_number 64
_symmetry_cell_setting 'orthorhombic'
loop_
_space_group_symop_operation_xyz
x,y,z
-x,1/2-y,1/2+z
x,-y,-z
-x,1/2+y,1/2-z
-x,-y,-z
x,1/2+y,1/2-z
-x,y,z
x,1/2-y,1/2+z
1/2+x,1/2+y,z
1/2-x,-y,1/2+z
1/2+x,1/2-y,-z
1/2-x,y,1/2-z
1/2-x,1/2-y,-z
1/2+x,y,1/2-z
1/2-x,1/2+y,z
1/2+x,-y,1/2+z
loop_
_atom_site_type_symbol
_atom_site_label
_atom_site_fract_x
_atom_site_fract_y
_atom_site_fract_z
Si Si1 0.000000 0.000000 0.500000
Si Si2 0.824913 0.327407 0.600264
Si Si3 0.823593 0.772765 0.049227
Si Si4 0.825332 0.669779 0.198927
Si Si5 0.672759 0.636469 0.607539
Si Si6 0.717020 0.430921 0.967346
Si Si7 0.152128 0.458770 0.422080
Si Si8 0.674360 0.695470 0.800736
O O1 0.124776 0.043639 0.479873
O O2 0.730384 0.272022 0.589628
O O3 0.763158 0.352015 0.651371
O O4 0.797888 0.370503 0.555746
O O5 0.000000 0.314428 0.603363
O O6 0.755406 0.831868 0.063173
O O7 0.000000 0.775234 0.046319
O O8 0.750000 0.750000 0.000000
O O9 0.750000 0.651281 0.250000
O O10 0.810771 0.737373 0.197149
O O11 0.000000 0.656451 0.197021
O O12 0.500000 0.646933 0.604266
O O13 0.709344 0.571368 0.602581
O O14 0.741526 0.664160 0.655747
O O15 0.658505 0.475104 0.926865
O O16 0.645146 0.438297 0.021054
O O17 0.000000 0.440460 0.396328
O O18 0.500000 0.683012 0.802587
O O19 0.750000 0.677330 0.750000
#
# Coordination Sequence:
#
# PCOD9482441 Si02
#       8
#     4  16  16  16  16  16  16  16
#     4   8  20  36  58  84 116 148 198 256 276 342
#     4  12  23  37  61  90 123 159 201 248 303 366
#     4  12  25  40  55  81 120 161 199 241 299 359
#     4  10  21  37  59  87 120 159 201 248 301 361
#     4  12  24  37  58  86 119 157 199 244 298 356
#     4  10  22  37  62  85 120 153 207 246 305 342
#     4  10  20  38  60  82 115 155 203 250 293 347
#     4  10  20  37  60  84 117 154 199 248 297 355
#
# _framework density 9.9451300000000007
#
# number of rings (size 3 to 8) (size 9 to 14) (size 15 to 20)
#    0.000    1.379    1.379    6.207    5.793    1.103 
#    0.000    0.000    0.000    0.828    0.000    3.862 
#    0.000    0.000    0.000    0.000    0.000    0.000 
#
# Total GULP energy -322980.432413 kJ/mol
# GULP energy per Si atom -5568.628145 kJ/mol
# Density = 0.992249 g / cm^3
# Si number density = 9.945130 Si / 1000 Ang^3
#
#
#
# Elastic Constant Matrix: (Units=GPa)
#
#
# Indices 1 2 3 4 5 6 
#
# 1 180.1774 14.0695 27.4744 0.0000 0.0000 0.0000
# 2 14.0695 52.4501 -6.6176 0.0000 0.0000 0.0000
# 3 27.4744 -6.6176 66.6309 0.0000 0.0000 0.0000
# 4 0.0000 0.0000 0.0000 17.1747 0.0000 0.0000
# 5 0.0000 0.0000 0.0000 0.0000 31.7476 0.0000
# 6 0.0000 0.0000 0.0000 0.0000 0.0000 29.4127
#
#
#
# Elastic Compliance Matrix: (Units=1/GPa)
#
#
# Indices 1 2 3 4 5 6 
#
# 1 0.006120 -0.001985 -0.002721 0.000000 0.000000 0.000000
# 2 -0.001985 0.019951 0.002800 0.000000 0.000000 0.000000
# 3 -0.002721 0.002800 0.016408 0.000000 0.000000 0.000000
# 4 0.000000 0.000000 0.000000 0.058225 0.000000 0.000000
# 5 0.000000 0.000000 0.000000 0.000000 0.031498 0.000000
# 6 0.000000 0.000000 0.000000 0.000000 0.000000 0.033999
#
#
# Mechanical properties :
#
#
# Convention : Reuss Voigt Hill
#
# Bulk Modulus (GPa) = 25.86102 41.01234 33.43668
# Shear Modulus (GPa) = 27.33697 33.28913 30.31305
#
# Velocity S-wave (km/s) = 3.71130 4.09545 3.90810
# Velocity P-wave (km/s) = 5.60313 6.55955 6.10011
#
# Compressibility (1/GPa) = 0.03866823
#
# Stress axis : x y z
#
# Youngs Moduli (GPa) = 163.40050 50.12172 60.94605
#
# Poissons Ratio (x) = 0.09949 0.16581
# Poissons Ratio (y) = 0.32433 -0.17065
# Poissons Ratio (z) = 0.44455 -0.14034
#
# Static dielectric constant tensor:
#      x y z
#    x 1.712610 0.000000 0.000000 
#    y 0.000000 1.679090 0.000000 
#    z 0.000000 0.000000 1.746170 
# 
# From -- ./inp_files/48589.got.cif
#   From: 2010.05.17/outbox.ucp.g08.bks.cvg/sg64_25_cif.got.tgz:48589.got - 2010.06.11 16:36:46.
