data_PCOD9482231
_publ_section_title
;
Structure prediction by ZEFSAII (Michael W. Deem and Ramdas Pophale) SiO2 
 PCOD9482231
Probable space group: C M C A
;
_chemical_formula_sum "Si O2"
_cell_formula_units_Z 56
_cell_length_a 12.951236
_cell_length_b 12.445842
_cell_length_c 12.534339
_cell_angle_alpha 90.000000
_cell_angle_beta 90.000000
_cell_angle_gamma 90.000000
_cell_volume 2020.398032
_symmetry_space_group_name_H-M "C M C A"
_symmetry_group_IT_number 64
_symmetry_cell_setting 'orthorhombic'
loop_
_space_group_symop_operation_xyz
x,y,z
-x,1/2-y,1/2+z
x,-y,-z
-x,1/2+y,1/2-z
-x,-y,-z
x,1/2+y,1/2-z
-x,y,z
x,1/2-y,1/2+z
1/2+x,1/2+y,z
1/2-x,-y,1/2+z
1/2+x,1/2-y,-z
1/2-x,y,1/2-z
1/2-x,1/2-y,-z
1/2+x,y,1/2-z
1/2-x,1/2+y,z
1/2+x,-y,1/2+z
loop_
_atom_site_type_symbol
_atom_site_label
_atom_site_fract_x
_atom_site_fract_y
_atom_site_fract_z
Si Si1 0.885145 0.741418 0.323553
Si Si2 0.161235 0.794412 0.098541
Si Si3 0.212697 0.000000 0.000000
Si Si4 0.887493 0.568690 0.149820
O O1 0.877143 0.819220 0.219034
O O2 0.783111 0.767028 0.389298
O O3 0.873707 0.623482 0.266213
O O4 0.000000 0.748315 0.367499
O O5 0.145790 0.894552 0.022097
O O6 0.389489 0.821251 0.920831
O O7 0.291391 0.993149 0.899376
O O8 0.000000 0.516114 0.142107
#
# Coordination Sequence:
#
# PCOD9482231 Si02
#       4
#    16  16   8  16
#     4   8  17  38  58  75 113 155 189 231 281 336
#     4   9  19  37  56  83 116 153 189 235 286 337
#     4  12  21  32  61  90 116 148 189 240 285 342
#     4   9  19  37  56  82 114 150 186 233 286 341
#
# _framework density 27.717310000000001
#
# number of rings (size 3 to 8) (size 9 to 14) (size 15 to 20)
#    1.714    1.143    0.000    1.286    0.000    2.286 
#   10.286    2.857    0.000    1.714    0.000    0.000 
#    0.000    0.000    0.000    0.000    0.000    0.000 
#
# Total GULP energy -156429.140717 kJ/mol
# GULP energy per Si atom -5586.755026 kJ/mol
# Density = 2.765422 g / cm^3
# Si number density = 27.717310 Si / 1000 Ang^3
#
#
#
# Elastic Constant Matrix: (Units=GPa)
#
#
# Indices 1 2 3 4 5 6 
#
# 1 172.8247 10.1148 22.0342 0.0000 0.0000 0.0000
# 2 10.1148 100.1313 0.5073 0.0000 0.0000 0.0000
# 3 22.0342 0.5073 84.1627 0.0000 0.0000 0.0000
# 4 0.0000 0.0000 0.0000 45.6768 0.0000 0.0000
# 5 0.0000 0.0000 0.0000 0.0000 25.6350 0.0000
# 6 0.0000 0.0000 0.0000 0.0000 0.0000 17.7913
#
#
#
# Elastic Compliance Matrix: (Units=1/GPa)
#
#
# Indices 1 2 3 4 5 6 
#
# 1 0.006022 -0.000600 -0.001573 0.000000 0.000000 0.000000
# 2 -0.000600 0.010047 0.000097 0.000000 0.000000 0.000000
# 3 -0.001573 0.000097 0.012293 0.000000 0.000000 0.000000
# 4 0.000000 0.000000 0.000000 0.021893 0.000000 0.000000
# 5 0.000000 0.000000 0.000000 0.000000 0.039009 0.000000
# 6 0.000000 0.000000 0.000000 0.000000 0.000000 0.056207
#
#
# Mechanical properties :
#
#
# Convention : Reuss Voigt Hill
#
# Bulk Modulus (GPa) = 41.30771 46.93683 44.12227
# Shear Modulus (GPa) = 31.70695 39.45144 35.57919
#
# Velocity S-wave (km/s) = 3.38589 3.77682 3.58669
# Velocity P-wave (km/s) = 5.49738 5.99917 5.75375
#
# Compressibility (1/GPa) = 0.02420855
#
# Stress axis : x y z
#
# Youngs Moduli (GPa) = 166.06086 99.53183 81.34730
#
# Poissons Ratio (x) = 0.05975 0.12795
# Poissons Ratio (y) = 0.09969 -0.00786
# Poissons Ratio (z) = 0.26120 -0.00962
#
# Static dielectric constant tensor:
#      x y z
#    x 2.096780 0.000000 0.000000 
#    y 0.000000 2.125260 0.000000 
#    z 0.000000 0.000000 2.399200 
# 
# From -- ./inp_files/23144.got.cif
#   From: 2010.05.17/outbox.cif.g08.bks.cpg/sg64_12_cif.got.tgz:23144.got - 2010.06.03 16:29:19.
