data_PCOD9482464
_publ_section_title
;
Structure prediction by ZEFSAII (Michael W. Deem and Ramdas Pophale) SiO2 
 PCOD9482464
Probable space group: C M C A
;
_chemical_formula_sum "Si O2"
_cell_formula_units_Z 48
_cell_length_a 9.000000
_cell_length_b 24.000000
_cell_length_c 24.000000
_cell_angle_alpha 90.000000
_cell_angle_beta 90.000000
_cell_angle_gamma 90.000000
_cell_volume 5184.000000
_symmetry_space_group_name_H-M "C M C A"
_symmetry_group_IT_number 64
_symmetry_cell_setting 'orthorhombic'
loop_
_space_group_symop_operation_xyz
x,y,z
-x,1/2-y,1/2+z
x,-y,-z
-x,1/2+y,1/2-z
-x,-y,-z
x,1/2+y,1/2-z
-x,y,z
x,1/2-y,1/2+z
1/2+x,1/2+y,z
1/2-x,-y,1/2+z
1/2+x,1/2-y,-z
1/2-x,y,1/2-z
1/2-x,1/2-y,-z
1/2+x,y,1/2-z
1/2-x,1/2+y,z
1/2+x,-y,1/2+z
loop_
_atom_site_type_symbol
_atom_site_label
_atom_site_fract_x
_atom_site_fract_y
_atom_site_fract_z
Si Si1 0.175689 0.935327 0.506344
Si Si2 0.323865 0.438513 0.190906
Si Si3 0.327656 0.870735 0.409400
Si Si4 0.677226 0.138533 0.399228
Si Si5 0.322481 0.557350 0.190554
Si Si6 0.169776 0.744454 0.058587
O O1 0.219695 0.901611 0.451406
O O2 0.266527 0.903411 0.553553
O O3 0.000000 0.932016 0.517567
O O4 0.216841 0.000000 0.500000
O O5 0.500000 0.438160 0.198849
O O6 0.250000 0.435296 0.250000
O O7 0.281984 0.388570 0.151729
O O8 0.285233 0.497914 0.162615
O O9 0.500000 0.889237 0.419539
O O10 0.325782 0.805153 0.415454
O O11 0.500000 0.141584 0.401877
O O12 0.729448 0.110246 0.342779
O O13 0.745860 0.198414 0.406917
O O14 0.500000 0.560195 0.194955
O O15 0.250000 0.555880 0.250000
O O16 0.000000 0.726897 0.050222
O O17 0.250000 0.750000 0.000000
#
# Coordination Sequence:
#
# PCOD9482464 Si02
#       6
#    16  16  16  16  16  16
#     4  11  23  35  52  82 114 142 178 228 281 332
#     4   9  18  35  57  82 109 141 181 225 276 334
#     4  10  21  37  57  79 108 147 186 224 275 334
#     4  11  22  37  57  81 110 148 188 228 279 335
#     4   9  19  35  57  82 109 142 182 226 276 333
#     4  11  22  37  57  81 110 149 191 232 277 330
#
# _framework density 9.2592590000000001
#
# number of rings (size 3 to 8) (size 9 to 14) (size 15 to 20)
#    0.000    1.833    1.667    2.500    0.000    5.333 
#    0.000    4.167    0.000    4.000    0.000    0.000 
#    0.000    0.000    0.000    0.000    0.000    0.000 
#
# Total GULP energy -267474.883711 kJ/mol
# GULP energy per Si atom -5572.393411 kJ/mol
# Density = 0.923818 g / cm^3
# Si number density = 9.259259 Si / 1000 Ang^3
#
#
#
# Elastic Constant Matrix: (Units=GPa)
#
#
# Indices 1 2 3 4 5 6 
#
# 1 33.1794 38.9707 18.7838 0.0000 0.0000 0.0000
# 2 38.9707 76.6992 42.6449 0.0000 0.0000 0.0000
# 3 18.7838 42.6449 58.2112 0.0000 0.0000 0.0000
# 4 0.0000 0.0000 0.0000 47.7319 0.0000 0.0000
# 5 0.0000 0.0000 0.0000 0.0000 76.6269 0.0000
# 6 0.0000 0.0000 0.0000 0.0000 0.0000 28.5599
#
#
#
# Elastic Compliance Matrix: (Units=1/GPa)
#
#
# Indices 1 2 3 4 5 6 
#
# 1 0.076119 -0.042214 0.006363 0.000000 0.000000 0.000000
# 2 -0.042214 0.045409 -0.019644 0.000000 0.000000 0.000000
# 3 0.006363 -0.019644 0.029517 0.000000 0.000000 0.000000
# 4 0.000000 0.000000 0.000000 0.020950 0.000000 0.000000
# 5 0.000000 0.000000 0.000000 0.000000 0.013050 0.000000
# 6 0.000000 0.000000 0.000000 0.000000 0.000000 0.035014
#
#
# Mechanical properties :
#
#
# Convention : Reuss Voigt Hill
#
# Bulk Modulus (GPa) = 24.96604 40.98763 32.97684
# Shear Modulus (GPa) = 14.51795 35.09645 24.80720
#
# Velocity S-wave (km/s) = 2.80298 4.35812 3.66401
# Velocity P-wave (km/s) = 4.89761 6.89244 5.97880
#
# Compressibility (1/GPa) = 0.04005441
#
# Stress axis : x y z
#
# Youngs Moduli (GPa) = 13.13734 22.02209 33.87891
#
# Poissons Ratio (x) = 0.92963 -0.21557
# Poissons Ratio (y) = 0.55458 0.66553
# Poissons Ratio (z) = -0.08359 0.43261
#
# Static dielectric constant tensor:
#      x y z
#    x 1.626630 0.000000 0.000000 
#    y 0.000000 1.617140 0.000000 
#    z 0.000000 0.000000 1.677320 
# 
# From -- ./inp_files/42981.got.cif
#   From: 2010.05.17/outbox.ucp.g08.bks.cvg/sg64_22_cif.got.tgz:42981.got - 2010.06.11 16:36:46.
