data_PCOD9482990
_publ_section_title
;
Structure prediction by ZEFSAII (Michael W. Deem and Ramdas Pophale) SiO2 
 PCOD9482990
Probable space group: C M M M
;
_chemical_formula_sum "Si O2"
_cell_formula_units_Z 80
_cell_length_a 24.559822
_cell_length_b 8.353630
_cell_length_c 21.129502
_cell_angle_alpha 90.000000
_cell_angle_beta 90.000000
_cell_angle_gamma 90.000000
_cell_volume 4335.006088
_symmetry_space_group_name_H-M "C M M M"
_symmetry_group_IT_number 65
_symmetry_cell_setting 'orthorhombic'
loop_
_space_group_symop_operation_xyz
x,y,z
-x,-y,z
x,-y,-z
-x,y,-z
-x,-y,-z
x,y,-z
-x,y,z
x,-y,z
1/2+x,1/2+y,z
1/2-x,1/2-y,z
1/2+x,1/2-y,-z
1/2-x,1/2+y,-z
1/2-x,1/2-y,-z
1/2+x,1/2+y,-z
1/2-x,1/2+y,z
1/2+x,1/2-y,z
loop_
_atom_site_type_symbol
_atom_site_label
_atom_site_fract_x
_atom_site_fract_y
_atom_site_fract_z
Si Si1 0.562887 0.194825 0.071597
Si Si2 0.379086 0.193842 0.430764
Si Si3 0.500000 0.187926 0.592879
Si Si4 0.612964 0.194204 0.199010
Si Si5 0.500000 0.811986 0.256503
Si Si6 0.688459 0.689559 0.690763
O O1 0.500000 0.241357 0.086990
O O2 0.605410 0.243673 0.125773
O O3 0.562737 0.000000 0.071237
O O4 0.574907 0.248397 0.000000
O O5 0.355903 0.238131 0.500000
O O6 0.441763 0.253784 0.428366
O O7 0.346232 0.250036 0.369583
O O8 0.380800 0.000000 0.427327
O O9 0.500000 0.196262 0.668479
O O10 0.500000 0.000000 0.574270
O O11 0.556399 0.253311 0.230414
O O12 0.661088 0.254168 0.243482
O O13 0.614800 0.000000 0.201342
O O14 0.500000 0.000000 0.237676
O O15 0.688108 0.500000 0.689402
O O16 0.750000 0.750000 0.685974
#
# Coordination Sequence:
#
# PCOD9482990 Si02
#       6
#    16  16   8  16   8  16
#     4   8  13  22  44  83 122 150 178 213 254 306
#     4  10  20  36  60  87 113 142 176 215 262 319
#     4   9  15  28  53  85 116 141 173 208 249 313
#     4  10  17  31  55  82 113 147 181 220 263 313
#     4   9  14  23  49  82 110 142 177 211 255 311
#     4  12  26  42  58  76 101 137 185 235 279 323
#
# _framework density 18.454415000000001
#
# number of rings (size 3 to 8) (size 9 to 14) (size 15 to 20)
#    0.000    2.200    3.000    2.700    0.000    2.000 
#    0.000    2.000    0.000    2.400    0.000    1.400 
#    0.000    0.000    0.000    0.000    0.000    0.000 
#
# Total GULP energy -222953.354370 kJ/mol
# GULP energy per Si atom -5573.833859 kJ/mol
# Density = 1.841241 g / cm^3
# Si number density = 18.454415 Si / 1000 Ang^3
#
#
#
# Elastic Constant Matrix: (Units=GPa)
#
#
# Indices 1 2 3 4 5 6 
#
# 1 113.3411 19.5778 82.3762 0.0000 0.0000 0.0000
# 2 19.5778 33.4357 35.2981 0.0000 0.0000 0.0000
# 3 82.3762 35.2981 161.2918 0.0000 0.0000 0.0000
# 4 0.0000 0.0000 0.0000 7.7835 0.0000 0.0000
# 5 0.0000 0.0000 0.0000 0.0000 326.5202 0.0000
# 6 0.0000 0.0000 0.0000 0.0000 0.0000 16.2857
#
#
#
# Elastic Compliance Matrix: (Units=1/GPa)
#
#
# Indices 1 2 3 4 5 6 
#
# 1 0.014050 -0.000847 -0.006990 0.000000 0.000000 0.000000
# 2 -0.000847 0.038945 -0.008090 0.000000 0.000000 0.000000
# 3 -0.006990 -0.008090 0.011541 0.000000 0.000000 0.000000
# 4 0.000000 0.000000 0.000000 0.128477 0.000000 0.000000
# 5 0.000000 0.000000 0.000000 0.000000 0.003063 0.000000
# 6 0.000000 0.000000 0.000000 0.000000 0.000000 0.061404
#
#
# Mechanical properties :
#
#
# Convention : Reuss Voigt Hill
#
# Bulk Modulus (GPa) = 30.59956 64.73030 47.66493
# Shear Modulus (GPa) = 16.65405 81.50563 49.07984
#
# Velocity S-wave (km/s) = 3.00733 6.65295 5.16265
# Velocity P-wave (km/s) = 5.35498 9.70400 7.83720
#
# Compressibility (1/GPa) = 0.03268021
#
# Stress axis : x y z
#
# Youngs Moduli (GPa) = 71.17579 25.67711 86.65066
#
# Poissons Ratio (x) = 0.02175 0.60571
# Poissons Ratio (y) = 0.06029 0.70104
# Poissons Ratio (z) = 0.49753 0.20774
#
# Static dielectric constant tensor:
#      x y z
#    x 1.647300 0.000000 0.000000 
#    y 0.000000 1.651210 0.000000 
#    z 0.000000 0.000000 1.667070 
# 
# From -- ./inp_files/59667.got.cif
#   From: 2010.05.17/outbox.cif.g08.bks.cpg/sg65_30_cif.got.tgz:59667.got - 2010.06.03 17:01:31.
