data_PCOD9482761
_publ_section_title
;
Structure prediction by ZEFSAII (Michael W. Deem and Ramdas Pophale) SiO2 
 PCOD9482761
Probable space group: C M M M
;
_chemical_formula_sum "Si O2"
_cell_formula_units_Z 104
_cell_length_a 18.463601
_cell_length_b 23.256467
_cell_length_c 13.735025
_cell_angle_alpha 90.000000
_cell_angle_beta 90.000000
_cell_angle_gamma 90.000000
_cell_volume 5897.794014
_symmetry_space_group_name_H-M "C M M M"
_symmetry_group_IT_number 65
_symmetry_cell_setting 'orthorhombic'
loop_
_space_group_symop_operation_xyz
x,y,z
-x,-y,z
x,-y,-z
-x,y,-z
-x,-y,-z
x,y,-z
-x,y,z
x,-y,z
1/2+x,1/2+y,z
1/2-x,1/2-y,z
1/2+x,1/2-y,-z
1/2-x,1/2+y,-z
1/2-x,1/2-y,-z
1/2+x,1/2+y,-z
1/2-x,1/2+y,z
1/2+x,1/2-y,z
loop_
_atom_site_type_symbol
_atom_site_label
_atom_site_fract_x
_atom_site_fract_y
_atom_site_fract_z
Si Si1 0.768944 0.317714 0.806800
Si Si2 0.580581 0.433747 0.381678
Si Si3 0.500000 0.433848 0.118640
Si Si4 0.579479 0.787771 0.180066
Si Si5 0.117700 0.158678 0.115421
Si Si6 0.200876 0.157174 0.387936
Si Si7 0.580454 0.243737 0.393608
O O1 0.750000 0.250000 0.812107
O O2 0.848756 0.321466 0.852615
O O3 0.702178 0.348315 0.859808
O O4 0.761866 0.334398 0.693010
O O5 0.578799 0.431493 0.500000
O O6 0.500000 0.415306 0.349044
O O7 0.590930 0.500000 0.353757
O O8 0.648096 0.394409 0.355653
O O9 0.500000 0.500000 0.152082
O O10 0.430342 0.395629 0.146970
O O11 0.500000 0.435958 0.000000
O O12 0.500000 0.803937 0.142377
O O13 0.590590 0.719183 0.161078
O O14 0.580668 0.793919 0.297213
O O15 0.108594 0.165392 0.000000
O O16 0.225366 0.150026 0.500000
O O17 0.146263 0.211629 0.386489
O O18 0.586353 0.215278 0.500000
O O19 0.500000 0.272826 0.392634
#
# Coordination Sequence:
#
# PCOD9482761 Si02
#       7
#    16  16   8  16  16  16  16
#     4  10  20  32  43  65  90 123 160 202 239 280
#     4   8  14  25  40  59  86 121 157 190 228 276
#     4   9  18  34  56  78  99 129 161 189 231 282
#     4  10  19  32  48  65  90 124 164 202 236 281
#     4  10  19  33  51  70  97 126 153 192 231 276
#     4  10  17  26  42  60  86 121 158 196 236 279
#     4   9  16  25  39  59  84 117 154 193 233 271
#
# _framework density 17.633711999999999
#
# number of rings (size 3 to 8) (size 9 to 14) (size 15 to 20)
#    0.000    2.538    3.846    0.923    0.000    5.538 
#    1.385    0.769    0.000    0.000    0.000    0.000 
#    0.000    2.462    0.000    7.692    0.000    0.000 
#
# Total GULP energy -289733.860395 kJ/mol
# GULP energy per Si atom -5571.805008 kJ/mol
# Density = 1.759358 g / cm^3
# Si number density = 17.633712 Si / 1000 Ang^3
#
#
#
# Elastic Constant Matrix: (Units=GPa)
#
#
# Indices 1 2 3 4 5 6 
#
# 1 144.2969 39.9860 10.3492 0.0000 0.0000 0.0000
# 2 39.9860 40.0499 0.4465 0.0000 0.0000 0.0000
# 3 10.3492 0.4465 48.8784 0.0000 0.0000 0.0000
# 4 0.0000 0.0000 0.0000 9.6021 0.0000 0.0000
# 5 0.0000 0.0000 0.0000 0.0000 16.9778 0.0000
# 6 0.0000 0.0000 0.0000 0.0000 0.0000 24.8198
#
#
#
# Elastic Compliance Matrix: (Units=1/GPa)
#
#
# Indices 1 2 3 4 5 6 
#
# 1 0.009769 -0.009731 -0.001979 0.000000 0.000000 0.000000
# 2 -0.009731 0.034665 0.001744 0.000000 0.000000 0.000000
# 3 -0.001979 0.001744 0.020862 0.000000 0.000000 0.000000
# 4 0.000000 0.000000 0.000000 0.104143 0.000000 0.000000
# 5 0.000000 0.000000 0.000000 0.000000 0.058900 0.000000
# 6 0.000000 0.000000 0.000000 0.000000 0.000000 0.040290
#
#
# Mechanical properties :
#
#
# Convention : Reuss Voigt Hill
#
# Bulk Modulus (GPa) = 22.04481 37.19875 29.62178
# Shear Modulus (GPa) = 16.46447 22.44285 19.45366
#
# Velocity S-wave (km/s) = 3.05895 3.57140 3.32506
# Velocity P-wave (km/s) = 5.00049 6.17637 5.61927
#
# Compressibility (1/GPa) = 0.04536216
#
# Stress axis : x y z
#
# Youngs Moduli (GPa) = 102.36797 28.84765 47.93374
#
# Poissons Ratio (x) = 0.28072 0.09488
# Poissons Ratio (y) = 0.99614 -0.08358
# Poissons Ratio (z) = 0.20263 -0.05030
#
# Static dielectric constant tensor:
#      x y z
#    x 1.664440 0.000000 0.000000 
#    y 0.000000 1.575370 0.000000 
#    z 0.000000 0.000000 1.689450 
# 
# From -- ./inp_files/42878.got.cif
#   From: 2010.05.17/outbox.cif.g08.bks.cpg/sg65_22_cif.got.tgz:42878.got - 2010.06.03 17:01:31.
