data_PCOD9482606
_publ_section_title
;
Structure prediction by ZEFSAII (Michael W. Deem and Ramdas Pophale) SiO2 
 PCOD9482606
Probable space group: C M M M
;
_chemical_formula_sum "Si O2"
_cell_formula_units_Z 88
_cell_length_a 31.297355
_cell_length_b 25.123753
_cell_length_c 7.758396
_cell_angle_alpha 90.000000
_cell_angle_beta 90.000000
_cell_angle_gamma 90.000000
_cell_volume 6100.481212
_symmetry_space_group_name_H-M "C M M M"
_symmetry_group_IT_number 65
_symmetry_cell_setting 'orthorhombic'
loop_
_space_group_symop_operation_xyz
x,y,z
-x,-y,z
x,-y,-z
-x,y,-z
-x,-y,-z
x,y,-z
-x,y,z
x,-y,z
1/2+x,1/2+y,z
1/2-x,1/2-y,z
1/2+x,1/2-y,-z
1/2-x,1/2+y,-z
1/2-x,1/2-y,-z
1/2+x,1/2+y,-z
1/2-x,1/2+y,z
1/2+x,1/2-y,z
loop_
_atom_site_type_symbol
_atom_site_label
_atom_site_fract_x
_atom_site_fract_y
_atom_site_fract_z
Si Si1 0.294895 0.782462 0.200332
Si Si2 0.000000 0.938683 0.294582
Si Si3 0.246748 0.882428 0.212081
Si Si4 0.851854 0.000000 0.690921
Si Si5 0.592553 0.400002 0.204697
Si Si6 0.740787 0.500000 0.804573
Si Si7 0.839049 0.180607 0.210661
O O1 0.250000 0.750000 0.201034
O O2 0.282329 0.840044 0.272601
O O3 0.328379 0.740058 0.275121
O O4 0.306585 0.791201 0.000000
O O5 0.042878 0.908172 0.241714
O O6 0.000000 0.942473 0.500000
O O7 0.000000 0.000000 0.226212
O O8 0.200214 0.858557 0.260548
O O9 0.252691 0.942770 0.273066
O O10 0.246909 0.882703 0.000000
O O11 0.881635 0.050875 0.715828
O O12 0.810900 0.000000 0.811970
O O13 0.833382 0.000000 0.500000
O O14 0.616524 0.346316 0.263019
O O15 0.598573 0.403732 0.000000
O O16 0.757797 0.500000 0.000000
O O17 0.837866 0.183269 0.000000
#
# Coordination Sequence:
#
# PCOD9482606 Si02
#       7
#    16   8  16   8  16   8  16
#     4   7  10  17  29  49  75  93 108 139 184 214
#     4  11  23  35  43  55  76  96 114 141 186 231
#     4   8  12  18  31  52  75  95 115 146 180 208
#     4  12  22  29  37  52  74  98 119 148 191 229
#     4  11  20  31  46  58  67  88 123 157 185 215
#     4  10  16  24  37  55  74  96 128 157 178 208
#     4   8  13  21  35  54  71  88 114 150 183 211
#
# _framework density 14.425091
#
# number of rings (size 3 to 8) (size 9 to 14) (size 15 to 20)
#    0.000    2.818    2.727    3.818    0.000    0.364 
#    0.000    0.000    0.000    0.000    0.000    3.818 
#    0.000    0.000    0.000    0.000    0.000    0.909 
#
# Total GULP energy -244936.473674 kJ/mol
# GULP energy per Si atom -5566.738038 kJ/mol
# Density = 1.439226 g / cm^3
# Si number density = 14.425091 Si / 1000 Ang^3
#
#
#
# Elastic Constant Matrix: (Units=GPa)
#
#
# Indices 1 2 3 4 5 6 
#
# 1 66.3049 58.3386 2.2534 0.0000 0.0000 0.0000
# 2 58.3386 135.3985 3.4419 0.0000 0.0000 0.0000
# 3 2.2534 3.4419 29.4786 0.0000 0.0000 0.0000
# 4 0.0000 0.0000 0.0000 10.2318 0.0000 0.0000
# 5 0.0000 0.0000 0.0000 0.0000 -13.0330 0.0000
# 6 0.0000 0.0000 0.0000 0.0000 0.0000 24.9402
#
#
#
# Elastic Compliance Matrix: (Units=1/GPa)
#
#
# Indices 1 2 3 4 5 6 
#
# 1 0.024302 -0.010455 -0.000637 0.000000 0.000000 0.000000
# 2 -0.010455 0.011905 -0.000591 0.000000 0.000000 0.000000
# 3 -0.000637 -0.000591 0.034041 0.000000 0.000000 0.000000
# 4 0.000000 0.000000 0.000000 0.097735 0.000000 0.000000
# 5 0.000000 0.000000 0.000000 0.000000 -0.076728 0.000000
# 6 0.000000 0.000000 0.000000 0.000000 0.000000 0.040096
#
#
# Mechanical properties :
#
#
# Convention : Reuss Voigt Hill
#
# Bulk Modulus (GPa) = 21.32982 39.91664 30.62323
# Shear Modulus (GPa) = 29.35250 15.57100 22.46175
#
# Velocity S-wave (km/s) = 4.51579 3.28905 3.95033
# Velocity P-wave (km/s) = 6.48140 6.49273 6.48707
#
# Compressibility (1/GPa) = 0.04688271
#
# Stress axis : x y z
#
# Youngs Moduli (GPa) = 41.14864 83.99674 29.37668
#
# Poissons Ratio (x) = 0.87817 0.01871
# Poissons Ratio (y) = 0.43020 0.01736
# Poissons Ratio (z) = 0.02621 0.04963
#
# Static dielectric constant tensor:
#      x y z
#    x 1.487960 0.000000 0.000000 
#    y 0.000000 1.522210 0.000000 
#    z 0.000000 0.000000 1.529460 
# 
# From -- ./inp_files/19020.got.cif
#   From: 2010.05.17/outbox.cif.g08.bks.cpg/sg65_10_cif.got.tgz:19020.got - 2010.06.03 17:01:31.
