data_PCOD9482351
_publ_section_title
;
Structure prediction by ZEFSAII (Michael W. Deem and Ramdas Pophale) SiO2 
 PCOD9482351
Probable space group: C M C A
;
_chemical_formula_sum "Si O2"
_cell_formula_units_Z 40
_cell_length_a 9.000000
_cell_length_b 27.000000
_cell_length_c 18.000000
_cell_angle_alpha 90.000000
_cell_angle_beta 90.000000
_cell_angle_gamma 90.000000
_cell_volume 4374.000000
_symmetry_space_group_name_H-M "C M C A"
_symmetry_group_IT_number 64
_symmetry_cell_setting 'orthorhombic'
loop_
_space_group_symop_operation_xyz
x,y,z
-x,1/2-y,1/2+z
x,-y,-z
-x,1/2+y,1/2-z
-x,-y,-z
x,1/2+y,1/2-z
-x,y,z
x,1/2-y,1/2+z
1/2+x,1/2+y,z
1/2-x,-y,1/2+z
1/2+x,1/2-y,-z
1/2-x,y,1/2-z
1/2-x,1/2-y,-z
1/2+x,y,1/2-z
1/2-x,1/2+y,z
1/2+x,-y,1/2+z
loop_
_atom_site_type_symbol
_atom_site_label
_atom_site_fract_x
_atom_site_fract_y
_atom_site_fract_z
Si Si1 0.676776 0.155448 0.330870
Si Si2 0.821002 0.943760 0.666472
Si Si3 0.177981 0.957643 0.167663
Si Si4 0.676148 0.757217 0.079428
Si Si5 0.177565 0.153041 0.831739
O O1 0.500000 0.145476 0.323687
O O2 0.750000 0.162521 0.250000
O O3 0.757636 0.107488 0.366460
O O4 0.697240 0.206116 0.375429
O O5 0.750000 0.943275 0.750000
O O6 0.000000 0.944245 0.669468
O O7 0.756702 0.994539 0.631624
O O8 0.250000 0.954724 0.250000
O O9 0.203627 0.902508 0.135948
O O10 0.000000 0.965745 0.172871
O O11 0.500000 0.765978 0.073280
O O12 0.752244 0.803388 0.120286
O O13 0.750000 0.750000 0.000000
O O14 0.250000 0.155289 0.750000
O O15 0.000000 0.159318 0.825268
#
# Coordination Sequence:
#
# PCOD9482351 Si02
#       5
#    16  16  16  16  16
#     4  10  20  34  53  78 105 136 172 212 257 306
#     4  10  17  26  45  73 104 136 167 207 254 301
#     4   9  16  27  45  72 105 137 167 206 253 303
#     4  11  24  39  56  76 103 139 177 219 267 316
#     4  10  20  34  55  81 109 140 176 216 260 308
#
# _framework density 9.1449470000000002
#
# number of rings (size 3 to 8) (size 9 to 14) (size 15 to 20)
#    0.000    2.000    0.000    7.200    0.000    7.200 
#    0.000    0.000    0.000    1.200    0.000    8.400 
#    0.000    0.000    0.000    0.000    0.000    0.000 
#
# Total GULP energy -223083.521484 kJ/mol
# GULP energy per Si atom -5577.088037 kJ/mol
# Density = 0.912413 g / cm^3
# Si number density = 9.144947 Si / 1000 Ang^3
#
#
#
# Elastic Constant Matrix: (Units=GPa)
#
#
# Indices 1 2 3 4 5 6 
#
# 1 166.4238 112.2677 38.6897 0.0000 0.0000 0.0000
# 2 112.2677 179.7566 45.4345 0.0000 0.0000 0.0000
# 3 38.6897 45.4345 43.5755 0.0000 0.0000 0.0000
# 4 0.0000 0.0000 0.0000 -6.8237 0.0000 0.0000
# 5 0.0000 0.0000 0.0000 0.0000 20.3033 0.0000
# 6 0.0000 0.0000 0.0000 0.0000 0.0000 39.3803
#
#
#
# Elastic Compliance Matrix: (Units=1/GPa)
#
#
# Indices 1 2 3 4 5 6 
#
# 1 0.010754 -0.005843 -0.003456 0.000000 0.000000 0.000000
# 2 -0.005843 0.010728 -0.005998 0.000000 0.000000 0.000000
# 3 -0.003456 -0.005998 0.032271 0.000000 0.000000 0.000000
# 4 0.000000 0.000000 0.000000 -0.146547 0.000000 0.000000
# 5 0.000000 0.000000 0.000000 0.000000 0.049253 0.000000
# 6 0.000000 0.000000 0.000000 0.000000 0.000000 0.025393
#
#
# Mechanical properties :
#
#
# Convention : Reuss Voigt Hill
#
# Bulk Modulus (GPa) = 43.17926 86.94887 65.06406
# Shear Modulus (GPa) = 247.93870 23.46291 135.70080
#
# Velocity S-wave (km/s) = 11.65568 3.58555 8.62296
# Velocity P-wave (km/s) = 14.31081 8.04886 11.60998
#
# Compressibility (1/GPa) = 0.02315927
#
# Stress axis : x y z
#
# Youngs Moduli (GPa) = 92.99215 93.21153 30.98725
#
# Poissons Ratio (x) = 0.54461 0.10709
# Poissons Ratio (y) = 0.54333 0.18587
# Poissons Ratio (z) = 0.32137 0.55912
#
# Static dielectric constant tensor:
#      x y z
#    x 1.605710 0.000000 0.000000 
#    y 0.000000 1.705520 0.000000 
#    z 0.000000 0.000000 1.578820 
# 
# From -- ./inp_files/29796.got.cif
#   From: 2010.05.17/outbox.ucp.g08.bks.cvg/sg64_15_cif.got.tgz:29796.got - 2010.06.11 16:36:46.
