data_PCOD9482417
_publ_section_title
;
Structure prediction by ZEFSAII (Michael W. Deem and Ramdas Pophale) SiO2 
 PCOD9482417
Probable space group: C M C A
;
_chemical_formula_sum "Si O2"
_cell_formula_units_Z 48
_cell_length_a 9.000000
_cell_length_b 24.000000
_cell_length_c 24.000000
_cell_angle_alpha 90.000000
_cell_angle_beta 90.000000
_cell_angle_gamma 90.000000
_cell_volume 5184.000000
_symmetry_space_group_name_H-M "C M C A"
_symmetry_group_IT_number 64
_symmetry_cell_setting 'orthorhombic'
loop_
_space_group_symop_operation_xyz
x,y,z
-x,1/2-y,1/2+z
x,-y,-z
-x,1/2+y,1/2-z
-x,-y,-z
x,1/2+y,1/2-z
-x,y,z
x,1/2-y,1/2+z
1/2+x,1/2+y,z
1/2-x,-y,1/2+z
1/2+x,1/2-y,-z
1/2-x,y,1/2-z
1/2-x,1/2-y,-z
1/2+x,y,1/2-z
1/2-x,1/2+y,z
1/2+x,-y,1/2+z
loop_
_atom_site_type_symbol
_atom_site_label
_atom_site_fract_x
_atom_site_fract_y
_atom_site_fract_z
Si Si1 0.678605 0.115864 0.476168
Si Si2 0.679262 0.774580 0.594172
Si Si3 0.680455 0.653072 0.906490
Si Si4 0.319595 0.450738 0.869435
Si Si5 0.321545 0.345588 0.690449
Si Si6 0.821067 0.068085 0.811434
O O1 0.500000 0.112470 0.476679
O O2 0.715627 0.177372 0.451545
O O3 0.725713 0.115098 0.540321
O O4 0.725699 0.068038 0.432351
O O5 0.500000 0.772454 0.598819
O O6 0.745244 0.713304 0.585369
O O7 0.755597 0.799453 0.649090
O O8 0.500000 0.659255 0.907299
O O9 0.721173 0.621395 0.849405
O O10 0.500000 0.444102 0.865503
O O11 0.239501 0.405038 0.831110
O O12 0.283745 0.512181 0.846898
O O13 0.500000 0.344883 0.691374
O O14 0.250000 0.335542 0.750000
O O15 0.750000 0.067473 0.750000
O O16 0.000000 0.068658 0.805349
#
# Coordination Sequence:
#
# PCOD9482417 Si02
#       6
#    16  16  16  16  16  16
#     4   8  16  32  56  82 108 134 172 223 274 322
#     4  10  20  35  54  79 109 143 178 221 272 324
#     4  10  20  35  54  79 108 144 183 221 265 320
#     4   9  18  35  56  81 108 137 174 221 272 323
#     4  11  21  34  54  80 107 139 178 225 273 322
#     4  10  22  37  55  77 107 145 184 220 262 314
#
# _framework density 9.2592590000000001
#
# number of rings (size 3 to 8) (size 9 to 14) (size 15 to 20)
#    0.000    2.333    0.000    4.000    0.000    4.000 
#    0.000    8.333    0.000    0.000    0.000    7.000 
#    0.000    0.000    0.000    0.000    0.000    0.000 
#
# Total GULP energy -267669.336651 kJ/mol
# GULP energy per Si atom -5576.444514 kJ/mol
# Density = 0.923818 g / cm^3
# Si number density = 9.259259 Si / 1000 Ang^3
#
#
#
# Elastic Constant Matrix: (Units=GPa)
#
#
# Indices 1 2 3 4 5 6 
#
# 1 47.6457 12.0992 18.7464 0.0000 0.0000 0.0000
# 2 12.0992 41.4976 19.6897 0.0000 0.0000 0.0000
# 3 18.7464 19.6897 98.8402 0.0000 0.0000 0.0000
# 4 0.0000 0.0000 0.0000 13.6493 0.0000 0.0000
# 5 0.0000 0.0000 0.0000 0.0000 22.3875 0.0000
# 6 0.0000 0.0000 0.0000 0.0000 0.0000 27.4399
#
#
#
# Elastic Compliance Matrix: (Units=1/GPa)
#
#
# Indices 1 2 3 4 5 6 
#
# 1 0.023681 -0.005272 -0.003441 0.000000 0.000000 0.000000
# 2 -0.005272 0.027787 -0.004535 0.000000 0.000000 0.000000
# 3 -0.003441 -0.004535 0.011674 0.000000 0.000000 0.000000
# 4 0.000000 0.000000 0.000000 0.073264 0.000000 0.000000
# 5 0.000000 0.000000 0.000000 0.000000 0.044668 0.000000
# 6 0.000000 0.000000 0.000000 0.000000 0.000000 0.036443
#
#
# Mechanical properties :
#
#
# Convention : Reuss Voigt Hill
#
# Bulk Modulus (GPa) = 27.28934 32.11715 29.70325
# Shear Modulus (GPa) = 19.51386 21.85855 20.68620
#
# Velocity S-wave (km/s) = 3.24967 3.43937 3.34586
# Velocity P-wave (km/s) = 5.37110 5.75788 5.56785
#
# Compressibility (1/GPa) = 0.03664435
#
# Stress axis : x y z
#
# Youngs Moduli (GPa) = 42.22809 35.98826 85.66395
#
# Poissons Ratio (x) = 0.18972 0.29479
# Poissons Ratio (y) = 0.22261 0.38853
# Poissons Ratio (z) = 0.14532 0.16322
#
# Static dielectric constant tensor:
#      x y z
#    x 1.615570 0.000000 0.000000 
#    y 0.000000 1.635440 0.000000 
#    z 0.000000 0.000000 1.693200 
# 
# From -- ./inp_files/42979.got.cif
#   From: 2010.05.17/outbox.ucp.g08.bks.cvg/sg64_22_cif.got.tgz:42979.got - 2010.06.11 16:36:46.
