data_PCOD9482340
_publ_section_title
;
Structure prediction by ZEFSAII (Michael W. Deem and Ramdas Pophale) SiO2 
 PCOD9482340
Probable space group: C M C A
;
_chemical_formula_sum "Si O2"
_cell_formula_units_Z 128
_cell_length_a 20.910809
_cell_length_b 14.045893
_cell_length_c 20.786264
_cell_angle_alpha 90.000000
_cell_angle_beta 90.000000
_cell_angle_gamma 90.000000
_cell_volume 6105.154090
_symmetry_space_group_name_H-M "C M C A"
_symmetry_group_IT_number 64
_symmetry_cell_setting 'orthorhombic'
loop_
_space_group_symop_operation_xyz
x,y,z
-x,1/2-y,1/2+z
x,-y,-z
-x,1/2+y,1/2-z
-x,-y,-z
x,1/2+y,1/2-z
-x,y,z
x,1/2-y,1/2+z
1/2+x,1/2+y,z
1/2-x,-y,1/2+z
1/2+x,1/2-y,-z
1/2-x,y,1/2-z
1/2-x,1/2-y,-z
1/2+x,y,1/2-z
1/2-x,1/2+y,z
1/2+x,-y,1/2+z
loop_
_atom_site_type_symbol
_atom_site_label
_atom_site_fract_x
_atom_site_fract_y
_atom_site_fract_z
Si Si1 0.648324 0.988727 0.429514
Si Si2 0.180925 0.246534 0.722073
Si Si3 0.928322 0.987598 0.191039
Si Si4 0.427271 0.744350 0.824389
Si Si5 0.698391 0.753163 0.079205
Si Si6 0.342408 0.232045 0.559532
Si Si7 0.293791 0.982864 0.071271
Si Si8 0.316220 0.484552 0.285783
O O1 0.601748 0.025075 0.375196
O O2 0.659675 0.876922 0.417399
O O3 0.721269 0.024488 0.430562
O O4 0.619997 0.000000 0.500000
O O5 0.250000 0.275192 0.750000
O O6 0.124172 0.273337 0.770276
O O7 0.173988 0.279089 0.648528
O O8 0.183235 0.131061 0.717571
O O9 0.930646 0.871706 0.183398
O O10 0.878018 0.013314 0.245773
O O11 0.000000 0.020930 0.202732
O O12 0.500000 0.779175 0.816830
O O13 0.397816 0.771772 0.894500
O O14 0.772679 0.722067 0.071218
O O15 0.703604 0.868181 0.077340
O O16 0.654582 0.727662 0.017983
O O17 0.320275 0.016386 0.140097
O O18 0.322391 0.000000 0.000000
O O19 0.250000 0.512353 0.250000
#
# Coordination Sequence:
#
# PCOD9482340 Si02
#       8
#    16  16  16  16  16  16  16  16
#     4   9  16  26  41  63  90 117 141 174 217 264
#     4   9  14  24  42  64  85 108 145 184 219 255
#     4   9  16  25  40  64  89 114 146 180 216 256
#     4   9  16  26  41  63  90 115 143 182 220 256
#     4   9  16  26  44  66  87 113 145 182 218 258
#     4   9  16  27  42  64  88 114 145 176 217 264
#     4   9  16  26  43  67  89 112 142 180 223 260
#     4   9  14  24  42  62  85 111 144 183 219 250
#
# _framework density 20.965892
#
# number of rings (size 3 to 8) (size 9 to 14) (size 15 to 20)
#    0.000    3.000    2.500    0.000    0.000    0.250 
#    0.000    0.625    0.000    2.625    0.000    1.750 
#    0.000    0.000    0.000    0.000    0.000    0.000 
#
# Total GULP energy -356822.525249 kJ/mol
# GULP energy per Si atom -5575.351957 kJ/mol
# Density = 2.091817 g / cm^3
# Si number density = 20.965892 Si / 1000 Ang^3
#
#
#
# Elastic Constant Matrix: (Units=GPa)
#
#
# Indices 1 2 3 4 5 6 
#
# 1 152.9066 14.5335 112.9232 0.0000 0.0000 0.0000
# 2 14.5335 55.9824 -1.3010 0.0000 0.0000 0.0000
# 3 112.9232 -1.3010 223.5007 0.0000 0.0000 0.0000
# 4 0.0000 0.0000 0.0000 20.2910 0.0000 0.0000
# 5 0.0000 0.0000 0.0000 0.0000 26.2414 0.0000
# 6 0.0000 0.0000 0.0000 0.0000 0.0000 -5.9325
#
#
#
# Elastic Compliance Matrix: (Units=1/GPa)
#
#
# Indices 1 2 3 4 5 6 
#
# 1 0.010902 -0.002959 -0.005525 0.000000 0.000000 0.000000
# 2 -0.002959 0.018668 0.001603 0.000000 0.000000 0.000000
# 3 -0.005525 0.001603 0.007275 0.000000 0.000000 0.000000
# 4 0.000000 0.000000 0.000000 0.049283 0.000000 0.000000
# 5 0.000000 0.000000 0.000000 0.000000 0.038108 0.000000
# 6 0.000000 0.000000 0.000000 0.000000 0.000000 -0.168563
#
#
# Mechanical properties :
#
#
# Convention : Reuss Voigt Hill
#
# Bulk Modulus (GPa) = 43.31959 76.07791 59.69875
# Shear Modulus (GPa) = -218.60869 28.53559 -95.03655
#
# Velocity S-wave (km/s) = -10.22228 3.69324 -6.73999
# Velocity P-wave (km/s) = 10.89128 7.38593 5.65986
#
# Compressibility (1/GPa) = 0.02308424
#
# Stress axis : x y z
#
# Youngs Moduli (GPa) = 91.72978 53.56741 137.45330
#
# Poissons Ratio (x) = 0.15848 0.75946
# Poissons Ratio (y) = 0.27139 -0.22040
# Poissons Ratio (z) = 0.50683 -0.08589
#
# Static dielectric constant tensor:
#      x y z
#    x 1.712450 0.000000 0.000000 
#    y 0.000000 1.848100 0.000000 
#    z 0.000000 0.000000 1.778460 
# 
# From -- ./inp_files/34704.got.cif
#   From: 2010.05.17/outbox.cif.g08.bks.cpg/sg64_18_cif.got.tgz:34704.got - 2010.06.03 16:29:19.
