data_PCOD9482857
_publ_section_title
;
Structure prediction by ZEFSAII (Michael W. Deem and Ramdas Pophale) SiO2 
 PCOD9482857
Probable space group: C M M M
;
_chemical_formula_sum "Si O2"
_cell_formula_units_Z 104
_cell_length_a 34.705282
_cell_length_b 22.761557
_cell_length_c 7.647108
_cell_angle_alpha 90.000000
_cell_angle_beta 90.000000
_cell_angle_gamma 90.000000
_cell_volume 6040.804322
_symmetry_space_group_name_H-M "C M M M"
_symmetry_group_IT_number 65
_symmetry_cell_setting 'orthorhombic'
loop_
_space_group_symop_operation_xyz
x,y,z
-x,-y,z
x,-y,-z
-x,y,-z
-x,-y,-z
x,y,-z
-x,y,z
x,-y,z
1/2+x,1/2+y,z
1/2-x,1/2-y,z
1/2+x,1/2-y,-z
1/2-x,1/2+y,-z
1/2-x,1/2-y,-z
1/2+x,1/2+y,-z
1/2-x,1/2+y,z
1/2+x,1/2-y,z
loop_
_atom_site_type_symbol
_atom_site_label
_atom_site_fract_x
_atom_site_fract_y
_atom_site_fract_z
Si Si1 0.043096 0.142423 0.707623
Si Si2 0.044363 0.500000 0.786497
Si Si3 0.823047 0.430884 0.300142
Si Si4 0.735400 0.071396 0.000000
Si Si5 0.383206 0.570384 0.706020
Si Si6 0.043671 0.277769 0.211190
Si Si7 0.906202 0.386761 0.212250
Si Si8 0.823138 0.928669 0.000000
O O1 0.040962 0.131734 0.500000
O O2 0.077976 0.102235 0.771054
O O3 0.052116 0.211097 0.735307
O O4 0.000000 0.131503 0.780583
O O5 0.067485 0.441937 0.731771
O O6 0.000000 0.500000 0.728739
O O7 0.043861 0.500000 0.000000
O O8 0.810237 0.426707 0.500000
O O9 0.831615 0.500000 0.262031
O O10 0.862806 0.396498 0.274413
O O11 0.789730 0.411494 0.168363
O O12 0.779246 0.093009 0.000000
O O13 0.737272 0.000000 0.000000
O O14 0.376971 0.584103 0.500000
O O15 0.388018 0.500000 0.719630
O O16 0.347555 0.588190 0.828469
O O17 0.073781 0.326579 0.271580
O O18 0.000000 0.291859 0.270152
O O19 0.043476 0.279467 0.000000
O O20 0.905429 0.387146 0.000000
O O21 0.821633 0.000000 0.000000
#
# Coordination Sequence:
#
# PCOD9482857 Si02
#       8
#    16   8  16   8  16  16  16   8
#     4   9  18  32  49  70  99 137 173 203 240 281
#     4   9  16  24  41  65  89 128 171 205 252 305
#     4  10  19  30  47  71  97 127 163 204 254 304
#     4   9  18  32  50  70 100 130 159 196 245 304
#     4   9  18  32  51  77 108 135 162 199 239 284
#     4   9  18  30  45  68  96 129 172 214 246 283
#     4  10  17  28  46  65  95 130 165 211 255 295
#     4   9  18  32  51  77 103 133 163 193 239 302
#
# _framework density 17.216249999999999
#
# number of rings (size 3 to 8) (size 9 to 14) (size 15 to 20)
#    0.000    2.692    1.538    0.462    1.077    3.385 
#    0.000    4.615    0.000    3.231    0.000    2.154 
#    0.000    3.692    0.000    0.000    0.000    0.000 
#
# Total GULP energy -289917.521612 kJ/mol
# GULP energy per Si atom -5575.336954 kJ/mol
# Density = 1.717706 g / cm^3
# Si number density = 17.216250 Si / 1000 Ang^3
#
#
#
# Elastic Constant Matrix: (Units=GPa)
#
#
# Indices 1 2 3 4 5 6 
#
# 1 170.2787 55.9633 54.6906 0.0000 0.0000 0.0000
# 2 55.9633 32.1388 19.9190 0.0000 0.0000 0.0000
# 3 54.6906 19.9190 64.0044 0.0000 0.0000 0.0000
# 4 0.0000 0.0000 0.0000 15.4120 0.0000 0.0000
# 5 0.0000 0.0000 0.0000 0.0000 -1.4225 0.0000
# 6 0.0000 0.0000 0.0000 0.0000 0.0000 14.0385
#
#
#
# Elastic Compliance Matrix: (Units=1/GPa)
#
#
# Indices 1 2 3 4 5 6 
#
# 1 0.015365 -0.023067 -0.005950 0.000000 0.000000 0.000000
# 2 -0.023067 0.073182 -0.003064 0.000000 0.000000 0.000000
# 3 -0.005950 -0.003064 0.021662 0.000000 0.000000 0.000000
# 4 0.000000 0.000000 0.000000 0.064884 0.000000 0.000000
# 5 0.000000 0.000000 0.000000 0.000000 -0.703007 0.000000
# 6 0.000000 0.000000 0.000000 0.000000 0.000000 0.071233
#
#
# Mechanical properties :
#
#
# Convention : Reuss Voigt Hill
#
# Bulk Modulus (GPa) = 21.71809 58.61862 40.16836
# Shear Modulus (GPa) = -13.25667 14.66221 0.70277
#
# Velocity S-wave (km/s) = -2.77791 2.92147 0.63960
# Velocity P-wave (km/s) = 1.53401 6.74554 4.89160
#
# Compressibility (1/GPa) = 0.04604456
#
# Stress axis : x y z
#
# Youngs Moduli (GPa) = 65.08229 13.66464 46.16363
#
# Poissons Ratio (x) = 0.31521 0.27469
# Poissons Ratio (y) = 1.50128 0.14146
# Poissons Ratio (z) = 0.38726 0.04187
#
# Static dielectric constant tensor:
#      x y z
#    x 1.571910 0.000000 0.000000 
#    y 0.000000 1.559080 0.000000 
#    z 0.000000 0.000000 1.629100 
# 
# From -- ./inp_files/18715.got.cif
#   From: 2010.05.17/outbox.cif.g08.bks.cpg/sg65_10_cif.got.tgz:18715.got - 2010.06.03 17:01:31.
