data_PCOD9482581
_publ_section_title
;
Structure prediction by ZEFSAII (Michael W. Deem and Ramdas Pophale) SiO2 
 PCOD9482581
Probable space group: C M M M
;
_chemical_formula_sum "Si O2"
_cell_formula_units_Z 88
_cell_length_a 8.871539
_cell_length_b 14.855886
_cell_length_c 30.650344
_cell_angle_alpha 90.000000
_cell_angle_beta 90.000000
_cell_angle_gamma 90.000000
_cell_volume 4039.548970
_symmetry_space_group_name_H-M "C M M M"
_symmetry_group_IT_number 65
_symmetry_cell_setting 'orthorhombic'
loop_
_space_group_symop_operation_xyz
x,y,z
-x,-y,z
x,-y,-z
-x,y,-z
-x,-y,-z
x,y,-z
-x,y,z
x,-y,z
1/2+x,1/2+y,z
1/2-x,1/2-y,z
1/2+x,1/2-y,-z
1/2-x,1/2+y,-z
1/2-x,1/2-y,-z
1/2+x,1/2+y,-z
1/2-x,1/2+y,z
1/2+x,1/2-y,z
loop_
_atom_site_type_symbol
_atom_site_label
_atom_site_fract_x
_atom_site_fract_y
_atom_site_fract_z
Si Si1 0.181633 0.608157 0.546781
Si Si2 0.820578 0.348790 0.816915
Si Si3 0.824771 0.610352 0.358960
Si Si4 0.319031 0.351822 0.000000
Si Si5 0.334625 0.394175 0.727954
Si Si6 0.318235 0.148653 0.088021
O O1 0.240463 0.642799 0.500000
O O2 0.204239 0.500000 0.546184
O O3 0.239685 0.640059 0.593884
O O4 0.000000 0.621571 0.547366
O O5 0.750000 0.250000 0.817883
O O6 0.759560 0.388701 0.772198
O O7 0.783076 0.391847 0.864197
O O8 0.000000 0.344567 0.814996
O O9 0.822233 0.500000 0.359353
O O10 0.740565 0.642915 0.315844
O O11 0.000000 0.636039 0.356032
O O12 0.250000 0.250000 0.000000
O O13 0.256294 0.393067 0.044950
O O14 0.500000 0.348861 0.000000
O O15 0.500000 0.353554 0.735289
O O16 0.350469 0.500000 0.719367
O O17 0.500000 0.152116 0.082844
O O18 0.250000 0.250000 0.089948
#
# Coordination Sequence:
#
# PCOD9482581 Si02
#       6
#    16  16  16   8  16  16
#     4   7   9  14  27  49  75 102 134 173 216 260
#     4  10  20  33  50  70  93 121 152 189 231 273
#     4   8  13  22  37  56  79 109 145 183 221 263
#     4  10  16  22  36  58  85 116 145 174 211 257
#     4  10  20  32  46  65  91 123 157 192 228 268
#     4   9  16  26  40  60  86 114 143 177 218 262
#
# _framework density 21.784610000000001
#
# number of rings (size 3 to 8) (size 9 to 14) (size 15 to 20)
#    0.000    3.091    0.000    5.182    0.000    3.273 
#    0.000    0.000    0.000    0.545    0.000    4.455 
#    0.000    5.818    0.000    2.000    0.000    5.091 
#
# Total GULP energy -245079.148569 kJ/mol
# GULP energy per Si atom -5569.980649 kJ/mol
# Density = 2.173503 g / cm^3
# Si number density = 21.784610 Si / 1000 Ang^3
#
#
#
# Elastic Constant Matrix: (Units=GPa)
#
#
# Indices 1 2 3 4 5 6 
#
# 1 94.7012 3.0219 90.1003 0.0000 0.0000 0.0000
# 2 3.0219 46.9422 13.9658 0.0000 0.0000 0.0000
# 3 90.1003 13.9658 277.7607 0.0000 0.0000 0.0000
# 4 0.0000 0.0000 0.0000 33.6847 0.0000 0.0000
# 5 0.0000 0.0000 0.0000 0.0000 46.9243 0.0000
# 6 0.0000 0.0000 0.0000 0.0000 0.0000 4.4272
#
#
#
# Elastic Compliance Matrix: (Units=1/GPa)
#
#
# Indices 1 2 3 4 5 6 
#
# 1 0.015285 0.000499 -0.004983 0.000000 0.000000 0.000000
# 2 0.000499 0.021643 -0.001250 0.000000 0.000000 0.000000
# 3 -0.004983 -0.001250 0.005279 0.000000 0.000000 0.000000
# 4 0.000000 0.000000 0.000000 0.029687 0.000000 0.000000
# 5 0.000000 0.000000 0.000000 0.000000 0.021311 0.000000
# 6 0.000000 0.000000 0.000000 0.000000 0.000000 0.225877
#
#
# Mechanical properties :
#
#
# Convention : Reuss Voigt Hill
#
# Bulk Modulus (GPa) = 32.53323 70.39779 51.46551
# Shear Modulus (GPa) = 14.67152 37.82832 26.24992
#
# Velocity S-wave (km/s) = 2.59797 4.17162 3.47504
# Velocity P-wave (km/s) = 4.89548 7.45578 6.30692
#
# Compressibility (1/GPa) = 0.03073781
#
# Stress axis : x y z
#
# Youngs Moduli (GPa) = 65.42512 46.20525 189.41197
#
# Poissons Ratio (x) = -0.02304 0.94386
# Poissons Ratio (y) = -0.03262 0.23675
# Poissons Ratio (z) = 0.32602 0.05775
#
# Static dielectric constant tensor:
#      x y z
#    x 1.752240 0.000000 0.000000 
#    y 0.000000 1.916540 0.000000 
#    z 0.000000 0.000000 1.885530 
# 
# From -- ./inp_files/76776.got.cif
#   From: 2010.05.17/outbox.cif.g08.bks.cpg/sg65_39_cif.got.tgz:76776.got - 2010.06.03 17:01:31.
