data_PCOD9482095
_publ_section_title
;
Structure prediction by ZEFSAII (Michael W. Deem and Ramdas Pophale) SiO2 
 PCOD9482095
Probable space group: C M C A
;
_chemical_formula_sum "Si O2"
_cell_formula_units_Z 56
_cell_length_a 19.039090
_cell_length_b 13.819598
_cell_length_c 8.121317
_cell_angle_alpha 90.000000
_cell_angle_beta 90.000000
_cell_angle_gamma 90.000000
_cell_volume 2136.820588
_symmetry_space_group_name_H-M "C M C A"
_symmetry_group_IT_number 64
_symmetry_cell_setting 'orthorhombic'
loop_
_space_group_symop_operation_xyz
x,y,z
-x,1/2-y,1/2+z
x,-y,-z
-x,1/2+y,1/2-z
-x,-y,-z
x,1/2+y,1/2-z
-x,y,z
x,1/2-y,1/2+z
1/2+x,1/2+y,z
1/2-x,-y,1/2+z
1/2+x,1/2-y,-z
1/2-x,y,1/2-z
1/2-x,1/2-y,-z
1/2+x,y,1/2-z
1/2-x,1/2+y,z
1/2+x,-y,1/2+z
loop_
_atom_site_type_symbol
_atom_site_label
_atom_site_fract_x
_atom_site_fract_y
_atom_site_fract_z
Si Si1 0.000000 0.646534 0.919860
Si Si2 0.654702 0.701225 0.516477
Si Si3 0.250000 0.068671 0.750000
Si Si4 0.500000 0.041543 0.277197
Si Si5 0.151683 0.395864 0.655385
O O1 0.073709 0.701397 0.920710
O O2 0.000000 0.571327 0.769352
O O3 0.000000 0.591153 0.095613
O O4 0.699655 0.633016 0.635518
O O5 0.675860 0.813296 0.528959
O O6 0.658418 0.656818 0.334483
O O7 0.196955 0.992353 0.834727
O O8 0.570768 0.074633 0.364191
#
# Coordination Sequence:
#
# PCOD9482095 Si02
#       5
#     8  16   8   8  16
#     4   9  17  38  69  94 121 162 215 265 316 375
#     4  11  24  42  67  96 127 168 214 266 322 380
#     4  12  24  38  62  92 128 170 212 256 308 378
#     4   9  17  38  69  94 121 162 215 265 316 375
#     4  11  24  42  67  96 127 168 214 266 322 380
#
# _framework density 26.207162
#
# number of rings (size 3 to 8) (size 9 to 14) (size 15 to 20)
#    0.000    1.429    2.857    2.571    0.000    6.857 
#    0.000    0.000    0.000    1.714    0.000    0.000 
#    0.000    0.000    0.000    0.000    0.000    0.000 
#
# Total GULP energy -157195.145804 kJ/mol
# GULP energy per Si atom -5614.112350 kJ/mol
# Density = 2.614751 g / cm^3
# Si number density = 26.207162 Si / 1000 Ang^3
#
#
#
# Elastic Constant Matrix: (Units=GPa)
#
#
# Indices 1 2 3 4 5 6 
#
# 1 199.1896 70.2352 42.9232 0.0000 0.0000 0.0000
# 2 70.2352 164.7649 41.1077 0.0000 0.0000 0.0000
# 3 42.9232 41.1077 116.2590 0.0000 0.0000 0.0000
# 4 0.0000 0.0000 0.0000 38.6342 0.0000 0.0000
# 5 0.0000 0.0000 0.0000 0.0000 29.0057 0.0000
# 6 0.0000 0.0000 0.0000 0.0000 0.0000 50.0524
#
#
#
# Elastic Compliance Matrix: (Units=1/GPa)
#
#
# Indices 1 2 3 4 5 6 
#
# 1 0.006129 -0.002246 -0.001469 0.000000 0.000000 0.000000
# 2 -0.002246 0.007480 -0.001815 0.000000 0.000000 0.000000
# 3 -0.001469 -0.001815 0.009786 0.000000 0.000000 0.000000
# 4 0.000000 0.000000 0.000000 0.025884 0.000000 0.000000
# 5 0.000000 0.000000 0.000000 0.000000 0.034476 0.000000
# 6 0.000000 0.000000 0.000000 0.000000 0.000000 0.019979
#
#
# Mechanical properties :
#
#
# Convention : Reuss Voigt Hill
#
# Bulk Modulus (GPa) = 81.07818 87.63841 84.35830
# Shear Modulus (GPa) = 42.05059 45.26831 43.65945
#
# Velocity S-wave (km/s) = 4.01002 4.16062 4.08602
# Velocity P-wave (km/s) = 7.24189 7.52291 7.38374
#
# Compressibility (1/GPa) = 0.01233377
#
# Stress axis : x y z
#
# Youngs Moduli (GPa) = 163.16388 133.69572 102.19112
#
# Poissons Ratio (x) = 0.30030 0.15007
# Poissons Ratio (y) = 0.36649 0.18552
# Poissons Ratio (z) = 0.23962 0.24271
#
# Static dielectric constant tensor:
#      x y z
#    x 2.042460 0.000000 0.000000 
#    y 0.000000 1.977980 0.000000 
#    z 0.000000 0.000000 2.049450 
# 
# From -- ./inp_files/7650.got.cif
#   From: 2010.05.17/outbox.cif.g08.bks.cpg/sg64_4_cif.got.tgz:7650.got - 2010.06.03 16:29:19.
