data_PCOD9482211
_publ_section_title
;
Structure prediction by ZEFSAII (Michael W. Deem and Ramdas Pophale) SiO2 
 PCOD9482211
Probable space group: C M C A
;
_chemical_formula_sum "Si O2"
_cell_formula_units_Z 40
_cell_length_a 14.417949
_cell_length_b 23.645477
_cell_length_c 5.127580
_cell_angle_alpha 90.000000
_cell_angle_beta 90.000000
_cell_angle_gamma 90.000000
_cell_volume 1748.090889
_symmetry_space_group_name_H-M "C M C A"
_symmetry_group_IT_number 64
_symmetry_cell_setting 'orthorhombic'
loop_
_space_group_symop_operation_xyz
x,y,z
-x,1/2-y,1/2+z
x,-y,-z
-x,1/2+y,1/2-z
-x,-y,-z
x,1/2+y,1/2-z
-x,y,z
x,1/2-y,1/2+z
1/2+x,1/2+y,z
1/2-x,-y,1/2+z
1/2+x,1/2-y,-z
1/2-x,y,1/2-z
1/2-x,1/2-y,-z
1/2+x,y,1/2-z
1/2-x,1/2+y,z
1/2+x,-y,1/2+z
loop_
_atom_site_type_symbol
_atom_site_label
_atom_site_fract_x
_atom_site_fract_y
_atom_site_fract_z
Si Si1 0.750000 0.960051 0.750000
Si Si2 0.846811 0.377504 0.099630
Si Si3 0.500000 0.713379 0.463407
Si Si4 0.500000 0.539910 0.757187
O O1 0.827545 0.916347 0.653186
O O2 0.732392 0.000000 0.500000
O O3 0.750000 0.365661 0.250000
O O4 0.908385 0.323754 0.023367
O O5 0.912188 0.418759 0.264283
O O6 0.500000 0.734937 0.167581
O O7 0.500000 0.500000 0.500000
O O8 0.500000 0.500000 0.000000
#
# Coordination Sequence:
#
# PCOD9482211 Si02
#       4
#     8  16   8   8
#     4  12  26  42  74 114 156 198 240 292 372 462
#     4  11  28  47  76 110 153 195 261 305 370 464
#     4  11  30  55  77 106 147 194 260 336 384 422
#     4  11  28  41  66 108 154 200 238 294 365 446
#
# _framework density 22.882104000000002
#
# number of rings (size 3 to 8) (size 9 to 14) (size 15 to 20)
#    0.000    0.800    2.000    1.200   16.800    4.800 
#    0.000    3.000    0.000    0.000    0.000    0.000 
#    0.000    0.000    0.000    0.000    0.000    0.000 
#
# Total GULP energy -111962.274764 kJ/mol
# GULP energy per Si atom -5598.113738 kJ/mol
# Density = 2.283002 g / cm^3
# Si number density = 22.882104 Si / 1000 Ang^3
#
#
#
# Elastic Constant Matrix: (Units=GPa)
#
#
# Indices 1 2 3 4 5 6 
#
# 1 148.5510 36.5933 14.6754 0.0000 0.0000 0.0000
# 2 36.5933 78.6218 8.7056 0.0000 0.0000 0.0000
# 3 14.6754 8.7056 111.8468 0.0000 0.0000 0.0000
# 4 0.0000 0.0000 0.0000 24.7115 0.0000 0.0000
# 5 0.0000 0.0000 0.0000 0.0000 24.9930 0.0000
# 6 0.0000 0.0000 0.0000 0.0000 0.0000 28.9142
#
#
#
# Elastic Compliance Matrix: (Units=1/GPa)
#
#
# Indices 1 2 3 4 5 6 
#
# 1 0.007663 -0.003485 -0.000734 0.000000 0.000000 0.000000
# 2 -0.003485 0.014415 -0.000665 0.000000 0.000000 0.000000
# 3 -0.000734 -0.000665 0.009089 0.000000 0.000000 0.000000
# 4 0.000000 0.000000 0.000000 0.040467 0.000000 0.000000
# 5 0.000000 0.000000 0.000000 0.000000 0.040011 0.000000
# 6 0.000000 0.000000 0.000000 0.000000 0.000000 0.034585
#
#
# Mechanical properties :
#
#
# Convention : Reuss Voigt Hill
#
# Bulk Modulus (GPa) = 46.73254 50.99646 48.86450
# Shear Modulus (GPa) = 30.65029 34.32677 32.48853
#
# Velocity S-wave (km/s) = 3.66387 3.87739 3.77214
# Velocity P-wave (km/s) = 6.19404 6.51003 6.35400
#
# Compressibility (1/GPa) = 0.02139837
#
# Stress axis : x y z
#
# Youngs Moduli (GPa) = 130.50139 69.37284 110.02475
#
# Poissons Ratio (x) = 0.24178 0.08078
# Poissons Ratio (y) = 0.45483 0.07313
# Poissons Ratio (z) = 0.09581 0.04611
#
# Static dielectric constant tensor:
#      x y z
#    x 1.947700 0.000000 0.000000 
#    y 0.000000 1.842340 0.000000 
#    z 0.000000 0.000000 1.803380 
# 
# From -- ./inp_files/620.got.cif
#   From: 2010.05.17/outbox.cif.g08.bks.cpg/sg64_1_cif.got.tgz:620.got - 2010.06.03 16:29:19.
