data_PCOD9482610
_publ_section_title
;
Structure prediction by ZEFSAII (Michael W. Deem and Ramdas Pophale) SiO2 
 PCOD9482610
Probable space group: C M M M
;
_chemical_formula_sum "Si O2"
_cell_formula_units_Z 64
_cell_length_a 8.661983
_cell_length_b 25.519485
_cell_length_c 18.449212
_cell_angle_alpha 90.000000
_cell_angle_beta 90.000000
_cell_angle_gamma 90.000000
_cell_volume 4078.186233
_symmetry_space_group_name_H-M "C M M M"
_symmetry_group_IT_number 65
_symmetry_cell_setting 'orthorhombic'
loop_
_space_group_symop_operation_xyz
x,y,z
-x,-y,z
x,-y,-z
-x,y,-z
-x,-y,-z
x,y,-z
-x,y,z
x,-y,z
1/2+x,1/2+y,z
1/2-x,1/2-y,z
1/2+x,1/2-y,-z
1/2-x,1/2+y,-z
1/2-x,1/2-y,-z
1/2+x,1/2+y,-z
1/2-x,1/2+y,z
1/2+x,1/2-y,z
loop_
_atom_site_type_symbol
_atom_site_label
_atom_site_fract_x
_atom_site_fract_y
_atom_site_fract_z
Si Si1 0.815255 0.309745 0.000000
Si Si2 0.684673 0.309520 0.149045
Si Si3 0.183713 0.308662 0.299902
Si Si4 0.183924 0.888387 0.414323
Si Si5 0.677674 0.000000 0.412104
O O1 0.750000 0.250000 0.000000
O O2 0.752215 0.333716 0.075019
O O3 0.000000 0.308132 0.000000
O O4 0.500000 0.308442 0.146151
O O5 0.750000 0.250000 0.150559
O O6 0.743614 0.331570 0.225463
O O7 0.250000 0.250000 0.310447
O O8 0.231369 0.345100 0.366518
O O9 0.000000 0.305376 0.291978
O O10 0.219982 0.882393 0.500000
O O11 0.000000 0.883443 0.405732
O O12 0.237907 0.946428 0.390882
O O13 0.500000 0.000000 0.387720
O O14 0.677715 0.000000 0.500000
#
# Coordination Sequence:
#
# PCOD9482610 Si02
#       5
#     8  16  16  16   8
#     4  10  16  24  38  58  82 111 148 185 222 264
#     4  10  17  27  41  59  84 115 150 186 225 268
#     4  11  21  33  47  65  92 125 158 192 231 276
#     4  10  20  34  51  70  92 120 154 192 233 276
#     4   9  17  31  51  73  93 114 145 188 235 277
#
# _framework density 15.693251
#
# number of rings (size 3 to 8) (size 9 to 14) (size 15 to 20)
#    0.000    1.875    0.000    9.750    0.000    3.500 
#    0.000    0.000    0.000    0.000    0.000    0.000 
#    0.000    1.000    0.000   10.000    0.000    6.750 
#
# Total GULP energy -178408.796723 kJ/mol
# GULP energy per Si atom -5575.274898 kJ/mol
# Density = 1.565753 g / cm^3
# Si number density = 15.693251 Si / 1000 Ang^3
#
#
#
# Elastic Constant Matrix: (Units=GPa)
#
#
# Indices 1 2 3 4 5 6 
#
# 1 154.6233 32.3164 58.5442 0.0000 0.0000 0.0000
# 2 32.3164 55.7145 38.8847 0.0000 0.0000 0.0000
# 3 58.5442 38.8847 92.6895 0.0000 0.0000 0.0000
# 4 0.0000 0.0000 0.0000 -1.5814 0.0000 0.0000
# 5 0.0000 0.0000 0.0000 0.0000 28.4855 0.0000
# 6 0.0000 0.0000 0.0000 0.0000 0.0000 21.7171
#
#
#
# Elastic Compliance Matrix: (Units=1/GPa)
#
#
# Indices 1 2 3 4 5 6 
#
# 1 0.008612 -0.001695 -0.004728 0.000000 0.000000 0.000000
# 2 -0.001695 0.025713 -0.009716 0.000000 0.000000 0.000000
# 3 -0.004728 -0.009716 0.017851 0.000000 0.000000 0.000000
# 4 0.000000 0.000000 0.000000 -0.632365 0.000000 0.000000
# 5 0.000000 0.000000 0.000000 0.000000 0.035106 0.000000
# 6 0.000000 0.000000 0.000000 0.000000 0.000000 0.046047
#
#
# Mechanical properties :
#
#
# Convention : Reuss Voigt Hill
#
# Bulk Modulus (GPa) = 50.25941 62.50199 56.38070
# Shear Modulus (GPa) = -10.86662 21.27636 5.20487
#
# Velocity S-wave (km/s) = -2.63428 3.68607 1.82314
# Velocity P-wave (km/s) = 4.77944 7.61773 6.35897
#
# Compressibility (1/GPa) = 0.01989677
#
# Stress axis : x y z
#
# Youngs Moduli (GPa) = 116.11894 38.89041 56.01828
#
# Poissons Ratio (x) = 0.06593 0.26487
# Poissons Ratio (y) = 0.19685 0.54430
# Poissons Ratio (z) = 0.54904 0.37787
#
# Static dielectric constant tensor:
#      x y z
#    x 1.523100 0.000000 0.000000 
#    y 0.000000 1.494340 0.000000 
#    z 0.000000 0.000000 1.583700 
# 
# From -- ./inp_files/36384.got.cif
#   From: 2010.05.17/outbox.cif.g08.bks.cpg/sg65_19_cif.got.tgz:36384.got - 2010.06.03 17:01:31.
