data_PCOD9482135
_publ_section_title
;
Structure prediction by ZEFSAII (Michael W. Deem and Ramdas Pophale) SiO2 
 PCOD9482135
Probable space group: C M C A
;
_chemical_formula_sum "Si O2"
_cell_formula_units_Z 92
_cell_length_a 16.727390
_cell_length_b 13.431919
_cell_length_c 18.891855
_cell_angle_alpha 90.000000
_cell_angle_beta 90.000000
_cell_angle_gamma 90.000000
_cell_volume 4244.639883
_symmetry_space_group_name_H-M "C M C A"
_symmetry_group_IT_number 64
_symmetry_cell_setting 'orthorhombic'
loop_
_space_group_symop_operation_xyz
x,y,z
-x,1/2-y,1/2+z
x,-y,-z
-x,1/2+y,1/2-z
-x,-y,-z
x,1/2+y,1/2-z
-x,y,z
x,1/2-y,1/2+z
1/2+x,1/2+y,z
1/2-x,-y,1/2+z
1/2+x,1/2-y,-z
1/2-x,y,1/2-z
1/2-x,1/2-y,-z
1/2+x,y,1/2-z
1/2-x,1/2+y,z
1/2+x,-y,1/2+z
loop_
_atom_site_type_symbol
_atom_site_label
_atom_site_fract_x
_atom_site_fract_y
_atom_site_fract_z
Si Si1 0.000000 0.000000 0.500000
Si Si2 0.411456 0.765245 0.233092
Si Si3 0.877641 0.376890 0.098475
Si Si4 0.731726 0.483479 0.878872
Si Si5 0.250000 0.855248 0.750000
Si Si6 0.410325 0.615808 0.874660
Si Si7 0.328353 0.812680 0.518404
O O1 0.068507 0.052753 0.550467
O O2 0.500000 0.718260 0.220137
O O3 0.404860 0.858399 0.179142
O O4 0.328372 0.705465 0.225176
O O5 0.410824 0.800798 0.314313
O O6 0.790450 0.427975 0.098519
O O7 0.877894 0.265361 0.065953
O O8 0.773991 0.421054 0.817390
O O9 0.651302 0.532637 0.849260
O O10 0.702183 0.409385 0.939861
O O11 0.500000 0.577481 0.883882
O O12 0.377565 0.657183 0.949000
O O13 0.250000 0.750000 0.500000
#
# Coordination Sequence:
#
# PCOD9482135 Si02
#       7
#     4  16  16  16   8  16  16
#     4  12  28  44  76 112 140 196 238 306 380 442
#     4  11  24  49  75 104 146 196 244 311 375 448
#     4  12  25  49  74 108 152 189 249 311 378 447
#     4  12  25  45  74 106 146 192 249 306 373 456
#     4  12  24  46  76 110 140 204 256 300 390 454
#     4  11  26  45  72 108 146 193 249 309 375 454
#     4  12  24  45  72 104 146 193 242 307 372 448
#
# _framework density 21.674395000000001
#
# number of rings (size 3 to 8) (size 9 to 14) (size 15 to 20)
#    0.000    0.348    4.348    4.696    1.217    2.087 
#    4.696    0.000    0.000    0.000    0.000    0.000 
#    0.000    0.000    0.000    0.000    0.000    0.000 
#
# Total GULP energy -256557.320075 kJ/mol
# GULP energy per Si atom -5577.333045 kJ/mol
# Density = 2.162506 g / cm^3
# Si number density = 21.674395 Si / 1000 Ang^3
#
#
#
# Elastic Constant Matrix: (Units=GPa)
#
#
# Indices 1 2 3 4 5 6 
#
# 1 134.8010 26.9297 7.5974 0.0000 0.0000 0.0000
# 2 26.9297 62.0484 25.6762 0.0000 0.0000 0.0000
# 3 7.5974 25.6762 111.0623 0.0000 0.0000 0.0000
# 4 0.0000 0.0000 0.0000 48.7043 0.0000 0.0000
# 5 0.0000 0.0000 0.0000 0.0000 15.2577 0.0000
# 6 0.0000 0.0000 0.0000 0.0000 0.0000 14.6752
#
#
#
# Elastic Compliance Matrix: (Units=1/GPa)
#
#
# Indices 1 2 3 4 5 6 
#
# 1 0.008131 -0.003648 0.000287 0.000000 0.000000 0.000000
# 2 -0.003648 0.019458 -0.004249 0.000000 0.000000 0.000000
# 3 0.000287 -0.004249 0.009967 0.000000 0.000000 0.000000
# 4 0.000000 0.000000 0.000000 0.020532 0.000000 0.000000
# 5 0.000000 0.000000 0.000000 0.000000 0.065541 0.000000
# 6 0.000000 0.000000 0.000000 0.000000 0.000000 0.068142
#
#
# Mechanical properties :
#
#
# Convention : Reuss Voigt Hill
#
# Bulk Modulus (GPa) = 44.77007 47.59092 46.18050
# Shear Modulus (GPa) = 23.31713 32.24133 27.77923
#
# Velocity S-wave (km/s) = 3.28348 3.86104 3.58391
# Velocity P-wave (km/s) = 5.92247 6.47161 6.20312
#
# Compressibility (1/GPa) = 0.02233635
#
# Stress axis : x y z
#
# Youngs Moduli (GPa) = 122.98796 51.39320 100.33510
#
# Poissons Ratio (x) = 0.18747 -0.02881
# Poissons Ratio (y) = 0.44862 0.42631
# Poissons Ratio (z) = -0.03531 0.21836
#
# Static dielectric constant tensor:
#      x y z
#    x 1.789300 0.000000 0.000000 
#    y 0.000000 2.392080 0.000000 
#    z 0.000000 0.000000 1.874560 
# 
# From -- ./inp_files/40098.got.cif
#   From: 2010.05.17/outbox.cif.g08.bks.cpg/sg64_21_cif.got.tgz:40098.got - 2010.06.03 16:29:19.
