data_PCOD9482877
_publ_section_title
;
Structure prediction by ZEFSAII (Michael W. Deem and Ramdas Pophale) SiO2 
 PCOD9482877
Probable space group: C M M M
;
_chemical_formula_sum "Si O2"
_cell_formula_units_Z 72
_cell_length_a 14.518942
_cell_length_b 11.462821
_cell_length_c 18.458788
_cell_angle_alpha 90.000000
_cell_angle_beta 90.000000
_cell_angle_gamma 90.000000
_cell_volume 3072.059783
_symmetry_space_group_name_H-M "C M M M"
_symmetry_group_IT_number 65
_symmetry_cell_setting 'orthorhombic'
loop_
_space_group_symop_operation_xyz
x,y,z
-x,-y,z
x,-y,-z
-x,y,-z
-x,-y,-z
x,y,-z
-x,y,z
x,-y,z
1/2+x,1/2+y,z
1/2-x,1/2-y,z
1/2+x,1/2-y,-z
1/2-x,1/2+y,-z
1/2-x,1/2-y,-z
1/2+x,1/2+y,-z
1/2-x,1/2+y,z
1/2+x,1/2-y,z
loop_
_atom_site_type_symbol
_atom_site_label
_atom_site_fract_x
_atom_site_fract_y
_atom_site_fract_z
Si Si1 0.144433 0.255619 0.359264
Si Si2 0.388386 0.500000 0.178718
Si Si3 0.612087 0.278213 0.917673
Si Si4 0.352580 0.000000 0.414354
Si Si5 0.388533 0.868808 0.211519
Si Si6 0.147554 0.000000 0.347781
O O1 0.250000 0.250000 0.385860
O O2 0.103502 0.375717 0.391165
O O3 0.144305 0.280629 0.273156
O O4 0.106039 0.125384 0.371565
O O5 0.500000 0.500000 0.185621
O O6 0.361910 0.388719 0.130961
O O7 0.352594 0.500000 0.260435
O O8 0.500000 0.278761 0.921061
O O9 0.639971 0.168320 0.868909
O O10 0.645055 0.280911 0.000000
O O11 0.343645 0.000000 0.500000
O O12 0.251906 0.000000 0.377137
O O13 0.500000 0.864825 0.214005
O O14 0.359465 0.000000 0.228424
#
# Coordination Sequence:
#
# PCOD9482877 Si02
#       6
#    16   8  16   8  16   8
#     4  10  20  35  56  83 111 145 182 227 275 339
#     4  10  17  28  48  77 111 144 180 223 276 334
#     4   9  17  28  45  73 109 146 184 230 278 321
#     4  10  22  40  60  82 108 139 178 228 280 340
#     4  10  19  32  53  80 111 147 189 236 284 336
#     4  10  20  31  54  86 107 140 182 227 274 324
#
# _framework density 23.437045000000001
#
# number of rings (size 3 to 8) (size 9 to 14) (size 15 to 20)
#    0.000    2.222    3.333    0.333    0.000    5.778 
#    0.000    2.222    0.000    2.333    0.000    6.222 
#    0.000    0.000    0.000    0.000    0.000    0.000 
#
# Total GULP energy -201027.031910 kJ/mol
# GULP energy per Si atom -5584.084220 kJ/mol
# Density = 2.338370 g / cm^3
# Si number density = 23.437045 Si / 1000 Ang^3
#
#
#
# Elastic Constant Matrix: (Units=GPa)
#
#
# Indices 1 2 3 4 5 6 
#
# 1 88.5743 25.9049 18.5013 0.0000 0.0000 0.0000
# 2 25.9049 218.4723 39.3945 0.0000 0.0000 0.0000
# 3 18.5013 39.3945 128.5184 0.0000 0.0000 0.0000
# 4 0.0000 0.0000 0.0000 19.8438 0.0000 0.0000
# 5 0.0000 0.0000 0.0000 0.0000 16.7920 0.0000
# 6 0.0000 0.0000 0.0000 0.0000 0.0000 1.2583
#
#
#
# Elastic Compliance Matrix: (Units=1/GPa)
#
#
# Indices 1 2 3 4 5 6 
#
# 1 0.011915 -0.001168 -0.001357 0.000000 0.000000 0.000000
# 2 -0.001168 0.004960 -0.001352 0.000000 0.000000 0.000000
# 3 -0.001357 -0.001352 0.008391 0.000000 0.000000 0.000000
# 4 0.000000 0.000000 0.000000 0.050394 0.000000 0.000000
# 5 0.000000 0.000000 0.000000 0.000000 0.059552 0.000000
# 6 0.000000 0.000000 0.000000 0.000000 0.000000 0.794752
#
#
# Mechanical properties :
#
#
# Convention : Reuss Voigt Hill
#
# Bulk Modulus (GPa) = 57.10805 67.01850 62.06327
# Shear Modulus (GPa) = 5.29911 31.02975 18.16443
#
# Velocity S-wave (km/s) = 1.50529 3.64258 2.78696
# Velocity P-wave (km/s) = 5.23838 6.80796 6.07408
#
# Compressibility (1/GPa) = 0.01751067
#
# Stress axis : x y z
#
# Youngs Moduli (GPa) = 83.92730 201.63132 119.17780
#
# Poissons Ratio (x) = 0.23552 0.16175
# Poissons Ratio (y) = 0.09803 0.16114
# Poissons Ratio (z) = 0.11391 0.27262
#
# Static dielectric constant tensor:
#      x y z
#    x 1.945920 0.000000 0.000000 
#    y 0.000000 1.933840 0.000000 
#    z 0.000000 0.000000 1.816280 
# 
# From -- ./inp_files/45287.got.cif
#   From: 2010.05.17/outbox.cif.g08.bks.cpg/sg65_23_cif.got.tgz:45287.got - 2010.06.03 17:01:31.
