data_PCOD9482952
_publ_section_title
;
Structure prediction by ZEFSAII (Michael W. Deem and Ramdas Pophale) SiO2 
 PCOD9482952
Probable space group: C M M M
;
_chemical_formula_sum "Si O2"
_cell_formula_units_Z 80
_cell_length_a 16.182337
_cell_length_b 16.144309
_cell_length_c 14.735775
_cell_angle_alpha 90.000000
_cell_angle_beta 90.000000
_cell_angle_gamma 90.000000
_cell_volume 3849.760252
_symmetry_space_group_name_H-M "C M M M"
_symmetry_group_IT_number 65
_symmetry_cell_setting 'orthorhombic'
loop_
_space_group_symop_operation_xyz
x,y,z
-x,-y,z
x,-y,-z
-x,y,-z
-x,-y,-z
x,y,-z
-x,y,z
x,-y,z
1/2+x,1/2+y,z
1/2-x,1/2-y,z
1/2+x,1/2-y,-z
1/2-x,1/2+y,-z
1/2-x,1/2-y,-z
1/2+x,1/2+y,-z
1/2-x,1/2+y,z
1/2+x,1/2-y,z
loop_
_atom_site_type_symbol
_atom_site_label
_atom_site_fract_x
_atom_site_fract_y
_atom_site_fract_z
Si Si1 0.247837 0.148342 0.605341
Si Si2 0.911973 0.655081 0.294428
Si Si3 0.627755 0.094577 0.900475
Si Si4 0.300921 0.334642 0.896319
Si Si5 0.907014 0.148907 0.279200
O O1 0.248653 0.125801 0.500000
O O2 0.250000 0.250000 0.610384
O O3 0.330762 0.120526 0.657107
O O4 0.165791 0.116139 0.655802
O O5 0.906156 0.640117 0.186847
O O6 0.912631 0.754016 0.305884
O O7 0.000000 0.621521 0.327954
O O8 0.727258 0.098885 0.894107
O O9 0.600463 0.000000 0.897395
O O10 0.605929 0.129707 0.000000
O O11 0.250000 0.250000 0.872956
O O12 0.370399 0.352748 0.822742
O O13 0.330856 0.327111 0.000000
O O14 0.000000 0.114212 0.285903
#
# Coordination Sequence:
#
# PCOD9482952 Si02
#       5
#    16  16  16  16  16
#     4   9  17  31  49  72 104 134 165 212 265 307
#     4  10  19  31  49  74 104 136 171 208 249 302
#     4  10  20  33  51  75 105 141 176 211 254 304
#     4  10  17  30  51  72 101 137 172 212 256 304
#     4  10  18  29  49  77 104 131 168 211 258 306
#
# _framework density 20.780515999999999
#
# number of rings (size 3 to 8) (size 9 to 14) (size 15 to 20)
#    0.000    2.200    4.000    0.600    0.000    2.000 
#    0.000    7.000    0.000    1.200    0.000    4.200 
#    0.000    1.600    0.000    0.000    0.000    0.000 
#
# Total GULP energy -223080.745731 kJ/mol
# GULP energy per Si atom -5577.018643 kJ/mol
# Density = 2.073322 g / cm^3
# Si number density = 20.780516 Si / 1000 Ang^3
#
#
#
# Elastic Constant Matrix: (Units=GPa)
#
#
# Indices 1 2 3 4 5 6 
#
# 1 203.0267 1.2731 97.9559 0.0000 0.0000 0.0000
# 2 1.2731 20.8755 -3.3207 0.0000 0.0000 0.0000
# 3 97.9559 -3.3207 133.1043 0.0000 0.0000 0.0000
# 4 0.0000 0.0000 0.0000 -7.1992 0.0000 0.0000
# 5 0.0000 0.0000 0.0000 0.0000 -5.4082 0.0000
# 6 0.0000 0.0000 0.0000 0.0000 0.0000 -14.3185
#
#
#
# Elastic Compliance Matrix: (Units=1/GPa)
#
#
# Indices 1 2 3 4 5 6 
#
# 1 0.007676 -0.001372 -0.005683 0.000000 0.000000 0.000000
# 2 -0.001372 0.048339 0.002216 0.000000 0.000000 0.000000
# 3 -0.005683 0.002216 0.011751 0.000000 0.000000 0.000000
# 4 0.000000 0.000000 0.000000 -0.138905 0.000000 0.000000
# 5 0.000000 0.000000 0.000000 0.000000 -0.184906 0.000000
# 6 0.000000 0.000000 0.000000 0.000000 0.000000 -0.069840
#
#
# Mechanical properties :
#
#
# Convention : Reuss Voigt Hill
#
# Bulk Modulus (GPa) = 17.21565 60.98034 39.09800
# Shear Modulus (GPa) = -16.84395 12.02138 -2.41128
#
# Velocity S-wave (km/s) = -2.85013 2.40780 -1.07837
# Velocity P-wave (km/s) = 1.59012 6.09415 4.15994
#
# Compressibility (1/GPa) = 0.05808668
#
# Stress axis : x y z
#
# Youngs Moduli (GPa) = 130.27318 20.68712 85.10068
#
# Poissons Ratio (x) = 0.02839 0.48366
# Poissons Ratio (y) = 0.17876 -0.18857
# Poissons Ratio (z) = 0.74039 -0.04584
#
# Static dielectric constant tensor:
#      x y z
#    x 1.793220 0.000000 0.000000 
#    y 0.000000 1.763020 0.000000 
#    z 0.000000 0.000000 1.725220 
# 
# From -- ./inp_files/39992.got.cif
#   From: 2010.05.17/outbox.cif.g08.bks.cpg/sg65_20_cif.got.tgz:39992.got - 2010.06.03 17:01:31.
