data_PCOD9482421
_publ_section_title
;
Structure prediction by ZEFSAII (Michael W. Deem and Ramdas Pophale) SiO2 
 PCOD9482421
Probable space group: C M C A
;
_chemical_formula_sum "Si O2"
_cell_formula_units_Z 40
_cell_length_a 15.000000
_cell_length_b 12.000000
_cell_length_c 24.000000
_cell_angle_alpha 90.000000
_cell_angle_beta 90.000000
_cell_angle_gamma 90.000000
_cell_volume 4320.000000
_symmetry_space_group_name_H-M "C M C A"
_symmetry_group_IT_number 64
_symmetry_cell_setting 'orthorhombic'
loop_
_space_group_symop_operation_xyz
x,y,z
-x,1/2-y,1/2+z
x,-y,-z
-x,1/2+y,1/2-z
-x,-y,-z
x,1/2+y,1/2-z
-x,y,z
x,1/2-y,1/2+z
1/2+x,1/2+y,z
1/2-x,-y,1/2+z
1/2+x,1/2-y,-z
1/2-x,y,1/2-z
1/2-x,1/2-y,-z
1/2+x,y,1/2-z
1/2-x,1/2+y,z
1/2+x,-y,1/2+z
loop_
_atom_site_type_symbol
_atom_site_label
_atom_site_fract_x
_atom_site_fract_y
_atom_site_fract_z
Si Si1 0.606355 0.558810 0.727279
Si Si2 0.393609 0.684791 0.477061
Si Si3 0.218702 0.375460 0.330218
Si Si4 0.773660 0.597429 0.542199
Si Si5 0.397594 0.158246 0.149510
O O1 0.500000 0.590977 0.729384
O O2 0.680735 0.633120 0.694448
O O3 0.653185 0.556300 0.788310
O O4 0.610220 0.443210 0.692735
O O5 0.500000 0.688302 0.490913
O O6 0.326949 0.631785 0.522730
O O7 0.346298 0.804426 0.467153
O O8 0.385877 0.626259 0.415922
O O9 0.224144 0.427453 0.392028
O O10 0.172463 0.254677 0.336114
O O11 0.799155 0.500000 0.500000
O O12 0.500000 0.201553 0.153419
#
# Coordination Sequence:
#
# PCOD9482421 Si02
#       5
#    16  16  16  16  16
#     4  10  21  36  55  78 103 139 184 220 263 327
#     4   9  19  35  55  80 111 147 182 217 266 327
#     4  10  21  35  56  82 111 141 177 228 278 316
#     4  10  20  35  56  82 111 142 180 225 272 321
#     4   9  18  36  58  79 110 147 178 217 272 328
#
# _framework density 9.2592590000000001
#
# number of rings (size 3 to 8) (size 9 to 14) (size 15 to 20)
#    0.000    2.400    0.000    1.800    0.000    5.600 
#    0.000    0.000    0.000    6.000    0.000    0.000 
#    0.000    0.000    0.000    0.000    0.000    0.000 
#
# Total GULP energy -222860.706133 kJ/mol
# GULP energy per Si atom -5571.517653 kJ/mol
# Density = 0.923818 g / cm^3
# Si number density = 9.259259 Si / 1000 Ang^3
#
#
#
# Elastic Constant Matrix: (Units=GPa)
#
#
# Indices 1 2 3 4 5 6 
#
# 1 165.9986 37.4441 56.1748 0.0000 0.0000 0.0000
# 2 37.4441 34.7630 28.5991 0.0000 0.0000 0.0000
# 3 56.1748 28.5991 148.9732 0.0000 0.0000 0.0000
# 4 0.0000 0.0000 0.0000 30.6120 0.0000 0.0000
# 5 0.0000 0.0000 0.0000 0.0000 35.4085 0.0000
# 6 0.0000 0.0000 0.0000 0.0000 0.0000 29.7162
#
#
#
# Elastic Compliance Matrix: (Units=1/GPa)
#
#
# Indices 1 2 3 4 5 6 
#
# 1 0.008296 -0.007556 -0.001678 0.000000 0.000000 0.000000
# 2 -0.007556 0.041043 -0.005030 0.000000 0.000000 0.000000
# 3 -0.001678 -0.005030 0.008311 0.000000 0.000000 0.000000
# 4 0.000000 0.000000 0.000000 0.032667 0.000000 0.000000
# 5 0.000000 0.000000 0.000000 0.000000 0.028242 0.000000
# 6 0.000000 0.000000 0.000000 0.000000 0.000000 0.033652
#
#
# Mechanical properties :
#
#
# Convention : Reuss Voigt Hill
#
# Bulk Modulus (GPa) = 34.33742 66.01897 50.17820
# Shear Modulus (GPa) = 26.25422 34.31511 30.28466
#
# Velocity S-wave (km/s) = 3.76936 4.30934 4.04836
# Velocity P-wave (km/s) = 6.12589 7.77741 7.00052
#
# Compressibility (1/GPa) = 0.02912274
#
# Stress axis : x y z
#
# Youngs Moduli (GPa) = 120.53589 24.36476 120.32326
#
# Poissons Ratio (x) = 0.18409 0.20188
# Poissons Ratio (y) = 0.91074 0.60523
# Poissons Ratio (z) = 0.20224 0.12256
#
# Static dielectric constant tensor:
#      x y z
#    x 1.631540 0.000000 0.000000 
#    y 0.000000 1.661930 0.000000 
#    z 0.000000 0.000000 1.667530 
# 
# From -- ./inp_files/44937.got.cif
#   From: 2010.05.17/outbox.ucp.g08.bks.cvg/sg64_23_cif.got.tgz:44937.got - 2010.06.11 16:36:46.
