data_PCOD9482320
_publ_section_title
;
Structure prediction by ZEFSAII (Michael W. Deem and Ramdas Pophale) SiO2 
 PCOD9482320
Probable space group: C M C A
;
_chemical_formula_sum "Si O2"
_cell_formula_units_Z 112
_cell_length_a 14.015679
_cell_length_b 11.426252
_cell_length_c 31.949712
_cell_angle_alpha 90.000000
_cell_angle_beta 90.000000
_cell_angle_gamma 90.000000
_cell_volume 5116.640310
_symmetry_space_group_name_H-M "C M C A"
_symmetry_group_IT_number 64
_symmetry_cell_setting 'orthorhombic'
loop_
_space_group_symop_operation_xyz
x,y,z
-x,1/2-y,1/2+z
x,-y,-z
-x,1/2+y,1/2-z
-x,-y,-z
x,1/2+y,1/2-z
-x,y,z
x,1/2-y,1/2+z
1/2+x,1/2+y,z
1/2-x,-y,1/2+z
1/2+x,1/2-y,-z
1/2-x,y,1/2-z
1/2-x,1/2-y,-z
1/2+x,y,1/2-z
1/2-x,1/2+y,z
1/2+x,-y,1/2+z
loop_
_atom_site_type_symbol
_atom_site_label
_atom_site_fract_x
_atom_site_fract_y
_atom_site_fract_z
Si Si1 0.150090 0.566230 0.224585
Si Si2 0.385099 0.466147 0.930291
Si Si3 0.641064 0.170416 0.736699
Si Si4 0.383597 0.921678 0.961679
Si Si5 0.114615 0.123927 0.859381
Si Si6 0.384494 0.173890 0.504059
Si Si7 0.116484 0.889081 0.629626
O O1 0.250000 0.563816 0.250000
O O2 0.103652 0.440612 0.236600
O O3 0.104415 0.694002 0.236607
O O4 0.157928 0.569883 0.174087
O O5 0.500000 0.452029 0.926098
O O6 0.349423 0.513297 0.885853
O O7 0.350528 0.355402 0.957005
O O8 0.366635 0.571592 0.962742
O O9 0.750000 0.184903 0.750000
O O10 0.637431 0.125250 0.689247
O O11 0.500000 0.925450 0.961273
O O12 0.355968 0.950746 0.914028
O O13 0.353236 0.793380 0.975729
O O14 0.349766 0.000000 0.000000
O O15 0.143641 0.252044 0.875951
O O16 0.000000 0.122644 0.863168
O O17 0.500000 0.179885 0.501206
O O18 0.000000 0.895136 0.633811
#
# Coordination Sequence:
#
# PCOD9482320 Si02
#       7
#    16  16  16  16  16  16  16
#     4   9  18  33  51  69  92 119 162 203 243 289
#     4   8  12  19  34  55  81 112 146 181 216 254
#     4   9  18  32  49  68  92 117 157 200 243 290
#     4   9  15  23  36  57  91 130 161 184 214 270
#     4   9  15  25  43  67  94 123 157 194 233 281
#     4   8  12  19  32  52  81 117 149 179 211 249
#     4   9  16  27  44  67  96 130 163 193 232 282
#
# _framework density 21.889362999999999
#
# number of rings (size 3 to 8) (size 9 to 14) (size 15 to 20)
#    0.000    3.286    1.429    0.857    0.000    0.571 
#    0.000    1.429    0.000    1.714    0.000    0.000 
#   17.143   16.571    0.000    0.000    0.000    0.286 
#
# Total GULP energy -311773.374903 kJ/mol
# GULP energy per Si atom -5567.381695 kJ/mol
# Density = 2.183954 g / cm^3
# Si number density = 21.889363 Si / 1000 Ang^3
#
#
#
# Elastic Constant Matrix: (Units=GPa)
#
#
# Indices 1 2 3 4 5 6 
#
# 1 63.7346 13.4239 9.2125 0.0000 0.0000 0.0000
# 2 13.4239 95.5591 49.8688 0.0000 0.0000 0.0000
# 3 9.2125 49.8688 145.4863 0.0000 0.0000 0.0000
# 4 0.0000 0.0000 0.0000 41.1660 0.0000 0.0000
# 5 0.0000 0.0000 0.0000 0.0000 32.4966 0.0000
# 6 0.0000 0.0000 0.0000 0.0000 0.0000 -9.7833
#
#
#
# Elastic Compliance Matrix: (Units=1/GPa)
#
#
# Indices 1 2 3 4 5 6 
#
# 1 0.016179 -0.002117 -0.000299 0.000000 0.000000 0.000000
# 2 -0.002117 0.013021 -0.004329 0.000000 0.000000 0.000000
# 3 -0.000299 -0.004329 0.008376 0.000000 0.000000 0.000000
# 4 0.000000 0.000000 0.000000 0.024292 0.000000 0.000000
# 5 0.000000 0.000000 0.000000 0.000000 0.030772 0.000000
# 6 0.000000 0.000000 0.000000 0.000000 0.000000 -0.102215
#
#
# Mechanical properties :
#
#
# Convention : Reuss Voigt Hill
#
# Bulk Modulus (GPa) = 41.51649 49.97669 45.74659
# Shear Modulus (GPa) = 418.56208 28.26085 223.41147
#
# Velocity S-wave (km/s) = 13.84313 3.59705 10.11363
# Velocity P-wave (km/s) = 16.56856 6.33504 12.54293
#
# Compressibility (1/GPa) = 0.02408682
#
# Stress axis : x y z
#
# Youngs Moduli (GPa) = 61.80805 76.79653 119.38283
#
# Poissons Ratio (x) = 0.16256 0.03568
# Poissons Ratio (y) = 0.13084 0.51685
# Poissons Ratio (z) = 0.01848 0.33248
#
# Static dielectric constant tensor:
#      x y z
#    x 1.885340 0.000000 0.000000 
#    y 0.000000 1.853510 0.000000 
#    z 0.000000 0.000000 1.785750 
# 
# From -- ./inp_files/46690.got.cif
#   From: 2010.05.17/outbox.cif.g08.bks.cpg/sg64_24_cif.got.tgz:46690.got - 2010.06.03 16:29:19.
