data_PCOD9482705
_publ_section_title
;
Structure prediction by ZEFSAII (Michael W. Deem and Ramdas Pophale) SiO2 
 PCOD9482705
Probable space group: C M M M
;
_chemical_formula_sum "Si O2"
_cell_formula_units_Z 100
_cell_length_a 28.763217
_cell_length_b 28.763209
_cell_length_c 9.060299
_cell_angle_alpha 90.000000
_cell_angle_beta 90.000000
_cell_angle_gamma 90.000000
_cell_volume 7495.788513
_symmetry_space_group_name_H-M "C M M M"
_symmetry_group_IT_number 65
_symmetry_cell_setting 'orthorhombic'
loop_
_space_group_symop_operation_xyz
x,y,z
-x,-y,z
x,-y,-z
-x,y,-z
-x,-y,-z
x,y,-z
-x,y,z
x,-y,z
1/2+x,1/2+y,z
1/2-x,1/2-y,z
1/2+x,1/2-y,-z
1/2-x,1/2+y,-z
1/2-x,1/2-y,-z
1/2+x,1/2+y,-z
1/2-x,1/2+y,z
1/2+x,1/2-y,z
loop_
_atom_site_type_symbol
_atom_site_label
_atom_site_fract_x
_atom_site_fract_y
_atom_site_fract_z
Si Si1 0.317873 0.946825 0.824032
Si Si2 0.000000 0.500000 0.280209
Si Si3 0.856715 0.278951 0.323879
Si Si4 0.053175 0.317872 0.824032
Si Si5 0.710084 0.710084 0.169922
Si Si6 0.778951 0.643285 0.676121
Si Si7 0.426811 0.073189 0.825507
O O1 0.289663 0.907439 0.739077
O O2 0.372792 0.937518 0.799756
O O3 0.307301 0.000000 0.781586
O O4 0.310093 0.941978 0.000000
O O5 0.959607 0.459607 0.268977
O O6 0.857274 0.274618 0.500000
O O7 0.907439 0.289663 0.260924
O O8 0.833184 0.233665 0.251974
O O9 0.822804 0.322804 0.286428
O O10 0.062482 0.372792 0.799757
O O11 0.000000 0.307301 0.781587
O O12 0.058022 0.310093 0.000000
O O13 0.750000 0.750000 0.171609
O O14 0.733665 0.666816 0.251974
O O15 0.699378 0.699378 0.000000
O O16 0.774618 0.642726 0.500000
O O17 0.437028 0.062972 0.000000
#
# Coordination Sequence:
#
# PCOD9482705 Si02
#       7
#    16   4  16  16  16  16  16
#     4  10  19  29  42  60  80 107 142 181 220 258
#     4  12  17  24  40  60  77  98 141 196 241 266
#     4  10  19  30  44  62  84 109 134 167 212 265
#     4  10  19  29  42  60  80 107 142 181 220 258
#     4   9  17  29  47  67  83 101 127 166 209 254
#     4  10  19  30  44  62  84 109 134 167 212 265
#     4  10  17  24  37  56  77  99 133 184 231 262
#
# _framework density 13.340825000000001
#
# number of rings (size 3 to 8) (size 9 to 14) (size 15 to 20)
#    0.000    2.080    3.200    2.160    0.000    3.840 
#    0.000    0.000    0.000    0.000    0.000    1.120 
#    0.000    0.000    0.000    0.000    0.000    0.800 
#
# Total GULP energy -278372.505925 kJ/mol
# GULP energy per Si atom -5567.450118 kJ/mol
# Density = 1.331046 g / cm^3
# Si number density = 13.340825 Si / 1000 Ang^3
#
#
#
# Elastic Constant Matrix: (Units=GPa)
#
#
# Indices 1 2 3 4 5 6 
#
# 1 80.3064 58.3037 44.1768 0.0000 0.0000 0.0000
# 2 58.3037 80.3066 44.1767 0.0000 0.0000 0.0000
# 3 44.1768 44.1767 45.8862 0.0000 0.0000 0.0000
# 4 0.0000 0.0000 0.0000 9.3672 0.0000 0.0000
# 5 0.0000 0.0000 0.0000 0.0000 9.3670 0.0000
# 6 0.0000 0.0000 0.0000 0.0000 0.0000 46.2710
#
#
#
# Elastic Compliance Matrix: (Units=1/GPa)
#
#
# Indices 1 2 3 4 5 6 
#
# 1 0.032062 -0.013387 -0.017979 0.000000 0.000000 0.000000
# 2 -0.013387 0.032062 -0.017979 0.000000 0.000000 0.000000
# 3 -0.017979 -0.017979 0.056412 0.000000 0.000000 0.000000
# 4 0.000000 0.000000 0.000000 0.106756 0.000000 0.000000
# 5 0.000000 0.000000 0.000000 0.000000 0.106758 0.000000
# 6 0.000000 0.000000 0.000000 0.000000 0.000000 0.021612
#
#
# Mechanical properties :
#
#
# Convention : Reuss Voigt Hill
#
# Bulk Modulus (GPa) = 45.77733 55.53486 50.65610
# Shear Modulus (GPa) = 10.83112 16.99049 13.91080
#
# Velocity S-wave (km/s) = 2.85244 3.57258 3.23263
# Velocity P-wave (km/s) = 6.72583 7.66394 7.21016
#
# Compressibility (1/GPa) = 0.02184487
#
# Stress axis : x y z
#
# Youngs Moduli (GPa) = 31.18965 31.18989 17.72688
#
# Poissons Ratio (x) = 0.41754 0.31871
# Poissons Ratio (y) = 0.41754 0.31871
# Poissons Ratio (z) = 0.56076 0.56076
#
# Static dielectric constant tensor:
#      x y z
#    x 1.417950 0.000000 0.000000 
#    y 0.000000 1.417950 0.000000 
#    z 0.000000 0.000000 1.457720 
# 
# From -- ./inp_files/17254.got.cif
#   From: 2010.05.17/outbox.cif.g08.bks.cpg/sg65_9_cif.got.tgz:17254.got - 2010.06.03 17:01:31.
