data_PCOD9482709
_publ_section_title
;
Structure prediction by ZEFSAII (Michael W. Deem and Ramdas Pophale) SiO2 
 PCOD9482709
Probable space group: C M M M
;
_chemical_formula_sum "Si O2"
_cell_formula_units_Z 112
_cell_length_a 22.870601
_cell_length_b 16.650379
_cell_length_c 18.505190
_cell_angle_alpha 90.000000
_cell_angle_beta 90.000000
_cell_angle_gamma 90.000000
_cell_volume 7046.853604
_symmetry_space_group_name_H-M "C M M M"
_symmetry_group_IT_number 65
_symmetry_cell_setting 'orthorhombic'
loop_
_space_group_symop_operation_xyz
x,y,z
-x,-y,z
x,-y,-z
-x,y,-z
-x,-y,-z
x,y,-z
-x,y,z
x,-y,z
1/2+x,1/2+y,z
1/2-x,1/2-y,z
1/2+x,1/2-y,-z
1/2-x,1/2+y,-z
1/2-x,1/2-y,-z
1/2+x,1/2+y,-z
1/2-x,1/2+y,z
1/2+x,1/2-y,z
loop_
_atom_site_type_symbol
_atom_site_label
_atom_site_fract_x
_atom_site_fract_y
_atom_site_fract_z
Si Si1 0.610334 0.195986 0.083255
Si Si2 0.174564 0.662441 0.285534
Si Si3 0.804193 0.906963 0.689156
Si Si4 0.173816 0.814409 0.178947
Si Si5 0.769279 0.594265 0.083726
Si Si6 0.819545 0.232510 0.581448
Si Si7 0.436175 0.907367 0.794832
O O1 0.627600 0.279705 0.121626
O O2 0.668415 0.139022 0.085489
O O3 0.566655 0.149366 0.135324
O O4 0.593134 0.205155 0.000000
O O5 0.235820 0.615483 0.294025
O O6 0.185820 0.736915 0.230541
O O7 0.157681 0.700658 0.362739
O O8 0.120075 0.613965 0.253614
O O9 0.840045 0.881294 0.760796
O O10 0.824570 0.852270 0.622350
O O11 0.808849 0.000000 0.674056
O O12 0.225859 0.853190 0.132242
O O13 0.773077 0.500000 0.106239
O O14 0.749650 0.595594 0.000000
O O15 0.657261 0.265856 0.500000
O O16 0.750000 0.250000 0.577899
O O17 0.500000 0.896451 0.759028
O O18 0.431422 0.000000 0.817089
#
# Coordination Sequence:
#
# PCOD9482709 Si02
#       7
#    16  16  16  16  16  16  16
#     4  10  19  30  42  56  79 113 149 180 216 262
#     4   9  17  29  44  61  83 117 152 176 205 248
#     4  10  17  24  40  65  92 120 145 170 202 246
#     4  10  17  26  39  56  80 112 147 178 209 251
#     4  10  18  25  36  56  82 111 141 175 215 258
#     4   8  15  28  44  64  91 120 146 168 195 241
#     4  10  20  32  46  63  83 109 144 188 226 248
#
# _framework density 15.893618
#
# number of rings (size 3 to 8) (size 9 to 14) (size 15 to 20)
#    0.000    2.429    0.000    6.000    0.000    2.571 
#    0.000    0.714    0.000    1.714    0.000    1.000 
#    0.000   96.571    0.000   71.714    0.000    0.000 
#
# Total GULP energy -311806.852576 kJ/mol
# GULP energy per Si atom -5567.979510 kJ/mol
# Density = 1.585744 g / cm^3
# Si number density = 15.893618 Si / 1000 Ang^3
#
#
#
# Elastic Constant Matrix: (Units=GPa)
#
#
# Indices 1 2 3 4 5 6 
#
# 1 33.8406 10.4051 17.8835 0.0000 0.0000 0.0000
# 2 10.4051 73.9876 29.6794 0.0000 0.0000 0.0000
# 3 17.8835 29.6794 106.7715 0.0000 0.0000 0.0000
# 4 0.0000 0.0000 0.0000 13.7009 0.0000 0.0000
# 5 0.0000 0.0000 0.0000 0.0000 6.7585 0.0000
# 6 0.0000 0.0000 0.0000 0.0000 0.0000 14.0204
#
#
#
# Elastic Compliance Matrix: (Units=1/GPa)
#
#
# Indices 1 2 3 4 5 6 
#
# 1 0.032899 -0.002720 -0.004754 0.000000 0.000000 0.000000
# 2 -0.002720 0.015437 -0.003835 0.000000 0.000000 0.000000
# 3 -0.004754 -0.003835 0.011228 0.000000 0.000000 0.000000
# 4 0.000000 0.000000 0.000000 0.072988 0.000000 0.000000
# 5 0.000000 0.000000 0.000000 0.000000 0.147961 0.000000
# 6 0.000000 0.000000 0.000000 0.000000 0.000000 0.071325
#
#
# Mechanical properties :
#
#
# Convention : Reuss Voigt Hill
#
# Bulk Modulus (GPa) = 27.06708 36.72620 31.89664
# Shear Modulus (GPa) = 12.92753 17.33808 15.13280
#
# Velocity S-wave (km/s) = 2.85507 3.30643 3.08901
# Velocity P-wave (km/s) = 5.28542 6.14283 5.73019
#
# Compressibility (1/GPa) = 0.03694525
#
# Stress axis : x y z
#
# Youngs Moduli (GPa) = 30.39610 64.78023 89.06082
#
# Poissons Ratio (x) = 0.17617 0.42343
# Poissons Ratio (y) = 0.08266 0.34159
# Poissons Ratio (z) = 0.14451 0.24846
#
# Static dielectric constant tensor:
#      x y z
#    x 1.516880 0.000000 0.000000 
#    y 0.000000 1.541100 0.000000 
#    z 0.000000 0.000000 1.568700 
# 
# From -- ./inp_files/64818.got.cif
#   From: 2010.05.17/outbox.cif.g08.bks.cpg/sg65_33_cif.got.tgz:64818.got - 2010.06.03 17:01:31.
