data_PCOD9482613
_publ_section_title
;
Structure prediction by ZEFSAII (Michael W. Deem and Ramdas Pophale) SiO2 
 PCOD9482613
Probable space group: C M M M
;
_chemical_formula_sum "Si O2"
_cell_formula_units_Z 64
_cell_length_a 8.621462
_cell_length_b 18.285424
_cell_length_c 22.005988
_cell_angle_alpha 90.000000
_cell_angle_beta 90.000000
_cell_angle_gamma 90.000000
_cell_volume 3469.179931
_symmetry_space_group_name_H-M "C M M M"
_symmetry_group_IT_number 65
_symmetry_cell_setting 'orthorhombic'
loop_
_space_group_symop_operation_xyz
x,y,z
-x,-y,z
x,-y,-z
-x,y,-z
-x,-y,-z
x,y,-z
-x,y,z
x,-y,z
1/2+x,1/2+y,z
1/2-x,1/2-y,z
1/2+x,1/2-y,-z
1/2-x,1/2+y,-z
1/2-x,1/2-y,-z
1/2+x,1/2+y,-z
1/2-x,1/2+y,z
1/2+x,1/2-y,z
loop_
_atom_site_type_symbol
_atom_site_label
_atom_site_fract_x
_atom_site_fract_y
_atom_site_fract_z
Si Si1 0.814612 0.166485 0.374715
Si Si2 0.314549 0.166386 0.500000
Si Si3 0.686675 0.832337 0.248831
Si Si4 0.184578 0.913751 0.000000
Si Si5 0.686639 0.084666 0.126402
O O1 0.750000 0.250000 0.373539
O O2 0.748232 0.132949 0.437061
O O3 0.755030 0.134104 0.311091
O O4 0.000000 0.168236 0.376685
O O5 0.500000 0.168353 0.500000
O O6 0.250000 0.250000 0.500000
O O7 0.500000 0.831168 0.253513
O O8 0.750000 0.750000 0.243935
O O9 0.733049 0.874315 0.187715
O O10 0.248573 0.883147 0.936602
O O11 0.000000 0.909856 0.000000
O O12 0.232169 0.000000 0.000000
O O13 0.500000 0.086013 0.122932
O O14 0.737148 0.000000 0.130807
#
# Coordination Sequence:
#
# PCOD9482613 Si02
#       5
#    16   8  16   8  16
#     4  10  17  26  40  60  88 120 153 188 229 273
#     4  10  16  24  38  58  85 116 153 192 229 269
#     4  10  19  31  47  68  95 125 155 188 230 276
#     4   9  17  29  48  73  96 117 147 191 236 273
#     4   9  18  33  52  71  92 121 156 191 227 272
#
# _framework density 18.448163999999998
#
# number of rings (size 3 to 8) (size 9 to 14) (size 15 to 20)
#    0.000    2.375    0.000    7.500    0.000    3.500 
#    0.000    0.625    0.000    0.000    0.000    0.875 
#    0.000    7.000    0.000    0.000    0.000    0.000 
#
# Total GULP energy -178341.489622 kJ/mol
# GULP energy per Si atom -5573.171551 kJ/mol
# Density = 1.840618 g / cm^3
# Si number density = 18.448164 Si / 1000 Ang^3
#
#
#
# Elastic Constant Matrix: (Units=GPa)
#
#
# Indices 1 2 3 4 5 6 
#
# 1 100.2211 10.4946 69.9590 0.0000 0.0000 0.0000
# 2 10.4946 13.7325 37.7740 0.0000 0.0000 0.0000
# 3 69.9590 37.7740 247.7057 0.0000 0.0000 0.0000
# 4 0.0000 0.0000 0.0000 100.6090 0.0000 0.0000
# 5 0.0000 0.0000 0.0000 0.0000 33.2383 0.0000
# 6 0.0000 0.0000 0.0000 0.0000 0.0000 10.5361
#
#
#
# Elastic Compliance Matrix: (Units=1/GPa)
#
#
# Indices 1 2 3 4 5 6 
#
# 1 0.012429 0.000271 -0.003552 0.000000 0.000000 0.000000
# 2 0.000271 0.125442 -0.019206 0.000000 0.000000 0.000000
# 3 -0.003552 -0.019206 0.007969 0.000000 0.000000 0.000000
# 4 0.000000 0.000000 0.000000 0.009939 0.000000 0.000000
# 5 0.000000 0.000000 0.000000 0.000000 0.030086 0.000000
# 6 0.000000 0.000000 0.000000 0.000000 0.000000 0.094912
#
#
# Mechanical properties :
#
#
# Convention : Reuss Voigt Hill
#
# Bulk Modulus (GPa) = 9.91405 66.45719 38.18562
# Shear Modulus (GPa) = 13.91314 45.10545 29.50930
#
# Velocity S-wave (km/s) = 2.74920 4.95004 4.00381
# Velocity P-wave (km/s) = 3.93232 8.29292 6.48983
#
# Compressibility (1/GPa) = 0.10086696
#
# Stress axis : x y z
#
# Youngs Moduli (GPa) = 80.45893 7.97179 125.48750
#
# Poissons Ratio (x) = -0.00216 0.44567
# Poissons Ratio (y) = -0.02180 2.41010
# Poissons Ratio (z) = 0.28575 0.15311
#
# Static dielectric constant tensor:
#      x y z
#    x 1.612940 0.000000 0.000000 
#    y 0.000000 1.630810 0.000000 
#    z 0.000000 0.000000 1.713810 
# 
# From -- ./inp_files/59133.got.cif
#   From: 2010.05.17/outbox.cif.g08.bks.cpg/sg65_30_cif.got.tgz:59133.got - 2010.06.03 17:01:31.
