data_PCOD9482345
_publ_section_title
;
Structure prediction by ZEFSAII (Michael W. Deem and Ramdas Pophale) SiO2 
 PCOD9482345
Probable space group: C M C A
;
_chemical_formula_sum "Si O2"
_cell_formula_units_Z 96
_cell_length_a 20.480553
_cell_length_b 8.762332
_cell_length_c 25.512427
_cell_angle_alpha 90.000000
_cell_angle_beta 90.000000
_cell_angle_gamma 90.000000
_cell_volume 4578.393943
_symmetry_space_group_name_H-M "C M C A"
_symmetry_group_IT_number 64
_symmetry_cell_setting 'orthorhombic'
loop_
_space_group_symop_operation_xyz
x,y,z
-x,1/2-y,1/2+z
x,-y,-z
-x,1/2+y,1/2-z
-x,-y,-z
x,1/2+y,1/2-z
-x,y,z
x,1/2-y,1/2+z
1/2+x,1/2+y,z
1/2-x,-y,1/2+z
1/2+x,1/2-y,-z
1/2-x,y,1/2-z
1/2-x,1/2-y,-z
1/2+x,y,1/2-z
1/2-x,1/2+y,z
1/2+x,-y,1/2+z
loop_
_atom_site_type_symbol
_atom_site_label
_atom_site_fract_x
_atom_site_fract_y
_atom_site_fract_z
Si Si1 0.849483 0.608025 0.733290
Si Si2 0.425596 0.674317 0.193324
Si Si3 0.670197 0.193655 0.973808
Si Si4 0.753296 0.926096 0.568005
Si Si5 0.075623 0.573844 0.893685
Si Si6 0.185749 0.596853 0.172117
O O1 0.907161 0.704198 0.761520
O O2 0.878425 0.469164 0.699885
O O3 0.816339 0.737650 0.698474
O O4 0.811159 0.527818 0.781521
O O5 0.500000 0.623319 0.199375
O O6 0.419170 0.770908 0.140390
O O7 0.686465 0.365179 0.956829
O O8 0.604922 0.122972 0.949965
O O9 0.727264 0.100395 0.942459
O O10 0.688727 0.156340 0.033497
O O11 0.757340 0.902511 0.629522
O O12 0.121669 0.452775 0.862497
O O13 0.000000 0.526596 0.895463
#
# Coordination Sequence:
#
# PCOD9482345 Si02
#       6
#    16  16  16  16  16  16
#     4   9  17  28  46  70  99 133 172 213 255 303
#     4   9  16  26  43  66  94 132 172 207 246 302
#     4   9  18  34  56  81 102 133 176 217 264 313
#     4   9  18  34  56  78 101 132 176 220 258 314
#     4   9  18  32  51  77 108 137 168 212 266 318
#     4   9  18  32  50  75 103 135 175 214 259 309
#
# _framework density 20.968050999999999
#
# number of rings (size 3 to 8) (size 9 to 14) (size 15 to 20)
#    0.000    3.000    0.000    0.500    0.000    6.000 
#    0.000    6.667    0.000   34.000    0.000   11.667 
#    0.000    0.000    0.000    0.000    0.000    0.000 
#
# Total GULP energy -267480.731949 kJ/mol
# GULP energy per Si atom -5572.515249 kJ/mol
# Density = 2.092033 g / cm^3
# Si number density = 20.968051 Si / 1000 Ang^3
#
#
#
# Elastic Constant Matrix: (Units=GPa)
#
#
# Indices 1 2 3 4 5 6 
#
# 1 62.1409 20.5889 32.2857 0.0000 0.0000 0.0000
# 2 20.5889 93.2598 37.3046 0.0000 0.0000 0.0000
# 3 32.2857 37.3046 96.0492 0.0000 0.0000 0.0000
# 4 0.0000 0.0000 0.0000 15.9070 0.0000 0.0000
# 5 0.0000 0.0000 0.0000 0.0000 25.7989 0.0000
# 6 0.0000 0.0000 0.0000 0.0000 0.0000 16.1658
#
#
#
# Elastic Compliance Matrix: (Units=1/GPa)
#
#
# Indices 1 2 3 4 5 6 
#
# 1 0.019815 -0.002025 -0.005874 0.000000 0.000000 0.000000
# 2 -0.002025 0.012902 -0.004330 0.000000 0.000000 0.000000
# 3 -0.005874 -0.004330 0.014068 0.000000 0.000000 0.000000
# 4 0.000000 0.000000 0.000000 0.062865 0.000000 0.000000
# 5 0.000000 0.000000 0.000000 0.000000 0.038761 0.000000
# 6 0.000000 0.000000 0.000000 0.000000 0.000000 0.061859
#
#
# Mechanical properties :
#
#
# Convention : Reuss Voigt Hill
#
# Bulk Modulus (GPa) = 44.79062 47.97869 46.38465
# Shear Modulus (GPa) = 20.64650 22.32572 21.48611
#
# Velocity S-wave (km/s) = 3.14134 3.26659 3.20458
# Velocity P-wave (km/s) = 5.87921 6.09582 5.98849
#
# Compressibility (1/GPa) = 0.02232611
#
# Stress axis : x y z
#
# Youngs Moduli (GPa) = 50.46592 77.50778 71.08457
#
# Poissons Ratio (x) = 0.15694 0.41757
# Poissons Ratio (y) = 0.10219 0.30782
# Poissons Ratio (z) = 0.29645 0.33564
#
# Static dielectric constant tensor:
#      x y z
#    x 1.774970 0.000000 0.000000 
#    y 0.000000 1.778920 0.000000 
#    z 0.000000 0.000000 1.774330 
# 
# From -- ./inp_files/46601.got.cif
#   From: 2010.05.17/outbox.cif.g08.bks.cpg/sg64_24_cif.got.tgz:46601.got - 2010.06.03 16:29:19.
