data_PCOD9482707
_publ_section_title
;
Structure prediction by ZEFSAII (Michael W. Deem and Ramdas Pophale) SiO2 
 PCOD9482707
Probable space group: C M M M
;
_chemical_formula_sum "Si O2"
_cell_formula_units_Z 96
_cell_length_a 29.071649
_cell_length_b 29.907306
_cell_length_c 8.758191
_cell_angle_alpha 90.000000
_cell_angle_beta 90.000000
_cell_angle_gamma 90.000000
_cell_volume 7614.850351
_symmetry_space_group_name_H-M "C M M M"
_symmetry_group_IT_number 65
_symmetry_cell_setting 'orthorhombic'
loop_
_space_group_symop_operation_xyz
x,y,z
-x,-y,z
x,-y,-z
-x,y,-z
-x,-y,-z
x,y,-z
-x,y,z
x,-y,z
1/2+x,1/2+y,z
1/2-x,1/2-y,z
1/2+x,1/2-y,-z
1/2-x,1/2+y,-z
1/2-x,1/2-y,-z
1/2+x,1/2+y,-z
1/2-x,1/2+y,z
1/2+x,1/2-y,z
loop_
_atom_site_type_symbol
_atom_site_label
_atom_site_fract_x
_atom_site_fract_y
_atom_site_fract_z
Si Si1 0.593012 0.448734 0.684178
Si Si2 0.816312 0.269448 0.316849
Si Si3 0.500000 0.303345 0.182141
Si Si4 0.157912 0.131833 0.683844
Si Si5 0.500000 0.407413 0.816822
Si Si6 0.903717 0.218436 0.316882
Si Si7 0.262965 0.316884 0.818090
O O1 0.588658 0.446806 0.500000
O O2 0.601755 0.500000 0.728275
O O3 0.633517 0.414414 0.726690
O O4 0.545455 0.431402 0.754633
O O5 0.811995 0.271013 0.500000
O O6 0.869356 0.259266 0.277431
O O7 0.788881 0.310718 0.243610
O O8 0.790248 0.225165 0.255643
O O9 0.500000 0.355449 0.233621
O O10 0.546553 0.281041 0.242398
O O11 0.500000 0.302985 0.000000
O O12 0.163663 0.133858 0.500000
O O13 0.122784 0.172267 0.726309
O O14 0.206818 0.141411 0.761837
O O15 0.500000 0.408646 0.000000
O O16 0.908586 0.217629 0.500000
O O17 0.263444 0.313374 0.000000
#
# Coordination Sequence:
#
# PCOD9482707 Si02
#       7
#    16  16   8  16   8  16  16
#     4  10  20  33  47  58  68  90 126 162 195 234
#     4   9  16  27  40  55  73  94 116 142 175 212
#     4  11  21  28  38  55  74  96 122 154 189 227
#     4   9  17  29  42  55  71  92 116 149 188 226
#     4  11  22  32  41  56  74  94 118 154 204 245
#     4   9  17  28  42  54  68  94 122 149 182 219
#     4  10  17  24  38  58  76  93 112 138 174 220
#
# _framework density 12.606946000000001
#
# number of rings (size 3 to 8) (size 9 to 14) (size 15 to 20)
#    0.000    2.333    1.667    4.750    0.000    6.000 
#    0.000    0.000    0.000    0.000    0.000    0.000 
#    0.000    0.000    0.000    0.000    0.000    0.000 
#
# Total GULP energy -267394.011641 kJ/mol
# GULP energy per Si atom -5570.708576 kJ/mol
# Density = 1.257825 g / cm^3
# Si number density = 12.606946 Si / 1000 Ang^3
#
#
#
# Elastic Constant Matrix: (Units=GPa)
#
#
# Indices 1 2 3 4 5 6 
#
# 1 107.7128 56.8599 33.9773 0.0000 0.0000 0.0000
# 2 56.8599 50.6919 22.1115 0.0000 0.0000 0.0000
# 3 33.9773 22.1115 27.2742 0.0000 0.0000 0.0000
# 4 0.0000 0.0000 0.0000 7.1711 0.0000 0.0000
# 5 0.0000 0.0000 0.0000 0.0000 40.2324 0.0000
# 6 0.0000 0.0000 0.0000 0.0000 0.0000 9.9533
#
#
#
# Elastic Compliance Matrix: (Units=1/GPa)
#
#
# Indices 1 2 3 4 5 6 
#
# 1 0.025537 -0.022847 -0.013291 0.000000 0.000000 0.000000
# 2 -0.022847 0.050960 -0.012852 0.000000 0.000000 0.000000
# 3 -0.013291 -0.012852 0.063641 0.000000 0.000000 0.000000
# 4 0.000000 0.000000 0.000000 0.139449 0.000000 0.000000
# 5 0.000000 0.000000 0.000000 0.000000 0.024856 0.000000
# 6 0.000000 0.000000 0.000000 0.000000 0.000000 0.100470
#
#
# Mechanical properties :
#
#
# Convention : Reuss Voigt Hill
#
# Bulk Modulus (GPa) = 23.71985 45.73070 34.72527
# Shear Modulus (GPa) = 9.67222 16.32002 12.99612
#
# Velocity S-wave (km/s) = 2.77287 3.60186 3.21420
# Velocity P-wave (km/s) = 5.39513 7.32467 6.43266
#
# Compressibility (1/GPa) = 0.04215879
#
# Stress axis : x y z
#
# Youngs Moduli (GPa) = 39.15894 19.62337 15.71305
#
# Poissons Ratio (x) = 0.44833 0.20884
# Poissons Ratio (y) = 0.89466 0.20194
# Poissons Ratio (z) = 0.52046 0.25220
#
# Static dielectric constant tensor:
#      x y z
#    x 1.427270 0.000000 0.000000 
#    y 0.000000 1.405080 0.000000 
#    z 0.000000 0.000000 1.419180 
# 
# From -- ./inp_files/19183.got.cif
#   From: 2010.05.17/outbox.cif.g08.bks.cpg/sg65_10_cif.got.tgz:19183.got - 2010.06.03 17:01:31.
