data_PCOD9482837
_publ_section_title
;
Structure prediction by ZEFSAII (Michael W. Deem and Ramdas Pophale) SiO2 
 PCOD9482837
Probable space group: C M M M
;
_chemical_formula_sum "Si O2"
_cell_formula_units_Z 104
_cell_length_a 7.650041
_cell_length_b 29.219443
_cell_length_c 24.632882
_cell_angle_alpha 90.000000
_cell_angle_beta 90.000000
_cell_angle_gamma 90.000000
_cell_volume 5506.186560
_symmetry_space_group_name_H-M "C M M M"
_symmetry_group_IT_number 65
_symmetry_cell_setting 'orthorhombic'
loop_
_space_group_symop_operation_xyz
x,y,z
-x,-y,z
x,-y,-z
-x,y,-z
-x,-y,-z
x,y,-z
-x,y,z
x,-y,z
1/2+x,1/2+y,z
1/2-x,1/2-y,z
1/2+x,1/2-y,-z
1/2-x,1/2+y,-z
1/2-x,1/2-y,-z
1/2+x,1/2+y,-z
1/2-x,1/2+y,z
1/2+x,1/2-y,z
loop_
_atom_site_type_symbol
_atom_site_label
_atom_site_fract_x
_atom_site_fract_y
_atom_site_fract_z
Si Si1 0.796671 0.555610 0.500000
Si Si2 0.294954 0.103017 0.059050
Si Si3 0.705840 0.896201 0.274882
Si Si4 0.292517 0.698758 0.229323
Si Si5 0.708328 0.301397 0.104878
Si Si6 0.785901 0.446832 0.166912
Si Si7 0.285597 0.946697 0.381569
O O1 0.794973 0.500000 0.500000
O O2 0.722195 0.568834 0.558719
O O3 0.000000 0.570036 0.500000
O O4 0.500000 0.091010 0.057122
O O5 0.281328 0.157216 0.069836
O O6 0.221961 0.077471 0.111922
O O7 0.218304 0.091790 0.000000
O O8 0.500000 0.907052 0.275743
O O9 0.725200 0.842171 0.266282
O O10 0.777320 0.920653 0.220714
O O11 0.776152 0.916422 0.331094
O O12 0.500000 0.694277 0.226536
O O13 0.250000 0.750000 0.247964
O O14 0.223872 0.694114 0.167189
O O15 0.500000 0.306347 0.105636
O O16 0.750000 0.250000 0.086146
O O17 0.738575 0.500000 0.168428
O O18 0.000000 0.444222 0.166810
O O19 0.500000 0.945542 0.383678
O O20 0.238444 0.000000 0.373030
#
# Coordination Sequence:
#
# PCOD9482837 Si02
#       7
#     8  16  16  16  16  16  16
#     4   7  10  18  32  56  96 135 162 193 228 261
#     4  10  20  33  49  69  93 121 154 190 229 274
#     4  10  17  27  47  72  97 123 154 192 232 273
#     4  10  20  33  50  71  94 120 150 186 233 284
#     4  10  20  34  53  72  92 117 147 185 232 285
#     4   9  17  29  46  68  93 120 152 192 230 263
#     4   8  13  21  37  65  99 133 165 194 226 266
#
# _framework density 18.887844999999999
#
# number of rings (size 3 to 8) (size 9 to 14) (size 15 to 20)
#    0.000    2.692    1.538    2.308    0.000    4.000 
#    0.000    1.538    0.000    3.231    0.000    2.154 
#    0.000    1.846    0.000    0.000    0.000    0.000 
#
# Total GULP energy -290016.061846 kJ/mol
# GULP energy per Si atom -5577.231959 kJ/mol
# Density = 1.884486 g / cm^3
# Si number density = 18.887845 Si / 1000 Ang^3
#
#
#
# Elastic Constant Matrix: (Units=GPa)
#
#
# Indices 1 2 3 4 5 6 
#
# 1 36.3625 -10.2095 8.6022 0.0000 0.0000 0.0000
# 2 -10.2095 93.1729 81.7780 0.0000 0.0000 0.0000
# 3 8.6022 81.7780 180.9170 0.0000 0.0000 0.0000
# 4 0.0000 0.0000 0.0000 21.9021 0.0000 0.0000
# 5 0.0000 0.0000 0.0000 0.0000 -2.9465 0.0000
# 6 0.0000 0.0000 0.0000 0.0000 0.0000 9.4771
#
#
#
# Elastic Compliance Matrix: (Units=1/GPa)
#
#
# Indices 1 2 3 4 5 6 
#
# 1 0.030848 0.007737 -0.004964 0.000000 0.000000 0.000000
# 2 0.007737 0.019732 -0.009287 0.000000 0.000000 0.000000
# 3 -0.004964 -0.009287 0.009961 0.000000 0.000000 0.000000
# 4 0.000000 0.000000 0.000000 0.045658 0.000000 0.000000
# 5 0.000000 0.000000 0.000000 0.000000 -0.339386 0.000000
# 6 0.000000 0.000000 0.000000 0.000000 0.000000 0.105517
#
#
# Mechanical properties :
#
#
# Convention : Reuss Voigt Hill
#
# Bulk Modulus (GPa) = 21.04700 52.31043 36.67871
# Shear Modulus (GPa) = -50.60485 21.03867 -14.78309
#
# Velocity S-wave (km/s) = -5.18174 3.34110 -2.80067
# Velocity P-wave (km/s) = 4.96319 6.52988 3.00050
#
# Compressibility (1/GPa) = 0.04751271
#
# Stress axis : x y z
#
# Youngs Moduli (GPa) = 32.41750 50.67968 100.38808
#
# Poissons Ratio (x) = -0.39212 0.49833
# Poissons Ratio (y) = -0.25082 0.93231
# Poissons Ratio (z) = 0.16092 0.47066
#
# Static dielectric constant tensor:
#      x y z
#    x 1.706150 0.000000 0.000000 
#    y 0.000000 1.614160 0.000000 
#    z 0.000000 0.000000 1.691910 
# 
# From -- ./inp_files/60878.got.cif
#   From: 2010.05.17/outbox.cif.g08.bks.cpg/sg65_31_cif.got.tgz:60878.got - 2010.06.03 17:01:31.
