data_PCOD9482162
_publ_section_title
;
Structure prediction by ZEFSAII (Michael W. Deem and Ramdas Pophale) SiO2 
 PCOD9482162
Probable space group: C M C A
;
_chemical_formula_sum "Si O2"
_cell_formula_units_Z 48
_cell_length_a 25.597432
_cell_length_b 8.630631
_cell_length_c 8.119381
_cell_angle_alpha 90.000000
_cell_angle_beta 90.000000
_cell_angle_gamma 90.000000
_cell_volume 1793.749809
_symmetry_space_group_name_H-M "C M C A"
_symmetry_group_IT_number 64
_symmetry_cell_setting 'orthorhombic'
loop_
_space_group_symop_operation_xyz
x,y,z
-x,1/2-y,1/2+z
x,-y,-z
-x,1/2+y,1/2-z
-x,-y,-z
x,1/2+y,1/2-z
-x,y,z
x,1/2-y,1/2+z
1/2+x,1/2+y,z
1/2-x,-y,1/2+z
1/2+x,1/2-y,-z
1/2-x,y,1/2-z
1/2-x,1/2-y,-z
1/2+x,y,1/2-z
1/2-x,1/2+y,z
1/2+x,-y,1/2+z
loop_
_atom_site_type_symbol
_atom_site_label
_atom_site_fract_x
_atom_site_fract_y
_atom_site_fract_z
Si Si1 0.286257 0.135193 0.884321
Si Si2 0.057074 0.649744 0.893088
Si Si3 0.370079 0.637060 0.886499
O O1 0.250000 0.051018 0.750000
O O2 0.328378 0.200295 0.749348
O O3 0.250000 0.250000 0.000000
O O4 0.308983 0.000000 0.000000
O O5 0.081608 0.586086 0.725095
O O6 0.000000 0.726531 0.868434
O O7 0.049890 0.500000 0.000000
O O8 0.100589 0.748122 0.989831
O O9 0.347404 0.500000 0.000000
#
# Coordination Sequence:
#
# PCOD9482162 Si02
#       3
#    16  16  16
#     4  12  27  49  75 109 151 198 252 310 378 452
#     4  11  25  45  72 109 151 199 253 308 372 447
#     4  12  26  47  73 107 150 199 253 310 375 448
#
# _framework density 26.759584
#
# number of rings (size 3 to 8) (size 9 to 14) (size 15 to 20)
#    0.000    0.333    0.000    8.000    0.000   10.667 
#    0.000    0.000    0.000    0.000    0.000    0.000 
#    0.000    0.000    0.000    0.000    0.000    0.000 
#
# Total GULP energy -133786.813461 kJ/mol
# GULP energy per Si atom -5574.450561 kJ/mol
# Density = 2.669868 g / cm^3
# Si number density = 26.759584 Si / 1000 Ang^3
#
#
#
# Elastic Constant Matrix: (Units=GPa)
#
#
# Indices 1 2 3 4 5 6 
#
# 1 149.7837 47.3788 88.1726 0.0000 0.0000 0.0000
# 2 47.3788 76.1447 54.3851 0.0000 0.0000 0.0000
# 3 88.1726 54.3851 182.1954 0.0000 0.0000 0.0000
# 4 0.0000 0.0000 0.0000 66.6319 0.0000 0.0000
# 5 0.0000 0.0000 0.0000 0.0000 100.4674 0.0000
# 6 0.0000 0.0000 0.0000 0.0000 0.0000 36.7703
#
#
#
# Elastic Compliance Matrix: (Units=1/GPa)
#
#
# Indices 1 2 3 4 5 6 
#
# 1 0.010029 -0.003525 -0.003801 0.000000 0.000000 0.000000
# 2 -0.003525 0.017931 -0.003646 0.000000 0.000000 0.000000
# 3 -0.003801 -0.003646 0.008417 0.000000 0.000000 0.000000
# 4 0.000000 0.000000 0.000000 0.015008 0.000000 0.000000
# 5 0.000000 0.000000 0.000000 0.000000 0.009953 0.000000
# 6 0.000000 0.000000 0.000000 0.000000 0.000000 0.027196
#
#
# Mechanical properties :
#
#
# Convention : Reuss Voigt Hill
#
# Bulk Modulus (GPa) = 69.29623 87.55519 78.42571
# Shear Modulus (GPa) = 43.36917 55.31974 49.34445
#
# Velocity S-wave (km/s) = 4.03016 4.55168 4.29883
# Velocity P-wave (km/s) = 6.89987 7.77264 7.34922
#
# Compressibility (1/GPa) = 0.01443080
#
# Stress axis : x y z
#
# Youngs Moduli (GPa) = 99.71031 55.77029 118.81312
#
# Poissons Ratio (x) = 0.19661 0.45163
# Poissons Ratio (y) = 0.35151 0.43322
# Poissons Ratio (z) = 0.37902 0.20335
#
# Static dielectric constant tensor:
#      x y z
#    x 2.395280 0.000000 0.000000 
#    y 0.000000 2.058960 0.000000 
#    z 0.000000 0.000000 2.075300 
# 
# From -- ./inp_files/10794.got.cif
#   From: 2010.05.17/outbox.cif.g08.bks.cpg/sg64_6_cif.got.tgz:10794.got - 2010.06.03 16:29:19.
