data_PCOD9482911
_publ_section_title
;
Structure prediction by ZEFSAII (Michael W. Deem and Ramdas Pophale) SiO2 
 PCOD9482911
Probable space group: C M M M
;
_chemical_formula_sum "Si O2"
_cell_formula_units_Z 128
_cell_length_a 18.472310
_cell_length_b 20.055266
_cell_length_c 21.335980
_cell_angle_alpha 90.000000
_cell_angle_beta 90.000000
_cell_angle_gamma 90.000000
_cell_volume 7904.278438
_symmetry_space_group_name_H-M "C M M M"
_symmetry_group_IT_number 65
_symmetry_cell_setting 'orthorhombic'
loop_
_space_group_symop_operation_xyz
x,y,z
-x,-y,z
x,-y,-z
-x,y,-z
-x,-y,-z
x,y,-z
-x,y,z
x,-y,z
1/2+x,1/2+y,z
1/2-x,1/2-y,z
1/2+x,1/2-y,-z
1/2-x,1/2+y,-z
1/2-x,1/2-y,-z
1/2+x,1/2+y,-z
1/2-x,1/2+y,z
1/2+x,1/2-y,z
loop_
_atom_site_type_symbol
_atom_site_label
_atom_site_fract_x
_atom_site_fract_y
_atom_site_fract_z
Si Si1 0.580808 0.579654 0.657622
Si Si2 0.683413 0.800181 0.073778
Si Si3 0.818135 0.873297 0.769013
Si Si4 0.711411 0.579811 0.573272
Si Si5 0.681122 0.924582 0.831836
Si Si6 0.416848 0.161471 0.742148
Si Si7 0.781491 0.682509 0.337424
Si Si8 0.418112 0.720842 0.844876
O O1 0.500000 0.608534 0.656699
O O2 0.575088 0.500000 0.654705
O O3 0.623717 0.597152 0.720808
O O4 0.632084 0.599461 0.599789
O O5 0.750000 0.750000 0.089448
O O6 0.684946 0.868247 0.113985
O O7 0.612478 0.759338 0.094927
O O8 0.685281 0.813760 0.000000
O O9 0.759836 0.922769 0.798825
O O10 0.767402 0.826310 0.725584
O O11 0.862201 0.835106 0.822392
O O12 0.718963 0.594210 0.500000
O O13 0.719843 0.500000 0.582325
O O14 0.765781 0.620810 0.616954
O O15 0.622547 0.897738 0.781054
O O16 0.664541 0.000000 0.852275
O O17 0.500000 0.146015 0.725637
O O18 0.364219 0.181305 0.685028
O O19 0.417601 0.224490 0.789169
O O20 0.750000 0.750000 0.367128
O O21 0.500000 0.696466 0.853034
#
# Coordination Sequence:
#
# PCOD9482911 Si02
#       8
#    16  16  16  16  16  16  16  16
#     4   9  17  28  44  69  99 129 161 199 244 294
#     4  10  20  35  53  72  98 133 176 220 252 296
#     4  10  17  29  48  72 105 128 160 199 249 304
#     4   9  19  34  49  67  95 133 175 211 248 300
#     4  10  20  32  52  76 104 137 170 211 257 305
#     4   9  19  32  50  76 106 135 165 204 259 314
#     4  10  18  30  52  75 100 128 163 212 253 298
#     4  10  18  30  51  76 100 132 164 200 253 308
#
# _framework density 16.193760999999999
#
# number of rings (size 3 to 8) (size 9 to 14) (size 15 to 20)
#    0.000    2.375    2.500    0.750    0.000    4.250 
#    0.000    1.250    0.000    0.375    0.000    4.375 
#    0.000    2.000    0.000    0.000    0.000    0.000 
#
# Total GULP energy -356427.814198 kJ/mol
# GULP energy per Si atom -5569.184597 kJ/mol
# Density = 1.615690 g / cm^3
# Si number density = 16.193761 Si / 1000 Ang^3
#
#
#
# Elastic Constant Matrix: (Units=GPa)
#
#
# Indices 1 2 3 4 5 6 
#
# 1 122.4625 29.5767 33.8590 0.0000 0.0000 0.0000
# 2 29.5767 59.1585 25.1521 0.0000 0.0000 0.0000
# 3 33.8590 25.1521 61.1949 0.0000 0.0000 0.0000
# 4 0.0000 0.0000 0.0000 13.3469 0.0000 0.0000
# 5 0.0000 0.0000 0.0000 0.0000 8.7004 0.0000
# 6 0.0000 0.0000 0.0000 0.0000 0.0000 14.4901
#
#
#
# Elastic Compliance Matrix: (Units=1/GPa)
#
#
# Indices 1 2 3 4 5 6 
#
# 1 0.010131 -0.003250 -0.004270 0.000000 0.000000 0.000000
# 2 -0.003250 0.021526 -0.007049 0.000000 0.000000 0.000000
# 3 -0.004270 -0.007049 0.021601 0.000000 0.000000 0.000000
# 4 0.000000 0.000000 0.000000 0.074924 0.000000 0.000000
# 5 0.000000 0.000000 0.000000 0.000000 0.114937 0.000000
# 6 0.000000 0.000000 0.000000 0.000000 0.000000 0.069013
#
#
# Mechanical properties :
#
#
# Convention : Reuss Voigt Hill
#
# Bulk Modulus (GPa) = 41.45925 46.66572 44.06249
# Shear Modulus (GPa) = 14.31394 17.58934 15.95164
#
# Velocity S-wave (km/s) = 2.97630 3.29930 3.14195
# Velocity P-wave (km/s) = 6.12117 6.58737 6.35855
#
# Compressibility (1/GPa) = 0.02412007
#
# Stress axis : x y z
#
# Youngs Moduli (GPa) = 98.70514 46.45631 46.29396
#
# Poissons Ratio (x) = 0.15097 0.19767
# Poissons Ratio (y) = 0.32077 0.32634
# Poissons Ratio (z) = 0.42146 0.32748
#
# Static dielectric constant tensor:
#      x y z
#    x 1.560180 0.000000 0.000000 
#    y 0.000000 1.563480 0.000000 
#    z 0.000000 0.000000 1.528230 
# 
# From -- ./inp_files/64155.got.cif
#   From: 2010.05.17/outbox.cif.g08.bks.cpg/sg65_33_cif.got.tgz:64155.got - 2010.06.03 17:01:31.
