data_PCOD9482301
_publ_section_title
;
Structure prediction by ZEFSAII (Michael W. Deem and Ramdas Pophale) SiO2 
 PCOD9482301
Probable space group: C M C A
;
_chemical_formula_sum "Si O2"
_cell_formula_units_Z 56
_cell_length_a 8.861912
_cell_length_b 17.453353
_cell_length_c 14.883174
_cell_angle_alpha 90.000000
_cell_angle_beta 90.000000
_cell_angle_gamma 90.000000
_cell_volume 2301.981689
_symmetry_space_group_name_H-M "C M C A"
_symmetry_group_IT_number 64
_symmetry_cell_setting 'orthorhombic'
loop_
_space_group_symop_operation_xyz
x,y,z
-x,1/2-y,1/2+z
x,-y,-z
-x,1/2+y,1/2-z
-x,-y,-z
x,1/2+y,1/2-z
-x,y,z
x,1/2-y,1/2+z
1/2+x,1/2+y,z
1/2-x,-y,1/2+z
1/2+x,1/2-y,-z
1/2-x,y,1/2-z
1/2-x,1/2-y,-z
1/2+x,y,1/2-z
1/2-x,1/2+y,z
1/2+x,-y,1/2+z
loop_
_atom_site_type_symbol
_atom_site_label
_atom_site_fract_x
_atom_site_fract_y
_atom_site_fract_z
Si Si1 0.500000 0.852997 0.182982
Si Si2 0.682333 0.351932 0.655898
Si Si3 0.500000 0.883296 0.389617
Si Si4 0.206236 0.021419 0.600720
Si Si5 0.500000 0.801288 0.567245
O O1 0.500000 0.847061 0.290097
O O2 0.366907 0.907693 0.151704
O O3 0.500000 0.778378 0.120855
O O4 0.500000 0.332776 0.642717
O O5 0.750000 0.321097 0.750000
O O6 0.682974 0.444244 0.655970
O O7 0.828739 0.333434 0.591750
O O8 0.368486 0.943325 0.407442
O O9 0.500000 0.814322 0.460842
O O10 0.154532 0.000000 0.500000
#
# Coordination Sequence:
#
# PCOD9482301 Si02
#       5
#     8  16   8  16   8
#     4  12  29  51  80 123 166 221 280 348 421 497
#     4  12  25  48  85 120 165 215 283 342 411 499
#     4  12  26  53  82 114 180 218 275 348 428 489
#     4  12  25  49  81 118 158 217 281 345 415 496
#     4  12  29  55  81 122 170 225 274 344 419 501
#
# _framework density 24.326867
#
# number of rings (size 3 to 8) (size 9 to 14) (size 15 to 20)
#    0.000    0.000    5.714    4.286    0.000    3.429 
#    7.714    0.000    0.000    0.000    0.000    0.000 
#    0.000    0.000    0.000    0.000    0.000    0.000 
#
# Total GULP energy -155912.547042 kJ/mol
# GULP energy per Si atom -5568.305252 kJ/mol
# Density = 2.427150 g / cm^3
# Si number density = 24.326867 Si / 1000 Ang^3
#
#
#
# Elastic Constant Matrix: (Units=GPa)
#
#
# Indices 1 2 3 4 5 6 
#
# 1 356.2081 -2.6340 -36.4948 0.0000 0.0000 0.0000
# 2 -2.6340 194.5440 121.1128 0.0000 0.0000 0.0000
# 3 -36.4948 121.1128 309.9633 0.0000 0.0000 0.0000
# 4 0.0000 0.0000 0.0000 23.0531 0.0000 0.0000
# 5 0.0000 0.0000 0.0000 0.0000 36.3332 0.0000
# 6 0.0000 0.0000 0.0000 0.0000 0.0000 -5.6306
#
#
#
# Elastic Compliance Matrix: (Units=1/GPa)
#
#
# Indices 1 2 3 4 5 6 
#
# 1 0.002849 -0.000225 0.000423 0.000000 0.000000 0.000000
# 2 -0.000225 0.006810 -0.002687 0.000000 0.000000 0.000000
# 3 0.000423 -0.002687 0.004326 0.000000 0.000000 0.000000
# 4 0.000000 0.000000 0.000000 0.043378 0.000000 0.000000
# 5 0.000000 0.000000 0.000000 0.000000 0.027523 0.000000
# 6 0.000000 0.000000 0.000000 0.000000 0.000000 -0.177600
#
#
# Mechanical properties :
#
#
# Convention : Reuss Voigt Hill
#
# Bulk Modulus (GPa) = 111.02206 113.85371 112.43788
# Shear Modulus (GPa) = -59.00872 62.66657 1.82892
#
# Velocity S-wave (km/s) = -4.93044 5.08096 0.86801
# Velocity P-wave (km/s) = 3.65025 9.01802 6.87929
#
# Compressibility (1/GPa) = 0.00900722
#
# Stress axis : x y z
#
# Youngs Moduli (GPa) = 350.99315 146.83725 231.15401
#
# Poissons Ratio (x) = 0.03304 -0.09786
# Poissons Ratio (y) = 0.07897 0.62122
# Poissons Ratio (z) = -0.14859 0.39462
#
# Static dielectric constant tensor:
#      x y z
#    x 1.707560 0.000000 0.000000 
#    y 0.000000 1.872610 0.000000 
#    z 0.000000 0.000000 2.004220 
# 
# From -- ./inp_files/20710.got.cif
#   From: 2010.05.17/outbox.cif.g08.bks.cpg/sg64_11_cif.got.tgz:20710.got - 2010.06.03 16:29:19.
