data_PCOD9482971
_publ_section_title
;
Structure prediction by ZEFSAII (Michael W. Deem and Ramdas Pophale) SiO2 
 PCOD9482971
Probable space group: C M M M
;
_chemical_formula_sum "Si O2"
_cell_formula_units_Z 128
_cell_length_a 17.692575
_cell_length_b 18.772278
_cell_length_c 23.249044
_cell_angle_alpha 90.000000
_cell_angle_beta 90.000000
_cell_angle_gamma 90.000000
_cell_volume 7721.703506
_symmetry_space_group_name_H-M "C M M M"
_symmetry_group_IT_number 65
_symmetry_cell_setting 'orthorhombic'
loop_
_space_group_symop_operation_xyz
x,y,z
-x,-y,z
x,-y,-z
-x,y,-z
-x,-y,-z
x,y,-z
-x,y,z
x,-y,z
1/2+x,1/2+y,z
1/2-x,1/2-y,z
1/2+x,1/2-y,-z
1/2-x,1/2+y,-z
1/2-x,1/2-y,-z
1/2+x,1/2+y,-z
1/2-x,1/2+y,z
1/2+x,1/2-y,z
loop_
_atom_site_type_symbol
_atom_site_label
_atom_site_fract_x
_atom_site_fract_y
_atom_site_fract_z
Si Si1 0.789156 0.324736 0.165659
Si Si2 0.315822 0.417845 0.629113
Si Si3 0.411982 0.297346 0.568803
Si Si4 0.582405 0.584009 0.125986
Si Si5 0.313132 0.191215 0.641363
Si Si6 0.235227 0.914115 0.933723
Si Si7 0.410983 0.786787 0.747222
Si Si8 0.848681 0.129126 0.755730
O O1 0.750000 0.250000 0.148733
O O2 0.790108 0.376838 0.111635
O O3 0.869476 0.310930 0.194635
O O4 0.732622 0.355172 0.214911
O O5 0.313996 0.500000 0.611178
O O6 0.375943 0.369260 0.594962
O O7 0.235559 0.376814 0.622571
O O8 0.337196 0.412796 0.696829
O O9 0.407593 0.299147 0.500000
O O10 0.500000 0.290190 0.586001
O O11 0.362122 0.232028 0.593343
O O12 0.500000 0.616275 0.114658
O O13 0.578093 0.500000 0.114358
O O14 0.651653 0.610611 0.087293
O O15 0.604061 0.593685 0.192820
O O16 0.250000 0.250000 0.660914
O O17 0.369121 0.175808 0.693861
O O18 0.238668 0.000000 0.928036
O O19 0.248126 0.895865 0.000000
O O20 0.500000 0.797130 0.747315
O O21 0.389784 0.703318 0.740790
#
# Coordination Sequence:
#
# PCOD9482971 Si02
#       8
#    16  16  16  16  16  16  16  16
#     4   9  18  32  50  73 102 131 166 212 263 313
#     4  11  22  34  54  81 113 148 180 222 272 322
#     4  10  22  39  59  82 108 144 187 227 267 315
#     4   9  17  27  41  67 102 135 167 206 253 309
#     4  10  18  35  55  78 107 141 185 220 259 314
#     4   9  18  32  50  70  94 133 179 215 255 311
#     4  11  18  29  52  78 101 132 171 221 271 311
#     4  10  17  31  48  73 105 139 171 206 260 324
#
# _framework density 16.576653
#
# number of rings (size 3 to 8) (size 9 to 14) (size 15 to 20)
#    0.000    2.125    3.750    1.500    0.000    4.250 
#    0.000    1.875    0.000    3.000    0.000    1.750 
#    0.000    0.000    0.000    0.000    0.000    0.000 
#
# Total GULP energy -356748.411559 kJ/mol
# GULP energy per Si atom -5574.193931 kJ/mol
# Density = 1.653892 g / cm^3
# Si number density = 16.576653 Si / 1000 Ang^3
#
#
#
# Elastic Constant Matrix: (Units=GPa)
#
#
# Indices 1 2 3 4 5 6 
#
# 1 117.3146 32.9444 39.5241 0.0000 0.0000 0.0000
# 2 32.9444 50.8321 31.7081 0.0000 0.0000 0.0000
# 3 39.5241 31.7081 79.0229 0.0000 0.0000 0.0000
# 4 0.0000 0.0000 0.0000 18.8530 0.0000 0.0000
# 5 0.0000 0.0000 0.0000 0.0000 13.6776 0.0000
# 6 0.0000 0.0000 0.0000 0.0000 0.0000 13.4448
#
#
#
# Elastic Compliance Matrix: (Units=1/GPa)
#
#
# Indices 1 2 3 4 5 6 
#
# 1 0.011125 -0.004988 -0.003563 0.000000 0.000000 0.000000
# 2 -0.004988 0.028477 -0.008932 0.000000 0.000000 0.000000
# 3 -0.003563 -0.008932 0.018020 0.000000 0.000000 0.000000
# 4 0.000000 0.000000 0.000000 0.053042 0.000000 0.000000
# 5 0.000000 0.000000 0.000000 0.000000 0.073112 0.000000
# 6 0.000000 0.000000 0.000000 0.000000 0.000000 0.074378
#
#
# Mechanical properties :
#
#
# Convention : Reuss Voigt Hill
#
# Bulk Modulus (GPa) = 44.13558 50.61365 47.37461
# Shear Modulus (GPa) = 16.62942 18.72794 17.67868
#
# Velocity S-wave (km/s) = 3.17074 3.36486 3.26924
# Velocity P-wave (km/s) = 6.33149 6.75987 6.54918
#
# Compressibility (1/GPa) = 0.02265746
#
# Stress axis : x y z
#
# Youngs Moduli (GPa) = 89.88647 35.11663 55.49238
#
# Poissons Ratio (x) = 0.17515 0.19772
# Poissons Ratio (y) = 0.44833 0.49564
# Poissons Ratio (z) = 0.32027 0.31365
#
# Static dielectric constant tensor:
#      x y z
#    x 1.571740 0.000000 0.000000 
#    y 0.000000 1.564760 0.000000 
#    z 0.000000 0.000000 1.566800 
# 
# From -- ./inp_files/70690.got.cif
#   From: 2010.05.17/outbox.cif.g08.bks.cpg/sg65_36_cif.got.tgz:70690.got - 2010.06.03 17:01:31.
