data_PCOD9482020
_publ_section_title
;
Structure prediction by ZEFSAII (Michael W. Deem and Ramdas Pophale) SiO2 
 PCOD9482020
Probable space group: C M C A
;
_chemical_formula_sum "Si O2"
_cell_formula_units_Z 64
_cell_length_a 17.429712
_cell_length_b 9.573708
_cell_length_c 17.103288
_cell_angle_alpha 90.000000
_cell_angle_beta 90.000000
_cell_angle_gamma 90.000000
_cell_volume 2853.973901
_symmetry_space_group_name_H-M "C M C A"
_symmetry_group_IT_number 64
_symmetry_cell_setting 'orthorhombic'
loop_
_space_group_symop_operation_xyz
x,y,z
-x,1/2-y,1/2+z
x,-y,-z
-x,1/2+y,1/2-z
-x,-y,-z
x,1/2+y,1/2-z
-x,y,z
x,1/2-y,1/2+z
1/2+x,1/2+y,z
1/2-x,-y,1/2+z
1/2+x,1/2-y,-z
1/2-x,y,1/2-z
1/2-x,1/2-y,-z
1/2+x,y,1/2-z
1/2-x,1/2+y,z
1/2+x,-y,1/2+z
loop_
_atom_site_type_symbol
_atom_site_label
_atom_site_fract_x
_atom_site_fract_y
_atom_site_fract_z
Si Si1 0.664385 0.465276 0.712156
Si Si2 0.847741 0.265334 0.414901
Si Si3 0.828697 0.818231 0.424062
Si Si4 0.914352 0.047343 0.126254
O O1 0.750000 0.479049 0.750000
O O2 0.656318 0.319905 0.665546
O O3 0.648430 0.583084 0.647251
O O4 0.605050 0.473072 0.782690
O O5 0.861005 0.163393 0.488478
O O6 0.763110 0.329305 0.427582
O O7 0.904086 0.395973 0.412413
O O8 0.853267 0.660064 0.403758
O O9 0.000000 0.100965 0.114038
#
# Coordination Sequence:
#
# PCOD9482020 Si02
#       4
#    16  16  16  16
#     4  12  23  41  69 101 135 178 227 289 336 397
#     4  11  23  42  69 100 135 180 232 278 334 408
#     4  11  23  42  69 100 135 180 232 278 334 408
#     4  12  27  44  69 104 142 180 223 284 352 404
#
# _framework density 22.424871
#
# number of rings (size 3 to 8) (size 9 to 14) (size 15 to 20)
#    0.000    0.500    5.000    3.000    0.000   10.000 
#    0.000    0.000    0.000    4.500    0.000    0.000 
#    0.000    0.000    0.000    0.000    0.000    0.000 
#
# Total GULP energy -179032.452819 kJ/mol
# GULP energy per Si atom -5594.764151 kJ/mol
# Density = 2.237383 g / cm^3
# Si number density = 22.424871 Si / 1000 Ang^3
#
#
#
# Elastic Constant Matrix: (Units=GPa)
#
#
# Indices 1 2 3 4 5 6 
#
# 1 60.4722 6.4218 4.9778 0.0000 0.0000 0.0000
# 2 6.4218 68.4344 10.1523 0.0000 0.0000 0.0000
# 3 4.9778 10.1523 102.8465 0.0000 0.0000 0.0000
# 4 0.0000 0.0000 0.0000 42.0073 0.0000 0.0000
# 5 0.0000 0.0000 0.0000 0.0000 -16.2556 0.0000
# 6 0.0000 0.0000 0.0000 0.0000 0.0000 16.0962
#
#
#
# Elastic Compliance Matrix: (Units=1/GPa)
#
#
# Indices 1 2 3 4 5 6 
#
# 1 0.016748 -0.001473 -0.000665 0.000000 0.000000 0.000000
# 2 -0.001473 0.014959 -0.001405 0.000000 0.000000 0.000000
# 3 -0.000665 -0.001405 0.009894 0.000000 0.000000 0.000000
# 4 0.000000 0.000000 0.000000 0.023805 0.000000 0.000000
# 5 0.000000 0.000000 0.000000 0.000000 -0.061517 0.000000
# 6 0.000000 0.000000 0.000000 0.000000 0.000000 0.062126
#
#
# Mechanical properties :
#
#
# Convention : Reuss Voigt Hill
#
# Bulk Modulus (GPa) = 28.97365 30.53967 29.75666
# Shear Modulus (GPa) = 59.09673 22.38301 40.73987
#
# Velocity S-wave (km/s) = 5.13911 3.16275 4.26693
# Velocity P-wave (km/s) = 6.93990 5.19476 6.12976
#
# Compressibility (1/GPa) = 0.03451412
#
# Stress axis : x y z
#
# Youngs Moduli (GPa) = 59.70971 66.84832 101.06977
#
# Poissons Ratio (x) = 0.09846 0.06723
# Poissons Ratio (y) = 0.08795 0.14204
# Poissons Ratio (z) = 0.03972 0.09395
#
# Static dielectric constant tensor:
#      x y z
#    x 1.758750 0.000000 0.000000 
#    y 0.000000 1.828480 0.000000 
#    z 0.000000 0.000000 1.892330 
# 
# From -- ./inp_files/24858.got.cif
#   From: 2010.05.17/outbox.cif.g08.bks.cpg/sg64_13_cif.got.tgz:24858.got - 2010.06.03 16:29:19.
