data_PCOD9482046
_publ_section_title
;
Structure prediction by ZEFSAII (Michael W. Deem and Ramdas Pophale) SiO2 
 PCOD9482046
Probable space group: C M C A
;
_chemical_formula_sum "Si O2"
_cell_formula_units_Z 64
_cell_length_a 19.555018
_cell_length_b 24.222291
_cell_length_c 5.233469
_cell_angle_alpha 90.000000
_cell_angle_beta 90.000000
_cell_angle_gamma 90.000000
_cell_volume 2478.923322
_symmetry_space_group_name_H-M "C M C A"
_symmetry_group_IT_number 64
_symmetry_cell_setting 'orthorhombic'
loop_
_space_group_symop_operation_xyz
x,y,z
-x,1/2-y,1/2+z
x,-y,-z
-x,1/2+y,1/2-z
-x,-y,-z
x,1/2+y,1/2-z
-x,y,z
x,1/2-y,1/2+z
1/2+x,1/2+y,z
1/2-x,-y,1/2+z
1/2+x,1/2-y,-z
1/2-x,y,1/2-z
1/2-x,1/2-y,-z
1/2+x,y,1/2-z
1/2-x,1/2+y,z
1/2+x,-y,1/2+z
loop_
_atom_site_type_symbol
_atom_site_label
_atom_site_fract_x
_atom_site_fract_y
_atom_site_fract_z
Si Si1 0.922584 0.610593 0.025229
Si Si2 0.824234 0.541027 0.696582
Si Si3 0.092594 0.715870 0.715966
Si Si4 0.186319 0.656063 0.422395
O O1 0.873619 0.561187 0.925056
O O2 0.929775 0.654079 0.790462
O O3 0.000000 0.595171 0.103887
O O4 0.879319 0.644242 0.237696
O O5 0.861453 0.500000 0.500000
O O6 0.750000 0.514433 0.750000
O O7 0.803376 0.597362 0.554341
O O8 0.072718 0.747644 0.458371
O O9 0.170606 0.701697 0.636737
O O10 0.250000 0.670250 0.250000
#
# Coordination Sequence:
#
# PCOD9482046 Si02
#       4
#    16  16  16  16
#     4  11  26  47  71 107 150 190 242 309 368 436
#     4  11  24  43  76 107 142 193 246 298 367 446
#     4  11  24  46  71 106 145 197 250 302 366 437
#     4  11  23  44  73 106 146 193 248 306 369 436
#
# _framework density 25.817658999999999
#
# number of rings (size 3 to 8) (size 9 to 14) (size 15 to 20)
#    0.000    1.000    5.000    0.750    0.000    6.500 
#    0.000    1.250    0.000    0.000    0.000    0.000 
#    0.000    0.000    0.000    0.000    0.000    0.000 
#
# Total GULP energy -178644.490689 kJ/mol
# GULP energy per Si atom -5582.640334 kJ/mol
# Density = 2.575890 g / cm^3
# Si number density = 25.817659 Si / 1000 Ang^3
#
#
#
# Elastic Constant Matrix: (Units=GPa)
#
#
# Indices 1 2 3 4 5 6 
#
# 1 149.5632 7.8894 38.9411 0.0000 0.0000 0.0000
# 2 7.8894 80.4204 32.3735 0.0000 0.0000 0.0000
# 3 38.9411 32.3735 151.7959 0.0000 0.0000 0.0000
# 4 0.0000 0.0000 0.0000 62.0873 0.0000 0.0000
# 5 0.0000 0.0000 0.0000 0.0000 -194.4602 0.0000
# 6 0.0000 0.0000 0.0000 0.0000 0.0000 1.5064
#
#
#
# Elastic Compliance Matrix: (Units=1/GPa)
#
#
# Indices 1 2 3 4 5 6 
#
# 1 0.007165 0.000041 -0.001847 0.000000 0.000000 0.000000
# 2 0.000041 0.013603 -0.002911 0.000000 0.000000 0.000000
# 3 -0.001847 -0.002911 0.007682 0.000000 0.000000 0.000000
# 4 0.000000 0.000000 0.000000 0.016106 0.000000 0.000000
# 5 0.000000 0.000000 0.000000 0.000000 -0.005142 0.000000
# 6 0.000000 0.000000 0.000000 0.000000 0.000000 0.663838
#
#
# Mechanical properties :
#
#
# Convention : Reuss Voigt Hill
#
# Bulk Modulus (GPa) = 52.59078 60.02085 56.30581
# Shear Modulus (GPa) = 6.95386 -6.00161 0.47612
#
# Velocity S-wave (km/s) = 1.64295 -1.52632 0.42990
# Velocity P-wave (km/s) = 4.90034 4.49358 4.70136
#
# Compressibility (1/GPa) = 0.01901474
#
# Stress axis : x y z
#
# Youngs Moduli (GPa) = 139.57104 73.51486 130.16676
#
# Poissons Ratio (x) = -0.00298 0.24037
# Poissons Ratio (y) = -0.00565 0.37897
# Poissons Ratio (z) = 0.25774 0.21403
#
# Static dielectric constant tensor:
#      x y z
#    x 2.165730 0.000000 0.000000 
#    y 0.000000 1.995220 0.000000 
#    z 0.000000 0.000000 2.171320 
# 
# From -- ./inp_files/1778.got.cif
#   From: 2010.05.17/outbox.cif.g08.bks.cpg/sg64_1_cif.got.tgz:1778.got - 2010.06.03 16:29:19.
