data_PCOD9482732
_publ_section_title
;
Structure prediction by ZEFSAII (Michael W. Deem and Ramdas Pophale) SiO2 
 PCOD9482732
Probable space group: C M M M
;
_chemical_formula_sum "Si O2"
_cell_formula_units_Z 112
_cell_length_a 15.138135
_cell_length_b 25.734802
_cell_length_c 15.732260
_cell_angle_alpha 90.000000
_cell_angle_beta 90.000000
_cell_angle_gamma 90.000000
_cell_volume 6128.925189
_symmetry_space_group_name_H-M "C M M M"
_symmetry_group_IT_number 65
_symmetry_cell_setting 'orthorhombic'
loop_
_space_group_symop_operation_xyz
x,y,z
-x,-y,z
x,-y,-z
-x,y,-z
-x,-y,-z
x,y,-z
-x,y,z
x,-y,z
1/2+x,1/2+y,z
1/2-x,1/2-y,z
1/2+x,1/2-y,-z
1/2-x,1/2+y,-z
1/2-x,1/2-y,-z
1/2+x,1/2+y,-z
1/2-x,1/2+y,z
1/2+x,1/2-y,z
loop_
_atom_site_type_symbol
_atom_site_label
_atom_site_fract_x
_atom_site_fract_y
_atom_site_fract_z
Si Si1 0.892747 0.365682 0.094076
Si Si2 0.666970 0.210702 0.592042
Si Si3 0.897705 0.876345 0.598419
Si Si4 0.896640 0.783779 0.272558
Si Si5 0.896117 0.558972 0.757193
Si Si6 0.786760 0.588319 0.404752
Si Si7 0.891991 0.243848 0.093341
O O1 0.862129 0.400763 0.172094
O O2 0.870997 0.304921 0.102690
O O3 0.000000 0.368830 0.094568
O O4 0.863238 0.383186 0.000000
O O5 0.620348 0.217675 0.500000
O O6 0.750000 0.250000 0.589946
O O7 0.617603 0.230427 0.675709
O O8 0.693663 0.150614 0.597430
O O9 0.891992 0.857286 0.500000
O O10 0.874707 0.830739 0.664375
O O11 0.818950 0.917594 0.607112
O O12 0.000000 0.892653 0.611491
O O13 0.856107 0.783488 0.178397
O O14 0.000000 0.789139 0.259063
O O15 0.889857 0.500000 0.789807
O O16 0.842333 0.563867 0.670319
O O17 0.000000 0.569809 0.740423
O O18 0.810056 0.570302 0.500000
O O19 0.000000 0.240377 0.091687
O O20 0.860959 0.225769 0.000000
#
# Coordination Sequence:
#
# PCOD9482732 Si02
#       7
#    16  16  16  16  16  16  16
#     4   8  14  27  47  69  94 124 159 201 245 283
#     4  10  18  28  41  63  93 120 151 192 236 280
#     4   9  17  30  48  70  92 117 159 211 254 288
#     4  10  17  25  42  64  87 120 158 197 239 276
#     4  10  21  35  51  74 101 128 162 200 240 295
#     4  10  20  33  49  67  94 133 165 196 244 291
#     4   8  14  24  39  62  91 122 157 194 232 279
#
# _framework density 18.274004000000001
#
# number of rings (size 3 to 8) (size 9 to 14) (size 15 to 20)
#    0.000    2.714    1.429    2.143    0.000    3.429 
#    0.000    3.571    0.000    1.714    0.000    2.000 
#    0.000    0.000    0.000    1.286    0.000    0.143 
#
# Total GULP energy -311810.005348 kJ/mol
# GULP energy per Si atom -5568.035810 kJ/mol
# Density = 1.823241 g / cm^3
# Si number density = 18.274004 Si / 1000 Ang^3
#
#
#
# Elastic Constant Matrix: (Units=GPa)
#
#
# Indices 1 2 3 4 5 6 
#
# 1 29.7986 4.7633 28.9480 0.0000 0.0000 0.0000
# 2 4.7633 14.0332 11.9671 0.0000 0.0000 0.0000
# 3 28.9480 11.9671 137.4790 0.0000 0.0000 0.0000
# 4 0.0000 0.0000 0.0000 22.7464 0.0000 0.0000
# 5 0.0000 0.0000 0.0000 0.0000 1.6740 0.0000
# 6 0.0000 0.0000 0.0000 0.0000 0.0000 13.1757
#
#
#
# Elastic Compliance Matrix: (Units=1/GPa)
#
#
# Indices 1 2 3 4 5 6 
#
# 1 0.042889 -0.007406 -0.008386 0.000000 0.000000 0.000000
# 2 -0.007406 0.078252 -0.005252 0.000000 0.000000 0.000000
# 3 -0.008386 -0.005252 0.009497 0.000000 0.000000 0.000000
# 4 0.000000 0.000000 0.000000 0.043963 0.000000 0.000000
# 5 0.000000 0.000000 0.000000 0.000000 0.597369 0.000000
# 6 0.000000 0.000000 0.000000 0.000000 0.000000 0.075897
#
#
# Mechanical properties :
#
#
# Convention : Reuss Voigt Hill
#
# Bulk Modulus (GPa) = 11.29315 30.29638 20.79476
# Shear Modulus (GPa) = 5.43789 16.56137 10.99963
#
# Velocity S-wave (km/s) = 1.72691 3.01371 2.45608
# Velocity P-wave (km/s) = 3.18898 5.35956 4.40990
#
# Compressibility (1/GPa) = 0.08854927
#
# Stress axis : x y z
#
# Youngs Moduli (GPa) = 23.31584 12.77916 105.29815
#
# Poissons Ratio (x) = 0.09465 0.88305
# Poissons Ratio (y) = 0.17268 0.55304
# Poissons Ratio (z) = 0.19553 0.06712
#
# Static dielectric constant tensor:
#      x y z
#    x 1.663210 0.000000 0.000000 
#    y 0.000000 1.624160 0.000000 
#    z 0.000000 0.000000 1.698440 
# 
# From -- ./inp_files/41049.got.cif
#   From: 2010.05.17/outbox.cif.g08.bks.cpg/sg65_21_cif.got.tgz:41049.got - 2010.06.03 17:01:31.
