data_PCOD9482572
_publ_section_title
;
Structure prediction by ZEFSAII (Michael W. Deem and Ramdas Pophale) SiO2 
 PCOD9482572
Probable space group: C M M M
;
_chemical_formula_sum "Si O2"
_cell_formula_units_Z 104
_cell_length_a 29.914689
_cell_length_b 8.571345
_cell_length_c 25.244780
_cell_angle_alpha 90.000000
_cell_angle_beta 90.000000
_cell_angle_gamma 90.000000
_cell_volume 6472.991824
_symmetry_space_group_name_H-M "C M M M"
_symmetry_group_IT_number 65
_symmetry_cell_setting 'orthorhombic'
loop_
_space_group_symop_operation_xyz
x,y,z
-x,-y,z
x,-y,-z
-x,y,-z
-x,-y,-z
x,y,-z
-x,y,z
x,-y,z
1/2+x,1/2+y,z
1/2-x,1/2-y,z
1/2+x,1/2-y,-z
1/2-x,1/2+y,-z
1/2-x,1/2-y,-z
1/2+x,1/2+y,-z
1/2-x,1/2+y,z
1/2+x,1/2-y,z
loop_
_atom_site_type_symbol
_atom_site_label
_atom_site_fract_x
_atom_site_fract_y
_atom_site_fract_z
Si Si1 0.203989 0.316183 0.887624
Si Si2 0.629868 0.682903 0.817255
Si Si3 0.801084 0.685104 0.500000
Si Si4 0.301158 0.311579 0.272533
Si Si5 0.699437 0.686272 0.391582
Si Si6 0.187769 0.816864 0.000000
Si Si7 0.580301 0.679463 0.000000
Si Si8 0.551097 0.186534 0.885579
O O1 0.198897 0.500000 0.877325
O O2 0.250000 0.250000 0.864154
O O3 0.163690 0.215084 0.865214
O O4 0.203651 0.277960 0.949294
O O5 0.622375 0.500000 0.808641
O O6 0.660297 0.744028 0.768086
O O7 0.584082 0.756389 0.838876
O O8 0.799034 0.500000 0.500000
O O9 0.750000 0.750000 0.500000
O O10 0.822103 0.743961 0.444798
O O11 0.298186 0.500000 0.267756
O O12 0.250000 0.250000 0.264670
O O13 0.316853 0.273430 0.332571
O O14 0.700058 0.500000 0.396742
O O15 0.750000 0.750000 0.391067
O O16 0.133997 0.816365 0.000000
O O17 0.202021 0.000000 0.000000
O O18 0.564487 0.755050 0.944599
O O19 0.565299 0.500000 0.000000
O O20 0.500000 0.235392 0.875473
O O21 0.553561 0.000000 0.886928
#
# Coordination Sequence:
#
# PCOD9482572 Si02
#       8
#    16  16   8  16  16   8   8  16
#     4  12  24  37  53  72  96 126 156 190 230 276
#     4  11  22  37  54  74  97 123 158 197 235 281
#     4  10  16  22  34  56  84 118 159 202 239 272
#     4   9  19  32  48  69  95 127 165 202 236 275
#     4   9  15  25  39  58  85 120 159 199 237 272
#     4  11  22  37  54  74  96 120 150 189 230 278
#     4  11  22  37  60  81  99 120 147 185 234 291
#     4  11  24  40  58  79 100 122 150 187 235 291
#
# _framework density 16.066759000000001
#
# number of rings (size 3 to 8) (size 9 to 14) (size 15 to 20)
#    0.000    1.538    1.538    5.769    0.000    5.846 
#    0.000    0.000    0.000    0.000    0.000    0.000 
#    0.000    0.000    0.000    0.692    0.000   14.538 
#
# Total GULP energy -289854.071466 kJ/mol
# GULP energy per Si atom -5574.116759 kJ/mol
# Density = 1.603019 g / cm^3
# Si number density = 16.066759 Si / 1000 Ang^3
#
#
#
# Elastic Constant Matrix: (Units=GPa)
#
#
# Indices 1 2 3 4 5 6 
#
# 1 88.9196 19.7102 37.4903 0.0000 0.0000 0.0000
# 2 19.7102 45.8368 20.5004 0.0000 0.0000 0.0000
# 3 37.4903 20.5004 130.6081 0.0000 0.0000 0.0000
# 4 0.0000 0.0000 0.0000 17.5846 0.0000 0.0000
# 5 0.0000 0.0000 0.0000 0.0000 5.8366 0.0000
# 6 0.0000 0.0000 0.0000 0.0000 0.0000 19.9764
#
#
#
# Elastic Compliance Matrix: (Units=1/GPa)
#
#
# Indices 1 2 3 4 5 6 
#
# 1 0.013573 -0.004403 -0.003205 0.000000 0.000000 0.000000
# 2 -0.004403 0.024892 -0.002643 0.000000 0.000000 0.000000
# 3 -0.003205 -0.002643 0.008991 0.000000 0.000000 0.000000
# 4 0.000000 0.000000 0.000000 0.056868 0.000000 0.000000
# 5 0.000000 0.000000 0.000000 0.000000 0.171333 0.000000
# 6 0.000000 0.000000 0.000000 0.000000 0.000000 0.050059
#
#
# Mechanical properties :
#
#
# Convention : Reuss Voigt Hill
#
# Bulk Modulus (GPa) = 37.10023 46.75181 41.92602
# Shear Modulus (GPa) = 14.07640 21.19045 17.63343
#
# Velocity S-wave (km/s) = 2.96314 3.63561 3.31646
# Velocity P-wave (km/s) = 5.90325 6.83997 6.38880
#
# Compressibility (1/GPa) = 0.02695401
#
# Stress axis : x y z
#
# Youngs Moduli (GPa) = 73.67320 40.17339 111.21797
#
# Poissons Ratio (x) = 0.17689 0.35646
# Poissons Ratio (y) = 0.32440 0.29397
# Poissons Ratio (z) = 0.23613 0.10618
#
# Static dielectric constant tensor:
#      x y z
#    x 1.548650 0.000000 0.000000 
#    y 0.000000 1.547590 0.000000 
#    z 0.000000 0.000000 1.657830 
# 
# From -- ./inp_files/72230.got.cif
#   From: 2010.05.17/outbox.cif.g08.bks.cpg/sg65_37_cif.got.tgz:72230.got - 2010.06.03 17:01:31.
