data_PCOD9482121
_publ_section_title
;
Structure prediction by ZEFSAII (Michael W. Deem and Ramdas Pophale) SiO2 
 PCOD9482121
Probable space group: C M C A
;
_chemical_formula_sum "Si O2"
_cell_formula_units_Z 48
_cell_length_a 9.421126
_cell_length_b 26.596934
_cell_length_c 8.801472
_cell_angle_alpha 90.000000
_cell_angle_beta 90.000000
_cell_angle_gamma 90.000000
_cell_volume 2205.411828
_symmetry_space_group_name_H-M "C M C A"
_symmetry_group_IT_number 64
_symmetry_cell_setting 'orthorhombic'
loop_
_space_group_symop_operation_xyz
x,y,z
-x,1/2-y,1/2+z
x,-y,-z
-x,1/2+y,1/2-z
-x,-y,-z
x,1/2+y,1/2-z
-x,y,z
x,1/2-y,1/2+z
1/2+x,1/2+y,z
1/2-x,-y,1/2+z
1/2+x,1/2-y,-z
1/2-x,y,1/2-z
1/2-x,1/2-y,-z
1/2+x,y,1/2-z
1/2-x,1/2+y,z
1/2+x,-y,1/2+z
loop_
_atom_site_type_symbol
_atom_site_label
_atom_site_fract_x
_atom_site_fract_y
_atom_site_fract_z
Si Si1 0.500000 0.805318 0.898985
Si Si2 0.836879 0.558395 0.018395
Si Si3 0.750000 0.875383 0.250000
Si Si4 0.000000 0.693023 0.729003
Si Si5 0.750000 0.129795 0.250000
O O1 0.500000 0.748430 0.839445
O O2 0.633300 0.834518 0.826118
O O3 0.500000 0.806222 0.084118
O O4 0.722681 0.589124 0.116990
O O5 0.000000 0.561624 0.080076
O O6 0.802549 0.500000 0.000000
O O7 0.834116 0.588070 0.861138
O O8 0.637190 0.837731 0.324824
#
# Coordination Sequence:
#
# PCOD9482121 Si02
#       5
#     8  16   8   8   8
#     4  12  28  46  69 100 136 180 229 284 337 404
#     4  11  24  45  70 102 139 178 225 281 338 399
#     4  12  22  48  68 100 138 176 224 282 340 396
#     4  12  28  46  69 100 136 180 229 284 337 404
#     4  12  22  48  68 100 138 176 224 282 340 396
#
# _framework density 21.764644000000001
#
# number of rings (size 3 to 8) (size 9 to 14) (size 15 to 20)
#    0.000    0.333    6.667    2.000    4.667    2.667 
#    0.000    1.667    0.000    0.000    0.000    0.000 
#    0.000    0.000    0.000    0.000    0.000    0.000 
#
# Total GULP energy -133921.060162 kJ/mol
# GULP energy per Si atom -5580.044173 kJ/mol
# Density = 2.171511 g / cm^3
# Si number density = 21.764644 Si / 1000 Ang^3
#
#
#
# Elastic Constant Matrix: (Units=GPa)
#
#
# Indices 1 2 3 4 5 6 
#
# 1 65.3376 38.7531 8.8822 0.0000 0.0000 0.0000
# 2 38.7531 226.6105 37.8250 0.0000 0.0000 0.0000
# 3 8.8822 37.8250 70.9323 0.0000 0.0000 0.0000
# 4 0.0000 0.0000 0.0000 27.9486 0.0000 0.0000
# 5 0.0000 0.0000 0.0000 0.0000 26.8755 0.0000
# 6 0.0000 0.0000 0.0000 0.0000 0.0000 24.9545
#
#
#
# Elastic Compliance Matrix: (Units=1/GPa)
#
#
# Indices 1 2 3 4 5 6 
#
# 1 0.017059 -0.002811 -0.000637 0.000000 0.000000 0.000000
# 2 -0.002811 0.005307 -0.002478 0.000000 0.000000 0.000000
# 3 -0.000637 -0.002478 0.015499 0.000000 0.000000 0.000000
# 4 0.000000 0.000000 0.000000 0.035780 0.000000 0.000000
# 5 0.000000 0.000000 0.000000 0.000000 0.037209 0.000000
# 6 0.000000 0.000000 0.000000 0.000000 0.000000 0.040073
#
#
# Mechanical properties :
#
#
# Convention : Reuss Voigt Hill
#
# Bulk Modulus (GPa) = 38.44247 59.31122 48.87684
# Shear Modulus (GPa) = 29.16296 34.45038 31.80667
#
# Velocity S-wave (km/s) = 3.66447 3.98283 3.82696
# Velocity P-wave (km/s) = 5.96704 6.96139 6.48331
#
# Compressibility (1/GPa) = 0.02601290
#
# Stress axis : x y z
#
# Youngs Moduli (GPa) = 58.62021 188.42342 64.51950
#
# Poissons Ratio (x) = 0.52964 0.04111
# Poissons Ratio (y) = 0.16478 0.15989
# Poissons Ratio (z) = 0.03735 0.46693
#
# Static dielectric constant tensor:
#      x y z
#    x 1.462470 0.000000 0.000000 
#    y 0.000000 1.752840 0.000000 
#    z 0.000000 0.000000 1.894430 
# 
# From -- ./inp_files/3976.got.cif
#   From: 2010.05.17/outbox.cif.g08.bks.cpg/sg64_2_cif.got.tgz:3976.got - 2010.06.03 16:29:19.
