data_PCOD9482280
_publ_section_title
;
Structure prediction by ZEFSAII (Michael W. Deem and Ramdas Pophale) SiO2 
 PCOD9482280
Probable space group: C M C A
;
_chemical_formula_sum "Si O2"
_cell_formula_units_Z 32
_cell_length_a 5.420003
_cell_length_b 18.544896
_cell_length_c 12.860373
_cell_angle_alpha 90.000000
_cell_angle_beta 90.000000
_cell_angle_gamma 90.000000
_cell_volume 1292.639712
_symmetry_space_group_name_H-M "C M C A"
_symmetry_group_IT_number 64
_symmetry_cell_setting 'orthorhombic'
loop_
_space_group_symop_operation_xyz
x,y,z
-x,1/2-y,1/2+z
x,-y,-z
-x,1/2+y,1/2-z
-x,-y,-z
x,1/2+y,1/2-z
-x,y,z
x,1/2-y,1/2+z
1/2+x,1/2+y,z
1/2-x,-y,1/2+z
1/2+x,1/2-y,-z
1/2-x,y,1/2-z
1/2-x,1/2-y,-z
1/2+x,y,1/2-z
1/2-x,1/2+y,z
1/2+x,-y,1/2+z
loop_
_atom_site_type_symbol
_atom_site_label
_atom_site_fract_x
_atom_site_fract_y
_atom_site_fract_z
Si Si1 0.000000 0.719023 0.184282
Si Si2 0.500000 0.483765 0.713448
Si Si3 0.000000 0.613568 0.622603
Si Si4 0.500000 0.095523 0.009587
O O1 0.750000 0.708335 0.250000
O O2 0.000000 0.803422 0.153762
O O3 0.000000 0.666869 0.084112
O O4 0.250000 0.447446 0.750000
O O5 0.500000 0.559250 0.777996
O O6 0.500000 0.470541 0.591566
O O7 0.752051 0.598920 0.556944
#
# Coordination Sequence:
#
# PCOD9482280 Si02
#       4
#     8   8   8   8
#     4  12  24  46  74 104 146 188 238 300 362 428
#     4  12  26  46  68 104 146 188 240 296 356 422
#     4  12  26  46  74 107 144 191 243 295 361 432
#     4  12  26  46  74 107 144 191 243 295 361 432
#
# _framework density 24.755542999999999
#
# number of rings (size 3 to 8) (size 9 to 14) (size 15 to 20)
#    0.000    0.000    0.000   10.500    0.000    6.000 
#    0.000    0.000    0.000    0.000    0.000    0.000 
#    0.000    0.000    0.000    0.000    0.000    0.000 
#
# Total GULP energy -89651.039795 kJ/mol
# GULP energy per Si atom -5603.189987 kJ/mol
# Density = 2.469920 g / cm^3
# Si number density = 24.755543 Si / 1000 Ang^3
#
#
#
# Elastic Constant Matrix: (Units=GPa)
#
#
# Indices 1 2 3 4 5 6 
#
# 1 303.1072 87.8573 130.6499 0.0000 0.0000 0.0000
# 2 87.8573 228.5132 103.5530 0.0000 0.0000 0.0000
# 3 130.6499 103.5530 230.5070 0.0000 0.0000 0.0000
# 4 0.0000 0.0000 0.0000 70.8656 0.0000 0.0000
# 5 0.0000 0.0000 0.0000 0.0000 83.1027 0.0000
# 6 0.0000 0.0000 0.0000 0.0000 0.0000 54.8345
#
#
#
# Elastic Compliance Matrix: (Units=1/GPa)
#
#
# Indices 1 2 3 4 5 6 
#
# 1 0.004457 -0.000714 -0.002205 0.000000 0.000000 0.000000
# 2 -0.000714 0.005609 -0.002115 0.000000 0.000000 0.000000
# 3 -0.002205 -0.002115 0.006538 0.000000 0.000000 0.000000
# 4 0.000000 0.000000 0.000000 0.014111 0.000000 0.000000
# 5 0.000000 0.000000 0.000000 0.000000 0.012033 0.000000
# 6 0.000000 0.000000 0.000000 0.000000 0.000000 0.018237
#
#
# Mechanical properties :
#
#
# Convention : Reuss Voigt Hill
#
# Bulk Modulus (GPa) = 153.01500 156.24976 154.63238
# Shear Modulus (GPa) = 68.27553 71.09837 69.68695
#
# Velocity S-wave (km/s) = 5.25735 5.36494 5.31142
# Velocity P-wave (km/s) = 9.93970 10.08121 10.01070
#
# Compressibility (1/GPa) = 0.00653531
#
# Stress axis : x y z
#
# Youngs Moduli (GPa) = 224.38212 178.27980 152.94442
#
# Poissons Ratio (x) = 0.12732 0.33727
# Poissons Ratio (y) = 0.16025 0.32349
# Poissons Ratio (z) = 0.49480 0.37707
#
# Static dielectric constant tensor:
#      x y z
#    x 1.923180 0.000000 0.000000 
#    y 0.000000 2.010970 0.000000 
#    z 0.000000 0.000000 1.979320 
# 
# From -- ./inp_files/11407.got.cif
#   From: 2010.05.17/outbox.cif.g08.bks.cpg/sg64_6_cif.got.tgz:11407.got - 2010.06.03 16:29:19.
