data_PCOD9482820
_publ_section_title
;
Structure prediction by ZEFSAII (Michael W. Deem and Ramdas Pophale) SiO2 
 PCOD9482820
Probable space group: C M M M
;
_chemical_formula_sum "Si O2"
_cell_formula_units_Z 104
_cell_length_a 31.474655
_cell_length_b 8.483075
_cell_length_c 23.508434
_cell_angle_alpha 90.000000
_cell_angle_beta 90.000000
_cell_angle_gamma 90.000000
_cell_volume 6276.795579
_symmetry_space_group_name_H-M "C M M M"
_symmetry_group_IT_number 65
_symmetry_cell_setting 'orthorhombic'
loop_
_space_group_symop_operation_xyz
x,y,z
-x,-y,z
x,-y,-z
-x,y,-z
-x,-y,-z
x,y,-z
-x,y,z
x,-y,z
1/2+x,1/2+y,z
1/2-x,1/2-y,z
1/2+x,1/2-y,-z
1/2-x,1/2+y,-z
1/2-x,1/2-y,-z
1/2+x,1/2+y,-z
1/2-x,1/2+y,z
1/2+x,1/2-y,z
loop_
_atom_site_type_symbol
_atom_site_label
_atom_site_fract_x
_atom_site_fract_y
_atom_site_fract_z
Si Si1 0.448678 0.187669 0.561105
Si Si2 0.951546 0.688288 0.000000
Si Si3 0.882457 0.811526 0.775081
Si Si4 0.387406 0.309487 0.907557
Si Si5 0.206824 0.687181 0.217083
Si Si6 0.794448 0.813647 0.911832
Si Si7 0.450253 0.808720 0.686066
O O1 0.433555 0.253638 0.500000
O O2 0.500000 0.201828 0.561390
O O3 0.435203 0.247489 0.623121
O O4 0.439615 0.000000 0.560533
O O5 0.925300 0.745271 0.054691
O O6 0.952483 0.500000 0.000000
O O7 0.000000 0.747592 0.000000
O O8 0.890577 0.764288 0.841044
O O9 0.838060 0.733296 0.755681
O O10 0.920715 0.759332 0.734986
O O11 0.877492 0.000000 0.774246
O O12 0.387810 0.500000 0.910458
O O13 0.340970 0.255340 0.930646
O O14 0.250000 0.750000 0.245778
O O15 0.205700 0.772578 0.155442
O O16 0.290423 0.000000 0.208996
O O17 0.750000 0.750000 0.935269
O O18 0.793759 0.000000 0.919572
O O19 0.500000 0.766200 0.693419
O O20 0.448180 0.000000 0.686833
#
# Coordination Sequence:
#
# PCOD9482820 Si02
#       7
#    16   8  16  16  16  16  16
#     4   7  10  19  37  60  86 118 156 194 229 268
#     4  11  25  41  56  73  88 107 146 199 244 279
#     4  10  20  33  48  69  96 125 157 191 230 276
#     4   9  20  37  54  70  90 119 153 186 223 275
#     4  10  17  27  45  68  94 123 153 186 227 273
#     4   9  16  28  48  75 101 123 147 174 213 268
#     4   9  17  28  43  66  95 126 160 197 236 275
#
# _framework density 16.568964999999999
#
# number of rings (size 3 to 8) (size 9 to 14) (size 15 to 20)
#    0.000    2.846    0.000    5.769    0.000    5.231 
#    0.000    3.462    0.000    0.462    0.000    2.154 
#    0.000    0.615    0.000    1.692    0.000    2.615 
#
# Total GULP energy -289532.166435 kJ/mol
# GULP energy per Si atom -5567.926278 kJ/mol
# Density = 1.653125 g / cm^3
# Si number density = 16.568965 Si / 1000 Ang^3
#
#
#
# Elastic Constant Matrix: (Units=GPa)
#
#
# Indices 1 2 3 4 5 6 
#
# 1 136.0833 28.3537 61.6012 0.0000 0.0000 0.0000
# 2 28.3537 19.4774 19.5656 0.0000 0.0000 0.0000
# 3 61.6012 19.5656 98.1729 0.0000 0.0000 0.0000
# 4 0.0000 0.0000 0.0000 -8.7946 0.0000 0.0000
# 5 0.0000 0.0000 0.0000 0.0000 -14.3907 0.0000
# 6 0.0000 0.0000 0.0000 0.0000 0.0000 27.0110
#
#
#
# Elastic Compliance Matrix: (Units=1/GPa)
#
#
# Indices 1 2 3 4 5 6 
#
# 1 0.012370 -0.012766 -0.005218 0.000000 0.000000 0.000000
# 2 -0.012766 0.077368 -0.007409 0.000000 0.000000 0.000000
# 3 -0.005218 -0.007409 0.014937 0.000000 0.000000 0.000000
# 4 0.000000 0.000000 0.000000 -0.113707 0.000000 0.000000
# 5 0.000000 0.000000 0.000000 0.000000 -0.069490 0.000000
# 6 0.000000 0.000000 0.000000 0.000000 0.000000 0.037022
#
#
# Mechanical properties :
#
#
# Convention : Reuss Voigt Hill
#
# Bulk Modulus (GPa) = 18.55649 52.53049 35.54349
# Shear Modulus (GPa) = 183.48912 10.37936 96.93424
#
# Velocity S-wave (km/s) = 10.53485 2.50558 7.65706
# Velocity P-wave (km/s) = 12.61750 6.33589 9.98361
#
# Compressibility (1/GPa) = 0.05388949
#
# Stress axis : x y z
#
# Youngs Moduli (GPa) = 80.83854 12.92523 66.94932
#
# Poissons Ratio (x) = 0.16501 0.34933
# Poissons Ratio (y) = 1.03202 0.49600
# Poissons Ratio (z) = 0.42180 0.09576
#
# Static dielectric constant tensor:
#      x y z
#    x 1.584710 0.000000 0.000000 
#    y 0.000000 1.566080 0.000000 
#    z 0.000000 0.000000 1.587170 
# 
# From -- ./inp_files/72139.got.cif
#   From: 2010.05.17/outbox.cif.g08.bks.cpg/sg65_37_cif.got.tgz:72139.got - 2010.06.03 17:01:31.
