data_PCOD9482142
_publ_section_title
;
Structure prediction by ZEFSAII (Michael W. Deem and Ramdas Pophale) SiO2 
 PCOD9482142
Probable space group: C M C A
;
_chemical_formula_sum "Si O2"
_cell_formula_units_Z 72
_cell_length_a 17.232400
_cell_length_b 16.167349
_cell_length_c 13.203155
_cell_angle_alpha 90.000000
_cell_angle_beta 90.000000
_cell_angle_gamma 90.000000
_cell_volume 3678.428359
_symmetry_space_group_name_H-M "C M C A"
_symmetry_group_IT_number 64
_symmetry_cell_setting 'orthorhombic'
loop_
_space_group_symop_operation_xyz
x,y,z
-x,1/2-y,1/2+z
x,-y,-z
-x,1/2+y,1/2-z
-x,-y,-z
x,1/2+y,1/2-z
-x,y,z
x,1/2-y,1/2+z
1/2+x,1/2+y,z
1/2-x,-y,1/2+z
1/2+x,1/2-y,-z
1/2-x,y,1/2-z
1/2-x,1/2-y,-z
1/2+x,y,1/2-z
1/2-x,1/2+y,z
1/2+x,-y,1/2+z
loop_
_atom_site_type_symbol
_atom_site_label
_atom_site_fract_x
_atom_site_fract_y
_atom_site_fract_z
Si Si1 0.318030 0.000000 0.000000
Si Si2 0.300055 0.934471 0.350918
Si Si3 0.093464 0.403082 0.637510
Si Si4 0.091144 0.373565 0.868670
Si Si5 0.834238 0.215610 0.965408
O O1 0.367314 0.952601 0.916969
O O2 0.261223 0.061714 0.942502
O O3 0.250000 0.946155 0.250000
O O4 0.333779 0.843324 0.365781
O O5 0.362443 0.008045 0.365495
O O6 0.110541 0.367300 0.749703
O O7 0.127676 0.340912 0.553492
O O8 0.000000 0.412624 0.625404
O O9 0.000000 0.385616 0.875737
O O10 0.116250 0.295056 0.934035
O O11 0.750000 0.250000 0.000000
#
# Coordination Sequence:
#
# PCOD9482142 Si02
#       5
#     8  16  16  16  16
#     4  12  21  44  67  96 126 174 220 266 323 386
#     4  12  24  42  69  97 128 172 224 272 323 393
#     4  11  25  45  67  97 135 175 220 276 333 393
#     4  11  25  43  67  98 137 173 214 274 334 395
#     4  12  25  41  68  99 132 172 219 274 329 393
#
# _framework density 19.573577
#
# number of rings (size 3 to 8) (size 9 to 14) (size 15 to 20)
#    0.000    0.444    6.667    1.000    3.111    2.667 
#    0.000    0.000    0.000    0.000    0.000    0.000 
#    0.000    0.000    0.000    0.000    0.000    0.000 
#
# Total GULP energy -201068.544543 kJ/mol
# GULP energy per Si atom -5585.237348 kJ/mol
# Density = 1.952903 g / cm^3
# Si number density = 19.573577 Si / 1000 Ang^3
#
#
#
# Elastic Constant Matrix: (Units=GPa)
#
#
# Indices 1 2 3 4 5 6 
#
# 1 89.4568 33.7380 50.2597 0.0000 0.0000 0.0000
# 2 33.7380 86.0679 20.6984 0.0000 0.0000 0.0000
# 3 50.2597 20.6984 81.9667 0.0000 0.0000 0.0000
# 4 0.0000 0.0000 0.0000 30.5031 0.0000 0.0000
# 5 0.0000 0.0000 0.0000 0.0000 30.6577 0.0000
# 6 0.0000 0.0000 0.0000 0.0000 0.0000 22.5359
#
#
#
# Elastic Compliance Matrix: (Units=1/GPa)
#
#
# Indices 1 2 3 4 5 6 
#
# 1 0.018811 -0.004897 -0.010298 0.000000 0.000000 0.000000
# 2 -0.004897 0.013645 -0.000443 0.000000 0.000000 0.000000
# 3 -0.010298 -0.000443 0.018626 0.000000 0.000000 0.000000
# 4 0.000000 0.000000 0.000000 0.032784 0.000000 0.000000
# 5 0.000000 0.000000 0.000000 0.000000 0.032618 0.000000
# 6 0.000000 0.000000 0.000000 0.000000 0.000000 0.044374
#
#
# Mechanical properties :
#
#
# Convention : Reuss Voigt Hill
#
# Bulk Modulus (GPa) = 50.48831 51.87594 51.18213
# Shear Modulus (GPa) = 25.15903 26.92570 26.04236
#
# Velocity S-wave (km/s) = 3.58908 3.71295 3.65154
# Velocity P-wave (km/s) = 6.55938 6.70387 6.63202
#
# Compressibility (1/GPa) = 0.01980656
#
# Stress axis : x y z
#
# Youngs Moduli (GPa) = 53.15969 73.28725 53.68772
#
# Poissons Ratio (x) = 0.35891 0.55287
# Poissons Ratio (y) = 0.26034 0.02377
# Poissons Ratio (z) = 0.54743 0.03245
#
# Static dielectric constant tensor:
#      x y z
#    x 1.677320 0.000000 0.000000 
#    y 0.000000 1.660440 0.000000 
#    z 0.000000 0.000000 1.703350 
# 
# From -- ./inp_files/15792.got.cif
#   From: 2010.05.17/outbox.cif.g08.bks.cpg/sg64_8_cif.got.tgz:15792.got - 2010.06.03 16:29:19.
