data_PCOD9482600
_publ_section_title
;
Structure prediction by ZEFSAII (Michael W. Deem and Ramdas Pophale) SiO2 
 PCOD9482600
Probable space group: C M M M
;
_chemical_formula_sum "Si O2"
_cell_formula_units_Z 64
_cell_length_a 8.194483
_cell_length_b 28.628076
_cell_length_c 18.090543
_cell_angle_alpha 90.000000
_cell_angle_beta 90.000000
_cell_angle_gamma 90.000000
_cell_volume 4243.901767
_symmetry_space_group_name_H-M "C M M M"
_symmetry_group_IT_number 65
_symmetry_cell_setting 'orthorhombic'
loop_
_space_group_symop_operation_xyz
x,y,z
-x,-y,z
x,-y,-z
-x,y,-z
-x,-y,-z
x,y,-z
-x,y,z
x,-y,z
1/2+x,1/2+y,z
1/2-x,1/2-y,z
1/2+x,1/2-y,-z
1/2-x,1/2+y,-z
1/2-x,1/2-y,-z
1/2+x,1/2+y,-z
1/2-x,1/2+y,z
1/2+x,1/2-y,z
loop_
_atom_site_type_symbol
_atom_site_label
_atom_site_fract_x
_atom_site_fract_y
_atom_site_fract_z
Si Si1 0.805918 0.304368 0.000000
Si Si2 0.693699 0.304074 0.156862
Si Si3 0.191723 0.303802 0.315423
Si Si4 0.183826 0.886164 0.411263
Si Si5 0.500000 0.946397 0.410143
O O1 0.750000 0.250000 0.000000
O O2 0.742245 0.325075 0.077418
O O3 0.000000 0.305130 0.000000
O O4 0.500000 0.305551 0.165613
O O5 0.750000 0.250000 0.153385
O O6 0.775512 0.322076 0.231880
O O7 0.250000 0.250000 0.318893
O O8 0.287006 0.336704 0.371888
O O9 0.000000 0.305550 0.331287
O O10 0.193841 0.880938 0.500000
O O11 0.334201 0.919491 0.387927
O O12 0.000000 0.903379 0.393987
O O13 0.500000 0.946873 0.500000
O O14 0.500000 0.000000 0.384912
#
# Coordination Sequence:
#
# PCOD9482600 Si02
#       5
#     8  16  16  16   8
#     4  10  16  24  36  52  74 104 144 189 230 265
#     4  10  17  26  38  55  78 109 150 190 228 268
#     4  11  20  31  45  63  90 125 162 196 229 271
#     4  10  20  34  50  70  95 122 155 193 233 279
#     4   9  18  34  54  74  94 117 149 193 242 287
#
# _framework density 15.080463
#
# number of rings (size 3 to 8) (size 9 to 14) (size 15 to 20)
#    0.000    1.875    1.250    8.625    0.000    1.000 
#    0.000    2.500    0.000    0.000    0.000    0.000 
#    0.000    0.000    0.000    2.250    0.000    9.250 
#
# Total GULP energy -178263.784654 kJ/mol
# GULP energy per Si atom -5570.743270 kJ/mol
# Density = 1.504614 g / cm^3
# Si number density = 15.080463 Si / 1000 Ang^3
#
#
#
# Elastic Constant Matrix: (Units=GPa)
#
#
# Indices 1 2 3 4 5 6 
#
# 1 120.0121 28.2899 22.9875 0.0000 0.0000 0.0000
# 2 28.2899 54.8365 21.8811 0.0000 0.0000 0.0000
# 3 22.9875 21.8811 37.8368 0.0000 0.0000 0.0000
# 4 0.0000 0.0000 0.0000 -0.8868 0.0000 0.0000
# 5 0.0000 0.0000 0.0000 0.0000 23.6662 0.0000
# 6 0.0000 0.0000 0.0000 0.0000 0.0000 11.9783
#
#
#
# Elastic Compliance Matrix: (Units=1/GPa)
#
#
# Indices 1 2 3 4 5 6 
#
# 1 0.009929 -0.003530 -0.003991 0.000000 0.000000 0.000000
# 2 -0.003530 0.024961 -0.012291 0.000000 0.000000 0.000000
# 3 -0.003991 -0.012291 0.035962 0.000000 0.000000 0.000000
# 4 0.000000 0.000000 0.000000 -1.127653 0.000000 0.000000
# 5 0.000000 0.000000 0.000000 0.000000 0.042254 0.000000
# 6 0.000000 0.000000 0.000000 0.000000 0.000000 0.083484
#
#
# Mechanical properties :
#
#
# Convention : Reuss Voigt Hill
#
# Bulk Modulus (GPa) = 32.02147 39.88918 35.95532
# Shear Modulus (GPa) = -5.67518 16.25333 5.28908
#
# Velocity S-wave (km/s) = -1.94202 3.28651 1.87479
# Velocity P-wave (km/s) = 4.03129 6.39608 5.34608
#
# Compressibility (1/GPa) = 0.03122905
#
# Stress axis : x y z
#
# Youngs Moduli (GPa) = 100.71486 40.06192 27.80732
#
# Poissons Ratio (x) = 0.14141 0.11098
# Poissons Ratio (y) = 0.35551 0.34177
# Poissons Ratio (z) = 0.40195 0.49239
#
# Static dielectric constant tensor:
#      x y z
#    x 1.522610 0.000000 0.000000 
#    y 0.000000 1.466850 0.000000 
#    z 0.000000 0.000000 1.538420 
# 
# From -- ./inp_files/36383.got.cif
#   From: 2010.05.17/outbox.cif.g08.bks.cpg/sg65_19_cif.got.tgz:36383.got - 2010.06.03 17:01:31.
