data_PCOD9482682
_publ_section_title
;
Structure prediction by ZEFSAII (Michael W. Deem and Ramdas Pophale) SiO2 
 PCOD9482682
Probable space group: C M M M
;
_chemical_formula_sum "Si O2"
_cell_formula_units_Z 104
_cell_length_a 24.319291
_cell_length_b 24.528255
_cell_length_c 9.733482
_cell_angle_alpha 90.000000
_cell_angle_beta 90.000000
_cell_angle_gamma 90.000000
_cell_volume 5806.117120
_symmetry_space_group_name_H-M "C M M M"
_symmetry_group_IT_number 65
_symmetry_cell_setting 'orthorhombic'
loop_
_space_group_symop_operation_xyz
x,y,z
-x,-y,z
x,-y,-z
-x,y,-z
-x,-y,-z
x,y,-z
-x,y,z
x,-y,z
1/2+x,1/2+y,z
1/2-x,1/2-y,z
1/2+x,1/2-y,-z
1/2-x,1/2+y,-z
1/2-x,1/2-y,-z
1/2+x,1/2+y,-z
1/2-x,1/2+y,z
1/2+x,1/2-y,z
loop_
_atom_site_type_symbol
_atom_site_label
_atom_site_fract_x
_atom_site_fract_y
_atom_site_fract_z
Si Si1 0.250000 0.250000 0.759917
Si Si2 0.643365 0.064934 0.334347
Si Si3 0.565205 0.140555 0.836839
Si Si4 0.248981 0.129323 0.340689
Si Si5 0.873356 0.754691 0.845404
Si Si6 0.934237 0.062282 0.150545
Si Si7 0.372897 0.641201 0.664375
O O1 0.255882 0.194504 0.673195
O O2 0.193082 0.248993 0.842850
O O3 0.637924 0.073189 0.500000
O O4 0.593616 0.094036 0.254657
O O5 0.699470 0.095414 0.284678
O O6 0.645969 0.000000 0.310029
O O7 0.500000 0.146121 0.808932
O O8 0.597579 0.197404 0.810944
O O9 0.571551 0.128699 0.000000
O O10 0.246768 0.114034 0.500000
O O11 0.187550 0.121040 0.284885
O O12 0.885951 0.800966 0.734246
O O13 0.891163 0.769824 0.000000
O O14 0.914767 0.097989 0.276186
O O15 0.000000 0.061704 0.147944
O O16 0.915143 0.000000 0.163831
O O17 0.915412 0.083279 0.000000
O O18 0.372420 0.645773 0.500000
#
# Coordination Sequence:
#
# PCOD9482682 Si02
#       7
#     8  16  16  16  16  16  16
#     4  10  16  30  56  82 105 140 181 228 269 314
#     4  10  21  38  59  82 110 146 187 231 281 336
#     4  10  22  40  59  80 109 146 187 232 285 338
#     4   9  18  32  52  81 114 147 179 220 276 333
#     4  10  20  34  54  82 112 146 183 226 277 331
#     4   9  19  37  58  77 103 145 192 234 278 329
#     4  10  21  34  53  85 118 149 184 227 279 336
#
# _framework density 17.912141999999999
#
# number of rings (size 3 to 8) (size 9 to 14) (size 15 to 20)
#    0.000    2.308    1.538    1.385    0.000    4.000 
#    0.000    6.154    0.000    0.000    0.000    0.000 
#    0.000    0.000    0.000    0.000    0.000    0.000 
#
# Total GULP energy -289627.794566 kJ/mol
# GULP energy per Si atom -5569.765280 kJ/mol
# Density = 1.787137 g / cm^3
# Si number density = 17.912142 Si / 1000 Ang^3
#
#
#
# Elastic Constant Matrix: (Units=GPa)
#
#
# Indices 1 2 3 4 5 6 
#
# 1 79.7820 64.5467 34.1360 0.0000 0.0000 0.0000
# 2 64.5467 107.9048 45.8308 0.0000 0.0000 0.0000
# 3 34.1360 45.8308 60.3664 0.0000 0.0000 0.0000
# 4 0.0000 0.0000 0.0000 17.0585 0.0000 0.0000
# 5 0.0000 0.0000 0.0000 0.0000 25.1278 0.0000
# 6 0.0000 0.0000 0.0000 0.0000 0.0000 28.9386
#
#
#
# Elastic Compliance Matrix: (Units=1/GPa)
#
#
# Indices 1 2 3 4 5 6 
#
# 1 0.024958 -0.013188 -0.004101 0.000000 0.000000 0.000000
# 2 -0.013188 0.020646 -0.008218 0.000000 0.000000 0.000000
# 3 -0.004101 -0.008218 0.025123 0.000000 0.000000 0.000000
# 4 0.000000 0.000000 0.000000 0.058622 0.000000 0.000000
# 5 0.000000 0.000000 0.000000 0.000000 0.039796 0.000000
# 6 0.000000 0.000000 0.000000 0.000000 0.000000 0.034556
#
#
# Mechanical properties :
#
#
# Convention : Reuss Voigt Hill
#
# Bulk Modulus (GPa) = 50.72209 59.67558 55.19883
# Shear Modulus (GPa) = 19.13606 21.12764 20.13185
#
# Velocity S-wave (km/s) = 3.27208 3.43813 3.35613
# Velocity P-wave (km/s) = 6.53100 7.01064 6.77506
#
# Compressibility (1/GPa) = 0.01971528
#
# Stress axis : x y z
#
# Youngs Moduli (GPa) = 40.06689 48.43475 39.80344
#
# Poissons Ratio (x) = 0.63874 0.16324
# Poissons Ratio (y) = 0.52839 0.32709
# Poissons Ratio (z) = 0.16432 0.39801
#
# Static dielectric constant tensor:
#      x y z
#    x 1.637460 0.000000 0.000000 
#    y 0.000000 1.604360 0.000000 
#    z 0.000000 0.000000 1.609710 
# 
# From -- ./inp_files/14722.got.cif
#   From: 2010.05.17/outbox.cif.g08.bks.cpg/sg65_8_cif.got.tgz:14722.got - 2010.06.03 17:01:31.
