data_PCOD9482599
_publ_section_title
;
Structure prediction by ZEFSAII (Michael W. Deem and Ramdas Pophale) SiO2 
 PCOD9482599
Probable space group: C M M M
;
_chemical_formula_sum "Si O2"
_cell_formula_units_Z 80
_cell_length_a 17.164458
_cell_length_b 14.753097
_cell_length_c 13.701330
_cell_angle_alpha 90.000000
_cell_angle_beta 90.000000
_cell_angle_gamma 90.000000
_cell_volume 3469.572914
_symmetry_space_group_name_H-M "C M M M"
_symmetry_group_IT_number 65
_symmetry_cell_setting 'orthorhombic'
loop_
_space_group_symop_operation_xyz
x,y,z
-x,-y,z
x,-y,-z
-x,y,-z
-x,-y,-z
x,y,-z
-x,y,z
x,-y,z
1/2+x,1/2+y,z
1/2-x,1/2-y,z
1/2+x,1/2-y,-z
1/2-x,1/2+y,-z
1/2-x,1/2-y,-z
1/2+x,1/2+y,-z
1/2-x,1/2+y,z
1/2+x,1/2-y,z
loop_
_atom_site_type_symbol
_atom_site_label
_atom_site_fract_x
_atom_site_fract_y
_atom_site_fract_z
Si Si1 0.000000 0.139731 0.884285
Si Si2 0.169960 0.351827 0.117626
Si Si3 0.500000 0.854157 0.118183
Si Si4 0.338330 0.282886 0.608955
Si Si5 0.835265 0.141427 0.190493
Si Si6 0.908757 0.595644 0.381603
O O1 0.916780 0.102776 0.848392
O O2 0.000000 0.247056 0.856589
O O3 0.000000 0.134002 0.000000
O O4 0.167735 0.245329 0.148361
O O5 0.249735 0.393294 0.159827
O O6 0.084985 0.390848 0.148778
O O7 0.174444 0.356567 0.000000
O O8 0.500000 0.860635 0.000000
O O9 0.366796 0.307001 0.500000
O O10 0.250000 0.250000 0.600422
O O11 0.341862 0.356961 0.692528
O O12 0.379407 0.192857 0.649971
O O13 0.899555 0.597937 0.500000
O O14 0.872094 0.500000 0.349664
O O15 0.000000 0.592572 0.360679
#
# Coordination Sequence:
#
# PCOD9482599 Si02
#       6
#     8  16   8  16  16  16
#     4   9  16  24  35  53  78 108 148 185 220 272
#     4   9  14  23  36  50  74 107 145 186 227 275
#     4   7  12  20  32  47  63  94 134 172 213 259
#     4  10  19  29  40  61  94 124 148 185 234 285
#     4  10  16  24  35  54  79 118 144 176 228 280
#     4   8  15  29  48  65  83 116 161 201 231 263
#
# _framework density 23.057594000000002
#
# number of rings (size 3 to 8) (size 9 to 14) (size 15 to 20)
#    0.000    3.000    2.000    4.200    1.400    0.000 
#    0.000    0.000    0.000    0.000    0.000    0.000 
#    0.000    8.800    0.000   11.200    3.600   10.600 
#
# Total GULP energy -222998.668392 kJ/mol
# GULP energy per Si atom -5574.966710 kJ/mol
# Density = 2.300511 g / cm^3
# Si number density = 23.057594 Si / 1000 Ang^3
#
#
#
# Elastic Constant Matrix: (Units=GPa)
#
#
# Indices 1 2 3 4 5 6 
#
# 1 196.4968 29.8801 46.9447 0.0000 0.0000 0.0000
# 2 29.8801 42.4895 30.2417 0.0000 0.0000 0.0000
# 3 46.9447 30.2417 128.8572 0.0000 0.0000 0.0000
# 4 0.0000 0.0000 0.0000 -6.2423 0.0000 0.0000
# 5 0.0000 0.0000 0.0000 0.0000 40.5068 0.0000
# 6 0.0000 0.0000 0.0000 0.0000 0.0000 -40.7441
#
#
#
# Elastic Compliance Matrix: (Units=1/GPa)
#
#
# Indices 1 2 3 4 5 6 
#
# 1 0.005905 -0.003147 -0.001413 0.000000 0.000000 0.000000
# 2 -0.003147 0.029932 -0.005878 0.000000 0.000000 0.000000
# 3 -0.001413 -0.005878 0.009655 0.000000 0.000000 0.000000
# 4 0.000000 0.000000 0.000000 -0.160196 0.000000 0.000000
# 5 0.000000 0.000000 0.000000 0.000000 0.024687 0.000000
# 6 0.000000 0.000000 0.000000 0.000000 0.000000 -0.024543
#
#
# Mechanical properties :
#
#
# Convention : Reuss Voigt Hill
#
# Bulk Modulus (GPa) = 40.62432 64.66407 52.64419
# Shear Modulus (GPa) = -58.49419 16.08921 -21.20249
#
# Velocity S-wave (km/s) = -5.04220 2.64442 -3.03569
# Velocity P-wave (km/s) = 4.03008 6.11796 3.25484
#
# Compressibility (1/GPa) = 0.02461580
#
# Stress axis : x y z
#
# Youngs Moduli (GPa) = 169.34107 33.40873 103.57551
#
# Poissons Ratio (x) = 0.10515 0.14633
# Poissons Ratio (y) = 0.53296 0.60884
# Poissons Ratio (z) = 0.23923 0.19639
#
# Static dielectric constant tensor:
#      x y z
#    x 1.886360 0.000000 0.000000 
#    y 0.000000 1.877790 0.000000 
#    z 0.000000 0.000000 1.915120 
# 
# From -- ./inp_files/42402.got.cif
#   From: 2010.05.17/outbox.cif.g08.bks.cpg/sg65_22_cif.got.tgz:42402.got - 2010.06.03 17:01:31.
