data_PCOD9482905
_publ_section_title
;
Structure prediction by ZEFSAII (Michael W. Deem and Ramdas Pophale) SiO2 
 PCOD9482905
Probable space group: C M M M
;
_chemical_formula_sum "Si O2"
_cell_formula_units_Z 72
_cell_length_a 19.690136
_cell_length_b 28.736593
_cell_length_c 8.188623
_cell_angle_alpha 90.000000
_cell_angle_beta 90.000000
_cell_angle_gamma 90.000000
_cell_volume 4633.347461
_symmetry_space_group_name_H-M "C M M M"
_symmetry_group_IT_number 65
_symmetry_cell_setting 'orthorhombic'
loop_
_space_group_symop_operation_xyz
x,y,z
-x,-y,z
x,-y,-z
-x,y,-z
-x,-y,-z
x,y,-z
-x,y,z
x,-y,z
1/2+x,1/2+y,z
1/2-x,1/2-y,z
1/2+x,1/2-y,-z
1/2-x,1/2+y,-z
1/2-x,1/2-y,-z
1/2+x,1/2+y,-z
1/2-x,1/2+y,z
1/2+x,1/2-y,z
loop_
_atom_site_type_symbol
_atom_site_label
_atom_site_fract_x
_atom_site_fract_y
_atom_site_fract_z
Si Si1 0.500000 0.237002 0.199841
Si Si2 0.632712 0.400516 0.802746
Si Si3 0.213558 0.182333 0.688978
Si Si4 0.850632 0.275347 0.192065
Si Si5 0.920215 0.000000 0.800316
Si Si6 0.000000 0.843639 0.198759
O O1 0.572475 0.216247 0.250708
O O2 0.500000 0.290703 0.254203
O O3 0.500000 0.236904 0.000000
O O4 0.695323 0.369952 0.740309
O O5 0.618970 0.453298 0.748640
O O6 0.566608 0.371248 0.749778
O O7 0.635275 0.400758 0.000000
O O8 0.197506 0.189117 0.500000
O O9 0.168960 0.220698 0.786335
O O10 0.291583 0.196052 0.720053
O O11 0.846786 0.285843 0.000000
O O12 0.000000 0.000000 0.749750
O O13 0.921952 0.000000 0.000000
O O14 0.000000 0.843266 0.000000
#
# Coordination Sequence:
#
# PCOD9482905 Si02
#       6
#     8  16  16  16   8   8
#     4   9  16  26  45  70  86 106 146 189 224 263
#     4  10  17  29  47  65  87 117 153 191 228 263
#     4  11  21  31  41  61  91 122 152 182 217 264
#     4  10  18  31  49  66  84 112 148 188 227 265
#     4   9  16  26  47  73  89 108 151 204 235 255
#     4   9  14  23  42  65  86 112 149 187 222 261
#
# _framework density 15.539521000000001
#
# number of rings (size 3 to 8) (size 9 to 14) (size 15 to 20)
#    0.000    2.111    3.333    4.000    0.000    0.000 
#    0.000    4.444    0.000    0.667    0.000    0.000 
#    0.000    0.889    0.000   10.222    0.000    4.000 
#
# Total GULP energy -200699.427552 kJ/mol
# GULP energy per Si atom -5574.984099 kJ/mol
# Density = 1.550415 g / cm^3
# Si number density = 15.539521 Si / 1000 Ang^3
#
#
#
# Elastic Constant Matrix: (Units=GPa)
#
#
# Indices 1 2 3 4 5 6 
#
# 1 93.9992 38.8146 -1.7077 0.0000 0.0000 0.0000
# 2 38.8146 89.3042 2.9856 0.0000 0.0000 0.0000
# 3 -1.7077 2.9856 17.7126 0.0000 0.0000 0.0000
# 4 0.0000 0.0000 0.0000 0.1672 0.0000 0.0000
# 5 0.0000 0.0000 0.0000 0.0000 -17.1269 0.0000
# 6 0.0000 0.0000 0.0000 0.0000 0.0000 23.7547
#
#
#
# Elastic Compliance Matrix: (Units=1/GPa)
#
#
# Indices 1 2 3 4 5 6 
#
# 1 0.013052 -0.005747 0.002227 0.000000 0.000000 0.000000
# 2 -0.005747 0.013792 -0.002879 0.000000 0.000000 0.000000
# 3 0.002227 -0.002879 0.057157 0.000000 0.000000 0.000000
# 4 0.000000 0.000000 0.000000 5.980232 0.000000 0.000000
# 5 0.000000 0.000000 0.000000 0.000000 -0.058388 0.000000
# 6 0.000000 0.000000 0.000000 0.000000 0.000000 0.042097
#
#
# Mechanical properties :
#
#
# Convention : Reuss Voigt Hill
#
# Bulk Modulus (GPa) = 14.04439 31.24457 22.64448
# Shear Modulus (GPa) = 0.82176 12.08724 6.45450
#
# Velocity S-wave (km/s) = 0.72799 2.79200 2.04025
# Velocity P-wave (km/s) = 3.12476 5.52665 4.48932
#
# Compressibility (1/GPa) = 0.07120278
#
# Stress axis : x y z
#
# Youngs Moduli (GPa) = 76.61632 72.50635 17.49569
#
# Poissons Ratio (x) = 0.41672 -0.03897
# Poissons Ratio (y) = 0.44034 0.05037
# Poissons Ratio (z) = -0.17063 0.20874
#
# Static dielectric constant tensor:
#      x y z
#    x 1.539820 0.000000 0.000000 
#    y 0.000000 1.509670 0.000000 
#    z 0.000000 0.000000 1.528320 
# 
# From -- ./inp_files/12054.got.cif
#   From: 2010.05.17/outbox.cif.g08.bks.cpg/sg65_7_cif.got.tgz:12054.got - 2010.06.03 17:01:31.
