data_PCOD9482276
_publ_section_title
;
Structure prediction by ZEFSAII (Michael W. Deem and Ramdas Pophale) SiO2 
 PCOD9482276
Probable space group: C M C A
;
_chemical_formula_sum "Si O2"
_cell_formula_units_Z 64
_cell_length_a 21.007063
_cell_length_b 4.940972
_cell_length_c 25.941043
_cell_angle_alpha 90.000000
_cell_angle_beta 90.000000
_cell_angle_gamma 90.000000
_cell_volume 2692.558602
_symmetry_space_group_name_H-M "C M C A"
_symmetry_group_IT_number 64
_symmetry_cell_setting 'orthorhombic'
loop_
_space_group_symop_operation_xyz
x,y,z
-x,1/2-y,1/2+z
x,-y,-z
-x,1/2+y,1/2-z
-x,-y,-z
x,1/2+y,1/2-z
-x,y,z
x,1/2-y,1/2+z
1/2+x,1/2+y,z
1/2-x,-y,1/2+z
1/2+x,1/2-y,-z
1/2-x,y,1/2-z
1/2-x,1/2-y,-z
1/2+x,y,1/2-z
1/2-x,1/2+y,z
1/2+x,-y,1/2+z
loop_
_atom_site_type_symbol
_atom_site_label
_atom_site_fract_x
_atom_site_fract_y
_atom_site_fract_z
Si Si1 0.500000 0.677516 0.388951
Si Si2 0.140147 0.911407 0.780667
Si Si3 0.612638 0.243584 0.534162
Si Si4 0.000000 0.825868 0.816875
Si Si5 0.291550 0.363468 0.119063
O O1 0.561787 0.645708 0.424499
O O2 0.500000 0.474232 0.340654
O O3 0.500000 0.978036 0.366279
O O4 0.161281 0.112385 0.735074
O O5 0.166002 0.034450 0.833453
O O6 0.063891 0.891148 0.785868
O O7 0.632609 0.500000 0.500000
O O8 0.669872 0.109762 0.566227
O O9 0.584159 0.000000 0.500000
O O10 0.229644 0.552721 0.121372
#
# Coordination Sequence:
#
# PCOD9482276 Si02
#       5
#     8  16  16   8  16
#     4  12  24  44  76 105 145 186 226 296 365 428
#     4  12  26  46  74 105 141 183 234 294 359 425
#     4  12  26  46  74 107 145 188 239 296 363 428
#     4  12  24  44  76 105 145 182 228 291 371 425
#     4  12  28  47  72 102 143 191 243 294 348 419
#
# _framework density 23.769213000000001
#
# number of rings (size 3 to 8) (size 9 to 14) (size 15 to 20)
#    0.000    0.000    2.500    7.500    3.500    6.000 
#    0.000    0.000    0.000    0.000    0.000    0.000 
#    0.000    0.000    0.000    0.000    0.000    0.000 
#
# Total GULP energy -179331.849742 kJ/mol
# GULP energy per Si atom -5604.120304 kJ/mol
# Density = 2.371511 g / cm^3
# Si number density = 23.769213 Si / 1000 Ang^3
#
#
#
# Elastic Constant Matrix: (Units=GPa)
#
#
# Indices 1 2 3 4 5 6 
#
# 1 46.3921 10.0243 14.5958 0.0000 0.0000 0.0000
# 2 10.0243 88.2386 28.5829 0.0000 0.0000 0.0000
# 3 14.5958 28.5829 82.5247 0.0000 0.0000 0.0000
# 4 0.0000 0.0000 0.0000 52.6855 0.0000 0.0000
# 5 0.0000 0.0000 0.0000 0.0000 91.5394 0.0000
# 6 0.0000 0.0000 0.0000 0.0000 0.0000 15.7540
#
#
#
# Elastic Compliance Matrix: (Units=1/GPa)
#
#
# Indices 1 2 3 4 5 6 
#
# 1 0.022991 -0.001458 -0.003561 0.000000 0.000000 0.000000
# 2 -0.001458 0.012858 -0.004195 0.000000 0.000000 0.000000
# 3 -0.003561 -0.004195 0.014201 0.000000 0.000000 0.000000
# 4 0.000000 0.000000 0.000000 0.018981 0.000000 0.000000
# 5 0.000000 0.000000 0.000000 0.000000 0.010924 0.000000
# 6 0.000000 0.000000 0.000000 0.000000 0.000000 0.063476
#
#
# Mechanical properties :
#
#
# Convention : Reuss Voigt Hill
#
# Bulk Modulus (GPa) = 31.62631 35.95127 33.78879
# Shear Modulus (GPa) = 29.00247 42.92596 35.96421
#
# Velocity S-wave (km/s) = 3.49688 4.25425 3.89403
# Velocity P-wave (km/s) = 5.44414 6.26814 5.87062
#
# Compressibility (1/GPa) = 0.03161924
#
# Stress axis : x y z
#
# Youngs Moduli (GPa) = 43.49545 77.77515 70.41995
#
# Poissons Ratio (x) = 0.11342 0.25078
# Poissons Ratio (y) = 0.06343 0.29544
# Poissons Ratio (z) = 0.15490 0.32630
#
# Static dielectric constant tensor:
#      x y z
#    x 1.900930 0.000000 0.000000 
#    y 0.000000 1.823260 0.000000 
#    z 0.000000 0.000000 1.872920 
# 
# From -- ./inp_files/46102.got.cif
#   From: 2010.05.17/outbox.cif.g08.bks.cpg/sg64_24_cif.got.tgz:46102.got - 2010.06.03 16:29:19.
