data_PCOD9482113
_publ_section_title
;
Structure prediction by ZEFSAII (Michael W. Deem and Ramdas Pophale) SiO2 
 PCOD9482113
Probable space group: C M C A
;
_chemical_formula_sum "Si O2"
_cell_formula_units_Z 104
_cell_length_a 18.828892
_cell_length_b 26.769944
_cell_length_c 9.155366
_cell_angle_alpha 90.000000
_cell_angle_beta 90.000000
_cell_angle_gamma 90.000000
_cell_volume 4614.747441
_symmetry_space_group_name_H-M "C M C A"
_symmetry_group_IT_number 64
_symmetry_cell_setting 'orthorhombic'
loop_
_space_group_symop_operation_xyz
x,y,z
-x,1/2-y,1/2+z
x,-y,-z
-x,1/2+y,1/2-z
-x,-y,-z
x,1/2+y,1/2-z
-x,y,z
x,1/2-y,1/2+z
1/2+x,1/2+y,z
1/2-x,-y,1/2+z
1/2+x,1/2-y,-z
1/2-x,y,1/2-z
1/2-x,1/2-y,-z
1/2+x,y,1/2-z
1/2-x,1/2+y,z
1/2+x,-y,1/2+z
loop_
_atom_site_type_symbol
_atom_site_label
_atom_site_fract_x
_atom_site_fract_y
_atom_site_fract_z
Si Si1 0.585523 0.577837 0.527068
Si Si2 0.348035 0.860767 0.551133
Si Si3 0.250000 0.709842 0.250000
Si Si4 0.920745 0.810130 0.461478
Si Si5 0.335733 0.944472 0.746836
Si Si6 0.373715 0.727388 0.845005
Si Si7 0.671014 0.553932 0.813765
O O1 0.500000 0.569930 0.514138
O O2 0.605843 0.635642 0.495741
O O3 0.630991 0.547941 0.407027
O O4 0.613844 0.569106 0.690439
O O5 0.293806 0.826037 0.641591
O O6 0.377984 0.897921 0.675181
O O7 0.386696 0.820144 0.448768
O O8 0.323963 0.903794 0.437606
O O9 0.297134 0.746413 0.349622
O O10 0.881096 0.786945 0.323631
O O11 0.921275 0.772400 0.596048
O O12 0.000000 0.818215 0.405432
O O13 0.250000 0.934004 0.750000
O O14 0.345385 0.995648 0.657631
O O15 0.750000 0.552511 0.750000
#
# Coordination Sequence:
#
# PCOD9482113 Si02
#       7
#    16  16   8  16  16  16  16
#     4  11  25  47  75 105 143 190 236 293 359 428
#     4  12  24  41  67  96 142 174 224 291 347 410
#     4  12  26  40  68 102 138 176 230 280 354 412
#     4  11  25  45  67  96 135 183 235 280 345 422
#     4  11  24  44  68 103 141 184 236 290 350 422
#     4  12  25  42  66  99 134 182 223 287 341 414
#     4  11  25  42  72 103 137 185 236 288 351 416
#
# _framework density 22.536445000000001
#
# number of rings (size 3 to 8) (size 9 to 14) (size 15 to 20)
#    0.000    0.615    3.846    3.692    3.231    3.692 
#    0.000    1.538    0.000    1.846    0.000    0.000 
#    0.000    0.000    0.000    0.000    0.000    0.000 
#
# Total GULP energy -290050.158500 kJ/mol
# GULP energy per Si atom -5577.887663 kJ/mol
# Density = 2.248515 g / cm^3
# Si number density = 22.536445 Si / 1000 Ang^3
#
#
#
# Elastic Constant Matrix: (Units=GPa)
#
#
# Indices 1 2 3 4 5 6 
#
# 1 46.4624 -0.8824 21.7740 0.0000 0.0000 0.0000
# 2 -0.8824 137.8559 21.8458 0.0000 0.0000 0.0000
# 3 21.7740 21.8458 103.4052 0.0000 0.0000 0.0000
# 4 0.0000 0.0000 0.0000 47.1653 0.0000 0.0000
# 5 0.0000 0.0000 0.0000 0.0000 24.7136 0.0000
# 6 0.0000 0.0000 0.0000 0.0000 0.0000 -623.4821
#
#
#
# Elastic Compliance Matrix: (Units=1/GPa)
#
#
# Indices 1 2 3 4 5 6 
#
# 1 0.024009 0.000988 -0.005264 0.000000 0.000000 0.000000
# 2 0.000988 0.007546 -0.001802 0.000000 0.000000 0.000000
# 3 -0.005264 -0.001802 0.011160 0.000000 0.000000 0.000000
# 4 0.000000 0.000000 0.000000 0.021202 0.000000 0.000000
# 5 0.000000 0.000000 0.000000 0.000000 0.040464 0.000000
# 6 0.000000 0.000000 0.000000 0.000000 0.000000 -0.001604
#
#
# Mechanical properties :
#
#
# Convention : Reuss Voigt Hill
#
# Bulk Modulus (GPa) = 32.72534 41.46648 37.09591
# Shear Modulus (GPa) = 39.96203 -93.98823 -27.01310
#
# Velocity S-wave (km/s) = 4.21553 -6.46495 -3.46590
# Velocity P-wave (km/s) = 6.18440 6.10636 0.69251
#
# Compressibility (1/GPa) = 0.03055736
#
# Stress axis : x y z
#
# Youngs Moduli (GPa) = 41.65182 132.52294 89.60646
#
# Poissons Ratio (x) = -0.13092 0.47170
# Poissons Ratio (y) = -0.04115 0.16149
# Poissons Ratio (z) = 0.21926 0.23883
#
# Static dielectric constant tensor:
#      x y z
#    x 1.963140 0.000000 0.000000 
#    y 0.000000 1.918280 0.000000 
#    z 0.000000 0.000000 1.872760 
# 
# From -- ./inp_files/8515.got.cif
#   From: 2010.05.17/outbox.cif.g08.bks.cpg/sg64_5_cif.got.tgz:8515.got - 2010.06.03 16:29:19.
