data_PCOD9482369
_publ_section_title
;
Structure prediction by ZEFSAII (Michael W. Deem and Ramdas Pophale) SiO2 
 PCOD9482369
Probable space group: C M C A
;
_chemical_formula_sum "Si O2"
_cell_formula_units_Z 48
_cell_length_a 9.000000
_cell_length_b 27.000000
_cell_length_c 21.000000
_cell_angle_alpha 90.000000
_cell_angle_beta 90.000000
_cell_angle_gamma 90.000000
_cell_volume 5103.000000
_symmetry_space_group_name_H-M "C M C A"
_symmetry_group_IT_number 64
_symmetry_cell_setting 'orthorhombic'
loop_
_space_group_symop_operation_xyz
x,y,z
-x,1/2-y,1/2+z
x,-y,-z
-x,1/2+y,1/2-z
-x,-y,-z
x,1/2+y,1/2-z
-x,y,z
x,1/2-y,1/2+z
1/2+x,1/2+y,z
1/2-x,-y,1/2+z
1/2+x,1/2-y,-z
1/2-x,y,1/2-z
1/2-x,1/2-y,-z
1/2+x,y,1/2-z
1/2-x,1/2+y,z
1/2+x,-y,1/2+z
loop_
_atom_site_type_symbol
_atom_site_label
_atom_site_fract_x
_atom_site_fract_y
_atom_site_fract_z
Si Si1 0.332996 0.147042 0.812421
Si Si2 0.670076 0.765852 0.685697
Si Si3 0.823277 0.286837 0.948400
Si Si4 0.833900 0.890021 0.955536
Si Si5 0.835430 0.579428 0.601104
Si Si6 0.169815 0.015584 0.424570
O O1 0.500000 0.128401 0.815545
O O2 0.250000 0.128350 0.750000
O O3 0.336391 0.206183 0.809962
O O4 0.241976 0.127731 0.871689
O O5 0.500000 0.783787 0.681238
O O6 0.750000 0.784083 0.750000
O O7 0.762314 0.776394 0.622294
O O8 0.771504 0.342843 0.960842
O O9 0.000000 0.281503 0.951529
O O10 0.750000 0.250000 0.000000
O O11 0.763755 0.934630 0.915570
O O12 0.000000 0.875817 0.934252
O O13 0.846685 0.912496 0.025981
O O14 0.739614 0.530600 0.612177
O O15 0.000000 0.573950 0.627926
O O16 0.000000 0.024118 0.407237
O O17 0.171481 0.000000 0.500000
#
# Coordination Sequence:
#
# PCOD9482369 Si02
#       6
#    16  16  16  16  16  16
#     4  10  20  33  51  74 101 133 170 212 258 310
#     4  10  21  38  58  80 108 144 184 224 270 326
#     4  12  24  37  55  81 112 145 183 229 278 323
#     4  10  20  34  52  76 106 138 173 215 263 313
#     4  10  19  31  50  75 104 136 170 210 258 310
#     4   9  17  30  49  73 101 133 168 205 250 307
#
# _framework density 9.4062319999999993
#
# number of rings (size 3 to 8) (size 9 to 14) (size 15 to 20)
#    0.000    1.833    0.000    5.000    0.000    8.667 
#    0.000    0.000    0.000    1.000    0.000    7.000 
#    0.000    0.000    0.000    0.000    0.000    0.000 
#
# Total GULP energy -267584.946200 kJ/mol
# GULP energy per Si atom -5574.686379 kJ/mol
# Density = 0.938482 g / cm^3
# Si number density = 9.406232 Si / 1000 Ang^3
#
#
#
# Elastic Constant Matrix: (Units=GPa)
#
#
# Indices 1 2 3 4 5 6 
#
# 1 153.4597 28.0305 40.5152 0.0000 0.0000 0.0000
# 2 28.0305 41.7546 16.0219 0.0000 0.0000 0.0000
# 3 40.5152 16.0219 50.0326 0.0000 0.0000 0.0000
# 4 0.0000 0.0000 0.0000 5.7238 0.0000 0.0000
# 5 0.0000 0.0000 0.0000 0.0000 17.5430 0.0000
# 6 0.0000 0.0000 0.0000 0.0000 0.0000 62.2404
#
#
#
# Elastic Compliance Matrix: (Units=1/GPa)
#
#
# Indices 1 2 3 4 5 6 
#
# 1 0.008737 -0.003592 -0.005924 0.000000 0.000000 0.000000
# 2 -0.003592 0.028781 -0.006308 0.000000 0.000000 0.000000
# 3 -0.005924 -0.006308 0.026805 0.000000 0.000000 0.000000
# 4 0.000000 0.000000 0.000000 0.174708 0.000000 0.000000
# 5 0.000000 0.000000 0.000000 0.000000 0.057003 0.000000
# 6 0.000000 0.000000 0.000000 0.000000 0.000000 0.016067
#
#
# Mechanical properties :
#
#
# Convention : Reuss Voigt Hill
#
# Bulk Modulus (GPa) = 30.60570 46.04245 38.32407
# Shear Modulus (GPa) = 14.09884 27.81341 20.95613
#
# Velocity S-wave (km/s) = 2.74056 3.84924 3.34121
# Velocity P-wave (km/s) = 5.13015 6.65456 5.94144
#
# Compressibility (1/GPa) = 0.03267366
#
# Stress axis : x y z
#
# Youngs Moduli (GPa) = 114.46171 34.74503 37.30713
#
# Poissons Ratio (x) = 0.12479 0.22103
# Poissons Ratio (y) = 0.41111 0.23534
# Poissons Ratio (z) = 0.67813 0.21918
#
# Static dielectric constant tensor:
#      x y z
#    x 1.670010 0.000000 0.000000 
#    y 0.000000 1.632180 0.000000 
#    z 0.000000 0.000000 1.429280 
# 
# From -- ./inp_files/36983.got.cif
#   From: 2010.05.17/outbox.ucp.g08.bks.cvg/sg64_19_cif.got.tgz:36983.got - 2010.06.11 16:36:46.
