data_PCOD9482782
_publ_section_title
;
Structure prediction by ZEFSAII (Michael W. Deem and Ramdas Pophale) SiO2 
 PCOD9482782
Probable space group: C M M M
;
_chemical_formula_sum "Si O2"
_cell_formula_units_Z 88
_cell_length_a 17.234751
_cell_length_b 16.184327
_cell_length_c 18.290178
_cell_angle_alpha 90.000000
_cell_angle_beta 90.000000
_cell_angle_gamma 90.000000
_cell_volume 5101.731402
_symmetry_space_group_name_H-M "C M M M"
_symmetry_group_IT_number 65
_symmetry_cell_setting 'orthorhombic'
loop_
_space_group_symop_operation_xyz
x,y,z
-x,-y,z
x,-y,-z
-x,y,-z
-x,-y,-z
x,y,-z
-x,y,z
x,-y,z
1/2+x,1/2+y,z
1/2-x,1/2-y,z
1/2+x,1/2-y,-z
1/2-x,1/2+y,-z
1/2-x,1/2-y,-z
1/2+x,1/2+y,-z
1/2-x,1/2+y,z
1/2+x,1/2-y,z
loop_
_atom_site_type_symbol
_atom_site_label
_atom_site_fract_x
_atom_site_fract_y
_atom_site_fract_z
Si Si1 0.500000 0.402762 0.912640
Si Si2 0.305002 0.848724 0.781410
Si Si3 0.754155 0.842466 0.613254
Si Si4 0.349462 0.000000 0.578521
Si Si5 0.138123 0.832359 0.819059
Si Si6 0.086401 0.098842 0.337218
Si Si7 0.590230 0.000000 0.742613
O O1 0.500000 0.500000 0.890535
O O2 0.576942 0.359411 0.879973
O O3 0.500000 0.398374 0.000000
O O4 0.275452 0.836030 0.697751
O O5 0.225371 0.869640 0.824424
O O6 0.344056 0.765302 0.811437
O O7 0.366547 0.921195 0.776125
O O8 0.750000 0.750000 0.582589
O O9 0.703552 0.917307 0.581443
O O10 0.843659 0.869257 0.613574
O O11 0.391504 0.000000 0.500000
O O12 0.396970 0.000000 0.654305
O O13 0.101075 0.863382 0.742896
O O14 0.000000 0.120825 0.362558
O O15 0.092005 0.000000 0.331491
O O16 0.500000 0.000000 0.758380
#
# Coordination Sequence:
#
# PCOD9482782 Si02
#       7
#     8  16  16   8  16  16   8
#     4  11  24  36  52  85 123 155 182 210 256 330
#     4   9  19  33  54  83 109 136 178 232 291 315
#     4  10  17  33  51  76 107 134 178 235 270 325
#     4  10  22  37  53  72 106 155 186 207 267 347
#     4  10  18  33  53  80 111 144 179 220 272 334
#     4  10  17  26  48  80 105 130 167 223 292 326
#     4  10  22  35  56  84 113 133 174 245 280 313
#
# _framework density 17.249046
#
# number of rings (size 3 to 8) (size 9 to 14) (size 15 to 20)
#    0.000    2.091    5.455    0.545    6.364    0.545 
#    0.000    1.818    0.000    1.091    0.000    0.636 
#    0.000    0.000    0.000    0.000    0.000    0.000 
#
# Total GULP energy -245186.823957 kJ/mol
# GULP energy per Si atom -5572.427817 kJ/mol
# Density = 1.720979 g / cm^3
# Si number density = 17.249046 Si / 1000 Ang^3
#
#
#
# Elastic Constant Matrix: (Units=GPa)
#
#
# Indices 1 2 3 4 5 6 
#
# 1 153.5329 72.4206 32.0143 0.0000 0.0000 0.0000
# 2 72.4206 102.2409 18.6888 0.0000 0.0000 0.0000
# 3 32.0143 18.6888 47.3538 0.0000 0.0000 0.0000
# 4 0.0000 0.0000 0.0000 43.0390 0.0000 0.0000
# 5 0.0000 0.0000 0.0000 0.0000 20.1417 0.0000
# 6 0.0000 0.0000 0.0000 0.0000 0.0000 28.8972
#
#
#
# Elastic Compliance Matrix: (Units=1/GPa)
#
#
# Indices 1 2 3 4 5 6 
#
# 1 0.010614 -0.006689 -0.004536 0.000000 0.000000 0.000000
# 2 -0.006689 0.014757 -0.001302 0.000000 0.000000 0.000000
# 3 -0.004536 -0.001302 0.024698 0.000000 0.000000 0.000000
# 4 0.000000 0.000000 0.000000 0.023235 0.000000 0.000000
# 5 0.000000 0.000000 0.000000 0.000000 0.049648 0.000000
# 6 0.000000 0.000000 0.000000 0.000000 0.000000 0.034605
#
#
# Mechanical properties :
#
#
# Convention : Reuss Voigt Hill
#
# Bulk Modulus (GPa) = 39.97525 61.04168 50.50846
# Shear Modulus (GPa) = 26.18478 30.41582 28.30030
#
# Velocity S-wave (km/s) = 3.90043 4.20376 4.05493
# Velocity P-wave (km/s) = 6.59622 7.68293 7.16022
#
# Compressibility (1/GPa) = 0.02501548
#
# Stress axis : x y z
#
# Youngs Moduli (GPa) = 94.21105 67.76409 40.48915
#
# Poissons Ratio (x) = 0.45330 0.18366
# Poissons Ratio (y) = 0.63022 0.05270
# Poissons Ratio (z) = 0.42734 0.08820
#
# Static dielectric constant tensor:
#      x y z
#    x 1.584430 0.000000 0.000000 
#    y 0.000000 1.595180 0.000000 
#    z 0.000000 0.000000 1.578630 
# 
# From -- ./inp_files/53086.got.cif
#   From: 2010.05.17/outbox.cif.g08.bks.cpg/sg65_27_cif.got.tgz:53086.got - 2010.06.03 17:01:31.
