data_PCOD9482258
_publ_section_title
;
Structure prediction by ZEFSAII (Michael W. Deem and Ramdas Pophale) SiO2 
 PCOD9482258
Probable space group: C M C A
;
_chemical_formula_sum "Si O2"
_cell_formula_units_Z 80
_cell_length_a 10.463794
_cell_length_b 26.333710
_cell_length_c 15.400730
_cell_angle_alpha 90.000000
_cell_angle_beta 90.000000
_cell_angle_gamma 90.000000
_cell_volume 4243.679109
_symmetry_space_group_name_H-M "C M C A"
_symmetry_group_IT_number 64
_symmetry_cell_setting 'orthorhombic'
loop_
_space_group_symop_operation_xyz
x,y,z
-x,1/2-y,1/2+z
x,-y,-z
-x,1/2+y,1/2-z
-x,-y,-z
x,1/2+y,1/2-z
-x,y,z
x,1/2-y,1/2+z
1/2+x,1/2+y,z
1/2-x,-y,1/2+z
1/2+x,1/2-y,-z
1/2-x,y,1/2-z
1/2-x,1/2-y,-z
1/2+x,y,1/2-z
1/2-x,1/2+y,z
1/2+x,-y,1/2+z
loop_
_atom_site_type_symbol
_atom_site_label
_atom_site_fract_x
_atom_site_fract_y
_atom_site_fract_z
Si Si1 0.750000 0.869888 0.250000
Si Si2 0.848747 0.938778 0.901680
Si Si3 0.000000 0.699374 0.767617
Si Si4 0.500000 0.222077 0.421269
Si Si5 0.651066 0.445007 0.109254
Si Si6 0.748850 0.334032 0.851634
Si Si7 0.000000 0.224564 0.395757
O O1 0.874096 0.834868 0.260002
O O2 0.729900 0.906123 0.333036
O O3 0.765246 0.894498 0.860495
O O4 0.000000 0.930974 0.882202
O O5 0.815185 0.996051 0.873952
O O6 0.834780 0.936110 0.006233
O O7 0.000000 0.729398 0.858067
O O8 0.000000 0.740342 0.689884
O O9 0.374805 0.189761 0.397867
O O10 0.500000 0.239825 0.520191
O O11 0.500000 0.438719 0.129199
O O12 0.750000 0.320088 0.750000
O O13 0.875156 0.310676 0.893502
#
# Coordination Sequence:
#
# PCOD9482258 Si02
#       7
#     8  16   8   8  16  16   8
#     4  12  24  38  66  90 130 160 208 254 316 370
#     4   9  20  39  69  89 125 165 211 251 305 382
#     4  12  26  44  60  94 126 168 210 270 310 370
#     4  12  26  46  67  88 124 174 221 260 315 381
#     4   9  20  41  61  97 123 163 211 251 300 385
#     4  12  23  43  65  96 127 165 213 265 323 375
#     4  12  28  44  65  92 130 170 215 270 317 379
#
# _framework density 18.851566999999999
#
# number of rings (size 3 to 8) (size 9 to 14) (size 15 to 20)
#    0.000    1.200    4.000    3.000    7.000    0.000 
#    0.000    1.000    0.000    2.400    0.000    0.000 
#    0.000    0.000    0.000    0.000    0.000    0.000 
#
# Total GULP energy -223621.249631 kJ/mol
# GULP energy per Si atom -5590.531241 kJ/mol
# Density = 1.880866 g / cm^3
# Si number density = 18.851567 Si / 1000 Ang^3
#
#
#
# Elastic Constant Matrix: (Units=GPa)
#
#
# Indices 1 2 3 4 5 6 
#
# 1 122.1231 49.1397 7.2907 0.0000 0.0000 0.0000
# 2 49.1397 87.0758 0.2994 0.0000 0.0000 0.0000
# 3 7.2907 0.2994 29.0067 0.0000 0.0000 0.0000
# 4 0.0000 0.0000 0.0000 30.2844 0.0000 0.0000
# 5 0.0000 0.0000 0.0000 0.0000 19.0598 0.0000
# 6 0.0000 0.0000 0.0000 0.0000 0.0000 40.5631
#
#
#
# Elastic Compliance Matrix: (Units=1/GPa)
#
#
# Indices 1 2 3 4 5 6 
#
# 1 0.010794 -0.006082 -0.002650 0.000000 0.000000 0.000000
# 2 -0.006082 0.014912 0.001375 0.000000 0.000000 0.000000
# 3 -0.002650 0.001375 0.035127 0.000000 0.000000 0.000000
# 4 0.000000 0.000000 0.000000 0.033020 0.000000 0.000000
# 5 0.000000 0.000000 0.000000 0.000000 0.052466 0.000000
# 6 0.000000 0.000000 0.000000 0.000000 0.000000 0.024653
#
#
# Mechanical properties :
#
#
# Convention : Reuss Voigt Hill
#
# Bulk Modulus (GPa) = 21.68387 39.07394 30.37890
# Shear Modulus (GPa) = 24.86817 30.07986 27.47402
#
# Velocity S-wave (km/s) = 3.63596 3.99885 3.82171
# Velocity P-wave (km/s) = 5.39948 6.48793 5.96857
#
# Compressibility (1/GPa) = 0.04611722
#
# Stress axis : x y z
#
# Youngs Moduli (GPa) = 92.64340 67.06018 28.46839
#
# Poissons Ratio (x) = 0.40788 0.07545
# Poissons Ratio (y) = 0.56349 -0.03914
# Poissons Ratio (z) = 0.24553 -0.09220
#
# Static dielectric constant tensor:
#      x y z
#    x 1.623300 0.000000 0.000000 
#    y 0.000000 1.650650 0.000000 
#    z 0.000000 0.000000 1.634640 
# 
# From -- ./inp_files/29893.got.cif
#   From: 2010.05.17/outbox.cif.g08.bks.cpg/sg64_15_cif.got.tgz:29893.got - 2010.06.03 16:29:19.
