data_PCOD9482533
_publ_section_title
;
Structure prediction by ZEFSAII (Michael W. Deem and Ramdas Pophale) SiO2 
 PCOD9482533
Probable space group: C M M M
;
_chemical_formula_sum "Si O2"
_cell_formula_units_Z 68
_cell_length_a 7.394249
_cell_length_b 35.554854
_cell_length_c 12.640674
_cell_angle_alpha 90.000000
_cell_angle_beta 90.000000
_cell_angle_gamma 90.000000
_cell_volume 3323.251443
_symmetry_space_group_name_H-M "C M M M"
_symmetry_group_IT_number 65
_symmetry_cell_setting 'orthorhombic'
loop_
_space_group_symop_operation_xyz
x,y,z
-x,-y,z
x,-y,-z
-x,y,-z
-x,-y,-z
x,y,-z
-x,y,z
x,-y,z
1/2+x,1/2+y,z
1/2-x,1/2-y,z
1/2+x,1/2-y,-z
1/2-x,1/2+y,-z
1/2-x,1/2-y,-z
1/2+x,1/2+y,-z
1/2-x,1/2+y,z
1/2+x,1/2-y,z
loop_
_atom_site_type_symbol
_atom_site_label
_atom_site_fract_x
_atom_site_fract_y
_atom_site_fract_z
Si Si1 0.221224 0.000000 0.238572
Si Si2 0.220091 0.927767 0.379617
Si Si3 0.221390 0.130099 0.210351
Si Si4 0.284355 0.707837 0.879003
Si Si5 0.742233 0.000000 0.000000
Si Si6 0.205237 0.911061 0.000000
O O1 0.267091 0.963560 0.307547
O O2 0.312205 0.000000 0.124043
O O3 0.000000 0.000000 0.218720
O O4 0.283823 0.930560 0.500000
O O5 0.279612 0.890638 0.316877
O O6 0.000000 0.927787 0.383366
O O7 0.280576 0.172810 0.190133
O O8 0.282387 0.105551 0.108507
O O9 0.000000 0.129299 0.213117
O O10 0.500000 0.703739 0.885647
O O11 0.250000 0.750000 0.839532
O O12 0.213812 0.705155 0.000000
O O13 0.805267 0.956063 0.000000
O O14 0.000000 0.896467 0.000000
#
# Coordination Sequence:
#
# PCOD9482533 Si02
#       6
#     8  16  16  16   4   8
#     4  10  16  20  27  41  64  94 130 166 195 229
#     4   9  16  23  30  42  64  97 133 164 193 230
#     4   9  15  23  35  49  69  97 129 163 196 235
#     4   9  16  26  41  61  83 106 131 164 207 250
#     4  12  17  18  28  46  68  98 131 162 199 236
#     4  10  15  20  29  45  68  95 128 161 194 230
#
# _framework density 20.461887999999998
#
# number of rings (size 3 to 8) (size 9 to 14) (size 15 to 20)
#    0.000    2.588    3.529    1.412    0.000    1.412 
#    0.000    0.000    0.000    0.706    0.000    0.000 
#    0.000    0.000    0.000    5.294    0.000    8.941 
#
# Total GULP energy -189428.356089 kJ/mol
# GULP energy per Si atom -5571.422238 kJ/mol
# Density = 2.041532 g / cm^3
# Si number density = 20.461888 Si / 1000 Ang^3
#
#
#
# Elastic Constant Matrix: (Units=GPa)
#
#
# Indices 1 2 3 4 5 6 
#
# 1 68.5618 8.8247 14.0991 0.0000 0.0000 0.0000
# 2 8.8247 183.4118 94.1590 0.0000 0.0000 0.0000
# 3 14.0991 94.1590 188.5961 0.0000 0.0000 0.0000
# 4 0.0000 0.0000 0.0000 12.2024 0.0000 0.0000
# 5 0.0000 0.0000 0.0000 0.0000 -16.6950 0.0000
# 6 0.0000 0.0000 0.0000 0.0000 0.0000 17.6086
#
#
#
# Elastic Compliance Matrix: (Units=1/GPa)
#
#
# Indices 1 2 3 4 5 6 
#
# 1 0.014818 -0.000194 -0.001011 0.000000 0.000000 0.000000
# 2 -0.000194 0.007334 -0.003647 0.000000 0.000000 0.000000
# 3 -0.001011 -0.003647 0.007199 0.000000 0.000000 0.000000
# 4 0.000000 0.000000 0.000000 0.081951 0.000000 0.000000
# 5 0.000000 0.000000 0.000000 0.000000 -0.059898 0.000000
# 6 0.000000 0.000000 0.000000 0.000000 0.000000 0.056790
#
#
# Mechanical properties :
#
#
# Convention : Reuss Voigt Hill
#
# Bulk Modulus (GPa) = 50.89849 74.97059 62.93454
# Shear Modulus (GPa) = 40.17786 24.18901 32.18344
#
# Velocity S-wave (km/s) = 4.43600 3.44197 3.97022
# Velocity P-wave (km/s) = 7.15306 7.24672 7.20004
#
# Compressibility (1/GPa) = 0.01964695
#
# Stress axis : x y z
#
# Youngs Moduli (GPa) = 67.48444 136.35452 138.91348
#
# Poissons Ratio (x) = 0.02645 0.14043
# Poissons Ratio (y) = 0.01309 0.50662
# Poissons Ratio (z) = 0.06822 0.49729
#
# Static dielectric constant tensor:
#      x y z
#    x 1.819540 0.000000 0.000000 
#    y 0.000000 1.715090 0.000000 
#    z 0.000000 0.000000 1.690700 
# 
# From -- ./inp_files/22741.got.cif
#   From: 2010.05.17/outbox.cif.g08.bks.cpg/sg65_12_cif.got.tgz:22741.got - 2010.06.03 17:01:31.
