data_PCOD9482504
_publ_section_title
;
Structure prediction by ZEFSAII (Michael W. Deem and Ramdas Pophale) SiO2 
 PCOD9482504
Probable space group: C M C A
;
_chemical_formula_sum "Si O2"
_cell_formula_units_Z 44
_cell_length_a 30.000000
_cell_length_b 9.000000
_cell_length_c 18.000000
_cell_angle_alpha 90.000000
_cell_angle_beta 90.000000
_cell_angle_gamma 90.000000
_cell_volume 4860.000000
_symmetry_space_group_name_H-M "C M C A"
_symmetry_group_IT_number 64
_symmetry_cell_setting 'orthorhombic'
loop_
_space_group_symop_operation_xyz
x,y,z
-x,1/2-y,1/2+z
x,-y,-z
-x,1/2+y,1/2-z
-x,-y,-z
x,1/2+y,1/2-z
-x,y,z
x,1/2-y,1/2+z
1/2+x,1/2+y,z
1/2-x,-y,1/2+z
1/2+x,1/2-y,-z
1/2-x,y,1/2-z
1/2-x,1/2-y,-z
1/2+x,y,1/2-z
1/2-x,1/2+y,z
1/2+x,-y,1/2+z
loop_
_atom_site_type_symbol
_atom_site_label
_atom_site_fract_x
_atom_site_fract_y
_atom_site_fract_z
Si Si1 0.586937 0.744114 0.034512
Si Si2 0.192225 0.387212 0.308131
Si Si3 0.000000 0.814978 0.365162
Si Si4 0.284476 0.456619 0.654860
Si Si5 0.407743 0.067411 0.619962
Si Si6 0.000000 0.513770 0.709736
Si Si7 0.660174 0.500000 0.500000
O O1 0.543429 0.812564 0.078691
O O2 0.597535 0.598434 0.084900
O O3 0.581174 0.676310 0.950501
O O4 0.626833 0.863927 0.023489
O O5 0.231979 0.490084 0.345603
O O6 0.193907 0.441410 0.221390
O O7 0.141058 0.399434 0.341107
O O8 0.208343 0.215870 0.319931
O O9 0.000000 0.660517 0.316507
O O10 0.000000 0.940551 0.298378
O O11 0.308862 0.472502 0.573974
O O12 0.452363 0.070732 0.673195
#
# Coordination Sequence:
#
# PCOD9482504 Si02
#       7
#    16  16   8  16  16   8   8
#     4  10  23  42  63  97 131 181 217 281 337 394
#     4  11  24  45  69  96 136 184 221 285 336 403
#     4  10  23  42  66  96 140 173 224 279 334 400
#     4  11  26  43  67 101 134 175 231 278 340 402
#     4  10  22  43  69  92 135 181 226 266 342 401
#     4  10  23  39  66 106 124 178 226 270 323 414
#     4  12  26  41  66 104 134 171 234 282 332 408
#
# _framework density 9.0534979999999994
#
# number of rings (size 3 to 8) (size 9 to 14) (size 15 to 20)
#    0.000    1.455    1.818    2.727    7.636    7.636 
#    0.000    0.000    0.000    0.000    0.000    0.000 
#    0.000    0.000    0.000    0.000    0.000    0.000 
#
# Total GULP energy -245139.973562 kJ/mol
# GULP energy per Si atom -5571.363036 kJ/mol
# Density = 0.903289 g / cm^3
# Si number density = 9.053498 Si / 1000 Ang^3
#
#
#
# Elastic Constant Matrix: (Units=GPa)
#
#
# Indices 1 2 3 4 5 6 
#
# 1 166.1373 39.3261 76.0718 0.0000 0.0000 0.0000
# 2 39.3261 97.6128 39.7893 0.0000 0.0000 0.0000
# 3 76.0718 39.7893 154.0966 0.0000 0.0000 0.0000
# 4 0.0000 0.0000 0.0000 36.2430 0.0000 0.0000
# 5 0.0000 0.0000 0.0000 0.0000 54.9500 0.0000
# 6 0.0000 0.0000 0.0000 0.0000 0.0000 36.3891
#
#
#
# Elastic Compliance Matrix: (Units=1/GPa)
#
#
# Indices 1 2 3 4 5 6 
#
# 1 0.008055 -0.001815 -0.003508 0.000000 0.000000 0.000000
# 2 -0.001815 0.011859 -0.002166 0.000000 0.000000 0.000000
# 3 -0.003508 -0.002166 0.008780 0.000000 0.000000 0.000000
# 4 0.000000 0.000000 0.000000 0.027592 0.000000 0.000000
# 5 0.000000 0.000000 0.000000 0.000000 0.018198 0.000000
# 6 0.000000 0.000000 0.000000 0.000000 0.000000 0.027481
#
#
# Mechanical properties :
#
#
# Convention : Reuss Voigt Hill
#
# Bulk Modulus (GPa) = 72.90652 80.91344 76.90998
# Shear Modulus (GPa) = 41.14732 43.02705 42.08719
#
# Velocity S-wave (km/s) = 4.77220 4.87998 4.82639
# Velocity P-wave (km/s) = 8.40933 8.74846 8.58057
#
# Compressibility (1/GPa) = 0.01371619
#
# Stress axis : x y z
#
# Youngs Moduli (GPa) = 124.14735 84.32565 113.89130
#
# Poissons Ratio (x) = 0.15308 0.39949
# Poissons Ratio (y) = 0.22537 0.24668
# Poissons Ratio (z) = 0.43547 0.18264
#
# Static dielectric constant tensor:
#      x y z
#    x 1.635240 0.000000 0.000000 
#    y 0.000000 1.651900 0.000000 
#    z 0.000000 0.000000 1.630370 
# 
# From -- ./inp_files/35734.got.cif
#   From: 2010.05.17/outbox.ucp.g08.bks.cvg/sg64_18_cif.got.tgz:35734.got - 2010.06.11 16:36:46.
