data_PCOD9482059
_publ_section_title
;
Structure prediction by ZEFSAII (Michael W. Deem and Ramdas Pophale) SiO2 
 PCOD9482059
Probable space group: C M C A
;
_chemical_formula_sum "Si O2"
_cell_formula_units_Z 64
_cell_length_a 15.857802
_cell_length_b 12.045384
_cell_length_c 14.691170
_cell_angle_alpha 90.000000
_cell_angle_beta 90.000000
_cell_angle_gamma 90.000000
_cell_volume 2806.209075
_symmetry_space_group_name_H-M "C M C A"
_symmetry_group_IT_number 64
_symmetry_cell_setting 'orthorhombic'
loop_
_space_group_symop_operation_xyz
x,y,z
-x,1/2-y,1/2+z
x,-y,-z
-x,1/2+y,1/2-z
-x,-y,-z
x,1/2+y,1/2-z
-x,y,z
x,1/2-y,1/2+z
1/2+x,1/2+y,z
1/2-x,-y,1/2+z
1/2+x,1/2-y,-z
1/2-x,y,1/2-z
1/2-x,1/2-y,-z
1/2+x,y,1/2-z
1/2-x,1/2+y,z
1/2+x,-y,1/2+z
loop_
_atom_site_type_symbol
_atom_site_label
_atom_site_fract_x
_atom_site_fract_y
_atom_site_fract_z
Si Si1 0.670273 0.535236 0.409096
Si Si2 0.653479 0.122251 0.495069
Si Si3 0.406634 0.677874 0.635635
Si Si4 0.163864 0.248549 0.811769
O O1 0.621308 0.500000 0.500000
O O2 0.757781 0.589372 0.445566
O O3 0.666016 0.416584 0.362575
O O4 0.637285 0.629648 0.345300
O O5 0.614876 0.219856 0.432358
O O6 0.665880 0.173169 0.596424
O O7 0.609917 0.000000 0.500000
O O8 0.500000 0.636427 0.613118
O O9 0.405235 0.713441 0.739812
O O10 0.250000 0.257463 0.750000
#
# Coordination Sequence:
#
# PCOD9482059 Si02
#       4
#    16  16  16  16
#     4  11  23  45  75 104 142 192 245 297 355 432
#     4  11  25  47  77 106 148 190 249 301 365 429
#     4  12  29  49  71 112 154 192 240 301 375 436
#     4  12  24  45  77 110 144 194 249 304 354 436
#
# _framework density 22.806569
#
# number of rings (size 3 to 8) (size 9 to 14) (size 15 to 20)
#    0.000    0.500    5.000    3.750    3.500    4.000 
#    0.000    0.000    0.000    0.000    0.000    0.000 
#    0.000    0.000    0.000    0.000    0.000    0.000 
#
# Total GULP energy -178178.395270 kJ/mol
# GULP energy per Si atom -5568.074852 kJ/mol
# Density = 2.275466 g / cm^3
# Si number density = 22.806569 Si / 1000 Ang^3
#
#
#
# Elastic Constant Matrix: (Units=GPa)
#
#
# Indices 1 2 3 4 5 6 
#
# 1 86.1479 30.7283 35.5862 0.0000 0.0000 0.0000
# 2 30.7283 172.5336 72.3301 0.0000 0.0000 0.0000
# 3 35.5862 72.3301 139.5590 0.0000 0.0000 0.0000
# 4 0.0000 0.0000 0.0000 60.7163 0.0000 0.0000
# 5 0.0000 0.0000 0.0000 0.0000 -7.7313 0.0000
# 6 0.0000 0.0000 0.0000 0.0000 0.0000 19.6250
#
#
#
# Elastic Compliance Matrix: (Units=1/GPa)
#
#
# Indices 1 2 3 4 5 6 
#
# 1 0.013165 -0.001198 -0.002736 0.000000 0.000000 0.000000
# 2 -0.001198 0.007514 -0.003589 0.000000 0.000000 0.000000
# 3 -0.002736 -0.003589 0.009723 0.000000 0.000000 0.000000
# 4 0.000000 0.000000 0.000000 0.016470 0.000000 0.000000
# 5 0.000000 0.000000 0.000000 0.000000 -0.129345 0.000000
# 6 0.000000 0.000000 0.000000 0.000000 0.000000 0.050955
#
#
# Mechanical properties :
#
#
# Convention : Reuss Voigt Hill
#
# Bulk Modulus (GPa) = 65.11777 75.05885 70.08831
# Shear Modulus (GPa) = -440.43169 31.82841 -204.30164
#
# Velocity S-wave (km/s) = -13.91170 3.73980 -9.47495
# Velocity P-wave (km/s) = 15.14705 7.18545 9.42874
#
# Compressibility (1/GPa) = 0.01535679
#
# Stress axis : x y z
#
# Youngs Moduli (GPa) = 75.95625 133.08864 102.84700
#
# Poissons Ratio (x) = 0.15939 0.28143
# Poissons Ratio (y) = 0.09097 0.36910
# Poissons Ratio (z) = 0.20784 0.47763
#
# Static dielectric constant tensor:
#      x y z
#    x 1.881670 0.000000 0.000000 
#    y 0.000000 2.125580 0.000000 
#    z 0.000000 0.000000 1.787280 
# 
# From -- ./inp_files/24896.got.cif
#   From: 2010.05.17/outbox.cif.g08.bks.cpg/sg64_13_cif.got.tgz:24896.got - 2010.06.03 16:29:19.
