data_PCOD9482143
_publ_section_title
;
Structure prediction by ZEFSAII (Michael W. Deem and Ramdas Pophale) SiO2 
 PCOD9482143
Probable space group: C M C A
;
_chemical_formula_sum "Si O2"
_cell_formula_units_Z 64
_cell_length_a 22.703259
_cell_length_b 10.364325
_cell_length_c 13.567787
_cell_angle_alpha 90.000000
_cell_angle_beta 90.000000
_cell_angle_gamma 90.000000
_cell_volume 3192.553939
_symmetry_space_group_name_H-M "C M C A"
_symmetry_group_IT_number 64
_symmetry_cell_setting 'orthorhombic'
loop_
_space_group_symop_operation_xyz
x,y,z
-x,1/2-y,1/2+z
x,-y,-z
-x,1/2+y,1/2-z
-x,-y,-z
x,1/2+y,1/2-z
-x,y,z
x,1/2-y,1/2+z
1/2+x,1/2+y,z
1/2-x,-y,1/2+z
1/2+x,1/2-y,-z
1/2-x,y,1/2-z
1/2-x,1/2-y,-z
1/2+x,y,1/2-z
1/2-x,1/2+y,z
1/2+x,-y,1/2+z
loop_
_atom_site_type_symbol
_atom_site_label
_atom_site_fract_x
_atom_site_fract_y
_atom_site_fract_z
Si Si1 0.837353 0.778490 0.570949
Si Si2 0.207346 0.222468 0.642585
Si Si3 0.931431 0.436075 0.391446
Si Si4 0.661257 0.530479 0.257509
O O1 0.832967 0.792347 0.453971
O O2 0.774290 0.716336 0.602762
O O3 0.892320 0.691259 0.599440
O O4 0.843846 0.906209 0.635148
O O5 0.196739 0.363699 0.691376
O O6 0.189414 0.108755 0.717569
O O7 0.926653 0.500000 0.500000
O O8 0.898868 0.513642 0.304116
O O9 0.000000 0.415767 0.370132
#
# Coordination Sequence:
#
# PCOD9482143 Si02
#       4
#    16  16  16  16
#     4  11  25  43  68 101 143 176 228 284 348 411
#     4  11  26  41  70 105 141 174 223 290 354 409
#     4  11  25  45  69  97 138 186 228 278 346 414
#     4  12  24  43  68 102 135 180 228 280 342 410
#
# _framework density 20.046645999999999
#
# number of rings (size 3 to 8) (size 9 to 14) (size 15 to 20)
#    0.000    0.750    5.000    1.500    7.000    1.000 
#    0.000    1.250    0.000    3.000    0.000    0.000 
#    0.000    0.000    0.000    0.000    0.000    0.000 
#
# Total GULP energy -178648.774030 kJ/mol
# GULP energy per Si atom -5582.774188 kJ/mol
# Density = 2.000102 g / cm^3
# Si number density = 20.046646 Si / 1000 Ang^3
#
#
#
# Elastic Constant Matrix: (Units=GPa)
#
#
# Indices 1 2 3 4 5 6 
#
# 1 144.5912 46.6875 38.8177 0.0000 0.0000 0.0000
# 2 46.6875 79.9860 44.4669 0.0000 0.0000 0.0000
# 3 38.8177 44.4669 146.8670 0.0000 0.0000 0.0000
# 4 0.0000 0.0000 0.0000 40.9614 0.0000 0.0000
# 5 0.0000 0.0000 0.0000 0.0000 32.0107 0.0000
# 6 0.0000 0.0000 0.0000 0.0000 0.0000 13.2254
#
#
#
# Elastic Compliance Matrix: (Units=1/GPa)
#
#
# Indices 1 2 3 4 5 6 
#
# 1 0.008622 -0.004528 -0.000908 0.000000 0.000000 0.000000
# 2 -0.004528 0.017410 -0.004075 0.000000 0.000000 0.000000
# 3 -0.000908 -0.004075 0.008283 0.000000 0.000000 0.000000
# 4 0.000000 0.000000 0.000000 0.024413 0.000000 0.000000
# 5 0.000000 0.000000 0.000000 0.000000 0.031240 0.000000
# 6 0.000000 0.000000 0.000000 0.000000 0.000000 0.075612
#
#
# Mechanical properties :
#
#
# Convention : Reuss Voigt Hill
#
# Bulk Modulus (GPa) = 65.38512 70.15428 67.76970
# Shear Modulus (GPa) = 26.35773 33.33763 29.84768
#
# Velocity S-wave (km/s) = 3.62998 4.08242 3.86283
# Velocity P-wave (km/s) = 7.08917 7.56921 7.33312
#
# Compressibility (1/GPa) = 0.01529400
#
# Stress axis : x y z
#
# Youngs Moduli (GPa) = 115.98543 57.43754 120.73635
#
# Poissons Ratio (x) = 0.26006 0.10962
# Poissons Ratio (y) = 0.52515 0.49195
# Poissons Ratio (z) = 0.10530 0.23403
#
# Static dielectric constant tensor:
#      x y z
#    x 1.683760 0.000000 0.000000 
#    y 0.000000 1.750120 0.000000 
#    z 0.000000 0.000000 1.781710 
# 
# From -- ./inp_files/26914.got.cif
#   From: 2010.05.17/outbox.cif.g08.bks.cpg/sg64_14_cif.got.tgz:26914.got - 2010.06.03 16:29:19.
