data_PCOD9482852
_publ_section_title
;
Structure prediction by ZEFSAII (Michael W. Deem and Ramdas Pophale) SiO2 
 PCOD9482852
Probable space group: C M M M
;
_chemical_formula_sum "Si O2"
_cell_formula_units_Z 96
_cell_length_a 23.215153
_cell_length_b 26.583330
_cell_length_c 11.953915
_cell_angle_alpha 90.000000
_cell_angle_beta 90.000000
_cell_angle_gamma 90.000000
_cell_volume 7377.192162
_symmetry_space_group_name_H-M "C M M M"
_symmetry_group_IT_number 65
_symmetry_cell_setting 'orthorhombic'
loop_
_space_group_symop_operation_xyz
x,y,z
-x,-y,z
x,-y,-z
-x,y,-z
-x,-y,-z
x,y,-z
-x,y,z
x,-y,z
1/2+x,1/2+y,z
1/2-x,1/2-y,z
1/2+x,1/2-y,-z
1/2-x,1/2+y,-z
1/2-x,1/2-y,-z
1/2+x,1/2+y,-z
1/2-x,1/2+y,z
1/2+x,1/2-y,z
loop_
_atom_site_type_symbol
_atom_site_label
_atom_site_fract_x
_atom_site_fract_y
_atom_site_fract_z
Si Si1 0.616384 0.740554 0.259083
Si Si2 0.237577 0.833403 0.500000
Si Si3 0.198086 0.141526 0.260323
Si Si4 0.373964 0.440950 0.132889
Si Si5 0.709367 0.799622 0.126614
Si Si6 0.153435 0.735813 0.500000
Si Si7 0.000000 0.090824 0.131690
Si Si8 0.000000 0.211745 0.133552
O O1 0.652197 0.687889 0.255127
O O2 0.653745 0.782023 0.193751
O O3 0.616086 0.758316 0.387873
O O4 0.556428 0.731999 0.196631
O O5 0.220165 0.862475 0.612465
O O6 0.197586 0.783236 0.500000
O O7 0.303262 0.812264 0.500000
O O8 0.168089 0.093532 0.205485
O O9 0.253060 0.158668 0.188210
O O10 0.361339 0.500000 0.141105
O O11 0.439569 0.430927 0.173725
O O12 0.370603 0.426564 0.000000
O O13 0.750000 0.750000 0.124455
O O14 0.695754 0.813702 0.000000
O O15 0.000000 0.150986 0.143410
O O16 0.000000 0.078034 0.000000
O O17 0.000000 0.223244 0.000000
#
# Coordination Sequence:
#
# PCOD9482852 Si02
#       8
#    16   8  16  16  16   8   8   8
#     4  10  18  28  42  60  85 113 146 181 217 260
#     4   9  16  28  45  62  80 107 138 180 223 266
#     4  10  17  28  44  62  81 109 143 185 227 266
#     4  10  19  30  45  64  85 112 150 194 234 268
#     4   9  16  24  39  61  83 105 134 174 223 272
#     4   9  16  29  44  60  81 109 145 179 214 262
#     4   9  17  30  44  57  81 117 154 190 228 262
#     4  11  20  28  41  62  90 119 149 187 223 258
#
# _framework density 13.013081
#
# number of rings (size 3 to 8) (size 9 to 14) (size 15 to 20)
#    0.000    2.333    3.333    1.250    0.000    2.667 
#    0.000    0.417    0.000    0.500    0.000    1.167 
#    0.000    0.000    0.000    0.750    0.000   10.167 
#
# Total GULP energy -267289.623444 kJ/mol
# GULP energy per Si atom -5568.533822 kJ/mol
# Density = 1.298346 g / cm^3
# Si number density = 13.013081 Si / 1000 Ang^3
#
#
#
# Elastic Constant Matrix: (Units=GPa)
#
#
# Indices 1 2 3 4 5 6 
#
# 1 63.0545 32.6909 49.7540 0.0000 0.0000 0.0000
# 2 32.6909 49.7533 39.5731 0.0000 0.0000 0.0000
# 3 49.7540 39.5731 125.3912 0.0000 0.0000 0.0000
# 4 0.0000 0.0000 0.0000 15.0411 0.0000 0.0000
# 5 0.0000 0.0000 0.0000 0.0000 19.7193 0.0000
# 6 0.0000 0.0000 0.0000 0.0000 0.0000 8.2078
#
#
#
# Elastic Compliance Matrix: (Units=1/GPa)
#
#
# Indices 1 2 3 4 5 6 
#
# 1 0.028116 -0.012818 -0.007111 0.000000 0.000000 0.000000
# 2 -0.012818 0.032679 -0.005227 0.000000 0.000000 0.000000
# 3 -0.007111 -0.005227 0.012446 0.000000 0.000000 0.000000
# 4 0.000000 0.000000 0.000000 0.066484 0.000000 0.000000
# 5 0.000000 0.000000 0.000000 0.000000 0.050712 0.000000
# 6 0.000000 0.000000 0.000000 0.000000 0.000000 0.121835
#
#
# Mechanical properties :
#
#
# Convention : Reuss Voigt Hill
#
# Bulk Modulus (GPa) = 43.61301 53.58168 48.59734
# Shear Modulus (GPa) = 13.50521 16.33904 14.92213
#
# Velocity S-wave (km/s) = 3.22501 3.54727 3.38997
# Velocity P-wave (km/s) = 6.88877 7.61854 7.26282
#
# Compressibility (1/GPa) = 0.02292894
#
# Stress axis : x y z
#
# Youngs Moduli (GPa) = 35.56742 30.60055 80.34540
#
# Poissons Ratio (x) = 0.39224 0.57131
# Poissons Ratio (y) = 0.45590 0.42000
# Poissons Ratio (z) = 0.25291 0.15996
#
# Static dielectric constant tensor:
#      x y z
#    x 1.416500 0.000000 0.000000 
#    y 0.000000 1.398490 0.000000 
#    z 0.000000 0.000000 1.444010 
# 
# From -- ./inp_files/29569.got.cif
#   From: 2010.05.17/outbox.cif.g08.bks.cpg/sg65_15_cif.got.tgz:29569.got - 2010.06.03 17:01:31.
