data_PCOD9482685
_publ_section_title
;
Structure prediction by ZEFSAII (Michael W. Deem and Ramdas Pophale) SiO2 
 PCOD9482685
Probable space group: C M M M
;
_chemical_formula_sum "Si O2"
_cell_formula_units_Z 68
_cell_length_a 12.626042
_cell_length_b 30.056474
_cell_length_c 11.440201
_cell_angle_alpha 90.000000
_cell_angle_beta 90.000000
_cell_angle_gamma 90.000000
_cell_volume 4341.491106
_symmetry_space_group_name_H-M "C M M M"
_symmetry_group_IT_number 65
_symmetry_cell_setting 'orthorhombic'
loop_
_space_group_symop_operation_xyz
x,y,z
-x,-y,z
x,-y,-z
-x,y,-z
-x,-y,-z
x,y,-z
-x,y,z
x,-y,z
1/2+x,1/2+y,z
1/2-x,1/2-y,z
1/2+x,1/2-y,-z
1/2-x,1/2+y,-z
1/2-x,1/2-y,-z
1/2+x,1/2+y,-z
1/2-x,1/2+y,z
1/2+x,1/2-y,z
loop_
_atom_site_type_symbol
_atom_site_label
_atom_site_fract_x
_atom_site_fract_y
_atom_site_fract_z
Si Si1 0.123117 0.500000 0.274505
Si Si2 0.250000 0.250000 0.693662
Si Si3 0.373928 0.693736 0.500000
Si Si4 0.625373 0.902908 0.733194
Si Si5 0.372848 0.814177 0.867097
Si Si6 0.772680 0.000000 0.500000
Si Si7 0.231266 0.901555 0.500000
O O1 0.141069 0.547526 0.214323
O O2 0.197114 0.500000 0.387380
O O3 0.000000 0.500000 0.311950
O O4 0.320626 0.281745 0.611034
O O5 0.322537 0.219897 0.776417
O O6 0.500000 0.699473 0.500000
O O7 0.343162 0.641589 0.500000
O O8 0.500000 0.898419 0.704337
O O9 0.652974 0.863778 0.822023
O O10 0.693987 0.899109 0.615043
O O11 0.500000 0.809788 0.865429
O O12 0.336134 0.807161 0.000000
O O13 0.824386 0.049363 0.500000
#
# Coordination Sequence:
#
# PCOD9482685 Si02
#       7
#     8   8   8  16  16   4   8
#     4   8  13  22  39  65  98 128 155 188 226 279
#     4  11  21  38  52  68  95 131 160 190 248 287
#     4  11  23  35  52  75  97 119 156 204 245 293
#     4   9  16  27  45  71  99 128 159 191 234 286
#     4  10  20  33  50  72  97 127 164 199 230 276
#     4   8  15  22  45  66  94 124 156 186 230 302
#     4  10  16  31  46  72  97 126 155 194 247 284
#
# _framework density 15.662820999999999
#
# number of rings (size 3 to 8) (size 9 to 14) (size 15 to 20)
#    0.000    2.353    2.353    1.588    0.000    2.824 
#    0.000    0.882    0.000    3.529    0.000    0.000 
#    0.000    0.000    0.000    8.471    0.000    0.235 
#
# Total GULP energy -189273.878455 kJ/mol
# GULP energy per Si atom -5566.878778 kJ/mol
# Density = 1.562717 g / cm^3
# Si number density = 15.662821 Si / 1000 Ang^3
#
#
#
# Elastic Constant Matrix: (Units=GPa)
#
#
# Indices 1 2 3 4 5 6 
#
# 1 40.5510 36.7297 27.6902 0.0000 0.0000 0.0000
# 2 36.7297 148.4003 56.4406 0.0000 0.0000 0.0000
# 3 27.6902 56.4406 92.7460 0.0000 0.0000 0.0000
# 4 0.0000 0.0000 0.0000 2.7599 0.0000 0.0000
# 5 0.0000 0.0000 0.0000 0.0000 17.3673 0.0000
# 6 0.0000 0.0000 0.0000 0.0000 0.0000 23.4530
#
#
#
# Elastic Compliance Matrix: (Units=1/GPa)
#
#
# Indices 1 2 3 4 5 6 
#
# 1 0.034699 -0.006048 -0.006679 0.000000 0.000000 0.000000
# 2 -0.006048 0.009822 -0.004171 0.000000 0.000000 0.000000
# 3 -0.006679 -0.004171 0.015315 0.000000 0.000000 0.000000
# 4 0.000000 0.000000 0.000000 0.362334 0.000000 0.000000
# 5 0.000000 0.000000 0.000000 0.000000 0.057580 0.000000
# 6 0.000000 0.000000 0.000000 0.000000 0.000000 0.042639
#
#
# Mechanical properties :
#
#
# Convention : Reuss Voigt Hill
#
# Bulk Modulus (GPa) = 38.40444 58.15759 48.28102
# Shear Modulus (GPa) = 8.85167 19.43847 14.14507
#
# Velocity S-wave (km/s) = 2.37984 3.52669 3.00842
# Velocity P-wave (km/s) = 5.66783 7.33450 6.55436
#
# Compressibility (1/GPa) = 0.02603865
#
# Stress axis : x y z
#
# Youngs Moduli (GPa) = 28.81901 101.81291 65.29599
#
# Poissons Ratio (x) = 0.61575 0.43614
# Poissons Ratio (y) = 0.17429 0.27238
# Poissons Ratio (z) = 0.19249 0.42471
#
# Static dielectric constant tensor:
#      x y z
#    x 1.491840 0.000000 0.000000 
#    y 0.000000 1.569960 0.000000 
#    z 0.000000 0.000000 1.493640 
# 
# From -- ./inp_files/22584.got.cif
#   From: 2010.05.17/outbox.cif.g08.bks.cpg/sg65_12_cif.got.tgz:22584.got - 2010.06.03 17:01:31.
