data_PCOD9482006
_publ_section_title
;
Structure prediction by ZEFSAII (Michael W. Deem and Ramdas Pophale) SiO2 
 PCOD9482006
Probable space group: C M C A
;
_chemical_formula_sum "Si O2"
_cell_formula_units_Z 72
_cell_length_a 24.771938
_cell_length_b 9.696130
_cell_length_c 13.136918
_cell_angle_alpha 90.000000
_cell_angle_beta 90.000000
_cell_angle_gamma 90.000000
_cell_volume 3155.381704
_symmetry_space_group_name_H-M "C M C A"
_symmetry_group_IT_number 64
_symmetry_cell_setting 'orthorhombic'
loop_
_space_group_symop_operation_xyz
x,y,z
-x,1/2-y,1/2+z
x,-y,-z
-x,1/2+y,1/2-z
-x,-y,-z
x,1/2+y,1/2-z
-x,y,z
x,1/2-y,1/2+z
1/2+x,1/2+y,z
1/2-x,-y,1/2+z
1/2+x,1/2-y,-z
1/2-x,y,1/2-z
1/2-x,1/2-y,-z
1/2+x,y,1/2-z
1/2-x,1/2+y,z
1/2+x,-y,1/2+z
loop_
_atom_site_type_symbol
_atom_site_label
_atom_site_fract_x
_atom_site_fract_y
_atom_site_fract_z
Si Si1 0.843906 0.283811 0.494849
Si Si2 0.559437 0.391293 0.868572
Si Si3 0.701310 0.409953 0.326175
Si Si4 0.401031 0.676119 0.797732
Si Si5 0.753488 0.500000 0.500000
O O1 0.890733 0.363171 0.556771
O O2 0.817491 0.181192 0.576564
O O3 0.874502 0.241310 0.392093
O O4 0.794535 0.381466 0.465916
O O5 0.500000 0.362202 0.912331
O O6 0.570226 0.284473 0.776112
O O7 0.562189 0.550339 0.834982
O O8 0.750000 0.370039 0.250000
O O9 0.647835 0.406061 0.258648
O O10 0.722602 0.538529 0.394706
#
# Coordination Sequence:
#
# PCOD9482006 Si02
#       5
#    16  16  16  16   8
#     4  11  23  42  63  94 130 171 232 269 325 404
#     4  11  24  43  68  94 129 172 224 284 338 389
#     4  11  24  38  64  96 136 175 213 273 329 394
#     4  11  24  43  65  98 129 174 223 275 331 405
#     4  12  22  40  63  96 129 180 210 264 328 404
#
# _framework density 22.818158
#
# number of rings (size 3 to 8) (size 9 to 14) (size 15 to 20)
#    0.000    0.889    4.444    1.333    3.111    5.333 
#    0.000    0.000    0.000    4.000    0.000    0.000 
#    0.000    0.000    0.000    0.000    0.000    0.000 
#
# Total GULP energy -200819.187077 kJ/mol
# GULP energy per Si atom -5578.310752 kJ/mol
# Density = 2.276622 g / cm^3
# Si number density = 22.818158 Si / 1000 Ang^3
#
#
#
# Elastic Constant Matrix: (Units=GPa)
#
#
# Indices 1 2 3 4 5 6 
#
# 1 131.1561 15.9832 35.4336 0.0000 0.0000 0.0000
# 2 15.9832 34.4122 14.9802 0.0000 0.0000 0.0000
# 3 35.4336 14.9802 124.5525 0.0000 0.0000 0.0000
# 4 0.0000 0.0000 0.0000 40.4699 0.0000 0.0000
# 5 0.0000 0.0000 0.0000 0.0000 21.3460 0.0000
# 6 0.0000 0.0000 0.0000 0.0000 0.0000 26.6683
#
#
#
# Elastic Compliance Matrix: (Units=1/GPa)
#
#
# Indices 1 2 3 4 5 6 
#
# 1 0.008557 -0.003076 -0.002064 0.000000 0.000000 0.000000
# 2 -0.003076 0.031771 -0.002946 0.000000 0.000000 0.000000
# 3 -0.002064 -0.002946 0.008970 0.000000 0.000000 0.000000
# 4 0.000000 0.000000 0.000000 0.024710 0.000000 0.000000
# 5 0.000000 0.000000 0.000000 0.000000 0.046847 0.000000
# 6 0.000000 0.000000 0.000000 0.000000 0.000000 0.037498
#
#
# Mechanical properties :
#
#
# Convention : Reuss Voigt Hill
#
# Bulk Modulus (GPa) = 30.18835 46.99054 38.58944
# Shear Modulus (GPa) = 26.94446 32.61176 29.77811
#
# Velocity S-wave (km/s) = 3.44005 3.78458 3.61642
# Velocity P-wave (km/s) = 5.38863 6.30362 5.86400
#
# Compressibility (1/GPa) = 0.03312536
#
# Stress axis : x y z
#
# Youngs Moduli (GPa) = 116.86253 31.47574 111.47791
#
# Poissons Ratio (x) = 0.09681 0.23014
# Poissons Ratio (y) = 0.35944 0.32843
# Poissons Ratio (z) = 0.24126 0.09273
#
# Static dielectric constant tensor:
#      x y z
#    x 1.860980 0.000000 0.000000 
#    y 0.000000 1.921950 0.000000 
#    z 0.000000 0.000000 1.849400 
# 
# From -- ./inp_files/18926.got.cif
#   From: 2010.05.17/outbox.cif.g08.bks.cpg/sg64_10_cif.got.tgz:18926.got - 2010.06.03 16:29:19.
