data_PCOD9482737
_publ_section_title
;
Structure prediction by ZEFSAII (Michael W. Deem and Ramdas Pophale) SiO2 
 PCOD9482737
Probable space group: C M M M
;
_chemical_formula_sum "Si O2"
_cell_formula_units_Z 112
_cell_length_a 23.394319
_cell_length_b 30.506262
_cell_length_c 7.410156
_cell_angle_alpha 90.000000
_cell_angle_beta 90.000000
_cell_angle_gamma 90.000000
_cell_volume 5288.429928
_symmetry_space_group_name_H-M "C M M M"
_symmetry_group_IT_number 65
_symmetry_cell_setting 'orthorhombic'
loop_
_space_group_symop_operation_xyz
x,y,z
-x,-y,z
x,-y,-z
-x,y,-z
-x,-y,-z
x,y,-z
-x,y,z
x,-y,z
1/2+x,1/2+y,z
1/2-x,1/2-y,z
1/2+x,1/2-y,-z
1/2-x,1/2+y,-z
1/2-x,1/2-y,-z
1/2+x,1/2+y,-z
1/2-x,1/2+y,z
1/2+x,1/2-y,z
loop_
_atom_site_type_symbol
_atom_site_label
_atom_site_fract_x
_atom_site_fract_y
_atom_site_fract_z
Si Si1 0.332285 0.892818 0.784157
Si Si2 0.198279 0.701315 0.286727
Si Si3 0.936844 0.449644 0.779845
Si Si4 0.327950 0.297850 0.720205
Si Si5 0.230029 0.048967 0.219254
Si Si6 0.401610 0.548817 0.217880
Si Si7 0.562677 0.353401 0.712410
O O1 0.337345 0.841880 0.746096
O O2 0.385867 0.919759 0.714408
O O3 0.273272 0.914102 0.715380
O O4 0.330864 0.898240 0.000000
O O5 0.205131 0.707631 0.500000
O O6 0.262927 0.691305 0.218472
O O7 0.169557 0.746532 0.223815
O O8 0.928450 0.500000 0.726485
O O9 0.000000 0.435384 0.723307
O O10 0.936213 0.449090 0.000000
O O11 0.328731 0.300850 0.500000
O O12 0.380426 0.328411 0.784327
O O13 0.164546 0.053512 0.277817
O O14 0.250457 0.000000 0.268174
O O15 0.228393 0.050411 0.000000
O O16 0.421894 0.500000 0.277094
O O17 0.431549 0.593884 0.271460
O O18 0.402984 0.547875 0.000000
O O19 0.561455 0.343163 0.500000
O O20 0.500000 0.340695 0.787309
#
# Coordination Sequence:
#
# PCOD9482737 Si02
#       7
#    16  16  16  16  16  16  16
#     4  10  17  25  43  71  95 113 143 190 232 261
#     4   9  17  31  51  69  88 116 146 179 224 277
#     4   8  14  25  41  61  87 122 159 186 211 255
#     4   8  16  33  52  67  86 117 153 182 216 268
#     4   8  14  25  42  65  92 121 151 183 221 263
#     4   9  18  32  48  67  94 125 152 179 217 267
#     4  10  20  33  50  70  90 115 151 192 224 252
#
# _framework density 21.178308999999999
#
# number of rings (size 3 to 8) (size 9 to 14) (size 15 to 20)
#    0.000    3.143    0.000    3.429    0.000    2.571 
#    0.000    4.286    0.000    3.857    0.000    1.000 
#    0.000    0.000    0.000    0.000    0.000    0.000 
#
# Total GULP energy -312229.614997 kJ/mol
# GULP energy per Si atom -5575.528839 kJ/mol
# Density = 2.113011 g / cm^3
# Si number density = 21.178309 Si / 1000 Ang^3
#
#
#
# Elastic Constant Matrix: (Units=GPa)
#
#
# Indices 1 2 3 4 5 6 
#
# 1 104.6787 71.6982 3.2940 0.0000 0.0000 0.0000
# 2 71.6982 104.0312 -5.3161 0.0000 0.0000 0.0000
# 3 3.2940 -5.3161 67.3039 0.0000 0.0000 0.0000
# 4 0.0000 0.0000 0.0000 18.2239 0.0000 0.0000
# 5 0.0000 0.0000 0.0000 0.0000 1.1548 0.0000
# 6 0.0000 0.0000 0.0000 0.0000 0.0000 24.5426
#
#
#
# Elastic Compliance Matrix: (Units=1/GPa)
#
#
# Indices 1 2 3 4 5 6 
#
# 1 0.018334 -0.012733 -0.001903 0.000000 0.000000 0.000000
# 2 -0.012733 0.018495 0.002084 0.000000 0.000000 0.000000
# 3 -0.001903 0.002084 0.015116 0.000000 0.000000 0.000000
# 4 0.000000 0.000000 0.000000 0.054873 0.000000 0.000000
# 5 0.000000 0.000000 0.000000 0.000000 0.865938 0.000000
# 6 0.000000 0.000000 0.000000 0.000000 0.000000 0.040745
#
#
# Mechanical properties :
#
#
# Convention : Reuss Voigt Hill
#
# Bulk Modulus (GPa) = 37.25753 46.15177 41.70465
# Shear Modulus (GPa) = 4.77303 22.54013 13.65658
#
# Velocity S-wave (km/s) = 1.50287 3.26590 2.54212
# Velocity P-wave (km/s) = 4.54335 6.00507 5.32460
#
# Compressibility (1/GPa) = 0.02684021
#
# Stress axis : x y z
#
# Youngs Moduli (GPa) = 54.54223 54.06935 66.15626
#
# Poissons Ratio (x) = 0.68848 0.12590
# Poissons Ratio (y) = 0.69450 -0.13787
# Poissons Ratio (z) = 0.10380 -0.11268
#
# Static dielectric constant tensor:
#      x y z
#    x 1.765510 0.000000 0.000000 
#    y 0.000000 1.759230 0.000000 
#    z 0.000000 0.000000 1.835580 
# 
# From -- ./inp_files/31060.got.cif
#   From: 2010.05.17/outbox.cif.g08.bks.cpg/sg65_16_cif.got.tgz:31060.got - 2010.06.03 17:01:31.
