data_PCOD9482454
_publ_section_title
;
Structure prediction by ZEFSAII (Michael W. Deem and Ramdas Pophale) SiO2 
 PCOD9482454
Probable space group: C M C A
;
_chemical_formula_sum "Si O2"
_cell_formula_units_Z 48
_cell_length_a 24.000000
_cell_length_b 12.000000
_cell_length_c 18.000000
_cell_angle_alpha 90.000000
_cell_angle_beta 90.000000
_cell_angle_gamma 90.000000
_cell_volume 5184.000000
_symmetry_space_group_name_H-M "C M C A"
_symmetry_group_IT_number 64
_symmetry_cell_setting 'orthorhombic'
loop_
_space_group_symop_operation_xyz
x,y,z
-x,1/2-y,1/2+z
x,-y,-z
-x,1/2+y,1/2-z
-x,-y,-z
x,1/2+y,1/2-z
-x,y,z
x,1/2-y,1/2+z
1/2+x,1/2+y,z
1/2-x,-y,1/2+z
1/2+x,1/2-y,-z
1/2-x,y,1/2-z
1/2-x,1/2-y,-z
1/2+x,y,1/2-z
1/2-x,1/2+y,z
1/2+x,-y,1/2+z
loop_
_atom_site_type_symbol
_atom_site_label
_atom_site_fract_x
_atom_site_fract_y
_atom_site_fract_z
Si Si1 0.211627 0.291192 0.100024
Si Si2 0.336368 0.780484 0.934391
Si Si3 0.134905 0.894976 0.829358
Si Si4 0.932301 0.110390 0.881405
Si Si5 0.153209 0.000454 0.669007
Si Si6 0.563901 0.676130 0.707712
O O1 0.278489 0.276801 0.094150
O O2 0.184914 0.175484 0.131887
O O3 0.197513 0.402256 0.147823
O O4 0.180391 0.306199 0.020178
O O5 0.390394 0.697666 0.924531
O O6 0.345514 0.895156 0.887396
O O7 0.156876 0.952018 0.753039
O O8 0.092498 0.794542 0.808880
O O9 0.100688 0.990276 0.875935
O O10 0.933113 0.153671 0.796150
O O11 0.000000 0.103472 0.903326
O O12 0.096341 0.073884 0.668863
O O13 0.500000 0.678417 0.684493
#
# Coordination Sequence:
#
# PCOD9482454 Si02
#       6
#    16  16  16  16  16  16
#     4  10  25  42  63  87 128 169 205 262 319 382
#     4  11  23  43  62  90 126 170 209 252 327 379
#     4  10  20  40  61  96 123 162 209 260 309 369
#     4  10  21  37  62  92 125 164 207 256 309 371
#     4  10  21  40  62  92 119 159 217 258 306 370
#     4   9  18  36  62  92 126 163 203 255 314 365
#
# _framework density 9.2592590000000001
#
# number of rings (size 3 to 8) (size 9 to 14) (size 15 to 20)
#    0.000    2.000    1.667    1.000    2.333    2.667 
#    3.000    5.000    0.000    5.000    0.000    0.000 
#    0.000    0.000    0.000    0.000    0.000    0.000 
#
# Total GULP energy -267632.565025 kJ/mol
# GULP energy per Si atom -5575.678438 kJ/mol
# Density = 0.923818 g / cm^3
# Si number density = 9.259259 Si / 1000 Ang^3
#
#
#
# Elastic Constant Matrix: (Units=GPa)
#
#
# Indices 1 2 3 4 5 6 
#
# 1 120.9329 38.3980 33.5926 0.0000 0.0000 0.0000
# 2 38.3980 127.4128 35.0132 0.0000 0.0000 0.0000
# 3 33.5926 35.0132 60.2635 0.0000 0.0000 0.0000
# 4 0.0000 0.0000 0.0000 32.1277 0.0000 0.0000
# 5 0.0000 0.0000 0.0000 0.0000 32.1063 0.0000
# 6 0.0000 0.0000 0.0000 0.0000 0.0000 27.6457
#
#
#
# Elastic Compliance Matrix: (Units=1/GPa)
#
#
# Indices 1 2 3 4 5 6 
#
# 1 0.010113 -0.001783 -0.004601 0.000000 0.000000 0.000000
# 2 -0.001783 0.009654 -0.004615 0.000000 0.000000 0.000000
# 3 -0.004601 -0.004615 0.021840 0.000000 0.000000 0.000000
# 4 0.000000 0.000000 0.000000 0.031126 0.000000 0.000000
# 5 0.000000 0.000000 0.000000 0.000000 0.031146 0.000000
# 6 0.000000 0.000000 0.000000 0.000000 0.000000 0.036172
#
#
# Mechanical properties :
#
#
# Convention : Reuss Voigt Hill
#
# Bulk Modulus (GPa) = 50.99914 58.06854 54.53384
# Shear Modulus (GPa) = 29.65819 31.81631 30.73725
#
# Velocity S-wave (km/s) = 4.00627 4.14947 4.07850
# Velocity P-wave (km/s) = 6.99997 7.37445 7.18965
#
# Compressibility (1/GPa) = 0.01960817
#
# Stress axis : x y z
#
# Youngs Moduli (GPa) = 98.87805 103.58222 45.78748
#
# Poissons Ratio (x) = 0.18473 0.21069
# Poissons Ratio (y) = 0.17634 0.21131
# Poissons Ratio (z) = 0.45498 0.47803
#
# Static dielectric constant tensor:
#      x y z
#    x 1.653830 0.000000 0.000000 
#    y 0.000000 1.624380 0.000000 
#    z 0.000000 0.000000 1.661430 
# 
# From -- ./inp_files/34960.got.cif
#   From: 2010.05.17/outbox.ucp.g08.bks.cvg/sg64_18_cif.got.tgz:34960.got - 2010.06.11 16:36:46.
