data_PCOD9482465
_publ_section_title
;
Structure prediction by ZEFSAII (Michael W. Deem and Ramdas Pophale) SiO2 
 PCOD9482465
Probable space group: C M C A
;
_chemical_formula_sum "Si O2"
_cell_formula_units_Z 48
_cell_length_a 9.000000
_cell_length_b 24.000000
_cell_length_c 24.000000
_cell_angle_alpha 90.000000
_cell_angle_beta 90.000000
_cell_angle_gamma 90.000000
_cell_volume 5184.000000
_symmetry_space_group_name_H-M "C M C A"
_symmetry_group_IT_number 64
_symmetry_cell_setting 'orthorhombic'
loop_
_space_group_symop_operation_xyz
x,y,z
-x,1/2-y,1/2+z
x,-y,-z
-x,1/2+y,1/2-z
-x,-y,-z
x,1/2+y,1/2-z
-x,y,z
x,1/2-y,1/2+z
1/2+x,1/2+y,z
1/2-x,-y,1/2+z
1/2+x,1/2-y,-z
1/2-x,y,1/2-z
1/2-x,1/2-y,-z
1/2+x,y,1/2-z
1/2-x,1/2+y,z
1/2+x,-y,1/2+z
loop_
_atom_site_type_symbol
_atom_site_label
_atom_site_fract_x
_atom_site_fract_y
_atom_site_fract_z
Si Si1 0.673398 0.254690 0.310033
Si Si2 0.674928 0.070332 0.696262
Si Si3 0.327403 0.648701 0.113442
Si Si4 0.324586 0.159513 0.605294
Si Si5 0.321699 0.556093 0.194530
Si Si6 0.824860 0.189812 0.495491
O O1 0.500000 0.270696 0.305378
O O2 0.750000 0.257730 0.250000
O O3 0.680731 0.193129 0.336415
O O4 0.754601 0.292887 0.355681
O O5 0.500000 0.068629 0.707480
O O6 0.750000 0.097712 0.750000
O O7 0.697616 0.103843 0.640436
O O8 0.730746 0.007457 0.690501
O O9 0.500000 0.648361 0.094400
O O10 0.284798 0.590101 0.139797
O O11 0.222814 0.665151 0.063262
O O12 0.500000 0.170047 0.597557
O O13 0.242899 0.156211 0.546858
O O14 0.500000 0.557431 0.200253
O O15 0.250000 0.580983 0.250000
O O16 0.750000 0.250000 0.500000
O O17 0.000000 0.194909 0.500926
#
# Coordination Sequence:
#
# PCOD9482465 Si02
#       6
#    16  16  16  16  16  16
#     4  11  22  34  52  80 113 145 181 227 279 335
#     4   9  19  35  57  84 113 148 187 227 276 328
#     4  10  21  37  57  81 111 147 187 229 275 330
#     4  11  22  37  57  81 111 147 188 232 278 331
#     4   9  18  35  58  84 114 148 186 228 275 328
#     4  12  24  39  59  81 109 147 188 230 280 335
#
# _framework density 9.2592590000000001
#
# number of rings (size 3 to 8) (size 9 to 14) (size 15 to 20)
#    0.000    1.667    1.667    3.500    0.000    4.000 
#    0.000    0.833    0.000    5.000    0.000    0.000 
#    0.000    0.000    0.000    0.000    0.000    0.000 
#
# Total GULP energy -267884.789041 kJ/mol
# GULP energy per Si atom -5580.933105 kJ/mol
# Density = 0.923818 g / cm^3
# Si number density = 9.259259 Si / 1000 Ang^3
#
#
#
# Elastic Constant Matrix: (Units=GPa)
#
#
# Indices 1 2 3 4 5 6 
#
# 1 85.7434 44.9503 65.4662 0.0000 0.0000 0.0000
# 2 44.9503 40.4325 21.8579 0.0000 0.0000 0.0000
# 3 65.4662 21.8579 86.0656 0.0000 0.0000 0.0000
# 4 0.0000 0.0000 0.0000 1.6087 0.0000 0.0000
# 5 0.0000 0.0000 0.0000 0.0000 34.6680 0.0000
# 6 0.0000 0.0000 0.0000 0.0000 0.0000 15.0349
#
#
#
# Elastic Compliance Matrix: (Units=1/GPa)
#
#
# Indices 1 2 3 4 5 6 
#
# 1 0.077238 -0.062718 -0.042823 0.000000 0.000000 0.000000
# 2 -0.062718 0.079596 0.027492 0.000000 0.000000 0.000000
# 3 -0.042823 0.027492 0.037211 0.000000 0.000000 0.000000
# 4 0.000000 0.000000 0.000000 0.621633 0.000000 0.000000
# 5 0.000000 0.000000 0.000000 0.000000 0.028845 0.000000
# 6 0.000000 0.000000 0.000000 0.000000 0.000000 0.066512
#
#
# Mechanical properties :
#
#
# Convention : Reuss Voigt Hill
#
# Bulk Modulus (GPa) = 26.35297 52.97668 39.66482
# Shear Modulus (GPa) = 4.63056 15.59348 10.11202
#
# Velocity S-wave (km/s) = 1.58301 2.90495 2.33930
# Velocity P-wave (km/s) = 4.19556 6.31832 5.36302
#
# Compressibility (1/GPa) = 0.03794639
#
# Stress axis : x y z
#
# Youngs Moduli (GPa) = 12.94692 12.56337 26.87402
#
# Poissons Ratio (x) = 0.78795 1.15083
# Poissons Ratio (y) = 0.81201 -0.73882
# Poissons Ratio (z) = 0.55443 -0.34539
#
# Static dielectric constant tensor:
#      x y z
#    x 1.625600 0.000000 0.000000 
#    y 0.000000 1.703060 0.000000 
#    z 0.000000 0.000000 0.743320 
# 
# From -- ./inp_files/37004.got.cif
#   From: 2010.05.17/outbox.ucp.g08.bks.cvg/sg64_19_cif.got.tgz:37004.got - 2010.06.11 16:36:46.
