data_PCOD9482083
_publ_section_title
;
Structure prediction by ZEFSAII (Michael W. Deem and Ramdas Pophale) SiO2 
 PCOD9482083
Probable space group: C M C A
;
_chemical_formula_sum "Si O2"
_cell_formula_units_Z 64
_cell_length_a 9.079228
_cell_length_b 9.828257
_cell_length_c 34.500816
_cell_angle_alpha 90.000000
_cell_angle_beta 90.000000
_cell_angle_gamma 90.000000
_cell_volume 3078.610836
_symmetry_space_group_name_H-M "C M C A"
_symmetry_group_IT_number 64
_symmetry_cell_setting 'orthorhombic'
loop_
_space_group_symop_operation_xyz
x,y,z
-x,1/2-y,1/2+z
x,-y,-z
-x,1/2+y,1/2-z
-x,-y,-z
x,1/2+y,1/2-z
-x,y,z
x,1/2-y,1/2+z
1/2+x,1/2+y,z
1/2-x,-y,1/2+z
1/2+x,1/2-y,-z
1/2-x,y,1/2-z
1/2-x,1/2-y,-z
1/2+x,y,1/2-z
1/2-x,1/2+y,z
1/2+x,-y,1/2+z
loop_
_atom_site_type_symbol
_atom_site_label
_atom_site_fract_x
_atom_site_fract_y
_atom_site_fract_z
Si Si1 0.674011 0.556357 0.086280
Si Si2 0.328219 0.800152 0.791150
Si Si3 0.671971 0.070920 0.838750
Si Si4 0.326051 0.287572 0.040277
O O1 0.500000 0.578418 0.092061
O O2 0.746390 0.490900 0.124149
O O3 0.692741 0.444586 0.052202
O O4 0.753773 0.693648 0.073309
O O5 0.500000 0.762314 0.788265
O O6 0.250000 0.783478 0.750000
O O7 0.249628 0.705204 0.822750
O O8 0.319109 0.955408 0.805546
O O9 0.500000 0.095504 0.847462
O O10 0.500000 0.259890 0.038051
O O11 0.250000 0.250000 0.000000
#
# Coordination Sequence:
#
# PCOD9482083 Si02
#       4
#    16  16  16  16
#     4  11  24  41  62  90 123 158 200 249 299 356
#     4  11  24  41  62  90 122 157 200 247 296 354
#     4  11  24  41  63  91 122 159 202 247 299 357
#     4  11  24  41  62  90 122 158 202 249 300 359
#
# _framework density 20.788596999999999
#
# number of rings (size 3 to 8) (size 9 to 14) (size 15 to 20)
#    0.000    1.000    0.000    6.000    0.000   19.000 
#    0.000    0.000    0.000    0.000    0.000    0.000 
#    0.000    0.000    0.000    0.000    0.000    0.000 
#
# Total GULP energy -179215.755759 kJ/mol
# GULP energy per Si atom -5600.492367 kJ/mol
# Density = 2.074128 g / cm^3
# Si number density = 20.788597 Si / 1000 Ang^3
#
#
#
# Elastic Constant Matrix: (Units=GPa)
#
#
# Indices 1 2 3 4 5 6 
#
# 1 115.9325 35.3587 12.2080 0.0000 0.0000 0.0000
# 2 35.3587 62.9905 -15.7751 0.0000 0.0000 0.0000
# 3 12.2080 -15.7751 63.6071 0.0000 0.0000 0.0000
# 4 0.0000 0.0000 0.0000 31.3683 0.0000 0.0000
# 5 0.0000 0.0000 0.0000 0.0000 44.6419 0.0000
# 6 0.0000 0.0000 0.0000 0.0000 0.0000 35.0890
#
#
#
# Elastic Compliance Matrix: (Units=1/GPa)
#
#
# Indices 1 2 3 4 5 6 
#
# 1 0.011281 -0.007330 -0.003983 0.000000 0.000000 0.000000
# 2 -0.007330 0.021689 0.006786 0.000000 0.000000 0.000000
# 3 -0.003983 0.006786 0.018169 0.000000 0.000000 0.000000
# 4 0.000000 0.000000 0.000000 0.031879 0.000000 0.000000
# 5 0.000000 0.000000 0.000000 0.000000 0.022400 0.000000
# 6 0.000000 0.000000 0.000000 0.000000 0.000000 0.028499
#
#
# Mechanical properties :
#
#
# Convention : Reuss Voigt Hill
#
# Bulk Modulus (GPa) = 23.76119 34.01260 28.88689
# Shear Modulus (GPa) = 31.84728 36.26908 34.05818
#
# Velocity S-wave (km/s) = 3.91827 4.18145 4.05200
# Velocity P-wave (km/s) = 5.65024 6.30154 5.98475
#
# Compressibility (1/GPa) = 0.04208544
#
# Stress axis : x y z
#
# Youngs Moduli (GPa) = 88.64763 46.10584 55.03907
#
# Poissons Ratio (x) = 0.33794 0.21921
# Poissons Ratio (y) = 0.64976 -0.37349
# Poissons Ratio (z) = 0.35307 -0.31287
#
# Static dielectric constant tensor:
#      x y z
#    x 1.693610 0.000000 0.000000 
#    y 0.000000 1.720180 0.000000 
#    z 0.000000 0.000000 1.728790 
# 
# From -- ./inp_files/51531.got.cif
#   From: 2010.05.17/outbox.cif.g08.bks.cpg/sg64_26_cif.got.tgz:51531.got - 2010.06.03 16:29:19.
