data_PCOD9482124
_publ_section_title
;
Structure prediction by ZEFSAII (Michael W. Deem and Ramdas Pophale) SiO2 
 PCOD9482124
Probable space group: C M C A
;
_chemical_formula_sum "Si O2"
_cell_formula_units_Z 64
_cell_length_a 16.405779
_cell_length_b 14.531562
_cell_length_c 10.981731
_cell_angle_alpha 90.000000
_cell_angle_beta 90.000000
_cell_angle_gamma 90.000000
_cell_volume 2618.062183
_symmetry_space_group_name_H-M "C M C A"
_symmetry_group_IT_number 64
_symmetry_cell_setting 'orthorhombic'
loop_
_space_group_symop_operation_xyz
x,y,z
-x,1/2-y,1/2+z
x,-y,-z
-x,1/2+y,1/2-z
-x,-y,-z
x,1/2+y,1/2-z
-x,y,z
x,1/2-y,1/2+z
1/2+x,1/2+y,z
1/2-x,-y,1/2+z
1/2+x,1/2-y,-z
1/2-x,y,1/2-z
1/2-x,1/2-y,-z
1/2+x,y,1/2-z
1/2-x,1/2+y,z
1/2+x,-y,1/2+z
loop_
_atom_site_type_symbol
_atom_site_label
_atom_site_fract_x
_atom_site_fract_y
_atom_site_fract_z
Si Si1 0.904489 0.602552 0.220036
Si Si2 0.302887 0.395696 0.493044
Si Si3 0.125255 0.437348 0.396505
Si Si4 0.086872 0.801104 0.304741
O O1 0.868439 0.512457 0.286589
O O2 0.910243 0.691500 0.305701
O O3 0.000000 0.584206 0.181740
O O4 0.840094 0.638538 0.119236
O O5 0.335555 0.500000 0.500000
O O6 0.207924 0.404879 0.463193
O O7 0.340660 0.339969 0.383347
O O8 0.083107 0.500000 0.500000
O O9 0.090000 0.347829 0.329281
O O10 0.000000 0.830791 0.359734
#
# Coordination Sequence:
#
# PCOD9482124 Si02
#       4
#    16  16  16  16
#     4  11  26  47  75 106 145 194 242 297 362 430
#     4  11  24  46  72 102 142 192 238 293 358 429
#     4  11  26  46  69 104 146 189 238 302 361 427
#     4  11  25  45  71 107 143 186 244 299 358 427
#
# _framework density 24.445561000000001
#
# number of rings (size 3 to 8) (size 9 to 14) (size 15 to 20)
#    0.000    1.000    2.500    2.250    7.000    4.000 
#   13.500    0.000    0.000    0.000    0.000    0.000 
#    0.000    0.000    0.000    0.000    0.000    0.000 
#
# Total GULP energy -178589.249230 kJ/mol
# GULP energy per Si atom -5580.914038 kJ/mol
# Density = 2.438992 g / cm^3
# Si number density = 24.445561 Si / 1000 Ang^3
#
#
#
# Elastic Constant Matrix: (Units=GPa)
#
#
# Indices 1 2 3 4 5 6 
#
# 1 178.1978 14.5500 42.3814 0.0000 0.0000 0.0000
# 2 14.5500 88.8424 -10.4814 0.0000 0.0000 0.0000
# 3 42.3814 -10.4814 70.6332 0.0000 0.0000 0.0000
# 4 0.0000 0.0000 0.0000 25.4777 0.0000 0.0000
# 5 0.0000 0.0000 0.0000 0.0000 42.1800 0.0000
# 6 0.0000 0.0000 0.0000 0.0000 0.0000 -34.9277
#
#
#
# Elastic Compliance Matrix: (Units=1/GPa)
#
#
# Indices 1 2 3 4 5 6 
#
# 1 0.006766 -0.001615 -0.004300 0.000000 0.000000 0.000000
# 2 -0.001615 0.011842 0.002727 0.000000 0.000000 0.000000
# 3 -0.004300 0.002727 0.017142 0.000000 0.000000 0.000000
# 4 0.000000 0.000000 0.000000 0.039250 0.000000 0.000000
# 5 0.000000 0.000000 0.000000 0.000000 0.023708 0.000000
# 6 0.000000 0.000000 0.000000 0.000000 0.000000 -0.028631
#
#
# Mechanical properties :
#
#
# Convention : Reuss Voigt Hill
#
# Bulk Modulus (GPa) = 34.04424 47.84148 40.94286
# Shear Modulus (GPa) = 57.97382 25.96088 41.96735
#
# Velocity S-wave (km/s) = 4.87514 3.26235 4.14788
# Velocity P-wave (km/s) = 6.75619 5.81409 6.30277
#
# Compressibility (1/GPa) = 0.02937354
#
# Stress axis : x y z
#
# Youngs Moduli (GPa) = 147.79296 84.44439 58.33602
#
# Poissons Ratio (x) = 0.13641 0.25082
# Poissons Ratio (y) = 0.23874 -0.15905
# Poissons Ratio (z) = 0.63545 -0.23024
#
# Static dielectric constant tensor:
#      x y z
#    x 1.958660 0.000000 0.000000 
#    y 0.000000 1.908950 0.000000 
#    z 0.000000 0.000000 2.052780 
# 
# From -- ./inp_files/15489.got.cif
#   From: 2010.05.17/outbox.cif.g08.bks.cpg/sg64_8_cif.got.tgz:15489.got - 2010.06.03 16:29:19.
