data_PCOD9482879
_publ_section_title
;
Structure prediction by ZEFSAII (Michael W. Deem and Ramdas Pophale) SiO2 
 PCOD9482879
Probable space group: C M M M
;
_chemical_formula_sum "Si O2"
_cell_formula_units_Z 88
_cell_length_a 22.482271
_cell_length_b 15.358800
_cell_length_c 12.734552
_cell_angle_alpha 90.000000
_cell_angle_beta 90.000000
_cell_angle_gamma 90.000000
_cell_volume 4397.249769
_symmetry_space_group_name_H-M "C M M M"
_symmetry_group_IT_number 65
_symmetry_cell_setting 'orthorhombic'
loop_
_space_group_symop_operation_xyz
x,y,z
-x,-y,z
x,-y,-z
-x,y,-z
-x,-y,-z
x,y,-z
-x,y,z
x,-y,z
1/2+x,1/2+y,z
1/2-x,1/2-y,z
1/2+x,1/2-y,-z
1/2-x,1/2+y,-z
1/2-x,1/2-y,-z
1/2+x,1/2+y,-z
1/2-x,1/2+y,z
1/2+x,1/2-y,z
loop_
_atom_site_type_symbol
_atom_site_label
_atom_site_fract_x
_atom_site_fract_y
_atom_site_fract_z
Si Si1 0.380500 0.848946 0.231150
Si Si2 0.235461 0.852236 0.000000
Si Si3 0.888189 0.852991 0.769763
Si Si4 0.570861 0.000000 0.620846
Si Si5 0.929642 0.000000 0.616048
Si Si6 0.406419 0.650180 0.000000
Si Si7 0.249768 0.598569 0.226132
Si Si8 0.430692 0.854083 0.000000
O O1 0.401841 0.749218 0.240844
O O2 0.409123 0.915890 0.312568
O O3 0.309818 0.851188 0.258197
O O4 0.397581 0.876972 0.110355
O O5 0.250000 0.750000 0.000000
O O6 0.258170 0.900341 0.101146
O O7 0.164767 0.851046 0.000000
O O8 0.911418 0.914653 0.679545
O O9 0.815955 0.862429 0.763569
O O10 0.916569 0.885152 0.881977
O O11 0.500000 0.000000 0.616333
O O12 0.593549 0.000000 0.500000
O O13 0.902577 0.000000 0.500000
O O14 0.000000 0.000000 0.608061
O O15 0.429944 0.748465 0.000000
O O16 0.249213 0.500000 0.267726
O O17 0.500000 0.883492 0.000000
#
# Coordination Sequence:
#
# PCOD9482879 Si02
#       8
#    16   8  16   8   8   8  16   8
#     4  11  22  40  64  94 127 166 205 254 318 377
#     4  10  17  28  48  86 128 166 203 241 285 371
#     4  10  21  40  65  95 129 165 203 253 312 374
#     4  11  26  46  64  85 116 160 218 269 306 362
#     4  11  26  46  66  91 122 162 215 263 305 366
#     4   8  18  32  56  89 125 160 199 241 298 364
#     4  11  19  34  60  91 127 166 205 252 313 378
#     4  10  20  34  57  91 130 167 207 252 305 368
#
# _framework density 20.012508
#
# number of rings (size 3 to 8) (size 9 to 14) (size 15 to 20)
#    0.000    1.636    1.818    5.182    0.000    5.091 
#    0.000    5.000    0.000    2.182    0.000    0.000 
#    0.000    0.000    0.000    0.000    0.000    0.000 
#
# Total GULP energy -245126.237339 kJ/mol
# GULP energy per Si atom -5571.050849 kJ/mol
# Density = 1.996696 g / cm^3
# Si number density = 20.012508 Si / 1000 Ang^3
#
#
#
# Elastic Constant Matrix: (Units=GPa)
#
#
# Indices 1 2 3 4 5 6 
#
# 1 71.0135 14.2731 35.0832 0.0000 0.0000 0.0000
# 2 14.2731 116.4932 66.6281 0.0000 0.0000 0.0000
# 3 35.0832 66.6281 154.1154 0.0000 0.0000 0.0000
# 4 0.0000 0.0000 0.0000 8.0978 0.0000 0.0000
# 5 0.0000 0.0000 0.0000 0.0000 31.6211 0.0000
# 6 0.0000 0.0000 0.0000 0.0000 0.0000 10.0533
#
#
#
# Elastic Compliance Matrix: (Units=1/GPa)
#
#
# Indices 1 2 3 4 5 6 
#
# 1 0.015868 0.000162 -0.003682 0.000000 0.000000 0.000000
# 2 0.000162 0.011406 -0.004968 0.000000 0.000000 0.000000
# 3 -0.003682 -0.004968 0.009475 0.000000 0.000000 0.000000
# 4 0.000000 0.000000 0.000000 0.123491 0.000000 0.000000
# 5 0.000000 0.000000 0.000000 0.000000 0.031624 0.000000
# 6 0.000000 0.000000 0.000000 0.000000 0.000000 0.099470
#
#
# Mechanical properties :
#
#
# Convention : Reuss Voigt Hill
#
# Bulk Modulus (GPa) = 50.57600 63.73231 57.15415
# Shear Modulus (GPa) = 15.87800 24.99694 20.43747
#
# Velocity S-wave (km/s) = 2.81980 3.53805 3.19914
# Velocity P-wave (km/s) = 5.99406 6.97178 6.50133
#
# Compressibility (1/GPa) = 0.01977223
#
# Stress axis : x y z
#
# Youngs Moduli (GPa) = 63.01793 87.67546 105.54516
#
# Poissons Ratio (x) = -0.01419 0.38865
# Poissons Ratio (y) = -0.01020 0.52433
# Poissons Ratio (z) = 0.23205 0.43556
#
# Static dielectric constant tensor:
#      x y z
#    x 1.711260 0.000000 0.000000 
#    y 0.000000 1.741630 0.000000 
#    z 0.000000 0.000000 1.744880 
# 
# From -- ./inp_files/30606.got.cif
#   From: 2010.05.17/outbox.cif.g08.bks.cpg/sg65_16_cif.got.tgz:30606.got - 2010.06.03 17:01:31.
