data_PCOD9482756
_publ_section_title
;
Structure prediction by ZEFSAII (Michael W. Deem and Ramdas Pophale) SiO2 
 PCOD9482756
Probable space group: C M M M
;
_chemical_formula_sum "Si O2"
_cell_formula_units_Z 72
_cell_length_a 23.701270
_cell_length_b 23.878741
_cell_length_c 8.628303
_cell_angle_alpha 90.000000
_cell_angle_beta 90.000000
_cell_angle_gamma 90.000000
_cell_volume 4883.244061
_symmetry_space_group_name_H-M "C M M M"
_symmetry_group_IT_number 65
_symmetry_cell_setting 'orthorhombic'
loop_
_space_group_symop_operation_xyz
x,y,z
-x,-y,z
x,-y,-z
-x,y,-z
-x,-y,-z
x,y,-z
-x,y,z
x,-y,z
1/2+x,1/2+y,z
1/2-x,1/2-y,z
1/2+x,1/2-y,-z
1/2-x,1/2+y,-z
1/2-x,1/2-y,-z
1/2+x,1/2+y,-z
1/2-x,1/2+y,z
1/2+x,1/2-y,z
loop_
_atom_site_type_symbol
_atom_site_label
_atom_site_fract_x
_atom_site_fract_y
_atom_site_fract_z
Si Si1 0.669298 0.720735 0.814933
Si Si2 0.565937 0.775561 0.685598
Si Si3 0.771515 0.333792 0.685171
Si Si4 0.376454 0.888157 0.185262
Si Si5 0.566656 0.000000 0.314118
O O1 0.605360 0.727098 0.757102
O O2 0.708104 0.670633 0.750624
O O3 0.698051 0.777122 0.746304
O O4 0.672231 0.722238 0.000000
O O5 0.573635 0.776596 0.500000
O O6 0.500000 0.768472 0.720292
O O7 0.587788 0.834969 0.752221
O O8 0.770786 0.333681 0.500000
O O9 0.812882 0.381515 0.749054
O O10 0.404933 0.944740 0.244231
O O11 0.375107 0.885724 0.000000
O O12 0.500000 0.000000 0.278831
O O13 0.573183 0.000000 0.500000
#
# Coordination Sequence:
#
# PCOD9482756 Si02
#       5
#    16  16  16  16   8
#     4  10  17  26  41  61  83 105 134 171 209 248
#     4  10  19  30  43  60  84 114 145 174 208 253
#     4  10  17  28  44  60  80 105 135 169 209 254
#     4  11  21  32  46  63  82 106 141 182 220 253
#     4  11  23  37  49  61  81 111 146 181 218 257
#
# _framework density 14.744297
#
# number of rings (size 3 to 8) (size 9 to 14) (size 15 to 20)
#    0.000    1.667    0.000   11.667    0.000    5.333 
#    0.000    0.000    0.000    0.000    0.000    0.000 
#    0.000    0.000    0.000    1.000    0.000   18.444 
#
# Total GULP energy -200780.148330 kJ/mol
# GULP energy per Si atom -5577.226342 kJ/mol
# Density = 1.471074 g / cm^3
# Si number density = 14.744297 Si / 1000 Ang^3
#
#
#
# Elastic Constant Matrix: (Units=GPa)
#
#
# Indices 1 2 3 4 5 6 
#
# 1 137.9632 57.6961 74.3701 0.0000 0.0000 0.0000
# 2 57.6961 45.2300 37.0913 0.0000 0.0000 0.0000
# 3 74.3701 37.0913 139.2971 0.0000 0.0000 0.0000
# 4 0.0000 0.0000 0.0000 19.0621 0.0000 0.0000
# 5 0.0000 0.0000 0.0000 0.0000 20.7547 0.0000
# 6 0.0000 0.0000 0.0000 0.0000 0.0000 27.7619
#
#
#
# Elastic Compliance Matrix: (Units=1/GPa)
#
#
# Indices 1 2 3 4 5 6 
#
# 1 0.017348 -0.018595 -0.004311 0.000000 0.000000 0.000000
# 2 -0.018595 0.048216 -0.002911 0.000000 0.000000 0.000000
# 3 -0.004311 -0.002911 0.010256 0.000000 0.000000 0.000000
# 4 0.000000 0.000000 0.000000 0.052460 0.000000 0.000000
# 5 0.000000 0.000000 0.000000 0.000000 0.048182 0.000000
# 6 0.000000 0.000000 0.000000 0.000000 0.000000 0.036021
#
#
# Mechanical properties :
#
#
# Convention : Reuss Voigt Hill
#
# Bulk Modulus (GPa) = 41.34493 73.42282 57.38388
# Shear Modulus (GPa) = 18.37025 23.73792 21.05409
#
# Velocity S-wave (km/s) = 3.53359 4.01680 3.78292
# Velocity P-wave (km/s) = 6.68958 8.45094 7.62132
#
# Compressibility (1/GPa) = 0.02418676
#
# Stress axis : x y z
#
# Youngs Moduli (GPa) = 57.64190 20.73984 97.50716
#
# Poissons Ratio (x) = 0.38565 0.42035
# Poissons Ratio (y) = 1.07184 0.28386
# Poissons Ratio (z) = 0.24849 0.06038
#
# Static dielectric constant tensor:
#      x y z
#    x 1.542530 0.000000 0.000000 
#    y 0.000000 1.477290 0.000000 
#    z 0.000000 0.000000 1.489730 
# 
# From -- ./inp_files/14485.got.cif
#   From: 2010.05.17/outbox.cif.g08.bks.cpg/sg65_8_cif.got.tgz:14485.got - 2010.06.03 17:01:31.
