data_PCOD9482010
_publ_section_title
;
Structure prediction by ZEFSAII (Michael W. Deem and Ramdas Pophale) SiO2 
 PCOD9482010
Probable space group: C M C A
;
_chemical_formula_sum "Si O2"
_cell_formula_units_Z 80
_cell_length_a 18.134102
_cell_length_b 8.438720
_cell_length_c 23.611006
_cell_angle_alpha 90.000000
_cell_angle_beta 90.000000
_cell_angle_gamma 90.000000
_cell_volume 3613.159411
_symmetry_space_group_name_H-M "C M C A"
_symmetry_group_IT_number 64
_symmetry_cell_setting 'orthorhombic'
loop_
_space_group_symop_operation_xyz
x,y,z
-x,1/2-y,1/2+z
x,-y,-z
-x,1/2+y,1/2-z
-x,-y,-z
x,1/2+y,1/2-z
-x,y,z
x,1/2-y,1/2+z
1/2+x,1/2+y,z
1/2-x,-y,1/2+z
1/2+x,1/2-y,-z
1/2-x,y,1/2-z
1/2-x,1/2-y,-z
1/2+x,y,1/2-z
1/2-x,1/2+y,z
1/2+x,-y,1/2+z
loop_
_atom_site_type_symbol
_atom_site_label
_atom_site_fract_x
_atom_site_fract_y
_atom_site_fract_z
Si Si1 0.663734 0.675945 0.075599
Si Si2 0.086311 0.675560 0.026212
Si Si3 0.320381 0.314918 0.115652
Si Si4 0.585594 0.274001 0.319220
Si Si5 0.168835 0.523505 0.732852
O O1 0.639253 0.715143 0.012374
O O2 0.667236 0.490410 0.089752
O O3 0.741584 0.749153 0.095228
O O4 0.602147 0.759794 0.114582
O O5 0.000000 0.720379 0.023802
O O6 0.093869 0.500000 0.000000
O O7 0.117834 0.698923 0.089495
O O8 0.323527 0.343389 0.183268
O O9 0.500000 0.289286 0.307523
O O10 0.630538 0.410690 0.288610
O O11 0.619119 0.113594 0.293162
O O12 0.250000 0.467558 0.750000
#
# Coordination Sequence:
#
# PCOD9482010 Si02
#       5
#    16  16  16  16  16
#     4  11  23  42  65  95 131 171 222 269 332 398
#     4  11  25  44  66  95 134 174 219 276 339 398
#     4  11  24  40  69  94 128 173 223 272 327 402
#     4  11  24  40  65  97 133 173 219 276 333 388
#     4  11  23  42  66  94 132 175 221 271 328 398
#
# _framework density 22.141286000000001
#
# number of rings (size 3 to 8) (size 9 to 14) (size 15 to 20)
#    0.000    1.000    2.000    4.200    2.800    7.200 
#    0.000    2.000    0.000    0.000    0.000    0.000 
#    0.000    0.000    0.000    0.000    0.000    0.000 
#
# Total GULP energy -223888.394153 kJ/mol
# GULP energy per Si atom -5597.209854 kJ/mol
# Density = 2.209089 g / cm^3
# Si number density = 22.141286 Si / 1000 Ang^3
#
#
#
# Elastic Constant Matrix: (Units=GPa)
#
#
# Indices 1 2 3 4 5 6 
#
# 1 113.9886 6.1833 -15.9984 0.0000 0.0000 0.0000
# 2 6.1833 44.2221 -1.0494 0.0000 0.0000 0.0000
# 3 -15.9984 -1.0494 52.2865 0.0000 0.0000 0.0000
# 4 0.0000 0.0000 0.0000 30.6223 0.0000 0.0000
# 5 0.0000 0.0000 0.0000 0.0000 36.5145 0.0000
# 6 0.0000 0.0000 0.0000 0.0000 0.0000 24.8179
#
#
#
# Elastic Compliance Matrix: (Units=1/GPa)
#
#
# Indices 1 2 3 4 5 6 
#
# 1 0.009232 -0.001224 0.002800 0.000000 0.000000 0.000000
# 2 -0.001224 0.022786 0.000083 0.000000 0.000000 0.000000
# 3 0.002800 0.000083 0.019984 0.000000 0.000000 0.000000
# 4 0.000000 0.000000 0.000000 0.032656 0.000000 0.000000
# 5 0.000000 0.000000 0.000000 0.000000 0.027386 0.000000
# 6 0.000000 0.000000 0.000000 0.000000 0.000000 0.040293
#
#
# Mechanical properties :
#
#
# Convention : Reuss Voigt Hill
#
# Bulk Modulus (GPa) = 18.07684 20.97425 19.52555
# Shear Modulus (GPa) = 29.85771 33.14840 31.50305
#
# Velocity S-wave (km/s) = 3.67619 3.87347 3.77612
# Velocity P-wave (km/s) = 5.11871 5.43126 5.27730
#
# Compressibility (1/GPa) = 0.05531941
#
# Stress axis : x y z
#
# Youngs Moduli (GPa) = 108.31604 43.88603 50.04039
#
# Poissons Ratio (x) = 0.05374 -0.14013
# Poissons Ratio (y) = 0.13263 -0.00414
# Poissons Ratio (z) = -0.30331 -0.00363
#
# Static dielectric constant tensor:
#      x y z
#    x 1.744140 0.000000 0.000000 
#    y 0.000000 1.815370 0.000000 
#    z 0.000000 0.000000 2.170960 
# 
# From -- ./inp_files/50300.got.cif
#   From: 2010.05.17/outbox.cif.g08.bks.cpg/sg64_26_cif.got.tgz:50300.got - 2010.06.03 16:29:19.
