data_PCOD9482436
_publ_section_title
;
Structure prediction by ZEFSAII (Michael W. Deem and Ramdas Pophale) SiO2 
 PCOD9482436
Probable space group: C M C A
;
_chemical_formula_sum "Si O2"
_cell_formula_units_Z 40
_cell_length_a 18.000000
_cell_length_b 27.000000
_cell_length_c 9.000000
_cell_angle_alpha 90.000000
_cell_angle_beta 90.000000
_cell_angle_gamma 90.000000
_cell_volume 4374.000000
_symmetry_space_group_name_H-M "C M C A"
_symmetry_group_IT_number 64
_symmetry_cell_setting 'orthorhombic'
loop_
_space_group_symop_operation_xyz
x,y,z
-x,1/2-y,1/2+z
x,-y,-z
-x,1/2+y,1/2-z
-x,-y,-z
x,1/2+y,1/2-z
-x,y,z
x,1/2-y,1/2+z
1/2+x,1/2+y,z
1/2-x,-y,1/2+z
1/2+x,1/2-y,-z
1/2-x,y,1/2-z
1/2-x,1/2-y,-z
1/2+x,y,1/2-z
1/2-x,1/2+y,z
1/2+x,-y,1/2+z
loop_
_atom_site_type_symbol
_atom_site_label
_atom_site_fract_x
_atom_site_fract_y
_atom_site_fract_z
Si Si1 0.409121 0.101867 0.641385
Si Si2 0.089216 0.000104 0.325012
Si Si3 0.663011 0.598448 0.190425
Si Si4 0.665000 0.305200 0.308189
Si Si5 0.832005 0.201052 0.328543
O O1 0.500000 0.104016 0.614234
O O2 0.393844 0.050901 0.734722
O O3 0.360732 0.102049 0.485992
O O4 0.382425 0.148596 0.742996
O O5 0.000000 0.994513 0.679582
O O6 0.111473 0.000000 0.500000
O O7 0.125531 0.048097 0.248965
O O8 0.750000 0.595550 0.250000
O O9 0.633842 0.649587 0.266920
O O10 0.750000 0.312153 0.250000
O O11 0.636609 0.253273 0.234428
O O12 0.667876 0.300703 0.490011
O O13 0.750000 0.201183 0.250000
#
# Coordination Sequence:
#
# PCOD9482436 Si02
#       5
#    16  16  16  16  16
#     4  11  24  42  63  91 129 169 207 256 319 374
#     4  10  22  40  60  85 121 161 199 249 316 376
#     4  11  22  38  61  91 122 160 211 256 304 367
#     4  11  20  37  63  88 121 161 207 254 304 371
#     4  10  20  36  59  90 123 158 200 254 316 364
#
# _framework density 9.1449470000000002
#
# number of rings (size 3 to 8) (size 9 to 14) (size 15 to 20)
#    0.000    1.400    0.000    8.400    0.000    4.000 
#    0.000    6.000    0.000    0.000    0.000    0.000 
#    0.000    0.000    0.000    0.000    0.000    0.000 
#
# Total GULP energy -223018.719694 kJ/mol
# GULP energy per Si atom -5575.467992 kJ/mol
# Density = 0.912413 g / cm^3
# Si number density = 9.144947 Si / 1000 Ang^3
#
#
#
# Elastic Constant Matrix: (Units=GPa)
#
#
# Indices 1 2 3 4 5 6 
#
# 1 54.0864 38.1466 38.5519 0.0000 0.0000 0.0000
# 2 38.1466 210.5809 88.1275 0.0000 0.0000 0.0000
# 3 38.5519 88.1275 220.9672 0.0000 0.0000 0.0000
# 4 0.0000 0.0000 0.0000 48.9552 0.0000 0.0000
# 5 0.0000 0.0000 0.0000 0.0000 33.5040 0.0000
# 6 0.0000 0.0000 0.0000 0.0000 0.0000 29.6244
#
#
#
# Elastic Compliance Matrix: (Units=1/GPa)
#
#
# Indices 1 2 3 4 5 6 
#
# 1 0.022520 -0.002923 -0.002763 0.000000 0.000000 0.000000
# 2 -0.002923 0.006080 -0.001915 0.000000 0.000000 0.000000
# 3 -0.002763 -0.001915 0.005771 0.000000 0.000000 0.000000
# 4 0.000000 0.000000 0.000000 0.020427 0.000000 0.000000
# 5 0.000000 0.000000 0.000000 0.000000 0.029847 0.000000
# 6 0.000000 0.000000 0.000000 0.000000 0.000000 0.033756
#
#
# Mechanical properties :
#
#
# Convention : Reuss Voigt Hill
#
# Bulk Modulus (GPa) = 52.16774 90.58740 71.37757
# Shear Modulus (GPa) = 35.71610 43.80394 39.76002
#
# Velocity S-wave (km/s) = 4.42382 4.89916 4.66755
# Velocity P-wave (km/s) = 7.39447 9.03541 8.25581
#
# Compressibility (1/GPa) = 0.01916893
#
# Stress axis : x y z
#
# Youngs Moduli (GPa) = 44.40456 164.48475 173.27121
#
# Poissons Ratio (x) = 0.48081 0.47879
# Poissons Ratio (y) = 0.12980 0.33176
# Poissons Ratio (z) = 0.12270 0.31494
#
# Static dielectric constant tensor:
#      x y z
#    x 1.649120 0.000000 0.000000 
#    y 0.000000 1.654460 0.000000 
#    z 0.000000 0.000000 1.635530 
# 
# From -- ./inp_files/7097.got.cif
#   From: 2010.05.17/outbox.ucp.g08.bks.cvg/sg64_4_cif.got.tgz:7097.got - 2010.06.11 16:36:46.
