data_PCOD9482089
_publ_section_title
;
Structure prediction by ZEFSAII (Michael W. Deem and Ramdas Pophale) SiO2 
 PCOD9482089
Probable space group: C M C A
;
_chemical_formula_sum "Si O2"
_cell_formula_units_Z 40
_cell_length_a 7.490706
_cell_length_b 28.620569
_cell_length_c 7.203087
_cell_angle_alpha 90.000000
_cell_angle_beta 90.000000
_cell_angle_gamma 90.000000
_cell_volume 1544.257346
_symmetry_space_group_name_H-M "C M C A"
_symmetry_group_IT_number 64
_symmetry_cell_setting 'orthorhombic'
loop_
_space_group_symop_operation_xyz
x,y,z
-x,1/2-y,1/2+z
x,-y,-z
-x,1/2+y,1/2-z
-x,-y,-z
x,1/2+y,1/2-z
-x,y,z
x,1/2-y,1/2+z
1/2+x,1/2+y,z
1/2-x,-y,1/2+z
1/2+x,1/2-y,-z
1/2-x,y,1/2-z
1/2-x,1/2-y,-z
1/2+x,y,1/2-z
1/2-x,1/2+y,z
1/2+x,-y,1/2+z
loop_
_atom_site_type_symbol
_atom_site_label
_atom_site_fract_x
_atom_site_fract_y
_atom_site_fract_z
Si Si1 0.500000 0.123778 0.895630
Si Si2 0.296693 0.055363 0.465760
Si Si3 0.791001 0.195600 0.033704
O O1 0.346102 0.083140 0.918281
O O2 0.655755 0.164015 0.920828
O O3 0.500000 0.071336 0.501640
O O4 0.250000 0.064228 0.250000
O O5 0.286787 0.000000 0.500000
O O6 0.750000 0.185297 0.250000
O O7 0.000000 0.186075 0.995871
O O8 0.750000 0.250000 0.000000
#
# Coordination Sequence:
#
# PCOD9482089 Si02
#       3
#     8  16  16
#     4  12  23  40  69  94 129 164 226 246 325 370
#     4  11  24  41  67  95 128 165 211 263 319 378
#     4  12  24  42  67  94 128 171 215 264 316 374
#
# _framework density 25.902418999999998
#
# number of rings (size 3 to 8) (size 9 to 14) (size 15 to 20)
#    0.000    0.400    6.000    3.000    0.000    0.000 
#    0.000    2.000    0.000    0.000    0.000    0.000 
#    0.000    0.000    0.000    0.000    0.000    0.000 
#
# Total GULP energy -111415.715186 kJ/mol
# GULP energy per Si atom -5570.785759 kJ/mol
# Density = 2.584346 g / cm^3
# Si number density = 25.902419 Si / 1000 Ang^3
#
#
#
# Elastic Constant Matrix: (Units=GPa)
#
#
# Indices 1 2 3 4 5 6 
#
# 1 381.6673 121.0857 63.2355 0.0000 0.0000 0.0000
# 2 121.0857 182.1988 -15.6132 0.0000 0.0000 0.0000
# 3 63.2355 -15.6132 124.6440 0.0000 0.0000 0.0000
# 4 0.0000 0.0000 0.0000 -48.4548 0.0000 0.0000
# 5 0.0000 0.0000 0.0000 0.0000 21.8226 0.0000
# 6 0.0000 0.0000 0.0000 0.0000 0.0000 200.5471
#
#
#
# Elastic Compliance Matrix: (Units=1/GPa)
#
#
# Indices 1 2 3 4 5 6 
#
# 1 0.003887 -0.002782 -0.002321 0.000000 0.000000 0.000000
# 2 -0.002782 0.007539 0.002356 0.000000 0.000000 0.000000
# 3 -0.002321 0.002356 0.009495 0.000000 0.000000 0.000000
# 4 0.000000 0.000000 0.000000 -0.020638 0.000000 0.000000
# 5 0.000000 0.000000 0.000000 0.000000 0.045824 0.000000
# 6 0.000000 0.000000 0.000000 0.000000 0.000000 0.004986
#
#
# Mechanical properties :
#
#
# Convention : Reuss Voigt Hill
#
# Bulk Modulus (GPa) = 64.81702 113.99180 89.40441
# Shear Modulus (GPa) = 80.99623 69.43643 75.21633
#
# Velocity S-wave (km/s) = 5.59800 5.18316 5.39457
# Velocity P-wave (km/s) = 8.17688 8.94002 8.56695
#
# Compressibility (1/GPa) = 0.01542805
#
# Stress axis : x y z
#
# Youngs Moduli (GPa) = 257.25110 132.63602 105.31550
#
# Poissons Ratio (x) = 0.36903 0.24440
# Poissons Ratio (y) = 0.71574 -0.24812
# Poissons Ratio (z) = 0.59698 -0.31248
#
# Static dielectric constant tensor:
#      x y z
#    x 1.178750 0.000000 0.000000 
#    y 0.000000 1.926840 0.000000 
#    z 0.000000 0.000000 2.179160 
# 
# From -- ./inp_files/11732.got.cif
#   From: 2010.05.17/outbox.cif.g08.bks.cpg/sg64_6_cif.got.tgz:11732.got - 2010.06.03 16:29:19.
