data_PCOD9482824
_publ_section_title
;
Structure prediction by ZEFSAII (Michael W. Deem and Ramdas Pophale) SiO2 
 PCOD9482824
Probable space group: C M M M
;
_chemical_formula_sum "Si O2"
_cell_formula_units_Z 96
_cell_length_a 30.517046
_cell_length_b 20.604322
_cell_length_c 7.304212
_cell_angle_alpha 90.000000
_cell_angle_beta 90.000000
_cell_angle_gamma 90.000000
_cell_volume 4592.764643
_symmetry_space_group_name_H-M "C M M M"
_symmetry_group_IT_number 65
_symmetry_cell_setting 'orthorhombic'
loop_
_space_group_symop_operation_xyz
x,y,z
-x,-y,z
x,-y,-z
-x,y,-z
-x,-y,-z
x,y,-z
-x,y,z
x,-y,z
1/2+x,1/2+y,z
1/2-x,1/2-y,z
1/2+x,1/2-y,-z
1/2-x,1/2+y,-z
1/2-x,1/2-y,-z
1/2+x,1/2+y,-z
1/2-x,1/2+y,z
1/2+x,1/2-y,z
loop_
_atom_site_type_symbol
_atom_site_label
_atom_site_fract_x
_atom_site_fract_y
_atom_site_fract_z
Si Si1 0.899792 0.199141 0.708332
Si Si2 0.448963 0.430167 0.779491
Si Si3 0.050628 0.327477 0.276515
Si Si4 0.212097 0.656578 0.721198
Si Si5 0.195951 0.191723 0.721577
Si Si6 0.872354 0.424979 0.276821
O O1 0.889889 0.220599 0.500000
O O2 0.927525 0.134172 0.705765
O O3 0.927429 0.259364 0.785259
O O4 0.852924 0.179476 0.789975
O O5 0.500000 0.429751 0.730953
O O6 0.430136 0.500000 0.720946
O O7 0.446127 0.427463 0.000000
O O8 0.049142 0.327147 0.500000
O O9 0.084549 0.384139 0.222259
O O10 0.000000 0.334197 0.216639
O O11 0.212088 0.650504 0.500000
O O12 0.202437 0.731960 0.762290
O O13 0.262478 0.649465 0.785848
O O14 0.172397 0.611096 0.784781
O O15 0.196985 0.184849 0.500000
O O16 0.871875 0.424128 0.500000
O O17 0.873715 0.500000 0.219959
#
# Coordination Sequence:
#
# PCOD9482824 Si02
#       6
#    16  16  16  16  16  16
#     4  10  17  27  45  70  92 114 143 181 225 265
#     4   9  19  35  50  63  85 119 152 179 215 267
#     4   9  16  24  34  53  82 111 142 181 220 256
#     4   8  12  21  34  51  76 113 150 175 209 260
#     4   8  13  21  37  57  81 109 140 177 217 261
#     4   9  15  22  32  47  75 116 153 179 211 261
#
# _framework density 20.902443000000002
#
# number of rings (size 3 to 8) (size 9 to 14) (size 15 to 20)
#    0.000    3.167    1.667    2.000    0.000    1.667 
#    0.000    3.333    0.000    3.000    0.000    2.333 
#    0.000    0.667    0.000    3.500    0.000    3.333 
#
# Total GULP energy -267474.110314 kJ/mol
# GULP energy per Si atom -5572.377298 kJ/mol
# Density = 2.085487 g / cm^3
# Si number density = 20.902443 Si / 1000 Ang^3
#
#
#
# Elastic Constant Matrix: (Units=GPa)
#
#
# Indices 1 2 3 4 5 6 
#
# 1 214.0528 107.6923 8.8660 0.0000 0.0000 0.0000
# 2 107.6923 141.5972 1.1474 0.0000 0.0000 0.0000
# 3 8.8660 1.1474 79.4189 0.0000 0.0000 0.0000
# 4 0.0000 0.0000 0.0000 29.2873 0.0000 0.0000
# 5 0.0000 0.0000 0.0000 0.0000 -9.1367 0.0000
# 6 0.0000 0.0000 0.0000 0.0000 0.0000 31.1203
#
#
#
# Elastic Compliance Matrix: (Units=1/GPa)
#
#
# Indices 1 2 3 4 5 6 
#
# 1 0.007614 -0.005784 -0.000766 0.000000 0.000000 0.000000
# 2 -0.005784 0.011458 0.000480 0.000000 0.000000 0.000000
# 3 -0.000766 0.000480 0.012670 0.000000 0.000000 0.000000
# 4 0.000000 0.000000 0.000000 0.034145 0.000000 0.000000
# 5 0.000000 0.000000 0.000000 0.000000 -0.109449 0.000000
# 6 0.000000 0.000000 0.000000 0.000000 0.000000 0.032133
#
#
# Mechanical properties :
#
#
# Convention : Reuss Voigt Hill
#
# Bulk Modulus (GPa) = 51.01953 74.49782 62.75868
# Shear Modulus (GPa) = 690.13728 31.41173 360.77451
#
# Velocity S-wave (km/s) = 18.19031 3.88077 13.15195
# Velocity P-wave (km/s) = 21.57880 7.46985 16.14688
#
# Compressibility (1/GPa) = 0.01960034
#
# Stress axis : x y z
#
# Youngs Moduli (GPa) = 131.34231 87.27712 78.92613
#
# Poissons Ratio (x) = 0.50485 0.06049
# Poissons Ratio (y) = 0.75974 -0.03790
# Poissons Ratio (z) = 0.10066 -0.04191
#
# Static dielectric constant tensor:
#      x y z
#    x 1.783320 0.000000 0.000000 
#    y 0.000000 1.696180 0.000000 
#    z 0.000000 0.000000 1.837490 
# 
# From -- ./inp_files/29513.got.cif
#   From: 2010.05.17/outbox.cif.g08.bks.cpg/sg65_15_cif.got.tgz:29513.got - 2010.06.03 17:01:31.
