data_PCOD9482350
_publ_section_title
;
Structure prediction by ZEFSAII (Michael W. Deem and Ramdas Pophale) SiO2 
 PCOD9482350
Probable space group: C M C A
;
_chemical_formula_sum "Si O2"
_cell_formula_units_Z 44
_cell_length_a 21.000000
_cell_length_b 18.000000
_cell_length_c 12.000000
_cell_angle_alpha 90.000000
_cell_angle_beta 90.000000
_cell_angle_gamma 90.000000
_cell_volume 4536.000000
_symmetry_space_group_name_H-M "C M C A"
_symmetry_group_IT_number 64
_symmetry_cell_setting 'orthorhombic'
loop_
_space_group_symop_operation_xyz
x,y,z
-x,1/2-y,1/2+z
x,-y,-z
-x,1/2+y,1/2-z
-x,-y,-z
x,1/2+y,1/2-z
-x,y,z
x,1/2-y,1/2+z
1/2+x,1/2+y,z
1/2-x,-y,1/2+z
1/2+x,1/2-y,-z
1/2-x,y,1/2-z
1/2-x,1/2-y,-z
1/2+x,y,1/2-z
1/2-x,1/2+y,z
1/2+x,-y,1/2+z
loop_
_atom_site_type_symbol
_atom_site_label
_atom_site_fract_x
_atom_site_fract_y
_atom_site_fract_z
Si Si1 0.750000 0.241811 0.250000
Si Si2 0.869461 0.707244 0.370585
Si Si3 0.575904 0.392180 0.691429
Si Si4 0.343433 0.871713 0.039510
Si Si5 0.302650 0.858522 0.429005
Si Si6 0.324520 0.983708 0.248519
O O1 0.802915 0.194311 0.191759
O O2 0.713877 0.293976 0.160648
O O3 0.919098 0.676919 0.279503
O O4 0.867688 0.795002 0.402282
O O5 0.858543 0.664642 0.486975
O O6 0.500000 0.408847 0.675032
O O7 0.612689 0.382174 0.571061
O O8 0.619767 0.455339 0.750573
O O9 0.267266 0.866742 0.012145
O O10 0.340718 0.935435 0.135898
O O11 0.323190 0.928887 0.355263
O O12 0.250000 0.010631 0.250000
#
# Coordination Sequence:
#
# PCOD9482350 Si02
#       6
#     8  16  16  16  16  16
#     4  10  16  36  62 108 130 152 208 276 324 378
#     4  11  21  36  66  96 130 165 208 265 328 380
#     4  12  28  44  61  93 134 179 222 259 318 391
#     4  10  21  40  69  94 125 164 217 272 319 376
#     4  10  18  36  64 102 130 154 203 269 333 382
#     4  10  22  42  65  98 131 163 213 265 324 384
#
# _framework density 9.7001760000000008
#
# number of rings (size 3 to 8) (size 9 to 14) (size 15 to 20)
#    0.000    1.455    4.545    4.909    3.818    2.909 
#    0.000    1.818    0.000    0.000    0.000    0.000 
#    0.000    0.000    0.000    0.000    0.000    0.000 
#
# Total GULP energy -245264.739063 kJ/mol
# GULP energy per Si atom -5574.198615 kJ/mol
# Density = 0.967810 g / cm^3
# Si number density = 9.700176 Si / 1000 Ang^3
#
#
#
# Elastic Constant Matrix: (Units=GPa)
#
#
# Indices 1 2 3 4 5 6 
#
# 1 99.7002 42.9120 57.0085 0.0000 0.0000 0.0000
# 2 42.9120 69.0773 21.4462 0.0000 0.0000 0.0000
# 3 57.0085 21.4462 98.9183 0.0000 0.0000 0.0000
# 4 0.0000 0.0000 0.0000 29.4042 0.0000 0.0000
# 5 0.0000 0.0000 0.0000 0.0000 28.2378 0.0000
# 6 0.0000 0.0000 0.0000 0.0000 0.0000 23.2101
#
#
#
# Elastic Compliance Matrix: (Units=1/GPa)
#
#
# Indices 1 2 3 4 5 6 
#
# 1 0.019100 -0.009057 -0.009044 0.000000 0.000000 0.000000
# 2 -0.009057 0.019816 0.000924 0.000000 0.000000 0.000000
# 3 -0.009044 0.000924 0.015121 0.000000 0.000000 0.000000
# 4 0.000000 0.000000 0.000000 0.034009 0.000000 0.000000
# 5 0.000000 0.000000 0.000000 0.000000 0.035414 0.000000
# 6 0.000000 0.000000 0.000000 0.000000 0.000000 0.043085
#
#
# Mechanical properties :
#
#
# Convention : Reuss Voigt Hill
#
# Bulk Modulus (GPa) = 50.80736 56.71434 53.76085
# Shear Modulus (GPa) = 24.10105 25.92570 25.01338
#
# Velocity S-wave (km/s) = 3.52845 3.65958 3.59461
# Velocity P-wave (km/s) = 6.54566 6.86687 6.70819
#
# Compressibility (1/GPa) = 0.01968219
#
# Stress axis : x y z
#
# Youngs Moduli (GPa) = 52.35705 50.46350 66.13213
#
# Poissons Ratio (x) = 0.45706 0.59809
# Poissons Ratio (y) = 0.47421 -0.06107
# Poissons Ratio (z) = 0.47351 -0.04660
#
# Static dielectric constant tensor:
#      x y z
#    x 1.656420 0.000000 0.000000 
#    y 0.000000 1.754390 0.000000 
#    z 0.000000 0.000000 1.742240 
# 
# From -- ./inp_files/17158.got.cif
#   From: 2010.05.17/outbox.ucp.g08.bks.cvg/sg64_9_cif.got.tgz:17158.got - 2010.06.11 16:36:46.
