data_PCOD9482589
_publ_section_title
;
Structure prediction by ZEFSAII (Michael W. Deem and Ramdas Pophale) SiO2 
 PCOD9482589
Probable space group: C M M M
;
_chemical_formula_sum "Si O2"
_cell_formula_units_Z 88
_cell_length_a 8.757624
_cell_length_b 18.714594
_cell_length_c 29.476303
_cell_angle_alpha 90.000000
_cell_angle_beta 90.000000
_cell_angle_gamma 90.000000
_cell_volume 4831.029809
_symmetry_space_group_name_H-M "C M M M"
_symmetry_group_IT_number 65
_symmetry_cell_setting 'orthorhombic'
loop_
_space_group_symop_operation_xyz
x,y,z
-x,-y,z
x,-y,-z
-x,y,-z
-x,-y,-z
x,y,-z
-x,y,z
x,-y,z
1/2+x,1/2+y,z
1/2-x,1/2-y,z
1/2+x,1/2-y,-z
1/2-x,1/2+y,-z
1/2-x,1/2-y,-z
1/2+x,1/2+y,-z
1/2-x,1/2+y,z
1/2+x,1/2-y,z
loop_
_atom_site_type_symbol
_atom_site_label
_atom_site_fract_x
_atom_site_fract_y
_atom_site_fract_z
Si Si1 0.316189 0.583480 0.551862
Si Si2 0.815599 0.417357 0.723946
Si Si3 0.182238 0.331154 0.000000
Si Si4 0.682615 0.669960 0.807463
Si Si5 0.182792 0.830368 0.908244
Si Si6 0.682868 0.170978 0.365196
O O1 0.272968 0.601865 0.500000
O O2 0.500000 0.589464 0.555101
O O3 0.276819 0.500000 0.559383
O O4 0.239673 0.632520 0.589309
O O5 0.768525 0.500000 0.721581
O O6 0.748518 0.378763 0.767909
O O7 0.768542 0.375353 0.678537
O O8 0.000000 0.414853 0.726385
O O9 0.250000 0.250000 0.000000
O O10 0.243305 0.364607 0.046929
O O11 0.000000 0.327732 0.000000
O O12 0.500000 0.674937 0.803757
O O13 0.750000 0.750000 0.803541
O O14 0.717783 0.640088 0.858105
O O15 0.250000 0.750000 0.906316
O O16 0.000000 0.827313 0.913964
O O17 0.500000 0.174573 0.365475
O O18 0.750000 0.250000 0.361882
#
# Coordination Sequence:
#
# PCOD9482589 Si02
#       6
#    16  16   8  16  16  16
#     4   9  19  37  60  85 113 145 181 221 265 312
#     4  10  22  39  57  78 105 136 172 217 266 316
#     4  10  16  22  36  60  91 128 167 204 249 303
#     4  10  20  33  52  77 104 137 175 215 261 313
#     4   9  16  26  40  62  94 129 165 206 252 301
#     4  11  23  38  57  82 111 143 180 220 265 315
#
# _framework density 18.215579000000002
#
# number of rings (size 3 to 8) (size 9 to 14) (size 15 to 20)
#    0.000    2.182    0.000    5.182    0.000    7.273 
#    0.000    0.909    0.000    0.000    0.000    0.636 
#    0.000    5.091    0.000    0.000    0.000    0.000 
#
# Total GULP energy -245497.997868 kJ/mol
# GULP energy per Si atom -5579.499952 kJ/mol
# Density = 1.817412 g / cm^3
# Si number density = 18.215579 Si / 1000 Ang^3
#
#
#
# Elastic Constant Matrix: (Units=GPa)
#
#
# Indices 1 2 3 4 5 6 
#
# 1 59.1763 40.5361 64.3071 0.0000 0.0000 0.0000
# 2 40.5361 100.3104 101.4577 0.0000 0.0000 0.0000
# 3 64.3071 101.4577 203.9620 0.0000 0.0000 0.0000
# 4 0.0000 0.0000 0.0000 -34.8217 0.0000 0.0000
# 5 0.0000 0.0000 0.0000 0.0000 15.1793 0.0000
# 6 0.0000 0.0000 0.0000 0.0000 0.0000 11.3701
#
#
#
# Elastic Compliance Matrix: (Units=1/GPa)
#
#
# Indices 1 2 3 4 5 6 
#
# 1 0.026713 -0.004581 -0.006144 0.000000 0.000000 0.000000
# 2 -0.004581 0.020849 -0.008927 0.000000 0.000000 0.000000
# 3 -0.006144 -0.008927 0.011280 0.000000 0.000000 0.000000
# 4 0.000000 0.000000 0.000000 -0.028718 0.000000 0.000000
# 5 0.000000 0.000000 0.000000 0.000000 0.065879 0.000000
# 6 0.000000 0.000000 0.000000 0.000000 0.000000 0.087950
#
#
# Mechanical properties :
#
#
# Convention : Reuss Voigt Hill
#
# Bulk Modulus (GPa) = 51.17775 86.22783 68.70279
# Shear Modulus (GPa) = 21.76092 8.82206 15.29149
#
# Velocity S-wave (km/s) = 3.46010 2.20310 2.90051
# Velocity P-wave (km/s) = 6.64226 7.34246 7.00112
#
# Compressibility (1/GPa) = 0.01953974
#
# Stress axis : x y z
#
# Youngs Moduli (GPa) = 37.43510 47.96378 88.65004
#
# Poissons Ratio (x) = 0.21972 0.54462
# Poissons Ratio (y) = 0.17149 0.79135
# Poissons Ratio (z) = 0.22998 0.42816
#
# Static dielectric constant tensor:
#      x y z
#    x 1.608050 0.000000 0.000000 
#    y 0.000000 1.592800 0.000000 
#    z 0.000000 0.000000 1.658240 
# 
# From -- ./inp_files/76482.got.cif
#   From: 2010.05.17/outbox.cif.g08.bks.cpg/sg65_39_cif.got.tgz:76482.got - 2010.06.03 17:01:31.
