data_PCOD9482801
_publ_section_title
;
Structure prediction by ZEFSAII (Michael W. Deem and Ramdas Pophale) SiO2 
 PCOD9482801
Probable space group: C M M M
;
_chemical_formula_sum "Si O2"
_cell_formula_units_Z 80
_cell_length_a 18.124145
_cell_length_b 27.124486
_cell_length_c 12.043370
_cell_angle_alpha 90.000000
_cell_angle_beta 90.000000
_cell_angle_gamma 90.000000
_cell_volume 5920.618452
_symmetry_space_group_name_H-M "C M M M"
_symmetry_group_IT_number 65
_symmetry_cell_setting 'orthorhombic'
loop_
_space_group_symop_operation_xyz
x,y,z
-x,-y,z
x,-y,-z
-x,y,-z
-x,-y,-z
x,y,-z
-x,y,z
x,-y,z
1/2+x,1/2+y,z
1/2-x,1/2-y,z
1/2+x,1/2-y,-z
1/2-x,1/2+y,-z
1/2-x,1/2-y,-z
1/2+x,1/2+y,-z
1/2-x,1/2+y,z
1/2+x,1/2-y,z
loop_
_atom_site_type_symbol
_atom_site_label
_atom_site_fract_x
_atom_site_fract_y
_atom_site_fract_z
Si Si1 0.910865 0.443992 0.242496
Si Si2 0.589501 0.907265 0.000000
Si Si3 0.652296 0.149236 0.633059
Si Si4 0.587584 0.243470 0.759677
Si Si5 0.701119 0.300231 0.373532
Si Si6 0.589580 0.206603 0.000000
O O1 0.891526 0.500000 0.272910
O O2 0.875775 0.402291 0.319441
O O3 0.000000 0.439325 0.248476
O O4 0.888771 0.433271 0.114558
O O5 0.614419 0.850327 0.000000
O O6 0.500000 0.906997 0.000000
O O7 0.643681 0.152631 0.500000
O O8 0.607118 0.193689 0.691001
O O9 0.738920 0.158715 0.658529
O O10 0.500000 0.251502 0.755998
O O11 0.633610 0.287997 0.706311
O O12 0.611619 0.233090 0.886366
O O13 0.675827 0.308620 0.500000
O O14 0.750000 0.250000 0.374360
O O15 0.500000 0.205178 0.000000
#
# Coordination Sequence:
#
# PCOD9482801 Si02
#       6
#    16   8  16  16  16   8
#     4  10  19  29  43  61  79 104 140 176 204 234
#     4   9  15  28  42  56  79 107 137 169 206 240
#     4  10  19  30  41  55  82 112 134 165 207 243
#     4  10  17  27  43  61  80 104 137 170 198 235
#     4   8  16  29  41  55  78 107 135 164 200 243
#     4   9  16  25  40  60  82 106 133 166 204 242
#
# _framework density 13.512102000000001
#
# number of rings (size 3 to 8) (size 9 to 14) (size 15 to 20)
#    0.000    2.600    2.000    2.700    0.000    4.400 
#    0.000    6.500    0.000    0.000    0.000    0.000 
#    0.000    0.800    0.000    4.400    0.000    8.200 
#
# Total GULP energy -222745.251312 kJ/mol
# GULP energy per Si atom -5568.631283 kJ/mol
# Density = 1.348135 g / cm^3
# Si number density = 13.512102 Si / 1000 Ang^3
#
#
#
# Elastic Constant Matrix: (Units=GPa)
#
#
# Indices 1 2 3 4 5 6 
#
# 1 51.2552 32.7749 39.4240 0.0000 0.0000 0.0000
# 2 32.7749 58.5903 34.5632 0.0000 0.0000 0.0000
# 3 39.4240 34.5632 84.7878 0.0000 0.0000 0.0000
# 4 0.0000 0.0000 0.0000 7.3774 0.0000 0.0000
# 5 0.0000 0.0000 0.0000 0.0000 81.1843 0.0000
# 6 0.0000 0.0000 0.0000 0.0000 0.0000 21.0786
#
#
#
# Elastic Compliance Matrix: (Units=1/GPa)
#
#
# Indices 1 2 3 4 5 6 
#
# 1 0.037518 -0.014083 -0.011704 0.000000 0.000000 0.000000
# 2 -0.014083 0.027758 -0.004767 0.000000 0.000000 0.000000
# 3 -0.011704 -0.004767 0.019179 0.000000 0.000000 0.000000
# 4 0.000000 0.000000 0.000000 0.135550 0.000000 0.000000
# 5 0.000000 0.000000 0.000000 0.000000 0.012318 0.000000
# 6 0.000000 0.000000 0.000000 0.000000 0.000000 0.047441
#
#
# Mechanical properties :
#
#
# Convention : Reuss Voigt Hill
#
# Bulk Modulus (GPa) = 42.83184 45.35083 44.09133
# Shear Modulus (GPa) = 14.34088 27.78613 21.06351
#
# Velocity S-wave (km/s) = 3.26135 4.53966 3.95253
# Velocity P-wave (km/s) = 6.77861 7.81755 7.31654
#
# Compressibility (1/GPa) = 0.02334712
#
# Stress axis : x y z
#
# Youngs Moduli (GPa) = 26.65408 36.02615 52.13913
#
# Poissons Ratio (x) = 0.50735 0.61023
# Poissons Ratio (y) = 0.37536 0.24855
# Poissons Ratio (z) = 0.31196 0.17174
#
# Static dielectric constant tensor:
#      x y z
#    x 1.439890 0.000000 0.000000 
#    y 0.000000 1.431770 0.000000 
#    z 0.000000 0.000000 1.461700 
# 
# From -- ./inp_files/27034.got.cif
#   From: 2010.05.17/outbox.cif.g08.bks.cpg/sg65_14_cif.got.tgz:27034.got - 2010.06.03 17:01:31.
