data_PCOD9482752
_publ_section_title
;
Structure prediction by ZEFSAII (Michael W. Deem and Ramdas Pophale) SiO2 
 PCOD9482752
Probable space group: C M M M
;
_chemical_formula_sum "Si O2"
_cell_formula_units_Z 64
_cell_length_a 8.739129
_cell_length_b 15.742570
_cell_length_c 22.067401
_cell_angle_alpha 90.000000
_cell_angle_beta 90.000000
_cell_angle_gamma 90.000000
_cell_volume 3035.952484
_symmetry_space_group_name_H-M "C M M M"
_symmetry_group_IT_number 65
_symmetry_cell_setting 'orthorhombic'
loop_
_space_group_symop_operation_xyz
x,y,z
-x,-y,z
x,-y,-z
-x,y,-z
-x,-y,-z
x,y,-z
-x,y,z
x,-y,z
1/2+x,1/2+y,z
1/2-x,1/2-y,z
1/2+x,1/2-y,-z
1/2-x,1/2+y,-z
1/2-x,1/2-y,-z
1/2+x,1/2+y,-z
1/2-x,1/2+y,z
1/2+x,1/2-y,z
loop_
_atom_site_type_symbol
_atom_site_label
_atom_site_fract_x
_atom_site_fract_y
_atom_site_fract_z
Si Si1 0.683443 0.346175 0.566402
Si Si2 0.826036 0.601477 0.066758
Si Si3 0.317507 0.846726 0.689185
Si Si4 0.819842 0.843914 0.810768
O O1 0.717581 0.384646 0.500000
O O2 0.500000 0.342201 0.573122
O O3 0.750000 0.250000 0.564157
O O4 0.755565 0.386316 0.626673
O O5 0.835737 0.500000 0.062802
O O6 0.720398 0.619604 0.123727
O O7 0.000000 0.633780 0.077942
O O8 0.775621 0.632859 0.000000
O O9 0.500000 0.843160 0.688617
O O10 0.250000 0.750000 0.689374
O O11 0.258583 0.886679 0.752041
O O12 0.750000 0.750000 0.813271
O O13 0.000000 0.841633 0.800594
#
# Coordination Sequence:
#
# PCOD9482752 Si02
#       4
#    16  16  16  16
#     4   9  15  22  33  51  78 113 152 191 232 280
#     4   9  19  37  58  77  99 127 158 195 241 291
#     4  10  17  26  40  58  85 119 156 196 239 285
#     4  11  21  33  50  72 100 131 165 203 243 289
#
# _framework density 21.080698000000002
#
# number of rings (size 3 to 8) (size 9 to 14) (size 15 to 20)
#    0.000    2.250    0.000    9.000    0.000    3.000 
#    0.000    1.250    0.000    0.000    0.000    0.000 
#    0.000    1.000    0.000   10.500    0.000    8.750 
#
# Total GULP energy -178423.772989 kJ/mol
# GULP energy per Si atom -5575.742906 kJ/mol
# Density = 2.103272 g / cm^3
# Si number density = 21.080698 Si / 1000 Ang^3
#
#
#
# Elastic Constant Matrix: (Units=GPa)
#
#
# Indices 1 2 3 4 5 6 
#
# 1 166.1166 5.8263 93.6742 0.0000 0.0000 0.0000
# 2 5.8263 15.0051 15.0505 0.0000 0.0000 0.0000
# 3 93.6742 15.0505 215.6372 0.0000 0.0000 0.0000
# 4 0.0000 0.0000 0.0000 41.5020 0.0000 0.0000
# 5 0.0000 0.0000 0.0000 0.0000 38.6065 0.0000
# 6 0.0000 0.0000 0.0000 0.0000 0.0000 6.8281
#
#
#
# Elastic Compliance Matrix: (Units=1/GPa)
#
#
# Indices 1 2 3 4 5 6 
#
# 1 0.007975 0.000407 -0.003493 0.000000 0.000000 0.000000
# 2 0.000407 0.071682 -0.005180 0.000000 0.000000 0.000000
# 3 -0.003493 -0.005180 0.006516 0.000000 0.000000 0.000000
# 4 0.000000 0.000000 0.000000 0.024095 0.000000 0.000000
# 5 0.000000 0.000000 0.000000 0.000000 0.025902 0.000000
# 6 0.000000 0.000000 0.000000 0.000000 0.000000 0.146454
#
#
# Mechanical properties :
#
#
# Convention : Reuss Voigt Hill
#
# Bulk Modulus (GPa) = 14.35930 69.54012 41.94971
# Shear Modulus (GPa) = 15.51011 36.20115 25.85563
#
# Velocity S-wave (km/s) = 2.71541 4.14849 3.50595
# Velocity P-wave (km/s) = 4.08138 7.48370 6.02758
#
# Compressibility (1/GPa) = 0.06964127
#
# Stress axis : x y z
#
# Youngs Moduli (GPa) = 125.38757 13.95060 153.46171
#
# Poissons Ratio (x) = -0.00567 0.53603
# Poissons Ratio (y) = -0.05100 0.79489
# Poissons Ratio (z) = 0.43797 0.07226
#
# Static dielectric constant tensor:
#      x y z
#    x 1.701900 0.000000 0.000000 
#    y 0.000000 1.768250 0.000000 
#    z 0.000000 0.000000 1.885810 
# 
# From -- ./inp_files/55267.got.cif
#   From: 2010.05.17/outbox.cif.g08.bks.cpg/sg65_28_cif.got.tgz:55267.got - 2010.06.03 17:01:31.
