data_PCOD9482812
_publ_section_title
;
Structure prediction by ZEFSAII (Michael W. Deem and Ramdas Pophale) SiO2 
 PCOD9482812
Probable space group: C M M M
;
_chemical_formula_sum "Si O2"
_cell_formula_units_Z 88
_cell_length_a 14.229513
_cell_length_b 29.143499
_cell_length_c 14.193632
_cell_angle_alpha 90.000000
_cell_angle_beta 90.000000
_cell_angle_gamma 90.000000
_cell_volume 5886.067934
_symmetry_space_group_name_H-M "C M M M"
_symmetry_group_IT_number 65
_symmetry_cell_setting 'orthorhombic'
loop_
_space_group_symop_operation_xyz
x,y,z
-x,-y,z
x,-y,-z
-x,y,-z
-x,-y,-z
x,y,-z
-x,y,z
x,-y,z
1/2+x,1/2+y,z
1/2-x,1/2-y,z
1/2+x,1/2-y,-z
1/2-x,1/2+y,-z
1/2-x,1/2-y,-z
1/2+x,1/2+y,-z
1/2-x,1/2+y,z
1/2+x,1/2-y,z
loop_
_atom_site_type_symbol
_atom_site_label
_atom_site_fract_x
_atom_site_fract_y
_atom_site_fract_z
Si Si1 0.638893 0.742392 0.105325
Si Si2 0.885634 0.096825 0.301912
Si Si3 0.894250 0.725413 0.308760
Si Si4 0.886029 0.000000 0.391719
Si Si5 0.708919 0.684850 0.611671
Si Si6 0.888963 0.866462 0.103429
O O1 0.750000 0.750000 0.105551
O O2 0.602897 0.769709 0.195510
O O3 0.620560 0.688189 0.119427
O O4 0.604701 0.754510 0.000000
O O5 0.858782 0.046678 0.338957
O O6 0.838782 0.136718 0.363493
O O7 0.854218 0.106384 0.194333
O O8 0.000000 0.101124 0.306717
O O9 0.811716 0.691172 0.341309
O O10 0.857173 0.774590 0.347391
O O11 0.000000 0.715663 0.342843
O O12 0.853438 0.000000 0.500000
O O13 0.000000 0.000000 0.393723
O O14 0.717854 0.690925 0.500000
O O15 0.000000 0.876027 0.098461
O O16 0.847505 0.876835 0.000000
#
# Coordination Sequence:
#
# PCOD9482812 Si02
#       6
#    16  16  16   8  16  16
#     4  10  17  27  44  65  91 121 154 189 223 264
#     4  10  18  31  49  68  91 118 148 188 235 280
#     4  11  20  32  46  65  93 122 155 191 225 265
#     4   9  18  30  45  67  90 114 149 190 231 275
#     4  11  22  33  45  64  89 121 160 192 228 274
#     4   9  16  26  41  61  85 115 148 178 215 268
#
# _framework density 14.950557999999999
#
# number of rings (size 3 to 8) (size 9 to 14) (size 15 to 20)
#    0.000    1.909    3.636    2.727    0.000    4.364 
#    0.000    0.455    0.000    2.727    0.000    0.636 
#    0.000    2.182    0.000    0.000    0.000   18.455 
#
# Total GULP energy -245159.830755 kJ/mol
# GULP energy per Si atom -5571.814335 kJ/mol
# Density = 1.491653 g / cm^3
# Si number density = 14.950558 Si / 1000 Ang^3
#
#
#
# Elastic Constant Matrix: (Units=GPa)
#
#
# Indices 1 2 3 4 5 6 
#
# 1 72.5156 16.1543 18.4285 0.0000 0.0000 0.0000
# 2 16.1543 65.2210 30.9498 0.0000 0.0000 0.0000
# 3 18.4285 30.9498 126.4246 0.0000 0.0000 0.0000
# 4 0.0000 0.0000 0.0000 16.5444 0.0000 0.0000
# 5 0.0000 0.0000 0.0000 0.0000 7.8156 0.0000
# 6 0.0000 0.0000 0.0000 0.0000 0.0000 25.6536
#
#
#
# Elastic Compliance Matrix: (Units=1/GPa)
#
#
# Indices 1 2 3 4 5 6 
#
# 1 0.014820 -0.002993 -0.001427 0.000000 0.000000 0.000000
# 2 -0.002993 0.017952 -0.003959 0.000000 0.000000 0.000000
# 3 -0.001427 -0.003959 0.009087 0.000000 0.000000 0.000000
# 4 0.000000 0.000000 0.000000 0.060443 0.000000 0.000000
# 5 0.000000 0.000000 0.000000 0.000000 0.127948 0.000000
# 6 0.000000 0.000000 0.000000 0.000000 0.000000 0.038981
#
#
# Mechanical properties :
#
#
# Convention : Reuss Voigt Hill
#
# Bulk Modulus (GPa) = 39.83979 43.91406 41.87692
# Shear Modulus (GPa) = 16.98617 23.24464 20.11540
#
# Velocity S-wave (km/s) = 3.37435 3.94733 3.67203
# Velocity P-wave (km/s) = 6.47203 7.08603 6.78598
#
# Compressibility (1/GPa) = 0.02510053
#
# Stress axis : x y z
#
# Youngs Moduli (GPa) = 67.47768 55.70300 110.04712
#
# Poissons Ratio (x) = 0.16673 0.15709
# Poissons Ratio (y) = 0.20198 0.43563
# Poissons Ratio (z) = 0.09632 0.22050
#
# Static dielectric constant tensor:
#      x y z
#    x 1.501620 0.000000 0.000000 
#    y 0.000000 1.467770 0.000000 
#    z 0.000000 0.000000 1.552880 
# 
# From -- ./inp_files/40943.got.cif
#   From: 2010.05.17/outbox.cif.g08.bks.cpg/sg65_21_cif.got.tgz:40943.got - 2010.06.03 17:01:31.
