data_PCOD9482318
_publ_section_title
;
Structure prediction by ZEFSAII (Michael W. Deem and Ramdas Pophale) SiO2 
 PCOD9482318
Probable space group: C M C A
;
_chemical_formula_sum "Si O2"
_cell_formula_units_Z 112
_cell_length_a 7.376076
_cell_length_b 30.460186
_cell_length_c 27.594653
_cell_angle_alpha 90.000000
_cell_angle_beta 90.000000
_cell_angle_gamma 90.000000
_cell_volume 6199.874109
_symmetry_space_group_name_H-M "C M C A"
_symmetry_group_IT_number 64
_symmetry_cell_setting 'orthorhombic'
loop_
_space_group_symop_operation_xyz
x,y,z
-x,1/2-y,1/2+z
x,-y,-z
-x,1/2+y,1/2-z
-x,-y,-z
x,1/2+y,1/2-z
-x,y,z
x,1/2-y,1/2+z
1/2+x,1/2+y,z
1/2-x,-y,1/2+z
1/2+x,1/2-y,-z
1/2-x,y,1/2-z
1/2-x,1/2-y,-z
1/2+x,y,1/2-z
1/2-x,1/2+y,z
1/2+x,-y,1/2+z
loop_
_atom_site_type_symbol
_atom_site_label
_atom_site_fract_x
_atom_site_fract_y
_atom_site_fract_z
Si Si1 0.778406 0.093382 0.565725
Si Si2 0.785869 0.811362 0.459613
Si Si3 0.716391 0.939563 0.806765
Si Si4 0.221238 0.009371 0.615276
Si Si5 0.718274 0.284566 0.566724
Si Si6 0.780129 0.633507 0.121655
Si Si7 0.280810 0.437051 0.539952
O O1 0.716683 0.143903 0.564516
O O2 0.721083 0.072578 0.514193
O O3 0.000000 0.093583 0.566910
O O4 0.720125 0.059413 0.607305
O O5 0.762661 0.766684 0.429626
O O6 0.713879 0.801395 0.513910
O O7 0.000000 0.818316 0.466286
O O8 0.500000 0.939243 0.813277
O O9 0.750000 0.942219 0.750000
O O10 0.782359 0.981355 0.838158
O O11 0.783786 0.894532 0.832125
O O12 0.276331 0.980761 0.568126
O O13 0.000000 0.009396 0.616163
O O14 0.500000 0.287228 0.565462
O O15 0.782336 0.317580 0.608617
O O16 0.734906 0.603362 0.075177
O O17 0.000000 0.635269 0.124649
O O18 0.500000 0.439056 0.537841
#
# Coordination Sequence:
#
# PCOD9482318 Si02
#       7
#    16  16  16  16  16  16  16
#     4   9  13  19  32  54  82 107 129 158 192 224
#     4   9  16  23  35  56  82 108 134 162 189 220
#     4   9  17  29  44  62  82 101 127 163 203 244
#     4   8  14  21  34  56  79 102 128 159 194 232
#     4   9  15  25  38  53  77 109 138 160 188 226
#     4   8  13  23  39  57  78 105 133 161 194 234
#     4   8  11  17  30  52  80 104 127 156 189 224
#
# _framework density 18.064882999999998
#
# number of rings (size 3 to 8) (size 9 to 14) (size 15 to 20)
#    0.000    3.429    1.429    2.143    0.000    1.714 
#    0.000    0.714    0.000    0.857    0.000    1.000 
#    0.000   10.571    0.000    0.000    0.000    0.000 
#
# Total GULP energy -311886.224180 kJ/mol
# GULP energy per Si atom -5569.396860 kJ/mol
# Density = 1.802377 g / cm^3
# Si number density = 18.064883 Si / 1000 Ang^3
#
#
#
# Elastic Constant Matrix: (Units=GPa)
#
#
# Indices 1 2 3 4 5 6 
#
# 1 58.8304 -0.1841 -0.5529 0.0000 0.0000 0.0000
# 2 -0.1841 184.0121 78.9675 0.0000 0.0000 0.0000
# 3 -0.5529 78.9675 92.7819 0.0000 0.0000 0.0000
# 4 0.0000 0.0000 0.0000 11.0914 0.0000 0.0000
# 5 0.0000 0.0000 0.0000 0.0000 5.0290 0.0000
# 6 0.0000 0.0000 0.0000 0.0000 0.0000 6.5424
#
#
#
# Elastic Compliance Matrix: (Units=1/GPa)
#
#
# Indices 1 2 3 4 5 6 
#
# 1 0.016999 -0.000042 0.000137 0.000000 0.000000 0.000000
# 2 -0.000042 0.008562 -0.007287 0.000000 0.000000 0.000000
# 3 0.000137 -0.007287 0.016981 0.000000 0.000000 0.000000
# 4 0.000000 0.000000 0.000000 0.090160 0.000000 0.000000
# 5 0.000000 0.000000 0.000000 0.000000 0.198847 0.000000
# 6 0.000000 0.000000 0.000000 0.000000 0.000000 0.152848
#
#
# Mechanical properties :
#
#
# Convention : Reuss Voigt Hill
#
# Bulk Modulus (GPa) = 35.51432 54.67614 45.09523
# Shear Modulus (GPa) = 9.83929 21.69217 15.76573
#
# Velocity S-wave (km/s) = 2.33634 3.46900 2.95740
# Velocity P-wave (km/s) = 5.19422 6.81011 6.05630
#
# Compressibility (1/GPa) = 0.02815765
#
# Stress axis : x y z
#
# Youngs Moduli (GPa) = 58.82642 116.80085 58.88977
#
# Poissons Ratio (x) = 0.00487 -0.00806
# Poissons Ratio (y) = 0.00245 0.42913
# Poissons Ratio (z) = -0.00805 0.85114
#
# Static dielectric constant tensor:
#      x y z
#    x 1.741010 0.000000 0.000000 
#    y 0.000000 1.662160 0.000000 
#    z 0.000000 0.000000 1.592080 
# 
# From -- ./inp_files/44645.got.cif
#   From: 2010.05.17/outbox.cif.g08.bks.cpg/sg64_23_cif.got.tgz:44645.got - 2010.06.03 16:29:19.
