data_PCOD9482806
_publ_section_title
;
Structure prediction by ZEFSAII (Michael W. Deem and Ramdas Pophale) SiO2 
 PCOD9482806
Probable space group: C M M M
;
_chemical_formula_sum "Si O2"
_cell_formula_units_Z 112
_cell_length_a 19.305235
_cell_length_b 19.950661
_cell_length_c 15.275819
_cell_angle_alpha 90.000000
_cell_angle_beta 90.000000
_cell_angle_gamma 90.000000
_cell_volume 5883.515280
_symmetry_space_group_name_H-M "C M M M"
_symmetry_group_IT_number 65
_symmetry_cell_setting 'orthorhombic'
loop_
_space_group_symop_operation_xyz
x,y,z
-x,-y,z
x,-y,-z
-x,y,-z
-x,-y,-z
x,y,-z
-x,y,z
x,-y,z
1/2+x,1/2+y,z
1/2-x,1/2-y,z
1/2+x,1/2-y,-z
1/2-x,1/2+y,-z
1/2-x,1/2-y,-z
1/2+x,1/2+y,-z
1/2-x,1/2+y,z
1/2+x,1/2-y,z
loop_
_atom_site_type_symbol
_atom_site_label
_atom_site_fract_x
_atom_site_fract_y
_atom_site_fract_z
Si Si1 0.266283 0.577890 0.214148
Si Si2 0.075470 0.605722 0.638733
Si Si3 0.608535 0.924851 0.840369
Si Si4 0.773191 0.423332 0.590885
Si Si5 0.578975 0.216417 0.097995
Si Si6 0.079923 0.234774 0.397034
Si Si7 0.676312 0.711710 0.236256
O O1 0.290707 0.500000 0.211537
O O2 0.192265 0.578652 0.166212
O O3 0.251114 0.600328 0.314947
O O4 0.313901 0.639896 0.187766
O O5 0.081913 0.588431 0.741407
O O6 0.143687 0.576264 0.595481
O O7 0.080042 0.685321 0.622006
O O8 0.000000 0.583162 0.607602
O O9 0.582078 0.864141 0.897687
O O10 0.589152 0.000000 0.866972
O O11 0.751883 0.388834 0.500000
O O12 0.749160 0.500000 0.587852
O O13 0.500000 0.237338 0.116699
O O14 0.629719 0.243044 0.172275
O O15 0.598039 0.238423 0.000000
O O16 0.096470 0.224237 0.500000
O O17 0.134206 0.205199 0.327592
O O18 0.000000 0.211934 0.382575
O O19 0.750000 0.750000 0.248356
#
# Coordination Sequence:
#
# PCOD9482806 Si02
#       7
#    16  16  16  16  16  16  16
#     4   9  19  35  55  81 114 148 188 236 290 344
#     4  10  17  27  43  66 102 147 189 226 270 322
#     4  10  19  35  56  81 116 154 189 231 283 343
#     4   9  17  28  41  63 101 143 182 227 272 319
#     4  11  24  41  61  87 118 153 193 239 293 351
#     4  10  21  35  53  80 116 154 193 244 298 346
#     4  12  21  37  62  89 114 153 199 242 293 345
#
# _framework density 19.036238999999998
#
# number of rings (size 3 to 8) (size 9 to 14) (size 15 to 20)
#    0.000    1.857    2.857    3.429    0.000    4.286 
#    0.000    1.429    0.000    2.143    0.000    2.000 
#    0.000    0.000    0.000    0.000    0.000    0.000 
#
# Total GULP energy -312176.598801 kJ/mol
# GULP energy per Si atom -5574.582121 kJ/mol
# Density = 1.899291 g / cm^3
# Si number density = 19.036239 Si / 1000 Ang^3
#
#
#
# Elastic Constant Matrix: (Units=GPa)
#
#
# Indices 1 2 3 4 5 6 
#
# 1 78.8376 29.8994 35.2870 0.0000 0.0000 0.0000
# 2 29.8994 80.3472 1.7844 0.0000 0.0000 0.0000
# 3 35.2870 1.7844 57.6232 0.0000 0.0000 0.0000
# 4 0.0000 0.0000 0.0000 132.2748 0.0000 0.0000
# 5 0.0000 0.0000 0.0000 0.0000 3.6906 0.0000
# 6 0.0000 0.0000 0.0000 0.0000 0.0000 14.6710
#
#
#
# Elastic Compliance Matrix: (Units=1/GPa)
#
#
# Indices 1 2 3 4 5 6 
#
# 1 0.021325 -0.007651 -0.012822 0.000000 0.000000 0.000000
# 2 -0.007651 0.015199 0.004214 0.000000 0.000000 0.000000
# 3 -0.012822 0.004214 0.025075 0.000000 0.000000 0.000000
# 4 0.000000 0.000000 0.000000 0.007560 0.000000 0.000000
# 5 0.000000 0.000000 0.000000 0.000000 0.270957 0.000000
# 6 0.000000 0.000000 0.000000 0.000000 0.000000 0.068162
#
#
# Mechanical properties :
#
#
# Convention : Reuss Voigt Hill
#
# Bulk Modulus (GPa) = 34.38396 38.97216 36.67806
# Shear Modulus (GPa) = 11.09904 40.11643 25.60774
#
# Velocity S-wave (km/s) = 2.41726 4.59559 3.67169
# Velocity P-wave (km/s) = 5.08846 6.97684 6.10609
#
# Compressibility (1/GPa) = 0.02908333
#
# Stress axis : x y z
#
# Youngs Moduli (GPa) = 46.89364 65.79179 39.87970
#
# Poissons Ratio (x) = 0.50336 0.51133
# Poissons Ratio (y) = 0.35877 -0.16807
# Poissons Ratio (z) = 0.60126 -0.27728
#
# Static dielectric constant tensor:
#      x y z
#    x 1.665050 0.000000 0.000000 
#    y 0.000000 1.707300 0.000000 
#    z 0.000000 0.000000 1.718440 
# 
# From -- ./inp_files/54841.got.cif
#   From: 2010.05.17/outbox.cif.g08.bks.cpg/sg65_28_cif.got.tgz:54841.got - 2010.06.03 17:01:31.
