data_PCOD9482980
_publ_section_title
;
Structure prediction by ZEFSAII (Michael W. Deem and Ramdas Pophale) SiO2 
 PCOD9482980
Probable space group: C M M M
;
_chemical_formula_sum "Si O2"
_cell_formula_units_Z 112
_cell_length_a 18.115216
_cell_length_b 21.559816
_cell_length_c 17.057828
_cell_angle_alpha 90.000000
_cell_angle_beta 90.000000
_cell_angle_gamma 90.000000
_cell_volume 6662.117649
_symmetry_space_group_name_H-M "C M M M"
_symmetry_group_IT_number 65
_symmetry_cell_setting 'orthorhombic'
loop_
_space_group_symop_operation_xyz
x,y,z
-x,-y,z
x,-y,-z
-x,y,-z
-x,-y,-z
x,y,-z
-x,y,z
x,-y,z
1/2+x,1/2+y,z
1/2-x,1/2-y,z
1/2+x,1/2-y,-z
1/2-x,1/2+y,-z
1/2-x,1/2-y,-z
1/2+x,1/2+y,-z
1/2-x,1/2+y,z
1/2+x,1/2-y,z
loop_
_atom_site_type_symbol
_atom_site_label
_atom_site_fract_x
_atom_site_fract_y
_atom_site_fract_z
Si Si1 0.918533 0.573158 0.292357
Si Si2 0.662621 0.766206 0.913581
Si Si3 0.341620 0.428553 0.092182
Si Si4 0.221454 0.180794 0.308731
Si Si5 0.413244 0.674204 0.202435
Si Si6 0.290138 0.926742 0.593477
Si Si7 0.193112 0.383235 0.165323
O O1 0.926955 0.500000 0.300368
O O2 0.868198 0.591287 0.366483
O O3 0.870149 0.583836 0.214720
O O4 0.000000 0.602155 0.289529
O O5 0.750000 0.750000 0.906751
O O6 0.614406 0.732032 0.849324
O O7 0.658751 0.839134 0.899891
O O8 0.638690 0.747348 0.000000
O O9 0.365161 0.500000 0.097009
O O10 0.389878 0.384607 0.148319
O O11 0.258225 0.422455 0.125847
O O12 0.343249 0.409794 0.000000
O O13 0.250000 0.250000 0.331278
O O14 0.136829 0.178254 0.280278
O O15 0.236193 0.125394 0.370445
O O16 0.267201 0.160730 0.230608
O O17 0.500000 0.674634 0.216895
O O18 0.292384 0.923769 0.500000
O O19 0.274053 0.000000 0.615054
#
# Coordination Sequence:
#
# PCOD9482980 Si02
#       7
#    16  16  16  16  16  16  16
#     4   9  18  31  49  75 107 137 165 204 254 306
#     4  11  19  32  52  72  97 133 175 219 263 309
#     4  10  20  33  50  71  97 134 179 226 273 321
#     4  10  18  35  55  79 104 136 175 214 259 309
#     4  11  22  35  51  74 104 137 172 220 273 321
#     4   9  19  35  57  83 108 136 173 213 254 312
#     4  10  17  31  51  74  96 134 176 215 254 307
#
# _framework density 16.811471000000001
#
# number of rings (size 3 to 8) (size 9 to 14) (size 15 to 20)
#    0.000    2.000    4.286    1.286    0.000    6.000 
#    0.000    2.143    0.000    1.714    0.000    6.000 
#    0.000    0.000    0.000    0.000    0.000    0.000 
#
# Total GULP energy -311828.722008 kJ/mol
# GULP energy per Si atom -5568.370036 kJ/mol
# Density = 1.677321 g / cm^3
# Si number density = 16.811471 Si / 1000 Ang^3
#
#
#
# Elastic Constant Matrix: (Units=GPa)
#
#
# Indices 1 2 3 4 5 6 
#
# 1 128.6983 31.6754 42.7900 0.0000 0.0000 0.0000
# 2 31.6754 59.0578 21.1087 0.0000 0.0000 0.0000
# 3 42.7900 21.1087 66.8825 0.0000 0.0000 0.0000
# 4 0.0000 0.0000 0.0000 23.3319 0.0000 0.0000
# 5 0.0000 0.0000 0.0000 0.0000 16.1954 0.0000
# 6 0.0000 0.0000 0.0000 0.0000 0.0000 15.2814
#
#
#
# Elastic Compliance Matrix: (Units=1/GPa)
#
#
# Indices 1 2 3 4 5 6 
#
# 1 0.010524 -0.003650 -0.005581 0.000000 0.000000 0.000000
# 2 -0.003650 0.020351 -0.004088 0.000000 0.000000 0.000000
# 3 -0.005581 -0.004088 0.019813 0.000000 0.000000 0.000000
# 4 0.000000 0.000000 0.000000 0.042860 0.000000 0.000000
# 5 0.000000 0.000000 0.000000 0.000000 0.061746 0.000000
# 6 0.000000 0.000000 0.000000 0.000000 0.000000 0.065439
#
#
# Mechanical properties :
#
#
# Convention : Reuss Voigt Hill
#
# Bulk Modulus (GPa) = 41.58004 49.53187 45.55595
# Shear Modulus (GPa) = 19.57812 21.56603 20.57207
#
# Velocity S-wave (km/s) = 3.41628 3.58553 3.50193
# Velocity P-wave (km/s) = 6.35202 6.83143 6.59608
#
# Compressibility (1/GPa) = 0.02405000
#
# Stress axis : x y z
#
# Youngs Moduli (GPa) = 95.02069 49.13711 50.47306
#
# Poissons Ratio (x) = 0.17933 0.28170
# Poissons Ratio (y) = 0.34679 0.20634
# Poissons Ratio (z) = 0.53033 0.20087
#
# Static dielectric constant tensor:
#      x y z
#    x 1.593430 0.000000 0.000000 
#    y 0.000000 1.634980 0.000000 
#    z 0.000000 0.000000 1.556250 
# 
# From -- ./inp_files/54894.got.cif
#   From: 2010.05.17/outbox.cif.g08.bks.cpg/sg65_28_cif.got.tgz:54894.got - 2010.06.03 17:01:31.
