data_PCOD9482127
_publ_section_title
;
Structure prediction by ZEFSAII (Michael W. Deem and Ramdas Pophale) SiO2 
 PCOD9482127
Probable space group: C M C A
;
_chemical_formula_sum "Si O2"
_cell_formula_units_Z 56
_cell_length_a 21.908748
_cell_length_b 11.248425
_cell_length_c 9.284472
_cell_angle_alpha 90.000000
_cell_angle_beta 90.000000
_cell_angle_gamma 90.000000
_cell_volume 2288.055148
_symmetry_space_group_name_H-M "C M C A"
_symmetry_group_IT_number 64
_symmetry_cell_setting 'orthorhombic'
loop_
_space_group_symop_operation_xyz
x,y,z
-x,1/2-y,1/2+z
x,-y,-z
-x,1/2+y,1/2-z
-x,-y,-z
x,1/2+y,1/2-z
-x,y,z
x,1/2-y,1/2+z
1/2+x,1/2+y,z
1/2-x,-y,1/2+z
1/2+x,1/2-y,-z
1/2-x,y,1/2-z
1/2-x,1/2-y,-z
1/2+x,y,1/2-z
1/2-x,1/2+y,z
1/2+x,-y,1/2+z
loop_
_atom_site_type_symbol
_atom_site_label
_atom_site_fract_x
_atom_site_fract_y
_atom_site_fract_z
Si Si1 0.682489 0.679242 0.303292
Si Si2 0.369183 0.139106 0.498981
Si Si3 0.000000 0.845762 0.908002
Si Si4 0.500000 0.587663 0.708380
Si Si5 0.893177 0.000000 0.500000
O O1 0.750000 0.649061 0.250000
O O2 0.644355 0.687431 0.158523
O O3 0.675720 0.802541 0.386889
O O4 0.650462 0.587514 0.411047
O O5 0.441219 0.161978 0.513199
O O6 0.359113 0.000000 0.500000
O O7 0.000000 0.734169 0.797248
O O8 0.000000 0.973511 0.822922
O O9 0.438814 0.560151 0.614823
#
# Coordination Sequence:
#
# PCOD9482127 Si02
#       5
#    16  16   8   8   8
#     4  12  29  53  81 116 169 225 294 348 426 513
#     4  12  30  50  80 122 166 224 284 353 435 519
#     4  12  25  48  81 125 176 216 283 349 446 526
#     4  11  24  46  83 125 175 217 275 363 435 522
#     4  11  24  48  82 120 162 229 280 356 432 507
#
# _framework density 24.474934999999999
#
# number of rings (size 3 to 8) (size 9 to 14) (size 15 to 20)
#    0.000    0.286    5.714    1.286   10.000    2.286 
#    0.000    0.000    0.000    0.000    0.000    0.000 
#    0.000    0.000    0.000    0.000    0.000    0.000 
#
# Total GULP energy -156757.543636 kJ/mol
# GULP energy per Si atom -5598.483701 kJ/mol
# Density = 2.441923 g / cm^3
# Si number density = 24.474935 Si / 1000 Ang^3
#
#
#
# Elastic Constant Matrix: (Units=GPa)
#
#
# Indices 1 2 3 4 5 6 
#
# 1 149.0131 32.6344 8.6847 0.0000 0.0000 0.0000
# 2 32.6344 130.4981 31.5790 0.0000 0.0000 0.0000
# 3 8.6847 31.5790 62.4241 0.0000 0.0000 0.0000
# 4 0.0000 0.0000 0.0000 45.6374 0.0000 0.0000
# 5 0.0000 0.0000 0.0000 0.0000 16.6965 0.0000
# 6 0.0000 0.0000 0.0000 0.0000 0.0000 32.0698
#
#
#
# Elastic Compliance Matrix: (Units=1/GPa)
#
#
# Indices 1 2 3 4 5 6 
#
# 1 0.007100 -0.001751 -0.000102 0.000000 0.000000 0.000000
# 2 -0.001751 0.009164 -0.004392 0.000000 0.000000 0.000000
# 3 -0.000102 -0.004392 0.018256 0.000000 0.000000 0.000000
# 4 0.000000 0.000000 0.000000 0.021912 0.000000 0.000000
# 5 0.000000 0.000000 0.000000 0.000000 0.059893 0.000000
# 6 0.000000 0.000000 0.000000 0.000000 0.000000 0.031182
#
#
# Mechanical properties :
#
#
# Convention : Reuss Voigt Hill
#
# Bulk Modulus (GPa) = 45.39417 54.19240 49.79329
# Shear Modulus (GPa) = 29.87939 36.81653 33.34796
#
# Velocity S-wave (km/s) = 3.49781 3.88268 3.69526
# Velocity P-wave (km/s) = 5.90765 6.50310 6.21252
#
# Compressibility (1/GPa) = 0.02202926
#
# Stress axis : x y z
#
# Youngs Moduli (GPa) = 140.84065 109.12694 54.77789
#
# Poissons Ratio (x) = 0.19107 0.00559
# Poissons Ratio (y) = 0.24660 0.24059
# Poissons Ratio (z) = 0.01438 0.47930
#
# Static dielectric constant tensor:
#      x y z
#    x 2.008520 0.000000 0.000000 
#    y 0.000000 1.960950 0.000000 
#    z 0.000000 0.000000 2.132120 
# 
# From -- ./inp_files/16730.got.cif
#   From: 2010.05.17/outbox.cif.g08.bks.cpg/sg64_9_cif.got.tgz:16730.got - 2010.06.03 16:29:19.
