data_PCOD9482281
_publ_section_title
;
Structure prediction by ZEFSAII (Michael W. Deem and Ramdas Pophale) SiO2 
 PCOD9482281
Probable space group: C M C A
;
_chemical_formula_sum "Si O2"
_cell_formula_units_Z 76
_cell_length_a 24.541775
_cell_length_b 12.039141
_cell_length_c 10.436805
_cell_angle_alpha 90.000000
_cell_angle_beta 90.000000
_cell_angle_gamma 90.000000
_cell_volume 3083.678127
_symmetry_space_group_name_H-M "C M C A"
_symmetry_group_IT_number 64
_symmetry_cell_setting 'orthorhombic'
loop_
_space_group_symop_operation_xyz
x,y,z
-x,1/2-y,1/2+z
x,-y,-z
-x,1/2+y,1/2-z
-x,-y,-z
x,1/2+y,1/2-z
-x,y,z
x,1/2-y,1/2+z
1/2+x,1/2+y,z
1/2-x,-y,1/2+z
1/2+x,1/2-y,-z
1/2-x,y,1/2-z
1/2-x,1/2-y,-z
1/2+x,y,1/2-z
1/2-x,1/2+y,z
1/2+x,-y,1/2+z
loop_
_atom_site_type_symbol
_atom_site_label
_atom_site_fract_x
_atom_site_fract_y
_atom_site_fract_z
Si Si1 0.250000 0.934608 0.750000
Si Si2 0.416076 0.183153 0.531958
Si Si3 0.308259 0.222237 0.437647
Si Si4 0.936929 0.624263 0.240183
Si Si5 0.149229 0.542830 0.862692
Si Si6 0.000000 0.500000 0.500000
O O1 0.292218 0.860019 0.673655
O O2 0.211228 0.004168 0.659669
O O3 0.430480 0.185681 0.378293
O O4 0.429384 0.287758 0.623244
O O5 0.350716 0.168823 0.537420
O O6 0.452652 0.078662 0.566143
O O7 0.250000 0.250000 0.500000
O O8 0.341103 0.326203 0.378131
O O9 0.000000 0.585301 0.239012
O O10 0.893307 0.523982 0.225913
O O11 0.130600 0.500000 0.000000
#
# Coordination Sequence:
#
# PCOD9482281 Si02
#       6
#     8  16  16  16  16   4
#     4  12  24  48  76 108 156 202 260 312 412 462
#     4  12  27  51  80 114 163 204 278 326 405 483
#     4  12  26  49  77 114 160 204 261 340 391 494
#     4  12  25  53  78 114 155 213 266 337 399 478
#     4  12  25  46  74 116 148 203 267 316 407 473
#     4  12  28  52  72 120 152 224 256 324 406 476
#
# _framework density 24.645890999999999
#
# number of rings (size 3 to 8) (size 9 to 14) (size 15 to 20)
#    0.000    0.000    8.421    0.632    0.000    3.789 
#    1.895    0.000    0.000    0.000    0.000    0.000 
#    0.000    0.000    0.000    0.000    0.000    0.000 
#
# Total GULP energy -211857.924918 kJ/mol
# GULP energy per Si atom -5575.208550 kJ/mol
# Density = 2.458980 g / cm^3
# Si number density = 24.645891 Si / 1000 Ang^3
#
#
#
# Elastic Constant Matrix: (Units=GPa)
#
#
# Indices 1 2 3 4 5 6 
#
# 1 213.9605 61.4025 40.7389 0.0000 0.0000 0.0000
# 2 61.4025 88.4221 31.9637 0.0000 0.0000 0.0000
# 3 40.7389 31.9637 120.6425 0.0000 0.0000 0.0000
# 4 0.0000 0.0000 0.0000 31.9017 0.0000 0.0000
# 5 0.0000 0.0000 0.0000 0.0000 28.6664 0.0000
# 6 0.0000 0.0000 0.0000 0.0000 0.0000 45.5577
#
#
#
# Elastic Compliance Matrix: (Units=1/GPa)
#
#
# Indices 1 2 3 4 5 6 
#
# 1 0.005946 -0.003764 -0.001011 0.000000 0.000000 0.000000
# 2 -0.003764 0.014890 -0.002674 0.000000 0.000000 0.000000
# 3 -0.001011 -0.002674 0.009339 0.000000 0.000000 0.000000
# 4 0.000000 0.000000 0.000000 0.031346 0.000000 0.000000
# 5 0.000000 0.000000 0.000000 0.000000 0.034884 0.000000
# 6 0.000000 0.000000 0.000000 0.000000 0.000000 0.021950
#
#
# Mechanical properties :
#
#
# Convention : Reuss Voigt Hill
#
# Bulk Modulus (GPa) = 65.45542 76.80392 71.12967
# Shear Modulus (GPa) = 36.14145 40.48648 38.31396
#
# Velocity S-wave (km/s) = 3.83355 4.05745 3.94709
# Velocity P-wave (km/s) = 6.79786 7.29254 7.04954
#
# Compressibility (1/GPa) = 0.01527757
#
# Stress axis : x y z
#
# Youngs Moduli (GPa) = 168.16920 67.16016 107.08100
#
# Poissons Ratio (x) = 0.25279 0.10823
# Poissons Ratio (y) = 0.63298 0.28633
# Poissons Ratio (z) = 0.16998 0.17958
#
# Static dielectric constant tensor:
#      x y z
#    x 1.803340 0.000000 0.000000 
#    y 0.000000 1.870650 0.000000 
#    z 0.000000 0.000000 1.854690 
# 
# From -- ./inp_files/19751.got.cif
#   From: 2010.05.17/outbox.cif.g08.bks.cpg/sg64_10_cif.got.tgz:19751.got - 2010.06.03 16:29:19.
