data_PCOD9482661
_publ_section_title
;
Structure prediction by ZEFSAII (Michael W. Deem and Ramdas Pophale) SiO2 
 PCOD9482661
Probable space group: C M M M
;
_chemical_formula_sum "Si O2"
_cell_formula_units_Z 80
_cell_length_a 17.570491
_cell_length_b 28.287571
_cell_length_c 8.266896
_cell_angle_alpha 90.000000
_cell_angle_beta 90.000000
_cell_angle_gamma 90.000000
_cell_volume 4108.866481
_symmetry_space_group_name_H-M "C M M M"
_symmetry_group_IT_number 65
_symmetry_cell_setting 'orthorhombic'
loop_
_space_group_symop_operation_xyz
x,y,z
-x,-y,z
x,-y,-z
-x,y,-z
-x,-y,-z
x,y,-z
-x,y,z
x,-y,z
1/2+x,1/2+y,z
1/2-x,1/2-y,z
1/2+x,1/2-y,-z
1/2-x,1/2+y,-z
1/2-x,1/2-y,-z
1/2+x,1/2+y,-z
1/2-x,1/2+y,z
1/2+x,1/2-y,z
loop_
_atom_site_type_symbol
_atom_site_label
_atom_site_fract_x
_atom_site_fract_y
_atom_site_fract_z
Si Si1 0.500000 0.553666 0.763627
Si Si2 0.351371 0.288424 0.196292
Si Si3 0.732501 0.138340 0.690014
Si Si4 0.164838 0.052918 0.808847
Si Si5 0.000000 0.161383 0.820785
Si Si6 0.412325 0.185197 0.804936
O O1 0.500000 0.500000 0.832928
O O2 0.587594 0.555222 0.701000
O O3 0.500000 0.605739 0.837822
O O4 0.276867 0.313204 0.265078
O O5 0.421944 0.320976 0.253526
O O6 0.376147 0.235813 0.243381
O O7 0.343138 0.289919 0.000000
O O8 0.735760 0.131028 0.500000
O O9 0.777369 0.095001 0.772641
O O10 0.645668 0.145336 0.745211
O O11 0.197292 0.000000 0.788223
O O12 0.141295 0.056975 0.000000
O O13 0.000000 0.184142 0.000000
O O14 0.500000 0.181571 0.749435
O O15 0.413156 0.184620 0.000000
#
# Coordination Sequence:
#
# PCOD9482661 Si02
#       6
#     8  16  16  16   8  16
#     4  10  18  29  54  88 114 142 186 239 284 318
#     4  10  19  35  58  83 110 146 192 238 277 319
#     4  12  25  37  53  81 119 157 185 218 276 344
#     4  10  20  36  60  86 111 144 190 240 281 320
#     4  10  16  27  52  81 113 145 182 235 283 316
#     4  10  21  39  63  86 106 137 189 246 290 327
#
# _framework density 19.470089000000002
#
# number of rings (size 3 to 8) (size 9 to 14) (size 15 to 20)
#    0.000    1.600    3.000    3.300    0.000    6.200 
#    0.000    2.000    0.000    2.400    0.000    4.200 
#    0.000    0.000    0.000    0.000    0.000    0.000 
#
# Total GULP energy -222754.223190 kJ/mol
# GULP energy per Si atom -5568.855580 kJ/mol
# Density = 1.942577 g / cm^3
# Si number density = 19.470089 Si / 1000 Ang^3
#
#
#
# Elastic Constant Matrix: (Units=GPa)
#
#
# Indices 1 2 3 4 5 6 
#
# 1 154.7331 74.0582 20.9442 0.0000 0.0000 0.0000
# 2 74.0582 110.9343 19.4492 0.0000 0.0000 0.0000
# 3 20.9442 19.4492 33.5863 0.0000 0.0000 0.0000
# 4 0.0000 0.0000 0.0000 -13.0905 0.0000 0.0000
# 5 0.0000 0.0000 0.0000 0.0000 86.7751 0.0000
# 6 0.0000 0.0000 0.0000 0.0000 0.0000 16.9538
#
#
#
# Elastic Compliance Matrix: (Units=1/GPa)
#
#
# Indices 1 2 3 4 5 6 
#
# 1 0.009691 -0.006021 -0.002556 0.000000 0.000000 0.000000
# 2 -0.006021 0.013774 -0.004222 0.000000 0.000000 0.000000
# 3 -0.002556 -0.004222 0.033813 0.000000 0.000000 0.000000
# 4 0.000000 0.000000 0.000000 -0.076391 0.000000 0.000000
# 5 0.000000 0.000000 0.000000 0.000000 0.011524 0.000000
# 6 0.000000 0.000000 0.000000 0.000000 0.000000 0.058984
#
#
# Mechanical properties :
#
#
# Convention : Reuss Voigt Hill
#
# Bulk Modulus (GPa) = 31.56618 58.68411 45.12514
# Shear Modulus (GPa) = 57.10899 30.44781 43.77840
#
# Velocity S-wave (km/s) = 5.42175 3.95881 4.74697
# Velocity P-wave (km/s) = 7.44591 7.14859 7.29877
#
# Compressibility (1/GPa) = 0.03167947
#
# Stress axis : x y z
#
# Youngs Moduli (GPa) = 103.19314 72.60002 29.57464
#
# Poissons Ratio (x) = 0.43713 0.07560
# Poissons Ratio (y) = 0.62134 0.12485
# Poissons Ratio (z) = 0.26379 0.30649
#
# Static dielectric constant tensor:
#      x y z
#    x 1.712810 0.000000 0.000000 
#    y 0.000000 1.666840 0.000000 
#    z 0.000000 0.000000 1.720280 
# 
# From -- ./inp_files/9743.got.cif
#   From: 2010.05.17/outbox.cif.g08.bks.cpg/sg65_5_cif.got.tgz:9743.got - 2010.06.03 17:01:31.
