data_PCOD9482541
_publ_section_title
;
Structure prediction by ZEFSAII (Michael W. Deem and Ramdas Pophale) SiO2 
 PCOD9482541
Probable space group: C M M M
;
_chemical_formula_sum "Si O2"
_cell_formula_units_Z 80
_cell_length_a 7.982990
_cell_length_b 14.615222
_cell_length_c 29.713874
_cell_angle_alpha 90.000000
_cell_angle_beta 90.000000
_cell_angle_gamma 90.000000
_cell_volume 3466.811904
_symmetry_space_group_name_H-M "C M M M"
_symmetry_group_IT_number 65
_symmetry_cell_setting 'orthorhombic'
loop_
_space_group_symop_operation_xyz
x,y,z
-x,-y,z
x,-y,-z
-x,y,-z
-x,-y,-z
x,y,-z
-x,y,z
x,-y,z
1/2+x,1/2+y,z
1/2-x,1/2-y,z
1/2+x,1/2-y,-z
1/2-x,1/2+y,-z
1/2-x,1/2-y,-z
1/2+x,1/2+y,-z
1/2-x,1/2+y,z
1/2+x,1/2-y,z
loop_
_atom_site_type_symbol
_atom_site_label
_atom_site_fract_x
_atom_site_fract_y
_atom_site_fract_z
Si Si1 0.500000 0.112508 0.552108
Si Si2 0.303545 0.143088 0.000000
Si Si3 0.198965 0.857146 0.903613
Si Si4 0.189768 0.893650 0.609702
Si Si5 0.798770 0.143735 0.289817
Si Si6 0.297112 0.642255 0.193042
O O1 0.500000 0.138626 0.500000
O O2 0.666923 0.145478 0.577738
O O3 0.500000 0.000000 0.554199
O O4 0.250000 0.250000 0.000000
O O5 0.247635 0.103597 0.047944
O O6 0.500000 0.140448 0.000000
O O7 0.250000 0.750000 0.904604
O O8 0.264077 0.893855 0.855460
O O9 0.000000 0.862523 0.901682
O O10 0.253338 0.891848 0.661470
O O11 0.000000 0.854081 0.607687
O O12 0.173591 0.000000 0.597253
O O13 0.750000 0.250000 0.290035
O O14 0.736344 0.106169 0.241553
O O15 0.000000 0.132638 0.289186
O O16 0.500000 0.633632 0.193253
O O17 0.250000 0.750000 0.192924
#
# Coordination Sequence:
#
# PCOD9482541 Si02
#       6
#     8   8  16  16  16  16
#     4   9  18  32  52  76  98 122 155 192 228 268
#     4  10  16  20  26  36  54  82 121 160 203 247
#     4   9  14  20  29  40  58  86 120 162 203 247
#     4   9  18  32  50  73  99 125 154 190 229 269
#     4   9  17  28  44  67  90 119 153 185 224 272
#     4   8  14  23  34  50  73  98 131 171 210 252
#
# _framework density 23.075956999999999
#
# number of rings (size 3 to 8) (size 9 to 14) (size 15 to 20)
#    0.000    3.100    0.000    2.700    1.400    1.200 
#    0.000    2.000    0.000    0.600    0.000    0.000 
#    0.000    0.000    0.000    0.900    0.000   25.400 
#
# Total GULP energy -222840.454218 kJ/mol
# GULP energy per Si atom -5571.011355 kJ/mol
# Density = 2.302343 g / cm^3
# Si number density = 23.075957 Si / 1000 Ang^3
#
#
#
# Elastic Constant Matrix: (Units=GPa)
#
#
# Indices 1 2 3 4 5 6 
#
# 1 75.1487 3.0791 90.9202 0.0000 0.0000 0.0000
# 2 3.0791 67.2913 9.4218 0.0000 0.0000 0.0000
# 3 90.9202 9.4218 271.5708 0.0000 0.0000 0.0000
# 4 0.0000 0.0000 0.0000 20.3731 0.0000 0.0000
# 5 0.0000 0.0000 0.0000 0.0000 24.9080 0.0000
# 6 0.0000 0.0000 0.0000 0.0000 0.0000 -5.0171
#
#
#
# Elastic Compliance Matrix: (Units=1/GPa)
#
#
# Indices 1 2 3 4 5 6 
#
# 1 0.022367 0.000025 -0.007489 0.000000 0.000000 0.000000
# 2 0.000025 0.014933 -0.000527 0.000000 0.000000 0.000000
# 3 -0.007489 -0.000527 0.006208 0.000000 0.000000 0.000000
# 4 0.000000 0.000000 0.000000 0.049084 0.000000 0.000000
# 5 0.000000 0.000000 0.000000 0.000000 0.040148 0.000000
# 6 0.000000 0.000000 0.000000 0.000000 0.000000 -0.199319
#
#
# Mechanical properties :
#
#
# Convention : Reuss Voigt Hill
#
# Bulk Modulus (GPa) = 36.32799 68.98366 52.65582
# Shear Modulus (GPa) = -120.70656 28.75879 -45.97389
#
# Velocity S-wave (km/s) = -7.24030 3.53408 -4.46834
# Velocity P-wave (km/s) = 7.35656 6.82730 1.93738
#
# Compressibility (1/GPa) = 0.02752698
#
# Stress axis : x y z
#
# Youngs Moduli (GPa) = 44.70916 66.96427 161.08612
#
# Poissons Ratio (x) = -0.00168 1.20639
# Poissons Ratio (y) = -0.00112 0.08481
# Poissons Ratio (z) = 0.33483 0.03526
#
# Static dielectric constant tensor:
#      x y z
#    x 1.834050 0.000000 0.000000 
#    y 0.000000 1.872960 0.000000 
#    z 0.000000 0.000000 1.954100 
# 
# From -- ./inp_files/73013.got.cif
#   From: 2010.05.17/outbox.cif.g08.bks.cpg/sg65_37_cif.got.tgz:73013.got - 2010.06.03 17:01:31.
