data_PCOD9482692
_publ_section_title
;
Structure prediction by ZEFSAII (Michael W. Deem and Ramdas Pophale) SiO2 
 PCOD9482692
Probable space group: C M M M
;
_chemical_formula_sum "Si O2"
_cell_formula_units_Z 46
_cell_length_a 12.967083
_cell_length_b 14.065110
_cell_length_c 10.102443
_cell_angle_alpha 90.000000
_cell_angle_beta 90.000000
_cell_angle_gamma 90.000000
_cell_volume 1842.518395
_symmetry_space_group_name_H-M "C M M M"
_symmetry_group_IT_number 65
_symmetry_cell_setting 'orthorhombic'
loop_
_space_group_symop_operation_xyz
x,y,z
-x,-y,z
x,-y,-z
-x,y,-z
-x,-y,-z
x,y,-z
-x,y,z
x,-y,z
1/2+x,1/2+y,z
1/2-x,1/2-y,z
1/2+x,1/2-y,-z
1/2-x,1/2+y,-z
1/2-x,1/2-y,-z
1/2+x,1/2+y,-z
1/2-x,1/2+y,z
1/2+x,1/2-y,z
loop_
_atom_site_type_symbol
_atom_site_label
_atom_site_fract_x
_atom_site_fract_y
_atom_site_fract_z
Si Si1 0.226201 0.108433 0.000000
Si Si2 0.881494 0.883779 0.500000
Si Si3 0.000000 0.332042 0.227307
Si Si4 0.000000 0.175920 0.000000
Si Si5 0.500000 0.000000 0.000000
Si Si6 0.713275 0.115496 0.713245
O O1 0.103686 0.114761 0.000000
O O2 0.268058 0.147753 0.863992
O O3 0.264716 0.000000 0.000000
O O4 0.810431 0.856465 0.375276
O O5 0.000000 0.850752 0.500000
O O6 0.886524 0.000000 0.500000
O O7 0.101155 0.344406 0.316913
O O8 0.000000 0.238962 0.133953
O O9 0.000000 0.417126 0.117617
O O10 0.709162 0.000000 0.707575
#
# Coordination Sequence:
#
# PCOD9482692 Si02
#       6
#     8   8   8   4   2  16
#     4  10  22  38  63  93 122 160 212 261 311 372
#     4   9  20  37  59  92 128 164 208 262 312 361
#     4  11  21  34  61  89 131 167 200 253 313 371
#     4  11  25  37  57  96 134 162 199 269 317 367
#     4  10  16  32  58  86 120 160 206 242 300 352
#     4  10  20  36  63  93 125 164 208 257 309 371
#
# _framework density 24.965828999999999
#
# number of rings (size 3 to 8) (size 9 to 14) (size 15 to 20)
#    0.000    1.913    1.739    2.348    4.870    3.478 
#    0.000    2.609    0.000    6.261    0.000    0.000 
#    0.000    0.000    0.000    0.000    0.000    1.043 
#
# Total GULP energy -128539.501281 kJ/mol
# GULP energy per Si atom -5588.673969 kJ/mol
# Density = 2.490901 g / cm^3
# Si number density = 24.965829 Si / 1000 Ang^3
#
#
#
# Elastic Constant Matrix: (Units=GPa)
#
#
# Indices 1 2 3 4 5 6 
#
# 1 249.7473 8.9438 95.8300 0.0000 0.0000 0.0000
# 2 8.9438 100.4779 14.8274 0.0000 0.0000 0.0000
# 3 95.8300 14.8274 116.0781 0.0000 0.0000 0.0000
# 4 0.0000 0.0000 0.0000 -15.5873 0.0000 0.0000
# 5 0.0000 0.0000 0.0000 0.0000 50.1297 0.0000
# 6 0.0000 0.0000 0.0000 0.0000 0.0000 12.9435
#
#
#
# Elastic Compliance Matrix: (Units=1/GPa)
#
#
# Indices 1 2 3 4 5 6 
#
# 1 0.005864 0.000196 -0.004866 0.000000 0.000000 0.000000
# 2 0.000196 0.010150 -0.001458 0.000000 0.000000 0.000000
# 3 -0.004866 -0.001458 0.012819 0.000000 0.000000 0.000000
# 4 0.000000 0.000000 0.000000 -0.064155 0.000000 0.000000
# 5 0.000000 0.000000 0.000000 0.000000 0.019948 0.000000
# 6 0.000000 0.000000 0.000000 0.000000 0.000000 0.077259
#
#
# Mechanical properties :
#
#
# Convention : Reuss Voigt Hill
#
# Bulk Modulus (GPa) = 60.32919 78.38954 69.35936
# Shear Modulus (GPa) = 62.76009 32.61066 47.68537
#
# Velocity S-wave (km/s) = 5.01926 3.61808 4.37513
# Velocity P-wave (km/s) = 7.60314 6.99434 7.30509
#
# Compressibility (1/GPa) = 0.01657572
#
# Stress axis : x y z
#
# Youngs Moduli (GPa) = 170.52318 98.52023 78.01085
#
# Poissons Ratio (x) = -0.01932 0.37963
# Poissons Ratio (y) = -0.03345 0.11378
# Poissons Ratio (z) = 0.82984 0.14369
#
# Static dielectric constant tensor:
#      x y z
#    x 1.983640 0.000000 0.000000 
#    y 0.000000 1.945070 0.000000 
#    z 0.000000 0.000000 2.065020 
# 
# From -- ./inp_files/21662.got.cif
#   From: 2010.05.17/outbox.cif.g08.bks.cpg/sg65_11_cif.got.tgz:21662.got - 2010.06.03 17:01:31.
