data_PCOD9482866
_publ_section_title
;
Structure prediction by ZEFSAII (Michael W. Deem and Ramdas Pophale) SiO2 
 PCOD9482866
Probable space group: C M M M
;
_chemical_formula_sum "Si O2"
_cell_formula_units_Z 44
_cell_length_a 21.408855
_cell_length_b 9.459633
_cell_length_c 13.153014
_cell_angle_alpha 90.000000
_cell_angle_beta 90.000000
_cell_angle_gamma 90.000000
_cell_volume 2663.747228
_symmetry_space_group_name_H-M "C M M M"
_symmetry_group_IT_number 65
_symmetry_cell_setting 'orthorhombic'
loop_
_space_group_symop_operation_xyz
x,y,z
-x,-y,z
x,-y,-z
-x,y,-z
-x,-y,-z
x,y,-z
-x,y,z
x,-y,z
1/2+x,1/2+y,z
1/2-x,1/2-y,z
1/2+x,1/2-y,-z
1/2-x,1/2+y,-z
1/2-x,1/2-y,-z
1/2+x,1/2+y,-z
1/2-x,1/2+y,z
1/2+x,1/2-y,z
loop_
_atom_site_type_symbol
_atom_site_label
_atom_site_fract_x
_atom_site_fract_y
_atom_site_fract_z
Si Si1 0.783494 0.000000 0.312213
Si Si2 0.123567 0.000000 0.500000
Si Si3 0.250000 0.250000 0.824688
Si Si4 0.864732 0.500000 0.338757
Si Si5 0.161197 0.500000 0.889741
Si Si6 0.927297 0.696192 0.500000
O O1 0.830979 0.000000 0.403356
O O2 0.789693 0.857613 0.245530
O O3 0.710718 0.000000 0.347809
O O4 0.082130 0.138360 0.500000
O O5 0.205198 0.359680 0.883064
O O6 0.876226 0.500000 0.217213
O O7 0.893632 0.630522 0.400816
O O8 0.129138 0.500000 0.000000
O O9 0.000000 0.658839 0.500000
#
# Coordination Sequence:
#
# PCOD9482866 Si02
#       6
#     8   4   8   8   8   8
#     4  10  18  29  48  74 101 124 154 195 241 283
#     4  12  19  28  48  76  99 118 156 202 242 286
#     4   8  17  29  40  66 104 135 150 176 231 292
#     4   9  19  34  51  70  95 129 160 191 234 282
#     4  10  17  28  47  71  98 127 158 190 231 282
#     4  11  22  35  50  67  94 131 164 196 236 283
#
# _framework density 16.518083000000001
#
# number of rings (size 3 to 8) (size 9 to 14) (size 15 to 20)
#    0.000    2.545    0.000    7.364    0.000    2.182 
#    0.000    0.000    0.000    2.182    0.000    0.000 
#    0.000    5.818    0.000    0.000    0.000    0.000 
#
# Total GULP energy -122504.732726 kJ/mol
# GULP energy per Si atom -5568.396942 kJ/mol
# Density = 1.648049 g / cm^3
# Si number density = 16.518083 Si / 1000 Ang^3
#
#
#
# Elastic Constant Matrix: (Units=GPa)
#
#
# Indices 1 2 3 4 5 6 
#
# 1 64.6961 19.7196 24.6940 0.0000 0.0000 0.0000
# 2 19.7196 144.1498 39.0711 0.0000 0.0000 0.0000
# 3 24.6940 39.0711 140.5454 0.0000 0.0000 0.0000
# 4 0.0000 0.0000 0.0000 43.6279 0.0000 0.0000
# 5 0.0000 0.0000 0.0000 0.0000 5.1880 0.0000
# 6 0.0000 0.0000 0.0000 0.0000 0.0000 -15.5003
#
#
#
# Elastic Compliance Matrix: (Units=1/GPa)
#
#
# Indices 1 2 3 4 5 6 
#
# 1 0.016915 -0.001631 -0.002519 0.000000 0.000000 0.000000
# 2 -0.001631 0.007660 -0.001843 0.000000 0.000000 0.000000
# 3 -0.002519 -0.001843 0.008070 0.000000 0.000000 0.000000
# 4 0.000000 0.000000 0.000000 0.022921 0.000000 0.000000
# 5 0.000000 0.000000 0.000000 0.000000 0.192752 0.000000
# 6 0.000000 0.000000 0.000000 0.000000 0.000000 -0.064515
#
#
# Mechanical properties :
#
#
# Convention : Reuss Voigt Hill
#
# Bulk Modulus (GPa) = 48.40307 57.37341 52.88824
# Shear Modulus (GPa) = 24.67002 24.39025 24.53013
#
# Velocity S-wave (km/s) = 3.86880 3.84680 3.85781
# Velocity P-wave (km/s) = 7.02307 7.38509 7.20635
#
# Compressibility (1/GPa) = 0.02065985
#
# Stress axis : x y z
#
# Youngs Moduli (GPa) = 59.11756 130.55043 123.91670
#
# Poissons Ratio (x) = 0.21298 0.31209
# Poissons Ratio (y) = 0.09644 0.22835
# Poissons Ratio (z) = 0.14889 0.24058
#
# Static dielectric constant tensor:
#      x y z
#    x 1.508160 0.000000 0.000000 
#    y 0.000000 1.580340 0.000000 
#    z 0.000000 0.000000 1.588660 
# 
# From -- ./inp_files/35008.got.cif
#   From: 2010.05.17/outbox.cif.g08.bks.cpg/sg65_18_cif.got.tgz:35008.got - 2010.06.03 17:01:31.
