data_PCOD9482288
_publ_section_title
;
Structure prediction by ZEFSAII (Michael W. Deem and Ramdas Pophale) SiO2 
 PCOD9482288
Probable space group: C M C A
;
_chemical_formula_sum "Si O2"
_cell_formula_units_Z 64
_cell_length_a 20.967625
_cell_length_b 15.882396
_cell_length_c 8.566954
_cell_angle_alpha 90.000000
_cell_angle_beta 90.000000
_cell_angle_gamma 90.000000
_cell_volume 2852.933811
_symmetry_space_group_name_H-M "C M C A"
_symmetry_group_IT_number 64
_symmetry_cell_setting 'orthorhombic'
loop_
_space_group_symop_operation_xyz
x,y,z
-x,1/2-y,1/2+z
x,-y,-z
-x,1/2+y,1/2-z
-x,-y,-z
x,1/2+y,1/2-z
-x,y,z
x,1/2-y,1/2+z
1/2+x,1/2+y,z
1/2-x,-y,1/2+z
1/2+x,1/2-y,-z
1/2-x,y,1/2-z
1/2-x,1/2-y,-z
1/2+x,y,1/2-z
1/2-x,1/2+y,z
1/2+x,-y,1/2+z
loop_
_atom_site_type_symbol
_atom_site_label
_atom_site_fract_x
_atom_site_fract_y
_atom_site_fract_z
Si Si1 0.627815 0.131504 0.794450
Si Si2 0.500000 0.905478 0.579257
Si Si3 0.366246 0.306261 0.950801
Si Si4 0.000000 0.469184 0.175358
Si Si5 0.297745 0.500000 0.500000
Si Si6 0.250000 0.126497 0.250000
O O1 0.653707 0.166204 0.627475
O O2 0.624044 0.207110 0.920032
O O3 0.559125 0.088670 0.775079
O O4 0.666103 0.055173 0.870765
O O5 0.565168 0.852871 0.561938
O O6 0.500000 0.000000 0.500000
O O7 0.500000 0.938489 0.752666
O O8 0.313712 0.327418 0.815800
O O9 0.000000 0.500000 0.000000
O O10 0.262215 0.568269 0.398355
#
# Coordination Sequence:
#
# PCOD9482288 Si02
#       6
#    16   8  16   8   8   8
#     4  12  26  47  74 110 152 196 255 313 384 454
#     4  12  25  48  78 107 148 197 247 307 379 452
#     4  12  28  48  74 111 153 199 250 318 385 452
#     4  12  25  42  76 110 147 197 249 306 372 460
#     4  12  26  45  74 103 140 200 250 316 372 458
#     4  12  28  48  76 108 152 200 260 314 380 462
#
# _framework density 22.433046999999998
#
# number of rings (size 3 to 8) (size 9 to 14) (size 15 to 20)
#    0.000    0.000    3.750    5.250    5.250    5.000 
#    0.000    0.000    0.000    0.000    0.000    0.000 
#    0.000    0.000    0.000    0.000    0.000    0.000 
#
# Total GULP energy -178402.368889 kJ/mol
# GULP energy per Si atom -5575.074028 kJ/mol
# Density = 2.238199 g / cm^3
# Si number density = 22.433047 Si / 1000 Ang^3
#
#
#
# Elastic Constant Matrix: (Units=GPa)
#
#
# Indices 1 2 3 4 5 6 
#
# 1 98.5306 43.5615 14.0397 0.0000 0.0000 0.0000
# 2 43.5615 120.9979 14.9738 0.0000 0.0000 0.0000
# 3 14.0397 14.9738 123.0891 0.0000 0.0000 0.0000
# 4 0.0000 0.0000 0.0000 51.4471 0.0000 0.0000
# 5 0.0000 0.0000 0.0000 0.0000 -35.3507 0.0000
# 6 0.0000 0.0000 0.0000 0.0000 0.0000 -100.9026
#
#
#
# Elastic Compliance Matrix: (Units=1/GPa)
#
#
# Indices 1 2 3 4 5 6 
#
# 1 0.012161 -0.004271 -0.000868 0.000000 0.000000 0.000000
# 2 -0.004271 0.009891 -0.000716 0.000000 0.000000 0.000000
# 3 -0.000868 -0.000716 0.008310 0.000000 0.000000 0.000000
# 4 0.000000 0.000000 0.000000 0.019437 0.000000 0.000000
# 5 0.000000 0.000000 0.000000 0.000000 -0.028288 0.000000
# 6 0.000000 0.000000 0.000000 0.000000 0.000000 -0.009911
#
#
# Mechanical properties :
#
#
# Convention : Reuss Voigt Hill
#
# Bulk Modulus (GPa) = 53.61033 54.19638 53.90336
# Shear Modulus (GPa) = 169.33396 1.04160 85.18778
#
# Velocity S-wave (km/s) = 8.69759 0.68215 6.16901
# Velocity P-wave (km/s) = 11.17201 4.98318 8.65003
#
# Compressibility (1/GPa) = 0.01865312
#
# Stress axis : x y z
#
# Youngs Moduli (GPa) = 82.23071 101.10419 120.33317
#
# Poissons Ratio (x) = 0.43179 0.10439
# Poissons Ratio (y) = 0.35119 0.08617
# Poissons Ratio (z) = 0.07134 0.07240
#
# Static dielectric constant tensor:
#      x y z
#    x 1.819730 0.000000 0.000000 
#    y 0.000000 1.798460 0.000000 
#    z 0.000000 0.000000 1.858920 
# 
# From -- ./inp_files/9040.got.cif
#   From: 2010.05.17/outbox.cif.g08.bks.cpg/sg64_5_cif.got.tgz:9040.got - 2010.06.03 16:29:19.
