data_PCOD9482255
_publ_section_title
;
Structure prediction by ZEFSAII (Michael W. Deem and Ramdas Pophale) SiO2 
 PCOD9482255
Probable space group: C M C A
;
_chemical_formula_sum "Si O2"
_cell_formula_units_Z 88
_cell_length_a 21.172632
_cell_length_b 14.663007
_cell_length_c 11.763529
_cell_angle_alpha 90.000000
_cell_angle_beta 90.000000
_cell_angle_gamma 90.000000
_cell_volume 3652.039940
_symmetry_space_group_name_H-M "C M C A"
_symmetry_group_IT_number 64
_symmetry_cell_setting 'orthorhombic'
loop_
_space_group_symop_operation_xyz
x,y,z
-x,1/2-y,1/2+z
x,-y,-z
-x,1/2+y,1/2-z
-x,-y,-z
x,1/2+y,1/2-z
-x,y,z
x,1/2-y,1/2+z
1/2+x,1/2+y,z
1/2-x,-y,1/2+z
1/2+x,1/2-y,-z
1/2-x,y,1/2-z
1/2-x,1/2-y,-z
1/2+x,y,1/2-z
1/2-x,1/2+y,z
1/2+x,-y,1/2+z
loop_
_atom_site_type_symbol
_atom_site_label
_atom_site_fract_x
_atom_site_fract_y
_atom_site_fract_z
Si Si1 0.381654 0.397190 0.500000
Si Si2 0.000000 0.240857 0.500000
Si Si3 0.863294 0.357249 0.760243
Si Si4 0.210746 0.500000 0.631371
Si Si5 0.363294 0.357249 0.260243
Si Si6 0.500000 0.102519 0.688672
Si Si7 0.000000 0.102519 0.188672
O O1 0.407610 0.500000 0.500000
O O2 0.437189 0.321317 0.500000
O O3 0.340663 0.385223 0.614233
O O4 0.340663 0.385223 0.385767
O O5 0.000000 0.311544 0.604564
O O6 0.000000 0.311544 0.395436
O O7 0.832157 0.410419 0.655918
O O8 0.856291 0.250000 0.750000
O O9 0.936555 0.386582 0.760154
O O10 0.231926 0.500000 0.500000
O O11 0.250000 0.500000 0.750000
O O12 0.167843 0.589581 0.655918
O O13 0.436555 0.386582 0.260154
O O14 0.500000 0.000000 0.638170
#
# Coordination Sequence:
#
# PCOD9482255 Si02
#       7
#    16   8  16  16  16   8   8
#     4  12  23  41  69 105 161 205 251 305 371 450
#     4  12  24  36  66 112 170 206 258 300 380 460
#     4  12  26  47  77 114 157 202 254 310 387 461
#     4  12  32  57  85 110 148 199 268 324 388 453
#     4  12  26  47  77 114 157 202 254 310 387 461
#     4  12  23  41  68 115 162 208 251 307 377 468
#     4  12  23  41  68 115 162 208 251 307 377 468
#
# _framework density 24.096122000000001
#
# number of rings (size 3 to 8) (size 9 to 14) (size 15 to 20)
#    0.000    0.000    7.273    2.182    7.636    0.727 
#    0.000    1.818    0.000    0.000    0.000    0.000 
#    0.000    0.000    0.000    0.000    0.000    0.000 
#
# Total GULP energy -246151.084339 kJ/mol
# GULP energy per Si atom -5594.342826 kJ/mol
# Density = 2.404128 g / cm^3
# Si number density = 24.096122 Si / 1000 Ang^3
#
#
#
# Elastic Constant Matrix: (Units=GPa)
#
#
# Indices 1 2 3 4 5 6 
#
# 1 47.2474 16.8698 41.3076 0.0000 0.0000 0.0000
# 2 16.8698 232.9787 56.6511 0.0000 0.0000 0.0000
# 3 41.3076 56.6511 200.3260 0.0000 0.0000 0.0000
# 4 0.0000 0.0000 0.0000 11.3995 0.0000 0.0000
# 5 0.0000 0.0000 0.0000 0.0000 32.5707 0.0000
# 6 0.0000 0.0000 0.0000 0.0000 0.0000 -37.6523
#
#
#
# Elastic Compliance Matrix: (Units=1/GPa)
#
#
# Indices 1 2 3 4 5 6 
#
# 1 0.025903 -0.000619 -0.005166 0.000000 0.000000 0.000000
# 2 -0.000619 0.004624 -0.001180 0.000000 0.000000 0.000000
# 3 -0.005166 -0.001180 0.006391 0.000000 0.000000 0.000000
# 4 0.000000 0.000000 0.000000 0.087723 0.000000 0.000000
# 5 0.000000 0.000000 0.000000 0.000000 0.030702 0.000000
# 6 0.000000 0.000000 0.000000 0.000000 0.000000 -0.026559
#
#
# Mechanical properties :
#
#
# Convention : Reuss Voigt Hill
#
# Bulk Modulus (GPa) = 43.50297 78.91213 61.20755
# Shear Modulus (GPa) = 33.24965 25.64515 29.44740
#
# Velocity S-wave (km/s) = 3.71870 3.26588 3.49962
# Velocity P-wave (km/s) = 6.04412 6.85866 6.46423
#
# Compressibility (1/GPa) = 0.02298694
#
# Stress axis : x y z
#
# Youngs Moduli (GPa) = 38.60560 216.26302 156.47519
#
# Poissons Ratio (x) = 0.13396 0.80836
# Poissons Ratio (y) = 0.02391 0.18463
# Poissons Ratio (z) = 0.19944 0.25517
#
# Static dielectric constant tensor:
#      x y z
#    x 2.031430 0.000000 0.000000 
#    y 0.000000 1.893140 0.000000 
#    z 0.000000 0.000000 1.995410 
# 
# From -- ./inp_files/18258.got.cif
#   From: 2010.05.17/outbox.cif.g08.bks.cpg/sg64_10_cif.got.tgz:18258.got - 2010.06.03 16:29:19.
