data_PCOD9482138
_publ_section_title
;
Structure prediction by ZEFSAII (Michael W. Deem and Ramdas Pophale) SiO2 
 PCOD9482138
Probable space group: C M C A
;
_chemical_formula_sum "Si O2"
_cell_formula_units_Z 64
_cell_length_a 19.610909
_cell_length_b 15.318706
_cell_length_c 10.417922
_cell_angle_alpha 90.000000
_cell_angle_beta 90.000000
_cell_angle_gamma 90.000000
_cell_volume 3129.687009
_symmetry_space_group_name_H-M "C M C A"
_symmetry_group_IT_number 64
_symmetry_cell_setting 'orthorhombic'
loop_
_space_group_symop_operation_xyz
x,y,z
-x,1/2-y,1/2+z
x,-y,-z
-x,1/2+y,1/2-z
-x,-y,-z
x,1/2+y,1/2-z
-x,y,z
x,1/2-y,1/2+z
1/2+x,1/2+y,z
1/2-x,-y,1/2+z
1/2+x,1/2-y,-z
1/2-x,y,1/2-z
1/2-x,1/2-y,-z
1/2+x,y,1/2-z
1/2-x,1/2+y,z
1/2+x,-y,1/2+z
loop_
_atom_site_type_symbol
_atom_site_label
_atom_site_fract_x
_atom_site_fract_y
_atom_site_fract_z
Si Si1 0.079014 0.144948 0.032135
Si Si2 0.076938 0.529681 0.702913
Si Si3 0.199764 0.464354 0.137561
Si Si4 0.294443 0.743128 0.627567
O O1 0.076821 0.056734 0.115766
O O2 0.134313 0.208170 0.097027
O O3 0.000000 0.177618 0.025360
O O4 0.100643 0.109840 0.889942
O O5 0.124421 0.508214 0.821920
O O6 0.000000 0.550005 0.741191
O O7 0.250000 0.494961 0.250000
O O8 0.195991 0.360100 0.142995
O O9 0.221538 0.500000 0.000000
O O10 0.250000 0.775726 0.750000
O O11 0.250000 0.750000 0.500000
#
# Coordination Sequence:
#
# PCOD9482138 Si02
#       4
#    16  16  16  16
#     4   9  19  39  68  92 121 167 207 251 316 384
#     4   9  20  40  65  93 123 160 210 255 308 382
#     4  11  26  41  63  92 126 169 208 262 317 373
#     4  11  25  41  60  95 127 158 210 264 311 374
#
# _framework density 20.449328999999999
#
# number of rings (size 3 to 8) (size 9 to 14) (size 15 to 20)
#    0.000    2.000    0.000    4.500   10.500    1.500 
#    0.000    1.250    0.000    0.000    0.000    0.000 
#    0.000    0.000    0.000    0.000    0.000    0.000 
#
# Total GULP energy -178568.102360 kJ/mol
# GULP energy per Si atom -5580.253199 kJ/mol
# Density = 2.040279 g / cm^3
# Si number density = 20.449329 Si / 1000 Ang^3
#
#
#
# Elastic Constant Matrix: (Units=GPa)
#
#
# Indices 1 2 3 4 5 6 
#
# 1 109.6437 39.3740 66.4155 0.0000 0.0000 0.0000
# 2 39.3740 55.6543 19.1218 0.0000 0.0000 0.0000
# 3 66.4155 19.1218 139.5150 0.0000 0.0000 0.0000
# 4 0.0000 0.0000 0.0000 25.0511 0.0000 0.0000
# 5 0.0000 0.0000 0.0000 0.0000 39.6981 0.0000
# 6 0.0000 0.0000 0.0000 0.0000 0.0000 30.6831
#
#
#
# Elastic Compliance Matrix: (Units=1/GPa)
#
#
# Indices 1 2 3 4 5 6 
#
# 1 0.016461 -0.009396 -0.006549 0.000000 0.000000 0.000000
# 2 -0.009396 0.024219 0.001153 0.000000 0.000000 0.000000
# 3 -0.006549 0.001153 0.010127 0.000000 0.000000 0.000000
# 4 0.000000 0.000000 0.000000 0.039918 0.000000 0.000000
# 5 0.000000 0.000000 0.000000 0.000000 0.025190 0.000000
# 6 0.000000 0.000000 0.000000 0.000000 0.000000 0.032591
#
#
# Mechanical properties :
#
#
# Convention : Reuss Voigt Hill
#
# Bulk Modulus (GPa) = 47.11344 61.62618 54.36981
# Shear Modulus (GPa) = 27.00299 31.07990 29.04144
#
# Velocity S-wave (km/s) = 3.63779 3.90275 3.77260
# Velocity P-wave (km/s) = 6.38230 7.10705 6.75440
#
# Compressibility (1/GPa) = 0.02122536
#
# Stress axis : x y z
#
# Youngs Moduli (GPa) = 60.74835 41.28954 98.74590
#
# Poissons Ratio (x) = 0.38796 0.64664
# Poissons Ratio (y) = 0.57079 -0.11390
# Poissons Ratio (z) = 0.39781 -0.04763
#
# Static dielectric constant tensor:
#      x y z
#    x 1.743290 0.000000 0.000000 
#    y 0.000000 2.121230 0.000000 
#    z 0.000000 0.000000 1.733340 
# 
# From -- ./inp_files/15494.got.cif
#   From: 2010.05.17/outbox.cif.g08.bks.cpg/sg64_8_cif.got.tgz:15494.got - 2010.06.03 16:29:19.
