data_PCOD9482548
_publ_section_title
;
Structure prediction by ZEFSAII (Michael W. Deem and Ramdas Pophale) SiO2 
 PCOD9482548
Probable space group: C M M M
;
_chemical_formula_sum "Si O2"
_cell_formula_units_Z 96
_cell_length_a 26.197156
_cell_length_b 22.201705
_cell_length_c 7.606126
_cell_angle_alpha 90.000000
_cell_angle_beta 90.000000
_cell_angle_gamma 90.000000
_cell_volume 4423.886637
_symmetry_space_group_name_H-M "C M M M"
_symmetry_group_IT_number 65
_symmetry_cell_setting 'orthorhombic'
loop_
_space_group_symop_operation_xyz
x,y,z
-x,-y,z
x,-y,-z
-x,y,-z
-x,-y,-z
x,y,-z
-x,y,z
x,-y,z
1/2+x,1/2+y,z
1/2-x,1/2-y,z
1/2+x,1/2-y,-z
1/2-x,1/2+y,-z
1/2-x,1/2-y,-z
1/2+x,1/2+y,-z
1/2-x,1/2+y,z
1/2+x,1/2-y,z
loop_
_atom_site_type_symbol
_atom_site_label
_atom_site_fract_x
_atom_site_fract_y
_atom_site_fract_z
Si Si1 0.558948 0.000000 0.761555
Si Si2 0.347761 0.652546 0.289988
Si Si3 0.945080 0.359219 0.299375
Si Si4 0.653941 0.789836 0.715795
Si Si5 0.237779 0.617764 0.713920
Si Si6 0.442817 0.568395 0.788633
Si Si7 0.327035 0.000000 0.716595
O O1 0.559053 0.068380 0.688350
O O2 0.618754 0.000000 0.813967
O O3 0.500000 0.000000 0.831905
O O4 0.342365 0.657038 0.500000
O O5 0.350320 0.721165 0.224543
O O6 0.295973 0.620958 0.223413
O O7 0.398378 0.614357 0.257427
O O8 0.947253 0.336973 0.500000
O O9 0.894759 0.328935 0.222712
O O10 0.000000 0.345287 0.214605
O O11 0.654287 0.790649 0.500000
O O12 0.705603 0.823697 0.769122
O O13 0.238751 0.617162 0.500000
O O14 0.205883 0.558668 0.761745
O O15 0.500000 0.585304 0.726911
O O16 0.431971 0.500000 0.726502
O O17 0.444700 0.566225 0.000000
O O18 0.336812 0.000000 0.500000
#
# Coordination Sequence:
#
# PCOD9482548 Si02
#       7
#     8  16  16  16  16  16   8
#     4  10  16  21  32  50  76 120 174 214 241 275
#     4  10  20  31  50  78 105 131 163 204 247 296
#     4   9  15  21  31  49  76 115 164 207 237 274
#     4   9  16  27  40  59  95 139 169 194 239 298
#     4   9  17  27  40  62  97 136 171 203 244 296
#     4   9  20  40  61  77  97 128 164 203 253 313
#     4  10  16  23  36  56  84 124 171 213 244 279
#
# _framework density 21.700374
#
# number of rings (size 3 to 8) (size 9 to 14) (size 15 to 20)
#    0.000    2.667    1.667    1.750    1.167    5.167 
#    0.000    2.500    0.000    2.000    0.000    0.000 
#    0.000    0.000    0.000    0.000    0.000   13.417 
#
# Total GULP energy -267296.323845 kJ/mol
# GULP energy per Si atom -5568.673413 kJ/mol
# Density = 2.165098 g / cm^3
# Si number density = 21.700374 Si / 1000 Ang^3
#
#
#
# Elastic Constant Matrix: (Units=GPa)
#
#
# Indices 1 2 3 4 5 6 
#
# 1 216.7150 112.8717 10.2053 0.0000 0.0000 0.0000
# 2 112.8717 141.2961 8.4719 0.0000 0.0000 0.0000
# 3 10.2053 8.4719 43.2384 0.0000 0.0000 0.0000
# 4 0.0000 0.0000 0.0000 9.6990 0.0000 0.0000
# 5 0.0000 0.0000 0.0000 0.0000 274.0518 0.0000
# 6 0.0000 0.0000 0.0000 0.0000 0.0000 24.6385
#
#
#
# Elastic Compliance Matrix: (Units=1/GPa)
#
#
# Indices 1 2 3 4 5 6 
#
# 1 0.007919 -0.006288 -0.000637 0.000000 0.000000 0.000000
# 2 -0.006288 0.012154 -0.000897 0.000000 0.000000 0.000000
# 3 -0.000637 -0.000897 0.023454 0.000000 0.000000 0.000000
# 4 0.000000 0.000000 0.000000 0.103104 0.000000 0.000000
# 5 0.000000 0.000000 0.000000 0.000000 0.003649 0.000000
# 6 0.000000 0.000000 0.000000 0.000000 0.000000 0.040587
#
#
# Mechanical properties :
#
#
# Convention : Reuss Voigt Hill
#
# Bulk Modulus (GPa) = 35.86484 73.81635 54.84059
# Shear Modulus (GPa) = 23.16895 79.65791 51.41343
#
# Velocity S-wave (km/s) = 3.27107 6.06529 4.87277
# Velocity P-wave (km/s) = 5.55245 9.11813 7.54884
#
# Compressibility (1/GPa) = 0.02788246
#
# Stress axis : x y z
#
# Youngs Moduli (GPa) = 126.27316 82.27617 42.63704
#
# Poissons Ratio (x) = 0.51735 0.02716
# Poissons Ratio (y) = 0.79401 0.03826
# Poissons Ratio (z) = 0.08045 0.07383
#
# Static dielectric constant tensor:
#      x y z
#    x 1.788250 0.000000 0.000000 
#    y 0.000000 1.741680 0.000000 
#    z 0.000000 0.000000 1.872470 
# 
# From -- ./inp_files/14335.got.cif
#   From: 2010.05.17/outbox.cif.g08.bks.cpg/sg65_8_cif.got.tgz:14335.got - 2010.06.03 17:01:31.
