data_PCOD9482838
_publ_section_title
;
Structure prediction by ZEFSAII (Michael W. Deem and Ramdas Pophale) SiO2 
 PCOD9482838
Probable space group: C M M M
;
_chemical_formula_sum "Si O2"
_cell_formula_units_Z 88
_cell_length_a 23.916000
_cell_length_b 25.116480
_cell_length_c 7.652538
_cell_angle_alpha 90.000000
_cell_angle_beta 90.000000
_cell_angle_gamma 90.000000
_cell_volume 4596.770418
_symmetry_space_group_name_H-M "C M M M"
_symmetry_group_IT_number 65
_symmetry_cell_setting 'orthorhombic'
loop_
_space_group_symop_operation_xyz
x,y,z
-x,-y,z
x,-y,-z
-x,y,-z
-x,-y,-z
x,y,-z
-x,y,z
x,-y,z
1/2+x,1/2+y,z
1/2-x,1/2-y,z
1/2+x,1/2-y,-z
1/2-x,1/2+y,-z
1/2-x,1/2-y,-z
1/2+x,1/2+y,-z
1/2-x,1/2+y,z
1/2+x,1/2-y,z
loop_
_atom_site_type_symbol
_atom_site_label
_atom_site_fract_x
_atom_site_fract_y
_atom_site_fract_z
Si Si1 0.564057 0.233019 0.210693
Si Si2 0.936880 0.852344 0.209641
Si Si3 0.655223 0.560076 0.709612
Si Si4 0.388785 0.122145 0.707207
Si Si5 0.500000 0.061959 0.285928
Si Si6 0.219563 0.438236 0.286990
O O1 0.500000 0.222217 0.268878
O O2 0.578905 0.292698 0.271092
O O3 0.603006 0.184890 0.267668
O O4 0.563800 0.233124 0.000000
O O5 0.892041 0.897204 0.250529
O O6 0.000000 0.864322 0.273641
O O7 0.940069 0.849293 0.000000
O O8 0.658610 0.556972 0.500000
O O9 0.642466 0.500000 0.773594
O O10 0.717564 0.575389 0.772819
O O11 0.388275 0.111651 0.500000
O O12 0.444064 0.092019 0.775963
O O13 0.330861 0.098474 0.777537
O O14 0.500000 0.063756 0.500000
O O15 0.500000 0.000000 0.236213
O O16 0.220232 0.435482 0.500000
O O17 0.208805 0.500000 0.241916
#
# Coordination Sequence:
#
# PCOD9482838 Si02
#       6
#    16  16  16  16   8  16
#     4   9  18  33  49  65  93 130 160 193 242 289
#     4   9  19  35  53  72  94 124 160 194 235 288
#     4   9  18  33  52  74  99 126 155 189 235 287
#     4  10  17  27  47  73  95 122 164 204 235 273
#     4   9  16  24  39  69 101 121 150 201 244 271
#     4   8  15  29  48  69  97 131 160 190 234 285
#
# _framework density 19.143874
#
# number of rings (size 3 to 8) (size 9 to 14) (size 15 to 20)
#    0.000    3.000    0.909    2.727    0.000    4.000 
#    0.000    5.455    0.000    9.273    0.000    0.000 
#    0.000    0.000    0.000    0.000    0.000    0.000 
#
# Total GULP energy -245300.024952 kJ/mol
# GULP energy per Si atom -5575.000567 kJ/mol
# Density = 1.910030 g / cm^3
# Si number density = 19.143874 Si / 1000 Ang^3
#
#
#
# Elastic Constant Matrix: (Units=GPa)
#
#
# Indices 1 2 3 4 5 6 
#
# 1 172.8318 135.4616 6.3282 0.0000 0.0000 0.0000
# 2 135.4616 158.3386 -0.7366 0.0000 0.0000 0.0000
# 3 6.3282 -0.7366 30.4016 0.0000 0.0000 0.0000
# 4 0.0000 0.0000 0.0000 27.9988 0.0000 0.0000
# 5 0.0000 0.0000 0.0000 0.0000 36.3993 0.0000
# 6 0.0000 0.0000 0.0000 0.0000 0.0000 31.5267
#
#
#
# Elastic Compliance Matrix: (Units=1/GPa)
#
#
# Indices 1 2 3 4 5 6 
#
# 1 0.018067 -0.015476 -0.004136 0.000000 0.000000 0.000000
# 2 -0.015476 0.019573 0.003696 0.000000 0.000000 0.000000
# 3 -0.004136 0.003696 0.033843 0.000000 0.000000 0.000000
# 4 0.000000 0.000000 0.000000 0.035716 0.000000 0.000000
# 5 0.000000 0.000000 0.000000 0.000000 0.027473 0.000000
# 6 0.000000 0.000000 0.000000 0.000000 0.000000 0.031719
#
#
# Mechanical properties :
#
#
# Convention : Reuss Voigt Hill
#
# Bulk Modulus (GPa) = 25.21996 71.51981 48.36989
# Shear Modulus (GPa) = 23.64731 33.88623 28.76677
#
# Velocity S-wave (km/s) = 3.51841 4.21180 3.88062
# Velocity P-wave (km/s) = 5.45052 7.81617 6.73798
#
# Compressibility (1/GPa) = 0.03965114
#
# Stress axis : x y z
#
# Youngs Moduli (GPa) = 55.34912 51.09137 29.54785
#
# Poissons Ratio (x) = 0.79069 0.12220
# Poissons Ratio (y) = 0.85658 -0.10920
# Poissons Ratio (z) = 0.22891 -0.18881
#
# Static dielectric constant tensor:
#      x y z
#    x 1.665560 0.000000 0.000000 
#    y 0.000000 1.654300 0.000000 
#    z 0.000000 0.000000 1.729120 
# 
# From -- ./inp_files/28692.got.cif
#   From: 2010.05.17/outbox.cif.g08.bks.cpg/sg65_15_cif.got.tgz:28692.got - 2010.06.03 17:01:31.
