data_PCOD9482225
_publ_section_title
;
Structure prediction by ZEFSAII (Michael W. Deem and Ramdas Pophale) SiO2 
 PCOD9482225
Probable space group: C M C A
;
_chemical_formula_sum "Si O2"
_cell_formula_units_Z 80
_cell_length_a 18.602117
_cell_length_b 12.846814
_cell_length_c 17.050901
_cell_angle_alpha 90.000000
_cell_angle_beta 90.000000
_cell_angle_gamma 90.000000
_cell_volume 4074.789147
_symmetry_space_group_name_H-M "C M C A"
_symmetry_group_IT_number 64
_symmetry_cell_setting 'orthorhombic'
loop_
_space_group_symop_operation_xyz
x,y,z
-x,1/2-y,1/2+z
x,-y,-z
-x,1/2+y,1/2-z
-x,-y,-z
x,1/2+y,1/2-z
-x,y,z
x,1/2-y,1/2+z
1/2+x,1/2+y,z
1/2-x,-y,1/2+z
1/2+x,1/2-y,-z
1/2-x,y,1/2-z
1/2-x,1/2-y,-z
1/2+x,y,1/2-z
1/2-x,1/2+y,z
1/2+x,-y,1/2+z
loop_
_atom_site_type_symbol
_atom_site_label
_atom_site_fract_x
_atom_site_fract_y
_atom_site_fract_z
Si Si1 0.722583 0.689047 0.642626
Si Si2 0.655612 0.565346 0.786475
Si Si3 0.750000 0.124299 0.250000
Si Si4 0.000000 0.432605 0.136713
Si Si5 0.000000 0.340480 0.894828
Si Si6 0.500000 0.873181 0.303448
Si Si7 0.873888 0.113350 0.516366
O O1 0.670375 0.643216 0.712277
O O2 0.789692 0.609866 0.648229
O O3 0.748743 0.800614 0.674358
O O4 0.683206 0.687116 0.559323
O O5 0.682403 0.453155 0.757171
O O6 0.574844 0.567734 0.816641
O O7 0.000000 0.554961 0.157703
O O8 0.000000 0.358249 0.210037
O O9 0.068003 0.413606 0.082983
O O10 0.000000 0.234861 0.847813
O O11 0.073740 0.346648 0.946944
O O12 0.839411 0.000000 0.500000
#
# Coordination Sequence:
#
# PCOD9482225 Si02
#       7
#    16  16   8   8   8   8  16
#     4   9  17  36  61  87 116 152 200 254 300 366
#     4   9  20  34  57  87 123 145 203 264 289 359
#     4   8  18  36  56  88 114 152 198 252 300 330
#     4   9  18  33  57  90 126 157 199 245 304 361
#     4   9  22  35  58  93 132 152 208 254 296 387
#     4  12  20  36  57  91 118 154 202 251 312 346
#     4   9  17  37  59  89 124 162 197 251 306 367
#
# _framework density 19.632916999999999
#
# number of rings (size 3 to 8) (size 9 to 14) (size 15 to 20)
#    0.000    3.200    2.000    1.200    0.000    3.200 
#    7.200    2.000    0.000    1.200    0.000    0.000 
#    0.000    0.000    0.000    0.000    0.000    0.000 
#
# Total GULP energy -222709.335249 kJ/mol
# GULP energy per Si atom -5567.733381 kJ/mol
# Density = 1.958823 g / cm^3
# Si number density = 19.632917 Si / 1000 Ang^3
#
#
#
# Elastic Constant Matrix: (Units=GPa)
#
#
# Indices 1 2 3 4 5 6 
#
# 1 126.8711 46.9125 20.8932 0.0000 0.0000 0.0000
# 2 46.9125 126.7334 44.8505 0.0000 0.0000 0.0000
# 3 20.8932 44.8505 59.7034 0.0000 0.0000 0.0000
# 4 0.0000 0.0000 0.0000 33.7406 0.0000 0.0000
# 5 0.0000 0.0000 0.0000 0.0000 30.9536 0.0000
# 6 0.0000 0.0000 0.0000 0.0000 0.0000 0.1640
#
#
#
# Elastic Compliance Matrix: (Units=1/GPa)
#
#
# Indices 1 2 3 4 5 6 
#
# 1 0.009167 -0.003076 -0.000897 0.000000 0.000000 0.000000
# 2 -0.003076 0.011780 -0.007773 0.000000 0.000000 0.000000
# 3 -0.000897 -0.007773 0.022903 0.000000 0.000000 0.000000
# 4 0.000000 0.000000 0.000000 0.029638 0.000000 0.000000
# 5 0.000000 0.000000 0.000000 0.000000 0.032306 0.000000
# 6 0.000000 0.000000 0.000000 0.000000 0.000000 6.095766
#
#
# Mechanical properties :
#
#
# Convention : Reuss Voigt Hill
#
# Bulk Modulus (GPa) = 49.12212 59.84671 54.48441
# Shear Modulus (GPa) = 0.80233 26.34841 13.57537
#
# Velocity S-wave (km/s) = 0.63996 3.66738 2.63241
# Velocity P-wave (km/s) = 5.06169 6.96289 6.08698
#
# Compressibility (1/GPa) = 0.02035743
#
# Stress axis : x y z
#
# Youngs Moduli (GPa) = 109.08556 84.88981 43.66277
#
# Poissons Ratio (x) = 0.26110 0.03919
# Poissons Ratio (y) = 0.33552 0.33939
# Poissons Ratio (z) = 0.09790 0.65985
#
# Static dielectric constant tensor:
#      x y z
#    x 1.760310 0.000000 0.000000 
#    y 0.000000 1.691450 0.000000 
#    z 0.000000 0.000000 1.730620 
# 
# From -- ./inp_files/34091.got.cif
#   From: 2010.05.17/outbox.cif.g08.bks.cpg/sg64_18_cif.got.tgz:34091.got - 2010.06.03 16:29:19.
