data_PCOD9482876
_publ_section_title
;
Structure prediction by ZEFSAII (Michael W. Deem and Ramdas Pophale) SiO2 
 PCOD9482876
Probable space group: C M M M
;
_chemical_formula_sum "Si O2"
_cell_formula_units_Z 88
_cell_length_a 21.522415
_cell_length_b 29.733147
_cell_length_c 7.851935
_cell_angle_alpha 90.000000
_cell_angle_beta 90.000000
_cell_angle_gamma 90.000000
_cell_volume 5024.681925
_symmetry_space_group_name_H-M "C M M M"
_symmetry_group_IT_number 65
_symmetry_cell_setting 'orthorhombic'
loop_
_space_group_symop_operation_xyz
x,y,z
-x,-y,z
x,-y,-z
-x,y,-z
-x,-y,-z
x,y,-z
-x,y,z
x,-y,z
1/2+x,1/2+y,z
1/2-x,1/2-y,z
1/2+x,1/2-y,-z
1/2-x,1/2+y,-z
1/2-x,1/2-y,-z
1/2+x,1/2+y,-z
1/2-x,1/2+y,z
1/2+x,1/2-y,z
loop_
_atom_site_type_symbol
_atom_site_label
_atom_site_fract_x
_atom_site_fract_y
_atom_site_fract_z
Si Si1 0.377600 0.606664 0.706948
Si Si2 0.574969 0.864259 0.500000
Si Si3 0.000000 0.051666 0.707857
Si Si4 0.661793 0.052510 0.500000
Si Si5 0.924440 0.301376 0.811427
Si Si6 0.427500 0.297892 0.705959
Si Si7 0.756990 0.947735 0.193355
O O1 0.374790 0.605259 0.500000
O O2 0.438016 0.577968 0.760367
O O3 0.389023 0.658333 0.757946
O O4 0.315633 0.584256 0.777019
O O5 0.500000 0.867136 0.500000
O O6 0.605498 0.912906 0.500000
O O7 0.595146 0.835423 0.335383
O O8 0.000000 0.051715 0.500000
O O9 0.000000 0.000000 0.764501
O O10 0.704646 0.060617 0.665703
O O11 0.643155 0.000000 0.500000
O O12 0.905281 0.249930 0.776126
O O13 0.000000 0.300435 0.805669
O O14 0.905056 0.315430 0.000000
O O15 0.426573 0.295057 0.500000
O O16 0.500000 0.304498 0.755284
O O17 0.777238 0.000000 0.216174
O O18 0.733886 0.942844 0.000000
#
# Coordination Sequence:
#
# PCOD9482876 Si02
#       7
#    16   8   8   8  16  16  16
#     4  10  17  28  48  75 105 144 190 239 282 318
#     4  10  20  37  61  91 116 134 159 203 260 324
#     4   9  16  24  39  69 105 142 185 237 294 330
#     4  10  22  41  63  84 109 139 170 208 259 319
#     4   9  17  30  51  80 113 147 175 207 255 316
#     4   9  15  26  45  73 110 145 186 230 273 316
#     4  10  21  37  56  77 103 143 193 232 263 312
#
# _framework density 17.513546999999999
#
# number of rings (size 3 to 8) (size 9 to 14) (size 15 to 20)
#    0.000    2.455    2.727    0.545    0.000    2.364 
#    0.000    0.455    0.000    3.818    0.000    7.636 
#    0.000    0.000    0.000    0.000    0.000    0.000 
#
# Total GULP energy -245438.182749 kJ/mol
# GULP energy per Si atom -5578.140517 kJ/mol
# Density = 1.747369 g / cm^3
# Si number density = 17.513547 Si / 1000 Ang^3
#
#
#
# Elastic Constant Matrix: (Units=GPa)
#
#
# Indices 1 2 3 4 5 6 
#
# 1 36.5269 48.9075 31.4044 0.0000 0.0000 0.0000
# 2 48.9075 122.0680 58.0058 0.0000 0.0000 0.0000
# 3 31.4044 58.0058 97.9955 0.0000 0.0000 0.0000
# 4 0.0000 0.0000 0.0000 7.8392 0.0000 0.0000
# 5 0.0000 0.0000 0.0000 0.0000 0.5111 0.0000
# 6 0.0000 0.0000 0.0000 0.0000 0.0000 20.3030
#
#
#
# Elastic Compliance Matrix: (Units=1/GPa)
#
#
# Indices 1 2 3 4 5 6 
#
# 1 0.062557 -0.021618 -0.007251 0.000000 0.000000 0.000000
# 2 -0.021618 0.018869 -0.004241 0.000000 0.000000 0.000000
# 3 -0.007251 -0.004241 0.015039 0.000000 0.000000 0.000000
# 4 0.000000 0.000000 0.000000 0.127564 0.000000 0.000000
# 5 0.000000 0.000000 0.000000 0.000000 1.956728 0.000000
# 6 0.000000 0.000000 0.000000 0.000000 0.000000 0.049254
#
#
# Mechanical properties :
#
#
# Convention : Reuss Voigt Hill
#
# Bulk Modulus (GPa) = 33.06469 59.24731 46.15600
# Shear Modulus (GPa) = 2.16796 13.61550 7.89173
#
# Velocity S-wave (km/s) = 1.11381 2.79126 2.12505
# Velocity P-wave (km/s) = 4.53592 6.65515 5.69498
#
# Compressibility (1/GPa) = 0.03024375
#
# Stress axis : x y z
#
# Youngs Moduli (GPa) = 15.98544 52.99713 66.49517
#
# Poissons Ratio (x) = 1.14570 0.48217
# Poissons Ratio (y) = 0.34558 0.28201
# Poissons Ratio (z) = 0.11591 0.22476
#
# Static dielectric constant tensor:
#      x y z
#    x 1.549740 0.000000 0.000000 
#    y 0.000000 1.585090 0.000000 
#    z 0.000000 0.000000 1.633900 
# 
# From -- ./inp_files/12700.got.cif
#   From: 2010.05.17/outbox.cif.g08.bks.cpg/sg65_7_cif.got.tgz:12700.got - 2010.06.03 17:01:31.
