data_PCOD9482187
_publ_section_title
;
Structure prediction by ZEFSAII (Michael W. Deem and Ramdas Pophale) SiO2 
 PCOD9482187
Probable space group: C M C A
;
_chemical_formula_sum "Si O2"
_cell_formula_units_Z 64
_cell_length_a 26.287424
_cell_length_b 10.403549
_cell_length_c 8.637986
_cell_angle_alpha 90.000000
_cell_angle_beta 90.000000
_cell_angle_gamma 90.000000
_cell_volume 2362.338038
_symmetry_space_group_name_H-M "C M C A"
_symmetry_group_IT_number 64
_symmetry_cell_setting 'orthorhombic'
loop_
_space_group_symop_operation_xyz
x,y,z
-x,1/2-y,1/2+z
x,-y,-z
-x,1/2+y,1/2-z
-x,-y,-z
x,1/2+y,1/2-z
-x,y,z
x,1/2-y,1/2+z
1/2+x,1/2+y,z
1/2-x,-y,1/2+z
1/2+x,1/2-y,-z
1/2-x,y,1/2-z
1/2-x,1/2-y,-z
1/2+x,y,1/2-z
1/2-x,1/2+y,z
1/2+x,-y,1/2+z
loop_
_atom_site_type_symbol
_atom_site_label
_atom_site_fract_x
_atom_site_fract_y
_atom_site_fract_z
Si Si1 0.696400 0.701963 0.419806
Si Si2 0.301841 0.462346 0.179700
Si Si3 0.059313 0.092328 0.281194
Si Si4 0.600909 0.834515 0.111664
O O1 0.750000 0.750000 0.500000
O O2 0.668524 0.828156 0.351087
O O3 0.694401 0.591888 0.285625
O O4 0.658383 0.649045 0.549899
O O5 0.250000 0.407373 0.250000
O O6 0.414963 0.452399 0.277253
O O7 0.294789 0.500000 0.000000
O O8 0.086896 0.194809 0.172834
O O9 0.067183 0.141194 0.456716
O O10 0.000000 0.083680 0.243949
#
# Coordination Sequence:
#
# PCOD9482187 Si02
#       4
#    16  16  16  16
#     4  12  30  53  80 128 181 245 303 370 440 541
#     4  12  28  54  85 117 170 241 310 368 439 515
#     4  11  25  54  89 127 169 219 294 388 468 543
#     4  11  28  50  83 125 173 230 293 365 466 549
#
# _framework density 27.091804
#
# number of rings (size 3 to 8) (size 9 to 14) (size 15 to 20)
#    0.000    0.500    2.500    3.750    3.500   11.000 
#    0.000    2.500    0.000    0.000    0.000    0.000 
#    0.000    0.000    0.000    0.000    0.000    0.000 
#
# Total GULP energy -179011.669161 kJ/mol
# GULP energy per Si atom -5594.114661 kJ/mol
# Density = 2.703014 g / cm^3
# Si number density = 27.091804 Si / 1000 Ang^3
#
#
#
# Elastic Constant Matrix: (Units=GPa)
#
#
# Indices 1 2 3 4 5 6 
#
# 1 198.1581 77.8663 31.8863 0.0000 0.0000 0.0000
# 2 77.8663 161.9558 82.7838 0.0000 0.0000 0.0000
# 3 31.8863 82.7838 136.0100 0.0000 0.0000 0.0000
# 4 0.0000 0.0000 0.0000 82.5453 0.0000 0.0000
# 5 0.0000 0.0000 0.0000 0.0000 35.0029 0.0000
# 6 0.0000 0.0000 0.0000 0.0000 0.0000 42.4002
#
#
#
# Elastic Compliance Matrix: (Units=1/GPa)
#
#
# Indices 1 2 3 4 5 6 
#
# 1 0.006248 -0.003274 0.000528 0.000000 0.000000 0.000000
# 2 -0.003274 0.010678 -0.005732 0.000000 0.000000 0.000000
# 3 0.000528 -0.005732 0.010718 0.000000 0.000000 0.000000
# 4 0.000000 0.000000 0.000000 0.012115 0.000000 0.000000
# 5 0.000000 0.000000 0.000000 0.000000 0.028569 0.000000
# 6 0.000000 0.000000 0.000000 0.000000 0.000000 0.023585
#
#
# Mechanical properties :
#
#
# Convention : Reuss Voigt Hill
#
# Bulk Modulus (GPa) = 93.56290 97.91075 95.73682
# Shear Modulus (GPa) = 44.47180 52.22887 48.35033
#
# Velocity S-wave (km/s) = 4.05597 4.39549 4.22914
# Velocity P-wave (km/s) = 7.51964 7.87269 7.69819
#
# Compressibility (1/GPa) = 0.01068800
#
# Stress axis : x y z
#
# Youngs Moduli (GPa) = 160.05235 93.64685 93.30525
#
# Poissons Ratio (x) = 0.30657 -0.04925
# Poissons Ratio (y) = 0.52397 0.53483
# Poissons Ratio (z) = -0.08448 0.53679
#
# Static dielectric constant tensor:
#      x y z
#    x 2.293360 0.000000 0.000000 
#    y 0.000000 2.119610 0.000000 
#    z 0.000000 0.000000 2.398250 
# 
# From -- ./inp_files/8975.got.cif
#   From: 2010.05.17/outbox.cif.g08.bks.cpg/sg64_5_cif.got.tgz:8975.got - 2010.06.03 16:29:19.
