data_PCOD9482658
_publ_section_title
;
Structure prediction by ZEFSAII (Michael W. Deem and Ramdas Pophale) SiO2 
 PCOD9482658
Probable space group: C M M M
;
_chemical_formula_sum "Si O2"
_cell_formula_units_Z 82
_cell_length_a 14.598948
_cell_length_b 21.350573
_cell_length_c 11.901322
_cell_angle_alpha 90.000000
_cell_angle_beta 90.000000
_cell_angle_gamma 90.000000
_cell_volume 3709.593331
_symmetry_space_group_name_H-M "C M M M"
_symmetry_group_IT_number 65
_symmetry_cell_setting 'orthorhombic'
loop_
_space_group_symop_operation_xyz
x,y,z
-x,-y,z
x,-y,-z
-x,y,-z
-x,-y,-z
x,y,-z
-x,y,z
x,-y,z
1/2+x,1/2+y,z
1/2-x,1/2-y,z
1/2+x,1/2-y,-z
1/2-x,1/2+y,-z
1/2-x,1/2-y,-z
1/2+x,1/2+y,-z
1/2-x,1/2+y,z
1/2+x,1/2-y,z
loop_
_atom_site_type_symbol
_atom_site_label
_atom_site_fract_x
_atom_site_fract_y
_atom_site_fract_z
Si Si1 0.362173 0.500000 0.371850
Si Si2 0.638337 0.253523 0.628501
Si Si3 0.140706 0.387191 0.000000
Si Si4 0.635712 0.623518 0.759121
Si Si5 0.857888 0.370596 0.249446
Si Si6 0.855200 0.924486 0.000000
Si Si7 0.000000 0.500000 0.000000
Si Si8 0.138798 0.500000 0.632742
O O1 0.389851 0.500000 0.500000
O O2 0.393180 0.563241 0.312091
O O3 0.250231 0.500000 0.367884
O O4 0.611540 0.264682 0.500000
O O5 0.750000 0.250000 0.631056
O O6 0.606899 0.310492 0.706976
O O7 0.609274 0.185816 0.672981
O O8 0.120560 0.355309 0.880455
O O9 0.078448 0.446954 0.000000
O O10 0.245942 0.410566 0.000000
O O11 0.746985 0.625455 0.749715
O O12 0.610010 0.608177 0.886859
O O13 0.890047 0.437699 0.298521
O O14 0.870044 0.000000 0.000000
O O15 0.111435 0.500000 0.500000
#
# Coordination Sequence:
#
# PCOD9482658 Si02
#       8
#     8  16   8  16  16   8   2   8
#     4   9  14  20  30  47  71  99 136 173 196 221
#     4   9  16  26  38  56  81 106 133 171 211 248
#     4  10  20  29  44  60  76  98 134 179 239 277
#     4   9  16  23  36  53  76 109 141 172 203 237
#     4   9  17  27  39  55  78 102 132 171 217 266
#     4  10  16  27  39  54  80 109 143 178 216 261
#     4  12  20  32  48  64  82 100 132 202 252 278
#     4   9  15  22  35  53  68  93 131 167 204 245
#
# _framework density 22.104849000000002
#
# number of rings (size 3 to 8) (size 9 to 14) (size 15 to 20)
#    0.000    2.732    1.463    1.756    2.732    5.463 
#    0.000    3.902    0.000    0.000    0.000   12.293 
#    0.000    0.000    0.000    0.000    0.000    1.951 
#
# Total GULP energy -228673.011311 kJ/mol
# GULP energy per Si atom -5577.390520 kJ/mol
# Density = 2.205454 g / cm^3
# Si number density = 22.104849 Si / 1000 Ang^3
#
#
#
# Elastic Constant Matrix: (Units=GPa)
#
#
# Indices 1 2 3 4 5 6 
#
# 1 85.1314 -1.4662 4.3243 0.0000 0.0000 0.0000
# 2 -1.4662 191.0512 112.8234 0.0000 0.0000 0.0000
# 3 4.3243 112.8234 217.8133 0.0000 0.0000 0.0000
# 4 0.0000 0.0000 0.0000 56.4811 0.0000 0.0000
# 5 0.0000 0.0000 0.0000 0.0000 -48.2110 0.0000
# 6 0.0000 0.0000 0.0000 0.0000 0.0000 -15.0138
#
#
#
# Elastic Compliance Matrix: (Units=1/GPa)
#
#
# Indices 1 2 3 4 5 6 
#
# 1 0.011773 0.000329 -0.000404 0.000000 0.000000 0.000000
# 2 0.000329 0.007550 -0.003917 0.000000 0.000000 0.000000
# 3 -0.000404 -0.003917 0.006628 0.000000 0.000000 0.000000
# 4 0.000000 0.000000 0.000000 0.017705 0.000000 0.000000
# 5 0.000000 0.000000 0.000000 0.000000 -0.020742 0.000000
# 6 0.000000 0.000000 0.000000 0.000000 0.000000 -0.066605
#
#
# Mechanical properties :
#
#
# Convention : Reuss Voigt Hill
#
# Bulk Modulus (GPa) = 55.66040 80.59543 68.12792
# Shear Modulus (GPa) = -168.24885 23.87222 -72.18831
#
# Velocity S-wave (km/s) = -8.73380 3.28983 -5.72085
# Velocity P-wave (km/s) = 8.74476 7.13935 3.57075
#
# Compressibility (1/GPa) = 0.01796609
#
# Stress axis : x y z
#
# Youngs Moduli (GPa) = 84.94201 132.44919 150.87009
#
# Poissons Ratio (x) = -0.04358 0.06097
# Poissons Ratio (y) = -0.02795 0.59101
# Poissons Ratio (z) = 0.03433 0.51885
#
# Static dielectric constant tensor:
#      x y z
#    x 1.851780 0.000000 0.000000 
#    y 0.000000 1.732310 0.000000 
#    z 0.000000 0.000000 1.432960 
# 
# From -- ./inp_files/32660.got.cif
#   From: 2010.05.17/outbox.cif.g08.bks.cpg/sg65_17_cif.got.tgz:32660.got - 2010.06.03 17:01:31.
