data_PCOD9482116
_publ_section_title
;
Structure prediction by ZEFSAII (Michael W. Deem and Ramdas Pophale) SiO2 
 PCOD9482116
Probable space group: C M C A
;
_chemical_formula_sum "Si O2"
_cell_formula_units_Z 56
_cell_length_a 19.015157
_cell_length_b 8.999250
_cell_length_c 12.985565
_cell_angle_alpha 90.000000
_cell_angle_beta 90.000000
_cell_angle_gamma 90.000000
_cell_volume 2222.117823
_symmetry_space_group_name_H-M "C M C A"
_symmetry_group_IT_number 64
_symmetry_cell_setting 'orthorhombic'
loop_
_space_group_symop_operation_xyz
x,y,z
-x,1/2-y,1/2+z
x,-y,-z
-x,1/2+y,1/2-z
-x,-y,-z
x,1/2+y,1/2-z
-x,y,z
x,1/2-y,1/2+z
1/2+x,1/2+y,z
1/2-x,-y,1/2+z
1/2+x,1/2-y,-z
1/2-x,y,1/2-z
1/2-x,1/2-y,-z
1/2+x,y,1/2-z
1/2-x,1/2+y,z
1/2+x,-y,1/2+z
loop_
_atom_site_type_symbol
_atom_site_label
_atom_site_fract_x
_atom_site_fract_y
_atom_site_fract_z
Si Si1 0.649515 0.546425 0.297221
Si Si2 0.352647 0.864238 0.387614
Si Si3 0.500000 0.730725 0.974383
Si Si4 0.260351 0.000000 0.000000
Si Si5 0.000000 0.452174 0.146445
O O1 0.674175 0.498543 0.184973
O O2 0.650594 0.721896 0.313542
O O3 0.687849 0.494862 0.401551
O O4 0.572015 0.473602 0.294051
O O5 0.430045 0.854420 0.438422
O O6 0.296204 0.867836 0.479147
O O7 0.500000 0.895077 0.921472
O O8 0.500000 0.790706 0.091567
#
# Coordination Sequence:
#
# PCOD9482116 Si02
#       5
#    16  16   8   8   8
#     4  11  24  44  69  98 134 177 226 282 345 408
#     4  11  25  43  67  98 132 175 226 283 344 409
#     4   9  19  41  68  97 129 167 217 269 330 398
#     4  12  26  42  64  94 136 182 230 280 338 412
#     4   9  19  40  70  97 129 171 213 269 334 399
#
# _framework density 25.201183
#
# number of rings (size 3 to 8) (size 9 to 14) (size 15 to 20)
#    0.000    1.429    0.000    6.000    0.000    9.714 
#    0.000    0.000    0.000    0.000    0.000    0.000 
#    0.000    0.000    0.000    0.000    0.000    0.000 
#
# Total GULP energy -156257.579285 kJ/mol
# GULP energy per Si atom -5580.627832 kJ/mol
# Density = 2.514382 g / cm^3
# Si number density = 25.201183 Si / 1000 Ang^3
#
#
#
# Elastic Constant Matrix: (Units=GPa)
#
#
# Indices 1 2 3 4 5 6 
#
# 1 121.6822 26.7493 44.0612 0.0000 0.0000 0.0000
# 2 26.7493 99.9884 49.6447 0.0000 0.0000 0.0000
# 3 44.0612 49.6447 111.7559 0.0000 0.0000 0.0000
# 4 0.0000 0.0000 0.0000 44.9951 0.0000 0.0000
# 5 0.0000 0.0000 0.0000 0.0000 35.3107 0.0000
# 6 0.0000 0.0000 0.0000 0.0000 0.0000 75.9310
#
#
#
# Elastic Compliance Matrix: (Units=1/GPa)
#
#
# Indices 1 2 3 4 5 6 
#
# 1 0.009648 -0.000888 -0.003409 0.000000 0.000000 0.000000
# 2 -0.000888 0.012913 -0.005386 0.000000 0.000000 0.000000
# 3 -0.003409 -0.005386 0.012685 0.000000 0.000000 0.000000
# 4 0.000000 0.000000 0.000000 0.022225 0.000000 0.000000
# 5 0.000000 0.000000 0.000000 0.000000 0.028320 0.000000
# 6 0.000000 0.000000 0.000000 0.000000 0.000000 0.013170
#
#
# Mechanical properties :
#
#
# Convention : Reuss Voigt Hill
#
# Bulk Modulus (GPa) = 62.97802 63.81520 63.39661
# Shear Modulus (GPa) = 40.44646 45.44543 42.94594
#
# Velocity S-wave (km/s) = 4.01052 4.25114 4.13258
# Velocity P-wave (km/s) = 6.81836 7.03374 6.92689
#
# Compressibility (1/GPa) = 0.01587856
#
# Stress axis : x y z
#
# Youngs Moduli (GPa) = 103.64968 77.44133 78.83459
#
# Poissons Ratio (x) = 0.06880 0.26876
# Poissons Ratio (y) = 0.09208 0.42460
# Poissons Ratio (z) = 0.35336 0.41710
#
# Static dielectric constant tensor:
#      x y z
#    x 2.033880 0.000000 0.000000 
#    y 0.000000 2.007750 0.000000 
#    z 0.000000 0.000000 2.051130 
# 
# From -- ./inp_files/25945.got.cif
#   From: 2010.05.17/outbox.cif.g08.bks.cpg/sg64_13_cif.got.tgz:25945.got - 2010.06.03 16:29:19.
