data_PCOD9482100
_publ_section_title
;
Structure prediction by ZEFSAII (Michael W. Deem and Ramdas Pophale) SiO2 
 PCOD9482100
Probable space group: C M C A
;
_chemical_formula_sum "Si O2"
_cell_formula_units_Z 80
_cell_length_a 28.664907
_cell_length_b 14.093865
_cell_length_c 8.303967
_cell_angle_alpha 90.000000
_cell_angle_beta 90.000000
_cell_angle_gamma 90.000000
_cell_volume 3354.797100
_symmetry_space_group_name_H-M "C M C A"
_symmetry_group_IT_number 64
_symmetry_cell_setting 'orthorhombic'
loop_
_space_group_symop_operation_xyz
x,y,z
-x,1/2-y,1/2+z
x,-y,-z
-x,1/2+y,1/2-z
-x,-y,-z
x,1/2+y,1/2-z
-x,y,z
x,1/2-y,1/2+z
1/2+x,1/2+y,z
1/2-x,-y,1/2+z
1/2+x,1/2-y,-z
1/2-x,y,1/2-z
1/2-x,1/2-y,-z
1/2+x,y,1/2-z
1/2-x,1/2+y,z
1/2+x,-y,1/2+z
loop_
_atom_site_type_symbol
_atom_site_label
_atom_site_fract_x
_atom_site_fract_y
_atom_site_fract_z
Si Si1 0.300805 0.399473 0.693777
Si Si2 0.798360 0.370905 0.169582
Si Si3 0.895779 0.059565 0.165296
Si Si4 0.053687 0.702959 0.133005
Si Si5 0.100191 0.362217 0.192219
O O1 0.250000 0.369114 0.750000
O O2 0.305060 0.352635 0.519365
O O3 0.297974 0.514284 0.679797
O O4 0.345451 0.389615 0.809568
O O5 0.750000 0.339642 0.250000
O O6 0.846849 0.336367 0.244686
O O7 0.933722 0.137928 0.211702
O O8 0.901870 0.975537 0.296065
O O9 0.897664 0.000000 0.000000
O O10 0.065822 0.809329 0.186110
O O11 0.000000 0.692115 0.087746
O O12 0.086159 0.670237 0.985963
#
# Coordination Sequence:
#
# PCOD9482100 Si02
#       5
#    16  16  16  16  16
#     4   9  18  32  60  97 134 173 218 265 325 402
#     4   9  18  35  61  94 134 175 216 266 331 400
#     4  11  24  42  69 103 138 179 227 282 339 412
#     4  12  26  46  71  97 131 180 233 296 356 406
#     4  11  24  45  67  99 138 172 229 285 347 412
#
# _framework density 23.846447999999999
#
# number of rings (size 3 to 8) (size 9 to 14) (size 15 to 20)
#    0.000    1.600    2.000    2.400    8.400    2.800 
#    0.000    2.000    0.000    0.000    0.000    0.000 
#    0.000    0.000    0.000    0.000    0.000    0.000 
#
# Total GULP energy -223553.601276 kJ/mol
# GULP energy per Si atom -5588.840032 kJ/mol
# Density = 2.379217 g / cm^3
# Si number density = 23.846448 Si / 1000 Ang^3
#
#
#
# Elastic Constant Matrix: (Units=GPa)
#
#
# Indices 1 2 3 4 5 6 
#
# 1 162.0165 18.7732 22.7932 0.0000 0.0000 0.0000
# 2 18.7732 90.5279 4.0231 0.0000 0.0000 0.0000
# 3 22.7932 4.0231 79.6976 0.0000 0.0000 0.0000
# 4 0.0000 0.0000 0.0000 -2.7936 0.0000 0.0000
# 5 0.0000 0.0000 0.0000 0.0000 31.2671 0.0000
# 6 0.0000 0.0000 0.0000 0.0000 0.0000 12.0918
#
#
#
# Elastic Compliance Matrix: (Units=1/GPa)
#
#
# Indices 1 2 3 4 5 6 
#
# 1 0.006576 -0.001283 -0.001816 0.000000 0.000000 0.000000
# 2 -0.001283 0.011321 -0.000205 0.000000 0.000000 0.000000
# 3 -0.001816 -0.000205 0.013077 0.000000 0.000000 0.000000
# 4 0.000000 0.000000 0.000000 -0.357957 0.000000 0.000000
# 5 0.000000 0.000000 0.000000 0.000000 0.031982 0.000000
# 6 0.000000 0.000000 0.000000 0.000000 0.000000 0.082701
#
#
# Mechanical properties :
#
#
# Convention : Reuss Voigt Hill
#
# Bulk Modulus (GPa) = 41.03798 47.04677 44.04237
# Shear Modulus (GPa) = -25.30759 27.22322 0.95781
#
# Velocity S-wave (km/s) = -3.26125 3.38243 0.63445
# Velocity P-wave (km/s) = 1.75089 5.91830 4.36417
#
# Compressibility (1/GPa) = 0.02436767
#
# Stress axis : x y z
#
# Youngs Moduli (GPa) = 152.05947 88.32762 76.46932
#
# Poissons Ratio (x) = 0.11333 0.13887
# Poissons Ratio (y) = 0.19510 0.01564
# Poissons Ratio (z) = 0.27615 0.01807
#
# Static dielectric constant tensor:
#      x y z
#    x 1.896110 0.000000 0.000000 
#    y 0.000000 1.918930 0.000000 
#    z 0.000000 0.000000 1.977860 
# 
# From -- ./inp_files/10200.got.cif
#   From: 2010.05.17/outbox.cif.g08.bks.cpg/sg64_6_cif.got.tgz:10200.got - 2010.06.03 16:29:19.
