data_PCOD9482790
_publ_section_title
;
Structure prediction by ZEFSAII (Michael W. Deem and Ramdas Pophale) SiO2 
 PCOD9482790
Probable space group: C M M M
;
_chemical_formula_sum "Si O2"
_cell_formula_units_Z 80
_cell_length_a 10.282592
_cell_length_b 34.495608
_cell_length_c 16.654806
_cell_angle_alpha 90.000000
_cell_angle_beta 90.000000
_cell_angle_gamma 90.000000
_cell_volume 5907.530685
_symmetry_space_group_name_H-M "C M M M"
_symmetry_group_IT_number 65
_symmetry_cell_setting 'orthorhombic'
loop_
_space_group_symop_operation_xyz
x,y,z
-x,-y,z
x,-y,-z
-x,y,-z
-x,-y,-z
x,y,-z
-x,y,z
x,-y,z
1/2+x,1/2+y,z
1/2-x,1/2-y,z
1/2+x,1/2-y,-z
1/2-x,1/2+y,-z
1/2-x,1/2-y,-z
1/2+x,1/2+y,-z
1/2-x,1/2+y,z
1/2+x,1/2-y,z
loop_
_atom_site_type_symbol
_atom_site_label
_atom_site_fract_x
_atom_site_fract_y
_atom_site_fract_z
Si Si1 0.655068 0.578106 0.180990
Si Si2 0.000000 0.790271 0.097018
Si Si3 0.150825 0.046577 0.357987
Si Si4 0.000000 0.701973 0.902852
Si Si5 0.258033 0.655436 0.097148
Si Si6 0.841823 0.000000 0.092351
Si Si7 0.651322 0.046941 0.500000
O O1 0.500000 0.582798 0.165513
O O2 0.670370 0.569792 0.275406
O O3 0.724022 0.615480 0.144299
O O4 0.700381 0.539116 0.136125
O O5 0.000000 0.746195 0.127702
O O6 0.874461 0.815288 0.118564
O O7 0.000000 0.787733 0.000000
O O8 0.260216 0.057458 0.422874
O O9 0.000000 0.052705 0.385218
O O10 0.161144 0.000000 0.342149
O O11 0.126632 0.677658 0.881340
O O12 0.000000 0.704649 0.000000
O O13 0.262050 0.648603 0.000000
O O14 0.000000 0.000000 0.095665
O O15 0.802264 0.000000 0.000000
O O16 0.500000 0.060464 0.500000
O O17 0.645926 0.000000 0.500000
#
# Coordination Sequence:
#
# PCOD9482790 Si02
#       7
#    16   8  16   8  16   8   8
#     4  10  17  27  41  62  87 114 150 188 218 250
#     4   9  16  28  46  63  79 106 147 189 225 264
#     4   9  16  28  45  63  84 111 143 179 217 258
#     4   9  18  30  42  59  83 112 145 183 229 274
#     4  10  18  28  43  62  86 115 150 187 221 258
#     4   9  16  24  38  58  83 114 152 195 223 235
#     4   9  17  29  45  65  85 105 138 175 216 266
#
# _framework density 13.542037000000001
#
# number of rings (size 3 to 8) (size 9 to 14) (size 15 to 20)
#    0.000    2.600    2.000    1.500    0.000    4.400 
#    1.800    0.000    0.000    0.600    0.000    2.800 
#    0.000    0.000    0.000    5.400    0.000    0.100 
#
# Total GULP energy -222697.071800 kJ/mol
# GULP energy per Si atom -5567.426795 kJ/mol
# Density = 1.351122 g / cm^3
# Si number density = 13.542037 Si / 1000 Ang^3
#
#
#
# Elastic Constant Matrix: (Units=GPa)
#
#
# Indices 1 2 3 4 5 6 
#
# 1 108.6315 59.5736 42.8197 0.0000 0.0000 0.0000
# 2 59.5736 116.3826 41.9569 0.0000 0.0000 0.0000
# 3 42.8197 41.9569 57.0830 0.0000 0.0000 0.0000
# 4 0.0000 0.0000 0.0000 3.5963 0.0000 0.0000
# 5 0.0000 0.0000 0.0000 0.0000 6.4307 0.0000
# 6 0.0000 0.0000 0.0000 0.0000 0.0000 2.8535
#
#
#
# Elastic Compliance Matrix: (Units=1/GPa)
#
#
# Indices 1 2 3 4 5 6 
#
# 1 0.014863 -0.004882 -0.007561 0.000000 0.000000 0.000000
# 2 -0.004882 0.013294 -0.006109 0.000000 0.000000 0.000000
# 3 -0.007561 -0.006109 0.027680 0.000000 0.000000 0.000000
# 4 0.000000 0.000000 0.000000 0.278063 0.000000 0.000000
# 5 0.000000 0.000000 0.000000 0.000000 0.155505 0.000000
# 6 0.000000 0.000000 0.000000 0.000000 0.000000 0.350444
#
#
# Mechanical properties :
#
#
# Convention : Reuss Voigt Hill
#
# Bulk Modulus (GPa) = 53.38106 63.42194 58.40150
# Shear Modulus (GPa) = 5.66125 11.75922 8.71024
#
# Velocity S-wave (km/s) = 2.04685 2.94997 2.53889
# Velocity P-wave (km/s) = 6.71494 7.65102 7.19822
#
# Compressibility (1/GPa) = 0.01873324
#
# Stress axis : x y z
#
# Youngs Moduli (GPa) = 67.28033 75.22304 36.12741
#
# Poissons Ratio (x) = 0.36727 0.27315
# Poissons Ratio (y) = 0.32849 0.22069
# Poissons Ratio (z) = 0.50868 0.45951
#
# Static dielectric constant tensor:
#      x y z
#    x 1.448030 0.000000 0.000000 
#    y 0.000000 1.426440 0.000000 
#    z 0.000000 0.000000 1.430700 
# 
# From -- ./inp_files/50259.got.cif
#   From: 2010.05.17/outbox.cif.g08.bks.cpg/sg65_26_cif.got.tgz:50259.got - 2010.06.03 17:01:31.
