data_PCOD9482678
_publ_section_title
;
Structure prediction by ZEFSAII (Michael W. Deem and Ramdas Pophale) SiO2 
 PCOD9482678
Probable space group: C M M M
;
_chemical_formula_sum "Si O2"
_cell_formula_units_Z 56
_cell_length_a 21.859721
_cell_length_b 21.239768
_cell_length_c 8.136030
_cell_angle_alpha 90.000000
_cell_angle_beta 90.000000
_cell_angle_gamma 90.000000
_cell_volume 3777.521324
_symmetry_space_group_name_H-M "C M M M"
_symmetry_group_IT_number 65
_symmetry_cell_setting 'orthorhombic'
loop_
_space_group_symop_operation_xyz
x,y,z
-x,-y,z
x,-y,-z
-x,y,-z
-x,-y,-z
x,y,-z
-x,y,z
x,-y,z
1/2+x,1/2+y,z
1/2-x,1/2-y,z
1/2+x,1/2-y,-z
1/2-x,1/2+y,-z
1/2-x,1/2-y,-z
1/2+x,1/2+y,-z
1/2-x,1/2+y,z
1/2+x,1/2-y,z
loop_
_atom_site_type_symbol
_atom_site_label
_atom_site_fract_x
_atom_site_fract_y
_atom_site_fract_z
Si Si1 0.000000 0.424418 0.695147
Si Si2 0.823840 0.757105 0.177662
Si Si3 0.790027 0.570602 0.500000
Si Si4 0.297678 0.309752 0.500000
Si Si5 0.632402 0.886236 0.811469
O O1 0.061175 0.398098 0.777740
O O2 0.000000 0.500000 0.711687
O O3 0.000000 0.409706 0.500000
O O4 0.750000 0.750000 0.168570
O O5 0.835730 0.800540 0.333965
O O6 0.851140 0.687658 0.202643
O O7 0.844516 0.781450 0.000000
O O8 0.764697 0.500000 0.500000
O O9 0.740438 0.626281 0.500000
O O10 0.830830 0.579812 0.664647
O O11 0.250000 0.250000 0.500000
O O12 0.647748 0.905512 0.000000
#
# Coordination Sequence:
#
# PCOD9482678 Si02
#       5
#     8  16   8   8  16
#     4  11  23  35  45  60  91 131 164 192 223 265
#     4   9  16  28  49  69  81 105 153 196 233 276
#     4  12  22  31  45  70  94 118 157 196 229 275
#     4  10  16  30  48  64  88 115 143 186 239 280
#     4  11  21  34  49  64  87 123 163 200 231 263
#
# _framework density 14.824536
#
# number of rings (size 3 to 8) (size 9 to 14) (size 15 to 20)
#    0.000    1.571    7.143    1.286    0.000    2.857 
#    0.000    0.000    0.000    0.000    0.000    0.000 
#    0.000    0.000    0.000    2.571    0.000   10.857 
#
# Total GULP energy -155972.730284 kJ/mol
# GULP energy per Si atom -5570.454653 kJ/mol
# Density = 1.479080 g / cm^3
# Si number density = 14.824536 Si / 1000 Ang^3
#
#
#
# Elastic Constant Matrix: (Units=GPa)
#
#
# Indices 1 2 3 4 5 6 
#
# 1 34.2642 35.5693 22.0085 0.0000 0.0000 0.0000
# 2 35.5693 83.4871 45.6121 0.0000 0.0000 0.0000
# 3 22.0085 45.6121 151.4502 0.0000 0.0000 0.0000
# 4 0.0000 0.0000 0.0000 43.8602 0.0000 0.0000
# 5 0.0000 0.0000 0.0000 0.0000 18.2141 0.0000
# 6 0.0000 0.0000 0.0000 0.0000 0.0000 20.3814
#
#
#
# Elastic Compliance Matrix: (Units=1/GPa)
#
#
# Indices 1 2 3 4 5 6 
#
# 1 0.052472 -0.021772 -0.001068 0.000000 0.000000 0.000000
# 2 -0.021772 0.023371 -0.003875 0.000000 0.000000 0.000000
# 3 -0.001068 -0.003875 0.007925 0.000000 0.000000 0.000000
# 4 0.000000 0.000000 0.000000 0.022800 0.000000 0.000000
# 5 0.000000 0.000000 0.000000 0.000000 0.054902 0.000000
# 6 0.000000 0.000000 0.000000 0.000000 0.000000 0.049064
#
#
# Mechanical properties :
#
#
# Convention : Reuss Voigt Hill
#
# Bulk Modulus (GPa) = 32.96162 52.84236 42.90199
# Shear Modulus (GPa) = 18.24308 27.55860 22.90084
#
# Velocity S-wave (km/s) = 3.51180 4.31627 3.93465
# Velocity P-wave (km/s) = 6.22305 7.78222 7.04590
#
# Compressibility (1/GPa) = 0.03033831
#
# Stress axis : x y z
#
# Youngs Moduli (GPa) = 19.05770 42.78881 126.18346
#
# Poissons Ratio (x) = 0.93160 0.13478
# Poissons Ratio (y) = 0.41492 0.48891
# Poissons Ratio (z) = 0.02036 0.16579
#
# Static dielectric constant tensor:
#      x y z
#    x 1.428620 0.000000 0.000000 
#    y 0.000000 1.465080 0.000000 
#    z 0.000000 0.000000 1.597380 
# 
# From -- ./inp_files/13506.got.cif
#   From: 2010.05.17/outbox.cif.g08.bks.cpg/sg65_7_cif.got.tgz:13506.got - 2010.06.03 17:01:31.
