data_PCOD9482368
_publ_section_title
;
Structure prediction by ZEFSAII (Michael W. Deem and Ramdas Pophale) SiO2 
 PCOD9482368
Probable space group: C M C A
;
_chemical_formula_sum "Si O2"
_cell_formula_units_Z 48
_cell_length_a 9.000000
_cell_length_b 24.000000
_cell_length_c 27.000000
_cell_angle_alpha 90.000000
_cell_angle_beta 90.000000
_cell_angle_gamma 90.000000
_cell_volume 5832.000000
_symmetry_space_group_name_H-M "C M C A"
_symmetry_group_IT_number 64
_symmetry_cell_setting 'orthorhombic'
loop_
_space_group_symop_operation_xyz
x,y,z
-x,1/2-y,1/2+z
x,-y,-z
-x,1/2+y,1/2-z
-x,-y,-z
x,1/2+y,1/2-z
-x,y,z
x,1/2-y,1/2+z
1/2+x,1/2+y,z
1/2-x,-y,1/2+z
1/2+x,1/2-y,-z
1/2-x,y,1/2-z
1/2-x,1/2-y,-z
1/2+x,y,1/2-z
1/2-x,1/2+y,z
1/2+x,-y,1/2+z
loop_
_atom_site_type_symbol
_atom_site_label
_atom_site_fract_x
_atom_site_fract_y
_atom_site_fract_z
Si Si1 0.820438 0.729838 0.552745
Si Si2 0.821766 0.413575 0.695667
Si Si3 0.175467 0.390071 0.070634
Si Si4 0.675843 0.423154 0.542264
Si Si5 0.178690 0.007901 0.883820
Si Si6 0.320500 0.828939 0.607903
O O1 0.750000 0.750000 0.500000
O O2 0.763160 0.667817 0.564905
O O3 0.756886 0.770451 0.595724
O O4 0.000000 0.732602 0.549684
O O5 0.750000 0.411483 0.750000
O O6 0.781790 0.469287 0.663847
O O7 0.785121 0.360819 0.659663
O O8 0.000000 0.413878 0.701067
O O9 0.245847 0.431795 0.111004
O O10 0.000000 0.380317 0.079852
O O11 0.187199 0.419557 0.016706
O O12 0.500000 0.424979 0.554787
O O13 0.760530 0.473123 0.569203
O O14 0.753716 0.368964 0.565497
O O15 0.000000 0.012207 0.885838
O O16 0.500000 0.825115 0.603873
#
# Coordination Sequence:
#
# PCOD9482368 Si02
#       6
#    16  16  16  16  16  16
#     4  12  23  35  53  77 109 150 188 223 264 316
#     4   9  20  37  59  84 107 136 174 223 278 328
#     4  11  22  34  50  75 108 146 186 220 260 315
#     4  10  19  31  49  74 106 143 182 219 260 312
#     4  10  21  35  51  76 108 140 178 222 272 322
#     4  10  20  35  54  79 110 142 182 226 270 318
#
# _framework density 8.2304530000000007
#
# number of rings (size 3 to 8) (size 9 to 14) (size 15 to 20)
#    0.000    1.667    1.667    5.000    0.000    8.000 
#    0.000    0.000    0.000    1.000    0.000    7.000 
#    0.000    0.000    0.000    0.000    0.000    0.000 
#
# Total GULP energy -267833.930618 kJ/mol
# GULP energy per Si atom -5579.873555 kJ/mol
# Density = 0.821172 g / cm^3
# Si number density = 8.230453 Si / 1000 Ang^3
#
#
#
# Elastic Constant Matrix: (Units=GPa)
#
#
# Indices 1 2 3 4 5 6 
#
# 1 111.2602 40.5811 50.7577 0.0000 0.0000 0.0000
# 2 40.5811 98.9171 48.4831 0.0000 0.0000 0.0000
# 3 50.7577 48.4831 101.6373 0.0000 0.0000 0.0000
# 4 0.0000 0.0000 0.0000 14.7431 0.0000 0.0000
# 5 0.0000 0.0000 0.0000 0.0000 28.1532 0.0000
# 6 0.0000 0.0000 0.0000 0.0000 0.0000 32.3375
#
#
#
# Elastic Compliance Matrix: (Units=1/GPa)
#
#
# Indices 1 2 3 4 5 6 
#
# 1 0.012139 -0.002622 -0.004812 0.000000 0.000000 0.000000
# 2 -0.002622 0.013761 -0.005255 0.000000 0.000000 0.000000
# 3 -0.004812 -0.005255 0.014749 0.000000 0.000000 0.000000
# 4 0.000000 0.000000 0.000000 0.067828 0.000000 0.000000
# 5 0.000000 0.000000 0.000000 0.000000 0.035520 0.000000
# 6 0.000000 0.000000 0.000000 0.000000 0.000000 0.030924
#
#
# Mechanical properties :
#
#
# Convention : Reuss Voigt Hill
#
# Bulk Modulus (GPa) = 65.47982 65.71761 65.59871
# Shear Modulus (GPa) = 24.34415 26.51293 25.42854
#
# Velocity S-wave (km/s) = 3.84983 4.01766 3.93464
# Velocity P-wave (km/s) = 7.72185 7.84425 7.78329
#
# Compressibility (1/GPa) = 0.01527188
#
# Stress axis : x y z
#
# Youngs Moduli (GPa) = 82.37655 72.67098 67.80327
#
# Poissons Ratio (x) = 0.19053 0.32625
# Poissons Ratio (y) = 0.21597 0.35629
# Poissons Ratio (z) = 0.39638 0.38187
#
# Static dielectric constant tensor:
#      x y z
#    x 1.546570 0.000000 0.000000 
#    y 0.000000 1.608200 0.000000 
#    z 0.000000 0.000000 1.531360 
# 
# From -- ./inp_files/42949.got.cif
#   From: 2010.05.17/outbox.ucp.g08.bks.cvg/sg64_22_cif.got.tgz:42949.got - 2010.06.11 16:36:46.
