data_PCOD9482140
_publ_section_title
;
Structure prediction by ZEFSAII (Michael W. Deem and Ramdas Pophale) SiO2 
 PCOD9482140
Probable space group: C M C A
;
_chemical_formula_sum "Si O2"
_cell_formula_units_Z 40
_cell_length_a 10.660227
_cell_length_b 11.244847
_cell_length_c 13.871473
_cell_angle_alpha 90.000000
_cell_angle_beta 90.000000
_cell_angle_gamma 90.000000
_cell_volume 1662.809834
_symmetry_space_group_name_H-M "C M C A"
_symmetry_group_IT_number 64
_symmetry_cell_setting 'orthorhombic'
loop_
_space_group_symop_operation_xyz
x,y,z
-x,1/2-y,1/2+z
x,-y,-z
-x,1/2+y,1/2-z
-x,-y,-z
x,1/2+y,1/2-z
-x,y,z
x,1/2-y,1/2+z
1/2+x,1/2+y,z
1/2-x,-y,1/2+z
1/2+x,1/2-y,-z
1/2-x,y,1/2-z
1/2-x,1/2-y,-z
1/2+x,y,1/2-z
1/2-x,1/2+y,z
1/2+x,-y,1/2+z
loop_
_atom_site_type_symbol
_atom_site_label
_atom_site_fract_x
_atom_site_fract_y
_atom_site_fract_z
Si Si1 0.500000 0.025124 0.164115
Si Si2 0.000000 0.808919 0.477253
Si Si3 0.145531 0.887980 0.056130
Si Si4 0.750000 0.547795 0.750000
O O1 0.372162 0.030372 0.224474
O O2 0.500000 0.118147 0.077043
O O3 0.500000 0.895906 0.112018
O O4 0.119939 0.722402 0.485747
O O5 0.214595 0.874626 0.156800
O O6 0.000000 0.921063 0.081911
O O7 0.203958 0.000000 0.000000
#
# Coordination Sequence:
#
# PCOD9482140 Si02
#       4
#     8   8  16   8
#     4  11  25  43  66 101 138 170 237 267 347 387
#     4   9  22  47  69  97 130 190 217 286 325 415
#     4   9  21  47  68  94 136 180 221 270 344 392
#     4  12  24  46  66 106 134 180 226 284 324 412
#
# _framework density 24.055667
#
# number of rings (size 3 to 8) (size 9 to 14) (size 15 to 20)
#    1.200    0.800    2.000    0.000    5.600    3.200 
#   14.400    0.000    0.000    0.000    0.000    0.000 
#    0.000    0.000    0.000    0.000    0.000    0.000 
#
# Total GULP energy -111715.443366 kJ/mol
# GULP energy per Si atom -5585.772168 kJ/mol
# Density = 2.400092 g / cm^3
# Si number density = 24.055667 Si / 1000 Ang^3
#
#
#
# Elastic Constant Matrix: (Units=GPa)
#
#
# Indices 1 2 3 4 5 6 
#
# 1 141.0022 4.8957 29.8065 0.0000 0.0000 0.0000
# 2 4.8957 89.5709 26.8152 0.0000 0.0000 0.0000
# 3 29.8065 26.8152 99.5428 0.0000 0.0000 0.0000
# 4 0.0000 0.0000 0.0000 20.0813 0.0000 0.0000
# 5 0.0000 0.0000 0.0000 0.0000 53.1070 0.0000
# 6 0.0000 0.0000 0.0000 0.0000 0.0000 -42.7667
#
#
#
# Elastic Compliance Matrix: (Units=1/GPa)
#
#
# Indices 1 2 3 4 5 6 
#
# 1 0.007578 0.000288 -0.002347 0.000000 0.000000 0.000000
# 2 0.000288 0.012155 -0.003361 0.000000 0.000000 0.000000
# 3 -0.002347 -0.003361 0.011654 0.000000 0.000000 0.000000
# 4 0.000000 0.000000 0.000000 0.049798 0.000000 0.000000
# 5 0.000000 0.000000 0.000000 0.000000 0.018830 0.000000
# 6 0.000000 0.000000 0.000000 0.000000 0.000000 -0.023383
#
#
# Mechanical properties :
#
#
# Convention : Reuss Voigt Hill
#
# Bulk Modulus (GPa) = 48.66508 50.35009 49.50759
# Shear Modulus (GPa) = 53.01139 23.99088 38.50114
#
# Velocity S-wave (km/s) = 4.69945 3.16144 4.00497
# Velocity P-wave (km/s) = 7.05128 5.85682 6.48162
#
# Compressibility (1/GPa) = 0.02054861
#
# Stress axis : x y z
#
# Youngs Moduli (GPa) = 131.95792 82.27300 85.80781
#
# Poissons Ratio (x) = -0.02373 0.20138
# Poissons Ratio (y) = -0.03805 0.28837
# Poissons Ratio (z) = 0.30969 0.27649
#
# Static dielectric constant tensor:
#      x y z
#    x 2.018740 0.000000 0.000000 
#    y 0.000000 1.932520 0.000000 
#    z 0.000000 0.000000 1.895850 
# 
# From -- ./inp_files/12477.got.cif
#   From: 2010.05.17/outbox.cif.g08.bks.cpg/sg64_7_cif.got.tgz:12477.got - 2010.06.03 16:29:19.
