data_PCOD9482026
_publ_section_title
;
Structure prediction by ZEFSAII (Michael W. Deem and Ramdas Pophale) SiO2 
 PCOD9482026
Probable space group: C M C A
;
_chemical_formula_sum "Si O2"
_cell_formula_units_Z 80
_cell_length_a 18.390038
_cell_length_b 25.156250
_cell_length_c 8.944079
_cell_angle_alpha 90.000000
_cell_angle_beta 90.000000
_cell_angle_gamma 90.000000
_cell_volume 4137.749122
_symmetry_space_group_name_H-M "C M C A"
_symmetry_group_IT_number 64
_symmetry_cell_setting 'orthorhombic'
loop_
_space_group_symop_operation_xyz
x,y,z
-x,1/2-y,1/2+z
x,-y,-z
-x,1/2+y,1/2-z
-x,-y,-z
x,1/2+y,1/2-z
-x,y,z
x,1/2-y,1/2+z
1/2+x,1/2+y,z
1/2-x,-y,1/2+z
1/2+x,1/2-y,-z
1/2-x,y,1/2-z
1/2-x,1/2-y,-z
1/2+x,y,1/2-z
1/2-x,1/2+y,z
1/2+x,-y,1/2+z
loop_
_atom_site_type_symbol
_atom_site_label
_atom_site_fract_x
_atom_site_fract_y
_atom_site_fract_z
Si Si1 0.802853 0.354360 0.389637
Si Si2 0.780437 0.056086 0.417513
Si Si3 0.417530 0.681453 0.695023
Si Si4 0.583773 0.373087 0.628482
Si Si5 0.828411 0.289997 0.673141
O O1 0.750000 0.344439 0.250000
O O2 0.767741 0.401580 0.487274
O O3 0.880488 0.360388 0.308483
O O4 0.813064 0.305270 0.501806
O O5 0.750000 0.052287 0.250000
O O6 0.862448 0.077882 0.401354
O O7 0.778009 0.000000 0.500000
O O8 0.500000 0.692975 0.740059
O O9 0.416561 0.658987 0.527552
O O10 0.370857 0.735227 0.692847
O O11 0.500000 0.385790 0.666627
O O12 0.622378 0.336179 0.752460
O O13 0.750000 0.289665 0.750000
#
# Coordination Sequence:
#
# PCOD9482026 Si02
#       5
#    16  16  16  16  16
#     4  12  22  42  66  98 131 174 224 280 324 389
#     4  12  25  47  73  99 124 167 226 281 341 399
#     4  11  25  39  61  98 139 183 220 264 329 392
#     4  11  23  43  65  96 138 175 215 268 336 396
#     4  12  22  39  63  96 136 179 227 264 315 388
#
# _framework density 19.334182999999999
#
# number of rings (size 3 to 8) (size 9 to 14) (size 15 to 20)
#    0.000    0.400    6.000    3.000    0.000    6.000 
#    0.000    0.000    0.000    1.200    0.000    0.000 
#    0.000    0.000    0.000    0.000    0.000    0.000 
#
# Total GULP energy -223636.590870 kJ/mol
# GULP energy per Si atom -5590.914772 kJ/mol
# Density = 1.929018 g / cm^3
# Si number density = 19.334183 Si / 1000 Ang^3
#
#
#
# Elastic Constant Matrix: (Units=GPa)
#
#
# Indices 1 2 3 4 5 6 
#
# 1 175.2427 73.5563 68.7607 0.0000 0.0000 0.0000
# 2 73.5563 92.0429 41.4745 0.0000 0.0000 0.0000
# 3 68.7607 41.4745 137.7290 0.0000 0.0000 0.0000
# 4 0.0000 0.0000 0.0000 31.9062 0.0000 0.0000
# 5 0.0000 0.0000 0.0000 0.0000 25.8407 0.0000
# 6 0.0000 0.0000 0.0000 0.0000 0.0000 14.4679
#
#
#
# Elastic Compliance Matrix: (Units=1/GPa)
#
#
# Indices 1 2 3 4 5 6 
#
# 1 0.009451 -0.006279 -0.002828 0.000000 0.000000 0.000000
# 2 -0.006279 0.016741 -0.001907 0.000000 0.000000 0.000000
# 3 -0.002828 -0.001907 0.009247 0.000000 0.000000 0.000000
# 4 0.000000 0.000000 0.000000 0.031342 0.000000 0.000000
# 5 0.000000 0.000000 0.000000 0.000000 0.038699 0.000000
# 6 0.000000 0.000000 0.000000 0.000000 0.000000 0.069119
#
#
# Mechanical properties :
#
#
# Convention : Reuss Voigt Hill
#
# Bulk Modulus (GPa) = 74.55630 85.84417 80.20024
# Shear Modulus (GPa) = 24.86373 29.19118 27.02746
#
# Velocity S-wave (km/s) = 3.58997 3.88986 3.74292
# Velocity P-wave (km/s) = 7.47191 8.04184 7.76211
#
# Compressibility (1/GPa) = 0.01341268
#
# Stress axis : x y z
#
# Youngs Moduli (GPa) = 105.80379 59.73196 108.14834
#
# Poissons Ratio (x) = 0.37505 0.30582
# Poissons Ratio (y) = 0.66434 0.20620
# Poissons Ratio (z) = 0.29919 0.11389
#
# Static dielectric constant tensor:
#      x y z
#    x 1.705020 0.000000 0.000000 
#    y 0.000000 1.657140 0.000000 
#    z 0.000000 0.000000 1.697040 
# 
# From -- ./inp_files/7041.got.cif
#   From: 2010.05.17/outbox.cif.g08.bks.cpg/sg64_4_cif.got.tgz:7041.got - 2010.06.03 16:29:19.
