data_PCOD9482386
_publ_section_title
;
Structure prediction by ZEFSAII (Michael W. Deem and Ramdas Pophale) SiO2 
 PCOD9482386
Probable space group: C M C A
;
_chemical_formula_sum "Si O2"
_cell_formula_units_Z 58
_cell_length_a 18.000000
_cell_length_b 27.000000
_cell_length_c 12.000000
_cell_angle_alpha 90.000000
_cell_angle_beta 90.000000
_cell_angle_gamma 90.000000
_cell_volume 5832.000000
_symmetry_space_group_name_H-M "C M C A"
_symmetry_group_IT_number 64
_symmetry_cell_setting 'orthorhombic'
loop_
_space_group_symop_operation_xyz
x,y,z
-x,1/2-y,1/2+z
x,-y,-z
-x,1/2+y,1/2-z
-x,-y,-z
x,1/2+y,1/2-z
-x,y,z
x,1/2-y,1/2+z
1/2+x,1/2+y,z
1/2-x,-y,1/2+z
1/2+x,1/2-y,-z
1/2-x,y,1/2-z
1/2-x,1/2-y,-z
1/2+x,y,1/2-z
1/2-x,1/2+y,z
1/2+x,-y,1/2+z
loop_
_atom_site_type_symbol
_atom_site_label
_atom_site_fract_x
_atom_site_fract_y
_atom_site_fract_z
Si Si1 0.793615 0.426028 0.079496
Si Si2 0.409965 0.105321 0.284489
Si Si3 0.153682 0.318178 0.895666
Si Si4 0.088127 0.284133 0.350949
Si Si5 0.500000 0.500000 0.500000
Si Si6 0.915116 0.346789 0.124722
Si Si7 0.185018 0.148728 0.015203
Si Si8 0.146632 0.475608 0.858019
O O1 0.857906 0.391853 0.130844
O O2 0.798886 0.477554 0.143857
O O3 0.719791 0.393621 0.065800
O O4 0.818175 0.439846 0.952843
O O5 0.500000 0.103313 0.290937
O O6 0.384254 0.140266 0.181678
O O7 0.370373 0.126229 0.393761
O O8 0.371363 0.053158 0.254263
O O9 0.132518 0.266998 0.837135
O O10 0.241072 0.327945 0.923666
O O11 0.111848 0.317830 0.014903
O O12 0.088658 0.313950 0.234956
O O13 0.135783 0.313657 0.442952
O O14 0.000000 0.276957 0.380486
O O15 0.433558 0.508461 0.406788
O O16 0.000000 0.364371 0.108108
#
# Coordination Sequence:
#
# PCOD9482386 Si02
#       8
#    16  16  16  16   4  16  16  16
#     4   9  21  37  61  93 126 166 216 271 324 382
#     4  12  23  39  67 103 137 174 219 277 336 397
#     4  11  24  41  66  94 129 168 225 274 327 391
#     4  11  25  44  64  93 130 175 221 271 335 398
#     4   8  16  28  56  96 124 146 210 268 328 360
#     4  10  21  38  64  90 124 165 219 275 322 387
#     4  11  24  44  62  93 138 178 211 270 340 407
#     4  10  19  34  64  98 126 160 210 279 327 371
#
# _framework density 9.9451300000000007
#
# number of rings (size 3 to 8) (size 9 to 14) (size 15 to 20)
#    0.000    1.655    3.448    2.483    5.793    2.207 
#    4.966    5.517    0.000    0.000    0.000    6.759 
#    0.000    0.000    0.000    0.000    0.000    0.000 
#
# Total GULP energy -323227.780504 kJ/mol
# GULP energy per Si atom -5572.892767 kJ/mol
# Density = 0.992249 g / cm^3
# Si number density = 9.945130 Si / 1000 Ang^3
#
#
#
# Elastic Constant Matrix: (Units=GPa)
#
#
# Indices 1 2 3 4 5 6 
#
# 1 102.7090 28.9362 22.3429 0.0000 0.0000 0.0000
# 2 28.9362 91.7799 17.8008 0.0000 0.0000 0.0000
# 3 22.3429 17.8008 44.8316 0.0000 0.0000 0.0000
# 4 0.0000 0.0000 0.0000 -29.7365 0.0000 0.0000
# 5 0.0000 0.0000 0.0000 0.0000 29.0693 0.0000
# 6 0.0000 0.0000 0.0000 0.0000 0.0000 43.3015
#
#
#
# Elastic Compliance Matrix: (Units=1/GPa)
#
#
# Indices 1 2 3 4 5 6 
#
# 1 0.011518 -0.002728 -0.004657 0.000000 0.000000 0.000000
# 2 -0.002728 0.012451 -0.003584 0.000000 0.000000 0.000000
# 3 -0.004657 -0.003584 0.026050 0.000000 0.000000 0.000000
# 4 0.000000 0.000000 0.000000 -0.033629 0.000000 0.000000
# 5 0.000000 0.000000 0.000000 0.000000 0.034401 0.000000
# 6 0.000000 0.000000 0.000000 0.000000 0.000000 0.023094
#
#
# Mechanical properties :
#
#
# Convention : Reuss Voigt Hill
#
# Bulk Modulus (GPa) = 35.61247 41.94226 38.77736
# Shear Modulus (GPa) = 47.53630 19.87624 33.70627
#
# Velocity S-wave (km/s) = 4.89399 3.16459 4.12103
# Velocity P-wave (km/s) = 7.06245 5.87243 6.49476
#
# Compressibility (1/GPa) = 0.02808005
#
# Stress axis : x y z
#
# Youngs Moduli (GPa) = 86.82138 80.31552 38.38806
#
# Poissons Ratio (x) = 0.21911 0.17877
# Poissons Ratio (y) = 0.23686 0.13759
# Poissons Ratio (z) = 0.40433 0.28786
#
# Static dielectric constant tensor:
#      x y z
#    x 1.663780 0.000000 0.000000 
#    y 0.000000 1.804860 0.000000 
#    z 0.000000 0.000000 1.701170 
# 
# From -- ./inp_files/16494.got.cif
#   From: 2010.05.17/outbox.ucp.g08.bks.cvg/sg64_9_cif.got.tgz:16494.got - 2010.06.11 16:36:46.
