data_PCOD9482412
_publ_section_title
;
Structure prediction by ZEFSAII (Michael W. Deem and Ramdas Pophale) SiO2 
 PCOD9482412
Probable space group: C M C A
;
_chemical_formula_sum "Si O2"
_cell_formula_units_Z 36
_cell_length_a 30.000000
_cell_length_b 9.000000
_cell_length_c 15.000000
_cell_angle_alpha 90.000000
_cell_angle_beta 90.000000
_cell_angle_gamma 90.000000
_cell_volume 4050.000000
_symmetry_space_group_name_H-M "C M C A"
_symmetry_group_IT_number 64
_symmetry_cell_setting 'orthorhombic'
loop_
_space_group_symop_operation_xyz
x,y,z
-x,1/2-y,1/2+z
x,-y,-z
-x,1/2+y,1/2-z
-x,-y,-z
x,1/2+y,1/2-z
-x,y,z
x,1/2-y,1/2+z
1/2+x,1/2+y,z
1/2-x,-y,1/2+z
1/2+x,1/2-y,-z
1/2-x,y,1/2-z
1/2-x,1/2-y,-z
1/2+x,y,1/2-z
1/2-x,1/2+y,z
1/2+x,-y,1/2+z
loop_
_atom_site_type_symbol
_atom_site_label
_atom_site_fract_x
_atom_site_fract_y
_atom_site_fract_z
Si Si1 0.750000 0.508505 0.250000
Si Si2 0.620368 0.174187 0.476490
Si Si3 0.103638 0.724057 0.677881
Si Si4 0.053748 0.092206 0.174301
Si Si5 0.814615 0.262695 0.181291
O O1 0.780452 0.400997 0.188349
O O2 0.784658 0.616162 0.301016
O O3 0.614363 0.253936 0.572945
O O4 0.576037 0.171052 0.413097
O O5 0.658193 0.242060 0.411009
O O6 0.630570 0.000000 0.500000
O O7 0.071506 0.832544 0.734427
O O8 0.076872 0.569069 0.675348
O O9 0.148884 0.718907 0.738161
O O10 0.000000 0.088612 0.169680
#
# Coordination Sequence:
#
# PCOD9482412 Si02
#       5
#     8  16  16  16  16
#     4  10  20  36  60  80 108 140 178 232 270 318
#     4   9  19  35  56  79 109 146 181 218 267 323
#     4  10  20  37  57  77 110 147 177 220 272 321
#     4  10  20  34  56  84 110 143 185 222 261 315
#     4  10  20  38  56  80 109 142 181 222 274 322
#
# _framework density 8.8888890000000007
#
# number of rings (size 3 to 8) (size 9 to 14) (size 15 to 20)
#    0.000    2.222    0.000    4.667    0.000    4.889 
#    0.000   22.222    0.000    6.667    0.000    0.000 
#    0.000    0.000    0.000    0.000    0.000    0.000 
#
# Total GULP energy -200709.058407 kJ/mol
# GULP energy per Si atom -5575.251622 kJ/mol
# Density = 0.886866 g / cm^3
# Si number density = 8.888889 Si / 1000 Ang^3
#
#
#
# Elastic Constant Matrix: (Units=GPa)
#
#
# Indices 1 2 3 4 5 6 
#
# 1 160.0070 45.3599 69.9830 0.0000 0.0000 0.0000
# 2 45.3599 63.5192 39.6506 0.0000 0.0000 0.0000
# 3 69.9830 39.6506 179.9873 0.0000 0.0000 0.0000
# 4 0.0000 0.0000 0.0000 30.0711 0.0000 0.0000
# 5 0.0000 0.0000 0.0000 0.0000 26.6410 0.0000
# 6 0.0000 0.0000 0.0000 0.0000 0.0000 36.4054
#
#
#
# Elastic Compliance Matrix: (Units=1/GPa)
#
#
# Indices 1 2 3 4 5 6 
#
# 1 0.008589 -0.004694 -0.002305 0.000000 0.000000 0.000000
# 2 -0.004694 0.020819 -0.002761 0.000000 0.000000 0.000000
# 3 -0.002305 -0.002761 0.007061 0.000000 0.000000 0.000000
# 4 0.000000 0.000000 0.000000 0.033255 0.000000 0.000000
# 5 0.000000 0.000000 0.000000 0.000000 0.037536 0.000000
# 6 0.000000 0.000000 0.000000 0.000000 0.000000 0.027468
#
#
# Mechanical properties :
#
#
# Convention : Reuss Voigt Hill
#
# Bulk Modulus (GPa) = 59.00782 79.27780 69.14281
# Shear Modulus (GPa) = 31.26990 35.19151 33.23070
#
# Velocity S-wave (km/s) = 4.19851 4.45401 4.32815
# Velocity P-wave (km/s) = 7.53441 8.43454 7.99715
#
# Compressibility (1/GPa) = 0.01694691
#
# Stress axis : x y z
#
# Youngs Moduli (GPa) = 116.43055 48.03281 141.63112
#
# Poissons Ratio (x) = 0.22548 0.32651
# Poissons Ratio (y) = 0.54656 0.39106
# Poissons Ratio (z) = 0.26842 0.13262
#
# Static dielectric constant tensor:
#      x y z
#    x 1.601330 0.000000 0.000000 
#    y 0.000000 1.655720 0.000000 
#    z 0.000000 0.000000 1.607540 
# 
# From -- ./inp_files/28260.got.cif
#   From: 2010.05.17/outbox.ucp.g08.bks.cvg/sg64_15_cif.got.tgz:28260.got - 2010.06.11 16:36:46.
