data_PCOD9482821
_publ_section_title
;
Structure prediction by ZEFSAII (Michael W. Deem and Ramdas Pophale) SiO2 
 PCOD9482821
Probable space group: C M M M
;
_chemical_formula_sum "Si O2"
_cell_formula_units_Z 120
_cell_length_a 14.051466
_cell_length_b 21.210069
_cell_length_c 22.184373
_cell_angle_alpha 90.000000
_cell_angle_beta 90.000000
_cell_angle_gamma 90.000000
_cell_volume 6611.665553
_symmetry_space_group_name_H-M "C M M M"
_symmetry_group_IT_number 65
_symmetry_cell_setting 'orthorhombic'
loop_
_space_group_symop_operation_xyz
x,y,z
-x,-y,z
x,-y,-z
-x,y,-z
-x,-y,-z
x,y,-z
-x,y,z
x,-y,z
1/2+x,1/2+y,z
1/2-x,1/2-y,z
1/2+x,1/2-y,-z
1/2-x,1/2+y,-z
1/2-x,1/2-y,-z
1/2+x,1/2+y,-z
1/2-x,1/2+y,z
1/2+x,1/2-y,z
loop_
_atom_site_type_symbol
_atom_site_label
_atom_site_fract_x
_atom_site_fract_y
_atom_site_fract_z
Si Si1 0.725236 0.569453 0.380759
Si Si2 0.611026 0.877847 0.697295
Si Si3 0.892836 0.237121 0.695231
Si Si4 0.106371 0.423753 0.164997
Si Si5 0.114100 0.896733 0.262798
Si Si6 0.834947 0.198841 0.565719
Si Si7 0.000000 0.923988 0.928700
Si Si8 0.190928 0.927375 0.866154
O O1 0.720892 0.500000 0.408148
O O2 0.826218 0.581946 0.348403
O O3 0.651245 0.573645 0.324800
O O4 0.703681 0.628095 0.424097
O O5 0.500000 0.877272 0.678912
O O6 0.651787 0.806245 0.697054
O O7 0.615871 0.903823 0.765080
O O8 0.857881 0.177346 0.732902
O O9 0.893097 0.215210 0.625682
O O10 0.000000 0.247510 0.717134
O O11 0.108276 0.500000 0.162944
O O12 0.201517 0.400515 0.130543
O O13 0.000000 0.403463 0.144508
O O14 0.162181 0.925976 0.204268
O O15 0.000000 0.902077 0.258746
O O16 0.881850 0.203191 0.500000
O O17 0.750000 0.250000 0.566138
O O18 0.901145 0.898983 0.900056
O O19 0.000000 0.000000 0.916660
O O20 0.000000 0.914537 0.000000
O O21 0.197965 0.000000 0.886933
#
# Coordination Sequence:
#
# PCOD9482821 Si02
#       8
#    16  16  16  16  16  16   8  16
#     4  11  21  32  50  73  98 127 160 202 256 312
#     4  10  18  30  47  70 101 131 159 199 252 307
#     4   9  19  33  49  70  95 127 160 205 255 306
#     4   9  17  28  43  67  99 134 166 200 249 314
#     4  10  19  30  46  71 101 130 161 197 252 312
#     4  10  20  35  52  67  87 123 168 208 251 303
#     4   9  18  30  46  70 102 142 181 215 254 300
#     4  10  17  27  45  68  99 136 169 206 251 300
#
# _framework density 18.149739
#
# number of rings (size 3 to 8) (size 9 to 14) (size 15 to 20)
#    0.000    2.200    3.333    0.800    0.000    2.133 
#    0.000    0.000    0.000    0.800    0.000    7.467 
#    0.000    2.133    0.000    0.000    0.000    0.000 
#
# Total GULP energy -334113.329297 kJ/mol
# GULP energy per Si atom -5568.555488 kJ/mol
# Density = 1.810843 g / cm^3
# Si number density = 18.149739 Si / 1000 Ang^3
#
#
#
# Elastic Constant Matrix: (Units=GPa)
#
#
# Indices 1 2 3 4 5 6 
#
# 1 128.7237 11.0344 19.5527 0.0000 0.0000 0.0000
# 2 11.0344 74.2708 -1.2246 0.0000 0.0000 0.0000
# 3 19.5527 -1.2246 29.1303 0.0000 0.0000 0.0000
# 4 0.0000 0.0000 0.0000 8.6186 0.0000 0.0000
# 5 0.0000 0.0000 0.0000 0.0000 11.5384 0.0000
# 6 0.0000 0.0000 0.0000 0.0000 0.0000 9.9510
#
#
#
# Elastic Compliance Matrix: (Units=1/GPa)
#
#
# Indices 1 2 3 4 5 6 
#
# 1 0.008795 -0.001405 -0.005962 0.000000 0.000000 0.000000
# 2 -0.001405 0.013698 0.001519 0.000000 0.000000 0.000000
# 3 -0.005962 0.001519 0.038394 0.000000 0.000000 0.000000
# 4 0.000000 0.000000 0.000000 0.116028 0.000000 0.000000
# 5 0.000000 0.000000 0.000000 0.000000 0.086667 0.000000
# 6 0.000000 0.000000 0.000000 0.000000 0.000000 0.100493
#
#
# Mechanical properties :
#
#
# Convention : Reuss Voigt Hill
#
# Bulk Modulus (GPa) = 20.32918 32.31665 26.32291
# Shear Modulus (GPa) = 12.74964 19.53909 16.14437
#
# Velocity S-wave (km/s) = 2.65329 3.28464 2.98570
# Velocity P-wave (km/s) = 4.54001 5.67709 5.14009
#
# Compressibility (1/GPa) = 0.04919038
#
# Stress axis : x y z
#
# Youngs Moduli (GPa) = 113.70564 73.00329 26.04560
#
# Poissons Ratio (x) = 0.10256 0.15529
# Poissons Ratio (y) = 0.15975 -0.03956
# Poissons Ratio (z) = 0.67793 -0.11088
#
# Static dielectric constant tensor:
#      x y z
#    x 1.691430 0.000000 0.000000 
#    y 0.000000 1.652350 0.000000 
#    z 0.000000 0.000000 1.579760 
# 
# From -- ./inp_files/63038.got.cif
#   From: 2010.05.17/outbox.cif.g08.bks.cpg/sg65_32_cif.got.tgz:63038.got - 2010.06.03 17:01:31.
