data_PCOD9482565
_publ_section_title
;
Structure prediction by ZEFSAII (Michael W. Deem and Ramdas Pophale) SiO2 
 PCOD9482565
Probable space group: C M M M
;
_chemical_formula_sum "Si O2"
_cell_formula_units_Z 72
_cell_length_a 8.346179
_cell_length_b 24.211084
_cell_length_c 21.793340
_cell_angle_alpha 90.000000
_cell_angle_beta 90.000000
_cell_angle_gamma 90.000000
_cell_volume 4403.781104
_symmetry_space_group_name_H-M "C M M M"
_symmetry_group_IT_number 65
_symmetry_cell_setting 'orthorhombic'
loop_
_space_group_symop_operation_xyz
x,y,z
-x,-y,z
x,-y,-z
-x,y,-z
-x,-y,-z
x,y,-z
-x,y,z
x,-y,z
1/2+x,1/2+y,z
1/2-x,1/2-y,z
1/2+x,1/2-y,-z
1/2-x,1/2+y,-z
1/2-x,1/2-y,-z
1/2+x,1/2+y,-z
1/2-x,1/2+y,z
1/2+x,1/2-y,z
loop_
_atom_site_type_symbol
_atom_site_label
_atom_site_fract_x
_atom_site_fract_y
_atom_site_fract_z
Si Si1 0.695868 0.618579 0.618961
Si Si2 0.304299 0.500000 0.571734
Si Si3 0.189134 0.686328 0.000000
Si Si4 0.691393 0.686521 0.127974
Si Si5 0.693885 0.313419 0.263109
Si Si6 0.306773 0.312507 0.500000
O O1 0.500000 0.618359 0.619877
O O2 0.747183 0.555902 0.605738
O O3 0.749819 0.647402 0.681792
O O4 0.746702 0.655536 0.560984
O O5 0.500000 0.500000 0.570965
O O6 0.255024 0.500000 0.500000
O O7 0.250000 0.750000 0.000000
O O8 0.246555 0.660833 0.935545
O O9 0.000000 0.688094 0.000000
O O10 0.500000 0.685961 0.125385
O O11 0.750000 0.750000 0.128033
O O12 0.743429 0.665629 0.195169
O O13 0.500000 0.312392 0.264055
O O14 0.750000 0.250000 0.271415
O O15 0.500000 0.313416 0.500000
O O16 0.250000 0.250000 0.500000
#
# Coordination Sequence:
#
# PCOD9482565 Si02
#       6
#    16   8   8  16  16   8
#     4   9  16  26  40  60  83 106 136 173 208 244
#     4   9  14  24  42  62  82 105 134 173 217 246
#     4  10  16  22  34  52  74 101 134 167 193 226
#     4   9  15  23  34  49  73 105 135 162 194 233
#     4   9  17  27  39  57  83 111 138 168 203 245
#     4  10  18  27  41  61  85 108 135 168 202 242
#
# _framework density 16.349585999999999
#
# number of rings (size 3 to 8) (size 9 to 14) (size 15 to 20)
#    0.000    2.778    1.111    3.667    0.000    0.889 
#    0.000    0.000    0.000    0.000    0.000    3.889 
#    0.000    0.889    0.000   11.333    0.000    2.222 
#
# Total GULP energy -200417.970734 kJ/mol
# GULP energy per Si atom -5567.165854 kJ/mol
# Density = 1.631237 g / cm^3
# Si number density = 16.349586 Si / 1000 Ang^3
#
#
#
# Elastic Constant Matrix: (Units=GPa)
#
#
# Indices 1 2 3 4 5 6 
#
# 1 22.2310 8.1938 27.5564 0.0000 0.0000 0.0000
# 2 8.1938 94.3836 74.7312 0.0000 0.0000 0.0000
# 3 27.5564 74.7312 207.0568 0.0000 0.0000 0.0000
# 4 0.0000 0.0000 0.0000 2.5891 0.0000 0.0000
# 5 0.0000 0.0000 0.0000 0.0000 11.2398 0.0000
# 6 0.0000 0.0000 0.0000 0.0000 0.0000 10.2975
#
#
#
# Elastic Compliance Matrix: (Units=1/GPa)
#
#
# Indices 1 2 3 4 5 6 
#
# 1 0.054001 0.001403 -0.007693 0.000000 0.000000 0.000000
# 2 0.001403 0.014871 -0.005554 0.000000 0.000000 0.000000
# 3 -0.007693 -0.005554 0.007858 0.000000 0.000000 0.000000
# 4 0.000000 0.000000 0.000000 0.386233 0.000000 0.000000
# 5 0.000000 0.000000 0.000000 0.000000 0.088970 0.000000
# 6 0.000000 0.000000 0.000000 0.000000 0.000000 0.097110
#
#
# Mechanical properties :
#
#
# Convention : Reuss Voigt Hill
#
# Bulk Modulus (GPa) = 18.85288 60.51491 39.68389
# Shear Modulus (GPa) = 7.24205 19.03795 13.14000
#
# Velocity S-wave (km/s) = 2.10692 3.41608 2.83802
# Velocity P-wave (km/s) = 4.18031 7.25623 5.92148
#
# Compressibility (1/GPa) = 0.05304230
#
# Stress axis : x y z
#
# Youngs Moduli (GPa) = 18.51806 67.24614 127.25880
#
# Poissons Ratio (x) = -0.09437 0.97904
# Poissons Ratio (y) = -0.02599 0.70679
# Poissons Ratio (z) = 0.14247 0.37348
#
# Static dielectric constant tensor:
#      x y z
#    x 1.557250 0.000000 0.000000 
#    y 0.000000 1.507520 0.000000 
#    z 0.000000 0.000000 1.615070 
# 
# From -- ./inp_files/59559.got.cif
#   From: 2010.05.17/outbox.cif.g08.bks.cpg/sg65_30_cif.got.tgz:59559.got - 2010.06.03 17:01:31.
