data_PCOD9482627
_publ_section_title
;
Structure prediction by ZEFSAII (Michael W. Deem and Ramdas Pophale) SiO2 
 PCOD9482627
Probable space group: C M M M
;
_chemical_formula_sum "Si O2"
_cell_formula_units_Z 104
_cell_length_a 15.477348
_cell_length_b 8.740218
_cell_length_c 35.742921
_cell_angle_alpha 90.000000
_cell_angle_beta 90.000000
_cell_angle_gamma 90.000000
_cell_volume 4835.137778
_symmetry_space_group_name_H-M "C M M M"
_symmetry_group_IT_number 65
_symmetry_cell_setting 'orthorhombic'
loop_
_space_group_symop_operation_xyz
x,y,z
-x,-y,z
x,-y,-z
-x,y,-z
-x,-y,-z
x,y,-z
-x,y,z
x,-y,z
1/2+x,1/2+y,z
1/2-x,1/2-y,z
1/2+x,1/2-y,-z
1/2-x,1/2+y,-z
1/2-x,1/2-y,-z
1/2+x,1/2+y,-z
1/2-x,1/2+y,z
1/2+x,1/2-y,z
loop_
_atom_site_type_symbol
_atom_site_label
_atom_site_fract_x
_atom_site_fract_y
_atom_site_fract_z
Si Si1 0.847814 0.685044 0.959763
Si Si2 0.602567 0.830408 0.727573
Si Si3 0.651509 0.683690 0.500000
Si Si4 0.845914 0.819151 0.347917
Si Si5 0.102407 0.829600 0.198279
Si Si6 0.848414 0.683270 0.423493
Si Si7 0.346644 0.183449 0.878894
O O1 0.844021 0.500000 0.959674
O O2 0.750000 0.750000 0.959855
O O3 0.886651 0.729170 0.919398
O O4 0.887303 0.731483 0.000000
O O5 0.500000 0.846171 0.732789
O O6 0.614049 0.723009 0.691850
O O7 0.638663 0.761969 0.766168
O O8 0.639022 0.000000 0.719827
O O9 0.653604 0.500000 0.500000
O O10 0.750000 0.750000 0.500000
O O11 0.612071 0.747448 0.461449
O O12 0.750000 0.750000 0.345406
O O13 0.888116 0.739576 0.384320
O O14 0.843635 0.000000 0.353996
O O15 0.112216 0.747561 0.158652
O O16 0.000000 0.843636 0.204825
O O17 0.140496 0.000000 0.196334
O O18 0.846050 0.500000 0.425354
O O19 0.750000 0.750000 0.422551
O O20 0.250000 0.250000 0.879130
O O21 0.345531 0.000000 0.877044
#
# Coordination Sequence:
#
# PCOD9482627 Si02
#       7
#    16  16   8  16  16  16  16
#     4   8  14  25  42  66  96 128 161 198 240 286
#     4  10  21  38  58  78 100 128 165 206 249 301
#     4  10  16  24  38  60  91 128 167 204 247 296
#     4  11  21  34  52  76 106 136 168 207 253 299
#     4  10  21  37  55  74  98 129 165 205 249 297
#     4  10  17  27  42  64  95 130 167 205 249 296
#     4  10  19  31  50  76 104 132 165 205 248 294
#
# _framework density 21.509209999999999
#
# number of rings (size 3 to 8) (size 9 to 14) (size 15 to 20)
#    0.000    2.154    0.000    6.692    0.000    3.077 
#    0.000    3.077    0.000    0.462    0.000    3.769 
#    0.000    4.308    0.000    0.000    0.000    0.000 
#
# Total GULP energy -290014.986107 kJ/mol
# GULP energy per Si atom -5577.211271 kJ/mol
# Density = 2.146025 g / cm^3
# Si number density = 21.509210 Si / 1000 Ang^3
#
#
#
# Elastic Constant Matrix: (Units=GPa)
#
#
# Indices 1 2 3 4 5 6 
#
# 1 21.4859 5.2184 9.3297 0.0000 0.0000 0.0000
# 2 5.2184 157.0281 70.6175 0.0000 0.0000 0.0000
# 3 9.3297 70.6175 210.8885 0.0000 0.0000 0.0000
# 4 0.0000 0.0000 0.0000 71.3785 0.0000 0.0000
# 5 0.0000 0.0000 0.0000 0.0000 23.3587 0.0000
# 6 0.0000 0.0000 0.0000 0.0000 0.0000 11.2216
#
#
#
# Elastic Compliance Matrix: (Units=1/GPa)
#
#
# Indices 1 2 3 4 5 6 
#
# 1 0.047528 -0.000746 -0.001853 0.000000 0.000000 0.000000
# 2 -0.000746 0.007509 -0.002481 0.000000 0.000000 0.000000
# 3 -0.001853 -0.002481 0.005655 0.000000 0.000000 0.000000
# 4 0.000000 0.000000 0.000000 0.014010 0.000000 0.000000
# 5 0.000000 0.000000 0.000000 0.000000 0.042811 0.000000
# 6 0.000000 0.000000 0.000000 0.000000 0.000000 0.089114
#
#
# Mechanical properties :
#
#
# Convention : Reuss Voigt Hill
#
# Bulk Modulus (GPa) = 19.78989 62.19264 40.99126
# Shear Modulus (GPa) = 21.40129 41.47421 31.43775
#
# Velocity S-wave (km/s) = 3.15776 4.39590 3.82723
# Velocity P-wave (km/s) = 4.74509 7.39881 6.21524
#
# Compressibility (1/GPa) = 0.05053086
#
# Stress axis : x y z
#
# Youngs Moduli (GPa) = 21.04023 133.17320 176.84305
#
# Poissons Ratio (x) = 0.09938 0.32764
# Poissons Ratio (y) = 0.01570 0.43882
# Poissons Ratio (z) = 0.03898 0.33046
#
# Static dielectric constant tensor:
#      x y z
#    x 1.788410 0.000000 0.000000 
#    y 0.000000 1.758280 0.000000 
#    z 0.000000 0.000000 1.862110 
# 
# From -- ./inp_files/78222.got.cif
#   From: 2010.05.17/outbox.cif.g08.bks.cpg/sg65_40_cif.got.tgz:78222.got - 2010.06.03 17:01:31.
