data_PCOD9482550
_publ_section_title
;
Structure prediction by ZEFSAII (Michael W. Deem and Ramdas Pophale) SiO2 
 PCOD9482550
Probable space group: C M M M
;
_chemical_formula_sum "Si O2"
_cell_formula_units_Z 104
_cell_length_a 31.163303
_cell_length_b 8.627178
_cell_length_c 29.541611
_cell_angle_alpha 90.000000
_cell_angle_beta 90.000000
_cell_angle_gamma 90.000000
_cell_volume 7942.302354
_symmetry_space_group_name_H-M "C M M M"
_symmetry_group_IT_number 65
_symmetry_cell_setting 'orthorhombic'
loop_
_space_group_symop_operation_xyz
x,y,z
-x,-y,z
x,-y,-z
-x,y,-z
-x,-y,-z
x,y,-z
-x,y,z
x,-y,z
1/2+x,1/2+y,z
1/2-x,1/2-y,z
1/2+x,1/2-y,-z
1/2-x,1/2+y,-z
1/2-x,1/2-y,-z
1/2+x,1/2+y,-z
1/2-x,1/2+y,z
1/2+x,1/2-y,z
loop_
_atom_site_type_symbol
_atom_site_label
_atom_site_fract_x
_atom_site_fract_y
_atom_site_fract_z
Si Si1 0.201016 0.185443 0.687198
Si Si2 0.862248 0.683485 0.946640
Si Si3 0.702036 0.316325 0.874577
Si Si4 0.798780 0.314930 0.780434
Si Si5 0.701005 0.814327 0.406370
Si Si6 0.299003 0.685731 0.500000
Si Si7 0.547192 0.681675 0.945178
O O1 0.250000 0.250000 0.687864
O O2 0.181406 0.245283 0.734441
O O3 0.181505 0.251922 0.640657
O O4 0.202166 0.000000 0.686011
O O5 0.855266 0.500000 0.942191
O O6 0.827995 0.773128 0.916455
O O7 0.910577 0.726038 0.931284
O O8 0.858385 0.724111 0.000000
O O9 0.705104 0.500000 0.868362
O O10 0.750000 0.250000 0.881782
O O11 0.683166 0.241102 0.828478
O O12 0.797919 0.500000 0.777715
O O13 0.750000 0.250000 0.781847
O O14 0.750000 0.750000 0.406131
O O15 0.681496 0.749476 0.453118
O O16 0.702025 0.000000 0.406804
O O17 0.298008 0.500000 0.500000
O O18 0.250000 0.750000 0.500000
O O19 0.500000 0.735503 0.929281
O O20 0.551908 0.500000 0.933370
O O21 0.546214 0.689928 0.000000
#
# Coordination Sequence:
#
# PCOD9482550 Si02
#       7
#    16  16  16  16  16   8  16
#     4  10  16  23  33  46  60  75  97 126 160 197
#     4  10  20  32  45  62  82 102 125 151 179 214
#     4  11  21  33  46  58  74  97 124 153 185 220
#     4  10  17  27  40  53  67  83 106 137 172 208
#     4  10  16  22  29  39  53  71  93 119 152 191
#     4  10  16  22  28  36  50  70  92 116 148 190
#     4   8  14  26  44  64  84 104 124 146 174 208
#
# _framework density 13.094438999999999
#
# number of rings (size 3 to 8) (size 9 to 14) (size 15 to 20)
#    0.000    2.154    0.000   10.846    0.000    1.538 
#    0.000    1.538    0.000    0.000    0.000    0.000 
#    0.000    0.000    0.000    0.000    0.000    0.000 
#
# Total GULP energy -289525.550944 kJ/mol
# GULP energy per Si atom -5567.799057 kJ/mol
# Density = 1.306464 g / cm^3
# Si number density = 13.094439 Si / 1000 Ang^3
#
#
#
# Elastic Constant Matrix: (Units=GPa)
#
#
# Indices 1 2 3 4 5 6 
#
# 1 29.6634 17.3065 21.6417 0.0000 0.0000 0.0000
# 2 17.3065 121.1206 42.7646 0.0000 0.0000 0.0000
# 3 21.6417 42.7646 86.1372 0.0000 0.0000 0.0000
# 4 0.0000 0.0000 0.0000 24.1696 0.0000 0.0000
# 5 0.0000 0.0000 0.0000 0.0000 -0.3336 0.0000
# 6 0.0000 0.0000 0.0000 0.0000 0.0000 12.3504
#
#
#
# Elastic Compliance Matrix: (Units=1/GPa)
#
#
# Indices 1 2 3 4 5 6 
#
# 1 0.042026 -0.002761 -0.009188 0.000000 0.000000 0.000000
# 2 -0.002761 0.010192 -0.004367 0.000000 0.000000 0.000000
# 3 -0.009188 -0.004367 0.016086 0.000000 0.000000 0.000000
# 4 0.000000 0.000000 0.000000 0.041374 0.000000 0.000000
# 5 0.000000 0.000000 0.000000 0.000000 -2.997449 0.000000
# 6 0.000000 0.000000 0.000000 0.000000 0.000000 0.080969
#
#
# Mechanical properties :
#
#
# Convention : Reuss Voigt Hill
#
# Bulk Modulus (GPa) = 28.03255 44.48297 36.25776
# Shear Modulus (GPa) = -1.81010 17.58451 7.88721
#
# Velocity S-wave (km/s) = -1.17701 3.66853 2.45691
# Velocity P-wave (km/s) = 4.42802 7.21033 5.98315
#
# Compressibility (1/GPa) = 0.03567281
#
# Stress axis : x y z
#
# Youngs Moduli (GPa) = 23.79492 98.11184 62.16670
#
# Poissons Ratio (x) = 0.27087 0.57120
# Poissons Ratio (y) = 0.06569 0.27146
# Poissons Ratio (z) = 0.21863 0.42842
#
# Static dielectric constant tensor:
#      x y z
#    x 1.396730 0.000000 0.000000 
#    y 0.000000 1.436980 0.000000 
#    z 0.000000 0.000000 1.502810 
# 
# From -- ./inp_files/78367.got.cif
#   From: 2010.05.17/outbox.cif.g08.bks.cpg/sg65_40_cif.got.tgz:78367.got - 2010.06.03 17:01:31.
