data_PCOD9482199
_publ_section_title
;
Structure prediction by ZEFSAII (Michael W. Deem and Ramdas Pophale) SiO2 
 PCOD9482199
Probable space group: C M C A
;
_chemical_formula_sum "Si O2"
_cell_formula_units_Z 88
_cell_length_a 14.518480
_cell_length_b 11.159638
_cell_length_c 23.807711
_cell_angle_alpha 90.000000
_cell_angle_beta 90.000000
_cell_angle_gamma 90.000000
_cell_volume 3857.348694
_symmetry_space_group_name_H-M "C M C A"
_symmetry_group_IT_number 64
_symmetry_cell_setting 'orthorhombic'
loop_
_space_group_symop_operation_xyz
x,y,z
-x,1/2-y,1/2+z
x,-y,-z
-x,1/2+y,1/2-z
-x,-y,-z
x,1/2+y,1/2-z
-x,y,z
x,1/2-y,1/2+z
1/2+x,1/2+y,z
1/2-x,-y,1/2+z
1/2+x,1/2-y,-z
1/2-x,y,1/2-z
1/2-x,1/2-y,-z
1/2+x,y,1/2-z
1/2-x,1/2+y,z
1/2+x,-y,1/2+z
loop_
_atom_site_type_symbol
_atom_site_label
_atom_site_fract_x
_atom_site_fract_y
_atom_site_fract_z
Si Si1 0.359974 0.237735 0.307409
Si Si2 0.500000 0.204968 0.008162
Si Si3 0.000000 0.364113 0.604381
Si Si4 0.642847 0.707961 0.318255
Si Si5 0.894647 0.955103 0.371095
Si Si6 0.198832 0.626204 0.981234
Si Si7 0.000000 0.859387 0.119718
O O1 0.413038 0.173951 0.357894
O O2 0.387578 0.190459 0.246324
O O3 0.251514 0.225804 0.315356
O O4 0.385630 0.377095 0.314606
O O5 0.500000 0.293944 0.954266
O O6 0.596157 0.133871 0.007526
O O7 0.500000 0.280982 0.064169
O O8 0.000000 0.505281 0.600201
O O9 0.622897 0.591967 0.355957
O O10 0.588706 0.819905 0.344201
O O11 0.823978 0.896044 0.415484
O O12 0.000000 0.942612 0.392032
O O13 0.244831 0.500000 0.000000
O O14 0.250000 0.750000 0.000000
#
# Coordination Sequence:
#
# PCOD9482199 Si02
#       7
#    16   8   8  16  16  16   8
#     4  11  26  47  71 106 146 191 245 302 382 441
#     4  12  26  50  70 112 142 201 245 315 372 455
#     4  12  26  47  71 104 154 191 240 319 381 442
#     4  11  28  45  74 110 141 197 248 309 374 457
#     4  12  25  48  75 104 149 192 253 301 368 458
#     4  12  28  48  78 109 151 201 249 310 381 454
#     4  12  28  43  73 106 147 183 253 302 378 444
#
# _framework density 22.813597000000001
#
# number of rings (size 3 to 8) (size 9 to 14) (size 15 to 20)
#    0.000    0.364    4.545    2.182   10.182    2.909 
#    0.000    0.000    0.000    0.000    0.000    0.000 
#    0.000    0.000    0.000    0.000    0.000    0.000 
#
# Total GULP energy -246232.731422 kJ/mol
# GULP energy per Si atom -5596.198441 kJ/mol
# Density = 2.276167 g / cm^3
# Si number density = 22.813597 Si / 1000 Ang^3
#
#
#
# Elastic Constant Matrix: (Units=GPa)
#
#
# Indices 1 2 3 4 5 6 
#
# 1 108.7810 25.3348 24.7090 0.0000 0.0000 0.0000
# 2 25.3348 145.1009 23.7043 0.0000 0.0000 0.0000
# 3 24.7090 23.7043 130.6258 0.0000 0.0000 0.0000
# 4 0.0000 0.0000 0.0000 29.3397 0.0000 0.0000
# 5 0.0000 0.0000 0.0000 0.0000 95.1353 0.0000
# 6 0.0000 0.0000 0.0000 0.0000 0.0000 27.9922
#
#
#
# Elastic Compliance Matrix: (Units=1/GPa)
#
#
# Indices 1 2 3 4 5 6 
#
# 1 0.009899 -0.001466 -0.001606 0.000000 0.000000 0.000000
# 2 -0.001466 0.007319 -0.001051 0.000000 0.000000 0.000000
# 3 -0.001606 -0.001051 0.008150 0.000000 0.000000 0.000000
# 4 0.000000 0.000000 0.000000 0.034084 0.000000 0.000000
# 5 0.000000 0.000000 0.000000 0.000000 0.010511 0.000000
# 6 0.000000 0.000000 0.000000 0.000000 0.000000 0.035724
#
#
# Mechanical properties :
#
#
# Convention : Reuss Voigt Hill
#
# Bulk Modulus (GPa) = 58.40505 59.11156 58.75831
# Shear Modulus (GPa) = 41.79143 51.21072 46.50108
#
# Velocity S-wave (km/s) = 4.28467 4.74301 4.51966
# Velocity P-wave (km/s) = 7.08057 7.48076 7.28342
#
# Compressibility (1/GPa) = 0.01712181
#
# Stress axis : x y z
#
# Youngs Moduli (GPa) = 101.01923 136.62323 122.69875
#
# Poissons Ratio (x) = 0.20028 0.19711
# Poissons Ratio (y) = 0.14809 0.12895
# Poissons Ratio (z) = 0.16229 0.14358
#
# Static dielectric constant tensor:
#      x y z
#    x 1.828710 0.000000 0.000000 
#    y 0.000000 1.865630 0.000000 
#    z 0.000000 0.000000 1.876600 
# 
# From -- ./inp_files/45107.got.cif
#   From: 2010.05.17/outbox.cif.g08.bks.cpg/sg64_23_cif.got.tgz:45107.got - 2010.06.03 16:29:19.
