data_PCOD9482532
_publ_section_title
;
Structure prediction by ZEFSAII (Michael W. Deem and Ramdas Pophale) SiO2 
 PCOD9482532
Probable space group: C M M M
;
_chemical_formula_sum "Si O2"
_cell_formula_units_Z 76
_cell_length_a 35.445956
_cell_length_b 7.383792
_cell_length_c 15.345310
_cell_angle_alpha 90.000000
_cell_angle_beta 90.000000
_cell_angle_gamma 90.000000
_cell_volume 4016.259950
_symmetry_space_group_name_H-M "C M M M"
_symmetry_group_IT_number 65
_symmetry_cell_setting 'orthorhombic'
loop_
_space_group_symop_operation_xyz
x,y,z
-x,-y,z
x,-y,-z
-x,y,-z
-x,-y,-z
x,y,-z
-x,y,z
x,-y,z
1/2+x,1/2+y,z
1/2-x,1/2-y,z
1/2+x,1/2-y,-z
1/2-x,1/2+y,-z
1/2-x,1/2-y,-z
1/2+x,1/2+y,-z
1/2-x,1/2+y,z
1/2+x,1/2-y,z
loop_
_atom_site_type_symbol
_atom_site_label
_atom_site_fract_x
_atom_site_fract_y
_atom_site_fract_z
Si Si1 0.000000 0.742257 0.500000
Si Si2 0.629828 0.278170 0.325713
Si Si3 0.500000 0.279458 0.694926
Si Si4 0.455948 0.721430 0.000000
Si Si5 0.707631 0.284132 0.599622
Si Si6 0.572137 0.280191 0.186621
Si Si7 0.410870 0.295009 0.500000
O O1 0.000000 0.685792 0.601511
O O2 0.956007 0.806622 0.500000
O O3 0.628813 0.500000 0.323297
O O4 0.672670 0.219361 0.342807
O O5 0.609338 0.218363 0.237531
O O6 0.605400 0.217641 0.410133
O O7 0.500000 0.500000 0.677557
O O8 0.463426 0.236069 0.751847
O O9 0.435872 0.782162 0.911245
O O10 0.455891 0.500000 0.000000
O O11 0.500000 0.774751 0.000000
O O12 0.704768 0.213356 0.500000
O O13 0.703460 0.500000 0.594114
O O14 0.750000 0.250000 0.631679
O O15 0.573028 0.500000 0.182743
O O16 0.395859 0.500000 0.500000
#
# Coordination Sequence:
#
# PCOD9482532 Si02
#       7
#     4  16   8   8  16  16   8
#     4  12  17  16  22  38  62  92 125 148 169 216
#     4   9  15  22  31  45  66  92 122 153 186 223
#     4  10  15  17  22  35  55  84 119 150 176 208
#     4   9  14  20  28  38  57  88 129 167 185 207
#     4   9  16  26  40  57  77 102 129 159 196 235
#     4   9  15  20  27  39  58  88 124 156 185 216
#     4  10  15  18  25  39  62  91 120 147 174 210
#
# _framework density 18.923079000000001
#
# number of rings (size 3 to 8) (size 9 to 14) (size 15 to 20)
#    0.000    2.632    4.211    0.947    0.000    0.000 
#    0.000    0.000    0.000    0.000    0.000    0.737 
#    0.000    0.000    0.000    4.737    0.000    6.316 
#
# Total GULP energy -211706.480919 kJ/mol
# GULP energy per Si atom -5571.223182 kJ/mol
# Density = 1.888001 g / cm^3
# Si number density = 18.923079 Si / 1000 Ang^3
#
#
#
# Elastic Constant Matrix: (Units=GPa)
#
#
# Indices 1 2 3 4 5 6 
#
# 1 175.9959 6.3564 94.0008 0.0000 0.0000 0.0000
# 2 6.3564 63.7183 11.9362 0.0000 0.0000 0.0000
# 3 94.0008 11.9362 184.4035 0.0000 0.0000 0.0000
# 4 0.0000 0.0000 0.0000 -21.4156 0.0000 0.0000
# 5 0.0000 0.0000 0.0000 0.0000 19.6326 0.0000
# 6 0.0000 0.0000 0.0000 0.0000 0.0000 15.9238
#
#
#
# Elastic Compliance Matrix: (Units=1/GPa)
#
#
# Indices 1 2 3 4 5 6 
#
# 1 0.007808 -0.000034 -0.003978 0.000000 0.000000 0.000000
# 2 -0.000034 0.015887 -0.001011 0.000000 0.000000 0.000000
# 3 -0.003978 -0.001011 0.007516 0.000000 0.000000 0.000000
# 4 0.000000 0.000000 0.000000 -0.046695 0.000000 0.000000
# 5 0.000000 0.000000 0.000000 0.000000 0.050936 0.000000
# 6 0.000000 0.000000 0.000000 0.000000 0.000000 0.062799
#
#
# Mechanical properties :
#
#
# Convention : Reuss Voigt Hill
#
# Bulk Modulus (GPa) = 47.24730 72.07827 59.66279
# Shear Modulus (GPa) = 43.34596 23.61647 33.48121
#
# Velocity S-wave (km/s) = 4.79126 3.53657 4.21091
# Velocity P-wave (km/s) = 7.45858 7.40603 7.43235
#
# Compressibility (1/GPa) = 0.02116523
#
# Stress axis : x y z
#
# Youngs Moduli (GPa) = 128.07729 62.94514 133.04791
#
# Poissons Ratio (x) = 0.00212 0.52925
# Poissons Ratio (y) = 0.00432 0.13453
# Poissons Ratio (z) = 0.50948 0.06365
#
# Static dielectric constant tensor:
#      x y z
#    x 1.647130 0.000000 0.000000 
#    y 0.000000 1.746750 0.000000 
#    z 0.000000 0.000000 1.634830 
# 
# From -- ./inp_files/47609.got.cif
#   From: 2010.05.17/outbox.cif.g08.bks.cpg/sg65_24_cif.got.tgz:47609.got - 2010.06.03 17:01:31.
