data_PCOD9482845
_publ_section_title
;
Structure prediction by ZEFSAII (Michael W. Deem and Ramdas Pophale) SiO2 
 PCOD9482845
Probable space group: C M M M
;
_chemical_formula_sum "Si O2"
_cell_formula_units_Z 66
_cell_length_a 15.697841
_cell_length_b 24.294958
_cell_length_c 9.691805
_cell_angle_alpha 90.000000
_cell_angle_beta 90.000000
_cell_angle_gamma 90.000000
_cell_volume 3696.244966
_symmetry_space_group_name_H-M "C M M M"
_symmetry_group_IT_number 65
_symmetry_cell_setting 'orthorhombic'
loop_
_space_group_symop_operation_xyz
x,y,z
-x,-y,z
x,-y,-z
-x,y,-z
-x,-y,-z
x,y,-z
-x,y,z
x,-y,z
1/2+x,1/2+y,z
1/2-x,1/2-y,z
1/2+x,1/2-y,-z
1/2-x,1/2+y,-z
1/2-x,1/2-y,-z
1/2+x,1/2+y,-z
1/2-x,1/2+y,z
1/2+x,1/2-y,z
loop_
_atom_site_type_symbol
_atom_site_label
_atom_site_fract_x
_atom_site_fract_y
_atom_site_fract_z
Si Si1 0.094514 0.883239 0.332141
Si Si2 0.332570 0.500000 0.333313
Si Si3 0.135407 0.500000 0.247116
Si Si4 0.901614 0.622669 0.840755
Si Si5 0.000000 0.500000 0.500000
Si Si6 0.240568 0.314834 0.334662
O O1 0.092907 0.882721 0.500000
O O2 0.171223 0.843643 0.291063
O O3 0.000000 0.867812 0.284239
O O4 0.119183 0.944911 0.288562
O O5 0.331719 0.500000 0.500000
O O6 0.235145 0.500000 0.285390
O O7 0.116072 0.557261 0.170553
O O8 0.074670 0.500000 0.380181
O O9 0.836802 0.655927 0.744232
O O10 0.000000 0.631955 0.798989
O O11 0.891203 0.639402 0.000000
O O12 0.229217 0.323016 0.500000
O O13 0.250000 0.250000 0.309015
#
# Coordination Sequence:
#
# PCOD9482845 Si02
#       6
#    16   8   8  16   2  16
#     4   9  17  30  51  79 113 142 178 229 289 345
#     4  10  17  27  50  82 109 140 178 226 289 349
#     4  12  21  34  56  89 122 150 191 242 302 357
#     4  11  24  40  59  84 119 160 197 237 291 360
#     4  12  24  28  58 100 122 152 190 256 308 354
#     4  10  22  38  59  87 115 148 195 247 293 342
#
# _framework density 17.855958999999999
#
# number of rings (size 3 to 8) (size 9 to 14) (size 15 to 20)
#    0.000    1.697    4.242    0.727    1.697    4.364 
#    0.000    2.424    0.000    0.727    0.000    1.697 
#    0.000    0.000    0.000    0.000    0.000    0.000 
#
# Total GULP energy -183853.143055 kJ/mol
# GULP energy per Si atom -5571.307365 kJ/mol
# Density = 1.781532 g / cm^3
# Si number density = 17.855959 Si / 1000 Ang^3
#
#
#
# Elastic Constant Matrix: (Units=GPa)
#
#
# Indices 1 2 3 4 5 6 
#
# 1 190.8937 87.5898 49.4309 0.0000 0.0000 0.0000
# 2 87.5898 127.6152 37.7539 0.0000 0.0000 0.0000
# 3 49.4309 37.7539 41.6105 0.0000 0.0000 0.0000
# 4 0.0000 0.0000 0.0000 -1.8060 0.0000 0.0000
# 5 0.0000 0.0000 0.0000 0.0000 17.7725 0.0000
# 6 0.0000 0.0000 0.0000 0.0000 0.0000 2.0431
#
#
#
# Elastic Compliance Matrix: (Units=1/GPa)
#
#
# Indices 1 2 3 4 5 6 
#
# 1 0.008881 -0.004065 -0.006861 0.000000 0.000000 0.000000
# 2 -0.004065 0.012572 -0.006578 0.000000 0.000000 0.000000
# 3 -0.006861 -0.006578 0.038151 0.000000 0.000000 0.000000
# 4 0.000000 0.000000 0.000000 -0.553699 0.000000 0.000000
# 5 0.000000 0.000000 0.000000 0.000000 0.056267 0.000000
# 6 0.000000 0.000000 0.000000 0.000000 0.000000 0.489454
#
#
# Mechanical properties :
#
#
# Convention : Reuss Voigt Hill
#
# Bulk Modulus (GPa) = 40.65752 78.85206 59.75479
# Shear Modulus (GPa) = 52.72548 15.95822 34.34185
#
# Velocity S-wave (km/s) = 5.43988 2.99276 4.39027
# Velocity P-wave (km/s) = 7.89149 7.49654 7.69655
#
# Compressibility (1/GPa) = 0.02459570
#
# Stress axis : x y z
#
# Youngs Moduli (GPa) = 112.60615 79.53963 26.21191
#
# Poissons Ratio (x) = 0.32337 0.17984
# Poissons Ratio (y) = 0.45780 0.17241
# Poissons Ratio (z) = 0.77257 0.52318
#
# Static dielectric constant tensor:
#      x y z
#    x 1.599210 0.000000 0.000000 
#    y 0.000000 1.610490 0.000000 
#    z 0.000000 0.000000 1.590110 
# 
# From -- ./inp_files/7161.got.cif
#   From: 2010.05.17/outbox.cif.g08.bks.cpg/sg65_4_cif.got.tgz:7161.got - 2010.06.03 17:01:31.
