data_PCOD9482022
_publ_section_title
;
Structure prediction by ZEFSAII (Michael W. Deem and Ramdas Pophale) SiO2 
 PCOD9482022
Probable space group: C M C A
;
_chemical_formula_sum "Si O2"
_cell_formula_units_Z 96
_cell_length_a 24.234224
_cell_length_b 22.925152
_cell_length_c 7.607216
_cell_angle_alpha 90.000000
_cell_angle_beta 90.000000
_cell_angle_gamma 90.000000
_cell_volume 4226.365860
_symmetry_space_group_name_H-M "C M C A"
_symmetry_group_IT_number 64
_symmetry_cell_setting 'orthorhombic'
loop_
_space_group_symop_operation_xyz
x,y,z
-x,1/2-y,1/2+z
x,-y,-z
-x,1/2+y,1/2-z
-x,-y,-z
x,1/2+y,1/2-z
-x,y,z
x,1/2-y,1/2+z
1/2+x,1/2+y,z
1/2-x,-y,1/2+z
1/2+x,1/2-y,-z
1/2-x,y,1/2-z
1/2-x,1/2-y,-z
1/2+x,y,1/2-z
1/2-x,1/2+y,z
1/2+x,-y,1/2+z
loop_
_atom_site_type_symbol
_atom_site_label
_atom_site_fract_x
_atom_site_fract_y
_atom_site_fract_z
Si Si1 0.907238 0.422677 0.840062
Si Si2 0.157761 0.908302 0.005287
Si Si3 0.772165 0.060261 0.448312
Si Si4 0.687365 0.707069 0.822485
Si Si5 0.850526 0.172415 0.469195
Si Si6 0.437948 0.453937 0.259693
O O1 0.858567 0.425027 0.692844
O O2 0.904412 0.352003 0.868333
O O3 0.941891 0.475504 0.755067
O O4 0.915563 0.438467 0.045904
O O5 0.215427 0.937622 0.060562
O O6 0.172658 0.839807 0.026787
O O7 0.107126 0.929066 0.125101
O O8 0.750000 0.061435 0.250000
O O9 0.809598 0.116444 0.482658
O O10 0.801636 0.000000 0.500000
O O11 0.750000 0.699506 0.750000
O O12 0.679279 0.773436 0.878550
O O13 0.643727 0.692569 0.669035
O O14 0.500000 0.430574 0.234281
#
# Coordination Sequence:
#
# PCOD9482022 Si02
#       6
#    16  16  16  16  16  16
#     4  11  23  42  70 104 139 180 239 301 367 430
#     4  12  25  44  69 105 145 191 244 299 355 435
#     4  12  27  40  63 101 150 196 235 290 357 432
#     4  12  25  43  66  99 151 200 245 286 346 433
#     4  12  25  41  67 101 147 195 249 285 357 433
#     4  11  26  48  75 106 141 187 241 311 383 438
#
# _framework density 22.714551
#
# number of rings (size 3 to 8) (size 9 to 14) (size 15 to 20)
#    0.000    0.333    5.000    4.500    4.667    2.000 
#    0.000    0.000    0.000    2.000    0.000    0.000 
#    0.000    0.000    0.000    0.000    0.000    0.000 
#
# Total GULP energy -267248.513888 kJ/mol
# GULP energy per Si atom -5567.677373 kJ/mol
# Density = 2.266285 g / cm^3
# Si number density = 22.714551 Si / 1000 Ang^3
#
#
#
# Elastic Constant Matrix: (Units=GPa)
#
#
# Indices 1 2 3 4 5 6 
#
# 1 121.1603 46.2279 32.0232 0.0000 0.0000 0.0000
# 2 46.2279 157.7459 9.0412 0.0000 0.0000 0.0000
# 3 32.0232 9.0412 47.0291 0.0000 0.0000 0.0000
# 4 0.0000 0.0000 0.0000 39.9880 0.0000 0.0000
# 5 0.0000 0.0000 0.0000 0.0000 -11.3379 0.0000
# 6 0.0000 0.0000 0.0000 0.0000 0.0000 14.2981
#
#
#
# Elastic Compliance Matrix: (Units=1/GPa)
#
#
# Indices 1 2 3 4 5 6 
#
# 1 0.011228 -0.002884 -0.007091 0.000000 0.000000 0.000000
# 2 -0.002884 0.007151 0.000589 0.000000 0.000000 0.000000
# 3 -0.007091 0.000589 0.025979 0.000000 0.000000 0.000000
# 4 0.000000 0.000000 0.000000 0.025008 0.000000 0.000000
# 5 0.000000 0.000000 0.000000 0.000000 -0.088200 0.000000
# 6 0.000000 0.000000 0.000000 0.000000 0.000000 0.069940
#
#
# Mechanical properties :
#
#
# Convention : Reuss Voigt Hill
#
# Bulk Modulus (GPa) = 39.08460 55.61334 47.34897
# Shear Modulus (GPa) = 63.77134 24.49916 44.13525
#
# Velocity S-wave (km/s) = 5.30434 3.28772 4.41277
# Velocity P-wave (km/s) = 7.39993 6.24090 6.84499
#
# Compressibility (1/GPa) = 0.02558552
#
# Stress axis : x y z
#
# Youngs Moduli (GPa) = 89.06232 139.84624 38.49318
#
# Poissons Ratio (x) = 0.40332 0.27296
# Poissons Ratio (y) = 0.25686 -0.02268
# Poissons Ratio (z) = 0.63154 -0.08238
#
# Static dielectric constant tensor:
#      x y z
#    x 1.913160 0.000000 0.000000 
#    y 0.000000 1.873300 0.000000 
#    z 0.000000 0.000000 1.912970 
# 
# From -- ./inp_files/10360.got.cif
#   From: 2010.05.17/outbox.cif.g08.bks.cpg/sg64_6_cif.got.tgz:10360.got - 2010.06.03 16:29:19.
