data_PCOD9482635
_publ_section_title
;
Structure prediction by ZEFSAII (Michael W. Deem and Ramdas Pophale) SiO2 
 PCOD9482635
Probable space group: C M M M
;
_chemical_formula_sum "Si O2"
_cell_formula_units_Z 80
_cell_length_a 19.861008
_cell_length_b 20.269059
_cell_length_c 12.818047
_cell_angle_alpha 90.000000
_cell_angle_beta 90.000000
_cell_angle_gamma 90.000000
_cell_volume 5160.083541
_symmetry_space_group_name_H-M "C M M M"
_symmetry_group_IT_number 65
_symmetry_cell_setting 'orthorhombic'
loop_
_space_group_symop_operation_xyz
x,y,z
-x,-y,z
x,-y,-z
-x,y,-z
-x,-y,-z
x,y,-z
-x,y,z
x,-y,z
1/2+x,1/2+y,z
1/2-x,1/2-y,z
1/2+x,1/2-y,-z
1/2-x,1/2+y,-z
1/2-x,1/2-y,-z
1/2+x,1/2+y,-z
1/2-x,1/2+y,z
1/2+x,1/2-y,z
loop_
_atom_site_type_symbol
_atom_site_label
_atom_site_fract_x
_atom_site_fract_y
_atom_site_fract_z
Si Si1 0.711229 0.075222 0.876171
Si Si2 0.218673 0.175615 0.276975
Si Si3 0.728557 0.171989 0.500000
Si Si4 0.075171 0.229870 0.278628
Si Si5 0.574956 0.196649 0.500000
Si Si6 0.924009 0.352312 0.121406
O O1 0.752713 0.128409 0.811460
O O2 0.632923 0.093798 0.858998
O O3 0.724801 0.000000 0.844967
O O4 0.724130 0.081403 0.000000
O O5 0.250000 0.250000 0.267005
O O6 0.240919 0.148500 0.390540
O O7 0.138482 0.182347 0.269039
O O8 0.750000 0.250000 0.500000
O O9 0.647751 0.161086 0.500000
O O10 0.076939 0.259816 0.395233
O O11 0.085095 0.290425 0.198071
O O12 0.000000 0.202500 0.260600
O O13 0.500000 0.163151 0.500000
O O14 0.000000 0.377479 0.136561
O O15 0.917700 0.331255 0.000000
#
# Coordination Sequence:
#
# PCOD9482635 Si02
#       6
#    16  16   8  16   8  16
#     4  10  21  34  48  69  96 127 163 199 237 283
#     4  11  18  31  51  72  96 127 156 199 240 276
#     4  10  16  28  45  72  99 124 155 194 237 280
#     4  10  18  28  45  72  98 122 155 193 236 281
#     4  10  16  24  40  66 100 128 150 184 234 284
#     4   9  17  29  45  67  96 126 156 191 232 278
#
# _framework density 15.503625
#
# number of rings (size 3 to 8) (size 9 to 14) (size 15 to 20)
#    0.000    2.000    6.000    0.000    0.000    1.600 
#    0.000    2.500    0.000    0.600    0.000    1.400 
#    0.000   15.200    0.000    0.000    0.000    0.000 
#
# Total GULP energy -222703.691008 kJ/mol
# GULP energy per Si atom -5567.592275 kJ/mol
# Density = 1.546834 g / cm^3
# Si number density = 15.503625 Si / 1000 Ang^3
#
#
#
# Elastic Constant Matrix: (Units=GPa)
#
#
# Indices 1 2 3 4 5 6 
#
# 1 121.8348 44.5683 35.6913 0.0000 0.0000 0.0000
# 2 44.5683 53.0572 43.6916 0.0000 0.0000 0.0000
# 3 35.6913 43.6916 64.0534 0.0000 0.0000 0.0000
# 4 0.0000 0.0000 0.0000 -30.6539 0.0000 0.0000
# 5 0.0000 0.0000 0.0000 0.0000 25.6859 0.0000
# 6 0.0000 0.0000 0.0000 0.0000 0.0000 11.8459
#
#
#
# Elastic Compliance Matrix: (Units=1/GPa)
#
#
# Indices 1 2 3 4 5 6 
#
# 1 0.011854 -0.010308 0.000426 0.000000 0.000000 0.000000
# 2 -0.010308 0.051967 -0.029703 0.000000 0.000000 0.000000
# 3 0.000426 -0.029703 0.035635 0.000000 0.000000 0.000000
# 4 0.000000 0.000000 0.000000 -0.032622 0.000000 0.000000
# 5 0.000000 0.000000 0.000000 0.000000 0.038932 0.000000
# 6 0.000000 0.000000 0.000000 0.000000 0.000000 0.084417
#
#
# Mechanical properties :
#
#
# Convention : Reuss Voigt Hill
#
# Bulk Modulus (GPa) = 49.29636 54.09419 51.69528
# Shear Modulus (GPa) = 18.10843 9.04188 13.57516
#
# Velocity S-wave (km/s) = 3.42133 2.41760 2.96228
# Velocity P-wave (km/s) = 6.89007 6.53912 6.71689
#
# Compressibility (1/GPa) = 0.02028547
#
# Stress axis : x y z
#
# Youngs Moduli (GPa) = 84.36095 19.24311 28.06212
#
# Poissons Ratio (x) = 0.19837 -0.01197
# Poissons Ratio (y) = 0.86963 0.83353
# Poissons Ratio (z) = -0.03597 0.57158
#
# Static dielectric constant tensor:
#      x y z
#    x 1.555670 0.000000 0.000000 
#    y 0.000000 1.472350 0.000000 
#    z 0.000000 0.000000 1.529860 
# 
# From -- ./inp_files/28598.got.cif
#   From: 2010.05.17/outbox.cif.g08.bks.cpg/sg65_15_cif.got.tgz:28598.got - 2010.06.03 17:01:31.
