data_PCOD9482526
_publ_section_title
;
Structure prediction by ZEFSAII (Michael W. Deem and Ramdas Pophale) SiO2 
 PCOD9482526
Probable space group: C M M M
;
_chemical_formula_sum "Si O2"
_cell_formula_units_Z 92
_cell_length_a 22.580332
_cell_length_b 25.178269
_cell_length_c 7.712463
_cell_angle_alpha 90.000000
_cell_angle_beta 90.000000
_cell_angle_gamma 90.000000
_cell_volume 4384.794919
_symmetry_space_group_name_H-M "C M M M"
_symmetry_group_IT_number 65
_symmetry_cell_setting 'orthorhombic'
loop_
_space_group_symop_operation_xyz
x,y,z
-x,-y,z
x,-y,-z
-x,y,-z
-x,-y,-z
x,y,-z
-x,y,z
x,-y,z
1/2+x,1/2+y,z
1/2-x,1/2-y,z
1/2+x,1/2-y,-z
1/2-x,1/2+y,-z
1/2-x,1/2-y,-z
1/2+x,1/2+y,-z
1/2-x,1/2+y,z
1/2+x,1/2-y,z
loop_
_atom_site_type_symbol
_atom_site_label
_atom_site_fract_x
_atom_site_fract_y
_atom_site_fract_z
Si Si1 0.388812 0.883679 0.790313
Si Si2 0.934432 0.272817 0.789477
Si Si3 0.759808 0.000000 0.745588
Si Si4 0.637064 0.325962 0.696795
Si Si5 0.752049 0.383848 0.208803
Si Si6 0.130731 0.000000 0.000000
Si Si7 0.381848 0.000000 0.801565
Si Si8 0.570093 0.612742 0.000000
O O1 0.426638 0.833681 0.731592
O O2 0.320012 0.869822 0.758483
O O3 0.400001 0.943371 0.722036
O O4 0.395469 0.887133 0.000000
O O5 0.883550 0.234639 0.719331
O O6 0.000000 0.253204 0.740322
O O7 0.930798 0.271752 0.000000
O O8 0.760927 0.938394 0.687740
O O9 0.690537 0.000000 0.810850
O O10 0.822248 0.000000 0.844784
O O11 0.626220 0.342577 0.500000
O O12 0.704942 0.339115 0.743614
O O13 0.598010 0.358883 0.832764
O O14 0.746129 0.395885 0.000000
O O15 0.091228 0.947840 0.000000
O O16 0.403523 0.000000 0.000000
O O17 0.500000 0.617966 0.000000
#
# Coordination Sequence:
#
# PCOD9482526 Si02
#       8
#    16  16   8  16  16   4   8   8
#     4   8  16  28  53  85 116 154 191 234 291 350
#     4  10  20  37  56  78 112 156 202 244 287 341
#     4  10  12  25  54  80 109 149 186 228 281 349
#     4  12  24  39  62  87 113 152 200 244 293 347
#     4  10  16  32  56  84 116 147 187 236 293 348
#     4  12  17  34  62  86 112 152 199 232 294 346
#     4   8  12  22  46  84 117 144 186 232 282 350
#     4  12  25  42  60  84 119 156 198 248 290 340
#
# _framework density 20.981596
#
# number of rings (size 3 to 8) (size 9 to 14) (size 15 to 20)
#    0.000    1.913    4.783    1.696    0.000    2.087 
#    0.000    6.522    0.000    3.652    0.000    1.826 
#    0.000    1.391    0.000    0.000    0.000    0.000 
#
# Total GULP energy -256298.468126 kJ/mol
# GULP energy per Si atom -5571.705829 kJ/mol
# Density = 2.093384 g / cm^3
# Si number density = 20.981596 Si / 1000 Ang^3
#
#
#
# Elastic Constant Matrix: (Units=GPa)
#
#
# Indices 1 2 3 4 5 6 
#
# 1 23.1667 15.6575 7.5141 0.0000 0.0000 0.0000
# 2 15.6575 123.7569 8.0136 0.0000 0.0000 0.0000
# 3 7.5141 8.0136 86.1451 0.0000 0.0000 0.0000
# 4 0.0000 0.0000 0.0000 7.0859 0.0000 0.0000
# 5 0.0000 0.0000 0.0000 0.0000 -17.5417 0.0000
# 6 0.0000 0.0000 0.0000 0.0000 0.0000 8.0778
#
#
#
# Elastic Compliance Matrix: (Units=1/GPa)
#
#
# Indices 1 2 3 4 5 6 
#
# 1 0.048327 -0.005877 -0.003669 0.000000 0.000000 0.000000
# 2 -0.005877 0.008844 -0.000310 0.000000 0.000000 0.000000
# 3 -0.003669 -0.000310 0.011957 0.000000 0.000000 0.000000
# 4 0.000000 0.000000 0.000000 0.141125 0.000000 0.000000
# 5 0.000000 0.000000 0.000000 0.000000 -0.057007 0.000000
# 6 0.000000 0.000000 0.000000 0.000000 0.000000 0.123796
#
#
# Mechanical properties :
#
#
# Convention : Reuss Voigt Hill
#
# Bulk Modulus (GPa) = 20.23586 32.82657 26.53121
# Shear Modulus (GPa) = 15.96294 12.98331 14.47313
#
# Velocity S-wave (km/s) = 2.76126 2.49026 2.62926
# Velocity P-wave (km/s) = 4.45327 4.89366 4.67865
#
# Compressibility (1/GPa) = 0.04941723
#
# Stress axis : x y z
#
# Youngs Moduli (GPa) = 20.69229 113.07163 83.63180
#
# Poissons Ratio (x) = 0.66449 0.30682
# Poissons Ratio (y) = 0.12160 0.02593
# Poissons Ratio (z) = 0.07591 0.03506
#
# Static dielectric constant tensor:
#      x y z
#    x 1.703240 0.000000 0.000000 
#    y 0.000000 1.777380 0.000000 
#    z 0.000000 0.000000 1.805360 
# 
# From -- ./inp_files/14447.got.cif
#   From: 2010.05.17/outbox.cif.g08.bks.cpg/sg65_8_cif.got.tgz:14447.got - 2010.06.03 17:01:31.
