data_PCOD9482628
_publ_section_title
;
Structure prediction by ZEFSAII (Michael W. Deem and Ramdas Pophale) SiO2 
 PCOD9482628
Probable space group: C M M M
;
_chemical_formula_sum "Si O2"
_cell_formula_units_Z 88
_cell_length_a 19.180418
_cell_length_b 8.676191
_cell_length_c 29.414313
_cell_angle_alpha 90.000000
_cell_angle_beta 90.000000
_cell_angle_gamma 90.000000
_cell_volume 4894.923188
_symmetry_space_group_name_H-M "C M M M"
_symmetry_group_IT_number 65
_symmetry_cell_setting 'orthorhombic'
loop_
_space_group_symop_operation_xyz
x,y,z
-x,-y,z
x,-y,-z
-x,y,-z
-x,-y,-z
x,y,-z
-x,y,z
x,-y,z
1/2+x,1/2+y,z
1/2-x,1/2-y,z
1/2+x,1/2-y,-z
1/2-x,1/2+y,-z
1/2-x,1/2-y,-z
1/2+x,1/2+y,-z
1/2-x,1/2+y,z
1/2+x,1/2-y,z
loop_
_atom_site_type_symbol
_atom_site_label
_atom_site_fract_x
_atom_site_fract_y
_atom_site_fract_z
Si Si1 0.417670 0.316828 0.133297
Si Si2 0.582763 0.816943 0.769122
Si Si3 0.327880 0.815348 0.948578
Si Si4 0.328140 0.683383 0.687575
Si Si5 0.170782 0.315586 0.593349
Si Si6 0.329518 0.684529 0.500000
O O1 0.500000 0.285784 0.127265
O O2 0.407864 0.500000 0.137402
O O3 0.395718 0.237288 0.180505
O O4 0.376139 0.253533 0.090359
O O5 0.500000 0.784616 0.764585
O O6 0.625646 0.729839 0.730525
O O7 0.593340 0.000000 0.764532
O O8 0.250000 0.750000 0.943306
O O9 0.326240 0.000000 0.944917
O O10 0.351559 0.775205 0.000000
O O11 0.323774 0.500000 0.682172
O O12 0.250000 0.750000 0.693846
O O13 0.359061 0.757160 0.641209
O O14 0.172313 0.500000 0.591384
O O15 0.250000 0.250000 0.594388
O O16 0.138525 0.247683 0.547000
O O17 0.327374 0.500000 0.500000
O O18 0.250000 0.750000 0.500000
#
# Coordination Sequence:
#
# PCOD9482628 Si02
#       6
#    16  16  16  16  16   8
#     4  10  21  37  57  81 108 138 174 216 260 307
#     4  10  21  38  58  79 105 137 174 216 262 312
#     4  10  21  37  57  81 110 143 178 216 259 308
#     4  11  21  34  52  76 106 137 173 216 262 311
#     4  10  17  27  42  64  95 130 168 209 257 308
#     4  10  16  24  38  60  91 128 167 206 255 308
#
# _framework density 17.977809000000001
#
# number of rings (size 3 to 8) (size 9 to 14) (size 15 to 20)
#    0.000    1.818    0.000    7.909    0.000    4.364 
#    0.000    5.455    0.000    0.000    0.000    0.636 
#    0.000    5.091    0.000    0.000    0.000    0.000 
#
# Total GULP energy -245610.413737 kJ/mol
# GULP energy per Si atom -5582.054858 kJ/mol
# Density = 1.793689 g / cm^3
# Si number density = 17.977809 Si / 1000 Ang^3
#
#
#
# Elastic Constant Matrix: (Units=GPa)
#
#
# Indices 1 2 3 4 5 6 
#
# 1 24.4174 34.4235 47.5951 0.0000 0.0000 0.0000
# 2 34.4235 134.9887 75.2795 0.0000 0.0000 0.0000
# 3 47.5951 75.2795 168.8536 0.0000 0.0000 0.0000
# 4 0.0000 0.0000 0.0000 36.9727 0.0000 0.0000
# 5 0.0000 0.0000 0.0000 0.0000 -0.4084 0.0000
# 6 0.0000 0.0000 0.0000 0.0000 0.0000 21.8313
#
#
#
# Elastic Compliance Matrix: (Units=1/GPa)
#
#
# Indices 1 2 3 4 5 6 
#
# 1 0.107728 -0.014025 -0.024113 0.000000 0.000000 0.000000
# 2 -0.014025 0.011685 -0.001256 0.000000 0.000000 0.000000
# 3 -0.024113 -0.001256 0.013279 0.000000 0.000000 0.000000
# 4 0.000000 0.000000 0.000000 0.027047 0.000000 0.000000
# 5 0.000000 0.000000 0.000000 0.000000 -2.448848 0.000000
# 6 0.000000 0.000000 0.000000 0.000000 0.000000 0.045806
#
#
# Mechanical properties :
#
#
# Convention : Reuss Voigt Hill
#
# Bulk Modulus (GPa) = 18.55136 71.42845 44.98990
# Shear Modulus (GPa) = -2.32932 23.07656 10.37362
#
# Velocity S-wave (km/s) = -1.13951 3.58664 2.40474
# Velocity P-wave (km/s) = 2.93430 7.54783 5.72625
#
# Compressibility (1/GPa) = 0.05390440
#
# Stress axis : x y z
#
# Youngs Moduli (GPa) = 9.28263 85.57902 75.30581
#
# Poissons Ratio (x) = 1.20022 1.81585
# Poissons Ratio (y) = 0.13019 0.09461
# Poissons Ratio (z) = 0.22383 0.10752
#
# Static dielectric constant tensor:
#      x y z
#    x 1.590210 0.000000 0.000000 
#    y 0.000000 1.598930 0.000000 
#    z 0.000000 0.000000 1.648260 
# 
# From -- ./inp_files/71009.got.cif
#   From: 2010.05.17/outbox.cif.g08.bks.cpg/sg65_36_cif.got.tgz:71009.got - 2010.06.03 17:01:31.
