data_PCOD9483841
_publ_section_title
;
Structure prediction by ZEFSAII (Michael W. Deem and Ramdas Pophale) SiO2 
 PCOD9483841
Probable space group: C M M M
;
_chemical_formula_sum "Si O2"
_cell_formula_units_Z 88
_cell_length_a 28.404692
_cell_length_b 19.879375
_cell_length_c 7.578874
_cell_angle_alpha 90.000000
_cell_angle_beta 90.000000
_cell_angle_gamma 90.000000
_cell_volume 4279.544016
_symmetry_space_group_name_H-M "C M M M"
_symmetry_group_IT_number 65
_symmetry_cell_setting 'orthorhombic'
loop_
_space_group_symop_operation_xyz
x,y,z
-x,-y,z
x,-y,-z
-x,y,-z
-x,-y,-z
x,y,-z
-x,y,z
x,-y,z
1/2+x,1/2+y,z
1/2-x,1/2-y,z
1/2+x,1/2-y,-z
1/2-x,1/2+y,-z
1/2-x,1/2-y,-z
1/2+x,1/2+y,-z
1/2-x,1/2+y,z
1/2+x,1/2-y,z
loop_
_atom_site_type_symbol
_atom_site_label
_atom_site_fract_x
_atom_site_fract_y
_atom_site_fract_z
Si Si1 0.211428 0.418511 0.796717
Si Si2 0.686199 0.578344 0.783664
Si Si3 0.406398 0.346303 0.210047
Si Si4 0.000000 0.077931 0.215996
Si Si5 0.946581 0.295497 0.286942
Si Si6 0.893188 0.424393 0.705382
O O1 0.214247 0.500000 0.793416
O O2 0.262149 0.396894 0.723345
O O3 0.161479 0.402036 0.712157
O O4 0.208184 0.396771 0.000000
O O5 0.679329 0.500000 0.733922
O O6 0.642337 0.622649 0.722525
O O7 0.688048 0.579303 0.000000
O O8 0.452830 0.384714 0.278187
O O9 0.414193 0.267651 0.240305
O O10 0.405612 0.357909 0.000000
O O11 0.000000 0.000000 0.266637
O O12 0.000000 0.080358 0.000000
O O13 0.947878 0.298732 0.500000
O O14 0.925503 0.365697 0.218407
O O15 0.000000 0.283901 0.224047
O O16 0.906037 0.430218 0.500000
O O17 0.896862 0.500000 0.782869
#
# Coordination Sequence:
#
# PCOD9483841 Si02
#       6
#    16  16  16   8  16  16
#     4   8  14  27  48  73  99 125 152 189 240 286
#     4   8  14  26  47  74 101 128 160 197 233 272
#     4  10  18  30  49  73  98 127 163 199 233 275
#     4   9  16  26  45  73  98 121 158 204 237 261
#     4  10  21  36  51  67  94 129 157 192 247 297
#     4   9  18  33  53  74  92 116 157 202 240 286
#
# _framework density 20.562937999999999
#
# number of rings (size 3 to 8) (size 9 to 14) (size 15 to 20)
#    0.000    3.000    0.909    1.636    0.000    3.273 
#    0.000    3.636    0.000    9.273    0.000    3.818 
#    0.000    0.000    0.000    0.000    0.000    0.000 
#
# Total GULP energy -245277.238214 kJ/mol
# GULP energy per Si atom -5574.482687 kJ/mol
# Density = 2.051614 g / cm^3
# Si number density = 20.562938 Si / 1000 Ang^3
#
#
#
# Elastic Constant Matrix: (Units=GPa)
#
#
# Indices 1 2 3 4 5 6 
#
# 1 43.9760 27.7825 -9.4607 0.0000 0.0000 0.0000
# 2 27.7825 86.6900 -8.8926 0.0000 0.0000 0.0000
# 3 -9.4607 -8.8926 39.9609 0.0000 0.0000 0.0000
# 4 0.0000 0.0000 0.0000 15.7329 0.0000 0.0000
# 5 0.0000 0.0000 0.0000 0.0000 15.5542 0.0000
# 6 0.0000 0.0000 0.0000 0.0000 0.0000 2.6330
#
#
#
# Elastic Compliance Matrix: (Units=1/GPa)
#
#
# Indices 1 2 3 4 5 6 
#
# 1 0.029452 -0.008927 0.004986 0.000000 0.000000 0.000000
# 2 -0.008927 0.014511 0.001116 0.000000 0.000000 0.000000
# 3 0.004986 0.001116 0.026453 0.000000 0.000000 0.000000
# 4 0.000000 0.000000 0.000000 0.063561 0.000000 0.000000
# 5 0.000000 0.000000 0.000000 0.000000 0.064291 0.000000
# 6 0.000000 0.000000 0.000000 0.000000 0.000000 0.379802
#
#
# Mechanical properties :
#
#
# Convention : Reuss Voigt Hill
#
# Bulk Modulus (GPa) = 15.44039 21.05390 18.24715
# Shear Modulus (GPa) = 8.26022 17.53052 12.89537
#
# Velocity S-wave (km/s) = 2.00643 2.92298 2.50695
# Velocity P-wave (km/s) = 3.59066 4.65325 4.15605
#
# Compressibility (1/GPa) = 0.06476519
#
# Stress axis : x y z
#
# Youngs Moduli (GPa) = 33.95301 68.91385 37.80260
#
# Poissons Ratio (x) = 0.61523 -0.18849
# Poissons Ratio (y) = 0.30311 -0.04217
# Poissons Ratio (z) = -0.16930 -0.07688
#
# Static dielectric constant tensor:
#      x y z
#    x 1.748540 0.000000 0.000000 
#    y 0.000000 1.707270 0.000000 
#    z 0.000000 0.000000 1.764010 
# 
# From -- ./inp_files/18271.got.cif
#   From: 2010.05.17/outbox.cif.g08.bks.cpg/sg65_10_cif.got.tgz:18271.got - 2010.06.03 17:01:31.
