data_PCOD9483009
_publ_section_title
;
Structure prediction by ZEFSAII (Michael W. Deem and Ramdas Pophale) SiO2 
 PCOD9483009
Probable space group: C M M M
;
_chemical_formula_sum "Si O2"
_cell_formula_units_Z 80
_cell_length_a 7.913528
_cell_length_b 24.230921
_cell_length_c 21.407543
_cell_angle_alpha 90.000000
_cell_angle_beta 90.000000
_cell_angle_gamma 90.000000
_cell_volume 4104.940722
_symmetry_space_group_name_H-M "C M M M"
_symmetry_group_IT_number 65
_symmetry_cell_setting 'orthorhombic'
loop_
_space_group_symop_operation_xyz
x,y,z
-x,-y,z
x,-y,-z
-x,y,-z
-x,-y,-z
x,y,-z
-x,y,z
x,-y,z
1/2+x,1/2+y,z
1/2-x,1/2-y,z
1/2+x,1/2-y,-z
1/2-x,1/2+y,-z
1/2-x,1/2-y,-z
1/2+x,1/2+y,-z
1/2-x,1/2+y,z
1/2+x,1/2-y,z
loop_
_atom_site_type_symbol
_atom_site_label
_atom_site_fract_x
_atom_site_fract_y
_atom_site_fract_z
Si Si1 0.204871 0.000000 0.893131
Si Si2 0.204430 0.186120 0.191686
Si Si3 0.195466 0.885058 0.305824
Si Si4 0.794177 0.121864 0.067932
Si Si5 0.303872 0.000000 0.750999
Si Si6 0.202074 0.562631 0.569930
O O1 0.250482 0.057254 0.925995
O O2 0.286676 0.000000 0.825141
O O3 0.000000 0.000000 0.885793
O O4 0.250000 0.250000 0.189123
O O5 0.270970 0.157612 0.255422
O O6 0.265603 0.154463 0.129265
O O7 0.000000 0.180558 0.192032
O O8 0.218322 0.944928 0.274346
O O9 0.260337 0.893941 0.375875
O O10 0.000000 0.871172 0.311797
O O11 0.000000 0.124581 0.068508
O O12 0.737185 0.143059 0.000000
O O13 0.500000 0.000000 0.731096
O O14 0.264545 0.576218 0.500000
O O15 0.263815 0.500000 0.585571
O O16 0.000000 0.559033 0.566789
#
# Coordination Sequence:
#
# PCOD9483009 Si02
#       6
#     8  16  16  16   8  16
#     4  10  17  32  54  79 109 137 174 217 263 327
#     4  10  22  38  55  77 104 137 183 233 273 315
#     4  11  21  35  55  80 109 141 181 227 265 310
#     4   9  17  31  54  81 107 138 175 217 268 323
#     4  12  22  31  50  80 110 143 176 214 272 328
#     4   9  18  32  51  81 119 150 174 205 255 319
#
# _framework density 19.488710000000001
#
# number of rings (size 3 to 8) (size 9 to 14) (size 15 to 20)
#    0.000    2.000    3.000    2.400    0.000    3.600 
#    0.000    1.000    0.000    3.000    0.000    0.000 
#    0.000    0.000    0.000    0.000    0.000    0.000 
#
# Total GULP energy -223122.295546 kJ/mol
# GULP energy per Si atom -5578.057389 kJ/mol
# Density = 1.944435 g / cm^3
# Si number density = 19.488710 Si / 1000 Ang^3
#
#
#
# Elastic Constant Matrix: (Units=GPa)
#
#
# Indices 1 2 3 4 5 6 
#
# 1 16.6770 -1.8284 14.9086 0.0000 0.0000 0.0000
# 2 -1.8284 112.2081 75.6684 0.0000 0.0000 0.0000
# 3 14.9086 75.6684 195.2396 0.0000 0.0000 0.0000
# 4 0.0000 0.0000 0.0000 11.5485 0.0000 0.0000
# 5 0.0000 0.0000 0.0000 0.0000 37.7570 0.0000
# 6 0.0000 0.0000 0.0000 0.0000 0.0000 17.4784
#
#
#
# Elastic Compliance Matrix: (Units=1/GPa)
#
#
# Indices 1 2 3 4 5 6 
#
# 1 0.067383 0.006184 -0.007542 0.000000 0.000000 0.000000
# 2 0.006184 0.012633 -0.005368 0.000000 0.000000 0.000000
# 3 -0.007542 -0.005368 0.007778 0.000000 0.000000 0.000000
# 4 0.000000 0.000000 0.000000 0.086592 0.000000 0.000000
# 5 0.000000 0.000000 0.000000 0.000000 0.026485 0.000000
# 6 0.000000 0.000000 0.000000 0.000000 0.000000 0.057214
#
#
# Mechanical properties :
#
#
# Convention : Reuss Voigt Hill
#
# Bulk Modulus (GPa) = 13.45140 55.73578 34.59359
# Shear Modulus (GPa) = 16.87376 29.04851 22.96114
#
# Velocity S-wave (km/s) = 2.94568 3.86493 3.43618
# Velocity P-wave (km/s) = 4.29959 6.96979 5.79070
#
# Compressibility (1/GPa) = 0.07434170
#
# Stress axis : x y z
#
# Youngs Moduli (GPa) = 14.84052 79.15793 128.56063
#
# Poissons Ratio (x) = -0.48952 0.96963
# Poissons Ratio (y) = -0.09178 0.69016
# Poissons Ratio (z) = 0.11193 0.42495
#
# Static dielectric constant tensor:
#      x y z
#    x 1.703200 0.000000 0.000000 
#    y 0.000000 1.646800 0.000000 
#    z 0.000000 0.000000 1.727680 
# 
# From -- ./inp_files/59669.got.cif
#   From: 2010.05.17/outbox.cif.g08.bks.cpg/sg65_30_cif.got.tgz:59669.got - 2010.06.03 17:01:31.
