data_PCOD9483380
_publ_section_title
;
Structure prediction by ZEFSAII (Michael W. Deem and Ramdas Pophale) SiO2 
 PCOD9483380
Probable space group: C M M M
;
_chemical_formula_sum "Si O2"
_cell_formula_units_Z 116
_cell_length_a 27.718760
_cell_length_b 27.237648
_cell_length_c 9.071033
_cell_angle_alpha 90.000000
_cell_angle_beta 90.000000
_cell_angle_gamma 90.000000
_cell_volume 6848.573927
_symmetry_space_group_name_H-M "C M M M"
_symmetry_group_IT_number 65
_symmetry_cell_setting 'orthorhombic'
loop_
_space_group_symop_operation_xyz
x,y,z
-x,-y,z
x,-y,-z
-x,y,-z
-x,-y,-z
x,y,-z
-x,y,z
x,-y,z
1/2+x,1/2+y,z
1/2-x,1/2-y,z
1/2+x,1/2-y,-z
1/2-x,1/2+y,-z
1/2-x,1/2-y,-z
1/2+x,1/2+y,-z
1/2-x,1/2+y,z
1/2+x,1/2-y,z
loop_
_atom_site_type_symbol
_atom_site_label
_atom_site_fract_x
_atom_site_fract_y
_atom_site_fract_z
Si Si1 0.444087 0.699192 0.671272
Si Si2 0.816885 0.942138 0.668694
Si Si3 0.637897 0.756366 0.173830
Si Si4 0.000000 0.000000 0.752732
Si Si5 0.076374 0.913714 0.678714
Si Si6 0.314278 0.149475 0.676061
Si Si7 0.785272 0.556668 0.825111
Si Si8 0.282401 0.701105 0.664005
O O1 0.428049 0.702579 0.500000
O O2 0.500000 0.712390 0.678847
O O3 0.412369 0.735527 0.768087
O O4 0.439338 0.641768 0.714270
O O5 0.805525 0.926459 0.500000
O O6 0.866949 0.917821 0.717571
O O7 0.769775 0.936904 0.768244
O O8 0.827985 0.000000 0.663537
O O9 0.654346 0.807015 0.252305
O O10 0.676035 0.714281 0.223370
O O11 0.639010 0.763244 0.000000
O O12 0.957567 0.956241 0.745214
O O13 0.072333 0.920344 0.500000
O O14 0.320533 0.150352 0.500000
O O15 0.319586 0.095718 0.744272
O O16 0.257827 0.162135 0.706941
O O17 0.798189 0.500000 0.792551
O O18 0.786996 0.564410 0.000000
O O19 0.302214 0.690827 0.500000
O O20 0.250000 0.750000 0.652743
#
# Coordination Sequence:
#
# PCOD9483380 Si02
#       8
#    16  16  16   4  16  16  16  16
#     4  10  21  36  52  73 102 137 176 222 275 324
#     4   9  17  29  45  68  96 130 172 215 261 313
#     4  11  22  35  53  76 103 134 169 216 269 327
#     4  12  17  28  52  80 101 122 177 248 291 318
#     4  10  18  28  47  73  99 126 167 228 284 320
#     4  10  20  35  56  78 102 135 174 216 257 311
#     4  10  21  35  50  73 108 144 174 208 252 307
#     4   8  16  31  49  71  98 129 167 211 256 303
#
# _framework density 16.937832
#
# number of rings (size 3 to 8) (size 9 to 14) (size 15 to 20)
#    0.000    2.207    1.379    3.517    1.931    4.138 
#    0.000    0.000    0.000    0.000    0.000    1.931 
#    0.000    0.552    0.000    5.793    0.000    2.483 
#
# Total GULP energy -322903.973271 kJ/mol
# GULP energy per Si atom -5567.309884 kJ/mol
# Density = 1.689928 g / cm^3
# Si number density = 16.937832 Si / 1000 Ang^3
#
#
#
# Elastic Constant Matrix: (Units=GPa)
#
#
# Indices 1 2 3 4 5 6 
#
# 1 51.1749 40.4585 32.6594 0.0000 0.0000 0.0000
# 2 40.4585 111.5101 55.0098 0.0000 0.0000 0.0000
# 3 32.6594 55.0098 64.2158 0.0000 0.0000 0.0000
# 4 0.0000 0.0000 0.0000 15.7097 0.0000 0.0000
# 5 0.0000 0.0000 0.0000 0.0000 34.4494 0.0000
# 6 0.0000 0.0000 0.0000 0.0000 0.0000 59.6811
#
#
#
# Elastic Compliance Matrix: (Units=1/GPa)
#
#
# Indices 1 2 3 4 5 6 
#
# 1 0.031109 -0.006030 -0.010656 0.000000 0.000000 0.000000
# 2 -0.006030 0.016700 -0.011239 0.000000 0.000000 0.000000
# 3 -0.010656 -0.011239 0.030620 0.000000 0.000000 0.000000
# 4 0.000000 0.000000 0.000000 0.063655 0.000000 0.000000
# 5 0.000000 0.000000 0.000000 0.000000 0.029028 0.000000
# 6 0.000000 0.000000 0.000000 0.000000 0.000000 0.016756
#
#
# Mechanical properties :
#
#
# Convention : Reuss Voigt Hill
#
# Bulk Modulus (GPa) = 44.29020 53.68402 48.98711
# Shear Modulus (GPa) = 19.90101 28.55292 24.22696
#
# Velocity S-wave (km/s) = 3.43146 4.11024 3.78609
# Velocity P-wave (km/s) = 6.47344 7.36811 6.93521
#
# Compressibility (1/GPa) = 0.02257836
#
# Stress axis : x y z
#
# Youngs Moduli (GPa) = 32.14531 59.87974 32.65876
#
# Poissons Ratio (x) = 0.36109 0.34800
# Poissons Ratio (y) = 0.19385 0.36705
# Poissons Ratio (z) = 0.34253 0.67299
#
# Static dielectric constant tensor:
#      x y z
#    x 1.559500 0.000000 0.000000 
#    y 0.000000 1.617200 0.000000 
#    z 0.000000 0.000000 1.583610 
# 
# From -- ./inp_files/17111.got.cif
#   From: 2010.05.17/outbox.cif.g08.bks.cpg/sg65_9_cif.got.tgz:17111.got - 2010.06.03 17:01:31.
