data_PCOD9483067
_publ_section_title
;
Structure prediction by ZEFSAII (Michael W. Deem and Ramdas Pophale) SiO2 
 PCOD9483067
Probable space group: C M M M
;
_chemical_formula_sum "Si O2"
_cell_formula_units_Z 88
_cell_length_a 31.387887
_cell_length_b 28.053553
_cell_length_c 7.955373
_cell_angle_alpha 90.000000
_cell_angle_beta 90.000000
_cell_angle_gamma 90.000000
_cell_volume 7005.038075
_symmetry_space_group_name_H-M "C M M M"
_symmetry_group_IT_number 65
_symmetry_cell_setting 'orthorhombic'
loop_
_space_group_symop_operation_xyz
x,y,z
-x,-y,z
x,-y,-z
-x,y,-z
-x,-y,-z
x,y,-z
-x,y,z
x,-y,z
1/2+x,1/2+y,z
1/2-x,1/2-y,z
1/2+x,1/2-y,-z
1/2-x,1/2+y,-z
1/2-x,1/2-y,-z
1/2+x,1/2+y,-z
1/2-x,1/2+y,z
1/2+x,1/2-y,z
loop_
_atom_site_type_symbol
_atom_site_label
_atom_site_fract_x
_atom_site_fract_y
_atom_site_fract_z
Si Si1 0.367835 0.754468 0.314826
Si Si2 0.682053 0.724737 0.000000
Si Si3 0.548399 0.197357 0.199458
Si Si4 0.450740 0.000000 0.705508
Si Si5 0.820763 0.357660 0.692361
Si Si6 0.731314 0.172734 0.000000
Si Si7 0.408783 0.098681 0.296738
O O1 0.361905 0.733548 0.500000
O O2 0.416900 0.768278 0.283546
O O3 0.343438 0.805588 0.311908
O O4 0.347297 0.724443 0.165121
O O5 0.706320 0.776208 0.000000
O O6 0.719050 0.685573 0.000000
O O7 0.500000 0.203095 0.259806
O O8 0.564033 0.143187 0.229896
O O9 0.549746 0.206007 0.000000
O O10 0.427370 0.048285 0.760220
O O11 0.500000 0.000000 0.757891
O O12 0.450177 0.000000 0.500000
O O13 0.807144 0.368073 0.500000
O O14 0.859208 0.392719 0.745229
O O15 0.784464 0.354199 0.832476
O O16 0.411324 0.100973 0.500000
#
# Coordination Sequence:
#
# PCOD9483067 Si02
#       7
#    16   8  16   8  16   8  16
#     4   9  16  26  38  50  69  90 106 132 164 196
#     4   9  16  26  35  54  70  82 105 124 158 204
#     4  10  18  26  37  51  67  89 117 146 171 202
#     4   9  16  26  39  53  69  89 115 147 183 220
#     4   8  15  25  37  53  66  83 110 132 161 204
#     4   9  16  24  40  51  67  88  98 127 161 197
#     4   9  17  27  39  52  66  86 113 146 179 214
#
# _framework density 12.562386
#
# number of rings (size 3 to 8) (size 9 to 14) (size 15 to 20)
#    0.000    3.000    0.909    2.182    3.818    2.909 
#    0.000    4.091    0.000    1.636    0.000    0.000 
#    0.000    0.000    0.000    0.000    0.000    0.000 
#
# Total GULP energy -244989.811756 kJ/mol
# GULP energy per Si atom -5567.950267 kJ/mol
# Density = 1.253379 g / cm^3
# Si number density = 12.562386 Si / 1000 Ang^3
#
#
#
# Elastic Constant Matrix: (Units=GPa)
#
#
# Indices 1 2 3 4 5 6 
#
# 1 90.3643 34.4452 53.1773 0.0000 0.0000 0.0000
# 2 34.4452 23.7064 22.5475 0.0000 0.0000 0.0000
# 3 53.1773 22.5475 75.3607 0.0000 0.0000 0.0000
# 4 0.0000 0.0000 0.0000 7.5405 0.0000 0.0000
# 5 0.0000 0.0000 0.0000 0.0000 10.5546 0.0000
# 6 0.0000 0.0000 0.0000 0.0000 0.0000 19.1081
#
#
#
# Elastic Compliance Matrix: (Units=1/GPa)
#
#
# Indices 1 2 3 4 5 6 
#
# 1 0.030689 -0.033538 -0.011621 0.000000 0.000000 0.000000
# 2 -0.033538 0.095612 -0.004941 0.000000 0.000000 0.000000
# 3 -0.011621 -0.004941 0.022948 0.000000 0.000000 0.000000
# 4 0.000000 0.000000 0.000000 0.132617 0.000000 0.000000
# 5 0.000000 0.000000 0.000000 0.000000 0.094745 0.000000
# 6 0.000000 0.000000 0.000000 0.000000 0.000000 0.052334
#
#
# Mechanical properties :
#
#
# Convention : Reuss Voigt Hill
#
# Bulk Modulus (GPa) = 20.38753 45.53014 32.95884
# Shear Modulus (GPa) = 9.16598 12.72475 10.94537
#
# Velocity S-wave (km/s) = 2.70411 3.18610 2.95495
# Velocity P-wave (km/s) = 5.10038 7.06094 6.15917
#
# Compressibility (1/GPa) = 0.04904959
#
# Stress axis : x y z
#
# Youngs Moduli (GPa) = 32.58494 10.45889 43.57676
#
# Poissons Ratio (x) = 0.35077 0.50640
# Poissons Ratio (y) = 1.09283 0.21531
# Poissons Ratio (z) = 0.37867 0.05168
#
# Static dielectric constant tensor:
#      x y z
#    x 1.410370 0.000000 0.000000 
#    y 0.000000 1.373230 0.000000 
#    z 0.000000 0.000000 1.445770 
# 
# From -- ./inp_files/17176.got.cif
#   From: 2010.05.17/outbox.cif.g08.bks.cpg/sg65_9_cif.got.tgz:17176.got - 2010.06.03 17:01:31.
