data_PCOD9483905
_publ_section_title
;
Structure prediction by ZEFSAII (Michael W. Deem and Ramdas Pophale) SiO2 
 PCOD9483905
Probable space group: C M M M
;
_chemical_formula_sum "Si O2"
_cell_formula_units_Z 104
_cell_length_a 7.358294
_cell_length_b 32.355088
_cell_length_c 18.525140
_cell_angle_alpha 90.000000
_cell_angle_beta 90.000000
_cell_angle_gamma 90.000000
_cell_volume 4410.432910
_symmetry_space_group_name_H-M "C M M M"
_symmetry_group_IT_number 65
_symmetry_cell_setting 'orthorhombic'
loop_
_space_group_symop_operation_xyz
x,y,z
-x,-y,z
x,-y,-z
-x,y,-z
-x,-y,-z
x,y,-z
-x,y,z
x,-y,z
1/2+x,1/2+y,z
1/2-x,1/2-y,z
1/2+x,1/2-y,-z
1/2-x,1/2+y,-z
1/2-x,1/2-y,-z
1/2+x,1/2+y,-z
1/2-x,1/2+y,z
1/2+x,1/2-y,z
loop_
_atom_site_type_symbol
_atom_site_label
_atom_site_fract_x
_atom_site_fract_y
_atom_site_fract_z
Si Si1 0.716025 0.704623 0.692143
Si Si2 0.721139 0.635437 0.420357
Si Si3 0.222606 0.826053 0.158683
Si Si4 0.283410 0.700896 0.000000
Si Si5 0.298272 0.412154 0.779598
Si Si6 0.278526 0.453453 0.365106
Si Si7 0.287742 0.049187 0.076277
O O1 0.500000 0.699179 0.695426
O O2 0.750000 0.750000 0.660591
O O3 0.784047 0.666629 0.642645
O O4 0.780243 0.703645 0.775597
O O5 0.777380 0.649503 0.500000
O O6 0.500000 0.635723 0.418633
O O7 0.775659 0.587465 0.409296
O O8 0.285185 0.869877 0.191473
O O9 0.000000 0.826340 0.154380
O O10 0.285546 0.816732 0.077163
O O11 0.250000 0.750000 0.000000
O O12 0.500000 0.693834 0.000000
O O13 0.500000 0.400433 0.752532
O O14 0.220944 0.440314 0.716177
O O15 0.309822 0.437855 0.852211
O O16 0.500000 0.455533 0.368309
O O17 0.216017 0.500000 0.383812
O O18 0.500000 0.060585 0.082505
O O19 0.279106 0.000000 0.072132
O O20 0.218456 0.066673 0.000000
#
# Coordination Sequence:
#
# PCOD9483905 Si02
#       7
#    16  16  16   8  16  16  16
#     4  10  19  34  54  76 102 135 170 208 255 304
#     4   9  17  30  48  72 104 139 172 206 251 309
#     4   9  18  32  51  72  99 132 163 202 258 308
#     4  10  20  34  50  70  95 128 167 207 252 307
#     4  10  18  30  50  75  98 125 167 214 254 299
#     4   9  16  27  46  73 103 133 167 210 256 301
#     4   9  19  34  47  63  95 135 167 202 253 303
#
# _framework density 23.580451
#
# number of rings (size 3 to 8) (size 9 to 14) (size 15 to 20)
#    0.000    2.615    1.538    1.385    1.077    1.846 
#    0.000    3.846    0.000    0.000    0.000    0.000 
#    0.000    0.000    0.000    4.615    0.000    4.615 
#
# Total GULP energy -289967.615171 kJ/mol
# GULP energy per Si atom -5576.300292 kJ/mol
# Density = 2.352678 g / cm^3
# Si number density = 23.580451 Si / 1000 Ang^3
#
#
#
# Elastic Constant Matrix: (Units=GPa)
#
#
# Indices 1 2 3 4 5 6 
#
# 1 78.8722 3.1568 7.4855 0.0000 0.0000 0.0000
# 2 3.1568 138.5751 49.2508 0.0000 0.0000 0.0000
# 3 7.4855 49.2508 154.9160 0.0000 0.0000 0.0000
# 4 0.0000 0.0000 0.0000 28.4133 0.0000 0.0000
# 5 0.0000 0.0000 0.0000 0.0000 -25.1368 0.0000
# 6 0.0000 0.0000 0.0000 0.0000 0.0000 4.0616
#
#
#
# Elastic Compliance Matrix: (Units=1/GPa)
#
#
# Indices 1 2 3 4 5 6 
#
# 1 0.012738 -0.000081 -0.000590 0.000000 0.000000 0.000000
# 2 -0.000081 0.008136 -0.002583 0.000000 0.000000 0.000000
# 3 -0.000590 -0.002583 0.007305 0.000000 0.000000 0.000000
# 4 0.000000 0.000000 0.000000 0.035195 0.000000 0.000000
# 5 0.000000 0.000000 0.000000 0.000000 -0.039782 0.000000
# 6 0.000000 0.000000 0.000000 0.000000 0.000000 0.246210
#
#
# Mechanical properties :
#
#
# Convention : Reuss Voigt Hill
#
# Bulk Modulus (GPa) = 46.14155 54.68330 50.41242
# Shear Modulus (GPa) = 17.63470 22.29897 19.96683
#
# Velocity S-wave (km/s) = 2.73766 3.07849 2.91306
# Velocity P-wave (km/s) = 5.44088 5.98970 5.72188
#
# Compressibility (1/GPa) = 0.02167244
#
# Stress axis : x y z
#
# Youngs Moduli (GPa) = 78.50555 122.90965 136.89798
#
# Poissons Ratio (x) = 0.00990 0.08076
# Poissons Ratio (y) = 0.00632 0.35357
# Poissons Ratio (z) = 0.04631 0.31744
#
# Static dielectric constant tensor:
#      x y z
#    x 1.933870 0.000000 0.000000 
#    y 0.000000 1.919970 0.000000 
#    z 0.000000 0.000000 1.894280 
# 
# From -- ./inp_files/52119.got.cif
#   From: 2010.05.17/outbox.cif.g08.bks.cpg/sg65_27_cif.got.tgz:52119.got - 2010.06.03 17:01:31.
