data_PCOD9483853
_publ_section_title
;
Structure prediction by ZEFSAII (Michael W. Deem and Ramdas Pophale) SiO2 
 PCOD9483853
Probable space group: C M M M
;
_chemical_formula_sum "Si O2"
_cell_formula_units_Z 104
_cell_length_a 29.422856
_cell_length_b 8.356923
_cell_length_c 23.772241
_cell_angle_alpha 90.000000
_cell_angle_beta 90.000000
_cell_angle_gamma 90.000000
_cell_volume 5845.226591
_symmetry_space_group_name_H-M "C M M M"
_symmetry_group_IT_number 65
_symmetry_cell_setting 'orthorhombic'
loop_
_space_group_symop_operation_xyz
x,y,z
-x,-y,z
x,-y,-z
-x,y,-z
-x,-y,-z
x,y,-z
-x,y,z
x,-y,z
1/2+x,1/2+y,z
1/2-x,1/2-y,z
1/2+x,1/2-y,-z
1/2-x,1/2+y,-z
1/2-x,1/2-y,-z
1/2+x,1/2+y,-z
1/2-x,1/2+y,z
1/2+x,1/2-y,z
loop_
_atom_site_type_symbol
_atom_site_label
_atom_site_fract_x
_atom_site_fract_y
_atom_site_fract_z
Si Si1 0.700591 0.807033 0.223258
Si Si2 0.552337 0.804805 0.063650
Si Si3 0.605756 0.691302 0.609070
Si Si4 0.052085 0.308673 0.500000
Si Si5 0.552574 0.693574 0.279277
Si Si6 0.107315 0.693234 0.828948
Si Si7 0.700481 0.191295 0.353527
O O1 0.750000 0.750000 0.203938
O O2 0.658106 0.750336 0.186284
O O3 0.694595 0.752889 0.288318
O O4 0.700362 0.000000 0.223699
O O5 0.500000 0.757789 0.075465
O O6 0.585899 0.748423 0.112517
O O7 0.553008 0.000000 0.063911
O O8 0.563874 0.754078 0.000000
O O9 0.604494 0.500000 0.608952
O O10 0.578649 0.752280 0.555224
O O11 0.580907 0.748617 0.666260
O O12 0.657892 0.746480 0.611395
O O13 0.050832 0.500000 0.500000
O O14 0.000000 0.248129 0.500000
O O15 0.500000 0.742575 0.283810
O O16 0.554075 0.500000 0.277851
O O17 0.575159 0.758275 0.222692
O O18 0.108625 0.500000 0.831319
O O19 0.750000 0.250000 0.372587
O O20 0.700017 0.000000 0.353676
#
# Coordination Sequence:
#
# PCOD9483853 Si02
#       7
#    16  16  16   8  16  16  16
#     4   9  18  30  47  72 102 133 169 209 258 313
#     4   8  14  25  43  69 100 133 170 213 260 309
#     4  11  22  38  59  81 108 143 179 217 264 317
#     4  11  25  43  62  83 108 143 185 225 263 309
#     4  10  21  34  49  74 107 138 168 207 258 313
#     4  10  18  30  49  75 101 130 171 218 263 307
#     4  10  19  34  55  81 111 140 175 217 264 320
#
# _framework density 17.792297000000001
#
# number of rings (size 3 to 8) (size 9 to 14) (size 15 to 20)
#    0.000    2.231    1.538    2.538    0.000    4.000 
#    0.000    0.385    0.000    0.923    0.000    2.154 
#    0.000    0.000    0.000    0.000    0.000    0.000 
#
# Total GULP energy -290199.778063 kJ/mol
# GULP energy per Si atom -5580.764963 kJ/mol
# Density = 1.775180 g / cm^3
# Si number density = 17.792297 Si / 1000 Ang^3
#
#
#
# Elastic Constant Matrix: (Units=GPa)
#
#
# Indices 1 2 3 4 5 6 
#
# 1 179.9307 22.9085 89.1455 0.0000 0.0000 0.0000
# 2 22.9085 16.8452 16.0466 0.0000 0.0000 0.0000
# 3 89.1455 16.0466 119.8783 0.0000 0.0000 0.0000
# 4 0.0000 0.0000 0.0000 13.2926 0.0000 0.0000
# 5 0.0000 0.0000 0.0000 0.0000 30.9798 0.0000
# 6 0.0000 0.0000 0.0000 0.0000 0.0000 21.9705
#
#
#
# Elastic Compliance Matrix: (Units=1/GPa)
#
#
# Indices 1 2 3 4 5 6 
#
# 1 0.009484 -0.007082 -0.006104 0.000000 0.000000 0.000000
# 2 -0.007082 0.073329 -0.004549 0.000000 0.000000 0.000000
# 3 -0.006104 -0.004549 0.013490 0.000000 0.000000 0.000000
# 4 0.000000 0.000000 0.000000 0.075230 0.000000 0.000000
# 5 0.000000 0.000000 0.000000 0.000000 0.032279 0.000000
# 6 0.000000 0.000000 0.000000 0.000000 0.000000 0.045516
#
#
# Mechanical properties :
#
#
# Convention : Reuss Voigt Hill
#
# Bulk Modulus (GPa) = 16.43888 63.65060 40.04474
# Shear Modulus (GPa) = 16.38935 25.81882 21.10409
#
# Velocity S-wave (km/s) = 3.03834 3.81349 3.44777
# Velocity P-wave (km/s) = 4.64414 7.43251 6.19719
#
# Compressibility (1/GPa) = 0.06083139
#
# Stress axis : x y z
#
# Youngs Moduli (GPa) = 105.44250 13.63719 74.12802
#
# Poissons Ratio (x) = 0.09658 0.45251
# Poissons Ratio (y) = 0.74679 0.33720
# Poissons Ratio (z) = 0.64367 0.06203
#
# Static dielectric constant tensor:
#      x y z
#    x 1.604330 0.000000 0.000000 
#    y 0.000000 1.608840 0.000000 
#    z 0.000000 0.000000 1.592780 
# 
# From -- ./inp_files/66364.got.cif
#   From: 2010.05.17/outbox.cif.g08.bks.cpg/sg65_34_cif.got.tgz:66364.got - 2010.06.03 17:01:31.
