data_PCOD9483095
_publ_section_title
;
Structure prediction by ZEFSAII (Michael W. Deem and Ramdas Pophale) SiO2 
 PCOD9483095
Probable space group: C M M M
;
_chemical_formula_sum "Si O2"
_cell_formula_units_Z 104
_cell_length_a 30.579817
_cell_length_b 18.559614
_cell_length_c 12.525233
_cell_angle_alpha 90.000000
_cell_angle_beta 90.000000
_cell_angle_gamma 90.000000
_cell_volume 7108.690975
_symmetry_space_group_name_H-M "C M M M"
_symmetry_group_IT_number 65
_symmetry_cell_setting 'orthorhombic'
loop_
_space_group_symop_operation_xyz
x,y,z
-x,-y,z
x,-y,-z
-x,y,-z
-x,-y,-z
x,y,-z
-x,y,z
x,-y,z
1/2+x,1/2+y,z
1/2-x,1/2-y,z
1/2+x,1/2-y,-z
1/2-x,1/2+y,-z
1/2-x,1/2-y,-z
1/2+x,1/2+y,-z
1/2-x,1/2+y,z
1/2+x,1/2-y,z
loop_
_atom_site_type_symbol
_atom_site_label
_atom_site_fract_x
_atom_site_fract_y
_atom_site_fract_z
Si Si1 0.293312 0.916616 0.629898
Si Si2 0.304584 0.586382 0.377830
Si Si3 0.392035 0.652291 0.303401
Si Si4 0.552487 0.586833 0.500000
Si Si5 0.048993 0.582054 0.629628
Si Si6 0.372976 0.185914 0.370284
Si Si7 0.448938 0.584316 0.127264
O O1 0.293229 0.918566 0.500000
O O2 0.244073 0.894417 0.661348
O O3 0.329565 0.858416 0.661739
O O4 0.302280 0.000000 0.663483
O O5 0.310211 0.613942 0.500000
O O6 0.305028 0.500000 0.382945
O O7 0.345537 0.612319 0.310784
O O8 0.423451 0.621365 0.397560
O O9 0.380678 0.735462 0.323272
O O10 0.417232 0.634344 0.194923
O O11 0.558916 0.500000 0.500000
O O12 0.500000 0.600342 0.500000
O O13 0.049063 0.581573 0.500000
O O14 0.058103 0.500000 0.663268
O O15 0.086075 0.636687 0.662484
O O16 0.000000 0.602014 0.663776
O O17 0.372292 0.192240 0.500000
O O18 0.500000 0.598440 0.152901
O O19 0.440544 0.500000 0.154410
O O20 0.443643 0.592133 0.000000
#
# Coordination Sequence:
#
# PCOD9483095 Si02
#       7
#    16  16  16   8  16  16  16
#     4   8  15  27  43  59  83 126 167 190 210 249
#     4   9  16  27  42  61  87 120 155 187 217 257
#     4  12  20  29  43  68  94 118 142 179 230 273
#     4  11  22  32  42  59  89 127 151 162 197 270
#     4   8  14  24  37  51  73 113 156 187 214 249
#     4  10  18  27  37  61  94 123 151 180 220 265
#     4   9  19  36  54  67  81 110 155 198 226 255
#
# _framework density 14.629979000000001
#
# number of rings (size 3 to 8) (size 9 to 14) (size 15 to 20)
#    0.000    2.538    1.538    4.154    0.000    4.923 
#    0.000    2.308    0.000    0.000    0.000    2.154 
#    0.000    3.692    0.000    8.462    0.000    0.154 
#
# Total GULP energy -289629.633424 kJ/mol
# GULP energy per Si atom -5569.800643 kJ/mol
# Density = 1.459668 g / cm^3
# Si number density = 14.629979 Si / 1000 Ang^3
#
#
#
# Elastic Constant Matrix: (Units=GPa)
#
#
# Indices 1 2 3 4 5 6 
#
# 1 127.7715 79.1632 29.6610 0.0000 0.0000 0.0000
# 2 79.1632 72.1742 21.9222 0.0000 0.0000 0.0000
# 3 29.6610 21.9222 23.9951 0.0000 0.0000 0.0000
# 4 0.0000 0.0000 0.0000 9.0271 0.0000 0.0000
# 5 0.0000 0.0000 0.0000 0.0000 14.8203 0.0000
# 6 0.0000 0.0000 0.0000 0.0000 0.0000 -15.2480
#
#
#
# Elastic Compliance Matrix: (Units=1/GPa)
#
#
# Indices 1 2 3 4 5 6 
#
# 1 0.025560 -0.025520 -0.008280 0.000000 0.000000 0.000000
# 2 -0.025520 0.044658 -0.009253 0.000000 0.000000 0.000000
# 3 -0.008280 -0.009253 0.060364 0.000000 0.000000 0.000000
# 4 0.000000 0.000000 0.000000 0.110778 0.000000 0.000000
# 5 0.000000 0.000000 0.000000 0.000000 0.067475 0.000000
# 6 0.000000 0.000000 0.000000 0.000000 0.000000 -0.065583
#
#
# Mechanical properties :
#
#
# Convention : Reuss Voigt Hill
#
# Bulk Modulus (GPa) = 22.48464 53.93707 38.21086
# Shear Modulus (GPa) = 14.52708 7.93284 11.22996
#
# Velocity S-wave (km/s) = 3.15456 2.33111 2.77356
# Velocity P-wave (km/s) = 5.35449 6.64778 6.03587
#
# Compressibility (1/GPa) = 0.04447480
#
# Stress axis : x y z
#
# Youngs Moduli (GPa) = 39.12321 22.39253 16.56611
#
# Poissons Ratio (x) = 0.57147 0.13717
# Poissons Ratio (y) = 0.99844 0.15329
# Poissons Ratio (z) = 0.32394 0.20720
#
# Static dielectric constant tensor:
#      x y z
#    x 1.502310 0.000000 0.000000 
#    y 0.000000 1.494150 0.000000 
#    z 0.000000 0.000000 1.460050 
# 
# From -- ./inp_files/32519.got.cif
#   From: 2010.05.17/outbox.cif.g08.bks.cpg/sg65_17_cif.got.tgz:32519.got - 2010.06.03 17:01:31.
