data_PCOD9483552
_publ_section_title
;
Structure prediction by ZEFSAII (Michael W. Deem and Ramdas Pophale) SiO2 
 PCOD9483552
Probable space group: C M M M
;
_chemical_formula_sum "Si O2"
_cell_formula_units_Z 104
_cell_length_a 23.846531
_cell_length_b 25.477155
_cell_length_c 7.327263
_cell_angle_alpha 90.000000
_cell_angle_beta 90.000000
_cell_angle_gamma 90.000000
_cell_volume 4451.618307
_symmetry_space_group_name_H-M "C M M M"
_symmetry_group_IT_number 65
_symmetry_cell_setting 'orthorhombic'
loop_
_space_group_symop_operation_xyz
x,y,z
-x,-y,z
x,-y,-z
-x,y,-z
-x,-y,-z
x,y,-z
-x,y,z
x,-y,z
1/2+x,1/2+y,z
1/2-x,1/2-y,z
1/2+x,1/2-y,-z
1/2-x,1/2+y,-z
1/2-x,1/2-y,-z
1/2+x,1/2+y,-z
1/2-x,1/2+y,z
1/2+x,1/2-y,z
loop_
_atom_site_type_symbol
_atom_site_label
_atom_site_fract_x
_atom_site_fract_y
_atom_site_fract_z
Si Si1 0.000000 0.351345 0.753463
Si Si2 0.938285 0.134940 0.222375
Si Si3 0.580280 0.245340 0.778677
Si Si4 0.337714 0.559051 0.222280
Si Si5 0.287031 0.091196 0.220524
Si Si6 0.797101 0.710862 0.221898
Si Si7 0.413539 0.058194 0.713586
O O1 0.046910 0.305315 0.714910
O O2 0.049779 0.394827 0.793799
O O3 0.935586 0.196026 0.279155
O O4 0.884361 0.101291 0.282593
O O5 0.000000 0.113917 0.274526
O O6 0.936291 0.135082 0.000000
O O7 0.643869 0.235100 0.729382
O O8 0.572802 0.243956 0.000000
O O9 0.354356 0.500000 0.273422
O O10 0.273159 0.568641 0.280899
O O11 0.336820 0.561750 0.000000
O O12 0.289702 0.151463 0.281770
O O13 0.346313 0.065661 0.274286
O O14 0.286629 0.088944 0.000000
O O15 0.750000 0.750000 0.286726
O O16 0.794804 0.709245 0.000000
O O17 0.429354 0.060253 0.500000
O O18 0.426997 0.000000 0.783276
#
# Coordination Sequence:
#
# PCOD9483552 Si02
#       7
#     8  16  16  16  16  16  16
#     4  12  21  35  56  75  98 136 179 228 269 323
#     4   9  16  26  42  69 110 152 183 219 271 328
#     4  10  18  29  47  76 109 135 173 227 276 322
#     4   9  17  28  44  71 108 148 188 228 272 324
#     4  10  19  34  56  83 111 142 185 236 282 321
#     4   9  16  27  47  77 109 139 172 215 271 330
#     4  11  25  43  60  79 107 145 187 227 274 339
#
# _framework density 23.362290000000002
#
# number of rings (size 3 to 8) (size 9 to 14) (size 15 to 20)
#    0.000    2.154    2.308    2.077    0.000    6.154 
#    0.000    1.538    0.000    3.231    0.000    0.000 
#    0.000    0.000    0.000    3.231    0.000    3.077 
#
# Total GULP energy -289550.229427 kJ/mol
# GULP energy per Si atom -5568.273643 kJ/mol
# Density = 2.330912 g / cm^3
# Si number density = 23.362290 Si / 1000 Ang^3
#
#
#
# Elastic Constant Matrix: (Units=GPa)
#
#
# Indices 1 2 3 4 5 6 
#
# 1 214.8949 107.9816 3.3358 0.0000 0.0000 0.0000
# 2 107.9816 169.9326 1.4846 0.0000 0.0000 0.0000
# 3 3.3358 1.4846 89.4039 0.0000 0.0000 0.0000
# 4 0.0000 0.0000 0.0000 -22.3559 0.0000 0.0000
# 5 0.0000 0.0000 0.0000 0.0000 -29.4536 0.0000
# 6 0.0000 0.0000 0.0000 0.0000 0.0000 7.5606
#
#
#
# Elastic Compliance Matrix: (Units=1/GPa)
#
#
# Indices 1 2 3 4 5 6 
#
# 1 0.006839 -0.004344 -0.000183 0.000000 0.000000 0.000000
# 2 -0.004344 0.008645 0.000019 0.000000 0.000000 0.000000
# 3 -0.000183 0.000019 0.011192 0.000000 0.000000 0.000000
# 4 0.000000 0.000000 0.000000 -0.044731 0.000000 0.000000
# 5 0.000000 0.000000 0.000000 0.000000 -0.033952 0.000000
# 6 0.000000 0.000000 0.000000 0.000000 0.000000 0.132264
#
#
# Mechanical properties :
#
#
# Convention : Reuss Voigt Hill
#
# Bulk Modulus (GPa) = 56.63032 77.75948 67.19490
# Shear Modulus (GPa) = 52.54251 15.24552 33.89401
#
# Velocity S-wave (km/s) = 4.74754 2.55732 3.81307
# Velocity P-wave (km/s) = 7.37190 6.48662 6.94338
#
# Compressibility (1/GPa) = 0.01765839
#
# Stress axis : x y z
#
# Youngs Moduli (GPa) = 146.21525 115.67294 89.35179
#
# Poissons Ratio (x) = 0.50252 0.01636
# Poissons Ratio (y) = 0.63520 -0.00166
# Poissons Ratio (z) = 0.02676 -0.00214
#
# Static dielectric constant tensor:
#      x y z
#    x 1.821460 0.000000 0.000000 
#    y 0.000000 1.816460 0.000000 
#    z 0.000000 0.000000 1.977710 
# 
# From -- ./inp_files/12438.got.cif
#   From: 2010.05.17/outbox.cif.g08.bks.cpg/sg65_7_cif.got.tgz:12438.got - 2010.06.03 17:01:31.
