data_PCOD9483761
_publ_section_title
;
Structure prediction by ZEFSAII (Michael W. Deem and Ramdas Pophale) SiO2 
 PCOD9483761
Probable space group: C M M M
;
_chemical_formula_sum "Si O2"
_cell_formula_units_Z 104
_cell_length_a 7.662647
_cell_length_b 29.789215
_cell_length_c 23.667024
_cell_angle_alpha 90.000000
_cell_angle_beta 90.000000
_cell_angle_gamma 90.000000
_cell_volume 5402.335222
_symmetry_space_group_name_H-M "C M M M"
_symmetry_group_IT_number 65
_symmetry_cell_setting 'orthorhombic'
loop_
_space_group_symop_operation_xyz
x,y,z
-x,-y,z
x,-y,-z
-x,y,-z
-x,-y,-z
x,y,-z
-x,y,z
x,-y,z
1/2+x,1/2+y,z
1/2-x,1/2-y,z
1/2+x,1/2-y,-z
1/2-x,1/2+y,-z
1/2-x,1/2-y,-z
1/2+x,1/2+y,-z
1/2-x,1/2+y,z
1/2+x,1/2-y,z
loop_
_atom_site_type_symbol
_atom_site_label
_atom_site_fract_x
_atom_site_fract_y
_atom_site_fract_z
Si Si1 0.285549 0.603500 0.387439
Si Si2 0.294309 0.888503 0.165807
Si Si3 0.701035 0.300634 0.356354
Si Si4 0.291513 0.800179 0.224525
Si Si5 0.788555 0.051736 0.726211
Si Si6 0.213327 0.448844 0.064622
Si Si7 0.713401 0.551729 0.500000
O O1 0.500000 0.603514 0.387272
O O2 0.218662 0.654742 0.383675
O O3 0.232621 0.577139 0.330765
O O4 0.230687 0.577621 0.443623
O O5 0.500000 0.881666 0.155039
O O6 0.222367 0.840303 0.185458
O O7 0.274655 0.921645 0.218987
O O8 0.221952 0.913320 0.110575
O O9 0.500000 0.303669 0.370292
O O10 0.750000 0.250000 0.372382
O O11 0.722609 0.304669 0.288525
O O12 0.500000 0.804322 0.228892
O O13 0.250000 0.750000 0.204266
O O14 0.000000 0.052254 0.727293
O O15 0.731533 0.000000 0.726529
O O16 0.266537 0.500000 0.078841
O O17 0.000000 0.448659 0.065819
O O18 0.265280 0.439369 0.000000
O O19 0.769741 0.500000 0.500000
O O20 0.500000 0.551472 0.500000
#
# Coordination Sequence:
#
# PCOD9483761 Si02
#       7
#    16  16  16  16  16  16   8
#     4   9  17  29  45  67  94 124 156 195 237 275
#     4  10  19  30  47  72  97 121 156 197 238 281
#     4  10  18  30  48  69  95 123 153 192 237 285
#     4  10  19  30  46  69  95 124 156 192 236 285
#     4  10  19  30  45  68  98 127 154 189 238 286
#     4   8  14  26  45  68  94 124 157 193 230 269
#     4   9  16  28  47  68  91 123 163 199 228 271
#
# _framework density 19.250933
#
# number of rings (size 3 to 8) (size 9 to 14) (size 15 to 20)
#    0.000    2.538    1.538    3.231    0.000    3.385 
#    0.000    0.385    0.000    0.923    0.000    6.462 
#    0.000    6.769    0.000    0.000    0.000    0.615 
#
# Total GULP energy -290080.045156 kJ/mol
# GULP energy per Si atom -5578.462407 kJ/mol
# Density = 1.920712 g / cm^3
# Si number density = 19.250933 Si / 1000 Ang^3
#
#
#
# Elastic Constant Matrix: (Units=GPa)
#
#
# Indices 1 2 3 4 5 6 
#
# 1 20.6180 -2.9774 -14.1583 0.0000 0.0000 0.0000
# 2 -2.9774 206.7371 88.0294 0.0000 0.0000 0.0000
# 3 -14.1583 88.0294 105.2390 0.0000 0.0000 0.0000
# 4 0.0000 0.0000 0.0000 38.6360 0.0000 0.0000
# 5 0.0000 0.0000 0.0000 0.0000 5.7703 0.0000
# 6 0.0000 0.0000 0.0000 0.0000 0.0000 -43.3713
#
#
#
# Elastic Compliance Matrix: (Units=1/GPa)
#
#
# Indices 1 2 3 4 5 6 
#
# 1 0.055179 -0.003675 0.010498 0.000000 0.000000 0.000000
# 2 -0.003675 0.007758 -0.006984 0.000000 0.000000 0.000000
# 3 0.010498 -0.006984 0.016756 0.000000 0.000000 0.000000
# 4 0.000000 0.000000 0.000000 0.025883 0.000000 0.000000
# 5 0.000000 0.000000 0.000000 0.000000 0.173300 0.000000
# 6 0.000000 0.000000 0.000000 0.000000 0.000000 -0.023057
#
#
# Mechanical properties :
#
#
# Convention : Reuss Voigt Hill
#
# Bulk Modulus (GPa) = 12.59903 52.70905 32.65404
# Shear Modulus (GPa) = 17.69296 17.65371 17.67334
#
# Velocity S-wave (km/s) = 3.03491 3.03154 3.03322
# Velocity P-wave (km/s) = 4.34047 6.30024 5.40984
#
# Compressibility (1/GPa) = 0.07937121
#
# Stress axis : x y z
#
# Youngs Moduli (GPa) = 18.12268 128.90286 59.67969
#
# Poissons Ratio (x) = 0.47376 -0.62651
# Poissons Ratio (y) = 0.06661 0.41678
# Poissons Ratio (z) = -0.19025 0.90021
#
# Static dielectric constant tensor:
#      x y z
#    x 1.707960 0.000000 0.000000 
#    y 0.000000 1.702530 0.000000 
#    z 0.000000 0.000000 1.632500 
# 
# From -- ./inp_files/68463.got.cif
#   From: 2010.05.17/outbox.cif.g08.bks.cpg/sg65_35_cif.got.tgz:68463.got - 2010.06.03 17:01:31.
