data_PCOD9483102
_publ_section_title
;
Structure prediction by ZEFSAII (Michael W. Deem and Ramdas Pophale) SiO2 
 PCOD9483102
Probable space group: C M M M
;
_chemical_formula_sum "Si O2"
_cell_formula_units_Z 72
_cell_length_a 24.024272
_cell_length_b 7.378178
_cell_length_c 22.069854
_cell_angle_alpha 90.000000
_cell_angle_beta 90.000000
_cell_angle_gamma 90.000000
_cell_volume 3911.999809
_symmetry_space_group_name_H-M "C M M M"
_symmetry_group_IT_number 65
_symmetry_cell_setting 'orthorhombic'
loop_
_space_group_symop_operation_xyz
x,y,z
-x,-y,z
x,-y,-z
-x,y,-z
-x,-y,-z
x,y,-z
-x,y,z
x,-y,z
1/2+x,1/2+y,z
1/2-x,1/2-y,z
1/2+x,1/2-y,-z
1/2-x,1/2+y,-z
1/2-x,1/2-y,-z
1/2+x,1/2+y,-z
1/2-x,1/2+y,z
1/2+x,1/2-y,z
loop_
_atom_site_type_symbol
_atom_site_label
_atom_site_fract_x
_atom_site_fract_y
_atom_site_fract_z
Si Si1 0.316678 0.783046 0.500000
Si Si2 0.380637 0.221840 0.118431
Si Si3 0.183579 0.716468 0.369527
Si Si4 0.683851 0.217089 0.236989
Si Si5 0.315208 0.215739 0.000000
Si Si6 0.000000 0.279267 0.929322
O O1 0.250000 0.750000 0.500000
O O2 0.337851 0.713742 0.434705
O O3 0.324649 0.000000 0.500000
O O4 0.352507 0.284113 0.180768
O O5 0.443872 0.276865 0.104801
O O6 0.379858 0.000000 0.119499
O O7 0.344006 0.283095 0.061139
O O8 0.174607 0.500000 0.369696
O O9 0.250000 0.750000 0.369934
O O10 0.165621 0.786412 0.303557
O O11 0.750000 0.250000 0.228142
O O12 0.677695 0.000000 0.238623
O O13 0.250000 0.250000 0.000000
O O14 0.324157 0.000000 0.000000
O O15 0.000000 0.500000 0.930750
O O16 0.000000 0.221902 0.000000
#
# Coordination Sequence:
#
# PCOD9483102 Si02
#       6
#     8  16  16  16   8   8
#     4   8  12  18  28  42  60  87 119 143 163 194
#     4   9  16  25  38  55  74  93 118 150 181 212
#     4   8  13  20  30  44  65  91 117 142 168 200
#     4   9  16  25  36  53  76  98 118 144 178 215
#     4  10  18  27  39  57  77  96 117 142 172 212
#     4   9  14  24  40  56  72  91 117 153 190 212
#
# _framework density 18.404907999999999
#
# number of rings (size 3 to 8) (size 9 to 14) (size 15 to 20)
#    0.000    3.222    1.111    0.667    0.000    0.000 
#    0.000    0.000    0.000    0.000    0.000    3.889 
#    0.000    0.889    0.000   12.444    0.000    1.111 
#
# Total GULP energy -200468.954081 kJ/mol
# GULP energy per Si atom -5568.582058 kJ/mol
# Density = 1.836302 g / cm^3
# Si number density = 18.404908 Si / 1000 Ang^3
#
#
#
# Elastic Constant Matrix: (Units=GPa)
#
#
# Indices 1 2 3 4 5 6 
#
# 1 99.1484 -1.1273 89.0455 0.0000 0.0000 0.0000
# 2 -1.1273 68.0666 11.9841 0.0000 0.0000 0.0000
# 3 89.0455 11.9841 255.9908 0.0000 0.0000 0.0000
# 4 0.0000 0.0000 0.0000 -1.4599 0.0000 0.0000
# 5 0.0000 0.0000 0.0000 0.0000 1.6689 0.0000
# 6 0.0000 0.0000 0.0000 0.0000 0.0000 6.6553
#
#
#
# Elastic Compliance Matrix: (Units=1/GPa)
#
#
# Indices 1 2 3 4 5 6 
#
# 1 0.014758 0.001158 -0.005188 0.000000 0.000000 0.000000
# 2 0.001158 0.014904 -0.001100 0.000000 0.000000 0.000000
# 3 -0.005188 -0.001100 0.005762 0.000000 0.000000 0.000000
# 4 0.000000 0.000000 0.000000 -0.684972 0.000000 0.000000
# 5 0.000000 0.000000 0.000000 0.000000 0.599180 0.000000
# 6 0.000000 0.000000 0.000000 0.000000 0.000000 0.150257
#
#
# Mechanical properties :
#
#
# Convention : Reuss Voigt Hill
#
# Bulk Modulus (GPa) = 39.73900 69.22336 54.48118
# Shear Modulus (GPa) = 42.18014 22.92643 32.55328
#
# Velocity S-wave (km/s) = 4.79246 3.53323 4.21019
# Velocity P-wave (km/s) = 7.22924 7.37143 7.30068
#
# Compressibility (1/GPa) = 0.02516419
#
# Stress axis : x y z
#
# Youngs Moduli (GPa) = 67.75878 67.09412 173.53676
#
# Poissons Ratio (x) = -0.07768 0.90027
# Poissons Ratio (y) = -0.07845 0.19098
# Poissons Ratio (z) = 0.35152 0.07384
#
# Static dielectric constant tensor:
#      x y z
#    x 1.544010 0.000000 0.000000 
#    y 0.000000 1.688760 0.000000 
#    z 0.000000 0.000000 1.707700 
# 
# From -- ./inp_files/59561.got.cif
#   From: 2010.05.17/outbox.cif.g08.bks.cpg/sg65_30_cif.got.tgz:59561.got - 2010.06.03 17:01:31.
