data_PCOD9483735
_publ_section_title
;
Structure prediction by ZEFSAII (Michael W. Deem and Ramdas Pophale) SiO2 
 PCOD9483735
Probable space group: C M M M
;
_chemical_formula_sum "Si O2"
_cell_formula_units_Z 88
_cell_length_a 8.708869
_cell_length_b 28.892118
_cell_length_c 21.836030
_cell_angle_alpha 90.000000
_cell_angle_beta 90.000000
_cell_angle_gamma 90.000000
_cell_volume 5494.331008
_symmetry_space_group_name_H-M "C M M M"
_symmetry_group_IT_number 65
_symmetry_cell_setting 'orthorhombic'
loop_
_space_group_symop_operation_xyz
x,y,z
-x,-y,z
x,-y,-z
-x,y,-z
-x,-y,-z
x,y,-z
-x,y,z
x,-y,z
1/2+x,1/2+y,z
1/2-x,1/2-y,z
1/2+x,1/2-y,-z
1/2-x,1/2+y,-z
1/2-x,1/2-y,-z
1/2+x,1/2+y,-z
1/2-x,1/2+y,z
1/2+x,1/2-y,z
loop_
_atom_site_type_symbol
_atom_site_label
_atom_site_fract_x
_atom_site_fract_y
_atom_site_fract_z
Si Si1 0.186208 0.945325 0.567422
Si Si2 0.814978 0.892666 0.310540
Si Si3 0.681507 0.555885 0.066894
Si Si4 0.816901 0.553670 0.195404
Si Si5 0.816081 0.697556 0.500000
Si Si6 0.183589 0.198753 0.372398
O O1 0.242033 0.929494 0.500000
O O2 0.240238 0.919124 0.627976
O O3 0.000000 0.940829 0.566540
O O4 0.220323 0.000000 0.572744
O O5 0.747321 0.915827 0.250438
O O6 0.778555 0.838574 0.320419
O O7 0.000000 0.896946 0.308243
O O8 0.500000 0.565712 0.071230
O O9 0.698284 0.500000 0.065926
O O10 0.763458 0.571381 0.128751
O O11 0.737034 0.572746 0.000000
O O12 0.763012 0.500000 0.202440
O O13 0.000000 0.553431 0.197396
O O14 0.750000 0.750000 0.500000
O O15 0.750247 0.678834 0.436382
O O16 0.000000 0.697666 0.500000
O O17 0.250000 0.250000 0.362125
O O18 0.000000 0.202076 0.378834
#
# Coordination Sequence:
#
# PCOD9483735 Si02
#       6
#    16  16  16  16   8  16
#     4   8  14  25  42  63  83 105 141 190 233 262
#     4  10  20  31  48  67  86 118 157 195 232 276
#     4   8  14  26  45  67  91 122 159 194 224 258
#     4  10  20  31  44  66  98 131 158 188 228 273
#     4  10  18  30  48  66  85 110 139 178 232 287
#     4  10  20  33  49  68  89 114 147 191 241 289
#
# _framework density 16.016508000000002
#
# number of rings (size 3 to 8) (size 9 to 14) (size 15 to 20)
#    0.000    2.727    0.000    4.636    1.273    3.636 
#    0.000    1.818    0.000    0.000    0.000    2.545 
#    0.000    0.727    0.000    2.364    0.000    2.909 
#
# Total GULP energy -245147.701643 kJ/mol
# GULP energy per Si atom -5571.538674 kJ/mol
# Density = 1.598005 g / cm^3
# Si number density = 16.016508 Si / 1000 Ang^3
#
#
#
# Elastic Constant Matrix: (Units=GPa)
#
#
# Indices 1 2 3 4 5 6 
#
# 1 37.1617 27.6034 41.0083 0.0000 0.0000 0.0000
# 2 27.6034 61.2364 68.3226 0.0000 0.0000 0.0000
# 3 41.0083 68.3226 159.0664 0.0000 0.0000 0.0000
# 4 0.0000 0.0000 0.0000 13.3836 0.0000 0.0000
# 5 0.0000 0.0000 0.0000 0.0000 13.9186 0.0000
# 6 0.0000 0.0000 0.0000 0.0000 0.0000 13.6492
#
#
#
# Elastic Compliance Matrix: (Units=1/GPa)
#
#
# Indices 1 2 3 4 5 6 
#
# 1 0.042625 -0.013352 -0.005254 0.000000 0.000000 0.000000
# 2 -0.013352 0.035540 -0.011823 0.000000 0.000000 0.000000
# 3 -0.005254 -0.011823 0.012719 0.000000 0.000000 0.000000
# 4 0.000000 0.000000 0.000000 0.074718 0.000000 0.000000
# 5 0.000000 0.000000 0.000000 0.000000 0.071846 0.000000
# 6 0.000000 0.000000 0.000000 0.000000 0.000000 0.073264
#
#
# Mechanical properties :
#
#
# Convention : Reuss Voigt Hill
#
# Bulk Modulus (GPa) = 33.30399 59.03701 46.17050
# Shear Modulus (GPa) = 13.10342 16.22563 14.66452
#
# Velocity S-wave (km/s) = 2.86338 3.18631 3.02915
# Velocity P-wave (km/s) = 5.63654 7.10471 6.41278
#
# Compressibility (1/GPa) = 0.03002643
#
# Stress axis : x y z
#
# Youngs Moduli (GPa) = 23.46044 28.13738 78.61979
#
# Poissons Ratio (x) = 0.37569 0.41307
# Poissons Ratio (y) = 0.31324 0.92952
# Poissons Ratio (z) = 0.12326 0.33267
#
# Static dielectric constant tensor:
#      x y z
#    x 1.534430 0.000000 0.000000 
#    y 0.000000 1.600950 0.000000 
#    z 0.000000 0.000000 1.556890 
# 
# From -- ./inp_files/60648.got.cif
#   From: 2010.05.17/outbox.cif.g08.bks.cpg/sg65_31_cif.got.tgz:60648.got - 2010.06.03 17:01:31.
