data_PCOD9483479
_publ_section_title
;
Structure prediction by ZEFSAII (Michael W. Deem and Ramdas Pophale) SiO2 
 PCOD9483479
Probable space group: C M M M
;
_chemical_formula_sum "Si O2"
_cell_formula_units_Z 88
_cell_length_a 15.384783
_cell_length_b 16.079719
_cell_length_c 20.048216
_cell_angle_alpha 90.000000
_cell_angle_beta 90.000000
_cell_angle_gamma 90.000000
_cell_volume 4959.587568
_symmetry_space_group_name_H-M "C M M M"
_symmetry_group_IT_number 65
_symmetry_cell_setting 'orthorhombic'
loop_
_space_group_symop_operation_xyz
x,y,z
-x,-y,z
x,-y,-z
-x,y,-z
-x,-y,-z
x,y,-z
-x,y,z
x,-y,z
1/2+x,1/2+y,z
1/2-x,1/2-y,z
1/2+x,1/2-y,-z
1/2-x,1/2+y,-z
1/2-x,1/2-y,-z
1/2+x,1/2+y,-z
1/2-x,1/2+y,z
1/2+x,1/2-y,z
loop_
_atom_site_type_symbol
_atom_site_label
_atom_site_fract_x
_atom_site_fract_y
_atom_site_fract_z
Si Si1 0.899608 0.000000 0.255123
Si Si2 0.396486 0.000000 0.723824
Si Si3 0.101958 0.094472 0.000000
Si Si4 0.394669 0.165992 0.641578
Si Si5 0.603776 0.317069 0.734905
Si Si6 0.301678 0.668299 0.121858
Si Si7 0.763747 0.500000 0.158018
Si Si8 0.893642 0.598404 0.500000
O O1 0.886522 0.088004 0.291679
O O2 0.830367 0.000000 0.195548
O O3 0.000000 0.000000 0.230609
O O4 0.374018 0.916988 0.683118
O O5 0.500000 0.000000 0.735035
O O6 0.341354 0.000000 0.790113
O O7 0.129624 0.142948 0.933861
O O8 0.000000 0.086690 0.000000
O O9 0.139388 0.000000 0.000000
O O10 0.500000 0.172159 0.638270
O O11 0.365420 0.247236 0.682652
O O12 0.364637 0.146980 0.566450
O O13 0.500000 0.303873 0.746965
O O14 0.654737 0.315462 0.805333
O O15 0.250000 0.750000 0.102804
O O16 0.237544 0.588682 0.122799
O O17 0.868446 0.500000 0.500000
O O18 0.000000 0.597248 0.500000
#
# Coordination Sequence:
#
# PCOD9483479 Si02
#       8
#     8   8   8  16  16  16   8   8
#     4   8  16  30  49  71  99 129 172 229 282 317
#     4  10  18  29  45  72 109 145 177 218 262 321
#     4  11  23  40  62  85 108 140 184 236 287 335
#     4   9  16  26  44  71 105 141 180 221 269 322
#     4   9  17  30  49  75 103 135 174 224 276 326
#     4  11  21  36  55  81 111 142 177 225 281 333
#     4  10  20  33  52  81 108 144 184 217 275 334
#     4   9  14  24  42  69 104 144 184 225 268 315
#
# _framework density 17.743410999999998
#
# number of rings (size 3 to 8) (size 9 to 14) (size 15 to 20)
#    0.000    2.364    1.818    1.909    0.000    0.727 
#    0.000    0.909    0.000    0.545    0.000   26.091 
#    0.000    0.000    0.000    0.000    0.000    0.000 
#
# Total GULP energy -245083.365823 kJ/mol
# GULP energy per Si atom -5570.076496 kJ/mol
# Density = 1.770303 g / cm^3
# Si number density = 17.743411 Si / 1000 Ang^3
#
#
#
# Elastic Constant Matrix: (Units=GPa)
#
#
# Indices 1 2 3 4 5 6 
#
# 1 22.4421 31.9786 17.6301 0.0000 0.0000 0.0000
# 2 31.9786 167.3049 63.6527 0.0000 0.0000 0.0000
# 3 17.6301 63.6527 99.6457 0.0000 0.0000 0.0000
# 4 0.0000 0.0000 0.0000 40.3984 0.0000 0.0000
# 5 0.0000 0.0000 0.0000 0.0000 17.1777 0.0000
# 6 0.0000 0.0000 0.0000 0.0000 0.0000 11.5345
#
#
#
# Elastic Compliance Matrix: (Units=1/GPa)
#
#
# Indices 1 2 3 4 5 6 
#
# 1 0.062759 -0.010266 -0.004546 0.000000 0.000000 0.000000
# 2 -0.010266 0.009575 -0.004300 0.000000 0.000000 0.000000
# 3 -0.004546 -0.004300 0.013587 0.000000 0.000000 0.000000
# 4 0.000000 0.000000 0.000000 0.024753 0.000000 0.000000
# 5 0.000000 0.000000 0.000000 0.000000 0.058215 0.000000
# 6 0.000000 0.000000 0.000000 0.000000 0.000000 0.086697
#
#
# Mechanical properties :
#
#
# Convention : Reuss Voigt Hill
#
# Bulk Modulus (GPa) = 20.96595 57.32396 39.14496
# Shear Modulus (GPa) = 16.14414 25.56421 20.85417
#
# Velocity S-wave (km/s) = 3.01967 3.79987 3.43201
# Velocity P-wave (km/s) = 4.89895 7.18535 6.14935
#
# Compressibility (1/GPa) = 0.04769638
#
# Stress axis : x y z
#
# Youngs Moduli (GPa) = 15.93402 104.43329 73.60047
#
# Poissons Ratio (x) = 1.07213 0.33458
# Poissons Ratio (y) = 0.16358 0.31651
# Poissons Ratio (z) = 0.07243 0.44910
#
# Static dielectric constant tensor:
#      x y z
#    x 1.595740 0.000000 0.000000 
#    y 0.000000 1.640030 0.000000 
#    z 0.000000 0.000000 1.600270 
# 
# From -- ./inp_files/53116.got.cif
#   From: 2010.05.17/outbox.cif.g08.bks.cpg/sg65_27_cif.got.tgz:53116.got - 2010.06.03 17:01:31.
