data_PCOD9483214
_publ_section_title
;
Structure prediction by ZEFSAII (Michael W. Deem and Ramdas Pophale) SiO2 
 PCOD9483214
Probable space group: C M M M
;
_chemical_formula_sum "Si O2"
_cell_formula_units_Z 96
_cell_length_a 34.199644
_cell_length_b 14.009637
_cell_length_c 12.695862
_cell_angle_alpha 90.000000
_cell_angle_beta 90.000000
_cell_angle_gamma 90.000000
_cell_volume 6082.899777
_symmetry_space_group_name_H-M "C M M M"
_symmetry_group_IT_number 65
_symmetry_cell_setting 'orthorhombic'
loop_
_space_group_symop_operation_xyz
x,y,z
-x,-y,z
x,-y,-z
-x,y,-z
-x,-y,-z
x,y,-z
-x,y,z
x,-y,z
1/2+x,1/2+y,z
1/2-x,1/2-y,z
1/2+x,1/2-y,-z
1/2-x,1/2+y,-z
1/2-x,1/2-y,-z
1/2+x,1/2+y,-z
1/2-x,1/2+y,z
1/2+x,1/2-y,z
loop_
_atom_site_type_symbol
_atom_site_label
_atom_site_fract_x
_atom_site_fract_y
_atom_site_fract_z
Si Si1 0.295316 0.111482 0.621012
Si Si2 0.659956 0.703155 0.619677
Si Si3 0.542506 0.615242 0.162410
Si Si4 0.424531 0.386579 0.382505
Si Si5 0.223614 0.114841 0.229251
Si Si6 0.892271 0.116155 0.000000
Si Si7 0.301464 0.616618 0.000000
O O1 0.280110 0.120909 0.500000
O O2 0.331202 0.184382 0.630279
O O3 0.262597 0.140912 0.705912
O O4 0.305125 0.000000 0.636287
O O5 0.672023 0.675609 0.500000
O O6 0.615370 0.671978 0.630579
O O7 0.686737 0.650766 0.704283
O O8 0.500000 0.650245 0.125148
O O9 0.541916 0.500000 0.150048
O O10 0.547615 0.635866 0.285534
O O11 0.580973 0.646781 0.099059
O O12 0.440416 0.369724 0.500000
O O13 0.415027 0.500000 0.375388
O O14 0.219348 0.147344 0.108345
O O15 0.222719 0.000000 0.228585
O O16 0.847211 0.147779 0.000000
O O17 0.890416 0.000000 0.000000
O O18 0.301510 0.500000 0.000000
#
# Coordination Sequence:
#
# PCOD9483214 Si02
#       7
#    16  16  16  16  16   8   8
#     4   9  18  31  45  60  78 102 136 179 219 250
#     4  10  18  28  43  61  81 105 136 174 211 244
#     4   9  16  25  38  56  79 107 135 161 189 225
#     4   9  17  27  39  58  83 109 135 161 192 234
#     4  10  18  28  42  60  82 108 137 168 207 248
#     4   9  15  24  37  53  74 102 139 172 192 216
#     4   9  18  29  41  58  83 114 142 170 200 236
#
# _framework density 15.781947000000001
#
# number of rings (size 3 to 8) (size 9 to 14) (size 15 to 20)
#    0.000    2.667    0.000    2.750    0.000    7.000 
#    0.000    3.333    0.000    0.000    0.000    0.000 
#    0.000    0.667    0.000    6.500    0.000    6.500 
#
# Total GULP energy -267308.838830 kJ/mol
# GULP energy per Si atom -5568.934142 kJ/mol
# Density = 1.574603 g / cm^3
# Si number density = 15.781947 Si / 1000 Ang^3
#
#
#
# Elastic Constant Matrix: (Units=GPa)
#
#
# Indices 1 2 3 4 5 6 
#
# 1 47.4027 17.2406 34.6141 0.0000 0.0000 0.0000
# 2 17.2406 23.9264 21.7385 0.0000 0.0000 0.0000
# 3 34.6141 21.7385 103.5723 0.0000 0.0000 0.0000
# 4 0.0000 0.0000 0.0000 7.8105 0.0000 0.0000
# 5 0.0000 0.0000 0.0000 0.0000 22.3675 0.0000
# 6 0.0000 0.0000 0.0000 0.0000 0.0000 10.7097
#
#
#
# Elastic Compliance Matrix: (Units=1/GPa)
#
#
# Indices 1 2 3 4 5 6 
#
# 1 0.032578 -0.016783 -0.007365 0.000000 0.000000 0.000000
# 2 -0.016783 0.060289 -0.007045 0.000000 0.000000 0.000000
# 3 -0.007365 -0.007045 0.013595 0.000000 0.000000 0.000000
# 4 0.000000 0.000000 0.000000 0.128032 0.000000 0.000000
# 5 0.000000 0.000000 0.000000 0.000000 0.044708 0.000000
# 6 0.000000 0.000000 0.000000 0.000000 0.000000 0.093374
#
#
# Mechanical properties :
#
#
# Convention : Reuss Voigt Hill
#
# Bulk Modulus (GPa) = 22.68813 35.78755 29.23784
# Shear Modulus (GPa) = 11.11965 14.93142 13.02554
#
# Velocity S-wave (km/s) = 2.65727 3.07922 2.87600
# Velocity P-wave (km/s) = 4.88078 5.94707 5.44011
#
# Compressibility (1/GPa) = 0.04407592
#
# Stress axis : x y z
#
# Youngs Moduli (GPa) = 30.69551 16.58672 73.55562
#
# Poissons Ratio (x) = 0.27838 0.54174
# Poissons Ratio (y) = 0.51517 0.51820
# Poissons Ratio (z) = 0.22607 0.11685
#
# Static dielectric constant tensor:
#      x y z
#    x 1.515160 0.000000 0.000000 
#    y 0.000000 1.506760 0.000000 
#    z 0.000000 0.000000 1.578060 
# 
# From -- ./inp_files/33929.got.cif
#   From: 2010.05.17/outbox.cif.g08.bks.cpg/sg65_17_cif.got.tgz:33929.got - 2010.06.03 17:01:31.
