data_PCOD9483600
_publ_section_title
;
Structure prediction by ZEFSAII (Michael W. Deem and Ramdas Pophale) SiO2 
 PCOD9483600
Probable space group: C M M M
;
_chemical_formula_sum "Si O2"
_cell_formula_units_Z 88
_cell_length_a 29.694841
_cell_length_b 19.089974
_cell_length_c 7.418422
_cell_angle_alpha 90.000000
_cell_angle_beta 90.000000
_cell_angle_gamma 90.000000
_cell_volume 4205.308644
_symmetry_space_group_name_H-M "C M M M"
_symmetry_group_IT_number 65
_symmetry_cell_setting 'orthorhombic'
loop_
_space_group_symop_operation_xyz
x,y,z
-x,-y,z
x,-y,-z
-x,y,-z
-x,-y,-z
x,y,-z
-x,y,z
x,-y,z
1/2+x,1/2+y,z
1/2-x,1/2-y,z
1/2+x,1/2-y,-z
1/2-x,1/2+y,-z
1/2-x,1/2-y,-z
1/2+x,1/2+y,-z
1/2-x,1/2+y,z
1/2+x,1/2-y,z
loop_
_atom_site_type_symbol
_atom_site_label
_atom_site_fract_x
_atom_site_fract_y
_atom_site_fract_z
Si Si1 0.244341 0.578911 0.217548
Si Si2 0.109813 0.218124 0.203553
Si Si3 0.054478 0.500000 0.214980
Si Si4 0.947249 0.652935 0.220273
Si Si5 0.151919 0.079698 0.220238
Si Si6 0.796695 0.719820 0.707606
O O1 0.233719 0.500000 0.274317
O O2 0.296108 0.594236 0.274100
O O3 0.210023 0.636804 0.284483
O O4 0.243867 0.580816 0.000000
O O5 0.078893 0.278558 0.286914
O O6 0.118976 0.141269 0.284085
O O7 0.159396 0.252340 0.196504
O O8 0.092670 0.206591 0.000000
O O9 0.070114 0.423764 0.282613
O O10 0.000000 0.500000 0.237705
O O11 0.062972 0.500000 0.000000
O O12 0.000000 0.657958 0.264505
O O13 0.943764 0.652282 0.000000
O O14 0.140924 0.000000 0.273677
O O15 0.151711 0.081523 0.000000
O O16 0.800247 0.742494 0.500000
O O17 0.750000 0.750000 0.784036
#
# Coordination Sequence:
#
# PCOD9483600 Si02
#       6
#    16  16   8  16  16  16
#     4   9  17  31  50  67  86 119 163 201 227 267
#     4  10  18  29  49  70  90 120 157 197 234 277
#     4   7  10  20  38  60  91 121 141 173 221 269
#     4   8  14  25  43  68  93 117 148 189 236 278
#     4   8  14  25  43  66  88 114 152 194 231 268
#     4  11  22  33  45  65  97 130 155 190 236 282
#
# _framework density 20.925933000000001
#
# number of rings (size 3 to 8) (size 9 to 14) (size 15 to 20)
#    0.000    3.000    1.818    2.727    0.000    1.091 
#    1.636    0.000    0.000    1.636    0.000    3.818 
#    0.000    2.182    0.000    1.636    0.000    1.818 
#
# Total GULP energy -245334.805851 kJ/mol
# GULP energy per Si atom -5575.791042 kJ/mol
# Density = 2.087830 g / cm^3
# Si number density = 20.925933 Si / 1000 Ang^3
#
#
#
# Elastic Constant Matrix: (Units=GPa)
#
#
# Indices 1 2 3 4 5 6 
#
# 1 36.2890 45.5236 -3.0223 0.0000 0.0000 0.0000
# 2 45.5236 193.9772 1.4376 0.0000 0.0000 0.0000
# 3 -3.0223 1.4376 69.3889 0.0000 0.0000 0.0000
# 4 0.0000 0.0000 0.0000 -71.4666 0.0000 0.0000
# 5 0.0000 0.0000 0.0000 0.0000 -13.1019 0.0000
# 6 0.0000 0.0000 0.0000 0.0000 0.0000 40.5373
#
#
#
# Elastic Compliance Matrix: (Units=1/GPa)
#
#
# Indices 1 2 3 4 5 6 
#
# 1 0.039304 -0.009238 0.001903 0.000000 0.000000 0.000000
# 2 -0.009238 0.007327 -0.000554 0.000000 0.000000 0.000000
# 3 0.001903 -0.000554 0.014506 0.000000 0.000000 0.000000
# 4 0.000000 0.000000 0.000000 -0.013993 0.000000 0.000000
# 5 0.000000 0.000000 0.000000 0.000000 -0.076325 0.000000
# 6 0.000000 0.000000 0.000000 0.000000 0.000000 0.024669
#
#
# Mechanical properties :
#
#
# Convention : Reuss Voigt Hill
#
# Bulk Modulus (GPa) = 22.04619 43.05922 32.55270
# Shear Modulus (GPa) = 189.48871 8.24149 98.86510
#
# Velocity S-wave (km/s) = 9.52621 1.98670 6.88098
# Velocity P-wave (km/s) = 11.46981 5.08766 8.87245
#
# Compressibility (1/GPa) = 0.04535932
#
# Stress axis : x y z
#
# Youngs Moduli (GPa) = 25.44260 136.47361 68.93742
#
# Poissons Ratio (x) = 1.26077 -0.13121
# Poissons Ratio (y) = 0.23504 0.03820
# Poissons Ratio (z) = -0.04843 0.07563
#
# Static dielectric constant tensor:
#      x y z
#    x 1.702290 0.000000 0.000000 
#    y 0.000000 1.809890 0.000000 
#    z 0.000000 0.000000 1.826250 
# 
# From -- ./inp_files/18311.got.cif
#   From: 2010.05.17/outbox.cif.g08.bks.cpg/sg65_10_cif.got.tgz:18311.got - 2010.06.03 17:01:31.
