data_PCOD9483111
_publ_section_title
;
Structure prediction by ZEFSAII (Michael W. Deem and Ramdas Pophale) SiO2 
 PCOD9483111
Probable space group: C M M M
;
_chemical_formula_sum "Si O2"
_cell_formula_units_Z 104
_cell_length_a 28.118709
_cell_length_b 7.955948
_cell_length_c 28.739502
_cell_angle_alpha 90.000000
_cell_angle_beta 90.000000
_cell_angle_gamma 90.000000
_cell_volume 6429.342348
_symmetry_space_group_name_H-M "C M M M"
_symmetry_group_IT_number 65
_symmetry_cell_setting 'orthorhombic'
loop_
_space_group_symop_operation_xyz
x,y,z
-x,-y,z
x,-y,-z
-x,y,-z
-x,-y,-z
x,y,-z
-x,y,z
x,-y,z
1/2+x,1/2+y,z
1/2-x,1/2-y,z
1/2+x,1/2-y,-z
1/2-x,1/2+y,-z
1/2-x,1/2-y,-z
1/2+x,1/2+y,-z
1/2-x,1/2+y,z
1/2+x,1/2-y,z
loop_
_atom_site_type_symbol
_atom_site_label
_atom_site_fract_x
_atom_site_fract_y
_atom_site_fract_z
Si Si1 0.445919 0.802669 0.297340
Si Si2 0.357109 0.699674 0.754859
Si Si3 0.805798 0.297228 0.950003
Si Si4 0.444320 0.000000 0.555688
Si Si5 0.694548 0.201050 0.848531
Si Si6 0.896717 0.194787 0.390419
Si Si7 0.803965 0.798831 0.662872
O O1 0.500000 0.754947 0.286510
O O2 0.408862 0.774387 0.255734
O O3 0.426009 0.703959 0.341948
O O4 0.445047 0.000000 0.309841
O O5 0.361048 0.500000 0.749534
O O6 0.335355 0.736830 0.804874
O O7 0.322417 0.764374 0.713311
O O8 0.809580 0.500000 0.950056
O O9 0.750000 0.250000 0.950183
O O10 0.823163 0.236653 0.899438
O O11 0.825621 0.236262 0.000000
O O12 0.419639 0.167825 0.575830
O O13 0.500000 0.000000 0.569779
O O14 0.441708 0.000000 0.500000
O O15 0.750000 0.250000 0.843152
O O16 0.692391 0.000000 0.848743
O O17 0.843299 0.249395 0.375432
O O18 0.896860 0.000000 0.406743
O O19 0.750000 0.750000 0.653539
O O20 0.805695 0.000000 0.664693
#
# Coordination Sequence:
#
# PCOD9483111 Si02
#       7
#    16  16  16   8  16  16  16
#     4  10  19  32  52  75  99 128 162 198 238 288
#     4  10  20  31  42  65  99 128 162 197 237 289
#     4   8  14  24  37  53  74 105 149 194 236 283
#     4  11  24  40  60  86 110 138 176 214 260 308
#     4  10  18  27  40  58  85 122 156 195 242 286
#     4  10  21  37  56  83 112 139 171 210 253 301
#     4   9  19  31  49  76 100 134 173 207 245 290
#
# _framework density 16.175837999999999
#
# number of rings (size 3 to 8) (size 9 to 14) (size 15 to 20)
#    0.000    2.385    0.769    3.231    1.077    5.538 
#    0.000    0.769    0.000    0.462    0.000    0.000 
#    0.000    0.615    0.000    7.077    0.000    2.000 
#
# Total GULP energy -289728.693010 kJ/mol
# GULP energy per Si atom -5571.705635 kJ/mol
# Density = 1.613902 g / cm^3
# Si number density = 16.175838 Si / 1000 Ang^3
#
#
#
# Elastic Constant Matrix: (Units=GPa)
#
#
# Indices 1 2 3 4 5 6 
#
# 1 119.2691 26.9026 50.7015 0.0000 0.0000 0.0000
# 2 26.9026 52.5322 27.3941 0.0000 0.0000 0.0000
# 3 50.7015 27.3941 91.0583 0.0000 0.0000 0.0000
# 4 0.0000 0.0000 0.0000 12.0479 0.0000 0.0000
# 5 0.0000 0.0000 0.0000 0.0000 18.1421 0.0000
# 6 0.0000 0.0000 0.0000 0.0000 0.0000 21.0723
#
#
#
# Elastic Compliance Matrix: (Units=1/GPa)
#
#
# Indices 1 2 3 4 5 6 
#
# 1 0.011367 -0.002990 -0.005430 0.000000 0.000000 0.000000
# 2 -0.002990 0.023364 -0.005364 0.000000 0.000000 0.000000
# 3 -0.005430 -0.005364 0.015619 0.000000 0.000000 0.000000
# 4 0.000000 0.000000 0.000000 0.083002 0.000000 0.000000
# 5 0.000000 0.000000 0.000000 0.000000 0.055121 0.000000
# 6 0.000000 0.000000 0.000000 0.000000 0.000000 0.047456
#
#
# Mechanical properties :
#
#
# Convention : Reuss Voigt Hill
#
# Bulk Modulus (GPa) = 43.89256 52.53956 48.21606
# Shear Modulus (GPa) = 18.44406 20.77657 19.61032
#
# Velocity S-wave (km/s) = 3.38038 3.58777 3.48562
# Velocity P-wave (km/s) = 6.51380 7.05078 6.78760
#
# Compressibility (1/GPa) = 0.02278290
#
# Stress axis : x y z
#
# Youngs Moduli (GPa) = 87.97436 42.80025 64.02448
#
# Poissons Ratio (x) = 0.12796 0.34763
# Poissons Ratio (y) = 0.26302 0.34344
# Poissons Ratio (z) = 0.47767 0.22959
#
# Static dielectric constant tensor:
#      x y z
#    x 1.535920 0.000000 0.000000 
#    y 0.000000 1.580050 0.000000 
#    z 0.000000 0.000000 1.572330 
# 
# From -- ./inp_files/76046.got.cif
#   From: 2010.05.17/outbox.cif.g08.bks.cpg/sg65_39_cif.got.tgz:76046.got - 2010.06.03 17:01:31.
