data_PCOD9483116
_publ_section_title
;
Structure prediction by ZEFSAII (Michael W. Deem and Ramdas Pophale) SiO2 
 PCOD9483116
Probable space group: C M M M
;
_chemical_formula_sum "Si O2"
_cell_formula_units_Z 104
_cell_length_a 27.923316
_cell_length_b 8.639477
_cell_length_c 27.915668
_cell_angle_alpha 90.000000
_cell_angle_beta 90.000000
_cell_angle_gamma 90.000000
_cell_volume 6734.455206
_symmetry_space_group_name_H-M "C M M M"
_symmetry_group_IT_number 65
_symmetry_cell_setting 'orthorhombic'
loop_
_space_group_symop_operation_xyz
x,y,z
-x,-y,z
x,-y,-z
-x,y,-z
-x,-y,-z
x,y,-z
-x,y,z
x,-y,z
1/2+x,1/2+y,z
1/2-x,1/2-y,z
1/2+x,1/2-y,-z
1/2-x,1/2+y,-z
1/2-x,1/2-y,-z
1/2+x,1/2+y,-z
1/2-x,1/2+y,z
1/2+x,1/2-y,z
loop_
_atom_site_type_symbol
_atom_site_label
_atom_site_fract_x
_atom_site_fract_y
_atom_site_fract_z
Si Si1 0.401003 0.812873 0.445865
Si Si2 0.945809 0.185141 0.649089
Si Si3 0.647173 0.185344 0.698103
Si Si4 0.198351 0.685653 0.399098
Si Si5 0.304142 0.314139 0.791910
Si Si6 0.695479 0.312676 0.000000
Si Si7 0.695777 0.313195 0.896887
O O1 0.413219 0.768286 0.500000
O O2 0.433392 0.738783 0.404848
O O3 0.345905 0.770283 0.433355
O O4 0.404408 0.000000 0.441888
O O5 0.905458 0.259312 0.682748
O O6 0.000000 0.231447 0.661273
O O7 0.942091 0.000000 0.651836
O O8 0.682382 0.235634 0.654502
O O9 0.664885 0.252196 0.748121
O O10 0.648138 0.000000 0.699651
O O11 0.201025 0.500000 0.399271
O O12 0.250000 0.750000 0.412189
O O13 0.302191 0.500000 0.789810
O O14 0.250000 0.250000 0.787549
O O15 0.323831 0.266698 0.844724
O O16 0.750000 0.250000 0.000000
O O17 0.673956 0.264030 0.051628
O O18 0.696934 0.500000 0.000000
O O19 0.697151 0.500000 0.896961
O O20 0.750000 0.250000 0.897075
#
# Coordination Sequence:
#
# PCOD9483116 Si02
#       7
#    16  16  16  16  16   8  16
#     4   9  19  35  51  68  92 119 146 174 204 246
#     4  10  21  36  53  72  91 109 133 171 218 264
#     4  10  20  33  48  65  86 114 146 179 215 259
#     4   9  18  30  44  63  86 113 144 174 204 240
#     4  10  18  27  40  61  89 119 151 186 223 259
#     4   8  12  20  32  46  68 102 145 186 219 250
#     4   8  14  22  33  50  74 107 146 185 220 253
#
# _framework density 15.442971999999999
#
# number of rings (size 3 to 8) (size 9 to 14) (size 15 to 20)
#    0.000    2.769    0.000    2.769    0.000    7.077 
#    0.000    1.538    0.000    0.000    0.000    0.000 
#    0.000    0.000    0.000    0.692    0.000   15.923 
#
# Total GULP energy -289544.627661 kJ/mol
# GULP energy per Si atom -5568.165917 kJ/mol
# Density = 1.540782 g / cm^3
# Si number density = 15.442972 Si / 1000 Ang^3
#
#
#
# Elastic Constant Matrix: (Units=GPa)
#
#
# Indices 1 2 3 4 5 6 
#
# 1 48.9244 11.9797 18.9411 0.0000 0.0000 0.0000
# 2 11.9797 20.4836 20.9886 0.0000 0.0000 0.0000
# 3 18.9411 20.9886 124.4447 0.0000 0.0000 0.0000
# 4 0.0000 0.0000 0.0000 14.9389 0.0000 0.0000
# 5 0.0000 0.0000 0.0000 0.0000 10.3725 0.0000
# 6 0.0000 0.0000 0.0000 0.0000 0.0000 20.0048
#
#
#
# Elastic Compliance Matrix: (Units=1/GPa)
#
#
# Indices 1 2 3 4 5 6 
#
# 1 0.024104 -0.012498 -0.001561 0.000000 0.000000 0.000000
# 2 -0.012498 0.065499 -0.009145 0.000000 0.000000 0.000000
# 3 -0.001561 -0.009145 0.009816 0.000000 0.000000 0.000000
# 4 0.000000 0.000000 0.000000 0.066940 0.000000 0.000000
# 5 0.000000 0.000000 0.000000 0.000000 0.096409 0.000000
# 6 0.000000 0.000000 0.000000 0.000000 0.000000 0.049988
#
#
# Mechanical properties :
#
#
# Convention : Reuss Voigt Hill
#
# Bulk Modulus (GPa) = 18.86365 33.07460 25.96912
# Shear Modulus (GPa) = 13.26848 18.52612 15.89730
#
# Velocity S-wave (km/s) = 2.93438 3.46735 3.21194
# Velocity P-wave (km/s) = 4.87056 6.12322 5.53245
#
# Compressibility (1/GPa) = 0.05301201
#
# Stress axis : x y z
#
# Youngs Moduli (GPa) = 41.48643 15.26738 101.87860
#
# Poissons Ratio (x) = 0.19081 0.15902
# Poissons Ratio (y) = 0.51849 0.93165
# Poissons Ratio (z) = 0.06476 0.13962
#
# Static dielectric constant tensor:
#      x y z
#    x 1.483570 0.000000 0.000000 
#    y 0.000000 1.524470 0.000000 
#    z 0.000000 0.000000 1.563350 
# 
# From -- ./inp_files/73811.got.cif
#   From: 2010.05.17/outbox.cif.g08.bks.cpg/sg65_37_cif.got.tgz:73811.got - 2010.06.03 17:01:31.
