data_PCOD9483366
_publ_section_title
;
Structure prediction by ZEFSAII (Michael W. Deem and Ramdas Pophale) SiO2 
 PCOD9483366
Probable space group: C M M M
;
_chemical_formula_sum "Si O2"
_cell_formula_units_Z 96
_cell_length_a 23.708335
_cell_length_b 18.639604
_cell_length_c 12.267328
_cell_angle_alpha 90.000000
_cell_angle_beta 90.000000
_cell_angle_gamma 90.000000
_cell_volume 5421.103690
_symmetry_space_group_name_H-M "C M M M"
_symmetry_group_IT_number 65
_symmetry_cell_setting 'orthorhombic'
loop_
_space_group_symop_operation_xyz
x,y,z
-x,-y,z
x,-y,-z
-x,y,-z
-x,-y,-z
x,y,-z
-x,y,z
x,-y,z
1/2+x,1/2+y,z
1/2-x,1/2-y,z
1/2+x,1/2-y,-z
1/2-x,1/2+y,-z
1/2-x,1/2-y,-z
1/2+x,1/2+y,-z
1/2-x,1/2+y,z
1/2+x,1/2-y,z
loop_
_atom_site_type_symbol
_atom_site_label
_atom_site_fract_x
_atom_site_fract_y
_atom_site_fract_z
Si Si1 0.562887 0.836494 0.272103
Si Si2 0.240290 0.833255 0.720927
Si Si3 0.808411 0.800645 0.500000
Si Si4 0.433865 0.702508 0.130526
Si Si5 0.561844 0.247671 0.500000
Si Si6 0.657711 0.416716 0.131161
Si Si7 0.155866 0.581389 0.629421
O O1 0.500000 0.855676 0.235604
O O2 0.585654 0.775357 0.190321
O O3 0.559863 0.798077 0.389619
O O4 0.601124 0.904508 0.297478
O O5 0.250000 0.750000 0.751397
O O6 0.199743 0.838967 0.615359
O O7 0.212334 0.880081 0.815211
O O8 0.298735 0.864250 0.676805
O O9 0.750000 0.750000 0.500000
O O10 0.873796 0.776824 0.500000
O O11 0.500000 0.691632 0.159799
O O12 0.395201 0.634676 0.160943
O O13 0.430697 0.711324 0.000000
O O14 0.500000 0.288605 0.500000
O O15 0.651112 0.500000 0.164696
O O16 0.662091 0.415573 0.000000
O O17 0.146378 0.594708 0.500000
O O18 0.175957 0.500000 0.639268
#
# Coordination Sequence:
#
# PCOD9483366 Si02
#       7
#    16  16   8  16   8  16  16
#     4  10  19  33  54  79 108 139 173 217 267 318
#     4  11  21  35  56  78 104 140 184 230 268 318
#     4  10  18  30  52  77 102 134 176 224 270 317
#     4   9  18  34  57  82 106 138 181 223 263 313
#     4  10  18  28  46  76 108 134 166 213 273 323
#     4  10  21  36  53  77 110 142 176 222 276 328
#     4  11  22  35  52  78 112 142 176 221 269 324
#
# _framework density 17.708572
#
# number of rings (size 3 to 8) (size 9 to 14) (size 15 to 20)
#    0.000    1.833    1.667    4.500    0.000    1.000 
#    0.000    3.333    0.000    1.500    0.000    2.333 
#    0.000   10.000    0.000    0.000    0.000    0.000 
#
# Total GULP energy -267227.626597 kJ/mol
# GULP energy per Si atom -5567.242221 kJ/mol
# Density = 1.766827 g / cm^3
# Si number density = 17.708572 Si / 1000 Ang^3
#
#
#
# Elastic Constant Matrix: (Units=GPa)
#
#
# Indices 1 2 3 4 5 6 
#
# 1 63.4175 27.1210 2.0295 0.0000 0.0000 0.0000
# 2 27.1210 92.0201 20.0696 0.0000 0.0000 0.0000
# 3 2.0295 20.0696 29.9100 0.0000 0.0000 0.0000
# 4 0.0000 0.0000 0.0000 25.0447 0.0000 0.0000
# 5 0.0000 0.0000 0.0000 0.0000 25.7484 0.0000
# 6 0.0000 0.0000 0.0000 0.0000 0.0000 17.9774
#
#
#
# Elastic Compliance Matrix: (Units=1/GPa)
#
#
# Indices 1 2 3 4 5 6 
#
# 1 0.018237 -0.005980 0.002775 0.000000 0.000000 0.000000
# 2 -0.005980 0.014691 -0.009452 0.000000 0.000000 0.000000
# 3 0.002775 -0.009452 0.039588 0.000000 0.000000 0.000000
# 4 0.000000 0.000000 0.000000 0.039929 0.000000 0.000000
# 5 0.000000 0.000000 0.000000 0.000000 0.038837 0.000000
# 6 0.000000 0.000000 0.000000 0.000000 0.000000 0.055625
#
#
# Mechanical properties :
#
#
# Convention : Reuss Voigt Hill
#
# Bulk Modulus (GPa) = 21.18553 31.53198 26.35876
# Shear Modulus (GPa) = 20.16491 22.82927 21.49709
#
# Velocity S-wave (km/s) = 3.37814 3.59439 3.48794
# Velocity P-wave (km/s) = 5.21586 5.92207 5.58015
#
# Compressibility (1/GPa) = 0.04720203
#
# Stress axis : x y z
#
# Youngs Moduli (GPa) = 54.83284 68.06767 25.26043
#
# Poissons Ratio (x) = 0.40707 -0.07011
# Poissons Ratio (y) = 0.32792 0.23876
# Poissons Ratio (z) = -0.15218 0.64338
#
# Static dielectric constant tensor:
#      x y z
#    x 1.682230 0.000000 0.000000 
#    y 0.000000 1.608200 0.000000 
#    z 0.000000 0.000000 1.600920 
# 
# From -- ./inp_files/30858.got.cif
#   From: 2010.05.17/outbox.cif.g08.bks.cpg/sg65_16_cif.got.tgz:30858.got - 2010.06.03 17:01:31.
