data_PCOD9483993
_publ_section_title
;
Structure prediction by ZEFSAII (Michael W. Deem and Ramdas Pophale) SiO2 
 PCOD9483993
Probable space group: C M M M
;
_chemical_formula_sum "Si O2"
_cell_formula_units_Z 96
_cell_length_a 7.929013
_cell_length_b 29.882376
_cell_length_c 21.370745
_cell_angle_alpha 90.000000
_cell_angle_beta 90.000000
_cell_angle_gamma 90.000000
_cell_volume 5063.536189
_symmetry_space_group_name_H-M "C M M M"
_symmetry_group_IT_number 65
_symmetry_cell_setting 'orthorhombic'
loop_
_space_group_symop_operation_xyz
x,y,z
-x,-y,z
x,-y,-z
-x,y,-z
-x,-y,-z
x,y,-z
-x,y,z
x,-y,z
1/2+x,1/2+y,z
1/2-x,1/2-y,z
1/2+x,1/2-y,-z
1/2-x,1/2+y,-z
1/2-x,1/2-y,-z
1/2+x,1/2+y,-z
1/2-x,1/2+y,z
1/2+x,1/2-y,z
loop_
_atom_site_type_symbol
_atom_site_label
_atom_site_fract_x
_atom_site_fract_y
_atom_site_fract_z
Si Si1 0.202937 0.050988 0.690778
Si Si2 0.702055 0.393452 0.810708
Si Si3 0.200583 0.701093 0.235681
Si Si4 0.703876 0.106621 0.568976
Si Si5 0.205924 0.051680 0.070473
Si Si6 0.202891 0.298999 0.620637
O O1 0.267405 0.080556 0.749066
O O2 0.244022 0.074789 0.625540
O O3 0.000000 0.049401 0.695973
O O4 0.266022 0.000000 0.693274
O O5 0.500000 0.398881 0.810957
O O6 0.738574 0.341183 0.803319
O O7 0.766320 0.416213 0.874265
O O8 0.250000 0.750000 0.211385
O O9 0.266890 0.697692 0.307459
O O10 0.000000 0.698832 0.239027
O O11 0.762505 0.092526 0.500000
O O12 0.500000 0.107249 0.568316
O O13 0.762167 0.157387 0.583571
O O14 0.000000 0.052763 0.070213
O O15 0.253257 0.000000 0.082897
O O16 0.260889 0.063551 0.000000
O O17 0.250000 0.250000 0.595783
O O18 0.000000 0.300807 0.622151
#
# Coordination Sequence:
#
# PCOD9483993 Si02
#       6
#    16  16  16  16  16  16
#     4  10  21  35  51  73 100 129 165 209 251 293
#     4  10  18  30  52  79 105 133 167 206 249 294
#     4  10  19  32  51  75 103 132 165 206 252 299
#     4  10  21  37  53  70  96 130 167 207 252 302
#     4   8  14  26  47  77 110 140 170 205 246 294
#     4   9  18  32  50  72  97 124 157 199 247 298
#
# _framework density 18.959081999999999
#
# number of rings (size 3 to 8) (size 9 to 14) (size 15 to 20)
#    0.000    2.500    1.667    1.500    0.000    4.667 
#    0.000    1.667    0.000    2.500    0.000    1.167 
#    0.000    0.000    0.000    0.000    0.000    0.000 
#
# Total GULP energy -267802.030837 kJ/mol
# GULP energy per Si atom -5579.208976 kJ/mol
# Density = 1.891593 g / cm^3
# Si number density = 18.959082 Si / 1000 Ang^3
#
#
#
# Elastic Constant Matrix: (Units=GPa)
#
#
# Indices 1 2 3 4 5 6 
#
# 1 15.3411 5.1750 10.3279 0.0000 0.0000 0.0000
# 2 5.1750 150.4679 94.4968 0.0000 0.0000 0.0000
# 3 10.3279 94.4968 141.6747 0.0000 0.0000 0.0000
# 4 0.0000 0.0000 0.0000 19.0243 0.0000 0.0000
# 5 0.0000 0.0000 0.0000 0.0000 5.8492 0.0000
# 6 0.0000 0.0000 0.0000 0.0000 0.0000 21.2088
#
#
#
# Elastic Compliance Matrix: (Units=1/GPa)
#
#
# Indices 1 2 3 4 5 6 
#
# 1 0.068707 0.001347 -0.005907 0.000000 0.000000 0.000000
# 2 0.001347 0.011463 -0.007744 0.000000 0.000000 0.000000
# 3 -0.005907 -0.007744 0.012654 0.000000 0.000000 0.000000
# 4 0.000000 0.000000 0.000000 0.052564 0.000000 0.000000
# 5 0.000000 0.000000 0.000000 0.000000 0.170962 0.000000
# 6 0.000000 0.000000 0.000000 0.000000 0.000000 0.047150
#
#
# Mechanical properties :
#
#
# Convention : Reuss Voigt Hill
#
# Bulk Modulus (GPa) = 14.65942 58.60923 36.63433
# Shear Modulus (GPa) = 12.16996 22.38207 17.27601
#
# Velocity S-wave (km/s) = 2.53634 3.43963 3.02193
# Velocity P-wave (km/s) = 4.04058 6.83779 5.61612
#
# Compressibility (1/GPa) = 0.06821553
#
# Stress axis : x y z
#
# Youngs Moduli (GPa) = 14.55463 87.23739 79.02501
#
# Poissons Ratio (x) = -0.11747 0.46678
# Poissons Ratio (y) = -0.01960 0.61197
# Poissons Ratio (z) = 0.08597 0.67556
#
# Static dielectric constant tensor:
#      x y z
#    x 1.702920 0.000000 0.000000 
#    y 0.000000 1.669060 0.000000 
#    z 0.000000 0.000000 1.659670 
# 
# From -- ./inp_files/60167.got.cif
#   From: 2010.05.17/outbox.cif.g08.bks.cpg/sg65_31_cif.got.tgz:60167.got - 2010.06.03 17:01:31.
