data_PCOD9483698
_publ_section_title
;
Structure prediction by ZEFSAII (Michael W. Deem and Ramdas Pophale) SiO2 
 PCOD9483698
Probable space group: C M M M
;
_chemical_formula_sum "Si O2"
_cell_formula_units_Z 120
_cell_length_a 29.171212
_cell_length_b 14.638896
_cell_length_c 15.620052
_cell_angle_alpha 90.000000
_cell_angle_beta 90.000000
_cell_angle_gamma 90.000000
_cell_volume 6670.298576
_symmetry_space_group_name_H-M "C M M M"
_symmetry_group_IT_number 65
_symmetry_cell_setting 'orthorhombic'
loop_
_space_group_symop_operation_xyz
x,y,z
-x,-y,z
x,-y,-z
-x,y,-z
-x,-y,-z
x,y,-z
-x,y,z
x,-y,z
1/2+x,1/2+y,z
1/2-x,1/2-y,z
1/2+x,1/2-y,-z
1/2-x,1/2+y,-z
1/2-x,1/2-y,-z
1/2+x,1/2+y,-z
1/2-x,1/2+y,z
1/2+x,1/2-y,z
loop_
_atom_site_type_symbol
_atom_site_label
_atom_site_fract_x
_atom_site_fract_y
_atom_site_fract_z
Si Si1 0.795758 0.108692 0.231303
Si Si2 0.946770 0.696725 0.169262
Si Si3 0.801438 0.787051 0.407721
Si Si4 0.189171 0.603934 0.816655
Si Si5 0.850371 0.399321 0.626901
Si Si6 0.944477 0.500000 0.903622
Si Si7 0.049206 0.603396 0.344231
Si Si8 0.856031 0.223907 0.899030
O O1 0.808589 0.153757 0.322609
O O2 0.741754 0.126251 0.210429
O O3 0.827537 0.151977 0.157828
O O4 0.801144 0.000000 0.235713
O O5 0.931617 0.596654 0.135813
O O6 0.947484 0.680117 0.271117
O O7 0.908300 0.765352 0.135395
O O8 0.000000 0.714411 0.142569
O O9 0.808572 0.834467 0.500000
O O10 0.750000 0.750000 0.403807
O O11 0.829439 0.693183 0.406676
O O12 0.188012 0.500000 0.850130
O O13 0.159036 0.605223 0.729382
O O14 0.169369 0.679732 0.879530
O O15 0.832012 0.500000 0.600748
O O16 0.903944 0.395976 0.605450
O O17 0.000000 0.500000 0.902663
O O18 0.927477 0.500000 0.000000
O O19 0.048333 0.500000 0.304482
O O20 0.000000 0.613271 0.388570
O O21 0.855714 0.204338 0.000000
#
# Coordination Sequence:
#
# PCOD9483698 Si02
#       8
#    16  16  16  16  16   8  16  16
#     4  11  23  42  60  75 106 145 188 241 289 325
#     4  10  18  30  46  71 109 143 177 224 278 333
#     4  11  21  35  58  88 116 141 177 223 277 339
#     4  10  20  35  55  78 110 150 181 217 270 328
#     4  10  18  32  53  79 117 153 178 209 260 324
#     4   9  16  24  36  60 100 142 167 197 257 325
#     4   9  15  25  46  73 104 147 190 217 244 300
#     4  12  24  36  55  80 108 146 194 236 275 326
#
# _framework density 17.990200000000002
#
# number of rings (size 3 to 8) (size 9 to 14) (size 15 to 20)
#    0.000    1.667    4.667    0.800    0.933    2.933 
#    0.000    2.667    0.000    0.800    0.000    2.800 
#    0.000    0.000    0.000    5.600    0.000    0.133 
#
# Total GULP energy -334460.374902 kJ/mol
# GULP energy per Si atom -5574.339582 kJ/mol
# Density = 1.794925 g / cm^3
# Si number density = 17.990200 Si / 1000 Ang^3
#
#
#
# Elastic Constant Matrix: (Units=GPa)
#
#
# Indices 1 2 3 4 5 6 
#
# 1 125.8286 48.6034 33.0034 0.0000 0.0000 0.0000
# 2 48.6034 68.3409 33.4074 0.0000 0.0000 0.0000
# 3 33.0034 33.4074 92.7200 0.0000 0.0000 0.0000
# 4 0.0000 0.0000 0.0000 0.9936 0.0000 0.0000
# 5 0.0000 0.0000 0.0000 0.0000 19.0320 0.0000
# 6 0.0000 0.0000 0.0000 0.0000 0.0000 25.6959
#
#
#
# Elastic Compliance Matrix: (Units=1/GPa)
#
#
# Indices 1 2 3 4 5 6 
#
# 1 0.011093 -0.007233 -0.001342 0.000000 0.000000 0.000000
# 2 -0.007233 0.022477 -0.005524 0.000000 0.000000 0.000000
# 3 -0.001342 -0.005524 0.013253 0.000000 0.000000 0.000000
# 4 0.000000 0.000000 0.000000 1.006484 0.000000 0.000000
# 5 0.000000 0.000000 0.000000 0.000000 0.052543 0.000000
# 6 0.000000 0.000000 0.000000 0.000000 0.000000 0.038917
#
#
# Mechanical properties :
#
#
# Convention : Reuss Voigt Hill
#
# Bulk Modulus (GPa) = 53.69300 57.43535 55.56417
# Shear Modulus (GPa) = 4.24025 20.60264 12.42145
#
# Velocity S-wave (km/s) = 1.53691 3.38777 2.63050
# Velocity P-wave (km/s) = 5.74978 6.87735 6.33868
#
# Compressibility (1/GPa) = 0.01862440
#
# Stress axis : x y z
#
# Youngs Moduli (GPa) = 90.14360 44.48985 75.45287
#
# Poissons Ratio (x) = 0.32181 0.10129
# Poissons Ratio (y) = 0.65203 0.41680
# Poissons Ratio (z) = 0.12102 0.24576
#
# Static dielectric constant tensor:
#      x y z
#    x 1.762160 0.000000 0.000000 
#    y 0.000000 1.654700 0.000000 
#    z 0.000000 0.000000 1.674470 
# 
# From -- ./inp_files/48102.got.cif
#   From: 2010.05.17/outbox.cif.g08.bks.cpg/sg65_25_cif.got.tgz:48102.got - 2010.06.03 17:01:31.
