data_PCOD9483383
_publ_section_title
;
Structure prediction by ZEFSAII (Michael W. Deem and Ramdas Pophale) SiO2 
 PCOD9483383
Probable space group: C M M M
;
_chemical_formula_sum "Si O2"
_cell_formula_units_Z 88
_cell_length_a 28.013485
_cell_length_b 8.739508
_cell_length_c 21.839314
_cell_angle_alpha 90.000000
_cell_angle_beta 90.000000
_cell_angle_gamma 90.000000
_cell_volume 5346.789876
_symmetry_space_group_name_H-M "C M M M"
_symmetry_group_IT_number 65
_symmetry_cell_setting 'orthorhombic'
loop_
_space_group_symop_operation_xyz
x,y,z
-x,-y,z
x,-y,-z
-x,y,-z
-x,-y,-z
x,y,-z
-x,y,z
x,-y,z
1/2+x,1/2+y,z
1/2-x,1/2-y,z
1/2+x,1/2-y,-z
1/2-x,1/2+y,-z
1/2-x,1/2-y,-z
1/2+x,1/2+y,-z
1/2-x,1/2+y,z
1/2+x,1/2-y,z
loop_
_atom_site_type_symbol
_atom_site_label
_atom_site_fract_x
_atom_site_fract_y
_atom_site_fract_z
Si Si1 0.148069 0.683436 0.380285
Si Si2 0.803289 0.818546 0.500000
Si Si3 0.554438 0.815326 0.309754
Si Si4 0.555370 0.313766 0.068189
Si Si5 0.605748 0.316057 0.808333
Si Si6 0.802020 0.317209 0.251737
O O1 0.149155 0.500000 0.389550
O O2 0.168484 0.763290 0.439948
O O3 0.094245 0.727650 0.360195
O O4 0.180678 0.719193 0.321031
O O5 0.750000 0.750000 0.500000
O O6 0.799390 0.000000 0.500000
O O7 0.500000 0.773216 0.324547
O O8 0.571034 0.743328 0.245547
O O9 0.557047 0.000000 0.303573
O O10 0.500000 0.268849 0.076850
O O11 0.556166 0.500000 0.068231
O O12 0.586693 0.263318 0.125591
O O13 0.570653 0.263990 0.000000
O O14 0.606330 0.500000 0.806920
O O15 0.657869 0.252515 0.792360
O O16 0.801800 0.500000 0.245815
O O17 0.750000 0.250000 0.240708
#
# Coordination Sequence:
#
# PCOD9483383 Si02
#       6
#    16   8  16  16  16  16
#     4   9  19  35  53  73  97 125 158 194 234 283
#     4  12  24  36  53  74  97 125 156 195 241 286
#     4   9  18  33  52  73  99 131 164 199 239 282
#     4   8  14  25  42  67  99 131 162 196 234 279
#     4  10  18  28  47  74 100 128 162 200 242 287
#     4  10  20  34  52  73  97 125 158 199 244 288
#
# _framework density 16.458472
#
# number of rings (size 3 to 8) (size 9 to 14) (size 15 to 20)
#    0.000    2.545    0.000    4.636    0.000    6.182 
#    0.000    0.455    0.000    5.455    0.000    6.364 
#    0.000    0.000    0.000    0.000    0.000    0.000 
#
# Total GULP energy -245381.384875 kJ/mol
# GULP energy per Si atom -5576.849656 kJ/mol
# Density = 1.642101 g / cm^3
# Si number density = 16.458472 Si / 1000 Ang^3
#
#
#
# Elastic Constant Matrix: (Units=GPa)
#
#
# Indices 1 2 3 4 5 6 
#
# 1 154.9542 42.9334 96.0657 0.0000 0.0000 0.0000
# 2 42.9334 30.9293 48.9704 0.0000 0.0000 0.0000
# 3 96.0657 48.9704 155.9720 0.0000 0.0000 0.0000
# 4 0.0000 0.0000 0.0000 13.2104 0.0000 0.0000
# 5 0.0000 0.0000 0.0000 0.0000 16.6036 0.0000
# 6 0.0000 0.0000 0.0000 0.0000 0.0000 23.3805
#
#
#
# Elastic Compliance Matrix: (Units=1/GPa)
#
#
# Indices 1 2 3 4 5 6 
#
# 1 0.011724 -0.009626 -0.004198 0.000000 0.000000 0.000000
# 2 -0.009626 0.072196 -0.016738 0.000000 0.000000 0.000000
# 3 -0.004198 -0.016738 0.014253 0.000000 0.000000 0.000000
# 4 0.000000 0.000000 0.000000 0.075698 0.000000 0.000000
# 5 0.000000 0.000000 0.000000 0.000000 0.060228 0.000000
# 6 0.000000 0.000000 0.000000 0.000000 0.000000 0.042771
#
#
# Mechanical properties :
#
#
# Convention : Reuss Voigt Hill
#
# Bulk Modulus (GPa) = 26.99338 79.75495 53.37416
# Shear Modulus (GPa) = 14.27173 20.89798 17.58485
#
# Velocity S-wave (km/s) = 2.94791 3.56721 3.27224
# Velocity P-wave (km/s) = 5.29371 8.09507 6.83935
#
# Compressibility (1/GPa) = 0.03704612
#
# Stress axis : x y z
#
# Youngs Moduli (GPa) = 85.29875 13.85117 70.16295
#
# Poissons Ratio (x) = 0.13334 0.29457
# Poissons Ratio (y) = 0.82111 1.17441
# Poissons Ratio (z) = 0.35811 0.23185
#
# Static dielectric constant tensor:
#      x y z
#    x 1.544740 0.000000 0.000000 
#    y 0.000000 1.554590 0.000000 
#    z 0.000000 0.000000 1.539730 
# 
# From -- ./inp_files/65749.got.cif
#   From: 2010.05.17/outbox.cif.g08.bks.cpg/sg65_33_cif.got.tgz:65749.got - 2010.06.03 17:01:31.
