data_PCOD9483058
_publ_section_title
;
Structure prediction by ZEFSAII (Michael W. Deem and Ramdas Pophale) SiO2 
 PCOD9483058
Probable space group: C M M M
;
_chemical_formula_sum "Si O2"
_cell_formula_units_Z 112
_cell_length_a 28.724722
_cell_length_b 21.232979
_cell_length_c 13.888474
_cell_angle_alpha 90.000000
_cell_angle_beta 90.000000
_cell_angle_gamma 90.000000
_cell_volume 8470.738885
_symmetry_space_group_name_H-M "C M M M"
_symmetry_group_IT_number 65
_symmetry_cell_setting 'orthorhombic'
loop_
_space_group_symop_operation_xyz
x,y,z
-x,-y,z
x,-y,-z
-x,y,-z
-x,-y,-z
x,y,-z
-x,y,z
x,-y,z
1/2+x,1/2+y,z
1/2-x,1/2-y,z
1/2+x,1/2-y,-z
1/2-x,1/2+y,-z
1/2-x,1/2-y,-z
1/2+x,1/2+y,-z
1/2-x,1/2+y,z
1/2+x,1/2-y,z
loop_
_atom_site_type_symbol
_atom_site_label
_atom_site_fract_x
_atom_site_fract_y
_atom_site_fract_z
Si Si1 0.055481 0.744915 0.387411
Si Si2 0.554015 0.075615 0.112960
Si Si3 0.445876 0.000000 0.615203
Si Si4 0.553762 0.500000 0.617572
Si Si5 0.101091 0.623476 0.705422
Si Si6 0.306687 0.825222 0.383389
Si Si7 0.105711 0.125917 0.382750
Si Si8 0.298687 0.677009 0.383893
O O1 0.068543 0.735041 0.500000
O O2 0.073945 0.685643 0.329065
O O3 0.078210 0.810696 0.355970
O O4 0.000000 0.749367 0.381959
O O5 0.500000 0.091339 0.137744
O O6 0.589661 0.110526 0.183045
O O7 0.558827 0.000000 0.125474
O O8 0.560746 0.089278 0.000000
O O9 0.420299 0.062419 0.652524
O O10 0.500000 0.000000 0.647531
O O11 0.445563 0.000000 0.500000
O O12 0.500000 0.500000 0.647313
O O13 0.554017 0.500000 0.500000
O O14 0.580151 0.437084 0.649783
O O15 0.154077 0.636098 0.672730
O O16 0.312120 0.833195 0.500000
O O17 0.310554 0.750150 0.362474
O O18 0.253529 0.840892 0.354250
O O19 0.105713 0.124311 0.500000
O O20 0.159000 0.133697 0.350206
O O21 0.297523 0.674454 0.500000
#
# Coordination Sequence:
#
# PCOD9483058 Si02
#       8
#    16  16   8   8  16  16  16  16
#     4  10  18  25  36  57  85 112 141 174 207 252
#     4   9  18  33  49  61  77 108 149 185 215 255
#     4  11  22  30  36  54  90 125 144 162 200 253
#     4   9  16  24  35  51  73 104 141 177 210 240
#     4  12  19  28  43  61  82 112 145 178 215 249
#     4   9  16  26  41  60  83 111 144 178 207 246
#     4   9  15  25  38  53  75 107 144 177 207 239
#     4   8  14  26  41  56  77 110 148 177 204 239
#
# _framework density 13.221987
#
# number of rings (size 3 to 8) (size 9 to 14) (size 15 to 20)
#    0.000    2.429    2.143    4.286    0.000    2.857 
#    0.000    0.714    0.000    2.571    0.000    2.000 
#    0.000    0.000    0.000    0.643    0.000    7.143 
#
# Total GULP energy -311879.590356 kJ/mol
# GULP energy per Si atom -5569.278399 kJ/mol
# Density = 1.319189 g / cm^3
# Si number density = 13.221987 Si / 1000 Ang^3
#
#
#
# Elastic Constant Matrix: (Units=GPa)
#
#
# Indices 1 2 3 4 5 6 
#
# 1 121.4607 65.6840 30.4783 0.0000 0.0000 0.0000
# 2 65.6840 93.1928 24.7712 0.0000 0.0000 0.0000
# 3 30.4783 24.7712 42.5941 0.0000 0.0000 0.0000
# 4 0.0000 0.0000 0.0000 4.0472 0.0000 0.0000
# 5 0.0000 0.0000 0.0000 0.0000 10.5702 0.0000
# 6 0.0000 0.0000 0.0000 0.0000 0.0000 26.1972
#
#
#
# Elastic Compliance Matrix: (Units=1/GPa)
#
#
# Indices 1 2 3 4 5 6 
#
# 1 0.014193 -0.008639 -0.005131 0.000000 0.000000 0.000000
# 2 -0.008639 0.017951 -0.004258 0.000000 0.000000 0.000000
# 3 -0.005131 -0.004258 0.029625 0.000000 0.000000 0.000000
# 4 0.000000 0.000000 0.000000 0.247083 0.000000 0.000000
# 5 0.000000 0.000000 0.000000 0.000000 0.094605 0.000000
# 6 0.000000 0.000000 0.000000 0.000000 0.000000 0.038172
#
#
# Mechanical properties :
#
#
# Convention : Reuss Voigt Hill
#
# Bulk Modulus (GPa) = 38.89191 55.45719 47.17455
# Shear Modulus (GPa) = 10.28261 17.25055 13.76658
#
# Velocity S-wave (km/s) = 2.79174 3.61596 3.23025
# Velocity P-wave (km/s) = 6.31428 7.71154 7.04762
#
# Compressibility (1/GPa) = 0.02571229
#
# Stress axis : x y z
#
# Youngs Moduli (GPa) = 70.45844 55.70586 33.75481
#
# Poissons Ratio (x) = 0.48126 0.17321
# Poissons Ratio (y) = 0.60872 0.14373
# Poissons Ratio (z) = 0.36154 0.23719
#
# Static dielectric constant tensor:
#      x y z
#    x 1.458730 0.000000 0.000000 
#    y 0.000000 1.425530 0.000000 
#    z 0.000000 0.000000 1.409630 
# 
# From -- ./inp_files/48160.got.cif
#   From: 2010.05.17/outbox.cif.g08.bks.cpg/sg65_25_cif.got.tgz:48160.got - 2010.06.03 17:01:31.
