data_PCOD9483543
_publ_section_title
;
Structure prediction by ZEFSAII (Michael W. Deem and Ramdas Pophale) SiO2 
 PCOD9483543
Probable space group: C M M M
;
_chemical_formula_sum "Si O2"
_cell_formula_units_Z 120
_cell_length_a 13.975252
_cell_length_b 32.087292
_cell_length_c 15.113891
_cell_angle_alpha 90.000000
_cell_angle_beta 90.000000
_cell_angle_gamma 90.000000
_cell_volume 6777.491788
_symmetry_space_group_name_H-M "C M M M"
_symmetry_group_IT_number 65
_symmetry_cell_setting 'orthorhombic'
loop_
_space_group_symop_operation_xyz
x,y,z
-x,-y,z
x,-y,-z
-x,y,-z
-x,-y,-z
x,y,-z
-x,y,z
x,-y,z
1/2+x,1/2+y,z
1/2-x,1/2-y,z
1/2+x,1/2-y,-z
1/2-x,1/2+y,-z
1/2-x,1/2-y,-z
1/2+x,1/2+y,-z
1/2-x,1/2+y,z
1/2+x,1/2-y,z
loop_
_atom_site_type_symbol
_atom_site_label
_atom_site_fract_x
_atom_site_fract_y
_atom_site_fract_z
Si Si1 0.110428 0.646639 0.103714
Si Si2 0.384406 0.421719 0.277478
Si Si3 0.383782 0.652595 0.599003
Si Si4 0.116150 0.000000 0.601549
Si Si5 0.616081 0.250411 0.402916
Si Si6 0.385314 0.306042 0.100972
Si Si7 0.203598 0.101645 0.898376
Si Si8 0.616811 0.772684 0.214681
O O1 0.183534 0.608894 0.115984
O O2 0.142498 0.686499 0.159986
O O3 0.000000 0.636886 0.124482
O O4 0.115547 0.658403 0.000000
O O5 0.500000 0.421130 0.270662
O O6 0.352112 0.378579 0.324340
O O7 0.356715 0.459136 0.342932
O O8 0.341516 0.425135 0.179711
O O9 0.354601 0.638666 0.500000
O O10 0.500000 0.651449 0.600393
O O11 0.357799 0.700959 0.608888
O O12 0.150337 0.000000 0.500000
O O13 0.000000 0.000000 0.597623
O O14 0.647776 0.235735 0.500000
O O15 0.500000 0.249271 0.403783
O O16 0.647917 0.225931 0.316429
O O17 0.500000 0.310575 0.111666
O O18 0.341225 0.351776 0.110484
O O19 0.352344 0.270420 0.168438
O O20 0.366909 0.291765 0.000000
O O21 0.186173 0.088056 0.000000
O O22 0.500000 0.771387 0.212958
#
# Coordination Sequence:
#
# PCOD9483543 Si02
#       8
#    16  16  16   8  16  16  16  16
#     4   9  18  32  47  62  81 109 151 202 247 279
#     4  10  18  29  47  71  99 127 151 175 207 253
#     4   8  13  22  38  60  86 117 152 187 218 249
#     4   9  18  32  51  77 106 133 157 177 201 240
#     4   8  13  20  32  53  78 106 143 182 222 267
#     4   9  16  25  38  59  87 117 150 188 227 268
#     4  10  20  31  44  64  90 121 155 188 225 272
#     4   9  15  24  39  57  80 112 149 192 239 280
#
# _framework density 17.705666000000001
#
# number of rings (size 3 to 8) (size 9 to 14) (size 15 to 20)
#    0.000    3.000    0.000    2.800    0.000    6.667 
#    0.000    2.333    0.000    2.800    0.000    3.267 
#    0.000    2.667    0.000    0.000    0.000    0.000 
#
# Total GULP energy -334629.275849 kJ/mol
# GULP energy per Si atom -5577.154597 kJ/mol
# Density = 1.766537 g / cm^3
# Si number density = 17.705666 Si / 1000 Ang^3
#
#
#
# Elastic Constant Matrix: (Units=GPa)
#
#
# Indices 1 2 3 4 5 6 
#
# 1 45.0249 7.0432 29.3822 0.0000 0.0000 0.0000
# 2 7.0432 20.3229 35.1854 0.0000 0.0000 0.0000
# 3 29.3822 35.1854 125.6859 0.0000 0.0000 0.0000
# 4 0.0000 0.0000 0.0000 23.2522 0.0000 0.0000
# 5 0.0000 0.0000 0.0000 0.0000 7.9678 0.0000
# 6 0.0000 0.0000 0.0000 0.0000 0.0000 10.2875
#
#
#
# Elastic Compliance Matrix: (Units=1/GPa)
#
#
# Indices 1 2 3 4 5 6 
#
# 1 0.026300 0.002969 -0.006979 0.000000 0.000000 0.000000
# 2 0.002969 0.095820 -0.027519 0.000000 0.000000 0.000000
# 3 -0.006979 -0.027519 0.017292 0.000000 0.000000 0.000000
# 4 0.000000 0.000000 0.000000 0.043007 0.000000 0.000000
# 5 0.000000 0.000000 0.000000 0.000000 0.125506 0.000000
# 6 0.000000 0.000000 0.000000 0.000000 0.000000 0.097205
#
#
# Mechanical properties :
#
#
# Convention : Reuss Voigt Hill
#
# Bulk Modulus (GPa) = 13.09695 37.13950 25.11823
# Shear Modulus (GPa) = 10.12886 16.26302 13.19594
#
# Velocity S-wave (km/s) = 2.39439 3.03400 2.73297
# Velocity P-wave (km/s) = 3.88037 5.77019 4.91693
#
# Compressibility (1/GPa) = 0.07635364
#
# Stress axis : x y z
#
# Youngs Moduli (GPa) = 38.02257 10.43623 57.83118
#
# Poissons Ratio (x) = -0.03098 0.40363
# Poissons Ratio (y) = -0.11288 1.59143
# Poissons Ratio (z) = 0.26538 0.28719
#
# Static dielectric constant tensor:
#      x y z
#    x 1.648830 0.000000 0.000000 
#    y 0.000000 1.572750 0.000000 
#    z 0.000000 0.000000 1.638700 
# 
# From -- ./inp_files/41465.got.cif
#   From: 2010.05.17/outbox.cif.g08.bks.cpg/sg65_21_cif.got.tgz:41465.got - 2010.06.03 17:01:31.
