data_PCOD9483080
_publ_section_title
;
Structure prediction by ZEFSAII (Michael W. Deem and Ramdas Pophale) SiO2 
 PCOD9483080
Probable space group: C M M M
;
_chemical_formula_sum "Si O2"
_cell_formula_units_Z 80
_cell_length_a 7.837108
_cell_length_b 26.230645
_cell_length_c 24.393548
_cell_angle_alpha 90.000000
_cell_angle_beta 90.000000
_cell_angle_gamma 90.000000
_cell_volume 5014.640153
_symmetry_space_group_name_H-M "C M M M"
_symmetry_group_IT_number 65
_symmetry_cell_setting 'orthorhombic'
loop_
_space_group_symop_operation_xyz
x,y,z
-x,-y,z
x,-y,-z
-x,y,-z
-x,-y,-z
x,y,-z
-x,y,z
x,-y,z
1/2+x,1/2+y,z
1/2-x,1/2-y,z
1/2+x,1/2-y,-z
1/2-x,1/2+y,-z
1/2-x,1/2-y,-z
1/2+x,1/2+y,-z
1/2-x,1/2+y,z
1/2+x,1/2-y,z
loop_
_atom_site_type_symbol
_atom_site_label
_atom_site_fract_x
_atom_site_fract_y
_atom_site_fract_z
Si Si1 0.203228 0.309994 0.058898
Si Si2 0.000000 0.621837 0.438771
Si Si3 0.302474 0.308934 0.396484
Si Si4 0.798155 0.870027 0.715729
Si Si5 0.000000 0.560464 0.327973
Si Si6 0.700270 0.309500 0.821187
O O1 0.250000 0.250000 0.059374
O O2 0.262220 0.329993 0.117707
O O3 0.000000 0.314000 0.058524
O O4 0.268613 0.330501 0.000000
O O5 0.166837 0.657194 0.429561
O O6 0.000000 0.600821 0.500000
O O7 0.000000 0.579948 0.390908
O O8 0.500000 0.315255 0.413819
O O9 0.250000 0.250000 0.399769
O O10 0.289646 0.328918 0.333720
O O11 0.669500 0.915038 0.699343
O O12 0.732104 0.843335 0.771386
O O13 0.000000 0.884828 0.720563
O O14 0.000000 0.500000 0.324099
O O15 0.500000 0.310089 0.813750
O O16 0.750000 0.250000 0.817902
#
# Coordination Sequence:
#
# PCOD9483080 Si02
#       6
#    16   8  16  16   8  16
#     4   9  16  24  34  52  85 130 173 204 228 265
#     4  10  22  37  52  76 104 129 166 202 230 286
#     4  10  18  32  49  72 105 140 165 191 235 281
#     4   9  20  33  50  75 101 124 160 205 244 300
#     4  10  22  39  60  76  91 126 160 202 262 292
#     4  10  18  26  41  67  96 133 165 196 239 281
#
# _framework density 15.953288000000001
#
# number of rings (size 3 to 8) (size 9 to 14) (size 15 to 20)
#    0.000    2.400    1.000    3.000    2.800    2.600 
#    0.000    0.000    0.000    0.000    0.000    5.600 
#    0.000    1.600    0.000    4.400    0.000    0.000 
#
# Total GULP energy -222760.386428 kJ/mol
# GULP energy per Si atom -5569.009661 kJ/mol
# Density = 1.591698 g / cm^3
# Si number density = 15.953288 Si / 1000 Ang^3
#
#
#
# Elastic Constant Matrix: (Units=GPa)
#
#
# Indices 1 2 3 4 5 6 
#
# 1 80.3636 31.3139 32.4031 0.0000 0.0000 0.0000
# 2 31.3139 70.1421 41.9612 0.0000 0.0000 0.0000
# 3 32.4031 41.9612 126.7971 0.0000 0.0000 0.0000
# 4 0.0000 0.0000 0.0000 6.4040 0.0000 0.0000
# 5 0.0000 0.0000 0.0000 0.0000 12.4271 0.0000
# 6 0.0000 0.0000 0.0000 0.0000 0.0000 12.8115
#
#
#
# Elastic Compliance Matrix: (Units=1/GPa)
#
#
# Indices 1 2 3 4 5 6 
#
# 1 0.015493 -0.005671 -0.002083 0.000000 0.000000 0.000000
# 2 -0.005671 0.019852 -0.005120 0.000000 0.000000 0.000000
# 3 -0.002083 -0.005120 0.010113 0.000000 0.000000 0.000000
# 4 0.000000 0.000000 0.000000 0.156153 0.000000 0.000000
# 5 0.000000 0.000000 0.000000 0.000000 0.080470 0.000000
# 6 0.000000 0.000000 0.000000 0.000000 0.000000 0.078055
#
#
# Mechanical properties :
#
#
# Convention : Reuss Voigt Hill
#
# Bulk Modulus (GPa) = 50.73468 54.29549 52.51508
# Shear Modulus (GPa) = 12.74040 17.77015 15.25527
#
# Velocity S-wave (km/s) = 2.82903 3.34111 3.09568
# Velocity P-wave (km/s) = 6.52244 6.99943 6.76514
#
# Compressibility (1/GPa) = 0.01971038
#
# Stress axis : x y z
#
# Youngs Moduli (GPa) = 64.54639 50.37395 98.87955
#
# Poissons Ratio (x) = 0.28565 0.20593
# Poissons Ratio (y) = 0.36602 0.50630
# Poissons Ratio (z) = 0.13442 0.25793
#
# Static dielectric constant tensor:
#      x y z
#    x 1.553170 0.000000 0.000000 
#    y 0.000000 1.492470 0.000000 
#    z 0.000000 0.000000 1.604410 
# 
# From -- ./inp_files/59665.got.cif
#   From: 2010.05.17/outbox.cif.g08.bks.cpg/sg65_30_cif.got.tgz:59665.got - 2010.06.03 17:01:31.
