data_PCOD9483799
_publ_section_title
;
Structure prediction by ZEFSAII (Michael W. Deem and Ramdas Pophale) SiO2 
 PCOD9483799
Probable space group: C M M M
;
_chemical_formula_sum "Si O2"
_cell_formula_units_Z 72
_cell_length_a 16.370784
_cell_length_b 27.469297
_cell_length_c 8.807273
_cell_angle_alpha 90.000000
_cell_angle_beta 90.000000
_cell_angle_gamma 90.000000
_cell_volume 3960.577189
_symmetry_space_group_name_H-M "C M M M"
_symmetry_group_IT_number 65
_symmetry_cell_setting 'orthorhombic'
loop_
_space_group_symop_operation_xyz
x,y,z
-x,-y,z
x,-y,-z
-x,y,-z
-x,-y,-z
x,y,-z
-x,y,z
x,-y,z
1/2+x,1/2+y,z
1/2-x,1/2-y,z
1/2+x,1/2-y,-z
1/2-x,1/2+y,-z
1/2-x,1/2-y,-z
1/2+x,1/2+y,-z
1/2-x,1/2+y,z
1/2+x,1/2-y,z
loop_
_atom_site_type_symbol
_atom_site_label
_atom_site_fract_x
_atom_site_fract_y
_atom_site_fract_z
Si Si1 0.000000 0.286858 0.683661
Si Si2 0.330506 0.103990 0.318473
Si Si3 0.000000 0.395888 0.819044
Si Si4 0.823949 0.282231 0.684209
Si Si5 0.670440 0.558701 0.175235
Si Si6 0.000000 0.059330 0.675483
O O1 0.000000 0.340293 0.757467
O O2 0.914096 0.262930 0.726221
O O3 0.000000 0.293393 0.500000
O O4 0.339407 0.102128 0.500000
O O5 0.414160 0.083804 0.244490
O O6 0.320130 0.160944 0.272749
O O7 0.248969 0.077077 0.266078
O O8 0.000000 0.397528 0.000000
O O9 0.819500 0.281364 0.500000
O O10 0.750000 0.250000 0.744319
O O11 0.670039 0.500000 0.180052
O O12 0.583850 0.575395 0.244804
O O13 0.676726 0.573924 0.000000
O O14 0.000000 0.074212 0.500000
O O15 0.000000 0.000000 0.680104
#
# Coordination Sequence:
#
# PCOD9483799 Si02
#       6
#     8  16   8  16  16   8
#     4   8  14  26  45  66  89 121 160 197 234 283
#     4  10  19  32  51  74 100 129 164 205 245 289
#     4  10  18  30  49  70  95 128 165 202 244 297
#     4   8  14  26  45  69  94 121 156 197 239 283
#     4  10  20  34  52  74 101 132 164 200 244 292
#     4   9  17  31  52  75  98 128 167 205 240 285
#
# _framework density 18.179168000000001
#
# number of rings (size 3 to 8) (size 9 to 14) (size 15 to 20)
#    0.000    2.778    0.000    4.000    0.000    2.667 
#    0.000    1.667    0.000   24.000    0.000    0.000 
#    0.000    0.000    0.000    0.000    0.000    0.000 
#
# Total GULP energy -200516.697028 kJ/mol
# GULP energy per Si atom -5569.908251 kJ/mol
# Density = 1.813779 g / cm^3
# Si number density = 18.179168 Si / 1000 Ang^3
#
#
#
# Elastic Constant Matrix: (Units=GPa)
#
#
# Indices 1 2 3 4 5 6 
#
# 1 185.5091 24.2992 56.9108 0.0000 0.0000 0.0000
# 2 24.2992 7.5748 11.5356 0.0000 0.0000 0.0000
# 3 56.9108 11.5356 74.2998 0.0000 0.0000 0.0000
# 4 0.0000 0.0000 0.0000 7.0019 0.0000 0.0000
# 5 0.0000 0.0000 0.0000 0.0000 27.9605 0.0000
# 6 0.0000 0.0000 0.0000 0.0000 0.0000 26.2546
#
#
#
# Elastic Compliance Matrix: (Units=1/GPa)
#
#
# Indices 1 2 3 4 5 6 
#
# 1 0.009943 -0.026583 -0.003489 0.000000 0.000000 0.000000
# 2 -0.026583 0.243967 -0.017517 0.000000 0.000000 0.000000
# 3 -0.003489 -0.017517 0.018851 0.000000 0.000000 0.000000
# 4 0.000000 0.000000 0.000000 0.142818 0.000000 0.000000
# 5 0.000000 0.000000 0.000000 0.000000 0.035765 0.000000
# 6 0.000000 0.000000 0.000000 0.000000 0.000000 0.038089
#
#
# Mechanical properties :
#
#
# Convention : Reuss Voigt Hill
#
# Bulk Modulus (GPa) = 5.63110 50.31943 27.97527
# Shear Modulus (GPa) = 7.76635 23.88593 15.82614
#
# Velocity S-wave (km/s) = 2.06915 3.62873 2.95373
# Velocity P-wave (km/s) = 2.96864 6.73029 5.20142
#
# Compressibility (1/GPa) = 0.17758509
#
# Stress axis : x y z
#
# Youngs Moduli (GPa) = 100.57557 4.09891 53.04833
#
# Poissons Ratio (x) = 0.10896 0.18507
# Poissons Ratio (y) = 2.67356 0.92923
# Poissons Ratio (z) = 0.35087 0.07180
#
# Static dielectric constant tensor:
#      x y z
#    x 1.660700 0.000000 0.000000 
#    y 0.000000 1.621030 0.000000 
#    z 0.000000 0.000000 1.609920 
# 
# From -- ./inp_files/7739.got.cif
#   From: 2010.05.17/outbox.cif.g08.bks.cpg/sg65_4_cif.got.tgz:7739.got - 2010.06.03 17:01:31.
