data_PCOD9483758
_publ_section_title
;
Structure prediction by ZEFSAII (Michael W. Deem and Ramdas Pophale) SiO2 
 PCOD9483758
Probable space group: C M M M
;
_chemical_formula_sum "Si O2"
_cell_formula_units_Z 104
_cell_length_a 21.355562
_cell_length_b 33.268722
_cell_length_c 7.884928
_cell_angle_alpha 90.000000
_cell_angle_beta 90.000000
_cell_angle_gamma 90.000000
_cell_volume 5602.022579
_symmetry_space_group_name_H-M "C M M M"
_symmetry_group_IT_number 65
_symmetry_cell_setting 'orthorhombic'
loop_
_space_group_symop_operation_xyz
x,y,z
-x,-y,z
x,-y,-z
-x,y,-z
-x,-y,-z
x,y,-z
-x,y,z
x,-y,z
1/2+x,1/2+y,z
1/2-x,1/2-y,z
1/2+x,1/2-y,-z
1/2-x,1/2+y,-z
1/2-x,1/2-y,-z
1/2+x,1/2+y,-z
1/2-x,1/2+y,z
1/2+x,1/2-y,z
loop_
_atom_site_type_symbol
_atom_site_label
_atom_site_fract_x
_atom_site_fract_y
_atom_site_fract_z
Si Si1 0.569836 0.500000 0.792941
Si Si2 0.835812 0.932297 0.795178
Si Si3 0.929798 0.783458 0.203017
Si Si4 0.070555 0.691726 0.795009
Si Si5 0.181623 0.842631 0.302462
Si Si6 0.303188 0.044145 0.298882
Si Si7 0.182457 0.366661 0.297016
O O1 0.500000 0.500000 0.728969
O O2 0.607964 0.539201 0.742276
O O3 0.568650 0.500000 0.000000
O O4 0.843298 0.887631 0.726117
O O5 0.771271 0.951007 0.727680
O O6 0.832190 0.930952 0.000000
O O7 0.918522 0.737700 0.263626
O O8 0.870738 0.811782 0.238962
O O9 0.000000 0.796260 0.264355
O O10 0.934259 0.781556 0.000000
O O11 0.123666 0.661502 0.735448
O O12 0.000000 0.680191 0.741976
O O13 0.071795 0.691888 0.000000
O O14 0.188593 0.833580 0.500000
O O15 0.252835 0.846339 0.229463
O O16 0.316861 0.043130 0.500000
O O17 0.327139 0.087484 0.230838
O O18 0.322265 0.000000 0.229020
O O19 0.191280 0.370807 0.500000
#
# Coordination Sequence:
#
# PCOD9483758 Si02
#       7
#     8  16  16  16  16  16  16
#     4   9  18  30  43  63  91 123 162 207 250 291
#     4  10  18  30  48  69  93 126 169 211 252 297
#     4   9  19  36  55  74  98 133 175 213 255 307
#     4   9  19  36  56  77 102 132 167 209 256 308
#     4  10  21  35  50  74 106 135 168 212 259 303
#     4   9  17  31  51  72 100 133 163 203 252 298
#     4   9  19  33  50  77 106 134 169 208 253 303
#
# _framework density 18.564723999999998
#
# number of rings (size 3 to 8) (size 9 to 14) (size 15 to 20)
#    0.000    2.692    0.769    2.769    0.000    5.538 
#    0.000    6.154    0.000    3.692    0.000    3.231 
#    0.000    0.000    0.000    0.000    0.000    0.000 
#
# Total GULP energy -289599.486492 kJ/mol
# GULP energy per Si atom -5569.220894 kJ/mol
# Density = 1.852247 g / cm^3
# Si number density = 18.564724 Si / 1000 Ang^3
#
#
#
# Elastic Constant Matrix: (Units=GPa)
#
#
# Indices 1 2 3 4 5 6 
#
# 1 123.1981 97.2289 -3.3207 0.0000 0.0000 0.0000
# 2 97.2289 134.6911 -3.6721 0.0000 0.0000 0.0000
# 3 -3.3207 -3.6721 13.5740 0.0000 0.0000 0.0000
# 4 0.0000 0.0000 0.0000 23.9056 0.0000 0.0000
# 5 0.0000 0.0000 0.0000 0.0000 28.3536 0.0000
# 6 0.0000 0.0000 0.0000 0.0000 0.0000 25.1369
#
#
#
# Elastic Compliance Matrix: (Units=1/GPa)
#
#
# Indices 1 2 3 4 5 6 
#
# 1 0.018876 -0.013600 0.000939 0.000000 0.000000 0.000000
# 2 -0.013600 0.017279 0.001347 0.000000 0.000000 0.000000
# 3 0.000939 0.001347 0.074264 0.000000 0.000000 0.000000
# 4 0.000000 0.000000 0.000000 0.041831 0.000000 0.000000
# 5 0.000000 0.000000 0.000000 0.000000 0.035269 0.000000
# 6 0.000000 0.000000 0.000000 0.000000 0.000000 0.039782
#
#
# Mechanical properties :
#
#
# Convention : Reuss Voigt Hill
#
# Bulk Modulus (GPa) = 11.39083 50.21505 30.80294
# Shear Modulus (GPa) = 17.90877 27.56101 22.73489
#
# Velocity S-wave (km/s) = 3.10928 3.85722 3.50327
# Velocity P-wave (km/s) = 4.36339 6.85163 5.74387
#
# Compressibility (1/GPa) = 0.08778988
#
# Stress axis : x y z
#
# Youngs Moduli (GPa) = 52.97860 57.87534 13.46540
#
# Poissons Ratio (x) = 0.78711 -0.01264
# Poissons Ratio (y) = 0.72051 -0.01814
# Poissons Ratio (z) = -0.04972 -0.07797
#
# Static dielectric constant tensor:
#      x y z
#    x 1.628360 0.000000 0.000000 
#    y 0.000000 1.652190 0.000000 
#    z 0.000000 0.000000 1.675150 
# 
# From -- ./inp_files/12736.got.cif
#   From: 2010.05.17/outbox.cif.g08.bks.cpg/sg65_7_cif.got.tgz:12736.got - 2010.06.03 17:01:31.
