data_PCOD9483723
_publ_section_title
;
Structure prediction by ZEFSAII (Michael W. Deem and Ramdas Pophale) SiO2 
 PCOD9483723
Probable space group: C M M M
;
_chemical_formula_sum "Si O2"
_cell_formula_units_Z 88
_cell_length_a 8.579617
_cell_length_b 27.999508
_cell_length_c 22.239916
_cell_angle_alpha 90.000000
_cell_angle_beta 90.000000
_cell_angle_gamma 90.000000
_cell_volume 5342.585040
_symmetry_space_group_name_H-M "C M M M"
_symmetry_group_IT_number 65
_symmetry_cell_setting 'orthorhombic'
loop_
_space_group_symop_operation_xyz
x,y,z
-x,-y,z
x,-y,-z
-x,y,-z
-x,-y,-z
x,y,-z
-x,y,z
x,-y,z
1/2+x,1/2+y,z
1/2-x,1/2-y,z
1/2+x,1/2-y,-z
1/2-x,1/2+y,-z
1/2-x,1/2-y,-z
1/2+x,1/2+y,-z
1/2-x,1/2+y,z
1/2+x,1/2-y,z
loop_
_atom_site_type_symbol
_atom_site_label
_atom_site_fract_x
_atom_site_fract_y
_atom_site_fract_z
Si Si1 0.312470 0.196008 0.000000
Si Si2 0.685410 0.647897 0.250499
Si Si3 0.311208 0.054052 0.310064
Si Si4 0.813363 0.698205 0.631703
Si Si5 0.810507 0.398145 0.433230
Si Si6 0.812445 0.695684 0.868314
O O1 0.250000 0.250000 0.000000
O O2 0.265109 0.176168 0.065294
O O3 0.500000 0.197070 0.000000
O O4 0.500000 0.650388 0.252116
O O5 0.742014 0.594812 0.267612
O O6 0.752692 0.682305 0.302735
O O7 0.746890 0.665043 0.186296
O O8 0.500000 0.057353 0.307500
O O9 0.263326 0.067616 0.378448
O O10 0.265636 0.000000 0.295452
O O11 0.750000 0.750000 0.615232
O O12 0.766091 0.655623 0.586464
O O13 0.000000 0.699491 0.633518
O O14 0.753965 0.410100 0.500000
O O15 0.000000 0.399523 0.434671
O O16 0.750000 0.750000 0.863102
O O17 0.000000 0.696881 0.864892
#
# Coordination Sequence:
#
# PCOD9483723 Si02
#       6
#     8  16  16  16  16  16
#     4   8  16  28  44  66  95 130 161 190 222 261
#     4  11  21  32  47  68  93 123 158 194 232 273
#     4   9  18  33  52  72  93 117 147 188 237 284
#     4  10  19  31  46  65  91 123 157 193 231 272
#     4   8  15  28  46  69  94 118 147 184 227 279
#     4  10  18  30  47  70 100 131 162 192 225 266
#
# _framework density 16.471426999999998
#
# number of rings (size 3 to 8) (size 9 to 14) (size 15 to 20)
#    0.000    2.545    0.000    4.364    0.000    1.818 
#    0.000    1.818    0.000   13.091    0.000    5.727 
#    0.000    5.091    0.000    0.000    0.000    0.000 
#
# Total GULP energy -245260.051216 kJ/mol
# GULP energy per Si atom -5574.092073 kJ/mol
# Density = 1.643394 g / cm^3
# Si number density = 16.471427 Si / 1000 Ang^3
#
#
#
# Elastic Constant Matrix: (Units=GPa)
#
#
# Indices 1 2 3 4 5 6 
#
# 1 44.0011 18.2734 18.3489 0.0000 0.0000 0.0000
# 2 18.2734 69.7588 25.9657 0.0000 0.0000 0.0000
# 3 18.3489 25.9657 116.8594 0.0000 0.0000 0.0000
# 4 0.0000 0.0000 0.0000 9.0720 0.0000 0.0000
# 5 0.0000 0.0000 0.0000 0.0000 9.7722 0.0000
# 6 0.0000 0.0000 0.0000 0.0000 0.0000 22.1525
#
#
#
# Elastic Compliance Matrix: (Units=1/GPa)
#
#
# Indices 1 2 3 4 5 6 
#
# 1 0.026336 -0.005843 -0.002837 0.000000 0.000000 0.000000
# 2 -0.005843 0.016924 -0.002843 0.000000 0.000000 0.000000
# 3 -0.002837 -0.002843 0.009634 0.000000 0.000000 0.000000
# 4 0.000000 0.000000 0.000000 0.110229 0.000000 0.000000
# 5 0.000000 0.000000 0.000000 0.000000 0.102331 0.000000
# 6 0.000000 0.000000 0.000000 0.000000 0.000000 0.045142
#
#
# Mechanical properties :
#
#
# Convention : Reuss Voigt Hill
#
# Bulk Modulus (GPa) = 33.50201 39.53280 36.51740
# Shear Modulus (GPa) = 14.55216 19.40144 16.97680
#
# Velocity S-wave (km/s) = 2.97556 3.43576 3.21391
# Velocity P-wave (km/s) = 5.67353 6.30810 5.99921
#
# Compressibility (1/GPa) = 0.02984896
#
# Stress axis : x y z
#
# Youngs Moduli (GPa) = 37.97053 59.08821 103.79421
#
# Poissons Ratio (x) = 0.34524 0.29446
# Poissons Ratio (y) = 0.22185 0.29509
# Poissons Ratio (z) = 0.10772 0.16799
#
# Static dielectric constant tensor:
#      x y z
#    x 1.558460 0.000000 0.000000 
#    y 0.000000 1.531520 0.000000 
#    z 0.000000 0.000000 1.573240 
# 
# From -- ./inp_files/60662.got.cif
#   From: 2010.05.17/outbox.cif.g08.bks.cpg/sg65_31_cif.got.tgz:60662.got - 2010.06.03 17:01:31.
