data_PCOD9483004
_publ_section_title
;
Structure prediction by ZEFSAII (Michael W. Deem and Ramdas Pophale) SiO2 
 PCOD9483004
Probable space group: C M M M
;
_chemical_formula_sum "Si O2"
_cell_formula_units_Z 104
_cell_length_a 24.087041
_cell_length_b 7.325049
_cell_length_c 30.187596
_cell_angle_alpha 90.000000
_cell_angle_beta 90.000000
_cell_angle_gamma 90.000000
_cell_volume 5326.261872
_symmetry_space_group_name_H-M "C M M M"
_symmetry_group_IT_number 65
_symmetry_cell_setting 'orthorhombic'
loop_
_space_group_symop_operation_xyz
x,y,z
-x,-y,z
x,-y,-z
-x,y,-z
-x,-y,-z
x,y,-z
-x,y,z
x,-y,z
1/2+x,1/2+y,z
1/2-x,1/2-y,z
1/2+x,1/2-y,-z
1/2-x,1/2+y,-z
1/2-x,1/2-y,-z
1/2+x,1/2+y,-z
1/2-x,1/2+y,z
1/2+x,1/2-y,z
loop_
_atom_site_type_symbol
_atom_site_label
_atom_site_fract_x
_atom_site_fract_y
_atom_site_fract_z
Si Si1 0.377129 0.276914 0.048252
Si Si2 0.500000 0.711883 0.067477
Si Si3 0.934979 0.776558 0.692606
Si Si4 0.566131 0.280096 0.595370
Si Si5 0.115206 0.791287 0.781679
Si Si6 0.934025 0.221577 0.500000
Si Si7 0.815297 0.217854 0.863171
Si Si8 0.000000 0.281449 0.828475
O O1 0.377378 0.500000 0.049586
O O2 0.441081 0.213974 0.051574
O O3 0.344032 0.214204 0.091631
O O4 0.354217 0.224173 0.000000
O O5 0.500000 0.500000 0.054095
O O6 0.500000 0.724965 0.120500
O O7 0.914714 0.717866 0.643806
O O8 0.897244 0.711770 0.733230
O O9 0.000000 0.723245 0.698599
O O10 0.935308 0.000000 0.693488
O O11 0.500000 0.242747 0.595222
O O12 0.572044 0.500000 0.595250
O O13 0.588579 0.214791 0.547727
O O14 0.156536 0.709058 0.818159
O O15 0.055095 0.790354 0.805117
O O16 0.133560 0.000000 0.774192
O O17 0.000000 0.264025 0.500000
O O18 0.930348 0.000000 0.500000
O O19 0.750000 0.250000 0.864011
O O20 0.825364 0.000000 0.862653
O O21 0.000000 0.500000 0.825677
#
# Coordination Sequence:
#
# PCOD9483004 Si02
#       8
#    16   8  16  16  16   8  16   8
#     4   9  17  30  52  78  95 112 142 176 207 246
#     4  10  17  32  54  74  96 118 141 169 205 256
#     4   8  12  18  34  56  76  99 137 178 205 241
#     4   7   9  12  19  38  65  98 133 164 196 235
#     4  10  18  32  50  66  85 116 150 181 216 261
#     4   7   8  10  16  28  60 102 133 156 190 240
#     4  10  21  35  51  68  88 115 149 183 216 255
#     4  12  22  29  45  73  98 117 139 176 220 260
#
# _framework density 19.52589
#
# number of rings (size 3 to 8) (size 9 to 14) (size 15 to 20)
#    0.000    3.000    2.308    2.769    0.000    1.846 
#    0.000    0.000    0.000    1.846    0.000    0.000 
#    0.000    0.000    0.000    2.077    0.000    5.000 
#
# Total GULP energy -289752.724911 kJ/mol
# GULP energy per Si atom -5572.167787 kJ/mol
# Density = 1.948145 g / cm^3
# Si number density = 19.525890 Si / 1000 Ang^3
#
#
#
# Elastic Constant Matrix: (Units=GPa)
#
#
# Indices 1 2 3 4 5 6 
#
# 1 78.3661 -2.2756 63.1880 0.0000 0.0000 0.0000
# 2 -2.2756 80.1603 6.9201 0.0000 0.0000 0.0000
# 3 63.1880 6.9201 252.8197 0.0000 0.0000 0.0000
# 4 0.0000 0.0000 0.0000 -23.3210 0.0000 0.0000
# 5 0.0000 0.0000 0.0000 0.0000 6.8376 0.0000
# 6 0.0000 0.0000 0.0000 0.0000 0.0000 5.1137
#
#
#
# Elastic Compliance Matrix: (Units=1/GPa)
#
#
# Indices 1 2 3 4 5 6 
#
# 1 0.016033 0.000803 -0.004029 0.000000 0.000000 0.000000
# 2 0.000803 0.012545 -0.000544 0.000000 0.000000 0.000000
# 3 -0.004029 -0.000544 0.004977 0.000000 0.000000 0.000000
# 4 0.000000 0.000000 0.000000 -0.042880 0.000000 0.000000
# 5 0.000000 0.000000 0.000000 0.000000 0.146249 0.000000
# 6 0.000000 0.000000 0.000000 0.000000 0.000000 0.195552
#
#
# Mechanical properties :
#
#
# Convention : Reuss Voigt Hill
#
# Bulk Modulus (GPa) = 38.44031 60.77901 49.60966
# Shear Modulus (GPa) = 14.33948 20.62699 17.48324
#
# Velocity S-wave (km/s) = 2.71289 3.25374 2.99555
# Velocity P-wave (km/s) = 5.43531 6.73133 6.11774
#
# Compressibility (1/GPa) = 0.02601436
#
# Stress axis : x y z
#
# Youngs Moduli (GPa) = 62.37273 79.71455 200.91306
#
# Poissons Ratio (x) = -0.06401 0.80949
# Poissons Ratio (y) = -0.05008 0.10931
# Poissons Ratio (z) = 0.25130 0.04337
#
# Static dielectric constant tensor:
#      x y z
#    x 1.619550 0.000000 0.000000 
#    y 0.000000 1.756510 0.000000 
#    z 0.000000 0.000000 1.760950 
# 
# From -- ./inp_files/78409.got.cif
#   From: 2010.05.17/outbox.cif.g08.bks.cpg/sg65_40_cif.got.tgz:78409.got - 2010.06.03 17:01:31.
