data_PCOD9483641
_publ_section_title
;
Structure prediction by ZEFSAII (Michael W. Deem and Ramdas Pophale) SiO2 
 PCOD9483641
Probable space group: C M M M
;
_chemical_formula_sum "Si O2"
_cell_formula_units_Z 82
_cell_length_a 23.830242
_cell_length_b 7.589205
_cell_length_c 22.311023
_cell_angle_alpha 90.000000
_cell_angle_beta 90.000000
_cell_angle_gamma 90.000000
_cell_volume 4035.006334
_symmetry_space_group_name_H-M "C M M M"
_symmetry_group_IT_number 65
_symmetry_cell_setting 'orthorhombic'
loop_
_space_group_symop_operation_xyz
x,y,z
-x,-y,z
x,-y,-z
-x,y,-z
-x,-y,-z
x,y,-z
-x,y,z
x,-y,z
1/2+x,1/2+y,z
1/2-x,1/2-y,z
1/2+x,1/2-y,-z
1/2-x,1/2+y,-z
1/2-x,1/2-y,-z
1/2+x,1/2+y,-z
1/2-x,1/2+y,z
1/2+x,1/2-y,z
loop_
_atom_site_type_symbol
_atom_site_label
_atom_site_fract_x
_atom_site_fract_y
_atom_site_fract_z
Si Si1 0.185130 0.711744 0.500000
Si Si2 0.500000 0.708491 0.628595
Si Si3 0.882056 0.500000 0.933908
Si Si4 0.377632 0.215270 0.247791
Si Si5 0.000000 0.500000 0.000000
Si Si6 0.000000 0.300817 0.234274
Si Si7 0.185123 0.200545 0.133478
Si Si8 0.621817 0.208550 0.615097
O O1 0.175350 0.500000 0.500000
O O2 0.250000 0.750000 0.500000
O O3 0.158968 0.782532 0.561679
O O4 0.500000 0.500000 0.639604
O O5 0.500000 0.804176 0.693019
O O6 0.442769 0.761511 0.597341
O O7 0.858113 0.331563 0.899054
O O8 0.948749 0.500000 0.948247
O O9 0.855054 0.500000 0.000000
O O10 0.438528 0.277278 0.221941
O O11 0.329275 0.278847 0.203891
O O12 0.371201 0.276264 0.316680
O O13 0.379105 0.000000 0.247491
O O14 0.000000 0.500000 0.210425
O O15 0.250000 0.250000 0.122534
O O16 0.176015 0.000000 0.114660
O O17 0.632514 0.000000 0.619561
#
# Coordination Sequence:
#
# PCOD9483641 Si02
#       8
#     8   8   8  16   2   8  16  16
#     4  10  22  39  56  77 105 148 208 256 315 396
#     4  10  18  29  50  79 111 136 192 253 304 373
#     4  10  24  50  74 102 140 177 218 269 322 383
#     4   9  17  34  58  88 126 167 211 266 326 385
#     4   8  24  52  78 104 140 186 212 268 334 384
#     4   8  16  31  54  82 116 165 200 241 316 385
#     4  12  24  42  67 103 139 178 231 276 323 391
#     4   9  19  36  57  79 113 160 204 255 322 387
#
# _framework density 20.322149
#
# number of rings (size 3 to 8) (size 9 to 14) (size 15 to 20)
#    0.293    1.951    1.951    2.049    0.000    6.634 
#    0.000    5.854    0.000    0.000    0.000    0.000 
#    0.000    0.000    0.000    0.000    0.000    0.000 
#
# Total GULP energy -228300.297541 kJ/mol
# GULP energy per Si atom -5568.299940 kJ/mol
# Density = 2.027589 g / cm^3
# Si number density = 20.322149 Si / 1000 Ang^3
#
#
#
# Elastic Constant Matrix: (Units=GPa)
#
#
# Indices 1 2 3 4 5 6 
#
# 1 134.5856 20.7933 55.4989 0.0000 0.0000 0.0000
# 2 20.7933 93.5444 26.0361 0.0000 0.0000 0.0000
# 3 55.4989 26.0361 97.8144 0.0000 0.0000 0.0000
# 4 0.0000 0.0000 0.0000 -4.4463 0.0000 0.0000
# 5 0.0000 0.0000 0.0000 0.0000 -40.3176 0.0000
# 6 0.0000 0.0000 0.0000 0.0000 0.0000 11.3761
#
#
#
# Elastic Compliance Matrix: (Units=1/GPa)
#
#
# Indices 1 2 3 4 5 6 
#
# 1 0.009739 -0.000677 -0.005346 0.000000 0.000000 0.000000
# 2 -0.000677 0.011593 -0.002702 0.000000 0.000000 0.000000
# 3 -0.005346 -0.002702 0.013976 0.000000 0.000000 0.000000
# 4 0.000000 0.000000 0.000000 -0.224905 0.000000 0.000000
# 5 0.000000 0.000000 0.000000 0.000000 -0.024803 0.000000
# 6 0.000000 0.000000 0.000000 0.000000 0.000000 0.087903
#
#
# Mechanical properties :
#
#
# Convention : Reuss Voigt Hill
#
# Bulk Modulus (GPa) = 55.99473 58.95567 57.47520
# Shear Modulus (GPa) = -48.49873 8.23017 -20.13428
#
# Velocity S-wave (km/s) = -4.89048 2.01461 -3.15104
# Velocity P-wave (km/s) = 2.06777 5.87240 3.88648
#
# Compressibility (1/GPa) = 0.01785882
#
# Stress axis : x y z
#
# Youngs Moduli (GPa) = 102.67760 86.26253 71.55299
#
# Poissons Ratio (x) = 0.05840 0.38250
# Poissons Ratio (y) = 0.06951 0.19330
# Poissons Ratio (z) = 0.54889 0.23304
#
# Static dielectric constant tensor:
#      x y z
#    x 1.728260 0.000000 0.000000 
#    y 0.000000 1.890450 0.000000 
#    z 0.000000 0.000000 1.733450 
# 
# From -- ./inp_files/71403.got.cif
#   From: 2010.05.17/outbox.cif.g08.bks.cpg/sg65_36_cif.got.tgz:71403.got - 2010.06.03 17:01:31.
