data_PCOD9483812
_publ_section_title
;
Structure prediction by ZEFSAII (Michael W. Deem and Ramdas Pophale) SiO2 
 PCOD9483812
Probable space group: C M M M
;
_chemical_formula_sum "Si O2"
_cell_formula_units_Z 80
_cell_length_a 8.678899
_cell_length_b 19.315397
_cell_length_c 26.986943
_cell_angle_alpha 90.000000
_cell_angle_beta 90.000000
_cell_angle_gamma 90.000000
_cell_volume 4523.993424
_symmetry_space_group_name_H-M "C M M M"
_symmetry_group_IT_number 65
_symmetry_cell_setting 'orthorhombic'
loop_
_space_group_symop_operation_xyz
x,y,z
-x,-y,z
x,-y,-z
-x,y,-z
-x,-y,-z
x,y,-z
-x,y,z
x,-y,z
1/2+x,1/2+y,z
1/2-x,1/2-y,z
1/2+x,1/2-y,-z
1/2-x,1/2+y,-z
1/2-x,1/2-y,-z
1/2+x,1/2+y,-z
1/2-x,1/2+y,z
1/2+x,1/2-y,z
loop_
_atom_site_type_symbol
_atom_site_label
_atom_site_fract_x
_atom_site_fract_y
_atom_site_fract_z
Si Si1 0.184192 0.919331 0.303095
Si Si2 0.814894 0.328025 0.391643
Si Si3 0.685465 0.919642 0.197151
Si Si4 0.685433 0.827867 0.500000
Si Si5 0.184231 0.828536 0.000000
Si Si6 0.814605 0.672177 0.102797
O O1 0.252570 0.874201 0.347227
O O2 0.242984 0.895873 0.249125
O O3 0.000000 0.915593 0.304305
O O4 0.231039 0.000000 0.308600
O O5 0.750000 0.250000 0.387710
O O6 0.768402 0.357283 0.446301
O O7 0.000000 0.325240 0.389410
O O8 0.500000 0.917069 0.201476
O O9 0.729833 0.873218 0.150314
O O10 0.730307 0.000000 0.189423
O O11 0.500000 0.825383 0.500000
O O12 0.750000 0.750000 0.500000
O O13 0.250000 0.750000 0.000000
O O14 0.247573 0.858468 0.051514
O O15 0.000000 0.827193 0.000000
O O16 0.750000 0.750000 0.108474
O O17 0.000000 0.675062 0.099124
#
# Coordination Sequence:
#
# PCOD9483812 Si02
#       6
#    16  16  16   8   8  16
#     4  10  21  36  53  74 102 136 172 210 254 303
#     4  10  19  33  54  78 104 133 168 210 253 301
#     4   9  19  36  55  73  96 131 171 208 250 298
#     4   8  16  30  49  74 101 131 165 203 251 300
#     4  10  18  30  49  72 101 133 163 197 241 292
#     4  10  19  32  52  76 101 128 162 204 246 292
#
# _framework density 17.683491
#
# number of rings (size 3 to 8) (size 9 to 14) (size 15 to 20)
#    0.000    2.400    0.000    3.900    0.000    4.400 
#    0.000    3.000    0.000    6.000    0.000    0.000 
#    0.000    0.000    0.000    0.000    0.000    0.000 
#
# Total GULP energy -223006.134230 kJ/mol
# GULP energy per Si atom -5575.153356 kJ/mol
# Density = 1.764324 g / cm^3
# Si number density = 17.683491 Si / 1000 Ang^3
#
#
#
# Elastic Constant Matrix: (Units=GPa)
#
#
# Indices 1 2 3 4 5 6 
#
# 1 51.8881 25.5904 61.2092 0.0000 0.0000 0.0000
# 2 25.5904 48.1655 79.5863 0.0000 0.0000 0.0000
# 3 61.2092 79.5863 231.3019 0.0000 0.0000 0.0000
# 4 0.0000 0.0000 0.0000 -62.4820 0.0000 0.0000
# 5 0.0000 0.0000 0.0000 0.0000 24.5699 0.0000
# 6 0.0000 0.0000 0.0000 0.0000 0.0000 21.9195
#
#
#
# Elastic Compliance Matrix: (Units=1/GPa)
#
#
# Indices 1 2 3 4 5 6 
#
# 1 0.028816 -0.006281 -0.005464 0.000000 0.000000 0.000000
# 2 -0.006281 0.049489 -0.015366 0.000000 0.000000 0.000000
# 3 -0.005464 -0.015366 0.011057 0.000000 0.000000 0.000000
# 4 0.000000 0.000000 0.000000 -0.016005 0.000000 0.000000
# 5 0.000000 0.000000 0.000000 0.000000 0.040700 0.000000
# 6 0.000000 0.000000 0.000000 0.000000 0.000000 0.045621
#
#
# Mechanical properties :
#
#
# Convention : Reuss Voigt Hill
#
# Bulk Modulus (GPa) = 28.45854 73.79192 51.12523
# Shear Modulus (GPa) = 22.16177 7.79945 14.98061
#
# Velocity S-wave (km/s) = 3.54396 2.10242 2.91375
# Velocity P-wave (km/s) = 5.73362 6.90749 6.34775
#
# Compressibility (1/GPa) = 0.03513884
#
# Stress axis : x y z
#
# Youngs Moduli (GPa) = 34.70309 20.20656 90.44405
#
# Poissons Ratio (x) = 0.12691 0.49423
# Poissons Ratio (y) = 0.21796 1.38977
# Poissons Ratio (z) = 0.18963 0.31050
#
# Static dielectric constant tensor:
#      x y z
#    x 1.604510 0.000000 0.000000 
#    y 0.000000 1.578000 0.000000 
#    z 0.000000 0.000000 1.631630 
# 
# From -- ./inp_files/72970.got.cif
#   From: 2010.05.17/outbox.cif.g08.bks.cpg/sg65_37_cif.got.tgz:72970.got - 2010.06.03 17:01:31.
