data_PCOD9483458
_publ_section_title
;
Structure prediction by ZEFSAII (Michael W. Deem and Ramdas Pophale) SiO2 
 PCOD9483458
Probable space group: C M M M
;
_chemical_formula_sum "Si O2"
_cell_formula_units_Z 72
_cell_length_a 24.231956
_cell_length_b 7.342764
_cell_length_c 18.441409
_cell_angle_alpha 90.000000
_cell_angle_beta 90.000000
_cell_angle_gamma 90.000000
_cell_volume 3281.271313
_symmetry_space_group_name_H-M "C M M M"
_symmetry_group_IT_number 65
_symmetry_cell_setting 'orthorhombic'
loop_
_space_group_symop_operation_xyz
x,y,z
-x,-y,z
x,-y,-z
-x,y,-z
-x,-y,-z
x,y,-z
-x,y,z
x,-y,z
1/2+x,1/2+y,z
1/2-x,1/2-y,z
1/2+x,1/2-y,-z
1/2-x,1/2+y,-z
1/2-x,1/2-y,-z
1/2+x,1/2+y,-z
1/2-x,1/2+y,z
1/2+x,1/2-y,z
loop_
_atom_site_type_symbol
_atom_site_label
_atom_site_fract_x
_atom_site_fract_y
_atom_site_fract_z
Si Si1 0.814878 0.716680 0.500000
Si Si2 0.878667 0.723147 0.082877
Si Si3 0.618522 0.222872 0.359343
Si Si4 0.185751 0.282966 0.220532
Si Si5 0.500000 0.792344 0.088124
Si Si6 0.500000 0.221773 0.415332
O O1 0.823312 0.500000 0.500000
O O2 0.750000 0.750000 0.500000
O O3 0.844365 0.783683 0.572667
O O4 0.880415 0.500000 0.081318
O O5 0.834378 0.783131 0.141950
O O6 0.940174 0.785193 0.106779
O O7 0.868074 0.780388 0.000000
O O8 0.646750 0.285317 0.285129
O O9 0.555820 0.278858 0.375047
O O10 0.618754 0.000000 0.358245
O O11 0.178545 0.500000 0.219061
O O12 0.250000 0.250000 0.234597
O O13 0.500000 0.000000 0.115924
O O14 0.500000 0.798020 0.000000
O O15 0.500000 0.278321 0.500000
O O16 0.500000 0.000000 0.416503
#
# Coordination Sequence:
#
# PCOD9483458 Si02
#       6
#     8  16  16  16   8   8
#     4  10  18  29  45  65  89 118 149 176 210 260
#     4   8  14  25  42  64  90 119 149 185 230 273
#     4   9  17  28  44  67  92 116 144 182 228 269
#     4  10  20  32  45  65  93 121 153 190 222 263
#     4   7  10  19  37  61  87 110 134 174 228 272
#     4   9  14  25  45  69  95 117 139 182 237 275
#
# _framework density 21.942713999999999
#
# number of rings (size 3 to 8) (size 9 to 14) (size 15 to 20)
#    0.000    3.111    1.111    2.000    0.000    1.333 
#    0.000    4.444    0.000    0.000    0.000    6.222 
#    0.000    2.667    0.000    0.000    0.000    0.000 
#
# Total GULP energy -200913.665202 kJ/mol
# GULP energy per Si atom -5580.935144 kJ/mol
# Density = 2.189277 g / cm^3
# Si number density = 21.942714 Si / 1000 Ang^3
#
#
#
# Elastic Constant Matrix: (Units=GPa)
#
#
# Indices 1 2 3 4 5 6 
#
# 1 202.4555 -3.1185 112.1610 0.0000 0.0000 0.0000
# 2 -3.1185 81.9702 7.9992 0.0000 0.0000 0.0000
# 3 112.1610 7.9992 166.6860 0.0000 0.0000 0.0000
# 4 0.0000 0.0000 0.0000 85.2720 0.0000 0.0000
# 5 0.0000 0.0000 0.0000 0.0000 43.1546 0.0000
# 6 0.0000 0.0000 0.0000 0.0000 0.0000 5.9229
#
#
#
# Elastic Compliance Matrix: (Units=1/GPa)
#
#
# Indices 1 2 3 4 5 6 
#
# 1 0.007930 0.000826 -0.005376 0.000000 0.000000 0.000000
# 2 0.000826 0.012343 -0.001148 0.000000 0.000000 0.000000
# 3 -0.005376 -0.001148 0.009672 0.000000 0.000000 0.000000
# 4 0.000000 0.000000 0.000000 0.011727 0.000000 0.000000
# 5 0.000000 0.000000 0.000000 0.000000 0.023172 0.000000
# 6 0.000000 0.000000 0.000000 0.000000 0.000000 0.168836
#
#
# Mechanical properties :
#
#
# Convention : Reuss Voigt Hill
#
# Bulk Modulus (GPa) = 53.91028 76.13277 65.02153
# Shear Modulus (GPa) = 19.89971 49.14124 34.52048
#
# Velocity S-wave (km/s) = 3.01474 4.73750 3.97067
# Velocity P-wave (km/s) = 6.06137 8.04342 7.12168
#
# Compressibility (1/GPa) = 0.01854934
#
# Stress axis : x y z
#
# Youngs Moduli (GPa) = 126.09795 81.01717 103.39353
#
# Poissons Ratio (x) = -0.06695 0.55583
# Poissons Ratio (y) = -0.10420 0.11873
# Poissons Ratio (z) = 0.67789 0.09304
#
# Static dielectric constant tensor:
#      x y z
#    x 1.738920 0.000000 0.000000 
#    y 0.000000 1.894980 0.000000 
#    z 0.000000 0.000000 1.769300 
# 
# From -- ./inp_files/64458.got.cif
#   From: 2010.05.17/outbox.cif.g08.bks.cpg/sg65_33_cif.got.tgz:64458.got - 2010.06.03 17:01:31.
