data_PCOD9483326
_publ_section_title
;
Structure prediction by ZEFSAII (Michael W. Deem and Ramdas Pophale) SiO2 
 PCOD9483326
Probable space group: C M M M
;
_chemical_formula_sum "Si O2"
_cell_formula_units_Z 64
_cell_length_a 7.654156
_cell_length_b 27.451259
_cell_length_c 18.764067
_cell_angle_alpha 90.000000
_cell_angle_beta 90.000000
_cell_angle_gamma 90.000000
_cell_volume 3942.634807
_symmetry_space_group_name_H-M "C M M M"
_symmetry_group_IT_number 65
_symmetry_cell_setting 'orthorhombic'
loop_
_space_group_symop_operation_xyz
x,y,z
-x,-y,z
x,-y,-z
-x,y,-z
-x,-y,-z
x,y,-z
-x,y,z
x,-y,z
1/2+x,1/2+y,z
1/2-x,1/2-y,z
1/2+x,1/2-y,-z
1/2-x,1/2+y,-z
1/2-x,1/2-y,-z
1/2+x,1/2+y,-z
1/2-x,1/2+y,z
1/2+x,1/2-y,z
loop_
_atom_site_type_symbol
_atom_site_label
_atom_site_fract_x
_atom_site_fract_y
_atom_site_fract_z
Si Si1 0.296609 0.371475 0.868561
Si Si2 0.709452 0.192332 0.733472
Si Si3 0.500000 0.942100 0.085878
Si Si4 0.791988 0.193669 0.000000
Si Si5 0.290271 0.807616 0.576432
O O1 0.500000 0.384196 0.881111
O O2 0.282490 0.342326 0.794646
O O3 0.169180 0.417183 0.878101
O O4 0.231849 0.333777 0.929354
O O5 0.500000 0.188113 0.735150
O O6 0.750000 0.250000 0.744326
O O7 0.773718 0.176588 0.654388
O O8 0.500000 0.000000 0.095478
O O9 0.500000 0.932615 0.000000
O O10 0.750000 0.250000 0.000000
O O11 0.000000 0.189855 0.000000
O O12 0.224504 0.827559 0.500000
O O13 0.500000 0.813650 0.576639
O O14 0.250000 0.750000 0.575358
#
# Coordination Sequence:
#
# PCOD9483326 Si02
#       5
#    16  16   8   8  16
#     4  11  22  37  53  77 107 132 170 215 257 309
#     4  10  18  28  45  71 105 145 180 212 255 306
#     4  11  24  42  64  80  97 131 173 221 272 312
#     4  10  22  32  48  73 101 140 170 198 243 296
#     4   8  14  24  38  59  92 135 179 215 245 286
#
# _framework density 16.232797999999999
#
# number of rings (size 3 to 8) (size 9 to 14) (size 15 to 20)
#    0.000    2.125    2.500    1.500    1.750    3.500 
#    0.000    1.250    0.000    0.000    0.000    0.000 
#    0.000    2.000    0.000    2.250    0.000    0.000 
#
# Total GULP energy -178269.687337 kJ/mol
# GULP energy per Si atom -5570.927729 kJ/mol
# Density = 1.619585 g / cm^3
# Si number density = 16.232798 Si / 1000 Ang^3
#
#
#
# Elastic Constant Matrix: (Units=GPa)
#
#
# Indices 1 2 3 4 5 6 
#
# 1 76.9703 32.8888 23.1551 0.0000 0.0000 0.0000
# 2 32.8888 82.2806 50.3154 0.0000 0.0000 0.0000
# 3 23.1551 50.3154 154.2768 0.0000 0.0000 0.0000
# 4 0.0000 0.0000 0.0000 4.9056 0.0000 0.0000
# 5 0.0000 0.0000 0.0000 0.0000 27.5076 0.0000
# 6 0.0000 0.0000 0.0000 0.0000 0.0000 18.7101
#
#
#
# Elastic Compliance Matrix: (Units=1/GPa)
#
#
# Indices 1 2 3 4 5 6 
#
# 1 0.015686 -0.006034 -0.000387 0.000000 0.000000 0.000000
# 2 -0.006034 0.017502 -0.004802 0.000000 0.000000 0.000000
# 3 -0.000387 -0.004802 0.008106 0.000000 0.000000 0.000000
# 4 0.000000 0.000000 0.000000 0.203849 0.000000 0.000000
# 5 0.000000 0.000000 0.000000 0.000000 0.036354 0.000000
# 6 0.000000 0.000000 0.000000 0.000000 0.000000 0.053447
#
#
# Mechanical properties :
#
#
# Convention : Reuss Voigt Hill
#
# Bulk Modulus (GPa) = 53.05273 58.47180 55.76227
# Shear Modulus (GPa) = 13.74862 24.03589 18.89226
#
# Velocity S-wave (km/s) = 2.91342 3.85216 3.41520
# Velocity P-wave (km/s) = 6.63858 7.47559 7.06949
#
# Compressibility (1/GPa) = 0.01884917
#
# Stress axis : x y z
#
# Youngs Moduli (GPa) = 63.74913 57.13604 123.36328
#
# Poissons Ratio (x) = 0.34475 0.04768
# Poissons Ratio (y) = 0.38465 0.59245
# Poissons Ratio (z) = 0.02464 0.27440
#
# Static dielectric constant tensor:
#      x y z
#    x 1.578330 0.000000 0.000000 
#    y 0.000000 1.503960 0.000000 
#    z 0.000000 0.000000 1.615250 
# 
# From -- ./inp_files/49409.got.cif
#   From: 2010.05.17/outbox.cif.g08.bks.cpg/sg65_25_cif.got.tgz:49409.got - 2010.06.03 17:01:31.
