data_PCOD9483803
_publ_section_title
;
Structure prediction by ZEFSAII (Michael W. Deem and Ramdas Pophale) SiO2 
 PCOD9483803
Probable space group: C M M M
;
_chemical_formula_sum "Si O2"
_cell_formula_units_Z 116
_cell_length_a 29.084989
_cell_length_b 7.448126
_cell_length_c 28.864573
_cell_angle_alpha 90.000000
_cell_angle_beta 90.000000
_cell_angle_gamma 90.000000
_cell_volume 6252.893851
_symmetry_space_group_name_H-M "C M M M"
_symmetry_group_IT_number 65
_symmetry_cell_setting 'orthorhombic'
loop_
_space_group_symop_operation_xyz
x,y,z
-x,-y,z
x,-y,-z
-x,y,-z
-x,-y,-z
x,y,-z
-x,y,z
x,-y,z
1/2+x,1/2+y,z
1/2-x,1/2-y,z
1/2+x,1/2-y,-z
1/2-x,1/2+y,-z
1/2-x,1/2-y,-z
1/2+x,1/2+y,-z
1/2-x,1/2+y,z
1/2+x,1/2-y,z
loop_
_atom_site_type_symbol
_atom_site_label
_atom_site_fract_x
_atom_site_fract_y
_atom_site_fract_z
Si Si1 0.948742 0.716332 0.704279
Si Si2 0.196567 0.284531 0.052048
Si Si3 0.671166 0.000000 0.500000
Si Si4 0.304073 0.713457 0.229500
Si Si5 0.140293 0.291597 0.138365
Si Si6 0.804774 0.783932 0.420300
Si Si7 0.650873 0.709843 0.676165
Si Si8 0.948581 0.719243 0.811180
O O1 0.949395 0.500000 0.704292
O O2 0.904218 0.772155 0.675649
O O3 0.941669 0.775331 0.757694
O O4 0.000000 0.776346 0.689565
O O5 0.191491 0.500000 0.050752
O O6 0.250000 0.250000 0.062907
O O7 0.164423 0.213031 0.092983
O O8 0.187249 0.216281 0.000000
O O9 0.673969 0.841311 0.459704
O O10 0.311304 0.500000 0.227153
O O11 0.250000 0.750000 0.232846
O O12 0.325441 0.787001 0.182167
O O13 0.329633 0.786344 0.275457
O O14 0.130939 0.500000 0.127643
O O15 0.092268 0.213721 0.156562
O O16 0.750000 0.750000 0.421128
O O17 0.825155 0.725386 0.370523
O O18 0.812474 0.000000 0.426994
O O19 0.662514 0.500000 0.677841
O O20 0.947129 0.500000 0.810589
O O21 0.000000 0.771613 0.825357
#
# Coordination Sequence:
#
# PCOD9483803 Si02
#       8
#    16  16   4  16  16  16  16  16
#     4   9  17  30  52  77 103 137 176 213 251 309
#     4   9  18  31  46  65  91 122 165 216 260 304
#     4  12  24  40  62  86 109 156 187 236 280 304
#     4  11  22  34  47  68 103 139 170 203 248 312
#     4  10  18  30  49  71  92 130 169 207 256 303
#     4  11  23  38  58  85 114 147 189 231 272 323
#     4  10  22  36  50  77 111 141 173 212 263 317
#     4   8  14  26  45  71  97 126 165 206 249 303
#
# _framework density 18.551409
#
# number of rings (size 3 to 8) (size 9 to 14) (size 15 to 20)
#    0.000    2.207    2.069    2.483    0.966    2.483 
#    0.000    0.000    0.000    0.828    0.000    3.862 
#    0.000    2.207    0.000    4.690    0.000    4.966 
#
# Total GULP energy -323041.117230 kJ/mol
# GULP energy per Si atom -5569.674435 kJ/mol
# Density = 1.850918 g / cm^3
# Si number density = 18.551409 Si / 1000 Ang^3
#
#
#
# Elastic Constant Matrix: (Units=GPa)
#
#
# Indices 1 2 3 4 5 6 
#
# 1 50.0069 -2.8546 14.2701 0.0000 0.0000 0.0000
# 2 -2.8546 76.6704 14.7830 0.0000 0.0000 0.0000
# 3 14.2701 14.7830 80.6285 0.0000 0.0000 0.0000
# 4 0.0000 0.0000 0.0000 8.7727 0.0000 0.0000
# 5 0.0000 0.0000 0.0000 0.0000 -38.5784 0.0000
# 6 0.0000 0.0000 0.0000 0.0000 0.0000 7.6614
#
#
#
# Elastic Compliance Matrix: (Units=1/GPa)
#
#
# Indices 1 2 3 4 5 6 
#
# 1 0.021242 0.001571 -0.004048 0.000000 0.000000 0.000000
# 2 0.001571 0.013637 -0.002778 0.000000 0.000000 0.000000
# 3 -0.004048 -0.002778 0.013628 0.000000 0.000000 0.000000
# 4 0.000000 0.000000 0.000000 0.113990 0.000000 0.000000
# 5 0.000000 0.000000 0.000000 0.000000 -0.025921 0.000000
# 6 0.000000 0.000000 0.000000 0.000000 0.000000 0.130524
#
#
# Mechanical properties :
#
#
# Convention : Reuss Voigt Hill
#
# Bulk Modulus (GPa) = 26.31721 28.85585 27.58653
# Shear Modulus (GPa) = 17.22498 7.64495 12.43496
#
# Velocity S-wave (km/s) = 3.05044 2.03222 2.59182
# Velocity P-wave (km/s) = 5.15982 4.59291 4.88460
#
# Compressibility (1/GPa) = 0.03799795
#
# Stress axis : x y z
#
# Youngs Moduli (GPa) = 47.07657 73.32963 73.37644
#
# Poissons Ratio (x) = -0.11522 0.29700
# Poissons Ratio (y) = -0.07397 0.20387
# Poissons Ratio (z) = 0.19055 0.20374
#
# Static dielectric constant tensor:
#      x y z
#    x 1.638610 0.000000 0.000000 
#    y 0.000000 1.725900 0.000000 
#    z 0.000000 0.000000 1.637310 
# 
# From -- ./inp_files/76311.got.cif
#   From: 2010.05.17/outbox.cif.g08.bks.cpg/sg65_39_cif.got.tgz:76311.got - 2010.06.03 17:01:31.
