data_PCOD9483707
_publ_section_title
;
Structure prediction by ZEFSAII (Michael W. Deem and Ramdas Pophale) SiO2 
 PCOD9483707
Probable space group: C M M M
;
_chemical_formula_sum "Si O2"
_cell_formula_units_Z 72
_cell_length_a 28.522147
_cell_length_b 19.841029
_cell_length_c 8.592834
_cell_angle_alpha 90.000000
_cell_angle_beta 90.000000
_cell_angle_gamma 90.000000
_cell_volume 4862.759912
_symmetry_space_group_name_H-M "C M M M"
_symmetry_group_IT_number 65
_symmetry_cell_setting 'orthorhombic'
loop_
_space_group_symop_operation_xyz
x,y,z
-x,-y,z
x,-y,-z
-x,y,-z
-x,-y,-z
x,y,-z
-x,y,z
x,-y,z
1/2+x,1/2+y,z
1/2-x,1/2-y,z
1/2+x,1/2-y,-z
1/2-x,1/2+y,-z
1/2-x,1/2-y,-z
1/2+x,1/2+y,-z
1/2-x,1/2+y,z
1/2+x,1/2-y,z
loop_
_atom_site_type_symbol
_atom_site_label
_atom_site_fract_x
_atom_site_fract_y
_atom_site_fract_z
Si Si1 0.179928 0.221357 0.313056
Si Si2 0.727638 0.148939 0.812362
Si Si3 0.000000 0.078891 0.186003
Si Si4 0.236960 0.500000 0.187706
Si Si5 0.402552 0.371767 0.685971
Si Si6 0.152600 0.000000 0.813435
O O1 0.184083 0.219921 0.500000
O O2 0.220936 0.173429 0.244259
O O3 0.191721 0.295732 0.252047
O O4 0.128900 0.192866 0.268777
O O5 0.718025 0.072413 0.758179
O O6 0.727681 0.150951 0.000000
O O7 0.953647 0.117202 0.242801
O O8 0.000000 0.000000 0.241578
O O9 0.000000 0.076444 0.000000
O O10 0.292401 0.500000 0.221492
O O11 0.232034 0.500000 0.000000
O O12 0.406726 0.372413 0.500000
O O13 0.372003 0.435115 0.741959
O O14 0.146458 0.000000 0.000000
#
# Coordination Sequence:
#
# PCOD9483707 Si02
#       6
#    16  16   8   8  16   8
#     4  10  20  32  44  65  92 119 153 190 227 272
#     4  10  18  30  47  66  89 121 155 189 228 268
#     4  11  23  35  49  69  90 117 156 199 232 266
#     4   9  18  29  44  68  93 118 156 196 226 265
#     4  11  22  34  48  65  91 123 156 193 235 275
#     4  11  19  30  46  65  91 121 159 197 228 267
#
# _framework density 14.806407
#
# number of rings (size 3 to 8) (size 9 to 14) (size 15 to 20)
#    0.000    1.667    3.333    4.000    0.000    3.111 
#    0.000    2.222    0.000    0.000    0.000    0.000 
#    0.000    0.889    0.000   10.000    0.000    4.444 
#
# Total GULP energy -200807.386115 kJ/mol
# GULP energy per Si atom -5577.982948 kJ/mol
# Density = 1.477271 g / cm^3
# Si number density = 14.806407 Si / 1000 Ang^3
#
#
#
# Elastic Constant Matrix: (Units=GPa)
#
#
# Indices 1 2 3 4 5 6 
#
# 1 90.7672 67.2067 32.3062 0.0000 0.0000 0.0000
# 2 67.2067 129.8630 26.3927 0.0000 0.0000 0.0000
# 3 32.3062 26.3927 44.6750 0.0000 0.0000 0.0000
# 4 0.0000 0.0000 0.0000 10.6582 0.0000 0.0000
# 5 0.0000 0.0000 0.0000 0.0000 19.1638 0.0000
# 6 0.0000 0.0000 0.0000 0.0000 0.0000 21.9531
#
#
#
# Elastic Compliance Matrix: (Units=1/GPa)
#
#
# Indices 1 2 3 4 5 6 
#
# 1 0.021213 -0.008933 -0.010063 0.000000 0.000000 0.000000
# 2 -0.008933 0.012513 -0.000932 0.000000 0.000000 0.000000
# 3 -0.010063 -0.000932 0.030211 0.000000 0.000000 0.000000
# 4 0.000000 0.000000 0.000000 0.093825 0.000000 0.000000
# 5 0.000000 0.000000 0.000000 0.000000 0.052182 0.000000
# 6 0.000000 0.000000 0.000000 0.000000 0.000000 0.045552
#
#
# Mechanical properties :
#
#
# Convention : Reuss Voigt Hill
#
# Bulk Modulus (GPa) = 41.52615 57.45737 49.49176
# Shear Modulus (GPa) = 16.48105 19.64832 18.06468
#
# Velocity S-wave (km/s) = 3.33994 3.64677 3.49672
# Velocity P-wave (km/s) = 6.55595 7.52475 7.05700
#
# Compressibility (1/GPa) = 0.02408121
#
# Stress axis : x y z
#
# Youngs Moduli (GPa) = 47.14084 79.91694 33.10014
#
# Poissons Ratio (x) = 0.71391 0.33307
# Poissons Ratio (y) = 0.42111 0.03086
# Poissons Ratio (z) = 0.47436 0.07452
#
# Static dielectric constant tensor:
#      x y z
#    x 1.474920 0.000000 0.000000 
#    y 0.000000 1.508330 0.000000 
#    z 0.000000 0.000000 1.500090 
# 
# From -- ./inp_files/16224.got.cif
#   From: 2010.05.17/outbox.cif.g08.bks.cpg/sg65_9_cif.got.tgz:16224.got - 2010.06.03 17:01:31.
