data_PCOD9483353
_publ_section_title
;
Structure prediction by ZEFSAII (Michael W. Deem and Ramdas Pophale) SiO2 
 PCOD9483353
Probable space group: C M M M
;
_chemical_formula_sum "Si O2"
_cell_formula_units_Z 88
_cell_length_a 19.280974
_cell_length_b 8.635188
_cell_length_c 29.782185
_cell_angle_alpha 90.000000
_cell_angle_beta 90.000000
_cell_angle_gamma 90.000000
_cell_volume 4958.579987
_symmetry_space_group_name_H-M "C M M M"
_symmetry_group_IT_number 65
_symmetry_cell_setting 'orthorhombic'
loop_
_space_group_symop_operation_xyz
x,y,z
-x,-y,z
x,-y,-z
-x,y,-z
-x,-y,-z
x,y,-z
-x,y,z
x,-y,z
1/2+x,1/2+y,z
1/2-x,1/2-y,z
1/2+x,1/2-y,-z
1/2-x,1/2+y,-z
1/2-x,1/2-y,-z
1/2+x,1/2+y,-z
1/2-x,1/2+y,z
1/2+x,1/2-y,z
loop_
_atom_site_type_symbol
_atom_site_label
_atom_site_fract_x
_atom_site_fract_y
_atom_site_fract_z
Si Si1 0.171208 0.185681 0.451006
Si Si2 0.171364 0.315468 0.000000
Si Si3 0.582571 0.185346 0.826561
Si Si4 0.672165 0.316405 0.093038
Si Si5 0.579630 0.188618 0.274389
Si Si6 0.671888 0.813999 0.358162
O O1 0.140067 0.225699 0.500000
O O2 0.250000 0.250000 0.451928
O O3 0.140433 0.255396 0.405461
O O4 0.173483 0.000000 0.447374
O O5 0.250000 0.250000 0.000000
O O6 0.141294 0.254032 0.046845
O O7 0.172573 0.500000 0.000000
O O8 0.500000 0.211995 0.831378
O O9 0.625978 0.269522 0.864649
O O10 0.602220 0.234908 0.775806
O O11 0.593909 0.000000 0.830364
O O12 0.676895 0.500000 0.088210
O O13 0.750000 0.250000 0.098892
O O14 0.500000 0.238111 0.281075
O O15 0.628024 0.238871 0.315131
O O16 0.579491 0.000000 0.274317
O O17 0.750000 0.750000 0.354650
O O18 0.674296 0.000000 0.359072
#
# Coordination Sequence:
#
# PCOD9483353 Si02
#       6
#    16   8  16  16  16  16
#     4   9  16  26  41  62  90 122 154 189 232 282
#     4  10  18  32  53  76 103 134 169 203 245 297
#     4   9  18  35  56  75  99 132 168 205 249 299
#     4  11  21  34  53  78 107 135 168 207 247 291
#     4   8  16  32  52  71  93 126 164 198 236 285
#     4  10  18  28  46  71  97 122 153 196 240 281
#
# _framework density 17.747017
#
# number of rings (size 3 to 8) (size 9 to 14) (size 15 to 20)
#    0.000    2.545    0.000    6.818    0.000    2.182 
#    0.000    4.091    0.000    7.636    0.000    3.818 
#    0.000    0.000    0.000    0.000    0.000    0.000 
#
# Total GULP energy -245215.326128 kJ/mol
# GULP energy per Si atom -5573.075594 kJ/mol
# Density = 1.770662 g / cm^3
# Si number density = 17.747017 Si / 1000 Ang^3
#
#
#
# Elastic Constant Matrix: (Units=GPa)
#
#
# Indices 1 2 3 4 5 6 
#
# 1 32.4534 26.8794 62.9478 0.0000 0.0000 0.0000
# 2 26.8794 89.1503 62.7224 0.0000 0.0000 0.0000
# 3 62.9478 62.7224 209.1038 0.0000 0.0000 0.0000
# 4 0.0000 0.0000 0.0000 27.6025 0.0000 0.0000
# 5 0.0000 0.0000 0.0000 0.0000 -10.4695 0.0000
# 6 0.0000 0.0000 0.0000 0.0000 0.0000 16.1044
#
#
#
# Elastic Compliance Matrix: (Units=1/GPa)
#
#
# Indices 1 2 3 4 5 6 
#
# 1 0.079400 -0.009028 -0.021194 0.000000 0.000000 0.000000
# 2 -0.009028 0.015244 -0.001855 0.000000 0.000000 0.000000
# 3 -0.021194 -0.001855 0.011719 0.000000 0.000000 0.000000
# 4 0.000000 0.000000 0.000000 0.036229 0.000000 0.000000
# 5 0.000000 0.000000 0.000000 0.000000 -0.095516 0.000000
# 6 0.000000 0.000000 0.000000 0.000000 0.000000 0.062095
#
#
# Mechanical properties :
#
#
# Convention : Reuss Voigt Hill
#
# Bulk Modulus (GPa) = 23.69197 70.64518 47.16858
# Shear Modulus (GPa) = 26.68177 18.52468 22.60322
#
# Velocity S-wave (km/s) = 3.88164 3.23432 3.57267
# Velocity P-wave (km/s) = 5.78518 7.33764 6.60717
#
# Compressibility (1/GPa) = 0.04220840
#
# Stress axis : x y z
#
# Youngs Moduli (GPa) = 12.59452 65.59956 85.33275
#
# Poissons Ratio (x) = 0.59225 1.80855
# Poissons Ratio (y) = 0.11371 0.15827
# Poissons Ratio (z) = 0.26693 0.12167
#
# Static dielectric constant tensor:
#      x y z
#    x 1.597190 0.000000 0.000000 
#    y 0.000000 1.685560 0.000000 
#    z 0.000000 0.000000 1.655660 
# 
# From -- ./inp_files/77830.got.cif
#   From: 2010.05.17/outbox.cif.g08.bks.cpg/sg65_39_cif.got.tgz:77830.got - 2010.06.03 17:01:31.
