data_PCOD9483671
_publ_section_title
;
Structure prediction by ZEFSAII (Michael W. Deem and Ramdas Pophale) SiO2 
 PCOD9483671
Probable space group: C M M M
;
_chemical_formula_sum "Si O2"
_cell_formula_units_Z 64
_cell_length_a 7.760467
_cell_length_b 38.491248
_cell_length_c 13.209583
_cell_angle_alpha 90.000000
_cell_angle_beta 90.000000
_cell_angle_gamma 90.000000
_cell_volume 3945.835329
_symmetry_space_group_name_H-M "C M M M"
_symmetry_group_IT_number 65
_symmetry_cell_setting 'orthorhombic'
loop_
_space_group_symop_operation_xyz
x,y,z
-x,-y,z
x,-y,-z
-x,y,-z
-x,-y,-z
x,y,-z
-x,y,z
x,-y,z
1/2+x,1/2+y,z
1/2-x,1/2-y,z
1/2+x,1/2-y,-z
1/2-x,1/2+y,-z
1/2-x,1/2-y,-z
1/2+x,1/2+y,-z
1/2-x,1/2+y,z
1/2+x,1/2-y,z
loop_
_atom_site_type_symbol
_atom_site_label
_atom_site_fract_x
_atom_site_fract_y
_atom_site_fract_z
Si Si1 0.706797 0.790513 0.500000
Si Si2 0.697197 0.591181 0.620135
Si Si3 0.709750 0.833796 0.695528
Si Si4 0.707296 0.789783 0.114235
Si Si5 0.000000 0.460414 0.377070
O O1 0.500000 0.793346 0.500000
O O2 0.750000 0.750000 0.500000
O O3 0.768493 0.810195 0.600751
O O4 0.727532 0.598320 0.500000
O O5 0.500000 0.579815 0.631606
O O6 0.728068 0.627155 0.677985
O O7 0.832183 0.561775 0.652201
O O8 0.500000 0.834360 0.694905
O O9 0.768836 0.816041 0.799647
O O10 0.500000 0.792474 0.111295
O O11 0.750000 0.750000 0.141621
O O12 0.772879 0.796140 0.000000
O O13 0.000000 0.500000 0.339958
O O14 0.000000 0.461922 0.500000
#
# Coordination Sequence:
#
# PCOD9483671 Si02
#       5
#     8  16  16  16   8
#     4  10  20  28  40  60  86 121 160 199 243 289
#     4  10  19  30  48  72  97 130 165 195 239 289
#     4  10  18  30  46  62  91 129 160 201 246 291
#     4   9  18  31  46  64  88 123 165 208 253 293
#     4   9  18  32  50  70 101 135 163 199 236 285
#
# _framework density 16.219633000000002
#
# number of rings (size 3 to 8) (size 9 to 14) (size 15 to 20)
#    0.000    2.375    2.500    0.750    0.000    2.500 
#    0.000    2.500    0.000    0.000    0.000    0.000 
#    0.000    2.000    0.000    2.250    0.000    0.250 
#
# Total GULP energy -178502.106113 kJ/mol
# GULP energy per Si atom -5578.190816 kJ/mol
# Density = 1.618272 g / cm^3
# Si number density = 16.219633 Si / 1000 Ang^3
#
#
#
# Elastic Constant Matrix: (Units=GPa)
#
#
# Indices 1 2 3 4 5 6 
#
# 1 56.9225 47.3920 32.4305 0.0000 0.0000 0.0000
# 2 47.3920 153.1802 62.3557 0.0000 0.0000 0.0000
# 3 32.4305 62.3557 72.0634 0.0000 0.0000 0.0000
# 4 0.0000 0.0000 0.0000 13.8110 0.0000 0.0000
# 5 0.0000 0.0000 0.0000 0.0000 2.7602 0.0000
# 6 0.0000 0.0000 0.0000 0.0000 0.0000 17.6498
#
#
#
# Elastic Compliance Matrix: (Units=1/GPa)
#
#
# Indices 1 2 3 4 5 6 
#
# 1 0.025932 -0.005052 -0.007299 0.000000 0.000000 0.000000
# 2 -0.005052 0.011062 -0.007299 0.000000 0.000000 0.000000
# 3 -0.007299 -0.007299 0.023477 0.000000 0.000000 0.000000
# 4 0.000000 0.000000 0.000000 0.072406 0.000000 0.000000
# 5 0.000000 0.000000 0.000000 0.000000 0.362297 0.000000
# 6 0.000000 0.000000 0.000000 0.000000 0.000000 0.056658
#
#
# Mechanical properties :
#
#
# Convention : Reuss Voigt Hill
#
# Bulk Modulus (GPa) = 47.23094 62.94695 55.08895
# Shear Modulus (GPa) = 8.35858 16.17672 12.26765
#
# Velocity S-wave (km/s) = 2.27257 3.16152 2.75316
# Velocity P-wave (km/s) = 6.00574 7.22636 6.64414
#
# Compressibility (1/GPa) = 0.02117256
#
# Stress axis : x y z
#
# Youngs Moduli (GPa) = 38.56215 90.39670 42.59534
#
# Poissons Ratio (x) = 0.45668 0.31089
# Poissons Ratio (y) = 0.19481 0.31089
# Poissons Ratio (z) = 0.28146 0.65977
#
# Static dielectric constant tensor:
#      x y z
#    x 1.577040 0.000000 0.000000 
#    y 0.000000 1.509130 0.000000 
#    z 0.000000 0.000000 1.546000 
# 
# From -- ./inp_files/36831.got.cif
#   From: 2010.05.17/outbox.cif.g08.bks.cpg/sg65_19_cif.got.tgz:36831.got - 2010.06.03 17:01:31.
