data_PCOD9483957
_publ_section_title
;
Structure prediction by ZEFSAII (Michael W. Deem and Ramdas Pophale) SiO2 
 PCOD9483957
Probable space group: C M M M
;
_chemical_formula_sum "Si O2"
_cell_formula_units_Z 104
_cell_length_a 21.654772
_cell_length_b 30.563830
_cell_length_c 7.446709
_cell_angle_alpha 90.000000
_cell_angle_beta 90.000000
_cell_angle_gamma 90.000000
_cell_volume 4928.624980
_symmetry_space_group_name_H-M "C M M M"
_symmetry_group_IT_number 65
_symmetry_cell_setting 'orthorhombic'
loop_
_space_group_symop_operation_xyz
x,y,z
-x,-y,z
x,-y,-z
-x,y,-z
-x,-y,-z
x,y,-z
-x,y,z
x,-y,z
1/2+x,1/2+y,z
1/2-x,1/2-y,z
1/2+x,1/2-y,-z
1/2-x,1/2+y,-z
1/2-x,1/2-y,-z
1/2+x,1/2+y,-z
1/2-x,1/2+y,z
1/2+x,1/2-y,z
loop_
_atom_site_type_symbol
_atom_site_label
_atom_site_fract_x
_atom_site_fract_y
_atom_site_fract_z
Si Si1 0.253844 0.868912 0.208812
Si Si2 0.692551 0.280151 0.283402
Si Si3 0.931647 0.733069 0.280115
Si Si4 0.327872 0.448828 0.214899
Si Si5 0.573814 0.953173 0.285087
Si Si6 0.390096 0.139845 0.296254
Si Si7 0.569665 0.447218 0.500000
O O1 0.204917 0.830009 0.230200
O O2 0.225619 0.915026 0.270425
O O3 0.316606 0.854129 0.302557
O O4 0.269270 0.873452 0.000000
O O5 0.692850 0.278291 0.500000
O O6 0.750000 0.250000 0.220619
O O7 0.626875 0.261507 0.221158
O O8 0.929835 0.732490 0.500000
O O9 0.920438 0.683145 0.217643
O O10 0.000000 0.748064 0.227234
O O11 0.313596 0.500000 0.252902
O O12 0.389162 0.436368 0.325821
O O13 0.336934 0.444608 0.000000
O O14 0.586391 0.953697 0.500000
O O15 0.500000 0.952462 0.262352
O O16 0.598790 0.907592 0.211494
O O17 0.597085 0.000000 0.213755
O O18 0.414938 0.136957 0.500000
O O19 0.564854 0.500000 0.500000
O O20 0.500000 0.429369 0.500000
#
# Coordination Sequence:
#
# PCOD9483957 Si02
#       7
#    16  16  16  16  16  16   8
#     4  11  23  36  54  79 108 148 187 224 277 336
#     4  10  19  35  57  81 107 140 182 231 280 330
#     4   9  17  31  53  80 106 135 176 224 278 333
#     4   9  20  38  57  83 120 155 188 234 288 342
#     4   8  14  25  43  72 108 139 171 218 273 320
#     4  10  18  30  51  77 103 137 183 229 267 316
#     4   9  18  34  60  90 113 146 195 237 284 347
#
# _framework density 21.101219
#
# number of rings (size 3 to 8) (size 9 to 14) (size 15 to 20)
#    0.000    2.538    1.538    1.385    2.154    3.077 
#    0.000    2.308    0.000    4.154    0.000    1.077 
#    0.000    0.000    0.000    0.000    0.000    0.000 
#
# Total GULP energy -290125.378803 kJ/mol
# GULP energy per Si atom -5579.334208 kJ/mol
# Density = 2.105319 g / cm^3
# Si number density = 21.101219 Si / 1000 Ang^3
#
#
#
# Elastic Constant Matrix: (Units=GPa)
#
#
# Indices 1 2 3 4 5 6 
#
# 1 102.7615 35.5747 7.9823 0.0000 0.0000 0.0000
# 2 35.5747 105.5837 0.7156 0.0000 0.0000 0.0000
# 3 7.9823 0.7156 66.0644 0.0000 0.0000 0.0000
# 4 0.0000 0.0000 0.0000 -11.3215 0.0000 0.0000
# 5 0.0000 0.0000 0.0000 0.0000 42.2669 0.0000
# 6 0.0000 0.0000 0.0000 0.0000 0.0000 36.9347
#
#
#
# Elastic Compliance Matrix: (Units=1/GPa)
#
#
# Indices 1 2 3 4 5 6 
#
# 1 0.011127 -0.003740 -0.001304 0.000000 0.000000 0.000000
# 2 -0.003740 0.010729 0.000336 0.000000 0.000000 0.000000
# 3 -0.001304 0.000336 0.015291 0.000000 0.000000 0.000000
# 4 0.000000 0.000000 0.000000 -0.088327 0.000000 0.000000
# 5 0.000000 0.000000 0.000000 0.000000 0.023659 0.000000
# 6 0.000000 0.000000 0.000000 0.000000 0.000000 0.027075
#
#
# Mechanical properties :
#
#
# Convention : Reuss Voigt Hill
#
# Bulk Modulus (GPa) = 36.06206 40.32834 38.19520
# Shear Modulus (GPa) = 274.50636 28.91848 151.71242
#
# Velocity S-wave (km/s) = 11.41809 3.70599 8.48844
# Velocity P-wave (km/s) = 13.81873 6.12094 10.68698
#
# Compressibility (1/GPa) = 0.02772997
#
# Stress axis : x y z
#
# Youngs Moduli (GPa) = 89.86808 93.20417 65.39941
#
# Poissons Ratio (x) = 0.34862 0.08528
# Poissons Ratio (y) = 0.33614 -0.02196
# Poissons Ratio (z) = 0.11719 -0.03129
#
# Static dielectric constant tensor:
#      x y z
#    x 1.749350 0.000000 0.000000 
#    y 0.000000 1.765130 0.000000 
#    z 0.000000 0.000000 1.823000 
# 
# From -- ./inp_files/12828.got.cif
#   From: 2010.05.17/outbox.cif.g08.bks.cpg/sg65_7_cif.got.tgz:12828.got - 2010.06.03 17:01:31.
