data_PCOD9483398
_publ_section_title
;
Structure prediction by ZEFSAII (Michael W. Deem and Ramdas Pophale) SiO2 
 PCOD9483398
Probable space group: C M M M
;
_chemical_formula_sum "Si O2"
_cell_formula_units_Z 72
_cell_length_a 29.229600
_cell_length_b 8.397817
_cell_length_c 16.227454
_cell_angle_alpha 90.000000
_cell_angle_beta 90.000000
_cell_angle_gamma 90.000000
_cell_volume 3983.269266
_symmetry_space_group_name_H-M "C M M M"
_symmetry_group_IT_number 65
_symmetry_cell_setting 'orthorhombic'
loop_
_space_group_symop_operation_xyz
x,y,z
-x,-y,z
x,-y,-z
-x,y,-z
-x,-y,-z
x,y,-z
-x,y,z
x,-y,z
1/2+x,1/2+y,z
1/2-x,1/2-y,z
1/2+x,1/2-y,-z
1/2-x,1/2+y,-z
1/2-x,1/2-y,-z
1/2+x,1/2+y,-z
1/2-x,1/2+y,z
1/2+x,1/2-y,z
loop_
_atom_site_type_symbol
_atom_site_label
_atom_site_fract_x
_atom_site_fract_y
_atom_site_fract_z
Si Si1 0.053642 0.193833 0.091781
Si Si2 0.301820 0.188493 0.175152
Si Si3 0.389284 0.307196 0.748971
Si Si4 0.302348 0.310804 0.000000
Si Si5 0.052735 0.805850 0.407223
O O1 0.082514 0.248784 0.170268
O O2 0.000000 0.235426 0.101126
O O3 0.055954 0.000000 0.091607
O O4 0.068885 0.246352 0.000000
O O5 0.250000 0.250000 0.185945
O O6 0.337457 0.249430 0.242350
O O7 0.300172 0.000000 0.172757
O O8 0.320761 0.249966 0.086740
O O9 0.389591 0.500000 0.749848
O O10 0.414444 0.252351 0.666013
O O11 0.250000 0.250000 0.000000
O O12 0.303944 0.500000 0.000000
O O13 0.065459 0.755206 0.500000
O O14 0.000000 0.758888 0.391819
O O15 0.053306 0.000000 0.406756
#
# Coordination Sequence:
#
# PCOD9483398 Si02
#       5
#    16  16  16   8  16
#     4   8  14  24  39  64  97 129 163 201 237 283
#     4  11  22  36  51  71 100 134 171 214 259 304
#     4  10  18  28  48  75 100 132 171 212 255 302
#     4  10  18  32  52  72  95 126 167 210 252 295
#     4   8  14  26  47  77 109 136 167 211 257 301
#
# _framework density 18.075604999999999
#
# number of rings (size 3 to 8) (size 9 to 14) (size 15 to 20)
#    0.000    2.667    0.000    6.333    1.556    2.667 
#    0.000    0.000    0.000    4.000    0.000    3.111 
#    0.000    0.000    0.000    0.000    0.000    0.000 
#
# Total GULP energy -200765.215597 kJ/mol
# GULP energy per Si atom -5576.811544 kJ/mol
# Density = 1.803446 g / cm^3
# Si number density = 18.075605 Si / 1000 Ang^3
#
#
#
# Elastic Constant Matrix: (Units=GPa)
#
#
# Indices 1 2 3 4 5 6 
#
# 1 108.0501 17.8426 97.5023 0.0000 0.0000 0.0000
# 2 17.8426 40.7379 29.8332 0.0000 0.0000 0.0000
# 3 97.5023 29.8332 149.5672 0.0000 0.0000 0.0000
# 4 0.0000 0.0000 0.0000 8.1357 0.0000 0.0000
# 5 0.0000 0.0000 0.0000 0.0000 30.7255 0.0000
# 6 0.0000 0.0000 0.0000 0.0000 0.0000 14.3579
#
#
#
# Elastic Compliance Matrix: (Units=1/GPa)
#
#
# Indices 1 2 3 4 5 6 
#
# 1 0.022515 0.001039 -0.014885 0.000000 0.000000 0.000000
# 2 0.001039 0.028794 -0.006421 0.000000 0.000000 0.000000
# 3 -0.014885 -0.006421 0.017670 0.000000 0.000000 0.000000
# 4 0.000000 0.000000 0.000000 0.122915 0.000000 0.000000
# 5 0.000000 0.000000 0.000000 0.000000 0.032546 0.000000
# 6 0.000000 0.000000 0.000000 0.000000 0.000000 0.069648
#
#
# Mechanical properties :
#
#
# Convention : Reuss Voigt Hill
#
# Bulk Modulus (GPa) = 35.15384 65.41238 50.28311
# Shear Modulus (GPa) = 14.53051 20.85563 17.69307
#
# Velocity S-wave (km/s) = 2.83834 3.40045 3.13203
# Velocity P-wave (km/s) = 5.49837 7.18917 6.39985
#
# Compressibility (1/GPa) = 0.02844639
#
# Stress axis : x y z
#
# Youngs Moduli (GPa) = 44.41461 34.72929 56.59303
#
# Poissons Ratio (x) = -0.03609 0.84238
# Poissons Ratio (y) = -0.04615 0.36337
# Poissons Ratio (z) = 0.66110 0.22299
#
# Static dielectric constant tensor:
#      x y z
#    x 1.623520 0.000000 0.000000 
#    y 0.000000 1.617370 0.000000 
#    z 0.000000 0.000000 1.635690 
# 
# From -- ./inp_files/47459.got.cif
#   From: 2010.05.17/outbox.cif.g08.bks.cpg/sg65_24_cif.got.tgz:47459.got - 2010.06.03 17:01:31.
