data_PCOD9483917
_publ_section_title
;
Structure prediction by ZEFSAII (Michael W. Deem and Ramdas Pophale) SiO2 
 PCOD9483917
Probable space group: C M M M
;
_chemical_formula_sum "Si O2"
_cell_formula_units_Z 88
_cell_length_a 11.318619
_cell_length_b 37.768108
_cell_length_c 12.118962
_cell_angle_alpha 90.000000
_cell_angle_beta 90.000000
_cell_angle_gamma 90.000000
_cell_volume 5180.648109
_symmetry_space_group_name_H-M "C M M M"
_symmetry_group_IT_number 65
_symmetry_cell_setting 'orthorhombic'
loop_
_space_group_symop_operation_xyz
x,y,z
-x,-y,z
x,-y,-z
-x,y,-z
-x,-y,-z
x,y,-z
-x,y,z
x,-y,z
1/2+x,1/2+y,z
1/2-x,1/2-y,z
1/2+x,1/2-y,-z
1/2-x,1/2+y,-z
1/2-x,1/2-y,-z
1/2+x,1/2+y,-z
1/2-x,1/2+y,z
1/2+x,1/2-y,z
loop_
_atom_site_type_symbol
_atom_site_label
_atom_site_fract_x
_atom_site_fract_y
_atom_site_fract_z
Si Si1 0.772589 0.587929 0.868791
Si Si2 0.796536 0.538932 0.500000
Si Si3 0.000000 0.459407 0.133717
Si Si4 0.632164 0.115980 0.500000
Si Si5 0.859314 0.352278 0.274071
Si Si6 0.862676 0.275670 0.368998
Si Si7 0.864211 0.960689 0.282698
O O1 0.797153 0.627457 0.825728
O O2 0.666386 0.569438 0.804610
O O3 0.884957 0.563175 0.834908
O O4 0.760479 0.586829 0.000000
O O5 0.853554 0.500000 0.500000
O O6 0.873940 0.573877 0.500000
O O7 0.716041 0.541546 0.391019
O O8 0.000000 0.500000 0.175543
O O9 0.000000 0.461197 0.000000
O O10 0.500000 0.131662 0.500000
O O11 0.687237 0.129280 0.386510
O O12 0.846108 0.310592 0.294464
O O13 0.000000 0.359253 0.263025
O O14 0.857933 0.285345 0.500000
O O15 0.750000 0.250000 0.349763
O O16 0.000000 0.262654 0.351072
O O17 0.000000 0.958510 0.316709
O O18 0.843888 0.000000 0.232700
#
# Coordination Sequence:
#
# PCOD9483917 Si02
#       7
#    16   8   8   8  16  16  16
#     4  11  21  33  51  75 101 135 179 222 263 309
#     4  10  19  33  52  72  99 136 177 219 265 318
#     4   9  18  32  48  69  99 131 169 222 271 303
#     4  10  18  30  50  77 106 136 168 208 265 326
#     4  10  18  32  53  77 107 141 168 206 258 322
#     4   9  17  31  54  82 110 139 171 210 264 327
#     4  10  21  36  52  69  94 134 182 227 269 315
#
# _framework density 16.986291000000001
#
# number of rings (size 3 to 8) (size 9 to 14) (size 15 to 20)
#    0.000    2.091    3.636    0.818    0.000    2.727 
#    0.000    1.818    0.000    0.545    0.000    0.000 
#    0.000    0.000    0.000    0.000    0.000    0.000 
#
# Total GULP energy -245094.132765 kJ/mol
# GULP energy per Si atom -5570.321199 kJ/mol
# Density = 1.694763 g / cm^3
# Si number density = 16.986291 Si / 1000 Ang^3
#
#
#
# Elastic Constant Matrix: (Units=GPa)
#
#
# Indices 1 2 3 4 5 6 
#
# 1 57.6045 34.1561 14.3176 0.0000 0.0000 0.0000
# 2 34.1561 87.8467 25.8745 0.0000 0.0000 0.0000
# 3 14.3176 25.8745 66.5993 0.0000 0.0000 0.0000
# 4 0.0000 0.0000 0.0000 23.0445 0.0000 0.0000
# 5 0.0000 0.0000 0.0000 0.0000 -15.6788 0.0000
# 6 0.0000 0.0000 0.0000 0.0000 0.0000 23.6549
#
#
#
# Elastic Compliance Matrix: (Units=1/GPa)
#
#
# Indices 1 2 3 4 5 6 
#
# 1 0.022719 -0.008350 -0.001640 0.000000 0.000000 0.000000
# 2 -0.008350 0.015924 -0.004391 0.000000 0.000000 0.000000
# 3 -0.001640 -0.004391 0.017074 0.000000 0.000000 0.000000
# 4 0.000000 0.000000 0.000000 0.043394 0.000000 0.000000
# 5 0.000000 0.000000 0.000000 0.000000 -0.063780 0.000000
# 6 0.000000 0.000000 0.000000 0.000000 0.000000 0.042275
#
#
# Mechanical properties :
#
#
# Convention : Reuss Voigt Hill
#
# Bulk Modulus (GPa) = 37.10170 40.08299 38.59234
# Shear Modulus (GPa) = 43.34561 15.38427 29.36494
#
# Velocity S-wave (km/s) = 5.05701 3.01273 4.16233
# Velocity P-wave (km/s) = 7.48247 5.97917 6.77266
#
# Compressibility (1/GPa) = 0.02695294
#
# Stress axis : x y z
#
# Youngs Moduli (GPa) = 44.01681 62.79973 58.56929
#
# Poissons Ratio (x) = 0.52440 0.09605
# Poissons Ratio (y) = 0.36755 0.25720
# Poissons Ratio (z) = 0.07218 0.27577
#
# Static dielectric constant tensor:
#      x y z
#    x 1.582050 0.000000 0.000000 
#    y 0.000000 1.586610 0.000000 
#    z 0.000000 0.000000 1.575640 
# 
# From -- ./inp_files/23051.got.cif
#   From: 2010.05.17/outbox.cif.g08.bks.cpg/sg65_12_cif.got.tgz:23051.got - 2010.06.03 17:01:31.
