data_PCOD9483811
_publ_section_title
;
Structure prediction by ZEFSAII (Michael W. Deem and Ramdas Pophale) SiO2 
 PCOD9483811
Probable space group: C M M M
;
_chemical_formula_sum "Si O2"
_cell_formula_units_Z 104
_cell_length_a 17.366077
_cell_length_b 27.445367
_cell_length_c 13.011371
_cell_angle_alpha 90.000000
_cell_angle_beta 90.000000
_cell_angle_gamma 90.000000
_cell_volume 6201.458263
_symmetry_space_group_name_H-M "C M M M"
_symmetry_group_IT_number 65
_symmetry_cell_setting 'orthorhombic'
loop_
_space_group_symop_operation_xyz
x,y,z
-x,-y,z
x,-y,-z
-x,y,-z
-x,-y,-z
x,y,-z
-x,y,z
x,-y,z
1/2+x,1/2+y,z
1/2-x,1/2-y,z
1/2+x,1/2-y,-z
1/2-x,1/2+y,-z
1/2-x,1/2-y,-z
1/2+x,1/2+y,-z
1/2-x,1/2+y,z
1/2+x,1/2-y,z
loop_
_atom_site_type_symbol
_atom_site_label
_atom_site_fract_x
_atom_site_fract_y
_atom_site_fract_z
Si Si1 0.849489 0.672963 0.686943
Si Si2 0.500000 0.057440 0.823264
Si Si3 0.156394 0.609375 0.117422
Si Si4 0.686678 0.630767 0.618841
Si Si5 0.410314 0.273429 0.376934
Si Si6 0.000000 0.614233 0.383132
Si Si7 0.087917 0.059143 0.000000
Si Si8 0.808524 0.058080 0.805186
O O1 0.845368 0.654565 0.804227
O O2 0.771830 0.653876 0.633485
O O3 0.862490 0.730263 0.675392
O O4 0.924205 0.646905 0.636993
O O5 0.424313 0.081553 0.871275
O O6 0.500000 0.072207 0.702609
O O7 0.500000 0.000000 0.837428
O O8 0.224045 0.573632 0.155462
O O9 0.169699 0.623433 0.000000
O O10 0.677242 0.615747 0.500000
O O11 0.626617 0.673982 0.642535
O O12 0.677208 0.587292 0.700053
O O13 0.406127 0.265099 0.500000
O O14 0.500000 0.271276 0.346727
O O15 0.000000 0.596639 0.500000
O O16 0.133090 0.073203 0.896412
O O17 0.000000 0.076354 0.000000
O O18 0.087312 0.000000 0.000000
O O19 0.813107 0.000000 0.790804
#
# Coordination Sequence:
#
# PCOD9483811 Si02
#       8
#    16   8  16  16  16   8   8  16
#     4  10  19  32  53  77 103 138 180 223 266 315
#     4  10  21  31  44  73 105 140 181 218 262 314
#     4  10  20  34  52  76 105 139 181 225 265 313
#     4  10  21  34  52  82 114 141 176 221 269 325
#     4  10  19  33  55  78 104 140 179 220 267 319
#     4  10  18  30  49  72 100 137 180 223 263 313
#     4   9  18  34  58  81  96 127 181 228 261 305
#     4  10  20  35  57  80 107 144 180 220 271 319
#
# _framework density 16.770249
#
# number of rings (size 3 to 8) (size 9 to 14) (size 15 to 20)
#    0.000    2.077    1.538    2.538    0.000    3.538 
#    0.000    0.000    1.692    7.385    0.000    4.308 
#    0.000    0.000    0.000    0.000    0.000    0.000 
#
# Total GULP energy -290147.970616 kJ/mol
# GULP energy per Si atom -5579.768666 kJ/mol
# Density = 1.673208 g / cm^3
# Si number density = 16.770249 Si / 1000 Ang^3
#
#
#
# Elastic Constant Matrix: (Units=GPa)
#
#
# Indices 1 2 3 4 5 6 
#
# 1 83.6192 43.6611 35.6457 0.0000 0.0000 0.0000
# 2 43.6611 81.2665 64.2736 0.0000 0.0000 0.0000
# 3 35.6457 64.2736 126.7779 0.0000 0.0000 0.0000
# 4 0.0000 0.0000 0.0000 15.2376 0.0000 0.0000
# 5 0.0000 0.0000 0.0000 0.0000 18.4866 0.0000
# 6 0.0000 0.0000 0.0000 0.0000 0.0000 20.6180
#
#
#
# Elastic Compliance Matrix: (Units=1/GPa)
#
#
# Indices 1 2 3 4 5 6 
#
# 1 0.016626 -0.008740 -0.000244 0.000000 0.000000 0.000000
# 2 -0.008740 0.025136 -0.010286 0.000000 0.000000 0.000000
# 3 -0.000244 -0.010286 0.013171 0.000000 0.000000 0.000000
# 4 0.000000 0.000000 0.000000 0.065627 0.000000 0.000000
# 5 0.000000 0.000000 0.000000 0.000000 0.054093 0.000000
# 6 0.000000 0.000000 0.000000 0.000000 0.000000 0.048501
#
#
# Mechanical properties :
#
#
# Convention : Reuss Voigt Hill
#
# Bulk Modulus (GPa) = 60.99766 64.31382 62.65574
# Shear Modulus (GPa) = 18.71546 20.74066 19.72806
#
# Velocity S-wave (km/s) = 3.34427 3.52057 3.43355
# Velocity P-wave (km/s) = 7.16685 7.41344 7.29118
#
# Compressibility (1/GPa) = 0.01639407
#
# Stress axis : x y z
#
# Youngs Moduli (GPa) = 60.14549 39.78376 75.92338
#
# Poissons Ratio (x) = 0.34770 0.01852
# Poissons Ratio (y) = 0.52566 0.78095
# Poissons Ratio (z) = 0.01467 0.40922
#
# Static dielectric constant tensor:
#      x y z
#    x 1.565990 0.000000 0.000000 
#    y 0.000000 1.536430 0.000000 
#    z 0.000000 0.000000 1.557920 
# 
# From -- ./inp_files/27533.got.cif
#   From: 2010.05.17/outbox.cif.g08.bks.cpg/sg65_14_cif.got.tgz:27533.got - 2010.06.03 17:01:31.
