data_PCOD9483765
_publ_section_title
;
Structure prediction by ZEFSAII (Michael W. Deem and Ramdas Pophale) SiO2 
 PCOD9483765
Probable space group: C M M M
;
_chemical_formula_sum "Si O2"
_cell_formula_units_Z 104
_cell_length_a 14.490265
_cell_length_b 21.986860
_cell_length_c 18.035878
_cell_angle_alpha 90.000000
_cell_angle_beta 90.000000
_cell_angle_gamma 90.000000
_cell_volume 5746.148269
_symmetry_space_group_name_H-M "C M M M"
_symmetry_group_IT_number 65
_symmetry_cell_setting 'orthorhombic'
loop_
_space_group_symop_operation_xyz
x,y,z
-x,-y,z
x,-y,-z
-x,y,-z
-x,-y,-z
x,y,-z
-x,y,z
x,-y,z
1/2+x,1/2+y,z
1/2-x,1/2-y,z
1/2+x,1/2-y,-z
1/2-x,1/2+y,-z
1/2-x,1/2-y,-z
1/2+x,1/2+y,-z
1/2-x,1/2+y,z
1/2+x,1/2-y,z
loop_
_atom_site_type_symbol
_atom_site_label
_atom_site_fract_x
_atom_site_fract_y
_atom_site_fract_z
Si Si1 0.725346 0.321802 0.919807
Si Si2 0.244894 0.148509 0.581063
Si Si3 0.389600 0.745341 0.620788
Si Si4 0.500000 0.927277 0.583015
Si Si5 0.168472 0.572281 0.693541
Si Si6 0.105041 0.359924 0.157447
Si Si7 0.604132 0.280637 0.790963
O O1 0.750000 0.250000 0.924674
O O2 0.817113 0.361342 0.905653
O O3 0.664531 0.322387 0.845102
O O4 0.682695 0.337712 0.000000
O O5 0.259744 0.119459 0.500000
O O6 0.326391 0.198483 0.594487
O O7 0.150238 0.186470 0.580077
O O8 0.246568 0.102900 0.650524
O O9 0.500000 0.755940 0.613726
O O10 0.366083 0.730372 0.706698
O O11 0.500000 0.900349 0.500000
O O12 0.412585 0.913955 0.634117
O O13 0.500000 0.000000 0.574562
O O14 0.176979 0.500000 0.702929
O O15 0.140153 0.603865 0.770308
O O16 0.102313 0.288120 0.177241
O O17 0.000000 0.378564 0.138923
O O18 0.500000 0.304220 0.789837
#
# Coordination Sequence:
#
# PCOD9483765 Si02
#       7
#    16  16  16   8  16  16  16
#     4   9  18  30  47  73 102 131 164 207 255 305
#     4  11  23  34  50  77 105 139 180 223 274 323
#     4  10  20  35  53  75 105 140 176 215 264 323
#     4   9  18  30  44  66  97 131 169 221 273 303
#     4  11  21  34  51  72 101 138 183 228 263 307
#     4  10  18  30  48  69  97 136 174 206 250 307
#     4   9  17  29  48  71  99 134 165 200 250 310
#
# _framework density 18.099080000000001
#
# number of rings (size 3 to 8) (size 9 to 14) (size 15 to 20)
#    0.000    2.077    2.308    2.308    5.385    2.769 
#    0.000    3.077    0.000    0.923    0.000    2.154 
#    0.000    0.000    0.000    5.538    0.000    1.846 
#
# Total GULP energy -289596.554640 kJ/mol
# GULP energy per Si atom -5569.164512 kJ/mol
# Density = 1.805789 g / cm^3
# Si number density = 18.099080 Si / 1000 Ang^3
#
#
#
# Elastic Constant Matrix: (Units=GPa)
#
#
# Indices 1 2 3 4 5 6 
#
# 1 50.1760 12.3601 21.3332 0.0000 0.0000 0.0000
# 2 12.3601 43.5664 1.1771 0.0000 0.0000 0.0000
# 3 21.3332 1.1771 80.6499 0.0000 0.0000 0.0000
# 4 0.0000 0.0000 0.0000 9.2106 0.0000 0.0000
# 5 0.0000 0.0000 0.0000 0.0000 10.3920 0.0000
# 6 0.0000 0.0000 0.0000 0.0000 0.0000 13.8354
#
#
#
# Elastic Compliance Matrix: (Units=1/GPa)
#
#
# Indices 1 2 3 4 5 6 
#
# 1 0.024272 -0.006715 -0.006322 0.000000 0.000000 0.000000
# 2 -0.006715 0.024820 0.001414 0.000000 0.000000 0.000000
# 3 -0.006322 0.001414 0.014051 0.000000 0.000000 0.000000
# 4 0.000000 0.000000 0.000000 0.108571 0.000000 0.000000
# 5 0.000000 0.000000 0.000000 0.000000 0.096227 0.000000
# 6 0.000000 0.000000 0.000000 0.000000 0.000000 0.072278
#
#
# Mechanical properties :
#
#
# Convention : Reuss Voigt Hill
#
# Bulk Modulus (GPa) = 25.06499 27.12590 26.09544
# Shear Modulus (GPa) = 13.27082 15.98907 14.62994
#
# Velocity S-wave (km/s) = 2.71076 2.97546 2.84619
# Velocity P-wave (km/s) = 4.86585 5.17923 5.02498
#
# Compressibility (1/GPa) = 0.03989629
#
# Stress axis : x y z
#
# Youngs Moduli (GPa) = 41.19955 40.28935 71.16934
#
# Poissons Ratio (x) = 0.27056 0.44996
# Poissons Ratio (y) = 0.27667 -0.10064
# Poissons Ratio (z) = 0.26048 -0.05697
#
# Static dielectric constant tensor:
#      x y z
#    x 1.709830 0.000000 0.000000 
#    y 0.000000 1.601620 0.000000 
#    z 0.000000 0.000000 1.669100 
# 
# From -- ./inp_files/53306.got.cif
#   From: 2010.05.17/outbox.cif.g08.bks.cpg/sg65_27_cif.got.tgz:53306.got - 2010.06.03 17:01:31.
