data_PCOD9483562
_publ_section_title
;
Structure prediction by ZEFSAII (Michael W. Deem and Ramdas Pophale) SiO2 
 PCOD9483562
Probable space group: C M M M
;
_chemical_formula_sum "Si O2"
_cell_formula_units_Z 104
_cell_length_a 30.490950
_cell_length_b 23.089432
_cell_length_c 9.129089
_cell_angle_alpha 90.000000
_cell_angle_beta 90.000000
_cell_angle_gamma 90.000000
_cell_volume 6427.049522
_symmetry_space_group_name_H-M "C M M M"
_symmetry_group_IT_number 65
_symmetry_cell_setting 'orthorhombic'
loop_
_space_group_symop_operation_xyz
x,y,z
-x,-y,z
x,-y,-z
-x,y,-z
-x,-y,-z
x,y,-z
-x,y,z
x,-y,z
1/2+x,1/2+y,z
1/2-x,1/2-y,z
1/2+x,1/2-y,-z
1/2-x,1/2+y,-z
1/2-x,1/2-y,-z
1/2+x,1/2+y,-z
1/2-x,1/2+y,z
1/2+x,1/2-y,z
loop_
_atom_site_type_symbol
_atom_site_label
_atom_site_fract_x
_atom_site_fract_y
_atom_site_fract_z
Si Si1 0.619395 0.567959 0.323148
Si Si2 0.551196 0.653506 0.825198
Si Si3 0.448908 0.223935 0.325219
Si Si4 0.693577 0.931214 0.174252
Si Si5 0.607095 0.888461 0.676786
Si Si6 0.782387 0.070289 0.331485
Si Si7 0.449808 0.000000 0.321826
O O1 0.616582 0.572155 0.500000
O O2 0.614314 0.500000 0.284999
O O3 0.582970 0.606922 0.247899
O O4 0.668854 0.587653 0.281834
O O5 0.500000 0.640850 0.791378
O O6 0.560690 0.717105 0.760307
O O7 0.556362 0.653595 0.000000
O O8 0.444584 0.234198 0.500000
O O9 0.500000 0.207993 0.298442
O O10 0.417318 0.171069 0.284700
O O11 0.654212 0.897173 0.250621
O O12 0.741096 0.912380 0.234241
O O13 0.688369 0.000000 0.210062
O O14 0.691664 0.925258 0.000000
O O15 0.611466 0.890546 0.500000
O O16 0.576534 0.942638 0.722248
O O17 0.775808 0.088813 0.500000
O O18 0.783466 0.000000 0.332188
O O19 0.500000 0.000000 0.270269
O O20 0.451044 0.000000 0.500000
#
# Coordination Sequence:
#
# PCOD9483562 Si02
#       7
#    16  16  16  16  16  16   8
#     4   9  18  33  54  80 105 129 159 198 244 289
#     4  10  21  35  51  73 102 136 168 197 235 287
#     4   9  18  33  52  72  93 124 170 214 248 288
#     4  10  19  29  43  67 100 133 165 200 242 294
#     4  10  18  29  48  71  95 126 164 209 256 296
#     4   8  15  29  49  71  96 126 160 197 239 289
#     4   9  16  26  43  69  97 123 157 205 256 299
#
# _framework density 16.181609000000002
#
# number of rings (size 3 to 8) (size 9 to 14) (size 15 to 20)
#    0.000    2.692    0.769    2.308    0.000    5.231 
#    0.000    3.077    0.000    2.769    0.000    6.462 
#    0.000    0.000    0.000    0.000    0.000    0.000 
#
# Total GULP energy -289856.277852 kJ/mol
# GULP energy per Si atom -5574.159189 kJ/mol
# Density = 1.614478 g / cm^3
# Si number density = 16.181609 Si / 1000 Ang^3
#
#
#
# Elastic Constant Matrix: (Units=GPa)
#
#
# Indices 1 2 3 4 5 6 
#
# 1 156.8589 91.2924 61.5600 0.0000 0.0000 0.0000
# 2 91.2924 88.4513 45.3820 0.0000 0.0000 0.0000
# 3 61.5600 45.3820 37.1800 0.0000 0.0000 0.0000
# 4 0.0000 0.0000 0.0000 14.7772 0.0000 0.0000
# 5 0.0000 0.0000 0.0000 0.0000 16.9623 0.0000
# 6 0.0000 0.0000 0.0000 0.0000 0.0000 16.0801
#
#
#
# Elastic Compliance Matrix: (Units=1/GPa)
#
#
# Indices 1 2 3 4 5 6 
#
# 1 0.021258 -0.010387 -0.022520 0.000000 0.000000 0.000000
# 2 -0.010387 0.035325 -0.025920 0.000000 0.000000 0.000000
# 3 -0.022520 -0.025920 0.095821 0.000000 0.000000 0.000000
# 4 0.000000 0.000000 0.000000 0.067672 0.000000 0.000000
# 5 0.000000 0.000000 0.000000 0.000000 0.058954 0.000000
# 6 0.000000 0.000000 0.000000 0.000000 0.000000 0.062189
#
#
# Mechanical properties :
#
#
# Convention : Reuss Voigt Hill
#
# Bulk Modulus (GPa) = 28.77621 75.43989 52.10805
# Shear Modulus (GPa) = 10.62800 15.18098 12.90449
#
# Velocity S-wave (km/s) = 2.56558 3.06627 2.82703
# Velocity P-wave (km/s) = 5.15734 7.69792 6.55195
#
# Compressibility (1/GPa) = 0.03475093
#
# Stress axis : x y z
#
# Youngs Moduli (GPa) = 47.04024 28.30868 10.43614
#
# Poissons Ratio (x) = 0.29404 0.23502
# Poissons Ratio (y) = 0.48860 0.27050
# Poissons Ratio (z) = 1.05934 0.73376
#
# Static dielectric constant tensor:
#      x y z
#    x 1.540680 0.000000 0.000000 
#    y 0.000000 1.517230 0.000000 
#    z 0.000000 0.000000 1.533160 
# 
# From -- ./inp_files/16755.got.cif
#   From: 2010.05.17/outbox.cif.g08.bks.cpg/sg65_9_cif.got.tgz:16755.got - 2010.06.03 17:01:31.
