data_PCOD9483986
_publ_section_title
;
Structure prediction by ZEFSAII (Michael W. Deem and Ramdas Pophale) SiO2 
 PCOD9483986
Probable space group: C M M M
;
_chemical_formula_sum "Si O2"
_cell_formula_units_Z 80
_cell_length_a 19.003527
_cell_length_b 8.576167
_cell_length_c 27.345183
_cell_angle_alpha 90.000000
_cell_angle_beta 90.000000
_cell_angle_gamma 90.000000
_cell_volume 4456.647406
_symmetry_space_group_name_H-M "C M M M"
_symmetry_group_IT_number 65
_symmetry_cell_setting 'orthorhombic'
loop_
_space_group_symop_operation_xyz
x,y,z
-x,-y,z
x,-y,-z
-x,y,-z
-x,-y,-z
x,y,-z
-x,y,z
x,-y,z
1/2+x,1/2+y,z
1/2-x,1/2-y,z
1/2+x,1/2-y,-z
1/2-x,1/2+y,-z
1/2-x,1/2-y,-z
1/2+x,1/2+y,-z
1/2-x,1/2+y,z
1/2+x,1/2-y,z
loop_
_atom_site_type_symbol
_atom_site_label
_atom_site_fract_x
_atom_site_fract_y
_atom_site_fract_z
Si Si1 0.170569 0.186708 0.696584
Si Si2 0.170001 0.186865 0.803960
Si Si3 0.918076 0.311189 0.606401
Si Si4 0.329776 0.186912 0.094149
Si Si5 0.919118 0.309737 0.000000
Si Si6 0.414350 0.182295 0.500000
O O1 0.250000 0.250000 0.693326
O O2 0.140546 0.230753 0.750496
O O3 0.126031 0.250343 0.651671
O O4 0.172786 0.000000 0.694625
O O5 0.250000 0.250000 0.803108
O O6 0.139434 0.256130 0.853850
O O7 0.170918 0.000000 0.807753
O O8 0.915178 0.500000 0.605438
O O9 0.892479 0.252450 0.552802
O O10 0.000000 0.266888 0.611817
O O11 0.250000 0.250000 0.089033
O O12 0.326330 0.000000 0.094688
O O13 0.376926 0.238937 0.048467
O O14 0.919594 0.500000 0.000000
O O15 0.000000 0.257519 0.000000
O O16 0.500000 0.185723 0.500000
O O17 0.393862 0.000000 0.500000
#
# Coordination Sequence:
#
# PCOD9483986 Si02
#       6
#    16  16  16  16   8   8
#     4  10  20  33  50  72 100 132 163 200 245 291
#     4   9  17  30  48  70  96 124 157 197 237 279
#     4   9  17  31  52  75  98 126 162 202 243 291
#     4  10  18  30  52  75  95 121 156 198 234 274
#     4   9  19  34  49  69  98 129 158 190 232 277
#     4   7  12  26  48  71  94 123 159 199 242 285
#
# _framework density 17.950713
#
# number of rings (size 3 to 8) (size 9 to 14) (size 15 to 20)
#    0.000    2.800    0.000    4.500    0.000    2.800 
#    0.000    3.500    0.000   10.200    0.000    0.000 
#    0.000    0.000    0.000    0.000    0.000    0.000 
#
# Total GULP energy -222775.471051 kJ/mol
# GULP energy per Si atom -5569.386776 kJ/mol
# Density = 1.790986 g / cm^3
# Si number density = 17.950713 Si / 1000 Ang^3
#
#
#
# Elastic Constant Matrix: (Units=GPa)
#
#
# Indices 1 2 3 4 5 6 
#
# 1 56.1743 18.2880 77.0472 0.0000 0.0000 0.0000
# 2 18.2880 33.9480 42.2016 0.0000 0.0000 0.0000
# 3 77.0472 42.2016 241.2293 0.0000 0.0000 0.0000
# 4 0.0000 0.0000 0.0000 26.9805 0.0000 0.0000
# 5 0.0000 0.0000 0.0000 0.0000 -350.4870 0.0000
# 6 0.0000 0.0000 0.0000 0.0000 0.0000 17.8577
#
#
#
# Elastic Compliance Matrix: (Units=1/GPa)
#
#
# Indices 1 2 3 4 5 6 
#
# 1 0.032578 -0.005898 -0.009374 0.000000 0.000000 0.000000
# 2 -0.005898 0.038711 -0.004889 0.000000 0.000000 0.000000
# 3 -0.009374 -0.004889 0.007995 0.000000 0.000000 0.000000
# 4 0.000000 0.000000 0.000000 0.037064 0.000000 0.000000
# 5 0.000000 0.000000 0.000000 0.000000 -0.002853 0.000000
# 6 0.000000 0.000000 0.000000 0.000000 0.000000 0.055998
#
#
# Mechanical properties :
#
#
# Convention : Reuss Voigt Hill
#
# Bulk Modulus (GPa) = 25.66450 67.38058 46.52254
# Shear Modulus (GPa) = 22.44160 -48.20877 -12.88359
#
# Velocity S-wave (km/s) = 3.53962 -5.18792 -2.68194
# Velocity P-wave (km/s) = 5.57077 1.31603 4.04756
#
# Compressibility (1/GPa) = 0.03896433
#
# Stress axis : x y z
#
# Youngs Moduli (GPa) = 30.69527 25.83240 125.08556
#
# Poissons Ratio (x) = 0.15235 1.17250
# Poissons Ratio (y) = 0.18103 0.61149
# Poissons Ratio (z) = 0.28772 0.12628
#
# Static dielectric constant tensor:
#      x y z
#    x 1.574950 0.000000 0.000000 
#    y 0.000000 1.617680 0.000000 
#    z 0.000000 0.000000 1.673080 
# 
# From -- ./inp_files/75056.got.cif
#   From: 2010.05.17/outbox.cif.g08.bks.cpg/sg65_38_cif.got.tgz:75056.got - 2010.06.03 17:01:31.
