data_PCOD9483289
_publ_section_title
;
Structure prediction by ZEFSAII (Michael W. Deem and Ramdas Pophale) SiO2 
 PCOD9483289
Probable space group: C M M M
;
_chemical_formula_sum "Si O2"
_cell_formula_units_Z 104
_cell_length_a 27.691776
_cell_length_b 8.906304
_cell_length_c 23.290773
_cell_angle_alpha 90.000000
_cell_angle_beta 90.000000
_cell_angle_gamma 90.000000
_cell_volume 5744.235378
_symmetry_space_group_name_H-M "C M M M"
_symmetry_group_IT_number 65
_symmetry_cell_setting 'orthorhombic'
loop_
_space_group_symop_operation_xyz
x,y,z
-x,-y,z
x,-y,-z
-x,y,-z
-x,-y,-z
x,y,-z
-x,y,z
x,-y,z
1/2+x,1/2+y,z
1/2-x,1/2-y,z
1/2+x,1/2-y,-z
1/2-x,1/2+y,-z
1/2-x,1/2-y,-z
1/2+x,1/2+y,-z
1/2-x,1/2+y,z
1/2+x,1/2-y,z
loop_
_atom_site_type_symbol
_atom_site_label
_atom_site_fract_x
_atom_site_fract_y
_atom_site_fract_z
Si Si1 0.594340 0.683069 0.363999
Si Si2 0.500000 0.683317 0.434024
Si Si3 0.700265 0.678770 0.371127
Si Si4 0.794826 0.672015 0.247654
Si Si5 0.123212 0.671427 0.152409
Si Si6 0.302046 0.675748 0.931465
Si Si7 0.943440 0.819832 0.239886
O O1 0.594720 0.500000 0.363036
O O2 0.548499 0.731603 0.401357
O O3 0.646393 0.728637 0.389970
O O4 0.584445 0.731325 0.298001
O O5 0.500000 0.500000 0.432708
O O6 0.500000 0.730460 0.500000
O O7 0.703693 0.500000 0.376978
O O8 0.750000 0.750000 0.394889
O O9 0.698527 0.728121 0.304249
O O10 0.784202 0.500000 0.264441
O O11 0.750000 0.750000 0.216283
O O12 0.839394 0.671193 0.205562
O O13 0.112171 0.500000 0.136459
O O14 0.153068 0.751581 0.102102
O O15 0.077509 0.752071 0.181204
O O16 0.299264 0.500000 0.916850
O O17 0.250000 0.750000 0.918429
O O18 0.309241 0.691280 0.000000
O O19 0.000000 0.784918 0.247240
O O20 0.938227 0.000000 0.237301
#
# Coordination Sequence:
#
# PCOD9483289 Si02
#       7
#    16   8  16  16  16  16  16
#     4   9  16  28  47  73 104 139 174 217 274 326
#     4   9  16  28  50  80 109 135 174 229 278 321
#     4  10  18  28  44  66  99 137 171 208 253 313
#     4  10  19  28  40  64  97 130 165 200 242 296
#     4  11  22  33  49  74 105 138 175 217 264 321
#     4  10  21  37  57  80 107 141 182 224 267 317
#     4  10  19  33  53  74 102 139 175 216 274 337
#
# _framework density 18.105108000000001
#
# number of rings (size 3 to 8) (size 9 to 14) (size 15 to 20)
#    0.000    2.077    2.308    3.231    0.000    4.308 
#    0.000    0.000    0.000    0.923    0.000    3.231 
#    0.000   10.462    0.000    0.000    0.000    0.615 
#
# Total GULP energy -289738.741007 kJ/mol
# GULP energy per Si atom -5571.898866 kJ/mol
# Density = 1.806390 g / cm^3
# Si number density = 18.105108 Si / 1000 Ang^3
#
#
#
# Elastic Constant Matrix: (Units=GPa)
#
#
# Indices 1 2 3 4 5 6 
#
# 1 143.6264 43.5140 36.9592 0.0000 0.0000 0.0000
# 2 43.5140 46.1194 21.0926 0.0000 0.0000 0.0000
# 3 36.9592 21.0926 54.7917 0.0000 0.0000 0.0000
# 4 0.0000 0.0000 0.0000 7.8992 0.0000 0.0000
# 5 0.0000 0.0000 0.0000 0.0000 17.5423 0.0000
# 6 0.0000 0.0000 0.0000 0.0000 0.0000 22.3410
#
#
#
# Elastic Compliance Matrix: (Units=1/GPa)
#
#
# Indices 1 2 3 4 5 6 
#
# 1 0.010403 -0.008018 -0.003931 0.000000 0.000000 0.000000
# 2 -0.008018 0.032495 -0.007101 0.000000 0.000000 0.000000
# 3 -0.003931 -0.007101 0.023636 0.000000 0.000000 0.000000
# 4 0.000000 0.000000 0.000000 0.126596 0.000000 0.000000
# 5 0.000000 0.000000 0.000000 0.000000 0.057005 0.000000
# 6 0.000000 0.000000 0.000000 0.000000 0.000000 0.044761
#
#
# Mechanical properties :
#
#
# Convention : Reuss Voigt Hill
#
# Bulk Modulus (GPa) = 35.16766 49.74099 42.45432
# Shear Modulus (GPa) = 14.59967 19.08795 16.84381
#
# Velocity S-wave (km/s) = 2.84277 3.25050 3.05345
# Velocity P-wave (km/s) = 5.49922 6.45141 5.99426
#
# Compressibility (1/GPa) = 0.02843522
#
# Stress axis : x y z
#
# Youngs Moduli (GPa) = 96.12516 30.77379 42.30815
#
# Poissons Ratio (x) = 0.24673 0.16631
# Poissons Ratio (y) = 0.77070 0.30043
# Poissons Ratio (z) = 0.37785 0.21853
#
# Static dielectric constant tensor:
#      x y z
#    x 1.687080 0.000000 0.000000 
#    y 0.000000 1.629350 0.000000 
#    z 0.000000 0.000000 1.607450 
# 
# From -- ./inp_files/71833.got.cif
#   From: 2010.05.17/outbox.cif.g08.bks.cpg/sg65_36_cif.got.tgz:71833.got - 2010.06.03 17:01:31.
