data_PCOD9483858
_publ_section_title
;
Structure prediction by ZEFSAII (Michael W. Deem and Ramdas Pophale) SiO2 
 PCOD9483858
Probable space group: C M M M
;
_chemical_formula_sum "Si O2"
_cell_formula_units_Z 88
_cell_length_a 8.738347
_cell_length_b 28.729440
_cell_length_c 21.966960
_cell_angle_alpha 90.000000
_cell_angle_beta 90.000000
_cell_angle_gamma 90.000000
_cell_volume 5514.757329
_symmetry_space_group_name_H-M "C M M M"
_symmetry_group_IT_number 65
_symmetry_cell_setting 'orthorhombic'
loop_
_space_group_symop_operation_xyz
x,y,z
-x,-y,z
x,-y,-z
-x,y,-z
-x,-y,-z
x,y,-z
-x,y,z
x,-y,z
1/2+x,1/2+y,z
1/2-x,1/2-y,z
1/2+x,1/2-y,-z
1/2-x,1/2+y,-z
1/2-x,1/2-y,-z
1/2+x,1/2+y,-z
1/2-x,1/2+y,z
1/2+x,1/2-y,z
loop_
_atom_site_type_symbol
_atom_site_label
_atom_site_fract_x
_atom_site_fract_y
_atom_site_fract_z
Si Si1 0.318070 0.944018 0.568324
Si Si2 0.818120 0.894044 0.313878
Si Si3 0.818134 0.556324 0.065493
Si Si4 0.814913 0.554185 0.198321
Si Si5 0.817186 0.697522 0.500000
Si Si6 0.182763 0.198604 0.373991
O O1 0.266324 0.929915 0.500000
O O2 0.500000 0.934139 0.571995
O O3 0.236465 0.920323 0.625083
O O4 0.299906 0.000000 0.572480
O O5 0.742416 0.916146 0.254697
O O6 0.781735 0.839417 0.322872
O O7 0.000000 0.898746 0.309304
O O8 0.806104 0.500000 0.066266
O O9 0.758731 0.571427 0.131665
O O10 0.000000 0.566743 0.064612
O O11 0.753430 0.572403 0.000000
O O12 0.768778 0.500000 0.206148
O O13 0.000000 0.554812 0.197238
O O14 0.750000 0.750000 0.500000
O O15 0.753818 0.678486 0.436727
O O16 0.000000 0.697503 0.500000
O O17 0.250000 0.250000 0.363132
O O18 0.000000 0.202497 0.381573
#
# Coordination Sequence:
#
# PCOD9483858 Si02
#       6
#    16  16  16  16   8  16
#     4   9  19  35  51  66  85 112 151 193 225 260
#     4  11  23  33  45  66  92 119 148 185 228 274
#     4   7  10  19  38  64  91 118 150 187 220 247
#     4   9  17  29  46  68  94 125 159 189 216 256
#     4  10  18  30  50  70  85 104 131 170 224 277
#     4  10  21  36  50  66  88 112 143 184 229 278
#
# _framework density 15.957184
#
# number of rings (size 3 to 8) (size 9 to 14) (size 15 to 20)
#    0.000    2.727    0.000    5.727    1.273    6.182 
#    0.000    0.909    0.000    0.545    0.000    2.545 
#    0.000    0.727    0.000    1.636    0.000    2.545 
#
# Total GULP energy -245104.200679 kJ/mol
# GULP energy per Si atom -5570.550015 kJ/mol
# Density = 1.592086 g / cm^3
# Si number density = 15.957184 Si / 1000 Ang^3
#
#
#
# Elastic Constant Matrix: (Units=GPa)
#
#
# Indices 1 2 3 4 5 6 
#
# 1 34.2527 28.0217 35.2311 0.0000 0.0000 0.0000
# 2 28.0217 56.5856 60.7862 0.0000 0.0000 0.0000
# 3 35.2311 60.7862 161.0801 0.0000 0.0000 0.0000
# 4 0.0000 0.0000 0.0000 11.9015 0.0000 0.0000
# 5 0.0000 0.0000 0.0000 0.0000 2.4556 0.0000
# 6 0.0000 0.0000 0.0000 0.0000 0.0000 18.4216
#
#
#
# Elastic Compliance Matrix: (Units=1/GPa)
#
#
# Indices 1 2 3 4 5 6 
#
# 1 0.049748 -0.021774 -0.002664 0.000000 0.000000 0.000000
# 2 -0.021774 0.039250 -0.010049 0.000000 0.000000 0.000000
# 3 -0.002664 -0.010049 0.010583 0.000000 0.000000 0.000000
# 4 0.000000 0.000000 0.000000 0.084023 0.000000 0.000000
# 5 0.000000 0.000000 0.000000 0.000000 0.407240 0.000000
# 6 0.000000 0.000000 0.000000 0.000000 0.000000 0.054284
#
#
# Mechanical properties :
#
#
# Convention : Reuss Voigt Hill
#
# Bulk Modulus (GPa) = 32.67256 55.55515 44.11386
# Shear Modulus (GPa) = 6.90316 15.08102 10.99209
#
# Velocity S-wave (km/s) = 2.08217 3.07757 2.62744
# Velocity P-wave (km/s) = 5.12837 6.89343 6.07534
#
# Compressibility (1/GPa) = 0.03060672
#
# Stress axis : x y z
#
# Youngs Moduli (GPa) = 20.10141 25.47746 94.49034
#
# Poissons Ratio (x) = 0.55474 0.25173
# Poissons Ratio (y) = 0.43768 0.94958
# Poissons Ratio (z) = 0.05355 0.25603
#
# Static dielectric constant tensor:
#      x y z
#    x 1.534390 0.000000 0.000000 
#    y 0.000000 1.503240 0.000000 
#    z 0.000000 0.000000 1.571550 
# 
# From -- ./inp_files/60649.got.cif
#   From: 2010.05.17/outbox.cif.g08.bks.cpg/sg65_31_cif.got.tgz:60649.got - 2010.06.03 17:01:31.
