data_PCOD9483840
_publ_section_title
;
Structure prediction by ZEFSAII (Michael W. Deem and Ramdas Pophale) SiO2 
 PCOD9483840
Probable space group: C M M M
;
_chemical_formula_sum "Si O2"
_cell_formula_units_Z 72
_cell_length_a 27.798949
_cell_length_b 7.826833
_cell_length_c 16.510927
_cell_angle_alpha 90.000000
_cell_angle_beta 90.000000
_cell_angle_gamma 90.000000
_cell_volume 3592.410040
_symmetry_space_group_name_H-M "C M M M"
_symmetry_group_IT_number 65
_symmetry_cell_setting 'orthorhombic'
loop_
_space_group_symop_operation_xyz
x,y,z
-x,-y,z
x,-y,-z
-x,y,-z
-x,-y,-z
x,y,-z
-x,y,z
x,-y,z
1/2+x,1/2+y,z
1/2-x,1/2-y,z
1/2+x,1/2-y,-z
1/2-x,1/2+y,-z
1/2-x,1/2-y,-z
1/2+x,1/2+y,-z
1/2-x,1/2+y,z
1/2+x,1/2-y,z
loop_
_atom_site_type_symbol
_atom_site_label
_atom_site_fract_x
_atom_site_fract_y
_atom_site_fract_z
Si Si1 0.552858 0.798920 0.257778
Si Si2 0.305876 0.794280 0.500000
Si Si3 0.348189 0.209265 0.669925
Si Si4 0.903946 0.200481 0.910654
Si Si5 0.196003 0.296200 0.161198
O O1 0.500000 0.723746 0.271744
O O2 0.598057 0.729617 0.308316
O O3 0.567798 0.783151 0.163754
O O4 0.550447 0.000000 0.276796
O O5 0.250000 0.750000 0.500000
O O6 0.329728 0.730960 0.416816
O O7 0.310626 0.000000 0.500000
O O8 0.314575 0.259865 0.745818
O O9 0.348443 0.000000 0.669302
O O10 0.847095 0.221136 0.892257
O O11 0.915471 0.000000 0.909367
O O12 0.914890 0.269424 0.000000
O O13 0.190612 0.500000 0.158012
O O14 0.250000 0.250000 0.137116
#
# Coordination Sequence:
#
# PCOD9483840 Si02
#       5
#    16   8  16  16  16
#     4   9  18  34  54  73  96 128 164 201 245 296
#     4  10  18  30  49  73 103 133 162 198 239 282
#     4   8  16  30  48  72 100 129 162 200 239 284
#     4  10  21  35  50  71  98 126 161 205 249 294
#     4  10  19  32  50  71  98 132 168 203 243 293
#
# _framework density 20.042255000000001
#
# number of rings (size 3 to 8) (size 9 to 14) (size 15 to 20)
#    0.000    2.667    0.000    3.333    0.000    3.111 
#    0.000    7.222    0.000    3.333    0.000    0.000 
#    0.000    8.000    0.000    0.000    0.000    0.000 
#
# Total GULP energy -200859.377119 kJ/mol
# GULP energy per Si atom -5579.427142 kJ/mol
# Density = 1.999664 g / cm^3
# Si number density = 20.042255 Si / 1000 Ang^3
#
#
#
# Elastic Constant Matrix: (Units=GPa)
#
#
# Indices 1 2 3 4 5 6 
#
# 1 106.0883 -11.2594 21.3448 0.0000 0.0000 0.0000
# 2 -11.2594 26.4292 -5.9086 0.0000 0.0000 0.0000
# 3 21.3448 -5.9086 98.6449 0.0000 0.0000 0.0000
# 4 0.0000 0.0000 0.0000 -50.3858 0.0000 0.0000
# 5 0.0000 0.0000 0.0000 0.0000 4.7745 0.0000
# 6 0.0000 0.0000 0.0000 0.0000 0.0000 15.6857
#
#
#
# Elastic Compliance Matrix: (Units=1/GPa)
#
#
# Indices 1 2 3 4 5 6 
#
# 1 0.010241 0.003920 -0.001981 0.000000 0.000000 0.000000
# 2 0.003920 0.039851 0.001539 0.000000 0.000000 0.000000
# 3 -0.001981 0.001539 0.010658 0.000000 0.000000 0.000000
# 4 0.000000 0.000000 0.000000 -0.019847 0.000000 0.000000
# 5 0.000000 0.000000 0.000000 0.000000 0.209445 0.000000
# 6 0.000000 0.000000 0.000000 0.000000 0.000000 0.063752
#
#
# Mechanical properties :
#
#
# Convention : Reuss Voigt Hill
#
# Bulk Modulus (GPa) = 14.76996 26.61288 20.69142
# Shear Modulus (GPa) = 15.16468 9.14725 12.15596
#
# Velocity S-wave (km/s) = 2.75368 2.13867 2.46543
# Velocity P-wave (km/s) = 4.18280 4.40519 4.29543
#
# Compressibility (1/GPa) = 0.06770500
#
# Stress axis : x y z
#
# Youngs Moduli (GPa) = 97.64922 25.09353 93.82434
#
# Poissons Ratio (x) = -0.09836 0.18588
# Poissons Ratio (y) = -0.38277 -0.14438
# Poissons Ratio (z) = 0.19345 -0.03861
#
# Static dielectric constant tensor:
#      x y z
#    x 1.710490 0.000000 0.000000 
#    y 0.000000 1.742450 0.000000 
#    z 0.000000 0.000000 1.698470 
# 
# From -- ./inp_files/36522.got.cif
#   From: 2010.05.17/outbox.cif.g08.bks.cpg/sg65_19_cif.got.tgz:36522.got - 2010.06.03 17:01:31.
