data_PCOD9483596
_publ_section_title
;
Structure prediction by ZEFSAII (Michael W. Deem and Ramdas Pophale) SiO2 
 PCOD9483596
Probable space group: C M M M
;
_chemical_formula_sum "Si O2"
_cell_formula_units_Z 100
_cell_length_a 21.262554
_cell_length_b 8.739899
_cell_length_c 27.679563
_cell_angle_alpha 90.000000
_cell_angle_beta 90.000000
_cell_angle_gamma 90.000000
_cell_volume 5143.764452
_symmetry_space_group_name_H-M "C M M M"
_symmetry_group_IT_number 65
_symmetry_cell_setting 'orthorhombic'
loop_
_space_group_symop_operation_xyz
x,y,z
-x,-y,z
x,-y,-z
-x,y,-z
-x,-y,-z
x,y,-z
-x,y,z
x,-y,z
1/2+x,1/2+y,z
1/2-x,1/2-y,z
1/2+x,1/2-y,-z
1/2-x,1/2+y,-z
1/2-x,1/2-y,-z
1/2+x,1/2+y,-z
1/2-x,1/2+y,z
1/2+x,1/2-y,z
loop_
_atom_site_type_symbol
_atom_site_label
_atom_site_fract_x
_atom_site_fract_y
_atom_site_fract_z
Si Si1 0.000000 0.670808 0.891889
Si Si2 0.858400 0.170780 0.000000
Si Si3 0.571651 0.684300 0.737960
Si Si4 0.069978 0.814089 0.624745
Si Si5 0.682173 0.684801 0.443950
Si Si6 0.686039 0.818451 0.798033
Si Si7 0.635263 0.315673 0.106347
Si Si8 0.000000 0.250946 0.000000
O O1 0.064258 0.760424 0.881384
O O2 0.000000 0.500000 0.870806
O O3 0.000000 0.659184 0.950206
O O4 0.845004 0.241884 0.052533
O O5 0.934704 0.160205 0.000000
O O6 0.830934 0.000000 0.000000
O O7 0.500000 0.724274 0.752625
O O8 0.577927 0.500000 0.743063
O O9 0.578863 0.723041 0.681194
O O10 0.625102 0.765790 0.768382
O O11 0.126112 0.760414 0.590593
O O12 0.000000 0.761965 0.609933
O O13 0.069592 0.000000 0.622233
O O14 0.670723 0.727497 0.500000
O O15 0.684676 0.500000 0.441676
O O16 0.750000 0.750000 0.429608
O O17 0.750000 0.750000 0.776223
O O18 0.677993 0.749234 0.851519
O O19 0.689765 0.000000 0.800253
O O20 0.636020 0.500000 0.105356
#
# Coordination Sequence:
#
# PCOD9483596 Si02
#       8
#     8   8  16  16  16  16  16   4
#     4  10  18  29  48  79 112 145 182 221 265 314
#     4   8  15  29  52  79 107 141 180 221 265 323
#     4   9  19  38  63  87 113 146 185 230 286 346
#     4   8  15  30  53  81 110 141 182 232 280 330
#     4   9  17  29  47  74 110 151 193 235 278 325
#     4  12  26  43  61  83 113 146 186 233 283 341
#     4  10  20  36  57  82 112 146 184 225 274 329
#     4   8  14  24  42  70 109 144 175 218 263 306
#
# _framework density 19.441015
#
# number of rings (size 3 to 8) (size 9 to 14) (size 15 to 20)
#    0.000    2.560    0.000    3.360    1.120    3.200 
#    0.000    5.600    0.000    1.440    0.000    2.240 
#    0.000    0.000    0.000    0.000    0.000    0.000 
#
# Total GULP energy -278855.827105 kJ/mol
# GULP energy per Si atom -5577.116542 kJ/mol
# Density = 1.939677 g / cm^3
# Si number density = 19.441015 Si / 1000 Ang^3
#
#
#
# Elastic Constant Matrix: (Units=GPa)
#
#
# Indices 1 2 3 4 5 6 
#
# 1 136.8334 39.4599 78.9614 0.0000 0.0000 0.0000
# 2 39.4599 64.1955 25.8084 0.0000 0.0000 0.0000
# 3 78.9614 25.8084 79.6695 0.0000 0.0000 0.0000
# 4 0.0000 0.0000 0.0000 119.9410 0.0000 0.0000
# 5 0.0000 0.0000 0.0000 0.0000 -27.9578 0.0000
# 6 0.0000 0.0000 0.0000 0.0000 0.0000 24.1713
#
#
#
# Elastic Compliance Matrix: (Units=1/GPa)
#
#
# Indices 1 2 3 4 5 6 
#
# 1 0.018141 -0.004510 -0.016519 0.000000 0.000000 0.000000
# 2 -0.004510 0.019031 -0.001695 0.000000 0.000000 0.000000
# 3 -0.016519 -0.001695 0.029473 0.000000 0.000000 0.000000
# 4 0.000000 0.000000 0.000000 0.008337 0.000000 0.000000
# 5 0.000000 0.000000 0.000000 0.000000 -0.035768 0.000000
# 6 0.000000 0.000000 0.000000 0.000000 0.000000 0.041371
#
#
# Mechanical properties :
#
#
# Convention : Reuss Voigt Hill
#
# Bulk Modulus (GPa) = 47.17585 63.23976 55.20780
# Shear Modulus (GPa) = 37.56569 32.32882 34.94726
#
# Velocity S-wave (km/s) = 4.40055 4.08231 4.24442
# Velocity P-wave (km/s) = 7.08086 7.40406 7.24426
#
# Compressibility (1/GPa) = 0.02119729
#
# Stress axis : x y z
#
# Youngs Moduli (GPa) = 55.12292 52.54560 33.92914
#
# Poissons Ratio (x) = 0.23698 0.56048
# Poissons Ratio (y) = 0.24860 0.05751
# Poissons Ratio (z) = 0.91058 0.08907
#
# Static dielectric constant tensor:
#      x y z
#    x 1.685830 0.000000 0.000000 
#    y 0.000000 1.674880 0.000000 
#    z 0.000000 0.000000 1.694950 
# 
# From -- ./inp_files/75572.got.cif
#   From: 2010.05.17/outbox.cif.g08.bks.cpg/sg65_38_cif.got.tgz:75572.got - 2010.06.03 17:01:31.
