data_PCOD9483845
_publ_section_title
;
Structure prediction by ZEFSAII (Michael W. Deem and Ramdas Pophale) SiO2 
 PCOD9483845
Probable space group: C M M M
;
_chemical_formula_sum "Si O2"
_cell_formula_units_Z 80
_cell_length_a 27.072376
_cell_length_b 19.605147
_cell_length_c 8.203134
_cell_angle_alpha 90.000000
_cell_angle_beta 90.000000
_cell_angle_gamma 90.000000
_cell_volume 4353.878266
_symmetry_space_group_name_H-M "C M M M"
_symmetry_group_IT_number 65
_symmetry_cell_setting 'orthorhombic'
loop_
_space_group_symop_operation_xyz
x,y,z
-x,-y,z
x,-y,-z
-x,y,-z
-x,-y,-z
x,y,-z
-x,y,z
x,-y,z
1/2+x,1/2+y,z
1/2-x,1/2-y,z
1/2+x,1/2-y,-z
1/2-x,1/2+y,-z
1/2-x,1/2-y,-z
1/2+x,1/2+y,-z
1/2-x,1/2+y,z
1/2+x,1/2-y,z
loop_
_atom_site_type_symbol
_atom_site_label
_atom_site_fract_x
_atom_site_fract_y
_atom_site_fract_z
Si Si1 0.896832 0.671957 0.694026
Si Si2 0.892650 0.170112 0.300215
Si Si3 0.192791 0.578488 0.805155
Si Si4 0.000000 0.837498 0.689422
Si Si5 0.698730 0.421469 0.303076
Si Si6 0.500000 0.814073 0.811455
O O1 0.902897 0.672321 0.500000
O O2 0.887933 0.750545 0.747988
O O3 0.850873 0.625226 0.739442
O O4 0.948789 0.648766 0.771858
O O5 0.893593 0.168817 0.500000
O O6 0.946317 0.142851 0.242174
O O7 0.846353 0.125425 0.245886
O O8 0.187566 0.500000 0.746514
O O9 0.247262 0.602558 0.752294
O O10 0.190559 0.578298 0.000000
O O11 0.000000 0.754836 0.702925
O O12 0.000000 0.857880 0.500000
O O13 0.698120 0.421229 0.500000
O O14 0.692666 0.500000 0.248110
O O15 0.500000 0.793435 0.000000
#
# Coordination Sequence:
#
# PCOD9483845 Si02
#       6
#    16  16  16   8  16   8
#     4  10  19  33  53  74  98 128 162 198 238 287
#     4   8  15  28  48  73  98 126 162 203 241 279
#     4  10  21  36  51  69  96 127 159 200 248 291
#     4   8  14  28  47  67  97 134 165 196 241 289
#     4   9  17  31  50  70  95 130 168 201 239 290
#     4  10  18  30  49  74 103 129 157 195 239 284
#
# _framework density 18.374421999999999
#
# number of rings (size 3 to 8) (size 9 to 14) (size 15 to 20)
#    0.000    2.800    0.000    3.300    0.000    2.000 
#    0.000   10.000    0.000    6.000    0.000    0.000 
#    0.000   16.000    0.000    0.000    0.000    0.000 
#
# Total GULP energy -222894.834685 kJ/mol
# GULP energy per Si atom -5572.370867 kJ/mol
# Density = 1.833260 g / cm^3
# Si number density = 18.374422 Si / 1000 Ang^3
#
#
#
# Elastic Constant Matrix: (Units=GPa)
#
#
# Indices 1 2 3 4 5 6 
#
# 1 218.8955 81.2719 20.2018 0.0000 0.0000 0.0000
# 2 81.2719 51.7565 11.4066 0.0000 0.0000 0.0000
# 3 20.2018 11.4066 25.1648 0.0000 0.0000 0.0000
# 4 0.0000 0.0000 0.0000 10.9118 0.0000 0.0000
# 5 0.0000 0.0000 0.0000 0.0000 -17.3945 0.0000
# 6 0.0000 0.0000 0.0000 0.0000 0.0000 -47.3029
#
#
#
# Elastic Compliance Matrix: (Units=1/GPa)
#
#
# Indices 1 2 3 4 5 6 
#
# 1 0.010984 -0.017002 -0.001111 0.000000 0.000000 0.000000
# 2 -0.017002 0.047785 -0.008011 0.000000 0.000000 0.000000
# 3 -0.001111 -0.008011 0.044261 0.000000 0.000000 0.000000
# 4 0.000000 0.000000 0.000000 0.091644 0.000000 0.000000
# 5 0.000000 0.000000 0.000000 0.000000 -0.057489 0.000000
# 6 0.000000 0.000000 0.000000 0.000000 0.000000 -0.021140
#
#
# Mechanical properties :
#
#
# Convention : Reuss Voigt Hill
#
# Bulk Modulus (GPa) = 19.69203 57.95305 38.82254
# Shear Modulus (GPa) = 26.99509 1.43864 14.21687
#
# Velocity S-wave (km/s) = 3.83713 0.88581 2.78462
# Velocity P-wave (km/s) = 5.51106 5.71443 5.61367
#
# Compressibility (1/GPa) = 0.05078196
#
# Stress axis : x y z
#
# Youngs Moduli (GPa) = 91.04496 20.92698 22.59342
#
# Poissons Ratio (x) = 0.35581 0.02509
# Poissons Ratio (y) = 1.54799 0.18099
# Poissons Ratio (z) = 0.10111 0.16764
#
# Static dielectric constant tensor:
#      x y z
#    x 1.652510 0.000000 0.000000 
#    y 0.000000 1.618450 0.000000 
#    z 0.000000 0.000000 1.644150 
# 
# From -- ./inp_files/11574.got.cif
#   From: 2010.05.17/outbox.cif.g08.bks.cpg/sg65_6_cif.got.tgz:11574.got - 2010.06.03 17:01:31.
