data_PCOD9483792
_publ_section_title
;
Structure prediction by ZEFSAII (Michael W. Deem and Ramdas Pophale) SiO2 
 PCOD9483792
Probable space group: C M M M
;
_chemical_formula_sum "Si O2"
_cell_formula_units_Z 72
_cell_length_a 9.214914
_cell_length_b 14.684918
_cell_length_c 24.553596
_cell_angle_alpha 90.000000
_cell_angle_beta 90.000000
_cell_angle_gamma 90.000000
_cell_volume 3322.598908
_symmetry_space_group_name_H-M "C M M M"
_symmetry_group_IT_number 65
_symmetry_cell_setting 'orthorhombic'
loop_
_space_group_symop_operation_xyz
x,y,z
-x,-y,z
x,-y,-z
-x,y,-z
-x,-y,-z
x,y,-z
-x,y,z
x,-y,z
1/2+x,1/2+y,z
1/2-x,1/2-y,z
1/2+x,1/2-y,-z
1/2-x,1/2+y,-z
1/2-x,1/2-y,-z
1/2+x,1/2+y,-z
1/2-x,1/2+y,z
1/2+x,1/2-y,z
loop_
_atom_site_type_symbol
_atom_site_label
_atom_site_fract_x
_atom_site_fract_y
_atom_site_fract_z
Si Si1 0.676813 0.851890 0.000000
Si Si2 0.831949 0.110957 0.559436
Si Si3 0.324212 0.348723 0.107008
Si Si4 0.336478 0.888226 0.666875
Si Si5 0.160107 0.893081 0.230009
O O1 0.750000 0.750000 0.000000
O O2 0.743101 0.893386 0.055395
O O3 0.500000 0.848769 0.000000
O O4 0.772372 0.138630 0.500000
O O5 0.749001 0.140976 0.613115
O O6 0.000000 0.138290 0.562502
O O7 0.829597 0.000000 0.560034
O O8 0.500000 0.346019 0.098186
O O9 0.250000 0.250000 0.110568
O O10 0.296085 0.388109 0.166881
O O11 0.500000 0.856106 0.663697
O O12 0.265391 0.857488 0.723531
O O13 0.338059 0.000000 0.666622
O O14 0.000000 0.850469 0.234236
O O15 0.146816 0.000000 0.242128
#
# Coordination Sequence:
#
# PCOD9483792 Si02
#       5
#     8  16  16  16  16
#     4  10  18  30  49  70  93 119 147 181 221 266
#     4   8  13  21  33  49  72 106 146 183 218 260
#     4  10  19  32  51  72  93 117 148 186 224 263
#     4   9  16  24  36  56  82 112 144 181 225 267
#     4   9  18  32  48  65  88 121 156 185 217 263
#
# _framework density 21.669784
#
# number of rings (size 3 to 8) (size 9 to 14) (size 15 to 20)
#    0.000    2.889    0.000    4.333    0.000    4.889 
#    0.000    2.778    0.000    3.333    0.000    0.000 
#    0.000    0.889    0.000    2.889    0.000    5.778 
#
# Total GULP energy -200670.500177 kJ/mol
# GULP energy per Si atom -5574.180560 kJ/mol
# Density = 2.162046 g / cm^3
# Si number density = 21.669784 Si / 1000 Ang^3
#
#
#
# Elastic Constant Matrix: (Units=GPa)
#
#
# Indices 1 2 3 4 5 6 
#
# 1 142.1529 9.7640 136.1521 0.0000 0.0000 0.0000
# 2 9.7640 45.8285 -0.0459 0.0000 0.0000 0.0000
# 3 136.1521 -0.0459 234.3929 0.0000 0.0000 0.0000
# 4 0.0000 0.0000 0.0000 30.3988 0.0000 0.0000
# 5 0.0000 0.0000 0.0000 0.0000 -202.6187 0.0000
# 6 0.0000 0.0000 0.0000 0.0000 0.0000 3.0752
#
#
#
# Elastic Compliance Matrix: (Units=1/GPa)
#
#
# Indices 1 2 3 4 5 6 
#
# 1 0.016400 -0.003504 -0.009527 0.000000 0.000000 0.000000
# 2 -0.003504 0.022569 0.002040 0.000000 0.000000 0.000000
# 3 -0.009527 0.002040 0.009801 0.000000 0.000000 0.000000
# 4 0.000000 0.000000 0.000000 0.032896 0.000000 0.000000
# 5 0.000000 0.000000 0.000000 0.000000 -0.004935 0.000000
# 6 0.000000 0.000000 0.000000 0.000000 0.000000 0.325182
#
#
# Mechanical properties :
#
#
# Convention : Reuss Voigt Hill
#
# Bulk Modulus (GPa) = 37.33067 79.34607 58.33837
# Shear Modulus (GPa) = 11.55203 -15.39533 -1.92165
#
# Velocity S-wave (km/s) = 2.31139 -2.66832 -0.94272
# Velocity P-wave (km/s) = 4.93840 5.21558 5.07888
#
# Compressibility (1/GPa) = 0.02678763
#
# Stress axis : x y z
#
# Youngs Moduli (GPa) = 60.97441 44.30854 102.03252
#
# Poissons Ratio (x) = 0.15525 0.97208
# Poissons Ratio (y) = 0.21364 -0.20811
# Poissons Ratio (z) = 0.58091 -0.09037
#
# Static dielectric constant tensor:
#      x y z
#    x 1.755090 0.000000 0.000000 
#    y 0.000000 1.897240 0.000000 
#    z 0.000000 0.000000 1.835470 
# 
# From -- ./inp_files/64996.got.cif
#   From: 2010.05.17/outbox.cif.g08.bks.cpg/sg65_33_cif.got.tgz:64996.got - 2010.06.03 17:01:31.
