data_PCOD9483573
_publ_section_title
;
Structure prediction by ZEFSAII (Michael W. Deem and Ramdas Pophale) SiO2 
 PCOD9483573
Probable space group: C M M M
;
_chemical_formula_sum "Si O2"
_cell_formula_units_Z 80
_cell_length_a 7.494744
_cell_length_b 29.749963
_cell_length_c 17.482881
_cell_angle_alpha 90.000000
_cell_angle_beta 90.000000
_cell_angle_gamma 90.000000
_cell_volume 3898.129247
_symmetry_space_group_name_H-M "C M M M"
_symmetry_group_IT_number 65
_symmetry_cell_setting 'orthorhombic'
loop_
_space_group_symop_operation_xyz
x,y,z
-x,-y,z
x,-y,-z
-x,y,-z
-x,-y,-z
x,y,-z
-x,y,z
x,-y,z
1/2+x,1/2+y,z
1/2-x,1/2-y,z
1/2+x,1/2-y,-z
1/2-x,1/2+y,-z
1/2-x,1/2-y,-z
1/2+x,1/2+y,-z
1/2-x,1/2+y,z
1/2+x,1/2-y,z
loop_
_atom_site_type_symbol
_atom_site_label
_atom_site_fract_x
_atom_site_fract_y
_atom_site_fract_z
Si Si1 0.217884 0.051834 0.585108
Si Si2 0.708071 0.622904 0.705284
Si Si3 0.213194 0.197325 0.000000
Si Si4 0.288122 0.802742 0.584977
Si Si5 0.282808 0.448306 0.000000
Si Si6 0.718283 0.625791 0.877690
O O1 0.274962 0.066279 0.500000
O O2 0.285615 0.084027 0.651402
O O3 0.000000 0.053337 0.585075
O O4 0.268421 0.000000 0.596092
O O5 0.500000 0.611590 0.715845
O O6 0.716985 0.667797 0.654468
O O7 0.782669 0.626527 0.790558
O O8 0.250000 0.250000 0.000000
O O9 0.277315 0.169410 0.926032
O O10 0.000000 0.192928 0.000000
O O11 0.218387 0.815785 0.500000
O O12 0.500000 0.808958 0.584119
O O13 0.250000 0.750000 0.594933
O O14 0.230100 0.418544 0.926098
O O15 0.221453 0.500000 0.000000
O O16 0.500000 0.449417 0.000000
O O17 0.500000 0.626550 0.877132
#
# Coordination Sequence:
#
# PCOD9483573 Si02
#       6
#    16  16   8  16   8  16
#     4   8  14  24  39  63  94 124 154 189 228 269
#     4  10  18  29  48  72  98 127 159 199 244 283
#     4   9  17  32  49  63  87 120 150 184 228 276
#     4  10  21  36  52  70  94 125 161 198 238 288
#     4   8  13  24  43  66  97 134 163 191 235 287
#     4   8  16  28  42  66  96 122 153 194 235 277
#
# _framework density 20.522666000000001
#
# number of rings (size 3 to 8) (size 9 to 14) (size 15 to 20)
#    0.000    3.100    0.000    3.000    0.000    3.600 
#    0.000    7.000    0.000    0.600    0.000    2.800 
#    0.000   13.600    0.000    0.000    0.000    0.000 
#
# Total GULP energy -223118.866584 kJ/mol
# GULP energy per Si atom -5577.971665 kJ/mol
# Density = 2.047596 g / cm^3
# Si number density = 20.522666 Si / 1000 Ang^3
#
#
#
# Elastic Constant Matrix: (Units=GPa)
#
#
# Indices 1 2 3 4 5 6 
#
# 1 56.4118 -5.7003 6.5350 0.0000 0.0000 0.0000
# 2 -5.7003 159.0884 123.3792 0.0000 0.0000 0.0000
# 3 6.5350 123.3792 241.7585 0.0000 0.0000 0.0000
# 4 0.0000 0.0000 0.0000 -30.4326 0.0000 0.0000
# 5 0.0000 0.0000 0.0000 0.0000 -0.8022 0.0000
# 6 0.0000 0.0000 0.0000 0.0000 0.0000 5.5499
#
#
#
# Elastic Compliance Matrix: (Units=1/GPa)
#
#
# Indices 1 2 3 4 5 6 
#
# 1 0.018055 0.001697 -0.001354 0.000000 0.000000 0.000000
# 2 0.001697 0.010563 -0.005437 0.000000 0.000000 0.000000
# 3 -0.001354 -0.005437 0.006947 0.000000 0.000000 0.000000
# 4 0.000000 0.000000 0.000000 -0.032860 0.000000 0.000000
# 5 0.000000 0.000000 0.000000 0.000000 -1.246641 0.000000
# 6 0.000000 0.000000 0.000000 0.000000 0.000000 0.180182
#
#
# Mechanical properties :
#
#
# Convention : Reuss Voigt Hill
#
# Bulk Modulus (GPa) = 39.40366 78.40959 58.90663
# Shear Modulus (GPa) = -4.78420 17.06604 6.14092
#
# Velocity S-wave (km/s) = -1.52848 2.88682 1.73169
# Velocity P-wave (km/s) = 4.01581 7.02858 5.72397
#
# Compressibility (1/GPa) = 0.02537835
#
# Stress axis : x y z
#
# Youngs Moduli (GPa) = 55.38587 94.67122 143.93769
#
# Poissons Ratio (x) = -0.16067 0.19492
# Poissons Ratio (y) = -0.09400 0.78252
# Poissons Ratio (z) = 0.07500 0.51468
#
# Static dielectric constant tensor:
#      x y z
#    x 1.809070 0.000000 0.000000 
#    y 0.000000 1.705330 0.000000 
#    z 0.000000 0.000000 1.755560 
# 
# From -- ./inp_files/49969.got.cif
#   From: 2010.05.17/outbox.cif.g08.bks.cpg/sg65_25_cif.got.tgz:49969.got - 2010.06.03 17:01:31.
