data_PCOD9483430
_publ_section_title
;
Structure prediction by ZEFSAII (Michael W. Deem and Ramdas Pophale) SiO2 
 PCOD9483430
Probable space group: C M M M
;
_chemical_formula_sum "Si O2"
_cell_formula_units_Z 90
_cell_length_a 23.438733
_cell_length_b 31.142418
_cell_length_c 9.482567
_cell_angle_alpha 90.000000
_cell_angle_beta 90.000000
_cell_angle_gamma 90.000000
_cell_volume 6921.693771
_symmetry_space_group_name_H-M "C M M M"
_symmetry_group_IT_number 65
_symmetry_cell_setting 'orthorhombic'
loop_
_space_group_symop_operation_xyz
x,y,z
-x,-y,z
x,-y,-z
-x,y,-z
-x,-y,-z
x,y,-z
-x,y,z
x,-y,z
1/2+x,1/2+y,z
1/2-x,1/2-y,z
1/2+x,1/2-y,-z
1/2-x,1/2+y,-z
1/2-x,1/2-y,-z
1/2+x,1/2+y,-z
1/2-x,1/2+y,z
1/2+x,1/2-y,z
loop_
_atom_site_type_symbol
_atom_site_label
_atom_site_fract_x
_atom_site_fract_y
_atom_site_fract_z
Si Si1 0.000000 0.267853 0.336055
Si Si2 0.396255 0.906295 0.839042
Si Si3 0.500000 0.129064 0.659170
Si Si4 0.564725 0.000000 0.788724
Si Si5 0.211286 0.206809 0.337725
Si Si6 0.383895 0.246080 0.831925
Si Si7 0.805122 0.338374 0.834676
Si Si8 0.000000 0.500000 0.500000
O O1 0.943529 0.254556 0.250691
O O2 0.000000 0.253076 0.500000
O O3 0.000000 0.319711 0.341006
O O4 0.444728 0.887981 0.738091
O O5 0.336787 0.883152 0.804641
O O6 0.401251 0.957356 0.828927
O O7 0.409664 0.893164 0.000000
O O8 0.500000 0.111824 0.500000
O O9 0.549192 0.000000 0.624126
O O10 0.500000 0.000000 0.852374
O O11 0.196288 0.196757 0.500000
O O12 0.250000 0.250000 0.340371
O O13 0.157534 0.219129 0.241020
O O14 0.251621 0.171734 0.264119
O O15 0.351866 0.199873 0.814138
O O16 0.390581 0.252893 0.000000
O O17 0.788474 0.336606 0.000000
#
# Coordination Sequence:
#
# PCOD9483430 Si02
#       8
#     8  16   8   8  16  16  16   2
#     4  11  21  30  39  61  85 108 134 170 209 248
#     4  11  21  32  46  59  77 103 138 175 211 254
#     4  11  22  29  41  57  80 104 133 172 217 252
#     4  10  21  32  44  59  78 107 136 172 217 254
#     4   9  17  29  43  60  79 101 126 161 203 245
#     4  10  18  29  44  59  79 105 133 166 201 245
#     4   9  18  30  43  60  76 100 133 170 205 243
#     4   8  20  36  42  56  80 104 134 176 212 266
#
# _framework density 13.002598000000001
#
# number of rings (size 3 to 8) (size 9 to 14) (size 15 to 20)
#    0.267    1.778    2.667    1.867    2.489    4.622 
#    0.000    0.000    0.000    0.000    0.000    0.000 
#    0.000    0.000    0.000    0.000    0.000    0.889 
#
# Total GULP energy -250515.130515 kJ/mol
# GULP energy per Si atom -5567.002900 kJ/mol
# Density = 1.297300 g / cm^3
# Si number density = 13.002598 Si / 1000 Ang^3
#
#
#
# Elastic Constant Matrix: (Units=GPa)
#
#
# Indices 1 2 3 4 5 6 
#
# 1 76.7112 39.2960 54.3885 0.0000 0.0000 0.0000
# 2 39.2960 59.2080 30.9238 0.0000 0.0000 0.0000
# 3 54.3885 30.9238 108.5709 0.0000 0.0000 0.0000
# 4 0.0000 0.0000 0.0000 -0.1342 0.0000 0.0000
# 5 0.0000 0.0000 0.0000 0.0000 32.1430 0.0000
# 6 0.0000 0.0000 0.0000 0.0000 0.0000 -67.0701
#
#
#
# Elastic Compliance Matrix: (Units=1/GPa)
#
#
# Indices 1 2 3 4 5 6 
#
# 1 0.026163 -0.012357 -0.009587 0.000000 0.000000 0.000000
# 2 -0.012357 0.025678 -0.001123 0.000000 0.000000 0.000000
# 3 -0.009587 -0.001123 0.014333 0.000000 0.000000 0.000000
# 4 0.000000 0.000000 0.000000 -7.449439 0.000000 0.000000
# 5 0.000000 0.000000 0.000000 0.000000 0.031111 0.000000
# 6 0.000000 0.000000 0.000000 0.000000 0.000000 -0.014910
#
#
# Mechanical properties :
#
#
# Convention : Reuss Voigt Hill
#
# Bulk Modulus (GPa) = 49.90210 54.85630 52.37920
# Shear Modulus (GPa) = -0.68360 0.97984 0.14812
#
# Velocity S-wave (km/s) = -0.72587 0.86903 0.33788
# Velocity P-wave (km/s) = 6.14487 6.57931 6.36579
#
# Compressibility (1/GPa) = 0.02003923
#
# Stress axis : x y z
#
# Youngs Moduli (GPa) = 38.22196 38.94424 69.76927
#
# Poissons Ratio (x) = 0.48124 0.66885
# Poissons Ratio (y) = 0.47232 0.07838
# Poissons Ratio (z) = 0.36642 0.04375
#
# Static dielectric constant tensor:
#      x y z
#    x 2.226550 0.000000 0.000000 
#    y 0.000000 1.432850 0.000000 
#    z 0.000000 0.000000 1.446170 
# 
# From -- ./inp_files/15023.got.cif
#   From: 2010.05.17/outbox.cif.g08.bks.cpg/sg65_8_cif.got.tgz:15023.got - 2010.06.03 17:01:31.
