data_PCOD9483591
_publ_section_title
;
Structure prediction by ZEFSAII (Michael W. Deem and Ramdas Pophale) SiO2 
 PCOD9483591
Probable space group: C M M M
;
_chemical_formula_sum "Si O2"
_cell_formula_units_Z 64
_cell_length_a 14.486323
_cell_length_b 10.713790
_cell_length_c 18.080746
_cell_angle_alpha 90.000000
_cell_angle_beta 90.000000
_cell_angle_gamma 90.000000
_cell_volume 2806.193660
_symmetry_space_group_name_H-M "C M M M"
_symmetry_group_IT_number 65
_symmetry_cell_setting 'orthorhombic'
loop_
_space_group_symop_operation_xyz
x,y,z
-x,-y,z
x,-y,-z
-x,y,-z
-x,-y,-z
x,y,-z
-x,y,z
x,-y,z
1/2+x,1/2+y,z
1/2-x,1/2-y,z
1/2+x,1/2-y,-z
1/2-x,1/2+y,-z
1/2-x,1/2-y,-z
1/2+x,1/2+y,-z
1/2-x,1/2+y,z
1/2+x,1/2-y,z
loop_
_atom_site_type_symbol
_atom_site_label
_atom_site_fract_x
_atom_site_fract_y
_atom_site_fract_z
Si Si1 0.652025 0.358770 0.668959
Si Si2 0.650048 0.866295 0.587257
Si Si3 0.612419 0.000000 0.912730
Si Si4 0.611937 0.500000 0.083035
Si Si5 0.111943 0.246049 0.828429
O O1 0.614995 0.500000 0.676375
O O2 0.603368 0.260306 0.614465
O O3 0.753808 0.372273 0.632846
O O4 0.648815 0.289550 0.747710
O O5 0.668791 0.858496 0.500000
O O6 0.603310 0.000000 0.601194
O O7 0.640636 0.124272 0.867208
O O8 0.500000 0.000000 0.913506
O O9 0.639439 0.000000 0.000000
O O10 0.500000 0.500000 0.082622
O O11 0.639174 0.372387 0.122120
O O12 0.645473 0.500000 0.000000
O O13 0.000000 0.249708 0.823030
#
# Coordination Sequence:
#
# PCOD9483591 Si02
#       5
#    16  16   8   8  16
#     4  10  18  29  48  75 103 127 153 197 245 286
#     4   9  19  35  55  76  94 121 164 206 239 275
#     4   9  18  32  48  67  95 132 172 207 236 274
#     4   9  16  28  46  67  95 128 160 195 232 274
#     4  10  19  30  46  73 103 129 159 196 241 292
#
# _framework density 22.806692000000002
#
# number of rings (size 3 to 8) (size 9 to 14) (size 15 to 20)
#    0.000    2.500    1.250    2.250    1.750    4.500 
#    0.000    0.000    0.000    3.000    0.000   31.500 
#    0.000    0.000    0.000    0.000    0.000    0.000 
#
# Total GULP energy -178476.922616 kJ/mol
# GULP energy per Si atom -5577.403832 kJ/mol
# Density = 2.275478 g / cm^3
# Si number density = 22.806692 Si / 1000 Ang^3
#
#
#
# Elastic Constant Matrix: (Units=GPa)
#
#
# Indices 1 2 3 4 5 6 
#
# 1 105.0263 25.2316 29.1257 0.0000 0.0000 0.0000
# 2 25.2316 282.8691 119.8426 0.0000 0.0000 0.0000
# 3 29.1257 119.8426 208.2421 0.0000 0.0000 0.0000
# 4 0.0000 0.0000 0.0000 92.4110 0.0000 0.0000
# 5 0.0000 0.0000 0.0000 0.0000 17.4678 0.0000
# 6 0.0000 0.0000 0.0000 0.0000 0.0000 -17.7922
#
#
#
# Elastic Compliance Matrix: (Units=1/GPa)
#
#
# Indices 1 2 3 4 5 6 
#
# 1 0.009939 -0.000394 -0.001164 0.000000 0.000000 0.000000
# 2 -0.000394 0.004691 -0.002644 0.000000 0.000000 0.000000
# 3 -0.001164 -0.002644 0.006487 0.000000 0.000000 0.000000
# 4 0.000000 0.000000 0.000000 0.010821 0.000000 0.000000
# 5 0.000000 0.000000 0.000000 0.000000 0.057248 0.000000
# 6 0.000000 0.000000 0.000000 0.000000 0.000000 -0.056204
#
#
# Mechanical properties :
#
#
# Convention : Reuss Voigt Hill
#
# Bulk Modulus (GPa) = 78.66008 104.94859 91.80434
# Shear Modulus (GPa) = 109.59710 46.54650 78.07180
#
# Velocity S-wave (km/s) = 6.93968 4.52255 5.85716
# Velocity P-wave (km/s) = 9.93866 8.56666 9.27806
#
# Compressibility (1/GPa) = 0.01271293
#
# Stress axis : x y z
#
# Youngs Moduli (GPa) = 100.61725 213.18957 154.16168
#
# Poissons Ratio (x) = 0.08390 0.17938
# Poissons Ratio (y) = 0.03960 0.40767
# Poissons Ratio (z) = 0.11708 0.56376
#
# Static dielectric constant tensor:
#      x y z
#    x 1.977690 0.000000 0.000000 
#    y 0.000000 1.962240 0.000000 
#    z 0.000000 0.000000 1.811410 
# 
# From -- ./inp_files/41928.got.cif
#   From: 2010.05.17/outbox.cif.g08.bks.cpg/sg65_21_cif.got.tgz:41928.got - 2010.06.03 17:01:31.
