data_PCOD9483055
_publ_section_title
;
Structure prediction by ZEFSAII (Michael W. Deem and Ramdas Pophale) SiO2 
 PCOD9483055
Probable space group: C M M M
;
_chemical_formula_sum "Si O2"
_cell_formula_units_Z 104
_cell_length_a 25.891047
_cell_length_b 34.322353
_cell_length_c 7.422820
_cell_angle_alpha 90.000000
_cell_angle_beta 90.000000
_cell_angle_gamma 90.000000
_cell_volume 6596.227047
_symmetry_space_group_name_H-M "C M M M"
_symmetry_group_IT_number 65
_symmetry_cell_setting 'orthorhombic'
loop_
_space_group_symop_operation_xyz
x,y,z
-x,-y,z
x,-y,-z
-x,y,-z
-x,-y,-z
x,y,-z
-x,y,z
x,-y,z
1/2+x,1/2+y,z
1/2-x,1/2-y,z
1/2+x,1/2-y,-z
1/2-x,1/2+y,-z
1/2-x,1/2-y,-z
1/2+x,1/2+y,-z
1/2-x,1/2+y,z
1/2+x,1/2-y,z
loop_
_atom_site_type_symbol
_atom_site_label
_atom_site_fract_x
_atom_site_fract_y
_atom_site_fract_z
Si Si1 0.613962 0.544228 0.720832
Si Si2 0.943870 0.259128 0.211747
Si Si3 0.668667 0.767458 0.779278
Si Si4 0.556491 0.667021 0.717745
Si Si5 0.842219 0.122083 0.284620
Si Si6 0.500000 0.452545 0.295437
Si Si7 0.270418 0.308698 0.213923
O O1 0.611731 0.543163 0.500000
O O2 0.624386 0.500000 0.779167
O O3 0.653994 0.577441 0.776987
O O4 0.556153 0.556765 0.781854
O O5 0.889488 0.274606 0.285353
O O6 0.940403 0.212201 0.227700
O O7 0.000000 0.270516 0.288836
O O8 0.945174 0.268818 0.000000
O O9 0.689817 0.724819 0.720898
O O10 0.713079 0.797689 0.721542
O O11 0.666633 0.767221 0.000000
O O12 0.557212 0.665748 0.500000
O O13 0.500000 0.651771 0.775754
O O14 0.606591 0.644313 0.784325
O O15 0.846654 0.120840 0.500000
O O16 0.792946 0.148747 0.246955
O O17 0.500000 0.500000 0.304545
O O18 0.500000 0.436655 0.500000
O O19 0.268591 0.303483 0.000000
#
# Coordination Sequence:
#
# PCOD9483055 Si02
#       7
#    16  16  16  16  16   8  16
#     4   8  14  23  34  48  67  89 111 140 177 213
#     4   9  15  24  39  54  66  84 115 148 170 196
#     4   8  14  25  39  52  67  90 117 140 167 203
#     4   9  17  25  31  45  71  94 108 134 181 219
#     4  10  18  25  36  54  71  85 113 150 179 206
#     4   7  10  18  32  48  63  83 113 141 169 211
#     4   9  16  27  40  50  66  93 118 139 167 207
#
# _framework density 15.766588
#
# number of rings (size 3 to 8) (size 9 to 14) (size 15 to 20)
#    0.000    3.308    1.538    1.846    1.077    0.000 
#    0.000    2.308    0.000    0.462    0.000    0.000 
#    0.000    1.846    0.000    0.000    0.000    0.769 
#
# Total GULP energy -289637.491720 kJ/mol
# GULP energy per Si atom -5569.951764 kJ/mol
# Density = 1.573070 g / cm^3
# Si number density = 15.766588 Si / 1000 Ang^3
#
#
#
# Elastic Constant Matrix: (Units=GPa)
#
#
# Indices 1 2 3 4 5 6 
#
# 1 136.2361 57.9285 5.8418 0.0000 0.0000 0.0000
# 2 57.9285 78.7339 -1.7375 0.0000 0.0000 0.0000
# 3 5.8418 -1.7375 49.3030 0.0000 0.0000 0.0000
# 4 0.0000 0.0000 0.0000 10.8275 0.0000 0.0000
# 5 0.0000 0.0000 0.0000 0.0000 7.9638 0.0000
# 6 0.0000 0.0000 0.0000 0.0000 0.0000 26.6264
#
#
#
# Elastic Compliance Matrix: (Units=1/GPa)
#
#
# Indices 1 2 3 4 5 6 
#
# 1 0.010801 -0.007981 -0.001561 0.000000 0.000000 0.000000
# 2 -0.007981 0.018608 0.001601 0.000000 0.000000 0.000000
# 3 -0.001561 0.001601 0.020524 0.000000 0.000000 0.000000
# 4 0.000000 0.000000 0.000000 0.092358 0.000000 0.000000
# 5 0.000000 0.000000 0.000000 0.000000 0.125569 0.000000
# 6 0.000000 0.000000 0.000000 0.000000 0.000000 0.037557
#
#
# Mechanical properties :
#
#
# Convention : Reuss Voigt Hill
#
# Bulk Modulus (GPa) = 29.36687 43.14874 36.25780
# Shear Modulus (GPa) = 15.03088 22.56621 18.79855
#
# Velocity S-wave (km/s) = 3.09097 3.78731 3.45672
# Velocity P-wave (km/s) = 5.60404 6.82287 6.24327
#
# Compressibility (1/GPa) = 0.03405198
#
# Stress axis : x y z
#
# Youngs Moduli (GPa) = 92.58610 53.73899 48.72309
#
# Poissons Ratio (x) = 0.42890 0.07606
# Poissons Ratio (y) = 0.73894 -0.07803
# Poissons Ratio (z) = 0.14453 -0.08606
#
# Static dielectric constant tensor:
#      x y z
#    x 1.566090 0.000000 0.000000 
#    y 0.000000 1.527850 0.000000 
#    z 0.000000 0.000000 1.618860 
# 
# From -- ./inp_files/31508.got.cif
#   From: 2010.05.17/outbox.cif.g08.bks.cpg/sg65_16_cif.got.tgz:31508.got - 2010.06.03 17:01:31.
