data_PCOD9483772
_publ_section_title
;
Structure prediction by ZEFSAII (Michael W. Deem and Ramdas Pophale) SiO2 
 PCOD9483772
Probable space group: C M M M
;
_chemical_formula_sum "Si O2"
_cell_formula_units_Z 88
_cell_length_a 20.154738
_cell_length_b 14.551771
_cell_length_c 17.624144
_cell_angle_alpha 90.000000
_cell_angle_beta 90.000000
_cell_angle_gamma 90.000000
_cell_volume 5168.934647
_symmetry_space_group_name_H-M "C M M M"
_symmetry_group_IT_number 65
_symmetry_cell_setting 'orthorhombic'
loop_
_space_group_symop_operation_xyz
x,y,z
-x,-y,z
x,-y,-z
-x,y,-z
-x,-y,-z
x,y,-z
-x,y,z
x,-y,z
1/2+x,1/2+y,z
1/2-x,1/2-y,z
1/2+x,1/2-y,-z
1/2-x,1/2+y,-z
1/2-x,1/2-y,-z
1/2+x,1/2+y,-z
1/2-x,1/2+y,z
1/2+x,1/2-y,z
loop_
_atom_site_type_symbol
_atom_site_label
_atom_site_fract_x
_atom_site_fract_y
_atom_site_fract_z
Si Si1 0.419991 0.899516 0.500000
Si Si2 0.292368 0.654790 0.584007
Si Si3 0.579863 0.104280 0.088064
Si Si4 0.230888 0.896109 0.752147
Si Si5 0.922422 0.746573 0.624499
Si Si6 0.140960 0.273620 0.784868
O O1 0.500000 0.906465 0.500000
O O2 0.403556 0.842532 0.425204
O O3 0.390134 0.000000 0.500000
O O4 0.280510 0.615668 0.500000
O O5 0.250000 0.750000 0.587859
O O6 0.274751 0.602485 0.660618
O O7 0.370346 0.678606 0.594278
O O8 0.500000 0.105896 0.090965
O O9 0.606937 0.185410 0.140674
O O10 0.600250 0.000000 0.112474
O O11 0.599763 0.115327 0.000000
O O12 0.174433 0.827634 0.785532
O O13 0.299573 0.844785 0.768605
O O14 0.227425 0.000000 0.781177
O O15 0.907876 0.728054 0.712580
O O16 0.000000 0.767671 0.611891
#
# Coordination Sequence:
#
# PCOD9483772 Si02
#       6
#     8  16  16  16  16  16
#     4   9  18  28  37  62 101 129 157 201 252 307
#     4  10  18  33  49  67  97 136 183 225 267 317
#     4   9  18  33  56  86 113 136 168 211 262 326
#     4  10  20  34  51  74 104 139 184 225 259 312
#     4  10  18  30  48  70  96 133 171 211 263 317
#     4  10  19  35  52  76 104 140 171 212 269 317
#
# _framework density 17.024785000000001
#
# number of rings (size 3 to 8) (size 9 to 14) (size 15 to 20)
#    0.000    2.273    4.545    1.636    0.000    1.818 
#    0.000    3.636    0.000   15.273    0.000    6.364 
#    0.000    0.000    0.000    0.000    0.000    0.000 
#
# Total GULP energy -245078.512371 kJ/mol
# GULP energy per Si atom -5569.966190 kJ/mol
# Density = 1.698604 g / cm^3
# Si number density = 17.024785 Si / 1000 Ang^3
#
#
#
# Elastic Constant Matrix: (Units=GPa)
#
#
# Indices 1 2 3 4 5 6 
#
# 1 62.1356 17.7947 10.6632 0.0000 0.0000 0.0000
# 2 17.7947 92.1516 21.6971 0.0000 0.0000 0.0000
# 3 10.6632 21.6971 66.4619 0.0000 0.0000 0.0000
# 4 0.0000 0.0000 0.0000 7.5168 0.0000 0.0000
# 5 0.0000 0.0000 0.0000 0.0000 21.6050 0.0000
# 6 0.0000 0.0000 0.0000 0.0000 0.0000 10.0047
#
#
#
# Elastic Compliance Matrix: (Units=1/GPa)
#
#
# Indices 1 2 3 4 5 6 
#
# 1 0.017237 -0.002900 -0.001819 0.000000 0.000000 0.000000
# 2 -0.002900 0.012243 -0.003532 0.000000 0.000000 0.000000
# 3 -0.001819 -0.003532 0.016491 0.000000 0.000000 0.000000
# 4 0.000000 0.000000 0.000000 0.133036 0.000000 0.000000
# 5 0.000000 0.000000 0.000000 0.000000 0.046286 0.000000
# 6 0.000000 0.000000 0.000000 0.000000 0.000000 0.099953
#
#
# Mechanical properties :
#
#
# Convention : Reuss Voigt Hill
#
# Bulk Modulus (GPa) = 33.93310 35.67324 34.80317
# Shear Modulus (GPa) = 14.22194 19.19822 16.71008
#
# Velocity S-wave (km/s) = 2.89341 3.36171 3.13631
# Velocity P-wave (km/s) = 5.58008 6.00561 5.79675
#
# Compressibility (1/GPa) = 0.02946975
#
# Stress axis : x y z
#
# Youngs Moduli (GPa) = 58.01631 81.67772 60.63942
#
# Poissons Ratio (x) = 0.23688 0.11028
# Poissons Ratio (y) = 0.16826 0.21415
# Poissons Ratio (z) = 0.10551 0.28845
#
# Static dielectric constant tensor:
#      x y z
#    x 1.590310 0.000000 0.000000 
#    y 0.000000 1.585260 0.000000 
#    z 0.000000 0.000000 1.586700 
# 
# From -- ./inp_files/54296.got.cif
#   From: 2010.05.17/outbox.cif.g08.bks.cpg/sg65_28_cif.got.tgz:54296.got - 2010.06.03 17:01:31.
