data_PCOD9483475
_publ_section_title
;
Structure prediction by ZEFSAII (Michael W. Deem and Ramdas Pophale) SiO2 
 PCOD9483475
Probable space group: C M M M
;
_chemical_formula_sum "Si O2"
_cell_formula_units_Z 92
_cell_length_a 25.289394
_cell_length_b 29.527785
_cell_length_c 7.414251
_cell_angle_alpha 90.000000
_cell_angle_beta 90.000000
_cell_angle_gamma 90.000000
_cell_volume 5536.516226
_symmetry_space_group_name_H-M "C M M M"
_symmetry_group_IT_number 65
_symmetry_cell_setting 'orthorhombic'
loop_
_space_group_symop_operation_xyz
x,y,z
-x,-y,z
x,-y,-z
-x,y,-z
-x,-y,-z
x,y,-z
-x,y,z
x,-y,z
1/2+x,1/2+y,z
1/2-x,1/2-y,z
1/2+x,1/2-y,-z
1/2-x,1/2+y,-z
1/2-x,1/2-y,-z
1/2+x,1/2+y,-z
1/2-x,1/2+y,z
1/2+x,1/2-y,z
loop_
_atom_site_type_symbol
_atom_site_label
_atom_site_fract_x
_atom_site_fract_y
_atom_site_fract_z
Si Si1 0.214049 0.921731 0.291305
Si Si2 0.167370 0.749769 0.214879
Si Si3 0.940545 0.789647 0.284937
Si Si4 0.000000 0.051488 0.719925
Si Si5 0.598217 0.387604 0.719471
Si Si6 0.750335 0.324302 0.781305
Si Si7 0.236397 0.000000 0.000000
O O1 0.210246 0.937029 0.500000
O O2 0.155539 0.905507 0.227649
O O3 0.247650 0.875328 0.285642
O O4 0.234135 0.960185 0.158243
O O5 0.105516 0.753374 0.253361
O O6 0.199094 0.705451 0.277132
O O7 0.199337 0.794471 0.279615
O O8 0.173460 0.750229 0.000000
O O9 0.944869 0.794409 0.500000
O O10 0.917903 0.837652 0.215656
O O11 0.000000 0.780699 0.216760
O O12 0.947736 0.078132 0.776031
O O13 0.000000 0.051429 0.500000
O O14 0.000000 0.000000 0.780886
O O15 0.598639 0.386108 0.500000
O O16 0.749538 0.326232 0.000000
#
# Coordination Sequence:
#
# PCOD9483475 Si02
#       7
#    16  16  16   8  16  16   4
#     4  11  22  36  56  76  95 132 173 210 263 320
#     4   9  18  30  50  73 101 134 166 203 255 316
#     4  10  18  29  45  68  99 132 168 213 257 299
#     4   9  16  26  42  60  82 116 164 224 272 304
#     4   9  17  29  45  66  89 121 169 214 262 312
#     4   9  17  33  51  74 102 130 162 211 264 305
#     4  12  26  40  52  69 106 128 163 224 272 304
#
# _framework density 16.616947
#
# number of rings (size 3 to 8) (size 9 to 14) (size 15 to 20)
#    0.000    2.348    3.478    1.304    1.217    1.043 
#    0.000    1.739    0.000    1.043    0.000    0.000 
#    0.000    0.000    0.000    1.565    0.000    6.609 
#
# Total GULP energy -256113.180265 kJ/mol
# GULP energy per Si atom -5567.677832 kJ/mol
# Density = 1.657913 g / cm^3
# Si number density = 16.616947 Si / 1000 Ang^3
#
#
#
# Elastic Constant Matrix: (Units=GPa)
#
#
# Indices 1 2 3 4 5 6 
#
# 1 70.2758 51.2188 4.8789 0.0000 0.0000 0.0000
# 2 51.2188 113.2242 20.1661 0.0000 0.0000 0.0000
# 3 4.8789 20.1661 79.3855 0.0000 0.0000 0.0000
# 4 0.0000 0.0000 0.0000 22.7793 0.0000 0.0000
# 5 0.0000 0.0000 0.0000 0.0000 17.9763 0.0000
# 6 0.0000 0.0000 0.0000 0.0000 0.0000 0.8888
#
#
#
# Elastic Compliance Matrix: (Units=1/GPa)
#
#
# Indices 1 2 3 4 5 6 
#
# 1 0.021336 -0.009865 0.001195 0.000000 0.000000 0.000000
# 2 -0.009865 0.013811 -0.002902 0.000000 0.000000 0.000000
# 3 0.001195 -0.002902 0.013261 0.000000 0.000000 0.000000
# 4 0.000000 0.000000 0.000000 0.043900 0.000000 0.000000
# 5 0.000000 0.000000 0.000000 0.000000 0.055629 0.000000
# 6 0.000000 0.000000 0.000000 0.000000 0.000000 1.125173
#
#
# Mechanical properties :
#
#
# Convention : Reuss Voigt Hill
#
# Bulk Modulus (GPa) = 39.58229 46.15700 42.86965
# Shear Modulus (GPa) = 3.83237 20.77032 12.30135
#
# Velocity S-wave (km/s) = 1.52030 3.53930 2.72378
# Velocity P-wave (km/s) = 5.19171 6.67379 5.97886
#
# Compressibility (1/GPa) = 0.02526382
#
# Stress axis : x y z
#
# Youngs Moduli (GPa) = 46.86856 72.40429 75.41142
#
# Poissons Ratio (x) = 0.71424 -0.09009
# Poissons Ratio (y) = 0.46234 0.21886
# Poissons Ratio (z) = -0.05599 0.21013
#
# Static dielectric constant tensor:
#      x y z
#    x 1.581750 0.000000 0.000000 
#    y 0.000000 1.549760 0.000000 
#    z 0.000000 0.000000 1.642710 
# 
# From -- ./inp_files/16940.got.cif
#   From: 2010.05.17/outbox.cif.g08.bks.cpg/sg65_9_cif.got.tgz:16940.got - 2010.06.03 17:01:31.
