data_PCOD9483535
_publ_section_title
;
Structure prediction by ZEFSAII (Michael W. Deem and Ramdas Pophale) SiO2 
 PCOD9483535
Probable space group: C M M M
;
_chemical_formula_sum "Si O2"
_cell_formula_units_Z 88
_cell_length_a 23.556108
_cell_length_b 15.575302
_cell_length_c 14.055958
_cell_angle_alpha 90.000000
_cell_angle_beta 90.000000
_cell_angle_gamma 90.000000
_cell_volume 5157.039571
_symmetry_space_group_name_H-M "C M M M"
_symmetry_group_IT_number 65
_symmetry_cell_setting 'orthorhombic'
loop_
_space_group_symop_operation_xyz
x,y,z
-x,-y,z
x,-y,-z
-x,y,-z
-x,-y,-z
x,y,-z
-x,y,z
x,-y,z
1/2+x,1/2+y,z
1/2-x,1/2-y,z
1/2+x,1/2-y,-z
1/2-x,1/2+y,-z
1/2-x,1/2-y,-z
1/2+x,1/2+y,-z
1/2-x,1/2+y,z
1/2+x,1/2-y,z
loop_
_atom_site_type_symbol
_atom_site_label
_atom_site_fract_x
_atom_site_fract_y
_atom_site_fract_z
Si Si1 0.937572 0.101274 0.299491
Si Si2 0.177971 0.104875 0.606807
Si Si3 0.645483 0.155793 0.889043
Si Si4 0.064988 0.500000 0.884292
Si Si5 0.240354 0.897887 0.204134
Si Si6 0.378240 0.645773 0.891535
O O1 0.884720 0.135461 0.360902
O O2 0.919696 0.109994 0.189183
O O3 0.000000 0.138685 0.317015
O O4 0.940400 0.000000 0.320955
O O5 0.191722 0.132311 0.500000
O O6 0.221171 0.129537 0.690227
O O7 0.176844 0.000000 0.608097
O O8 0.600550 0.084266 0.856176
O O9 0.704010 0.149630 0.832134
O O10 0.620510 0.251005 0.884613
O O11 0.658942 0.137332 0.000000
O O12 0.000000 0.500000 0.850347
O O13 0.062792 0.500000 0.000000
O O14 0.185621 0.882102 0.137283
O O15 0.252060 0.000000 0.203660
O O16 0.390772 0.620136 0.000000
#
# Coordination Sequence:
#
# PCOD9483535 Si02
#       6
#    16  16  16   8  16  16
#     4   9  18  31  46  66  92 124 160 193 227 272
#     4   8  15  28  46  69  94 118 149 191 233 275
#     4  10  19  31  47  67  93 124 157 194 234 279
#     4   9  18  32  48  66  89 119 158 201 237 269
#     4  10  18  29  47  69  95 124 154 192 235 283
#     4  10  20  30  43  65  94 128 159 191 232 277
#
# _framework density 17.064053000000001
#
# number of rings (size 3 to 8) (size 9 to 14) (size 15 to 20)
#    0.000    2.636    0.909    2.727    0.000    5.091 
#    0.000    4.545    0.000    8.727    0.000    0.000 
#    0.000    1.455    0.000    0.000    0.000    0.727 
#
# Total GULP energy -245235.879926 kJ/mol
# GULP energy per Si atom -5573.542726 kJ/mol
# Density = 1.702521 g / cm^3
# Si number density = 17.064053 Si / 1000 Ang^3
#
#
#
# Elastic Constant Matrix: (Units=GPa)
#
#
# Indices 1 2 3 4 5 6 
#
# 1 77.8656 2.1608 12.8806 0.0000 0.0000 0.0000
# 2 2.1608 19.0518 0.1679 0.0000 0.0000 0.0000
# 3 12.8806 0.1679 67.3138 0.0000 0.0000 0.0000
# 4 0.0000 0.0000 0.0000 7.2111 0.0000 0.0000
# 5 0.0000 0.0000 0.0000 0.0000 8.3550 0.0000
# 6 0.0000 0.0000 0.0000 0.0000 0.0000 9.9336
#
#
#
# Elastic Compliance Matrix: (Units=1/GPa)
#
#
# Indices 1 2 3 4 5 6 
#
# 1 0.013304 -0.001487 -0.002542 0.000000 0.000000 0.000000
# 2 -0.001487 0.052656 0.000153 0.000000 0.000000 0.000000
# 3 -0.002542 0.000153 0.015342 0.000000 0.000000 0.000000
# 4 0.000000 0.000000 0.000000 0.138675 0.000000 0.000000
# 5 0.000000 0.000000 0.000000 0.000000 0.119689 0.000000
# 6 0.000000 0.000000 0.000000 0.000000 0.000000 0.100668
#
#
# Mechanical properties :
#
#
# Convention : Reuss Voigt Hill
#
# Bulk Modulus (GPa) = 13.59603 21.62775 17.61189
# Shear Modulus (GPa) = 10.57972 15.03474 12.80723
#
# Velocity S-wave (km/s) = 2.49268 2.97151 2.74257
# Velocity P-wave (km/s) = 4.03355 4.94724 4.51357
#
# Compressibility (1/GPa) = 0.07355089
#
# Stress axis : x y z
#
# Youngs Moduli (GPa) = 75.16306 18.99132 65.18114
#
# Poissons Ratio (x) = 0.02823 0.16570
# Poissons Ratio (y) = 0.11173 -0.00998
# Poissons Ratio (z) = 0.19107 -0.00291
#
# Static dielectric constant tensor:
#      x y z
#    x 1.581810 0.000000 0.000000 
#    y 0.000000 1.596120 0.000000 
#    z 0.000000 0.000000 1.577560 
# 
# From -- ./inp_files/45547.got.cif
#   From: 2010.05.17/outbox.cif.g08.bks.cpg/sg65_23_cif.got.tgz:45547.got - 2010.06.03 17:01:31.
