data_PCOD9483488
_publ_section_title
;
Structure prediction by ZEFSAII (Michael W. Deem and Ramdas Pophale) SiO2 
 PCOD9483488
Probable space group: C M M M
;
_chemical_formula_sum "Si O2"
_cell_formula_units_Z 72
_cell_length_a 9.071211
_cell_length_b 26.291926
_cell_length_c 20.244674
_cell_angle_alpha 90.000000
_cell_angle_beta 90.000000
_cell_angle_gamma 90.000000
_cell_volume 4828.346820
_symmetry_space_group_name_H-M "C M M M"
_symmetry_group_IT_number 65
_symmetry_cell_setting 'orthorhombic'
loop_
_space_group_symop_operation_xyz
x,y,z
-x,-y,z
x,-y,-z
-x,y,-z
-x,-y,-z
x,y,-z
-x,y,z
x,-y,z
1/2+x,1/2+y,z
1/2-x,1/2-y,z
1/2+x,1/2-y,-z
1/2-x,1/2+y,-z
1/2-x,1/2-y,-z
1/2+x,1/2+y,-z
1/2-x,1/2+y,z
1/2+x,1/2-y,z
loop_
_atom_site_type_symbol
_atom_site_label
_atom_site_fract_x
_atom_site_fract_y
_atom_site_fract_z
Si Si1 0.679297 0.500000 0.575604
Si Si2 0.177233 0.196178 0.423428
Si Si3 0.324397 0.060379 0.207917
Si Si4 0.172280 0.061666 0.073081
Si Si5 0.321718 0.598223 0.660944
O O1 0.500000 0.500000 0.573755
O O2 0.731139 0.500000 0.500000
O O3 0.723508 0.449579 0.615193
O O4 0.215421 0.184110 0.500000
O O5 0.250000 0.250000 0.406496
O O6 0.221207 0.150298 0.375493
O O7 0.000000 0.200929 0.420357
O O8 0.500000 0.065075 0.210743
O O9 0.264827 0.077829 0.136525
O O10 0.248714 0.090124 0.267634
O O11 0.287183 0.000000 0.215291
O O12 0.000000 0.075128 0.081212
O O13 0.179379 0.000000 0.072004
O O14 0.221649 0.079100 0.000000
O O15 0.500000 0.597183 0.666471
#
# Coordination Sequence:
#
# PCOD9483488 Si02
#       5
#     8  16  16  16  16
#     4   9  16  26  43  65  84 107 144 187 221 252
#     4   9  18  32  49  68  87 110 145 188 232 274
#     4  10  19  28  39  59  90 122 149 179 219 266
#     4   8  14  25  41  59  80 111 151 187 215 250
#     4  10  18  29  46  65  86 115 150 185 220 264
#
# _framework density 14.911936000000001
#
# number of rings (size 3 to 8) (size 9 to 14) (size 15 to 20)
#    0.000    2.778    1.111    2.000    0.000    4.889 
#    0.000    2.222    0.000    2.667    0.000    0.000 
#    0.000    0.889    0.000    2.889    0.000    3.556 
#
# Total GULP energy -200542.133370 kJ/mol
# GULP energy per Si atom -5570.614816 kJ/mol
# Density = 1.487800 g / cm^3
# Si number density = 14.911936 Si / 1000 Ang^3
#
#
#
# Elastic Constant Matrix: (Units=GPa)
#
#
# Indices 1 2 3 4 5 6 
#
# 1 23.4935 31.9644 46.7186 0.0000 0.0000 0.0000
# 2 31.9644 83.5890 71.1402 0.0000 0.0000 0.0000
# 3 46.7186 71.1402 155.9229 0.0000 0.0000 0.0000
# 4 0.0000 0.0000 0.0000 15.0234 0.0000 0.0000
# 5 0.0000 0.0000 0.0000 0.0000 12.5935 0.0000
# 6 0.0000 0.0000 0.0000 0.0000 0.0000 17.2761
#
#
#
# Elastic Compliance Matrix: (Units=1/GPa)
#
#
# Indices 1 2 3 4 5 6 
#
# 1 0.137408 -0.028618 -0.028114 0.000000 0.000000 0.000000
# 2 -0.028618 0.025518 -0.003068 0.000000 0.000000 0.000000
# 3 -0.028114 -0.003068 0.016237 0.000000 0.000000 0.000000
# 4 0.000000 0.000000 0.000000 0.066563 0.000000 0.000000
# 5 0.000000 0.000000 0.000000 0.000000 0.079406 0.000000
# 6 0.000000 0.000000 0.000000 0.000000 0.000000 0.057883
#
#
# Mechanical properties :
#
#
# Convention : Reuss Voigt Hill
#
# Bulk Modulus (GPa) = 16.78885 62.51687 39.65286
# Shear Modulus (GPa) = 9.56993 16.52408 13.04701
#
# Velocity S-wave (km/s) = 2.53605 3.33244 2.96114
# Velocity P-wave (km/s) = 4.45629 7.53803 6.19195
#
# Compressibility (1/GPa) = 0.05956334
#
# Stress axis : x y z
#
# Youngs Moduli (GPa) = 7.27757 39.18849 61.58790
#
# Poissons Ratio (x) = 1.12148 1.73150
# Poissons Ratio (y) = 0.20827 0.18895
# Poissons Ratio (z) = 0.20460 0.12023
#
# Static dielectric constant tensor:
#      x y z
#    x 1.493390 0.000000 0.000000 
#    y 0.000000 1.468680 0.000000 
#    z 0.000000 0.000000 1.501020 
# 
# From -- ./inp_files/49502.got.cif
#   From: 2010.05.17/outbox.cif.g08.bks.cpg/sg65_25_cif.got.tgz:49502.got - 2010.06.03 17:01:31.
