data_PCOD9483169
_publ_section_title
;
Structure prediction by ZEFSAII (Michael W. Deem and Ramdas Pophale) SiO2 
 PCOD9483169
Probable space group: C M M M
;
_chemical_formula_sum "Si O2"
_cell_formula_units_Z 104
_cell_length_a 18.880166
_cell_length_b 26.099353
_cell_length_c 13.823681
_cell_angle_alpha 90.000000
_cell_angle_beta 90.000000
_cell_angle_gamma 90.000000
_cell_volume 6811.758669
_symmetry_space_group_name_H-M "C M M M"
_symmetry_group_IT_number 65
_symmetry_cell_setting 'orthorhombic'
loop_
_space_group_symop_operation_xyz
x,y,z
-x,-y,z
x,-y,-z
-x,y,-z
-x,-y,-z
x,y,-z
-x,y,z
x,-y,z
1/2+x,1/2+y,z
1/2-x,1/2-y,z
1/2+x,1/2-y,-z
1/2-x,1/2+y,-z
1/2-x,1/2-y,-z
1/2+x,1/2+y,-z
1/2-x,1/2+y,z
1/2+x,1/2-y,z
loop_
_atom_site_type_symbol
_atom_site_label
_atom_site_fract_x
_atom_site_fract_y
_atom_site_fract_z
Si Si1 0.000000 0.061358 0.608838
Si Si2 0.276149 0.367008 0.386856
Si Si3 0.079414 0.800355 0.609649
Si Si4 0.919904 0.748726 0.809622
Si Si5 0.359921 0.560393 0.732090
Si Si6 0.784303 0.305940 0.781609
Si Si7 0.152573 0.851668 0.113395
O O1 0.070200 0.071566 0.669146
O O2 0.000000 0.083046 0.500000
O O3 0.000000 0.000000 0.597885
O O4 0.258333 0.370827 0.500000
O O5 0.351159 0.335706 0.379357
O O6 0.294869 0.420567 0.335052
O O7 0.220829 0.336768 0.319231
O O8 0.081973 0.780328 0.500000
O O9 0.083156 0.758898 0.694089
O O10 0.000000 0.824384 0.621980
O O11 0.860797 0.705712 0.826513
O O12 0.896348 0.803236 0.855690
O O13 0.000000 0.736349 0.838166
O O14 0.356535 0.500000 0.754177
O O15 0.363515 0.597591 0.824634
O O16 0.750000 0.250000 0.763440
O O17 0.731454 0.334367 0.855016
O O18 0.146484 0.860254 0.000000
#
# Coordination Sequence:
#
# PCOD9483169 Si02
#       7
#     8  16  16  16  16  16  16
#     4   9  18  30  45  65  91 123 152 186 231 269
#     4  10  18  27  44  67  92 124 155 190 232 275
#     4   9  16  25  40  63  90 119 151 186 222 260
#     4  10  19  32  48  68  94 122 157 194 229 279
#     4  10  20  33  46  65  92 122 162 202 235 275
#     4   9  17  32  45  67  91 120 155 191 234 279
#     4  10  21  35  50  65  88 122 159 202 244 279
#
# _framework density 15.267716999999999
#
# number of rings (size 3 to 8) (size 9 to 14) (size 15 to 20)
#    0.000    2.385    4.615    0.462    2.154    5.231 
#    0.000    0.000    0.000    1.385    0.000    0.000 
#    0.000    9.846    0.000   11.077    0.000    0.000 
#
# Total GULP energy -289584.068520 kJ/mol
# GULP energy per Si atom -5568.924395 kJ/mol
# Density = 1.523297 g / cm^3
# Si number density = 15.267717 Si / 1000 Ang^3
#
#
#
# Elastic Constant Matrix: (Units=GPa)
#
#
# Indices 1 2 3 4 5 6 
#
# 1 82.5712 35.3998 22.3722 0.0000 0.0000 0.0000
# 2 35.3998 69.3124 36.9618 0.0000 0.0000 0.0000
# 3 22.3722 36.9618 98.0014 0.0000 0.0000 0.0000
# 4 0.0000 0.0000 0.0000 8.8082 0.0000 0.0000
# 5 0.0000 0.0000 0.0000 0.0000 7.1965 0.0000
# 6 0.0000 0.0000 0.0000 0.0000 0.0000 17.9131
#
#
#
# Elastic Compliance Matrix: (Units=1/GPa)
#
#
# Indices 1 2 3 4 5 6 
#
# 1 0.015544 -0.007569 -0.000694 0.000000 0.000000 0.000000
# 2 -0.007569 0.021745 -0.006473 0.000000 0.000000 0.000000
# 3 -0.000694 -0.006473 0.012804 0.000000 0.000000 0.000000
# 4 0.000000 0.000000 0.000000 0.113531 0.000000 0.000000
# 5 0.000000 0.000000 0.000000 0.000000 0.138957 0.000000
# 6 0.000000 0.000000 0.000000 0.000000 0.000000 0.055825
#
#
# Mechanical properties :
#
#
# Convention : Reuss Voigt Hill
#
# Bulk Modulus (GPa) = 48.49502 48.81696 48.65599
# Shear Modulus (GPa) = 12.66624 17.12697 14.89660
#
# Velocity S-wave (km/s) = 2.88342 3.35293 3.12700
# Velocity P-wave (km/s) = 6.55115 6.85805 6.70636
#
# Compressibility (1/GPa) = 0.02062067
#
# Stress axis : x y z
#
# Youngs Moduli (GPa) = 64.33555 45.98769 78.10157
#
# Poissons Ratio (x) = 0.34806 0.05419
# Poissons Ratio (y) = 0.48692 0.50559
# Poissons Ratio (z) = 0.04464 0.29770
#
# Static dielectric constant tensor:
#      x y z
#    x 1.541430 0.000000 0.000000 
#    y 0.000000 1.523560 0.000000 
#    z 0.000000 0.000000 1.518830 
# 
# From -- ./inp_files/44592.got.cif
#   From: 2010.05.17/outbox.cif.g08.bks.cpg/sg65_23_cif.got.tgz:44592.got - 2010.06.03 17:01:31.
