data_PCOD9483603
_publ_section_title
;
Structure prediction by ZEFSAII (Michael W. Deem and Ramdas Pophale) SiO2 
 PCOD9483603
Probable space group: C M M M
;
_chemical_formula_sum "Si O2"
_cell_formula_units_Z 116
_cell_length_a 24.476359
_cell_length_b 29.607054
_cell_length_c 7.458622
_cell_angle_alpha 90.000000
_cell_angle_beta 90.000000
_cell_angle_gamma 90.000000
_cell_volume 5405.061105
_symmetry_space_group_name_H-M "C M M M"
_symmetry_group_IT_number 65
_symmetry_cell_setting 'orthorhombic'
loop_
_space_group_symop_operation_xyz
x,y,z
-x,-y,z
x,-y,-z
-x,y,-z
-x,-y,-z
x,y,-z
-x,y,z
x,-y,z
1/2+x,1/2+y,z
1/2-x,1/2-y,z
1/2+x,1/2-y,-z
1/2-x,1/2+y,-z
1/2-x,1/2-y,-z
1/2+x,1/2+y,-z
1/2-x,1/2+y,z
1/2+x,1/2-y,z
loop_
_atom_site_type_symbol
_atom_site_label
_atom_site_fract_x
_atom_site_fract_y
_atom_site_fract_z
Si Si1 0.561168 0.351680 0.219326
Si Si2 0.930145 0.500000 0.500000
Si Si3 0.061628 0.747691 0.216162
Si Si4 0.750048 0.301901 0.717160
Si Si5 0.391915 0.068337 0.205883
Si Si6 0.635096 0.163738 0.706504
Si Si7 0.734154 0.948929 0.217625
Si Si8 0.825931 0.118839 0.209738
O O1 0.500000 0.365245 0.274756
O O2 0.570140 0.299428 0.273621
O O3 0.612668 0.380713 0.283020
O O4 0.561607 0.352011 0.000000
O O5 0.927321 0.539485 0.342614
O O6 0.104317 0.711285 0.283248
O O7 0.000000 0.734800 0.269335
O O8 0.064243 0.747335 0.000000
O O9 0.751599 0.301478 0.500000
O O10 0.750000 0.250000 0.777251
O O11 0.804353 0.327824 0.783319
O O12 0.698030 0.330642 0.775183
O O13 0.397948 0.122503 0.208886
O O14 0.328529 0.060815 0.267557
O O15 0.397385 0.053209 0.000000
O O16 0.641715 0.151044 0.500000
O O17 0.779483 0.914093 0.286506
O O18 0.747450 0.000000 0.270969
O O19 0.734099 0.946629 0.000000
O O20 0.830328 0.107236 0.000000
#
# Coordination Sequence:
#
# PCOD9483603 Si02
#       8
#    16   4  16  16  16  16  16  16
#     4   8  15  29  49  73  99 131 178 233 277 317
#     4  12  22  36  56  82 107 142 191 224 268 348
#     4   9  18  33  52  73 100 136 179 226 273 319
#     4  10  21  33  45  67 106 145 171 211 271 327
#     4  11  21  35  54  78 112 146 178 229 276 325
#     4  11  21  33  50  76 109 142 179 222 271 332
#     4   9  17  30  47  69 100 136 174 219 273 322
#     4  10  18  29  49  72  95 131 179 221 264 325
#
# _framework density 21.461368
#
# number of rings (size 3 to 8) (size 9 to 14) (size 15 to 20)
#    0.000    2.207    2.759    2.276    0.000    1.103 
#    0.000    0.000    0.000    1.655    0.000    3.862 
#    0.000    2.207    0.000    1.862    0.000    2.897 
#
# Total GULP energy -323397.631633 kJ/mol
# GULP energy per Si atom -5575.821235 kJ/mol
# Density = 2.141252 g / cm^3
# Si number density = 21.461368 Si / 1000 Ang^3
#
#
#
# Elastic Constant Matrix: (Units=GPa)
#
#
# Indices 1 2 3 4 5 6 
#
# 1 70.3462 -3.1283 -1.7263 0.0000 0.0000 0.0000
# 2 -3.1283 45.2002 -0.0148 0.0000 0.0000 0.0000
# 3 -1.7263 -0.0148 92.2910 0.0000 0.0000 0.0000
# 4 0.0000 0.0000 0.0000 469.0558 0.0000 0.0000
# 5 0.0000 0.0000 0.0000 0.0000 -50.5478 0.0000
# 6 0.0000 0.0000 0.0000 0.0000 0.0000 -14.0515
#
#
#
# Elastic Compliance Matrix: (Units=1/GPa)
#
#
# Indices 1 2 3 4 5 6 
#
# 1 0.014266 0.000987 0.000267 0.000000 0.000000 0.000000
# 2 0.000987 0.022192 0.000022 0.000000 0.000000 0.000000
# 3 0.000267 0.000022 0.010840 0.000000 0.000000 0.000000
# 4 0.000000 0.000000 0.000000 0.002132 0.000000 0.000000
# 5 0.000000 0.000000 0.000000 0.000000 -0.019783 0.000000
# 6 0.000000 0.000000 0.000000 0.000000 0.000000 -0.071167
#
#
# Mechanical properties :
#
#
# Convention : Reuss Voigt Hill
#
# Bulk Modulus (GPa) = 20.05968 22.01095 21.03532
# Shear Modulus (GPa) = -182.11330 95.07175 -43.52077
#
# Velocity S-wave (km/s) = -9.22174 6.66297 -4.50807
# Velocity P-wave (km/s) = 10.19903 8.33498 4.15622
#
# Compressibility (1/GPa) = 0.04985123
#
# Stress axis : x y z
#
# Youngs Moduli (GPa) = 70.09737 45.06101 92.24849
#
# Poissons Ratio (x) = -0.04449 -0.02463
# Poissons Ratio (y) = -0.06922 -0.00203
# Poissons Ratio (z) = -0.01872 -0.00099
#
# Static dielectric constant tensor:
#      x y z
#    x 1.801650 0.000000 0.000000 
#    y 0.000000 1.763130 0.000000 
#    z 0.000000 0.000000 1.797940 
# 
# From -- ./inp_files/17293.got.cif
#   From: 2010.05.17/outbox.cif.g08.bks.cpg/sg65_9_cif.got.tgz:17293.got - 2010.06.03 17:01:31.
