data_PCOD9483872
_publ_section_title
;
Structure prediction by ZEFSAII (Michael W. Deem and Ramdas Pophale) SiO2 
 PCOD9483872
Probable space group: C M M M
;
_chemical_formula_sum "Si O2"
_cell_formula_units_Z 104
_cell_length_a 29.339017
_cell_length_b 7.562461
_cell_length_c 24.470926
_cell_angle_alpha 90.000000
_cell_angle_beta 90.000000
_cell_angle_gamma 90.000000
_cell_volume 5429.490911
_symmetry_space_group_name_H-M "C M M M"
_symmetry_group_IT_number 65
_symmetry_cell_setting 'orthorhombic'
loop_
_space_group_symop_operation_xyz
x,y,z
-x,-y,z
x,-y,-z
-x,y,-z
-x,-y,-z
x,y,-z
-x,y,z
x,-y,z
1/2+x,1/2+y,z
1/2-x,1/2-y,z
1/2+x,1/2-y,-z
1/2-x,1/2+y,-z
1/2-x,1/2-y,-z
1/2+x,1/2+y,-z
1/2-x,1/2+y,z
1/2+x,1/2-y,z
loop_
_atom_site_type_symbol
_atom_site_label
_atom_site_fract_x
_atom_site_fract_y
_atom_site_fract_z
Si Si1 0.303466 0.789240 0.668618
Si Si2 0.550656 0.286212 0.596797
Si Si3 0.850717 0.292623 0.558908
Si Si4 0.695991 0.711602 0.000000
Si Si5 0.641696 0.707019 0.776959
Si Si6 0.303815 0.713092 0.880814
Si Si7 0.949426 0.784121 0.275899
O O1 0.250000 0.750000 0.667535
O O2 0.327495 0.717842 0.613539
O O3 0.326674 0.717801 0.723402
O O4 0.310181 0.000000 0.670361
O O5 0.500000 0.229254 0.578505
O O6 0.551247 0.500000 0.594521
O O7 0.594779 0.221477 0.565209
O O8 0.556163 0.233172 0.660479
O O9 0.837114 0.215773 0.500000
O O10 0.838697 0.500000 0.557963
O O11 0.750000 0.750000 0.000000
O O12 0.680182 0.778874 0.940709
O O13 0.689234 0.500000 0.000000
O O14 0.634167 0.500000 0.788731
O O15 0.667403 0.782753 0.829647
O O16 0.592612 0.782140 0.759811
O O17 0.307573 0.500000 0.881514
O O18 0.250000 0.750000 0.873837
O O19 0.000000 0.729870 0.257969
O O20 0.948428 0.000000 0.275799
#
# Coordination Sequence:
#
# PCOD9483872 Si02
#       7
#    16  16  16   8  16  16  16
#     4  11  23  37  52  69  91 119 151 190 234 275
#     4   9  17  31  52  75  96 119 149 186 227 273
#     4  10  22  38  52  68  92 121 153 188 230 280
#     4   8  14  26  40  58  89 123 157 189 222 260
#     4  10  18  30  50  73  95 120 154 190 230 273
#     4   9  17  27  42  65  92 125 157 189 224 266
#     4   8  14  26  46  70  94 118 146 183 224 268
#
# _framework density 19.15465
#
# number of rings (size 3 to 8) (size 9 to 14) (size 15 to 20)
#    0.000    2.615    1.538    1.846    0.000    3.692 
#    0.000    1.538    0.000    0.462    0.000    0.538 
#    0.000    4.308    0.000    0.000    0.000   29.231 
#
# Total GULP energy -290008.175873 kJ/mol
# GULP energy per Si atom -5577.080305 kJ/mol
# Density = 1.911105 g / cm^3
# Si number density = 19.154650 Si / 1000 Ang^3
#
#
#
# Elastic Constant Matrix: (Units=GPa)
#
#
# Indices 1 2 3 4 5 6 
#
# 1 102.4197 -11.3281 66.9135 0.0000 0.0000 0.0000
# 2 -11.3281 45.5169 -1.4806 0.0000 0.0000 0.0000
# 3 66.9135 -1.4806 161.4715 0.0000 0.0000 0.0000
# 4 0.0000 0.0000 0.0000 8.4609 0.0000 0.0000
# 5 0.0000 0.0000 0.0000 0.0000 -39.5765 0.0000
# 6 0.0000 0.0000 0.0000 0.0000 0.0000 11.8307
#
#
#
# Elastic Compliance Matrix: (Units=1/GPa)
#
#
# Indices 1 2 3 4 5 6 
#
# 1 0.013857 0.003263 -0.005712 0.000000 0.000000 0.000000
# 2 0.003263 0.022745 -0.001144 0.000000 0.000000 0.000000
# 3 -0.005712 -0.001144 0.008550 0.000000 0.000000 0.000000
# 4 0.000000 0.000000 0.000000 0.118191 0.000000 0.000000
# 5 0.000000 0.000000 0.000000 0.000000 -0.025268 0.000000
# 6 0.000000 0.000000 0.000000 0.000000 0.000000 0.084526
#
#
# Mechanical properties :
#
#
# Convention : Reuss Voigt Hill
#
# Bulk Modulus (GPa) = 26.34006 46.40197 36.37101
# Shear Modulus (GPa) = 20.62352 13.16324 16.89338
#
# Velocity S-wave (km/s) = 3.28485 2.62431 2.97298
# Velocity P-wave (km/s) = 5.30736 5.78448 5.55105
#
# Compressibility (1/GPa) = 0.03796499
#
# Stress axis : x y z
#
# Youngs Moduli (GPa) = 72.16792 43.96632 116.96327
#
# Poissons Ratio (x) = -0.14345 0.66812
# Poissons Ratio (y) = -0.23547 0.13375
# Poissons Ratio (z) = 0.41224 0.05028
#
# Static dielectric constant tensor:
#      x y z
#    x 1.706720 0.000000 0.000000 
#    y 0.000000 1.743640 0.000000 
#    z 0.000000 0.000000 1.701780 
# 
# From -- ./inp_files/72135.got.cif
#   From: 2010.05.17/outbox.cif.g08.bks.cpg/sg65_37_cif.got.tgz:72135.got - 2010.06.03 17:01:31.
