data_PCOD9483783
_publ_section_title
;
Structure prediction by ZEFSAII (Michael W. Deem and Ramdas Pophale) SiO2 
 PCOD9483783
Probable space group: C M M M
;
_chemical_formula_sum "Si O2"
_cell_formula_units_Z 96
_cell_length_a 7.683539
_cell_length_b 29.586578
_cell_length_c 21.437013
_cell_angle_alpha 90.000000
_cell_angle_beta 90.000000
_cell_angle_gamma 90.000000
_cell_volume 4873.268147
_symmetry_space_group_name_H-M "C M M M"
_symmetry_group_IT_number 65
_symmetry_cell_setting 'orthorhombic'
loop_
_space_group_symop_operation_xyz
x,y,z
-x,-y,z
x,-y,-z
-x,y,-z
-x,-y,-z
x,y,-z
-x,y,z
x,-y,z
1/2+x,1/2+y,z
1/2-x,1/2-y,z
1/2+x,1/2-y,-z
1/2-x,1/2+y,-z
1/2-x,1/2-y,-z
1/2+x,1/2+y,-z
1/2-x,1/2+y,z
1/2+x,1/2-y,z
loop_
_atom_site_type_symbol
_atom_site_label
_atom_site_fract_x
_atom_site_fract_y
_atom_site_fract_z
Si Si1 0.712448 0.448078 0.570694
Si Si2 0.298897 0.603125 0.067566
Si Si3 0.802358 0.699122 0.893075
Si Si4 0.212694 0.108073 0.688675
Si Si5 0.786952 0.947814 0.810313
Si Si6 0.292241 0.700118 0.748303
O O1 0.767737 0.437248 0.500000
O O2 0.500000 0.447523 0.570918
O O3 0.763230 0.500000 0.584721
O O4 0.772495 0.413913 0.624062
O O5 0.500000 0.588354 0.065089
O O6 0.298598 0.656969 0.078681
O O7 0.223357 0.578757 0.128427
O O8 0.219022 0.593027 0.000000
O O9 0.750000 0.750000 0.910911
O O10 0.785561 0.696355 0.817826
O O11 0.000000 0.692238 0.911754
O O12 0.267430 0.077324 0.747226
O O13 0.266519 0.159157 0.704606
O O14 0.000000 0.107806 0.687190
O O15 0.000000 0.946314 0.810056
O O16 0.735097 0.000000 0.811218
O O17 0.500000 0.696448 0.756726
O O18 0.250000 0.750000 0.723919
#
# Coordination Sequence:
#
# PCOD9483783 Si02
#       6
#    16  16  16  16  16  16
#     4   8  13  21  35  61  98 133 160 189 233 286
#     4  10  20  34  50  70  98 128 159 197 240 287
#     4  11  21  34  53  73  96 124 157 198 246 295
#     4   9  15  24  42  66  94 125 158 196 238 280
#     4   9  16  27  45  69  94 120 156 201 241 277
#     4  10  18  30  48  71  98 125 158 198 241 288
#
# _framework density 19.699306
#
# number of rings (size 3 to 8) (size 9 to 14) (size 15 to 20)
#    0.000    2.500    1.667    4.000    0.000    3.000 
#    0.000    1.667    0.000    1.000    0.000    1.167 
#    0.000    2.000    0.000    7.333    0.000    7.333 
#
# Total GULP energy -267863.823195 kJ/mol
# GULP energy per Si atom -5580.496317 kJ/mol
# Density = 1.965447 g / cm^3
# Si number density = 19.699306 Si / 1000 Ang^3
#
#
#
# Elastic Constant Matrix: (Units=GPa)
#
#
# Indices 1 2 3 4 5 6 
#
# 1 40.4413 -8.0263 -3.7835 0.0000 0.0000 0.0000
# 2 -8.0263 132.0967 82.4384 0.0000 0.0000 0.0000
# 3 -3.7835 82.4384 137.7531 0.0000 0.0000 0.0000
# 4 0.0000 0.0000 0.0000 -303.4925 0.0000 0.0000
# 5 0.0000 0.0000 0.0000 0.0000 -1.9212 0.0000
# 6 0.0000 0.0000 0.0000 0.0000 0.0000 6.7435
#
#
#
# Elastic Compliance Matrix: (Units=1/GPa)
#
#
# Indices 1 2 3 4 5 6 
#
# 1 0.025040 0.001743 -0.000356 0.000000 0.000000 0.000000
# 2 0.001743 0.012204 -0.007256 0.000000 0.000000 0.000000
# 3 -0.000356 -0.007256 0.011592 0.000000 0.000000 0.000000
# 4 0.000000 0.000000 0.000000 -0.003295 0.000000 0.000000
# 5 0.000000 0.000000 0.000000 0.000000 -0.520501 0.000000
# 6 0.000000 0.000000 0.000000 0.000000 0.000000 0.148291
#
#
# Mechanical properties :
#
#
# Convention : Reuss Voigt Hill
#
# Bulk Modulus (GPa) = 26.95412 50.17203 38.56307
# Shear Modulus (GPa) = -16.52529 -43.75653 -30.14091
#
# Velocity S-wave (km/s) = -2.89948 -4.71810 -3.91583
# Velocity P-wave (km/s) = 1.58214 2.03872 0.90917
#
# Compressibility (1/GPa) = 0.03710007
#
# Stress axis : x y z
#
# Youngs Moduli (GPa) = 39.93619 81.93827 86.26763
#
# Poissons Ratio (x) = -0.14285 0.03067
# Poissons Ratio (y) = -0.06962 0.62594
# Poissons Ratio (z) = 0.01420 0.59453
#
# Static dielectric constant tensor:
#      x y z
#    x 1.759150 0.000000 0.000000 
#    y 0.000000 1.694840 0.000000 
#    z 0.000000 0.000000 1.683570 
# 
# From -- ./inp_files/60291.got.cif
#   From: 2010.05.17/outbox.cif.g08.bks.cpg/sg65_31_cif.got.tgz:60291.got - 2010.06.03 17:01:31.
