data_PCOD9483816
_publ_section_title
;
Structure prediction by ZEFSAII (Michael W. Deem and Ramdas Pophale) SiO2 
 PCOD9483816
Probable space group: C M M M
;
_chemical_formula_sum "Si O2"
_cell_formula_units_Z 104
_cell_length_a 8.781998
_cell_length_b 29.005927
_cell_length_c 21.869306
_cell_angle_alpha 90.000000
_cell_angle_beta 90.000000
_cell_angle_gamma 90.000000
_cell_volume 5570.768162
_symmetry_space_group_name_H-M "C M M M"
_symmetry_group_IT_number 65
_symmetry_cell_setting 'orthorhombic'
loop_
_space_group_symop_operation_xyz
x,y,z
-x,-y,z
x,-y,-z
-x,y,-z
-x,-y,-z
x,y,-z
-x,y,z
x,-y,z
1/2+x,1/2+y,z
1/2-x,1/2-y,z
1/2+x,1/2-y,-z
1/2-x,1/2+y,-z
1/2-x,1/2-y,-z
1/2+x,1/2+y,-z
1/2-x,1/2+y,z
1/2+x,1/2-y,z
loop_
_atom_site_type_symbol
_atom_site_label
_atom_site_fract_x
_atom_site_fract_y
_atom_site_fract_z
Si Si1 0.686253 0.446610 0.761890
Si Si2 0.672703 0.796537 0.251148
Si Si3 0.316475 0.300541 0.428809
Si Si4 0.819579 0.128238 0.327269
Si Si5 0.328158 0.797058 0.895749
Si Si6 0.818310 0.104260 0.113391
Si Si7 0.826706 0.445295 0.000000
O O1 0.500000 0.446228 0.762235
O O2 0.734187 0.500000 0.765559
O O3 0.736867 0.420648 0.699429
O O4 0.735993 0.417133 0.821545
O O5 0.500000 0.802586 0.274197
O O6 0.750000 0.750000 0.274282
O O7 0.781646 0.837386 0.271673
O O8 0.664476 0.793244 0.178172
O O9 0.280554 0.309669 0.500000
O O10 0.500000 0.297685 0.422535
O O11 0.250000 0.250000 0.413744
O O12 0.260934 0.342573 0.385622
O O13 0.000000 0.123410 0.336408
O O14 0.500000 0.800563 0.919313
O O15 0.250000 0.750000 0.918328
O O16 0.239682 0.844725 0.903873
O O17 0.000000 0.105360 0.115694
O O18 0.759362 0.071632 0.059973
O O19 0.831951 0.500000 0.000000
O O20 0.000000 0.427102 0.000000
#
# Coordination Sequence:
#
# PCOD9483816 Si02
#       7
#    16  16  16  16  16  16   8
#     4   9  18  32  52  78 105 134 172 221 273 322
#     4  10  19  29  45  71 105 137 170 208 252 307
#     4   9  18  31  47  70 102 140 178 217 262 315
#     4  10  18  30  49  72 101 136 176 219 266 316
#     4  10  20  34  53  79 112 146 178 213 261 321
#     4  11  21  37  61  85 111 142 182 227 273 327
#     4  11  25  43  62  85 114 147 185 229 277 327
#
# _framework density 18.668880000000001
#
# number of rings (size 3 to 8) (size 9 to 14) (size 15 to 20)
#    0.000    2.077    1.538    2.538    0.000    4.308 
#    0.000    0.385    0.000    1.846    0.000    3.231 
#    0.000    0.000    0.000    5.231    0.000    5.538 
#
# Total GULP energy -289833.331470 kJ/mol
# GULP energy per Si atom -5573.717913 kJ/mol
# Density = 1.862639 g / cm^3
# Si number density = 18.668880 Si / 1000 Ang^3
#
#
#
# Elastic Constant Matrix: (Units=GPa)
#
#
# Indices 1 2 3 4 5 6 
#
# 1 30.3155 18.8049 15.0740 0.0000 0.0000 0.0000
# 2 18.8049 136.2016 43.9400 0.0000 0.0000 0.0000
# 3 15.0740 43.9400 88.6526 0.0000 0.0000 0.0000
# 4 0.0000 0.0000 0.0000 64.5134 0.0000 0.0000
# 5 0.0000 0.0000 0.0000 0.0000 14.8323 0.0000
# 6 0.0000 0.0000 0.0000 0.0000 0.0000 21.7691
#
#
#
# Elastic Compliance Matrix: (Units=1/GPa)
#
#
# Indices 1 2 3 4 5 6 
#
# 1 0.037552 -0.003720 -0.004542 0.000000 0.000000 0.000000
# 2 -0.003720 0.009108 -0.003882 0.000000 0.000000 0.000000
# 3 -0.004542 -0.003882 0.013976 0.000000 0.000000 0.000000
# 4 0.000000 0.000000 0.000000 0.015501 0.000000 0.000000
# 5 0.000000 0.000000 0.000000 0.000000 0.067420 0.000000
# 6 0.000000 0.000000 0.000000 0.000000 0.000000 0.045937
#
#
# Mechanical properties :
#
#
# Convention : Reuss Voigt Hill
#
# Bulk Modulus (GPa) = 27.51015 45.64528 36.57772
# Shear Modulus (GPa) = 22.13406 32.04635 27.09020
#
# Velocity S-wave (km/s) = 3.44701 4.14764 3.81345
# Velocity P-wave (km/s) = 5.53266 6.88769 6.24702
#
# Compressibility (1/GPa) = 0.03635022
#
# Stress axis : x y z
#
# Youngs Moduli (GPa) = 26.62980 109.79461 71.55015
#
# Poissons Ratio (x) = 0.40838 0.32495
# Poissons Ratio (y) = 0.09905 0.27775
# Poissons Ratio (z) = 0.12094 0.42620
#
# Static dielectric constant tensor:
#      x y z
#    x 1.654610 0.000000 0.000000 
#    y 0.000000 1.653220 0.000000 
#    z 0.000000 0.000000 1.689760 
# 
# From -- ./inp_files/60431.got.cif
#   From: 2010.05.17/outbox.cif.g08.bks.cpg/sg65_31_cif.got.tgz:60431.got - 2010.06.03 17:01:31.
