data_PCOD9483032
_publ_section_title
;
Structure prediction by ZEFSAII (Michael W. Deem and Ramdas Pophale) SiO2 
 PCOD9483032
Probable space group: C M M M
;
_chemical_formula_sum "Si O2"
_cell_formula_units_Z 80
_cell_length_a 20.945606
_cell_length_b 8.208394
_cell_length_c 27.076982
_cell_angle_alpha 90.000000
_cell_angle_beta 90.000000
_cell_angle_gamma 90.000000
_cell_volume 4655.339737
_symmetry_space_group_name_H-M "C M M M"
_symmetry_group_IT_number 65
_symmetry_cell_setting 'orthorhombic'
loop_
_space_group_symop_operation_xyz
x,y,z
-x,-y,z
x,-y,-z
-x,y,-z
-x,-y,-z
x,y,-z
-x,y,z
x,-y,z
1/2+x,1/2+y,z
1/2-x,1/2-y,z
1/2+x,1/2-y,-z
1/2-x,1/2+y,-z
1/2-x,1/2-y,-z
1/2+x,1/2+y,-z
1/2-x,1/2+y,z
1/2+x,1/2-y,z
loop_
_atom_site_type_symbol
_atom_site_label
_atom_site_fract_x
_atom_site_fract_y
_atom_site_fract_z
Si Si1 0.425041 0.000000 0.850564
Si Si2 0.643469 0.678579 0.810840
Si Si3 0.077081 0.000000 0.555994
Si Si4 0.424293 0.813081 0.377259
Si Si5 0.750000 0.750000 0.111179
Si Si6 0.678980 0.691009 0.303060
Si Si7 0.660578 0.000000 0.942332
O O1 0.397223 0.836263 0.825716
O O2 0.400955 0.000000 0.907186
O O3 0.500000 0.000000 0.846995
O O4 0.610600 0.500000 0.811137
O O5 0.700594 0.669551 0.850521
O O6 0.670176 0.706256 0.755876
O O7 0.093246 0.832518 0.584751
O O8 0.102064 0.000000 0.500000
O O9 0.000000 0.000000 0.553563
O O10 0.500000 0.792662 0.364651
O O11 0.377045 0.786758 0.331156
O O12 0.417094 0.000000 0.395721
O O13 0.704798 0.852005 0.075464
O O14 0.672665 0.500000 0.315361
O O15 0.750000 0.750000 0.316579
O O16 0.647058 0.000000 0.000000
#
# Coordination Sequence:
#
# PCOD9483032 Si02
#       7
#     8  16   8  16   8  16   8
#     4  10  24  39  55  79 110 151 193 225 274 342
#     4  10  21  36  57  82 112 149 183 230 277 329
#     4   9  18  36  60  84 110 144 195 249 292 334
#     4  10  21  37  56  84 119 152 189 235 283 338
#     4  10  17  34  56  82 114 134 179 234 284 334
#     4  11  22  34  57  86 117 154 190 229 281 341
#     4  10  20  33  57  83 107 140 179 237 292 334
#
# _framework density 17.184566
#
# number of rings (size 3 to 8) (size 9 to 14) (size 15 to 20)
#    0.000    1.900    3.000    0.900    2.800    1.800 
#    0.000    4.000    0.000    0.600    0.000    2.800 
#    0.000    0.000    0.000    0.000    0.000    0.000 
#
# Total GULP energy -222755.362582 kJ/mol
# GULP energy per Si atom -5568.884065 kJ/mol
# Density = 1.714545 g / cm^3
# Si number density = 17.184566 Si / 1000 Ang^3
#
#
#
# Elastic Constant Matrix: (Units=GPa)
#
#
# Indices 1 2 3 4 5 6 
#
# 1 84.5535 53.5016 24.9882 0.0000 0.0000 0.0000
# 2 53.5016 138.7294 49.0688 0.0000 0.0000 0.0000
# 3 24.9882 49.0688 88.4986 0.0000 0.0000 0.0000
# 4 0.0000 0.0000 0.0000 -14.5518 0.0000 0.0000
# 5 0.0000 0.0000 0.0000 0.0000 6.8175 0.0000
# 6 0.0000 0.0000 0.0000 0.0000 0.0000 22.1528
#
#
#
# Elastic Compliance Matrix: (Units=1/GPa)
#
#
# Indices 1 2 3 4 5 6 
#
# 1 0.015772 -0.005607 -0.001344 0.000000 0.000000 0.000000
# 2 -0.005607 0.010960 -0.004494 0.000000 0.000000 0.000000
# 3 -0.001344 -0.004494 0.014171 0.000000 0.000000 0.000000
# 4 0.000000 0.000000 0.000000 -0.068720 0.000000 0.000000
# 5 0.000000 0.000000 0.000000 0.000000 0.146682 0.000000
# 6 0.000000 0.000000 0.000000 0.000000 0.000000 0.045141
#
#
# Mechanical properties :
#
#
# Convention : Reuss Voigt Hill
#
# Bulk Modulus (GPa) = 55.51706 62.98876 59.25291
# Shear Modulus (GPa) = 25.92006 15.16522 20.54264
#
# Velocity S-wave (km/s) = 3.88794 2.97390 3.46122
# Velocity P-wave (km/s) = 7.24784 6.96606 7.10835
#
# Compressibility (1/GPa) = 0.01801248
#
# Stress axis : x y z
#
# Youngs Moduli (GPa) = 63.40335 91.24012 70.56749
#
# Poissons Ratio (x) = 0.51158 0.09488
# Poissons Ratio (y) = 0.35550 0.31711
# Poissons Ratio (z) = 0.08524 0.41001
#
# Static dielectric constant tensor:
#      x y z
#    x 1.552280 0.000000 0.000000 
#    y 0.000000 1.645530 0.000000 
#    z 0.000000 0.000000 1.559700 
# 
# From -- ./inp_files/70887.got.cif
#   From: 2010.05.17/outbox.cif.g08.bks.cpg/sg65_36_cif.got.tgz:70887.got - 2010.06.03 17:01:31.
