data_PCOD9483323
_publ_section_title
;
Structure prediction by ZEFSAII (Michael W. Deem and Ramdas Pophale) SiO2 
 PCOD9483323
Probable space group: C M M M
;
_chemical_formula_sum "Si O2"
_cell_formula_units_Z 104
_cell_length_a 18.025449
_cell_length_b 13.665260
_cell_length_c 24.536893
_cell_angle_alpha 90.000000
_cell_angle_beta 90.000000
_cell_angle_gamma 90.000000
_cell_volume 6043.987530
_symmetry_space_group_name_H-M "C M M M"
_symmetry_group_IT_number 65
_symmetry_cell_setting 'orthorhombic'
loop_
_space_group_symop_operation_xyz
x,y,z
-x,-y,z
x,-y,-z
-x,y,-z
-x,-y,-z
x,y,-z
-x,y,z
x,-y,z
1/2+x,1/2+y,z
1/2-x,1/2-y,z
1/2+x,1/2-y,-z
1/2-x,1/2+y,-z
1/2-x,1/2-y,-z
1/2+x,1/2+y,-z
1/2-x,1/2+y,z
1/2+x,1/2-y,z
loop_
_atom_site_type_symbol
_atom_site_label
_atom_site_fract_x
_atom_site_fract_y
_atom_site_fract_z
Si Si1 0.838124 0.614148 0.717560
Si Si2 0.697169 0.615954 0.653380
Si Si3 0.290657 0.110546 0.157642
Si Si4 0.130193 0.805853 0.861382
Si Si5 0.583928 0.380856 0.563232
Si Si6 0.500000 0.382907 0.935885
Si Si7 0.417804 0.306235 0.262797
O O1 0.858690 0.500000 0.710070
O O2 0.779681 0.647366 0.671237
O O3 0.797065 0.621090 0.776492
O O4 0.903525 0.692546 0.721657
O O5 0.704916 0.500000 0.644871
O O6 0.650097 0.655320 0.602092
O O7 0.644092 0.634292 0.704933
O O8 0.206892 0.133643 0.139780
O O9 0.344402 0.192967 0.133393
O O10 0.311502 0.000000 0.143758
O O11 0.072507 0.839832 0.906369
O O12 0.093886 0.817029 0.801674
O O13 0.594851 0.353733 0.500000
O O14 0.500000 0.350029 0.579720
O O15 0.583963 0.500000 0.565589
O O16 0.500000 0.500000 0.928619
O O17 0.500000 0.361265 0.000000
O O18 0.500000 0.338017 0.278123
#
# Coordination Sequence:
#
# PCOD9483323 Si02
#       7
#    16  16  16  16  16   8  16
#     4   9  18  31  47  67  96 132 164 201 246 293
#     4  10  18  28  45  71 100 128 160 199 250 304
#     4   9  17  32  54  78 103 135 171 208 254 302
#     4  10  19  34  54  77 105 134 170 210 251 307
#     4   8  14  25  40  61  95 135 168 201 247 305
#     4  11  24  40  57  79 109 141 169 207 262 311
#     4  11  20  30  46  72 102 128 160 202 249 296
#
# _framework density 17.207183000000001
#
# number of rings (size 3 to 8) (size 9 to 14) (size 15 to 20)
#    0.000    2.385    2.308    1.846    0.000    1.846 
#    0.000    1.923    0.000    3.692    0.000    0.000 
#    0.000    0.000    0.000    9.231    0.000    0.154 
#
# Total GULP energy -289796.926232 kJ/mol
# GULP energy per Si atom -5573.017812 kJ/mol
# Density = 1.716802 g / cm^3
# Si number density = 17.207183 Si / 1000 Ang^3
#
#
#
# Elastic Constant Matrix: (Units=GPa)
#
#
# Indices 1 2 3 4 5 6 
#
# 1 49.4247 -3.2963 27.0711 0.0000 0.0000 0.0000
# 2 -3.2963 32.3244 19.0385 0.0000 0.0000 0.0000
# 3 27.0711 19.0385 76.7073 0.0000 0.0000 0.0000
# 4 0.0000 0.0000 0.0000 14.8272 0.0000 0.0000
# 5 0.0000 0.0000 0.0000 0.0000 17.0297 0.0000
# 6 0.0000 0.0000 0.0000 0.0000 0.0000 13.8540
#
#
#
# Elastic Compliance Matrix: (Units=1/GPa)
#
#
# Indices 1 2 3 4 5 6 
#
# 1 0.027596 0.010014 -0.012225 0.000000 0.000000 0.000000
# 2 0.010014 0.039867 -0.013429 0.000000 0.000000 0.000000
# 3 -0.012225 -0.013429 0.020684 0.000000 0.000000 0.000000
# 4 0.000000 0.000000 0.000000 0.067444 0.000000 0.000000
# 5 0.000000 0.000000 0.000000 0.000000 0.058721 0.000000
# 6 0.000000 0.000000 0.000000 0.000000 0.000000 0.072181
#
#
# Mechanical properties :
#
#
# Convention : Reuss Voigt Hill
#
# Bulk Modulus (GPa) = 17.58444 27.12035 22.35240
# Shear Modulus (GPa) = 14.84876 16.85172 15.85024
#
# Velocity S-wave (km/s) = 2.94077 3.13284 3.03832
# Velocity P-wave (km/s) = 4.66608 5.37415 5.03258
#
# Compressibility (1/GPa) = 0.05686844
#
# Stress axis : x y z
#
# Youngs Moduli (GPa) = 36.23659 25.08331 48.34676
#
# Poissons Ratio (x) = -0.25119 0.59102
# Poissons Ratio (y) = -0.36288 0.64925
# Poissons Ratio (z) = 0.44298 0.33685
#
# Static dielectric constant tensor:
#      x y z
#    x 1.579240 0.000000 0.000000 
#    y 0.000000 1.598610 0.000000 
#    z 0.000000 0.000000 1.574960 
# 
# From -- ./inp_files/70543.got.cif
#   From: 2010.05.17/outbox.cif.g08.bks.cpg/sg65_36_cif.got.tgz:70543.got - 2010.06.03 17:01:31.
