data_PCOD9483922
_publ_section_title
;
Structure prediction by ZEFSAII (Michael W. Deem and Ramdas Pophale) SiO2 
 PCOD9483922
Probable space group: C M M M
;
_chemical_formula_sum "Si O2"
_cell_formula_units_Z 104
_cell_length_a 8.193089
_cell_length_b 29.730586
_cell_length_c 23.670737
_cell_angle_alpha 90.000000
_cell_angle_beta 90.000000
_cell_angle_gamma 90.000000
_cell_volume 5765.844452
_symmetry_space_group_name_H-M "C M M M"
_symmetry_group_IT_number 65
_symmetry_cell_setting 'orthorhombic'
loop_
_space_group_symop_operation_xyz
x,y,z
-x,-y,z
x,-y,-z
-x,y,-z
-x,-y,-z
x,y,-z
-x,y,z
x,-y,z
1/2+x,1/2+y,z
1/2-x,1/2-y,z
1/2+x,1/2-y,-z
1/2-x,1/2+y,-z
1/2-x,1/2-y,-z
1/2+x,1/2+y,-z
1/2-x,1/2+y,z
1/2+x,1/2-y,z
loop_
_atom_site_type_symbol
_atom_site_label
_atom_site_fract_x
_atom_site_fract_y
_atom_site_fract_z
Si Si1 0.302855 0.301517 0.222925
Si Si2 0.198856 0.050040 0.850846
Si Si3 0.305194 0.199984 0.435843
Si Si4 0.197179 0.854510 0.111011
Si Si5 0.198853 0.950075 0.281240
Si Si6 0.696995 0.642329 0.668183
Si Si7 0.693190 0.198325 0.000000
O O1 0.500000 0.303155 0.222932
O O2 0.250000 0.250000 0.221153
O O3 0.246404 0.328316 0.167306
O O4 0.246041 0.326080 0.280038
O O5 0.254316 0.093614 0.885437
O O6 0.242401 0.056728 0.784742
O O7 0.000000 0.049441 0.852869
O O8 0.254499 0.000000 0.868318
O O9 0.243372 0.192478 0.500000
O O10 0.500000 0.199701 0.437295
O O11 0.250000 0.250000 0.418068
O O12 0.247998 0.163483 0.390923
O O13 0.247393 0.827834 0.055519
O O14 0.000000 0.855375 0.112704
O O15 0.255105 0.908249 0.318584
O O16 0.000000 0.950178 0.282606
O O17 0.253916 0.000000 0.298475
O O18 0.500000 0.641797 0.669937
O O19 0.750000 0.250000 0.000000
O O20 0.500000 0.198489 0.000000
#
# Coordination Sequence:
#
# PCOD9483922 Si02
#       7
#    16  16  16  16  16  16   8
#     4  10  20  31  46  72 103 131 161 203 253 303
#     4   8  13  25  50  81 108 133 164 205 251 298
#     4  10  21  36  52  71  98 135 177 216 254 300
#     4  10  19  35  56  78 104 134 170 210 252 302
#     4   8  13  24  46  77 109 136 163 202 252 301
#     4  10  18  30  50  78 107 133 166 207 255 305
#     4  12  26  42  57  74  97 133 178 217 257 304
#
# _framework density 18.037254000000001
#
# number of rings (size 3 to 8) (size 9 to 14) (size 15 to 20)
#    0.000    2.462    1.538    3.000    0.000    4.615 
#    0.000    0.385    0.000    3.692    0.000    5.385 
#    0.000    0.000    0.000    0.000    0.000    0.000 
#
# Total GULP energy -290036.557479 kJ/mol
# GULP energy per Si atom -5577.626105 kJ/mol
# Density = 1.799620 g / cm^3
# Si number density = 18.037254 Si / 1000 Ang^3
#
#
#
# Elastic Constant Matrix: (Units=GPa)
#
#
# Indices 1 2 3 4 5 6 
#
# 1 10.8578 17.3036 10.3189 0.0000 0.0000 0.0000
# 2 17.3036 203.2922 89.4892 0.0000 0.0000 0.0000
# 3 10.3189 89.4892 98.7422 0.0000 0.0000 0.0000
# 4 0.0000 0.0000 0.0000 25.1070 0.0000 0.0000
# 5 0.0000 0.0000 0.0000 0.0000 0.2901 0.0000
# 6 0.0000 0.0000 0.0000 0.0000 0.0000 17.8648
#
#
#
# Elastic Compliance Matrix: (Units=1/GPa)
#
#
# Indices 1 2 3 4 5 6 
#
# 1 0.107969 -0.007026 -0.004915 0.000000 0.000000 0.000000
# 2 -0.007026 0.008641 -0.007097 0.000000 0.000000 0.000000
# 3 -0.004915 -0.007097 0.017073 0.000000 0.000000 0.000000
# 4 0.000000 0.000000 0.000000 0.039830 0.000000 0.000000
# 5 0.000000 0.000000 0.000000 0.000000 3.447387 0.000000
# 6 0.000000 0.000000 0.000000 0.000000 0.000000 0.055976
#
#
# Mechanical properties :
#
#
# Convention : Reuss Voigt Hill
#
# Bulk Modulus (GPa) = 10.45964 60.79063 35.62513
# Shear Modulus (GPa) = 1.33446 21.70442 11.51944
#
# Velocity S-wave (km/s) = 0.86107 3.47264 2.52989
# Velocity P-wave (km/s) = 2.60770 7.06080 5.32236
#
# Compressibility (1/GPa) = 0.09560555
#
# Stress axis : x y z
#
# Youngs Moduli (GPa) = 9.26196 115.72342 58.57125
#
# Poissons Ratio (x) = 0.81310 0.28789
# Poissons Ratio (y) = 0.06508 0.41570
# Poissons Ratio (z) = 0.04552 0.82132
#
# Static dielectric constant tensor:
#      x y z
#    x 1.647120 0.000000 0.000000 
#    y 0.000000 1.605670 0.000000 
#    z 0.000000 0.000000 1.608260 
# 
# From -- ./inp_files/68189.got.cif
#   From: 2010.05.17/outbox.cif.g08.bks.cpg/sg65_35_cif.got.tgz:68189.got - 2010.06.03 17:01:31.
