data_PCOD9483392
_publ_section_title
;
Structure prediction by ZEFSAII (Michael W. Deem and Ramdas Pophale) SiO2 
 PCOD9483392
Probable space group: C M M M
;
_chemical_formula_sum "Si O2"
_cell_formula_units_Z 72
_cell_length_a 18.594880
_cell_length_b 19.662043
_cell_length_c 12.111077
_cell_angle_alpha 90.000000
_cell_angle_beta 90.000000
_cell_angle_gamma 90.000000
_cell_volume 4427.971194
_symmetry_space_group_name_H-M "C M M M"
_symmetry_group_IT_number 65
_symmetry_cell_setting 'orthorhombic'
loop_
_space_group_symop_operation_xyz
x,y,z
-x,-y,z
x,-y,-z
-x,y,-z
-x,-y,-z
x,y,-z
-x,y,z
x,-y,z
1/2+x,1/2+y,z
1/2-x,1/2-y,z
1/2+x,1/2-y,-z
1/2-x,1/2+y,-z
1/2-x,1/2-y,-z
1/2+x,1/2+y,-z
1/2-x,1/2+y,z
1/2+x,1/2-y,z
loop_
_atom_site_type_symbol
_atom_site_label
_atom_site_fract_x
_atom_site_fract_y
_atom_site_fract_z
Si Si1 0.142396 0.705208 0.000000
Si Si2 0.916057 0.270298 0.236827
Si Si3 0.086126 0.000000 0.370847
Si Si4 0.211568 0.675876 0.625285
Si Si5 0.794610 0.859515 0.000000
Si Si6 0.841408 0.878222 0.239145
O O1 0.097845 0.702195 0.112897
O O2 0.176126 0.781535 0.000000
O O3 0.208551 0.652030 0.000000
O O4 0.865607 0.312937 0.319217
O O5 0.885461 0.192948 0.241656
O O6 0.000000 0.271538 0.263726
O O7 0.115660 0.934718 0.305905
O O8 0.108651 0.000000 0.500000
O O9 0.000000 0.000000 0.368469
O O10 0.207013 0.650756 0.500000
O O11 0.250000 0.750000 0.622655
O O12 0.264921 0.632537 0.700798
O O13 0.824047 0.893367 0.111295
#
# Coordination Sequence:
#
# PCOD9483392 Si02
#       6
#     8  16   8  16   8  16
#     4   9  15  28  46  74 101 130 159 195 255 316
#     4  10  18  28  47  75 105 131 160 204 258 308
#     4  11  24  39  53  71 100 140 180 212 242 282
#     4   9  17  29  46  67  94 130 170 209 250 298
#     4   9  16  29  53  72  95 129 165 209 249 296
#     4  10  19  34  51  71  99 135 175 208 246 293
#
# _framework density 16.260268
#
# number of rings (size 3 to 8) (size 9 to 14) (size 15 to 20)
#    0.000    2.333    2.222    1.667    0.000    1.778 
#    0.000    2.222    0.000    0.000    0.000    0.778 
#    0.000    4.444    0.000    0.000    0.000    0.000 
#
# Total GULP energy -200633.347978 kJ/mol
# GULP energy per Si atom -5573.148555 kJ/mol
# Density = 1.622326 g / cm^3
# Si number density = 16.260268 Si / 1000 Ang^3
#
#
#
# Elastic Constant Matrix: (Units=GPa)
#
#
# Indices 1 2 3 4 5 6 
#
# 1 137.0511 19.8532 65.0277 0.0000 0.0000 0.0000
# 2 19.8532 28.3797 33.1316 0.0000 0.0000 0.0000
# 3 65.0277 33.1316 163.8623 0.0000 0.0000 0.0000
# 4 0.0000 0.0000 0.0000 15.3225 0.0000 0.0000
# 5 0.0000 0.0000 0.0000 0.0000 23.9417 0.0000
# 6 0.0000 0.0000 0.0000 0.0000 0.0000 19.8841
#
#
#
# Elastic Compliance Matrix: (Units=1/GPa)
#
#
# Indices 1 2 3 4 5 6 
#
# 1 0.009160 -0.002833 -0.003062 0.000000 0.000000 0.000000
# 2 -0.002833 0.047000 -0.008379 0.000000 0.000000 0.000000
# 3 -0.003062 -0.008379 0.009012 0.000000 0.000000 0.000000
# 4 0.000000 0.000000 0.000000 0.065264 0.000000 0.000000
# 5 0.000000 0.000000 0.000000 0.000000 0.041768 0.000000
# 6 0.000000 0.000000 0.000000 0.000000 0.000000 0.050291
#
#
# Mechanical properties :
#
#
# Convention : Reuss Voigt Hill
#
# Bulk Modulus (GPa) = 27.30450 62.81312 45.05881
# Shear Modulus (GPa) = 18.99331 25.91504 22.45417
#
# Velocity S-wave (km/s) = 3.42143 3.99653 3.72011
# Velocity P-wave (km/s) = 5.69533 7.74661 6.79878
#
# Compressibility (1/GPa) = 0.03662400
#
# Stress axis : x y z
#
# Youngs Moduli (GPa) = 109.17159 21.27667 110.96256
#
# Poissons Ratio (x) = 0.06027 0.33980
# Poissons Ratio (y) = 0.30926 0.92973
# Poissons Ratio (z) = 0.33431 0.17827
#
# Static dielectric constant tensor:
#      x y z
#    x 1.526870 0.000000 0.000000 
#    y 0.000000 1.528200 0.000000 
#    z 0.000000 0.000000 1.558800 
# 
# From -- ./inp_files/26364.got.cif
#   From: 2010.05.17/outbox.cif.g08.bks.cpg/sg65_14_cif.got.tgz:26364.got - 2010.06.03 17:01:31.
