data_PCOD9483832
_publ_section_title
;
Structure prediction by ZEFSAII (Michael W. Deem and Ramdas Pophale) SiO2 
 PCOD9483832
Probable space group: C M M M
;
_chemical_formula_sum "Si O2"
_cell_formula_units_Z 64
_cell_length_a 18.540127
_cell_length_b 8.284796
_cell_length_c 21.573920
_cell_angle_alpha 90.000000
_cell_angle_beta 90.000000
_cell_angle_gamma 90.000000
_cell_volume 3313.779354
_symmetry_space_group_name_H-M "C M M M"
_symmetry_group_IT_number 65
_symmetry_cell_setting 'orthorhombic'
loop_
_space_group_symop_operation_xyz
x,y,z
-x,-y,z
x,-y,-z
-x,y,-z
-x,-y,-z
x,y,-z
-x,y,z
x,-y,z
1/2+x,1/2+y,z
1/2-x,1/2-y,z
1/2+x,1/2-y,-z
1/2-x,1/2+y,-z
1/2-x,1/2-y,-z
1/2+x,1/2+y,-z
1/2-x,1/2+y,z
1/2+x,1/2-y,z
loop_
_atom_site_type_symbol
_atom_site_label
_atom_site_fract_x
_atom_site_fract_y
_atom_site_fract_z
Si Si1 0.416744 0.197339 0.500000
Si Si2 0.333216 0.691196 0.000000
Si Si3 0.667120 0.192882 0.131812
Si Si4 0.167617 0.695097 0.376891
Si Si5 0.583102 0.197424 0.746022
O O1 0.500000 0.248891 0.500000
O O2 0.375042 0.249939 0.561826
O O3 0.416862 0.000000 0.500000
O O4 0.250000 0.750000 0.000000
O O5 0.363720 0.752283 0.934708
O O6 0.333727 0.500000 0.000000
O O7 0.750000 0.250000 0.137260
O O8 0.621545 0.251089 0.190672
O O9 0.667798 0.000000 0.132164
O O10 0.166286 0.500000 0.376871
O O11 0.250000 0.750000 0.378110
O O12 0.127511 0.750159 0.314380
O O13 0.500000 0.248440 0.742872
O O14 0.583580 0.000000 0.746155
#
# Coordination Sequence:
#
# PCOD9483832 Si02
#       5
#     8   8  16  16  16
#     4   9  17  30  51  77 102 133 172 208 242 285
#     4  10  18  30  49  72  99 127 159 199 241 290
#     4  10  18  30  50  73  97 125 160 202 245 291
#     4  10  19  32  52  76 102 131 166 208 248 290
#     4   9  18  32  50  72  97 128 167 207 244 286
#
# _framework density 19.313295
#
# number of rings (size 3 to 8) (size 9 to 14) (size 15 to 20)
#    0.000    2.375    0.000    5.250    0.000    3.000 
#    0.000    1.875    0.000   13.500    0.000    0.000 
#    0.000    0.000    0.000    0.000    0.000    0.000 
#
# Total GULP energy -178602.046301 kJ/mol
# GULP energy per Si atom -5581.313947 kJ/mol
# Density = 1.926934 g / cm^3
# Si number density = 19.313295 Si / 1000 Ang^3
#
#
#
# Elastic Constant Matrix: (Units=GPa)
#
#
# Indices 1 2 3 4 5 6 
#
# 1 155.6319 11.3525 122.0290 0.0000 0.0000 0.0000
# 2 11.3525 30.6551 25.3312 0.0000 0.0000 0.0000
# 3 122.0290 25.3312 247.0902 0.0000 0.0000 0.0000
# 4 0.0000 0.0000 0.0000 5.1367 0.0000 0.0000
# 5 0.0000 0.0000 0.0000 0.0000 16.5224 0.0000
# 6 0.0000 0.0000 0.0000 0.0000 0.0000 21.9547
#
#
#
# Elastic Compliance Matrix: (Units=1/GPa)
#
#
# Indices 1 2 3 4 5 6 
#
# 1 0.010491 0.000433 -0.005226 0.000000 0.000000 0.000000
# 2 0.000433 0.035658 -0.003869 0.000000 0.000000 0.000000
# 3 -0.005226 -0.003869 0.007025 0.000000 0.000000 0.000000
# 4 0.000000 0.000000 0.000000 0.194678 0.000000 0.000000
# 5 0.000000 0.000000 0.000000 0.000000 0.060524 0.000000
# 6 0.000000 0.000000 0.000000 0.000000 0.000000 0.045548
#
#
# Mechanical properties :
#
#
# Convention : Reuss Voigt Hill
#
# Bulk Modulus (GPa) = 27.89434 83.42252 55.65843
# Shear Modulus (GPa) = 13.04809 27.03372 20.04090
#
# Velocity S-wave (km/s) = 2.60205 3.74538 3.22479
# Velocity P-wave (km/s) = 4.84789 7.87350 6.53812
#
# Compressibility (1/GPa) = 0.03584957
#
# Stress axis : x y z
#
# Youngs Moduli (GPa) = 95.31835 28.04413 142.35851
#
# Poissons Ratio (x) = -0.01214 0.74391
# Poissons Ratio (y) = -0.04126 0.55084
# Poissons Ratio (z) = 0.49809 0.10851
#
# Static dielectric constant tensor:
#      x y z
#    x 1.632700 0.000000 0.000000 
#    y 0.000000 1.672000 0.000000 
#    z 0.000000 0.000000 1.692160 
# 
# From -- ./inp_files/55293.got.cif
#   From: 2010.05.17/outbox.cif.g08.bks.cpg/sg65_28_cif.got.tgz:55293.got - 2010.06.03 17:01:31.
