data_PCOD9483003
_publ_section_title
;
Structure prediction by ZEFSAII (Michael W. Deem and Ramdas Pophale) SiO2 
 PCOD9483003
Probable space group: C M M M
;
_chemical_formula_sum "Si O2"
_cell_formula_units_Z 100
_cell_length_a 31.033243
_cell_length_b 20.447974
_cell_length_c 7.580159
_cell_angle_alpha 90.000000
_cell_angle_beta 90.000000
_cell_angle_gamma 90.000000
_cell_volume 4810.118347
_symmetry_space_group_name_H-M "C M M M"
_symmetry_group_IT_number 65
_symmetry_cell_setting 'orthorhombic'
loop_
_space_group_symop_operation_xyz
x,y,z
-x,-y,z
x,-y,-z
-x,y,-z
-x,-y,-z
x,y,-z
-x,y,z
x,-y,z
1/2+x,1/2+y,z
1/2-x,1/2-y,z
1/2+x,1/2-y,-z
1/2-x,1/2+y,-z
1/2-x,1/2-y,-z
1/2+x,1/2+y,-z
1/2-x,1/2+y,z
1/2+x,1/2-y,z
loop_
_atom_site_type_symbol
_atom_site_label
_atom_site_fract_x
_atom_site_fract_y
_atom_site_fract_z
Si Si1 0.708611 0.709850 0.715974
Si Si2 0.672156 0.070408 0.803230
Si Si3 0.282864 0.000000 0.500000
Si Si4 0.627223 0.795493 0.713321
Si Si5 0.951649 0.790698 0.288748
Si Si6 0.806903 0.070146 0.705791
Si Si7 0.093459 0.072373 0.210647
O O1 0.707769 0.706600 0.500000
O O2 0.750000 0.750000 0.769537
O O3 0.665379 0.746683 0.770351
O O4 0.710353 0.636411 0.784053
O O5 0.641550 0.131924 0.767950
O O6 0.647569 0.000000 0.794919
O O7 0.708161 0.057086 0.655389
O O8 0.690140 0.077086 0.000000
O O9 0.626453 0.795443 0.500000
O O10 0.582675 0.763153 0.776860
O O11 0.953352 0.782805 0.500000
O O12 0.934209 0.864227 0.257350
O O13 0.000000 0.783550 0.218281
O O14 0.793144 0.064404 0.500000
O O15 0.858827 0.077547 0.707855
O O16 0.796753 0.000000 0.788134
O O17 0.075911 0.000000 0.261003
O O18 0.098939 0.072454 0.000000
#
# Coordination Sequence:
#
# PCOD9483003 Si02
#       7
#    16  16   4  16  16  16  16
#     4   9  17  29  49  79 107 135 175 224 275 331
#     4   9  17  30  53  82 108 140 180 220 268 329
#     4   8  14  32  52  82 111 138 176 224 268 326
#     4  10  17  32  53  74 109 145 172 222 281 326
#     4  10  21  35  53  78 105 139 183 225 272 325
#     4   9  16  30  52  73  99 137 181 224 265 316
#     4  10  20  33  50  73 102 139 180 224 276 326
#
# _framework density 20.789508999999999
#
# number of rings (size 3 to 8) (size 9 to 14) (size 15 to 20)
#    0.480    2.080    2.400    0.480    0.000    2.240 
#    0.000    2.400    0.000    5.280    0.000    6.160 
#    0.000    0.000    0.000    0.000    0.000    0.000 
#
# Total GULP energy -278507.252964 kJ/mol
# GULP energy per Si atom -5570.145059 kJ/mol
# Density = 2.074219 g / cm^3
# Si number density = 20.789509 Si / 1000 Ang^3
#
#
#
# Elastic Constant Matrix: (Units=GPa)
#
#
# Indices 1 2 3 4 5 6 
#
# 1 122.3833 84.6937 16.1038 0.0000 0.0000 0.0000
# 2 84.6937 198.6163 13.9635 0.0000 0.0000 0.0000
# 3 16.1038 13.9635 81.4123 0.0000 0.0000 0.0000
# 4 0.0000 0.0000 0.0000 10.8427 0.0000 0.0000
# 5 0.0000 0.0000 0.0000 0.0000 -55.9621 0.0000
# 6 0.0000 0.0000 0.0000 0.0000 0.0000 59.0089
#
#
#
# Elastic Compliance Matrix: (Units=1/GPa)
#
#
# Indices 1 2 3 4 5 6 
#
# 1 0.011766 -0.004913 -0.001485 0.000000 0.000000 0.000000
# 2 -0.004913 0.007148 -0.000254 0.000000 0.000000 0.000000
# 3 -0.001485 -0.000254 0.012620 0.000000 0.000000 0.000000
# 4 0.000000 0.000000 0.000000 0.092228 0.000000 0.000000
# 5 0.000000 0.000000 0.000000 0.000000 -0.017869 0.000000
# 6 0.000000 0.000000 0.000000 0.000000 0.000000 0.016947
#
#
# Mechanical properties :
#
#
# Convention : Reuss Voigt Hill
#
# Bulk Modulus (GPa) = 54.85264 70.21489 62.53377
# Shear Modulus (GPa) = 35.15672 21.95463 28.55568
#
# Velocity S-wave (km/s) = 4.11674 3.25321 3.71018
# Velocity P-wave (km/s) = 7.00277 6.92522 6.96410
#
# Compressibility (1/GPa) = 0.01823066
#
# Stress axis : x y z
#
# Youngs Moduli (GPa) = 84.98759 139.90497 79.23652
#
# Poissons Ratio (x) = 0.68736 0.11765
# Poissons Ratio (y) = 0.41755 0.02014
# Poissons Ratio (z) = 0.12619 0.03555
#
# Static dielectric constant tensor:
#      x y z
#    x 1.764990 0.000000 0.000000 
#    y 0.000000 1.650180 0.000000 
#    z 0.000000 0.000000 1.766640 
# 
# From -- ./inp_files/16425.got.cif
#   From: 2010.05.17/outbox.cif.g08.bks.cpg/sg65_9_cif.got.tgz:16425.got - 2010.06.03 17:01:31.
