data_PCOD9483008
_publ_section_title
;
Structure prediction by ZEFSAII (Michael W. Deem and Ramdas Pophale) SiO2 
 PCOD9483008
Probable space group: C M M M
;
_chemical_formula_sum "Si O2"
_cell_formula_units_Z 88
_cell_length_a 8.640482
_cell_length_b 24.250922
_cell_length_c 23.942350
_cell_angle_alpha 90.000000
_cell_angle_beta 90.000000
_cell_angle_gamma 90.000000
_cell_volume 5016.871759
_symmetry_space_group_name_H-M "C M M M"
_symmetry_group_IT_number 65
_symmetry_cell_setting 'orthorhombic'
loop_
_space_group_symop_operation_xyz
x,y,z
-x,-y,z
x,-y,-z
-x,y,-z
-x,-y,-z
x,y,-z
-x,y,z
x,-y,z
1/2+x,1/2+y,z
1/2-x,1/2-y,z
1/2+x,1/2-y,-z
1/2-x,1/2+y,-z
1/2-x,1/2-y,-z
1/2+x,1/2+y,-z
1/2-x,1/2+y,z
1/2+x,1/2-y,z
loop_
_atom_site_type_symbol
_atom_site_label
_atom_site_fract_x
_atom_site_fract_y
_atom_site_fract_z
Si Si1 0.684848 0.890076 0.270848
Si Si2 0.322785 0.933208 0.500000
Si Si3 0.318404 0.500000 0.783437
Si Si4 0.687686 0.188361 0.828870
Si Si5 0.186976 0.622852 0.939511
Si Si6 0.815311 0.935605 0.619005
Si Si7 0.685276 0.000000 0.095625
O O1 0.500000 0.888230 0.274434
O O2 0.738541 0.946194 0.241338
O O3 0.736430 0.841644 0.228757
O O4 0.752474 0.895730 0.332855
O O5 0.500000 0.914404 0.500000
O O6 0.240323 0.917712 0.442339
O O7 0.322074 0.000000 0.500000
O O8 0.500000 0.500000 0.769822
O O9 0.286175 0.500000 0.848870
O O10 0.500000 0.188517 0.829520
O O11 0.750000 0.250000 0.831680
O O12 0.741466 0.153952 0.883644
O O13 0.217050 0.557425 0.935062
O O14 0.000000 0.628688 0.939550
O O15 0.244598 0.643427 0.000000
O O16 0.000000 0.936286 0.620915
O O17 0.762822 0.000000 0.628458
O O18 0.500000 0.000000 0.109606
#
# Coordination Sequence:
#
# PCOD9483008 Si02
#       7
#    16   8   8  16  16  16   8
#     4  11  21  35  54  76 103 138 180 220 262 319
#     4   9  17  29  45  69 106 153 190 213 246 299
#     4  12  22  31  49  78 107 136 167 212 269 320
#     4  10  22  38  55  76 101 134 176 225 270 315
#     4   9  17  31  54  81 104 132 172 214 259 316
#     4  10  19  30  47  76 111 144 178 217 262 307
#     4  10  17  32  54  78 105 135 169 208 257 319
#
# _framework density 17.540811000000001
#
# number of rings (size 3 to 8) (size 9 to 14) (size 15 to 20)
#    0.000    1.909    2.727    2.455    0.000    4.727 
#    0.000    0.000    0.000    2.182    0.000    0.636 
#    0.000    0.000    0.000    0.000    0.000    0.000 
#
# Total GULP energy -245383.030736 kJ/mol
# GULP energy per Si atom -5576.887062 kJ/mol
# Density = 1.750089 g / cm^3
# Si number density = 17.540811 Si / 1000 Ang^3
#
#
#
# Elastic Constant Matrix: (Units=GPa)
#
#
# Indices 1 2 3 4 5 6 
#
# 1 30.8377 16.3387 36.8804 0.0000 0.0000 0.0000
# 2 16.3387 94.1230 61.2988 0.0000 0.0000 0.0000
# 3 36.8804 61.2988 177.3869 0.0000 0.0000 0.0000
# 4 0.0000 0.0000 0.0000 10.6282 0.0000 0.0000
# 5 0.0000 0.0000 0.0000 0.0000 -4.7706 0.0000
# 6 0.0000 0.0000 0.0000 0.0000 0.0000 20.3264
#
#
#
# Elastic Compliance Matrix: (Units=1/GPa)
#
#
# Indices 1 2 3 4 5 6 
#
# 1 0.043492 -0.002143 -0.008302 0.000000 0.000000 0.000000
# 2 -0.002143 0.013815 -0.004329 0.000000 0.000000 0.000000
# 3 -0.008302 -0.004329 0.008859 0.000000 0.000000 0.000000
# 4 0.000000 0.000000 0.000000 0.094089 0.000000 0.000000
# 5 0.000000 0.000000 0.000000 0.000000 -0.209617 0.000000
# 6 0.000000 0.000000 0.000000 0.000000 0.000000 0.049197
#
#
# Mechanical properties :
#
#
# Convention : Reuss Voigt Hill
#
# Bulk Modulus (GPa) = 27.30776 59.04263 43.17519
# Shear Modulus (GPa) = 120.22555 17.75878 68.99217
#
# Velocity S-wave (km/s) = 8.28790 3.18532 6.27836
# Velocity P-wave (km/s) = 10.35315 6.87470 8.78775
#
# Compressibility (1/GPa) = 0.03661963
#
# Stress axis : x y z
#
# Youngs Moduli (GPa) = 22.99284 72.38273 112.87664
#
# Poissons Ratio (x) = 0.15512 0.93708
# Poissons Ratio (y) = 0.04927 0.48860
# Poissons Ratio (z) = 0.19088 0.31331
#
# Static dielectric constant tensor:
#      x y z
#    x 1.590280 0.000000 0.000000 
#    y 0.000000 1.568710 0.000000 
#    z 0.000000 0.000000 1.632440 
# 
# From -- ./inp_files/59927.got.cif
#   From: 2010.05.17/outbox.cif.g08.bks.cpg/sg65_30_cif.got.tgz:59927.got - 2010.06.03 17:01:31.
