data_PCOD9483440
_publ_section_title
;
Structure prediction by ZEFSAII (Michael W. Deem and Ramdas Pophale) SiO2 
 PCOD9483440
Probable space group: C M M M
;
_chemical_formula_sum "Si O2"
_cell_formula_units_Z 96
_cell_length_a 28.003902
_cell_length_b 8.527681
_cell_length_c 24.845529
_cell_angle_alpha 90.000000
_cell_angle_beta 90.000000
_cell_angle_gamma 90.000000
_cell_volume 5933.319612
_symmetry_space_group_name_H-M "C M M M"
_symmetry_group_IT_number 65
_symmetry_cell_setting 'orthorhombic'
loop_
_space_group_symop_operation_xyz
x,y,z
-x,-y,z
x,-y,-z
-x,y,-z
-x,-y,-z
x,y,-z
-x,y,z
x,-y,z
1/2+x,1/2+y,z
1/2-x,1/2-y,z
1/2+x,1/2-y,-z
1/2-x,1/2+y,-z
1/2-x,1/2-y,-z
1/2+x,1/2+y,-z
1/2-x,1/2+y,z
1/2+x,1/2-y,z
loop_
_atom_site_type_symbol
_atom_site_label
_atom_site_fract_x
_atom_site_fract_y
_atom_site_fract_z
Si Si1 0.149530 0.688019 0.225193
Si Si2 0.304242 0.311094 0.000000
Si Si3 0.898924 0.810481 0.612201
Si Si4 0.555470 0.308462 0.500000
Si Si5 0.801882 0.812260 0.331874
Si Si6 0.695640 0.311661 0.882436
Si Si7 0.446835 0.810727 0.718870
O O1 0.151645 0.500000 0.225880
O O2 0.183780 0.750993 0.272597
O O3 0.165796 0.748440 0.167482
O O4 0.096002 0.739521 0.241761
O O5 0.250000 0.250000 0.000000
O O6 0.323991 0.262075 0.941610
O O7 0.303752 0.500000 0.000000
O O8 0.917542 0.757367 0.554170
O O9 0.845068 0.762257 0.628515
O O10 0.932829 0.749013 0.659681
O O11 0.900264 0.000000 0.613015
O O12 0.555595 0.500000 0.500000
O O13 0.500000 0.259408 0.500000
O O14 0.750000 0.750000 0.347367
O O15 0.800822 0.000000 0.330470
O O16 0.696798 0.500000 0.880223
O O17 0.750000 0.250000 0.877843
O O18 0.500000 0.757513 0.733755
O O19 0.446556 0.000000 0.717940
#
# Coordination Sequence:
#
# PCOD9483440 Si02
#       7
#    16   8  16   8  16  16  16
#     4  10  19  30  45  66  90 116 147 181 219 261
#     4   8  16  28  42  60  85 118 149 179 214 253
#     4   9  18  31  48  69  90 114 146 181 216 260
#     4   9  16  28  48  71  91 111 139 179 224 265
#     4  10  19  31  46  64  88 118 150 182 217 257
#     4  10  18  29  44  64  91 120 150 181 215 255
#     4   9  18  32  48  66  90 117 143 177 222 266
#
# _framework density 16.179812999999999
#
# number of rings (size 3 to 8) (size 9 to 14) (size 15 to 20)
#    0.000    2.583    0.000    2.500    0.000    3.000 
#    0.000    0.833    0.000    1.500    0.000    0.583 
#    0.000    4.667    0.000    0.000    0.000    0.000 
#
# Total GULP energy -267512.993462 kJ/mol
# GULP energy per Si atom -5573.187364 kJ/mol
# Density = 1.614299 g / cm^3
# Si number density = 16.179813 Si / 1000 Ang^3
#
#
#
# Elastic Constant Matrix: (Units=GPa)
#
#
# Indices 1 2 3 4 5 6 
#
# 1 108.5097 18.9451 68.5353 0.0000 0.0000 0.0000
# 2 18.9451 21.5004 21.5651 0.0000 0.0000 0.0000
# 3 68.5353 21.5651 156.1980 0.0000 0.0000 0.0000
# 4 0.0000 0.0000 0.0000 12.7520 0.0000 0.0000
# 5 0.0000 0.0000 0.0000 0.0000 16.2297 0.0000
# 6 0.0000 0.0000 0.0000 0.0000 0.0000 14.3372
#
#
#
# Elastic Compliance Matrix: (Units=1/GPa)
#
#
# Indices 1 2 3 4 5 6 
#
# 1 0.013590 -0.006957 -0.005002 0.000000 0.000000 0.000000
# 2 -0.006957 0.057549 -0.004893 0.000000 0.000000 0.000000
# 3 -0.005002 -0.004893 0.009273 0.000000 0.000000 0.000000
# 4 0.000000 0.000000 0.000000 0.078419 0.000000 0.000000
# 5 0.000000 0.000000 0.000000 0.000000 0.061615 0.000000
# 6 0.000000 0.000000 0.000000 0.000000 0.000000 0.069748
#
#
# Mechanical properties :
#
#
# Convention : Reuss Voigt Hill
#
# Bulk Modulus (GPa) = 21.41037 56.03324 38.72180
# Shear Modulus (GPa) = 14.72897 20.47464 17.60180
#
# Velocity S-wave (km/s) = 3.02044 3.56117 3.30189
# Velocity P-wave (km/s) = 5.04238 7.18443 6.20651
#
# Compressibility (1/GPa) = 0.04670634
#
# Stress axis : x y z
#
# Youngs Moduli (GPa) = 73.58350 17.37664 107.84571
#
# Poissons Ratio (x) = 0.12090 0.53948
# Poissons Ratio (y) = 0.51195 0.52764
# Poissons Ratio (z) = 0.36809 0.08502
#
# Static dielectric constant tensor:
#      x y z
#    x 1.541030 0.000000 0.000000 
#    y 0.000000 1.547470 0.000000 
#    z 0.000000 0.000000 1.544560 
# 
# From -- ./inp_files/71703.got.cif
#   From: 2010.05.17/outbox.cif.g08.bks.cpg/sg65_36_cif.got.tgz:71703.got - 2010.06.03 17:01:31.
