data_PCOD9483695
_publ_section_title
;
Structure prediction by ZEFSAII (Michael W. Deem and Ramdas Pophale) SiO2 
 PCOD9483695
Probable space group: C M M M
;
_chemical_formula_sum "Si O2"
_cell_formula_units_Z 88
_cell_length_a 27.907694
_cell_length_b 8.623539
_cell_length_c 22.013298
_cell_angle_alpha 90.000000
_cell_angle_beta 90.000000
_cell_angle_gamma 90.000000
_cell_volume 5297.788265
_symmetry_space_group_name_H-M "C M M M"
_symmetry_group_IT_number 65
_symmetry_cell_setting 'orthorhombic'
loop_
_space_group_symop_operation_xyz
x,y,z
-x,-y,z
x,-y,-z
-x,y,-z
-x,-y,-z
x,y,-z
-x,y,z
x,-y,z
1/2+x,1/2+y,z
1/2-x,1/2-y,z
1/2+x,1/2-y,-z
1/2-x,1/2+y,-z
1/2-x,1/2-y,-z
1/2+x,1/2+y,-z
1/2-x,1/2+y,z
1/2+x,1/2-y,z
loop_
_atom_site_type_symbol
_atom_site_label
_atom_site_fract_x
_atom_site_fract_y
_atom_site_fract_z
Si Si1 0.195597 0.814723 0.000000
Si Si2 0.304173 0.815011 0.126593
Si Si3 0.849870 0.813482 0.752246
Si Si4 0.301082 0.185587 0.367084
Si Si5 0.946805 0.186760 0.687435
Si Si6 0.100358 0.313217 0.431531
O O1 0.250000 0.750000 0.000000
O O2 0.175041 0.751728 0.936678
O O3 0.196244 0.000000 0.000000
O O4 0.250000 0.750000 0.133494
O O5 0.333951 0.760009 0.184594
O O6 0.301802 0.000000 0.123187
O O7 0.814933 0.757709 0.698176
O O8 0.903227 0.763997 0.731103
O O9 0.847900 0.000000 0.756343
O O10 0.250000 0.250000 0.387407
O O11 0.345067 0.225243 0.411836
O O12 0.298889 0.000000 0.361511
O O13 0.933518 0.243273 0.619975
O O14 0.000000 0.240517 0.704762
O O15 0.946551 0.000000 0.687399
O O16 0.090291 0.260780 0.500000
O O17 0.096103 0.500000 0.429633
#
# Coordination Sequence:
#
# PCOD9483695 Si02
#       6
#     8  16  16  16  16  16
#     4  10  18  30  46  68  99 134 169 198 228 265
#     4  11  20  31  47  70 101 134 166 196 229 268
#     4  10  19  32  49  69  93 122 157 194 234 280
#     4  10  19  31  46  65  91 122 156 193 232 275
#     4   9  19  35  53  72  93 117 149 193 241 286
#     4   9  19  34  49  67  92 121 153 189 231 283
#
# _framework density 16.610703999999998
#
# number of rings (size 3 to 8) (size 9 to 14) (size 15 to 20)
#    0.000    2.182    0.000    5.182    0.000    2.909 
#    0.000    1.818    0.000    0.000    0.000    0.636 
#    0.000    5.091    0.000    0.000    0.000    0.000 
#
# Total GULP energy -245495.554800 kJ/mol
# GULP energy per Si atom -5579.444427 kJ/mol
# Density = 1.657290 g / cm^3
# Si number density = 16.610704 Si / 1000 Ang^3
#
#
#
# Elastic Constant Matrix: (Units=GPa)
#
#
# Indices 1 2 3 4 5 6 
#
# 1 74.0291 16.7673 23.7910 0.0000 0.0000 0.0000
# 2 16.7673 71.9137 29.9470 0.0000 0.0000 0.0000
# 3 23.7910 29.9470 115.3411 0.0000 0.0000 0.0000
# 4 0.0000 0.0000 0.0000 26.6057 0.0000 0.0000
# 5 0.0000 0.0000 0.0000 0.0000 9.2810 0.0000
# 6 0.0000 0.0000 0.0000 0.0000 0.0000 17.7931
#
#
#
# Elastic Compliance Matrix: (Units=1/GPa)
#
#
# Indices 1 2 3 4 5 6 
#
# 1 0.014843 -0.002451 -0.002425 0.000000 0.000000 0.000000
# 2 -0.002451 0.015996 -0.003648 0.000000 0.000000 0.000000
# 3 -0.002425 -0.003648 0.010117 0.000000 0.000000 0.000000
# 4 0.000000 0.000000 0.000000 0.037586 0.000000 0.000000
# 5 0.000000 0.000000 0.000000 0.000000 0.107747 0.000000
# 6 0.000000 0.000000 0.000000 0.000000 0.000000 0.056202
#
#
# Mechanical properties :
#
#
# Convention : Reuss Voigt Hill
#
# Bulk Modulus (GPa) = 41.82596 44.69939 43.26267
# Shear Modulus (GPa) = 18.69107 23.45452 21.07280
#
# Velocity S-wave (km/s) = 3.35810 3.76175 3.56564
# Velocity P-wave (km/s) = 6.34591 6.77024 6.56151
#
# Compressibility (1/GPa) = 0.02390860
#
# Stress axis : x y z
#
# Youngs Moduli (GPa) = 67.37323 62.51580 98.84099
#
# Poissons Ratio (x) = 0.15321 0.23971
# Poissons Ratio (y) = 0.16511 0.36054
# Poissons Ratio (z) = 0.16340 0.22804
#
# Static dielectric constant tensor:
#      x y z
#    x 1.566230 0.000000 0.000000 
#    y 0.000000 1.558750 0.000000 
#    z 0.000000 0.000000 1.559140 
# 
# From -- ./inp_files/60304.got.cif
#   From: 2010.05.17/outbox.cif.g08.bks.cpg/sg65_31_cif.got.tgz:60304.got - 2010.06.03 17:01:31.
