data_PCOD9483188
_publ_section_title
;
Structure prediction by ZEFSAII (Michael W. Deem and Ramdas Pophale) SiO2 
 PCOD9483188
Probable space group: C M M M
;
_chemical_formula_sum "Si O2"
_cell_formula_units_Z 72
_cell_length_a 16.430318
_cell_length_b 28.974165
_cell_length_c 7.776225
_cell_angle_alpha 90.000000
_cell_angle_beta 90.000000
_cell_angle_gamma 90.000000
_cell_volume 3701.908807
_symmetry_space_group_name_H-M "C M M M"
_symmetry_group_IT_number 65
_symmetry_cell_setting 'orthorhombic'
loop_
_space_group_symop_operation_xyz
x,y,z
-x,-y,z
x,-y,-z
-x,y,-z
-x,-y,-z
x,y,-z
-x,y,z
x,-y,z
1/2+x,1/2+y,z
1/2-x,1/2-y,z
1/2+x,1/2-y,-z
1/2-x,1/2+y,-z
1/2-x,1/2-y,-z
1/2+x,1/2+y,-z
1/2-x,1/2+y,z
1/2+x,1/2-y,z
loop_
_atom_site_type_symbol
_atom_site_label
_atom_site_fract_x
_atom_site_fract_y
_atom_site_fract_z
Si Si1 0.590013 0.195446 0.790293
Si Si2 0.590183 0.303586 0.209701
Si Si3 0.250012 0.145085 0.797715
Si Si4 0.500000 0.555986 0.194647
Si Si5 0.319584 0.552212 0.701443
O O1 0.500000 0.180506 0.731625
O O2 0.599932 0.249510 0.747024
O O3 0.666246 0.165759 0.726526
O O4 0.589101 0.193243 0.000000
O O5 0.500000 0.319112 0.267772
O O6 0.668134 0.331394 0.275057
O O7 0.589327 0.306704 0.000000
O O8 0.238588 0.090469 0.780402
O O9 0.250411 0.156591 0.000000
O O10 0.500000 0.500000 0.194120
O O11 0.586470 0.568115 0.275189
O O12 0.500000 0.573649 0.000000
O O13 0.303077 0.550201 0.500000
O O14 0.312497 0.500000 0.772836
#
# Coordination Sequence:
#
# PCOD9483188 Si02
#       5
#    16  16  16   8  16
#     4   8  14  26  44  68  98 127 156 197 246 289
#     4   8  14  24  40  67 101 128 152 190 237 284
#     4  10  18  27  47  74  95 122 163 205 239 277
#     4   9  17  31  51  71  91 119 157 197 231 271
#     4  10  21  35  48  65  95 132 162 192 239 292
#
# _framework density 19.449424
#
# number of rings (size 3 to 8) (size 9 to 14) (size 15 to 20)
#    0.000    3.000    0.000    3.000    1.556    5.333 
#    0.000    0.000    0.000    4.000    0.000    7.778 
#    0.000    0.000    0.000    0.000    0.000    0.000 
#
# Total GULP energy -200729.441043 kJ/mol
# GULP energy per Si atom -5575.817807 kJ/mol
# Density = 1.940516 g / cm^3
# Si number density = 19.449424 Si / 1000 Ang^3
#
#
#
# Elastic Constant Matrix: (Units=GPa)
#
#
# Indices 1 2 3 4 5 6 
#
# 1 166.1190 94.4932 9.2808 0.0000 0.0000 0.0000
# 2 94.4932 87.1955 -6.4958 0.0000 0.0000 0.0000
# 3 9.2808 -6.4958 20.7544 0.0000 0.0000 0.0000
# 4 0.0000 0.0000 0.0000 -35.6562 0.0000 0.0000
# 5 0.0000 0.0000 0.0000 0.0000 -0.9019 0.0000
# 6 0.0000 0.0000 0.0000 0.0000 0.0000 52.9330
#
#
#
# Elastic Compliance Matrix: (Units=1/GPa)
#
#
# Indices 1 2 3 4 5 6 
#
# 1 0.019772 -0.022612 -0.015919 0.000000 0.000000 0.000000
# 2 -0.022612 0.037603 0.021881 0.000000 0.000000 0.000000
# 3 -0.015919 0.021881 0.062149 0.000000 0.000000 0.000000
# 4 0.000000 0.000000 0.000000 -0.028046 0.000000 0.000000
# 5 0.000000 0.000000 0.000000 0.000000 -1.108754 0.000000
# 6 0.000000 0.000000 0.000000 0.000000 0.000000 0.018892
#
#
# Mechanical properties :
#
#
# Convention : Reuss Voigt Hill
#
# Bulk Modulus (GPa) = 11.59764 52.06947 31.83355
# Shear Modulus (GPa) = -5.33993 15.06103 4.86055
#
# Velocity S-wave (km/s) = -1.65877 2.78577 1.58256
# Velocity P-wave (km/s) = 1.51896 6.09731 4.44322
#
# Compressibility (1/GPa) = 0.08622443
#
# Stress axis : x y z
#
# Youngs Moduli (GPa) = 50.57739 26.59331 16.09024
#
# Poissons Ratio (x) = 0.60134 0.25614
# Poissons Ratio (y) = 1.14367 -0.35207
# Poissons Ratio (z) = 0.80513 -0.58189
#
# Static dielectric constant tensor:
#      x y z
#    x 1.700400 0.000000 0.000000 
#    y 0.000000 1.689890 0.000000 
#    z 0.000000 0.000000 1.711560 
# 
# From -- ./inp_files/7236.got.cif
#   From: 2010.05.17/outbox.cif.g08.bks.cpg/sg65_4_cif.got.tgz:7236.got - 2010.06.03 17:01:31.
