data_PCOD9483903
_publ_section_title
;
Structure prediction by ZEFSAII (Michael W. Deem and Ramdas Pophale) SiO2 
 PCOD9483903
Probable space group: C M M M
;
_chemical_formula_sum "Si O2"
_cell_formula_units_Z 56
_cell_length_a 8.620294
_cell_length_b 23.953285
_cell_length_c 15.940603
_cell_angle_alpha 90.000000
_cell_angle_beta 90.000000
_cell_angle_gamma 90.000000
_cell_volume 3291.485192
_symmetry_space_group_name_H-M "C M M M"
_symmetry_group_IT_number 65
_symmetry_cell_setting 'orthorhombic'
loop_
_space_group_symop_operation_xyz
x,y,z
-x,-y,z
x,-y,-z
-x,y,-z
-x,-y,-z
x,y,-z
-x,y,z
x,-y,z
1/2+x,1/2+y,z
1/2-x,1/2-y,z
1/2+x,1/2-y,-z
1/2-x,1/2+y,-z
1/2-x,1/2-y,-z
1/2+x,1/2+y,-z
1/2-x,1/2+y,z
1/2+x,1/2-y,z
loop_
_atom_site_type_symbol
_atom_site_label
_atom_site_fract_x
_atom_site_fract_y
_atom_site_fract_z
Si Si1 0.687372 0.616233 0.660951
Si Si2 0.186878 0.187914 0.500000
Si Si3 0.313440 0.686775 0.175905
Si Si4 0.685317 0.813284 0.000000
Si Si5 0.185674 0.500000 0.598004
O O1 0.500000 0.612519 0.659933
O O2 0.737063 0.654675 0.582721
O O3 0.732153 0.647191 0.746849
O O4 0.754544 0.555194 0.644531
O O5 0.250000 0.250000 0.500000
O O6 0.000000 0.189787 0.500000
O O7 0.500000 0.690117 0.171604
O O8 0.250000 0.750000 0.188179
O O9 0.248864 0.663468 0.087694
O O10 0.750000 0.750000 0.000000
O O11 0.500000 0.812862 0.000000
O O12 0.239913 0.500000 0.500000
O O13 0.000000 0.500000 0.597038
#
# Coordination Sequence:
#
# PCOD9483903 Si02
#       5
#    16   8  16   8   8
#     4  10  21  36  55  75 103 141 177 214 260 312
#     4  10  20  33  50  75 105 138 170 206 255 310
#     4  10  19  32  52  80 109 140 175 214 261 313
#     4  10  18  30  50  75 106 143 174 212 260 310
#     4  11  23  37  55  78 101 134 181 227 264 300
#
# _framework density 17.013597000000001
#
# number of rings (size 3 to 8) (size 9 to 14) (size 15 to 20)
#    0.000    1.857    1.429    5.143    0.000    4.000 
#    0.000    0.000    0.000    0.857    0.000    6.000 
#    0.000    0.000    0.000    0.000    0.000    0.000 
#
# Total GULP energy -156271.160280 kJ/mol
# GULP energy per Si atom -5581.112867 kJ/mol
# Density = 1.697487 g / cm^3
# Si number density = 17.013597 Si / 1000 Ang^3
#
#
#
# Elastic Constant Matrix: (Units=GPa)
#
#
# Indices 1 2 3 4 5 6 
#
# 1 51.1318 33.7690 52.3319 0.0000 0.0000 0.0000
# 2 33.7690 135.9757 90.8868 0.0000 0.0000 0.0000
# 3 52.3319 90.8868 198.6112 0.0000 0.0000 0.0000
# 4 0.0000 0.0000 0.0000 3.2192 0.0000 0.0000
# 5 0.0000 0.0000 0.0000 0.0000 14.0889 0.0000
# 6 0.0000 0.0000 0.0000 0.0000 0.0000 29.3865
#
#
#
# Elastic Compliance Matrix: (Units=1/GPa)
#
#
# Indices 1 2 3 4 5 6 
#
# 1 0.027532 -0.002865 -0.005943 0.000000 0.000000 0.000000
# 2 -0.002865 0.010893 -0.004230 0.000000 0.000000 0.000000
# 3 -0.005943 -0.004230 0.008537 0.000000 0.000000 0.000000
# 4 0.000000 0.000000 0.000000 0.310638 0.000000 0.000000
# 5 0.000000 0.000000 0.000000 0.000000 0.070978 0.000000
# 6 0.000000 0.000000 0.000000 0.000000 0.000000 0.034029
#
#
# Mechanical properties :
#
#
# Convention : Reuss Voigt Hill
#
# Bulk Modulus (GPa) = 47.88017 82.18823 65.03420
# Shear Modulus (GPa) = 10.08785 23.25430 16.67108
#
# Velocity S-wave (km/s) = 2.43765 3.70105 3.13368
# Velocity P-wave (km/s) = 6.01051 8.16553 7.16946
#
# Compressibility (1/GPa) = 0.02088547
#
# Stress axis : x y z
#
# Youngs Moduli (GPa) = 36.32093 91.80182 117.14192
#
# Poissons Ratio (x) = 0.26300 0.69623
# Poissons Ratio (y) = 0.10406 0.49550
# Poissons Ratio (z) = 0.21587 0.38831
#
# Static dielectric constant tensor:
#      x y z
#    x 1.578440 0.000000 0.000000 
#    y 0.000000 1.120440 0.000000 
#    z 0.000000 0.000000 1.604860 
# 
# From -- ./inp_files/35827.got.cif
#   From: 2010.05.17/outbox.cif.g08.bks.cpg/sg65_18_cif.got.tgz:35827.got - 2010.06.03 17:01:31.
