data_PCOD9483798
_publ_section_title
;
Structure prediction by ZEFSAII (Michael W. Deem and Ramdas Pophale) SiO2 
 PCOD9483798
Probable space group: C M M M
;
_chemical_formula_sum "Si O2"
_cell_formula_units_Z 64
_cell_length_a 18.541041
_cell_length_b 17.155418
_cell_length_c 12.192607
_cell_angle_alpha 90.000000
_cell_angle_beta 90.000000
_cell_angle_gamma 90.000000
_cell_volume 3878.216003
_symmetry_space_group_name_H-M "C M M M"
_symmetry_group_IT_number 65
_symmetry_cell_setting 'orthorhombic'
loop_
_space_group_symop_operation_xyz
x,y,z
-x,-y,z
x,-y,-z
-x,y,-z
-x,-y,-z
x,y,-z
-x,y,z
x,-y,z
1/2+x,1/2+y,z
1/2-x,1/2-y,z
1/2+x,1/2-y,-z
1/2-x,1/2+y,-z
1/2-x,1/2-y,-z
1/2+x,1/2+y,-z
1/2-x,1/2+y,z
1/2+x,1/2-y,z
loop_
_atom_site_type_symbol
_atom_site_label
_atom_site_fract_x
_atom_site_fract_y
_atom_site_fract_z
Si Si1 0.231455 0.158988 0.127174
Si Si2 0.000000 0.595180 0.874760
Si Si3 0.579732 0.591023 0.867272
Si Si4 0.915446 0.595053 0.500000
Si Si5 0.361645 0.906222 0.264423
O O1 0.250000 0.250000 0.127385
O O2 0.149608 0.140826 0.163418
O O3 0.287979 0.118708 0.207673
O O4 0.239880 0.130852 0.000000
O O5 0.928570 0.620565 0.810937
O O6 0.000000 0.500000 0.875654
O O7 0.000000 0.622195 0.000000
O O8 0.500000 0.616353 0.828178
O O9 0.590046 0.500000 0.836436
O O10 0.577335 0.593117 0.000000
O O11 0.915322 0.500000 0.500000
O O12 0.876294 0.620898 0.611421
O O13 0.000000 0.617775 0.500000
O O14 0.364081 0.000000 0.266319
#
# Coordination Sequence:
#
# PCOD9483798 Si02
#       5
#    16   8  16   8  16
#     4  10  20  32  44  68 103 130 155 194 250 305
#     4   9  16  25  41  69  99 122 148 182 227 288
#     4   8  14  27  47  66  85 117 161 200 232 276
#     4   9  16  30  49  70  95 125 165 210 241 275
#     4  10  18  30  49  70  94 127 165 201 240 285
#
# _framework density 16.502433
#
# number of rings (size 3 to 8) (size 9 to 14) (size 15 to 20)
#    0.000    2.750    1.250    2.250    0.000    2.500 
#    2.250    0.625    0.000    0.000    0.000    0.875 
#    0.000    5.000    0.000    0.000    0.000    0.000 
#
# Total GULP energy -178215.811380 kJ/mol
# GULP energy per Si atom -5569.244106 kJ/mol
# Density = 1.646487 g / cm^3
# Si number density = 16.502433 Si / 1000 Ang^3
#
#
#
# Elastic Constant Matrix: (Units=GPa)
#
#
# Indices 1 2 3 4 5 6 
#
# 1 178.3284 38.6192 63.8183 0.0000 0.0000 0.0000
# 2 38.6192 18.0672 16.0734 0.0000 0.0000 0.0000
# 3 63.8183 16.0734 113.5117 0.0000 0.0000 0.0000
# 4 0.0000 0.0000 0.0000 60.6866 0.0000 0.0000
# 5 0.0000 0.0000 0.0000 0.0000 12.2403 0.0000
# 6 0.0000 0.0000 0.0000 0.0000 0.0000 6.9677
#
#
#
# Elastic Compliance Matrix: (Units=1/GPa)
#
#
# Indices 1 2 3 4 5 6 
#
# 1 0.011490 -0.021525 -0.003412 0.000000 0.000000 0.000000
# 2 -0.021525 0.103652 -0.002575 0.000000 0.000000 0.000000
# 3 -0.003412 -0.002575 0.011093 0.000000 0.000000 0.000000
# 4 0.000000 0.000000 0.000000 0.016478 0.000000 0.000000
# 5 0.000000 0.000000 0.000000 0.000000 0.081697 0.000000
# 6 0.000000 0.000000 0.000000 0.000000 0.000000 0.143520
#
#
# Mechanical properties :
#
#
# Convention : Reuss Voigt Hill
#
# Bulk Modulus (GPa) = 14.04315 60.76990 37.40652
# Shear Modulus (GPa) = 11.19341 28.73868 19.96605
#
# Velocity S-wave (km/s) = 2.60722 4.17763 3.48211
# Velocity P-wave (km/s) = 4.19425 7.75725 6.23565
#
# Compressibility (1/GPa) = 0.07120910
#
# Stress axis : x y z
#
# Youngs Moduli (GPa) = 87.03000 9.64771 90.15008
#
# Poissons Ratio (x) = 0.20767 0.30759
# Poissons Ratio (y) = 1.87336 0.23216
# Poissons Ratio (z) = 0.29695 0.02484
#
# Static dielectric constant tensor:
#      x y z
#    x 1.567510 0.000000 0.000000 
#    y 0.000000 1.548370 0.000000 
#    z 0.000000 0.000000 1.545450 
# 
# From -- ./inp_files/26119.got.cif
#   From: 2010.05.17/outbox.cif.g08.bks.cpg/sg65_14_cif.got.tgz:26119.got - 2010.06.03 17:01:31.
