data_PCOD9483462
_publ_section_title
;
Structure prediction by ZEFSAII (Michael W. Deem and Ramdas Pophale) SiO2 
 PCOD9483462
Probable space group: C M M M
;
_chemical_formula_sum "Si O2"
_cell_formula_units_Z 104
_cell_length_a 28.059699
_cell_length_b 8.892968
_cell_length_c 27.185403
_cell_angle_alpha 90.000000
_cell_angle_beta 90.000000
_cell_angle_gamma 90.000000
_cell_volume 6783.682496
_symmetry_space_group_name_H-M "C M M M"
_symmetry_group_IT_number 65
_symmetry_cell_setting 'orthorhombic'
loop_
_space_group_symop_operation_xyz
x,y,z
-x,-y,z
x,-y,-z
-x,y,-z
-x,-y,-z
x,y,-z
-x,y,z
x,-y,z
1/2+x,1/2+y,z
1/2-x,1/2-y,z
1/2+x,1/2-y,-z
1/2-x,1/2+y,-z
1/2-x,1/2-y,-z
1/2+x,1/2+y,-z
1/2-x,1/2+y,z
1/2+x,1/2-y,z
loop_
_atom_site_type_symbol
_atom_site_label
_atom_site_fract_x
_atom_site_fract_y
_atom_site_fract_z
Si Si1 0.890234 0.320520 0.147135
Si Si2 0.803241 0.680894 0.391832
Si Si3 0.357075 0.320472 0.300317
Si Si4 0.944316 0.180815 0.056473
Si Si5 0.301846 0.679621 0.800413
Si Si6 0.445042 0.180815 0.247298
Si Si7 0.302541 0.180209 0.500000
O O1 0.885321 0.500000 0.145364
O O2 0.911799 0.258970 0.096790
O O3 0.840044 0.246514 0.161545
O O4 0.926090 0.283163 0.192362
O O5 0.799906 0.500000 0.388056
O O6 0.750000 0.750000 0.387368
O O7 0.835938 0.744965 0.348817
O O8 0.823069 0.721437 0.446510
O O9 0.358384 0.500000 0.305822
O O10 0.322531 0.284317 0.253990
O O11 0.408754 0.258609 0.284857
O O12 0.000000 0.219720 0.064732
O O13 0.940298 0.000000 0.060814
O O14 0.932507 0.221186 0.000000
O O15 0.299813 0.500000 0.805075
O O16 0.250000 0.750000 0.806464
O O17 0.500000 0.225726 0.253081
O O18 0.441833 0.000000 0.253021
O O19 0.250000 0.250000 0.500000
O O20 0.298578 0.000000 0.500000
#
# Coordination Sequence:
#
# PCOD9483462 Si02
#       7
#    16  16  16  16  16  16   8
#     4  10  19  31  49  72  96 122 153 189 228 271
#     4  10  18  29  45  65  92 123 154 189 227 269
#     4  10  20  31  45  68  94 122 155 188 226 271
#     4   9  18  32  49  70  97 127 156 187 226 271
#     4  10  20  33  48  67  93 124 157 191 226 268
#     4   9  18  32  48  67  93 123 153 187 228 271
#     4   8  16  28  42  62  87 118 153 186 224 269
#
# _framework density 15.330906000000001
#
# number of rings (size 3 to 8) (size 9 to 14) (size 15 to 20)
#    0.000    2.462    0.000    3.231    0.000    5.846 
#    0.000    0.769    0.000    0.462    0.000    0.538 
#    0.000    4.308    0.000    0.000    0.000    0.000 
#
# Total GULP energy -289936.239182 kJ/mol
# GULP energy per Si atom -5575.696907 kJ/mol
# Density = 1.529601 g / cm^3
# Si number density = 15.330906 Si / 1000 Ang^3
#
#
#
# Elastic Constant Matrix: (Units=GPa)
#
#
# Indices 1 2 3 4 5 6 
#
# 1 128.0926 51.3666 82.7681 0.0000 0.0000 0.0000
# 2 51.3666 44.7038 56.2032 0.0000 0.0000 0.0000
# 3 82.7681 56.2032 141.0193 0.0000 0.0000 0.0000
# 4 0.0000 0.0000 0.0000 25.9867 0.0000 0.0000
# 5 0.0000 0.0000 0.0000 0.0000 24.1956 0.0000
# 6 0.0000 0.0000 0.0000 0.0000 0.0000 26.7511
#
#
#
# Elastic Compliance Matrix: (Units=1/GPa)
#
#
# Indices 1 2 3 4 5 6 
#
# 1 0.015536 -0.012802 -0.004016 0.000000 0.000000 0.000000
# 2 -0.012802 0.055384 -0.014560 0.000000 0.000000 0.000000
# 3 -0.004016 -0.014560 0.015251 0.000000 0.000000 0.000000
# 4 0.000000 0.000000 0.000000 0.038481 0.000000 0.000000
# 5 0.000000 0.000000 0.000000 0.000000 0.041330 0.000000
# 6 0.000000 0.000000 0.000000 0.000000 0.000000 0.037382
#
#
# Mechanical properties :
#
#
# Convention : Reuss Voigt Hill
#
# Bulk Modulus (GPa) = 42.70622 77.16571 59.93597
# Shear Modulus (GPa) = 18.25323 23.61852 20.93588
#
# Velocity S-wave (km/s) = 3.45427 3.92928 3.69941
# Velocity P-wave (km/s) = 6.62013 8.42783 7.57808
#
# Compressibility (1/GPa) = 0.02341579
#
# Stress axis : x y z
#
# Youngs Moduli (GPa) = 64.36835 18.05567 65.56916
#
# Poissons Ratio (x) = 0.23115 0.26333
# Poissons Ratio (y) = 0.82404 0.95466
# Poissons Ratio (z) = 0.25851 0.26288
#
# Static dielectric constant tensor:
#      x y z
#    x 1.478380 0.000000 0.000000 
#    y 0.000000 1.509840 0.000000 
#    z 0.000000 0.000000 1.512740 
# 
# From -- ./inp_files/68202.got.cif
#   From: 2010.05.17/outbox.cif.g08.bks.cpg/sg65_35_cif.got.tgz:68202.got - 2010.06.03 17:01:31.
