data_PCOD9483726
_publ_section_title
;
Structure prediction by ZEFSAII (Michael W. Deem and Ramdas Pophale) SiO2 
 PCOD9483726
Probable space group: C M M M
;
_chemical_formula_sum "Si O2"
_cell_formula_units_Z 120
_cell_length_a 14.262538
_cell_length_b 33.900237
_cell_length_c 14.010442
_cell_angle_alpha 90.000000
_cell_angle_beta 90.000000
_cell_angle_gamma 90.000000
_cell_volume 6774.096601
_symmetry_space_group_name_H-M "C M M M"
_symmetry_group_IT_number 65
_symmetry_cell_setting 'orthorhombic'
loop_
_space_group_symop_operation_xyz
x,y,z
-x,-y,z
x,-y,-z
-x,y,-z
-x,-y,-z
x,y,-z
-x,y,z
x,-y,z
1/2+x,1/2+y,z
1/2-x,1/2-y,z
1/2+x,1/2-y,-z
1/2-x,1/2+y,-z
1/2-x,1/2-y,-z
1/2+x,1/2+y,-z
1/2-x,1/2+y,z
1/2+x,1/2-y,z
loop_
_atom_site_type_symbol
_atom_site_label
_atom_site_fract_x
_atom_site_fract_y
_atom_site_fract_z
Si Si1 0.112018 0.000000 0.110265
Si Si2 0.888890 0.105705 0.612525
Si Si3 0.704993 0.574768 0.791097
Si Si4 0.694101 0.655877 0.113351
Si Si5 0.390278 0.952270 0.888570
Si Si6 0.112992 0.801504 0.606891
Si Si7 0.350893 0.264634 0.803531
Si Si8 0.400751 0.184494 0.885959
O O1 0.151524 0.961881 0.163007
O O2 0.000000 0.000000 0.111770
O O3 0.144201 0.000000 0.000000
O O4 0.878429 0.096971 0.500000
O O5 0.822624 0.080146 0.680661
O O6 0.865224 0.152317 0.625028
O O7 0.000000 0.100611 0.636287
O O8 0.667711 0.614857 0.839509
O O9 0.813791 0.568009 0.820403
O O10 0.632626 0.693210 0.147151
O O11 0.803266 0.664031 0.142428
O O12 0.690091 0.652959 0.000000
O O13 0.500000 0.943410 0.868839
O O14 0.379747 0.000000 0.882050
O O15 0.371544 0.941141 0.000000
O O16 0.145518 0.791247 0.500000
O O17 0.148872 0.774136 0.691547
O O18 0.000000 0.798774 0.607938
O O19 0.250000 0.250000 0.837796
O O20 0.407514 0.226534 0.833927
O O21 0.500000 0.162726 0.868560
O O22 0.394009 0.191172 0.000000
#
# Coordination Sequence:
#
# PCOD9483726 Si02
#       8
#     8  16  16  16  16  16  16  16
#     4  11  24  38  52  80 120 151 174 212 276 341
#     4   9  19  36  57  80 106 139 184 233 275 322
#     4  12  20  35  59  80 107 148 182 224 277 325
#     4  10  20  31  47  73 102 134 177 215 254 317
#     4   9  18  33  54  81 111 142 178 218 262 319
#     4   9  17  31  50  71  96 128 170 221 269 311
#     4  10  18  30  47  71 102 134 168 210 261 314
#     4   9  18  32  48  68 100 139 174 215 263 306
#
# _framework density 17.71454
#
# number of rings (size 3 to 8) (size 9 to 14) (size 15 to 20)
#    0.000    2.200    2.000    3.600    0.000    2.400 
#    0.000    1.667    0.000    4.800    0.000    0.933 
#    0.000    0.000    0.000    0.000    0.000    0.000 
#
# Total GULP energy -334368.459133 kJ/mol
# GULP energy per Si atom -5572.807652 kJ/mol
# Density = 1.767422 g / cm^3
# Si number density = 17.714540 Si / 1000 Ang^3
#
#
#
# Elastic Constant Matrix: (Units=GPa)
#
#
# Indices 1 2 3 4 5 6 
#
# 1 42.6567 2.8823 11.0553 0.0000 0.0000 0.0000
# 2 2.8823 80.3810 27.1726 0.0000 0.0000 0.0000
# 3 11.0553 27.1726 59.9218 0.0000 0.0000 0.0000
# 4 0.0000 0.0000 0.0000 19.7367 0.0000 0.0000
# 5 0.0000 0.0000 0.0000 0.0000 41.6325 0.0000
# 6 0.0000 0.0000 0.0000 0.0000 0.0000 10.1371
#
#
#
# Elastic Compliance Matrix: (Units=1/GPa)
#
#
# Indices 1 2 3 4 5 6 
#
# 1 0.024661 0.000772 -0.004900 0.000000 0.000000 0.000000
# 2 0.000772 0.014717 -0.006816 0.000000 0.000000 0.000000
# 3 -0.004900 -0.006816 0.020683 0.000000 0.000000 0.000000
# 4 0.000000 0.000000 0.000000 0.050667 0.000000 0.000000
# 5 0.000000 0.000000 0.000000 0.000000 0.024020 0.000000
# 6 0.000000 0.000000 0.000000 0.000000 0.000000 0.098648
#
#
# Mechanical properties :
#
#
# Convention : Reuss Voigt Hill
#
# Bulk Modulus (GPa) = 26.19635 29.46443 27.83039
# Shear Modulus (GPa) = 18.65614 23.75787 21.20701
#
# Velocity S-wave (km/s) = 3.24875 3.66615 3.46374
# Velocity P-wave (km/s) = 5.37519 5.88131 5.63394
#
# Compressibility (1/GPa) = 0.03817326
#
# Stress axis : x y z
#
# Youngs Moduli (GPa) = 40.55031 67.94737 48.34801
#
# Poissons Ratio (x) = -0.05246 0.23690
# Poissons Ratio (y) = -0.03131 0.32955
# Poissons Ratio (z) = 0.19869 0.46315
#
# Static dielectric constant tensor:
#      x y z
#    x 1.655970 0.000000 0.000000 
#    y 0.000000 1.619680 0.000000 
#    z 0.000000 0.000000 1.600060 
# 
# From -- ./inp_files/41444.got.cif
#   From: 2010.05.17/outbox.cif.g08.bks.cpg/sg65_21_cif.got.tgz:41444.got - 2010.06.03 17:01:31.
