data_PCOD9483966
_publ_section_title
;
Structure prediction by ZEFSAII (Michael W. Deem and Ramdas Pophale) SiO2 
 PCOD9483966
Probable space group: C M M M
;
_chemical_formula_sum "Si O2"
_cell_formula_units_Z 80
_cell_length_a 30.129844
_cell_length_b 8.339977
_cell_length_c 16.054097
_cell_angle_alpha 90.000000
_cell_angle_beta 90.000000
_cell_angle_gamma 90.000000
_cell_volume 4034.108909
_symmetry_space_group_name_H-M "C M M M"
_symmetry_group_IT_number 65
_symmetry_cell_setting 'orthorhombic'
loop_
_space_group_symop_operation_xyz
x,y,z
-x,-y,z
x,-y,-z
-x,y,-z
-x,-y,-z
x,y,-z
-x,y,z
x,-y,z
1/2+x,1/2+y,z
1/2-x,1/2-y,z
1/2+x,1/2-y,-z
1/2-x,1/2+y,-z
1/2-x,1/2-y,-z
1/2+x,1/2+y,-z
1/2-x,1/2+y,z
1/2+x,1/2-y,z
loop_
_atom_site_type_symbol
_atom_site_label
_atom_site_fract_x
_atom_site_fract_y
_atom_site_fract_z
Si Si1 0.050845 0.193727 0.250885
Si Si2 0.202784 0.191621 0.153577
Si Si3 0.892552 0.306072 0.407782
Si Si4 0.202795 0.691676 0.655255
Si Si5 0.107367 0.804102 0.091861
O O1 0.076900 0.244989 0.333408
O O2 0.077151 0.250530 0.168667
O O3 0.000000 0.249827 0.251557
O O4 0.050548 0.000000 0.248255
O O5 0.250000 0.250000 0.119321
O O6 0.199570 0.248826 0.249347
O O7 0.158343 0.246155 0.107129
O O8 0.203289 0.000000 0.153320
O O9 0.906916 0.253860 0.500000
O O10 0.893131 0.500000 0.405731
O O11 0.841599 0.254484 0.391601
O O12 0.203505 0.500000 0.655842
O O13 0.250000 0.750000 0.620722
O O14 0.106938 0.000000 0.093198
O O15 0.092310 0.753478 0.000000
#
# Coordination Sequence:
#
# PCOD9483966 Si02
#       5
#    16  16  16  16  16
#     4  10  21  38  60  84 109 139 180 231 281 325
#     4  10  18  30  51  77 109 146 182 219 263 316
#     4  10  22  39  58  81 111 147 184 221 269 330
#     4  10  19  32  53  79 109 144 182 221 264 317
#     4   9  18  33  54  81 112 144 179 221 271 325
#
# _framework density 19.830895999999999
#
# number of rings (size 3 to 8) (size 9 to 14) (size 15 to 20)
#    0.000    2.200    2.000    2.400    0.000    3.200 
#    0.000    4.000    0.000    4.800    0.000    1.400 
#    0.000    0.000    0.000    0.000    0.000    0.000 
#
# Total GULP energy -223285.361849 kJ/mol
# GULP energy per Si atom -5582.134046 kJ/mol
# Density = 1.978576 g / cm^3
# Si number density = 19.830896 Si / 1000 Ang^3
#
#
#
# Elastic Constant Matrix: (Units=GPa)
#
#
# Indices 1 2 3 4 5 6 
#
# 1 170.1030 21.4042 98.9747 0.0000 0.0000 0.0000
# 2 21.4042 18.5692 11.7211 0.0000 0.0000 0.0000
# 3 98.9747 11.7211 162.7898 0.0000 0.0000 0.0000
# 4 0.0000 0.0000 0.0000 9.7128 0.0000 0.0000
# 5 0.0000 0.0000 0.0000 0.0000 0.4098 0.0000
# 6 0.0000 0.0000 0.0000 0.0000 0.0000 12.3076
#
#
#
# Elastic Compliance Matrix: (Units=1/GPa)
#
#
# Indices 1 2 3 4 5 6 
#
# 1 0.010160 -0.008184 -0.005588 0.000000 0.000000 0.000000
# 2 -0.008184 0.063009 0.000439 0.000000 0.000000 0.000000
# 3 -0.005588 0.000439 0.009509 0.000000 0.000000 0.000000
# 4 0.000000 0.000000 0.000000 0.102957 0.000000 0.000000
# 5 0.000000 0.000000 0.000000 0.000000 2.440233 0.000000
# 6 0.000000 0.000000 0.000000 0.000000 0.000000 0.081251
#
#
# Mechanical properties :
#
#
# Convention : Reuss Voigt Hill
#
# Bulk Modulus (GPa) = 17.85334 68.40691 43.13013
# Shear Modulus (GPa) = 1.81656 19.11017 10.46336
#
# Velocity S-wave (km/s) = 0.95813 3.10765 2.29951
# Velocity P-wave (km/s) = 3.20099 6.88815 5.37089
#
# Compressibility (1/GPa) = 0.05601192
#
# Stress axis : x y z
#
# Youngs Moduli (GPa) = 98.42633 15.87077 105.16738
#
# Poissons Ratio (x) = 0.12988 0.58766
# Poissons Ratio (y) = 0.80551 -0.04617
# Poissons Ratio (z) = 0.54999 -0.00697
#
# Static dielectric constant tensor:
#      x y z
#    x 1.701620 0.000000 0.000000 
#    y 0.000000 1.694760 0.000000 
#    z 0.000000 0.000000 1.690700 
# 
# From -- ./inp_files/38257.got.cif
#   From: 2010.05.17/outbox.cif.g08.bks.cpg/sg65_20_cif.got.tgz:38257.got - 2010.06.03 17:01:31.
