data_PCOD9483907
_publ_section_title
;
Structure prediction by ZEFSAII (Michael W. Deem and Ramdas Pophale) SiO2 
 PCOD9483907
Probable space group: C M M M
;
_chemical_formula_sum "Si O2"
_cell_formula_units_Z 80
_cell_length_a 19.163281
_cell_length_b 10.166119
_cell_length_c 23.619523
_cell_angle_alpha 90.000000
_cell_angle_beta 90.000000
_cell_angle_gamma 90.000000
_cell_volume 4601.465600
_symmetry_space_group_name_H-M "C M M M"
_symmetry_group_IT_number 65
_symmetry_cell_setting 'orthorhombic'
loop_
_space_group_symop_operation_xyz
x,y,z
-x,-y,z
x,-y,-z
-x,y,-z
-x,-y,-z
x,y,-z
-x,y,z
x,-y,z
1/2+x,1/2+y,z
1/2-x,1/2-y,z
1/2+x,1/2-y,-z
1/2-x,1/2+y,-z
1/2-x,1/2-y,-z
1/2+x,1/2+y,-z
1/2-x,1/2+y,z
1/2+x,1/2-y,z
loop_
_atom_site_type_symbol
_atom_site_label
_atom_site_fract_x
_atom_site_fract_y
_atom_site_fract_z
Si Si1 0.665874 0.749756 0.861054
Si Si2 0.416367 0.150612 0.374798
Si Si3 0.313562 0.653708 0.568247
Si Si4 0.335412 0.500000 0.935217
Si Si5 0.917677 0.345132 0.758088
Si Si6 0.334040 0.000000 0.064456
O O1 0.750000 0.750000 0.853467
O O2 0.644958 0.625371 0.898353
O O3 0.628406 0.761226 0.800912
O O4 0.645744 0.873795 0.899556
O O5 0.500000 0.153788 0.381159
O O6 0.380616 0.266555 0.409734
O O7 0.400649 0.171738 0.308195
O O8 0.393720 0.000000 0.390226
O O9 0.313871 0.650873 0.500000
O O10 0.308780 0.500000 0.587169
O O11 0.250000 0.750000 0.586322
O O12 0.250648 0.500000 0.938619
O O13 0.360958 0.500000 0.000000
O O14 0.906505 0.500000 0.770813
O O15 0.000000 0.317610 0.765415
O O16 0.359923 0.000000 0.000000
#
# Coordination Sequence:
#
# PCOD9483907 Si02
#       6
#    16  16  16   8  16   8
#     4  10  18  30  50  76 101 130 171 214 259 312
#     4   9  19  36  57  80 107 144 186 225 271 324
#     4  10  21  37  57  83 115 148 181 221 270 318
#     4   9  18  30  45  71 105 133 162 211 268 313
#     4   9  18  35  56  75 101 137 175 217 261 306
#     4   9  16  28  49  73  97 129 170 213 254 305
#
# _framework density 17.385764000000002
#
# number of rings (size 3 to 8) (size 9 to 14) (size 15 to 20)
#    0.000    2.600    1.000    2.400    0.000    5.200 
#    1.800    2.500    0.000    3.600    0.000    0.000 
#    0.000    0.000    0.000    0.000    0.000    0.000 
#
# Total GULP energy -222840.565854 kJ/mol
# GULP energy per Si atom -5571.014146 kJ/mol
# Density = 1.734619 g / cm^3
# Si number density = 17.385764 Si / 1000 Ang^3
#
#
#
# Elastic Constant Matrix: (Units=GPa)
#
#
# Indices 1 2 3 4 5 6 
#
# 1 27.2922 33.5434 17.0967 0.0000 0.0000 0.0000
# 2 33.5434 150.3907 36.7512 0.0000 0.0000 0.0000
# 3 17.0967 36.7512 18.9732 0.0000 0.0000 0.0000
# 4 0.0000 0.0000 0.0000 16.5961 0.0000 0.0000
# 5 0.0000 0.0000 0.0000 0.0000 54.0612 0.0000
# 6 0.0000 0.0000 0.0000 0.0000 0.0000 10.4264
#
#
#
# Elastic Compliance Matrix: (Units=1/GPa)
#
#
# Indices 1 2 3 4 5 6 
#
# 1 0.084147 -0.000453 -0.074946 0.000000 0.000000 0.000000
# 2 -0.000453 0.012628 -0.024052 0.000000 0.000000 0.000000
# 3 -0.074946 -0.024052 0.166829 0.000000 0.000000 0.000000
# 4 0.000000 0.000000 0.000000 0.060255 0.000000 0.000000
# 5 0.000000 0.000000 0.000000 0.000000 0.018498 0.000000
# 6 0.000000 0.000000 0.000000 0.000000 0.000000 0.095910
#
#
# Mechanical properties :
#
#
# Convention : Reuss Voigt Hill
#
# Bulk Modulus (GPa) = 15.45586 41.27097 28.36342
# Shear Modulus (GPa) = 7.59027 23.50106 15.54566
#
# Velocity S-wave (km/s) = 2.09172 3.68059 2.99350
# Velocity P-wave (km/s) = 3.83965 6.46933 5.31955
#
# Compressibility (1/GPa) = 0.06470036
#
# Stress axis : x y z
#
# Youngs Moduli (GPa) = 11.88398 79.18806 5.99414
#
# Poissons Ratio (x) = 0.03591 0.44924
# Poissons Ratio (y) = 0.00539 0.14417
# Poissons Ratio (z) = 0.89066 1.90465
#
# Static dielectric constant tensor:
#      x y z
#    x 1.593740 0.000000 0.000000 
#    y 0.000000 1.548870 0.000000 
#    z 0.000000 0.000000 1.576440 
# 
# From -- ./inp_files/67317.got.cif
#   From: 2010.05.17/outbox.cif.g08.bks.cpg/sg65_34_cif.got.tgz:67317.got - 2010.06.03 17:01:31.
