data_PCOD9483016
_publ_section_title
;
Structure prediction by ZEFSAII (Michael W. Deem and Ramdas Pophale) SiO2 
 PCOD9483016
Probable space group: C M M M
;
_chemical_formula_sum "Si O2"
_cell_formula_units_Z 88
_cell_length_a 24.293924
_cell_length_b 7.561342
_cell_length_c 24.112256
_cell_angle_alpha 90.000000
_cell_angle_beta 90.000000
_cell_angle_gamma 90.000000
_cell_volume 4429.292858
_symmetry_space_group_name_H-M "C M M M"
_symmetry_group_IT_number 65
_symmetry_cell_setting 'orthorhombic'
loop_
_space_group_symop_operation_xyz
x,y,z
-x,-y,z
x,-y,-z
-x,y,-z
-x,-y,-z
x,y,-z
-x,y,z
x,-y,z
1/2+x,1/2+y,z
1/2-x,1/2-y,z
1/2+x,1/2-y,-z
1/2-x,1/2+y,-z
1/2-x,1/2-y,-z
1/2+x,1/2+y,-z
1/2-x,1/2+y,z
1/2+x,1/2-y,z
loop_
_atom_site_type_symbol
_atom_site_label
_atom_site_fract_x
_atom_site_fract_y
_atom_site_fract_z
Si Si1 0.615051 0.793989 0.224068
Si Si2 0.815053 0.286781 0.878763
Si Si3 0.500000 0.784669 0.270667
Si Si4 0.619486 0.283496 0.438333
Si Si5 0.185626 0.789517 0.669066
Si Si6 0.184849 0.711491 0.000000
Si Si7 0.500000 0.708647 0.598682
O O1 0.648026 0.717447 0.171698
O O2 0.555584 0.719850 0.240984
O O3 0.653639 0.784871 0.278053
O O4 0.605335 0.000000 0.211037
O O5 0.819156 0.500000 0.879383
O O6 0.750000 0.250000 0.870734
O O7 0.833897 0.221262 0.939752
O O8 0.500000 0.731003 0.335068
O O9 0.500000 0.000000 0.270640
O O10 0.636607 0.228887 0.500000
O O11 0.619372 0.500000 0.437475
O O12 0.658567 0.224744 0.388287
O O13 0.557193 0.222011 0.425809
O O14 0.250000 0.750000 0.671395
O O15 0.177923 0.000000 0.671331
O O16 0.250000 0.750000 0.000000
O O17 0.176405 0.500000 0.000000
O O18 0.500000 0.500000 0.585996
#
# Coordination Sequence:
#
# PCOD9483016 Si02
#       7
#    16  16   8  16  16   8   8
#     4  10  20  34  51  72  99 131 164 199 244 292
#     4   9  17  29  47  71  98 128 161 197 239 284
#     4  10  20  33  51  72 100 130 157 198 248 292
#     4   9  18  32  52  76  98 123 157 199 245 291
#     4  11  22  35  52  73  99 129 163 201 242 291
#     4   8  14  26  44  67  95 125 159 198 235 276
#     4  10  17  32  56  78  95 119 160 204 244 289
#
# _framework density 19.867730999999999
#
# number of rings (size 3 to 8) (size 9 to 14) (size 15 to 20)
#    0.000    2.364    1.818    1.364    0.000    3.636 
#    0.000    0.000    0.000    5.455    0.000    3.818 
#    0.000    0.000    0.000   15.818    0.000   12.000 
#
# Total GULP energy -245510.927819 kJ/mol
# GULP energy per Si atom -5579.793814 kJ/mol
# Density = 1.982251 g / cm^3
# Si number density = 19.867731 Si / 1000 Ang^3
#
#
#
# Elastic Constant Matrix: (Units=GPa)
#
#
# Indices 1 2 3 4 5 6 
#
# 1 117.3319 -12.8953 68.0607 0.0000 0.0000 0.0000
# 2 -12.8953 44.6811 -13.2986 0.0000 0.0000 0.0000
# 3 68.0607 -13.2986 180.7661 0.0000 0.0000 0.0000
# 4 0.0000 0.0000 0.0000 16.8413 0.0000 0.0000
# 5 0.0000 0.0000 0.0000 0.0000 32.9382 0.0000
# 6 0.0000 0.0000 0.0000 0.0000 0.0000 -11.0157
#
#
#
# Elastic Compliance Matrix: (Units=1/GPa)
#
#
# Indices 1 2 3 4 5 6 
#
# 1 0.011076 0.001999 -0.004023 0.000000 0.000000 0.000000
# 2 0.001999 0.023243 0.000957 0.000000 0.000000 0.000000
# 3 -0.004023 0.000957 0.007117 0.000000 0.000000 0.000000
# 4 0.000000 0.000000 0.000000 0.059378 0.000000 0.000000
# 5 0.000000 0.000000 0.000000 0.000000 0.030360 0.000000
# 6 0.000000 0.000000 0.000000 0.000000 0.000000 -0.090780
#
#
# Mechanical properties :
#
#
# Convention : Reuss Voigt Hill
#
# Bulk Modulus (GPa) = 25.44366 47.39031 36.41699
# Shear Modulus (GPa) = 89.88129 27.81358 58.84744
#
# Velocity S-wave (km/s) = 6.73335 3.74563 5.44829
# Velocity P-wave (km/s) = 8.56067 6.52771 7.61236
#
# Compressibility (1/GPa) = 0.03930252
#
# Stress axis : x y z
#
# Youngs Moduli (GPa) = 90.28235 43.02429 140.50358
#
# Poissons Ratio (x) = -0.08602 0.56529
# Poissons Ratio (y) = -0.18050 -0.13449
# Poissons Ratio (z) = 0.36323 -0.04118
#
# Static dielectric constant tensor:
#      x y z
#    x 1.666530 0.000000 0.000000 
#    y 0.000000 1.758460 0.000000 
#    z 0.000000 0.000000 1.716010 
# 
# From -- ./inp_files/71095.got.cif
#   From: 2010.05.17/outbox.cif.g08.bks.cpg/sg65_36_cif.got.tgz:71095.got - 2010.06.03 17:01:31.
