data_PCOD9483159
_publ_section_title
;
Structure prediction by ZEFSAII (Michael W. Deem and Ramdas Pophale) SiO2 
 PCOD9483159
Probable space group: C M M M
;
_chemical_formula_sum "Si O2"
_cell_formula_units_Z 128
_cell_length_a 22.786110
_cell_length_b 28.347703
_cell_length_c 12.797171
_cell_angle_alpha 90.000000
_cell_angle_beta 90.000000
_cell_angle_gamma 90.000000
_cell_volume 8266.126302
_symmetry_space_group_name_H-M "C M M M"
_symmetry_group_IT_number 65
_symmetry_cell_setting 'orthorhombic'
loop_
_space_group_symop_operation_xyz
x,y,z
-x,-y,z
x,-y,-z
-x,y,-z
-x,-y,-z
x,y,-z
-x,y,z
x,-y,z
1/2+x,1/2+y,z
1/2-x,1/2-y,z
1/2+x,1/2-y,-z
1/2-x,1/2+y,-z
1/2-x,1/2-y,-z
1/2+x,1/2+y,-z
1/2-x,1/2+y,z
1/2+x,1/2-y,z
loop_
_atom_site_type_symbol
_atom_site_label
_atom_site_fract_x
_atom_site_fract_y
_atom_site_fract_z
Si Si1 0.739785 0.055449 0.260586
Si Si2 0.403989 0.210217 0.619947
Si Si3 0.773411 0.697352 0.688863
Si Si4 0.311707 0.866380 0.879291
Si Si5 0.322431 0.377344 0.378086
Si Si6 0.381437 0.944306 0.619531
Si Si7 0.433635 0.318317 0.626580
Si Si8 0.064556 0.628480 0.224255
O O1 0.718579 0.085214 0.160386
O O2 0.796779 0.079810 0.310483
O O3 0.685909 0.062219 0.342949
O O4 0.746525 0.000000 0.241463
O O5 0.423955 0.203831 0.500000
O O6 0.334631 0.199480 0.627123
O O7 0.415919 0.264404 0.651467
O O8 0.432581 0.174515 0.701611
O O9 0.750000 0.750000 0.699618
O O10 0.787096 0.673354 0.800591
O O11 0.725637 0.664428 0.633052
O O12 0.381325 0.869545 0.855753
O O13 0.300389 0.857190 0.000000
O O14 0.327525 0.390484 0.500000
O O15 0.383851 0.355171 0.339401
O O16 0.388101 0.928389 0.500000
O O17 0.421338 0.914737 0.697656
O O18 0.394202 0.000000 0.625151
O O19 0.433559 0.320422 0.500000
O O20 0.500000 0.327846 0.662844
O O21 0.000000 0.624090 0.177471
#
# Coordination Sequence:
#
# PCOD9483159 Si02
#       8
#    16  16  16  16  16  16  16  16
#     4   9  18  32  50  70  90 112 147 191 237 290
#     4  10  18  27  42  65  96 129 160 192 226 263
#     4  10  18  29  46  69  95 120 154 193 236 277
#     4   9  20  35  49  67  88 114 150 194 248 290
#     4  10  18  27  44  70  99 128 155 184 222 268
#     4   9  17  29  44  63  90 120 146 181 230 277
#     4   9  17  27  39  59  91 131 165 185 208 252
#     4  10  20  31  44  63  88 122 164 199 224 263
#
# _framework density 15.484883
#
# number of rings (size 3 to 8) (size 9 to 14) (size 15 to 20)
#    0.000    2.500    1.250    2.250    0.000    3.750 
#    0.000    0.625    0.000    0.375    0.000    5.250 
#    0.000    8.000    0.000    4.500    0.000    0.000 
#
# Total GULP energy -356793.853178 kJ/mol
# GULP energy per Si atom -5574.903956 kJ/mol
# Density = 1.544964 g / cm^3
# Si number density = 15.484883 Si / 1000 Ang^3
#
#
#
# Elastic Constant Matrix: (Units=GPa)
#
#
# Indices 1 2 3 4 5 6 
#
# 1 81.2549 15.2806 -1.6392 0.0000 0.0000 0.0000
# 2 15.2806 59.4821 6.1708 0.0000 0.0000 0.0000
# 3 -1.6392 6.1708 52.6323 0.0000 0.0000 0.0000
# 4 0.0000 0.0000 0.0000 7.3614 0.0000 0.0000
# 5 0.0000 0.0000 0.0000 0.0000 5.2890 0.0000
# 6 0.0000 0.0000 0.0000 0.0000 0.0000 9.0848
#
#
#
# Elastic Compliance Matrix: (Units=1/GPa)
#
#
# Indices 1 2 3 4 5 6 
#
# 1 0.012965 -0.003414 0.000804 0.000000 0.000000 0.000000
# 2 -0.003414 0.017918 -0.002207 0.000000 0.000000 0.000000
# 3 0.000804 -0.002207 0.019284 0.000000 0.000000 0.000000
# 4 0.000000 0.000000 0.000000 0.135844 0.000000 0.000000
# 5 0.000000 0.000000 0.000000 0.000000 0.189072 0.000000
# 6 0.000000 0.000000 0.000000 0.000000 0.000000 0.110075
#
#
# Mechanical properties :
#
#
# Convention : Reuss Voigt Hill
#
# Bulk Modulus (GPa) = 24.67164 25.88818 25.27991
# Shear Modulus (GPa) = 9.83666 15.91750 12.87708
#
# Velocity S-wave (km/s) = 2.52314 3.20963 2.88686
# Velocity P-wave (km/s) = 4.94526 5.52180 5.24146
#
# Compressibility (1/GPa) = 0.04053236
#
# Stress axis : x y z
#
# Youngs Moduli (GPa) = 77.12941 55.81040 51.85773
#
# Poissons Ratio (x) = 0.19054 -0.04170
# Poissons Ratio (y) = 0.26333 0.11445
# Poissons Ratio (z) = -0.06202 0.12318
#
# Static dielectric constant tensor:
#      x y z
#    x 1.537050 0.000000 0.000000 
#    y 0.000000 1.516370 0.000000 
#    z 0.000000 0.000000 1.480270 
# 
# From -- ./inp_files/31482.got.cif
#   From: 2010.05.17/outbox.cif.g08.bks.cpg/sg65_16_cif.got.tgz:31482.got - 2010.06.03 17:01:31.
