data_PCOD9483776
_publ_section_title
;
Structure prediction by ZEFSAII (Michael W. Deem and Ramdas Pophale) SiO2 
 PCOD9483776
Probable space group: C M M M
;
_chemical_formula_sum "Si O2"
_cell_formula_units_Z 112
_cell_length_a 16.108278
_cell_length_b 29.498341
_cell_length_c 14.244677
_cell_angle_alpha 90.000000
_cell_angle_beta 90.000000
_cell_angle_gamma 90.000000
_cell_volume 6768.607236
_symmetry_space_group_name_H-M "C M M M"
_symmetry_group_IT_number 65
_symmetry_cell_setting 'orthorhombic'
loop_
_space_group_symop_operation_xyz
x,y,z
-x,-y,z
x,-y,-z
-x,y,-z
-x,-y,-z
x,y,-z
-x,y,z
x,-y,z
1/2+x,1/2+y,z
1/2-x,1/2-y,z
1/2+x,1/2-y,-z
1/2-x,1/2+y,-z
1/2-x,1/2-y,-z
1/2+x,1/2+y,-z
1/2-x,1/2+y,z
1/2+x,1/2-y,z
loop_
_atom_site_type_symbol
_atom_site_label
_atom_site_fract_x
_atom_site_fract_y
_atom_site_fract_z
Si Si1 0.251078 0.697604 0.886705
Si Si2 0.907614 0.144827 0.194666
Si Si3 0.149735 0.948690 0.112521
Si Si4 0.906935 0.111185 0.394488
Si Si5 0.834292 0.447552 0.199611
Si Si6 0.091835 0.639256 0.886934
Si Si7 0.741667 0.054103 0.604404
O O1 0.250000 0.750000 0.857337
O O2 0.333024 0.672550 0.850412
O O3 0.168290 0.670855 0.855558
O O4 0.252654 0.696271 0.000000
O O5 0.897621 0.092387 0.162095
O O6 0.899916 0.145148 0.307493
O O7 0.000000 0.160522 0.167620
O O8 0.245513 0.945529 0.145881
O O9 0.120959 0.000000 0.135752
O O10 0.145212 0.943169 0.000000
O O11 0.899934 0.130668 0.500000
O O12 0.832389 0.075792 0.383916
O O13 0.000000 0.090898 0.387491
O O14 0.862475 0.500000 0.196209
O O15 0.893338 0.410989 0.152662
O O16 0.815319 0.433780 0.307320
O O17 0.000000 0.655954 0.860162
O O18 0.095264 0.637274 0.000000
O O19 0.710677 0.066693 0.500000
O O20 0.750302 0.000000 0.607939
#
# Coordination Sequence:
#
# PCOD9483776 Si02
#       7
#    16  16  16  16  16  16  16
#     4  10  21  37  55  75 102 132 163 204 251 299
#     4  11  21  33  52  76 102 135 172 205 244 300
#     4  10  19  30  45  67  99 138 173 203 237 284
#     4   9  17  28  43  66  96 128 163 206 252 294
#     4  10  18  30  48  70  98 133 168 205 248 291
#     4  10  20  34  53  75  98 127 166 209 251 295
#     4   9  16  26  42  64  91 128 173 212 246 289
#
# _framework density 16.546979
#
# number of rings (size 3 to 8) (size 9 to 14) (size 15 to 20)
#    0.000    2.143    2.857    0.857    0.000    3.429 
#    0.000    5.714    0.000    0.857    0.000    2.000 
#    0.000    0.000    0.000    0.000    0.000    0.000 
#
# Total GULP energy -312070.480266 kJ/mol
# GULP energy per Si atom -5572.687148 kJ/mol
# Density = 1.650932 g / cm^3
# Si number density = 16.546979 Si / 1000 Ang^3
#
#
#
# Elastic Constant Matrix: (Units=GPa)
#
#
# Indices 1 2 3 4 5 6 
#
# 1 100.7053 49.3316 23.4763 0.0000 0.0000 0.0000
# 2 49.3316 73.7230 24.9182 0.0000 0.0000 0.0000
# 3 23.4763 24.9182 46.3001 0.0000 0.0000 0.0000
# 4 0.0000 0.0000 0.0000 10.8375 0.0000 0.0000
# 5 0.0000 0.0000 0.0000 0.0000 19.6033 0.0000
# 6 0.0000 0.0000 0.0000 0.0000 0.0000 -0.0077
#
#
#
# Elastic Compliance Matrix: (Units=1/GPa)
#
#
# Indices 1 2 3 4 5 6 
#
# 1 0.015044 -0.009153 -0.002702 0.000000 0.000000 0.000000
# 2 -0.009153 0.022150 -0.007280 0.000000 0.000000 0.000000
# 3 -0.002702 -0.007280 0.026886 0.000000 0.000000 0.000000
# 4 0.000000 0.000000 0.000000 0.092272 0.000000 0.000000
# 5 0.000000 0.000000 0.000000 0.000000 0.051012 0.000000
# 6 0.000000 0.000000 0.000000 0.000000 0.000000**********
#
#
# Mechanical properties :
#
#
# Convention : Reuss Voigt Hill
#
# Bulk Modulus (GPa) = 38.74434 46.24229 42.49331
# Shear Modulus (GPa) = -0.03849 14.28677 7.12414
#
# Velocity S-wave (km/s) = -0.15268 2.94157 2.07720
# Velocity P-wave (km/s) = 4.84092 6.28839 5.61152
#
# Compressibility (1/GPa) = 0.02581022
#
# Stress axis : x y z
#
# Youngs Moduli (GPa) = 66.47358 45.14752 37.19427
#
# Poissons Ratio (x) = 0.41325 0.10049
# Poissons Ratio (y) = 0.60845 0.27076
# Poissons Ratio (z) = 0.17959 0.32865
#
# Static dielectric constant tensor:
#      x y z
#    x 1.563210 0.000000 0.000000 
#    y 0.000000 1.537820 0.000000 
#    z 0.000000 0.000000 1.587170 
# 
# From -- ./inp_files/41037.got.cif
#   From: 2010.05.17/outbox.cif.g08.bks.cpg/sg65_21_cif.got.tgz:41037.got - 2010.06.03 17:01:31.
