data_PCOD9483895
_publ_section_title
;
Structure prediction by ZEFSAII (Michael W. Deem and Ramdas Pophale) SiO2 
 PCOD9483895
Probable space group: C M M M
;
_chemical_formula_sum "Si O2"
_cell_formula_units_Z 112
_cell_length_a 26.158813
_cell_length_b 14.837305
_cell_length_c 15.328569
_cell_angle_alpha 90.000000
_cell_angle_beta 90.000000
_cell_angle_gamma 90.000000
_cell_volume 5949.420570
_symmetry_space_group_name_H-M "C M M M"
_symmetry_group_IT_number 65
_symmetry_cell_setting 'orthorhombic'
loop_
_space_group_symop_operation_xyz
x,y,z
-x,-y,z
x,-y,-z
-x,y,-z
-x,-y,-z
x,y,-z
-x,y,z
x,-y,z
1/2+x,1/2+y,z
1/2-x,1/2-y,z
1/2+x,1/2-y,-z
1/2-x,1/2+y,-z
1/2-x,1/2-y,-z
1/2+x,1/2+y,-z
1/2-x,1/2+y,z
1/2+x,1/2-y,z
loop_
_atom_site_type_symbol
_atom_site_label
_atom_site_fract_x
_atom_site_fract_y
_atom_site_fract_z
Si Si1 0.942639 0.602995 0.339816
Si Si2 0.835472 0.109698 0.095633
Si Si3 0.716216 0.110324 0.093684
Si Si4 0.751144 0.142950 0.399890
Si Si5 0.644605 0.606353 0.707843
Si Si6 0.336287 0.106012 0.264029
Si Si7 0.557482 0.297156 0.598238
O O1 0.934919 0.500000 0.374083
O O2 0.895791 0.624658 0.276312
O O3 0.940367 0.688070 0.403685
O O4 0.000000 0.604044 0.301546
O O5 0.775652 0.134651 0.097329
O O6 0.856038 0.136440 0.190745
O O7 0.837828 0.000000 0.095657
O O8 0.856401 0.138715 0.000000
O O9 0.688080 0.148629 0.177972
O O10 0.715088 0.000000 0.094286
O O11 0.694739 0.139410 0.000000
O O12 0.754365 0.107469 0.500000
O O13 0.750000 0.250000 0.406382
O O14 0.799702 0.116743 0.339144
O O15 0.698646 0.121172 0.349063
O O16 0.632537 0.500000 0.704568
O O17 0.602625 0.662764 0.655614
O O18 0.333353 0.000000 0.249712
O O19 0.563264 0.331452 0.500000
O O20 0.500000 0.320419 0.629790
#
# Coordination Sequence:
#
# PCOD9483895 Si02
#       7
#    16  16  16  16  16  16  16
#     4   9  19  36  58  80 102 137 186 235 281 327
#     4   8  14  27  50  79 109 142 182 224 265 316
#     4   8  13  24  45  73 103 134 169 210 258 312
#     4  11  23  35  47  68 103 145 182 216 261 317
#     4  11  21  35  57  83 113 149 185 222 273 333
#     4  10  18  30  50  75 101 129 166 214 266 316
#     4  10  22  39  57  79 108 143 186 233 277 324
#
# _framework density 18.825361999999998
#
# number of rings (size 3 to 8) (size 9 to 14) (size 15 to 20)
#    0.000    2.429    1.429    2.571    0.000    4.286 
#    0.000    3.571    0.000    5.143    0.000    7.000 
#    0.000    0.000    0.000    0.000    0.000    0.286 
#
# Total GULP energy -311805.034892 kJ/mol
# GULP energy per Si atom -5567.947052 kJ/mol
# Density = 1.878252 g / cm^3
# Si number density = 18.825362 Si / 1000 Ang^3
#
#
#
# Elastic Constant Matrix: (Units=GPa)
#
#
# Indices 1 2 3 4 5 6 
#
# 1 102.4427 21.9107 62.2829 0.0000 0.0000 0.0000
# 2 21.9107 54.0735 9.6856 0.0000 0.0000 0.0000
# 3 62.2829 9.6856 134.8475 0.0000 0.0000 0.0000
# 4 0.0000 0.0000 0.0000 23.9481 0.0000 0.0000
# 5 0.0000 0.0000 0.0000 0.0000 11.0858 0.0000
# 6 0.0000 0.0000 0.0000 0.0000 0.0000 27.6563
#
#
#
# Elastic Compliance Matrix: (Units=1/GPa)
#
#
# Indices 1 2 3 4 5 6 
#
# 1 0.014710 -0.004805 -0.006449 0.000000 0.000000 0.000000
# 2 -0.004805 0.020304 0.000761 0.000000 0.000000 0.000000
# 3 -0.006449 0.000761 0.010340 0.000000 0.000000 0.000000
# 4 0.000000 0.000000 0.000000 0.041757 0.000000 0.000000
# 5 0.000000 0.000000 0.000000 0.000000 0.090206 0.000000
# 6 0.000000 0.000000 0.000000 0.000000 0.000000 0.036158
#
#
# Mechanical properties :
#
#
# Convention : Reuss Voigt Hill
#
# Bulk Modulus (GPa) = 41.03853 53.23580 47.13716
# Shear Modulus (GPa) = 20.61137 25.70367 23.15752
#
# Velocity S-wave (km/s) = 3.31248 3.69911 3.51112
# Velocity P-wave (km/s) = 6.03961 6.82530 6.44444
#
# Compressibility (1/GPa) = 0.02436734
#
# Stress axis : x y z
#
# Youngs Moduli (GPa) = 67.97946 49.25087 96.71330
#
# Poissons Ratio (x) = 0.23667 0.62372
# Poissons Ratio (y) = 0.32667 -0.07361
# Poissons Ratio (z) = 0.43841 -0.03749
#
# Static dielectric constant tensor:
#      x y z
#    x 1.612350 0.000000 0.000000 
#    y 0.000000 1.704550 0.000000 
#    z 0.000000 0.000000 1.703230 
# 
# From -- ./inp_files/45750.got.cif
#   From: 2010.05.17/outbox.cif.g08.bks.cpg/sg65_23_cif.got.tgz:45750.got - 2010.06.03 17:01:31.
