data_PCOD9483759
_publ_section_title
;
Structure prediction by ZEFSAII (Michael W. Deem and Ramdas Pophale) SiO2 
 PCOD9483759
Probable space group: C M M M
;
_chemical_formula_sum "Si O2"
_cell_formula_units_Z 72
_cell_length_a 29.953460
_cell_length_b 14.603302
_cell_length_c 7.392657
_cell_angle_alpha 90.000000
_cell_angle_beta 90.000000
_cell_angle_gamma 90.000000
_cell_volume 3233.691754
_symmetry_space_group_name_H-M "C M M M"
_symmetry_group_IT_number 65
_symmetry_cell_setting 'orthorhombic'
loop_
_space_group_symop_operation_xyz
x,y,z
-x,-y,z
x,-y,-z
-x,y,-z
-x,-y,-z
x,y,-z
-x,y,z
x,-y,z
1/2+x,1/2+y,z
1/2-x,1/2-y,z
1/2+x,1/2-y,-z
1/2-x,1/2+y,-z
1/2-x,1/2-y,-z
1/2+x,1/2+y,-z
1/2-x,1/2+y,z
1/2+x,1/2-y,z
loop_
_atom_site_type_symbol
_atom_site_label
_atom_site_fract_x
_atom_site_fract_y
_atom_site_fract_z
Si Si1 0.587608 0.210937 0.283478
Si Si2 0.186893 0.705541 0.213889
Si Si3 0.447863 0.600758 0.719993
Si Si4 0.775323 0.103512 0.220797
Si Si5 0.500000 0.895338 0.278671
O O1 0.583792 0.213575 0.500000
O O2 0.636565 0.174218 0.243722
O O3 0.581559 0.314929 0.216203
O O4 0.545163 0.154065 0.217580
O O5 0.194282 0.810176 0.281470
O O6 0.225598 0.636929 0.277905
O O7 0.194053 0.711042 0.000000
O O8 0.446894 0.599820 0.500000
O O9 0.500000 0.615325 0.768652
O O10 0.433989 0.500000 0.782024
O O11 0.785615 0.000000 0.282572
O O12 0.776899 0.100353 0.000000
O O13 0.500000 0.892413 0.500000
O O14 0.500000 0.000000 0.223511
#
# Coordination Sequence:
#
# PCOD9483759 Si02
#       5
#    16  16  16  16   8
#     4  10  18  30  48  69  94 124 157 192 231 271
#     4   9  18  31  49  73  94 117 154 194 231 274
#     4   8  13  23  41  63  85 113 152 190 220 259
#     4   8  15  31  52  69  90 123 157 186 224 282
#     4   9  18  32  48  66  92 129 167 193 218 266
#
# _framework density 22.265573
#
# number of rings (size 3 to 8) (size 9 to 14) (size 15 to 20)
#    0.000    3.222    1.111    2.000    0.000    1.778 
#    0.000    2.778    0.000    2.000    0.000    1.556 
#    0.000    0.000    0.000    0.000    0.000    0.000 
#
# Total GULP energy -200823.367307 kJ/mol
# GULP energy per Si atom -5578.426870 kJ/mol
# Density = 2.221490 g / cm^3
# Si number density = 22.265573 Si / 1000 Ang^3
#
#
#
# Elastic Constant Matrix: (Units=GPa)
#
#
# Indices 1 2 3 4 5 6 
#
# 1 106.8904 14.4989 -7.6810 0.0000 0.0000 0.0000
# 2 14.4989 72.5838 2.9329 0.0000 0.0000 0.0000
# 3 -7.6810 2.9329 73.0268 0.0000 0.0000 0.0000
# 4 0.0000 0.0000 0.0000 -7.3458 0.0000 0.0000
# 5 0.0000 0.0000 0.0000 0.0000 12.9709 0.0000
# 6 0.0000 0.0000 0.0000 0.0000 0.0000 10.3070
#
#
#
# Elastic Compliance Matrix: (Units=1/GPa)
#
#
# Indices 1 2 3 4 5 6 
#
# 1 0.009703 -0.001983 0.001100 0.000000 0.000000 0.000000
# 2 -0.001983 0.014205 -0.000779 0.000000 0.000000 0.000000
# 3 0.001100 -0.000779 0.013841 0.000000 0.000000 0.000000
# 4 0.000000 0.000000 0.000000 -0.136133 0.000000 0.000000
# 5 0.000000 0.000000 0.000000 0.000000 0.077095 0.000000
# 6 0.000000 0.000000 0.000000 0.000000 0.000000 0.097022
#
#
# Mechanical properties :
#
#
# Convention : Reuss Voigt Hill
#
# Bulk Modulus (GPa) = 29.04813 30.22252 29.63533
# Shear Modulus (GPa) = 55.22960 19.36978 37.29969
#
# Velocity S-wave (km/s) = 4.98586 2.95268 4.09738
# Velocity P-wave (km/s) = 6.79850 5.02270 5.97692
#
# Compressibility (1/GPa) = 0.03442562
#
# Stress axis : x y z
#
# Youngs Moduli (GPa) = 103.05679 70.39915 72.25113
#
# Poissons Ratio (x) = 0.13958 -0.07949
# Poissons Ratio (y) = 0.20434 0.05629
# Poissons Ratio (z) = -0.11339 0.05484
#
# Static dielectric constant tensor:
#      x y z
#    x 1.815930 0.000000 0.000000 
#    y 0.000000 1.810460 0.000000 
#    z 0.000000 0.000000 1.863280 
# 
# From -- ./inp_files/7661.got.cif
#   From: 2010.05.17/outbox.cif.g08.bks.cpg/sg65_4_cif.got.tgz:7661.got - 2010.06.03 17:01:31.
