data_PCOD9483866
_publ_section_title
;
Structure prediction by ZEFSAII (Michael W. Deem and Ramdas Pophale) SiO2 
 PCOD9483866
Probable space group: C M M M
;
_chemical_formula_sum "Si O2"
_cell_formula_units_Z 64
_cell_length_a 29.109997
_cell_length_b 8.771996
_cell_length_c 15.927236
_cell_angle_alpha 90.000000
_cell_angle_beta 90.000000
_cell_angle_gamma 90.000000
_cell_volume 4067.063946
_symmetry_space_group_name_H-M "C M M M"
_symmetry_group_IT_number 65
_symmetry_cell_setting 'orthorhombic'
loop_
_space_group_symop_operation_xyz
x,y,z
-x,-y,z
x,-y,-z
-x,y,-z
-x,-y,-z
x,y,-z
-x,y,z
x,-y,z
1/2+x,1/2+y,z
1/2-x,1/2-y,z
1/2+x,1/2-y,-z
1/2-x,1/2+y,-z
1/2-x,1/2-y,-z
1/2+x,1/2+y,-z
1/2-x,1/2+y,z
1/2+x,1/2-y,z
loop_
_atom_site_type_symbol
_atom_site_label
_atom_site_fract_x
_atom_site_fract_y
_atom_site_fract_z
Si Si1 0.801767 0.682359 0.500000
Si Si2 0.800983 0.318307 0.000000
Si Si3 0.801268 0.817279 0.672844
Si Si4 0.052335 0.316864 0.099090
Si Si5 0.644470 0.681487 0.842695
O O1 0.800604 0.500000 0.500000
O O2 0.750000 0.750000 0.500000
O O3 0.821473 0.745483 0.587317
O O4 0.750000 0.250000 0.000000
O O5 0.827936 0.261796 0.082190
O O6 0.798823 0.500000 0.000000
O O7 0.750000 0.750000 0.685379
O O8 0.831873 0.782080 0.753962
O O9 0.797683 0.000000 0.663269
O O10 0.056676 0.500000 0.106806
O O11 0.092022 0.235959 0.150909
O O12 0.000000 0.275086 0.121743
O O13 0.058746 0.280522 0.000000
O O14 0.647074 0.500000 0.855047
#
# Coordination Sequence:
#
# PCOD9483866 Si02
#       5
#     8   8  16  16  16
#     4  10  18  30  50  72  95 126 163 202 244 289
#     4  12  24  36  49  66  97 136 170 205 241 285
#     4  10  20  33  49  71 100 131 164 203 243 289
#     4   9  18  33  52  73  97 128 165 206 252 294
#     4  11  22  34  50  74 100 130 168 204 245 294
#
# _framework density 15.736167999999999
#
# number of rings (size 3 to 8) (size 9 to 14) (size 15 to 20)
#    0.000    1.750    1.250    6.750    0.000    6.500 
#    0.000    1.250    0.000    0.000    0.000    0.875 
#    0.000    7.000    0.000    0.000    0.000    0.000 
#
# Total GULP energy -178626.706152 kJ/mol
# GULP energy per Si atom -5582.084567 kJ/mol
# Density = 1.570035 g / cm^3
# Si number density = 15.736168 Si / 1000 Ang^3
#
#
#
# Elastic Constant Matrix: (Units=GPa)
#
#
# Indices 1 2 3 4 5 6 
#
# 1 105.8264 50.2433 68.5498 0.0000 0.0000 0.0000
# 2 50.2433 87.3582 76.1171 0.0000 0.0000 0.0000
# 3 68.5498 76.1171 141.7232 0.0000 0.0000 0.0000
# 4 0.0000 0.0000 0.0000 21.2734 0.0000 0.0000
# 5 0.0000 0.0000 0.0000 0.0000 4.9769 0.0000
# 6 0.0000 0.0000 0.0000 0.0000 0.0000 27.3624
#
#
#
# Elastic Compliance Matrix: (Units=1/GPa)
#
#
# Indices 1 2 3 4 5 6 
#
# 1 0.014537 -0.004199 -0.004776 0.000000 0.000000 0.000000
# 2 -0.004199 0.022729 -0.010176 0.000000 0.000000 0.000000
# 3 -0.004776 -0.010176 0.014832 0.000000 0.000000 0.000000
# 4 0.000000 0.000000 0.000000 0.047007 0.000000 0.000000
# 5 0.000000 0.000000 0.000000 0.000000 0.200929 0.000000
# 6 0.000000 0.000000 0.000000 0.000000 0.000000 0.036547
#
#
# Mechanical properties :
#
#
# Convention : Reuss Voigt Hill
#
# Bulk Modulus (GPa) = 72.49279 80.52535 76.50907
# Shear Modulus (GPa) = 13.17587 20.05569 16.61578
#
# Velocity S-wave (km/s) = 2.89675 3.57388 3.25298
# Velocity P-wave (km/s) = 7.57336 8.26519 7.92683
#
# Compressibility (1/GPa) = 0.01379447
#
# Stress axis : x y z
#
# Youngs Moduli (GPa) = 68.79101 43.99631 67.42403
#
# Poissons Ratio (x) = 0.18476 0.32201
# Poissons Ratio (y) = 0.28888 0.68612
# Poissons Ratio (z) = 0.32853 0.44772
#
# Static dielectric constant tensor:
#      x y z
#    x 1.512250 0.000000 0.000000 
#    y 0.000000 1.526650 0.000000 
#    z 0.000000 0.000000 1.535780 
# 
# From -- ./inp_files/46387.got.cif
#   From: 2010.05.17/outbox.cif.g08.bks.cpg/sg65_24_cif.got.tgz:46387.got - 2010.06.03 17:01:31.
