data_PCOD9483141
_publ_section_title
;
Structure prediction by ZEFSAII (Michael W. Deem and Ramdas Pophale) SiO2 
 PCOD9483141
Probable space group: C M M M
;
_chemical_formula_sum "Si O2"
_cell_formula_units_Z 104
_cell_length_a 28.059332
_cell_length_b 8.561004
_cell_length_c 27.685090
_cell_angle_alpha 90.000000
_cell_angle_beta 90.000000
_cell_angle_gamma 90.000000
_cell_volume 6650.403060
_symmetry_space_group_name_H-M "C M M M"
_symmetry_group_IT_number 65
_symmetry_cell_setting 'orthorhombic'
loop_
_space_group_symop_operation_xyz
x,y,z
-x,-y,z
x,-y,-z
-x,y,-z
-x,-y,-z
x,y,-z
-x,y,z
x,-y,z
1/2+x,1/2+y,z
1/2-x,1/2-y,z
1/2+x,1/2-y,-z
1/2-x,1/2+y,-z
1/2-x,1/2-y,-z
1/2+x,1/2+y,-z
1/2-x,1/2+y,z
1/2+x,1/2-y,z
loop_
_atom_site_type_symbol
_atom_site_label
_atom_site_fract_x
_atom_site_fract_y
_atom_site_fract_z
Si Si1 0.445890 0.812765 0.302752
Si Si2 0.354149 0.687048 0.747732
Si Si3 0.804246 0.311392 0.948099
Si Si4 0.444786 0.309385 0.500000
Si Si5 0.695887 0.187556 0.842279
Si Si6 0.898781 0.810739 0.399323
Si Si7 0.802197 0.812195 0.649788
O O1 0.500000 0.764528 0.291858
O O2 0.406647 0.745163 0.266352
O O3 0.431072 0.753521 0.355929
O O4 0.443279 0.000000 0.301985
O O5 0.353845 0.500000 0.748405
O O6 0.335003 0.750529 0.798098
O O7 0.319809 0.738454 0.703265
O O8 0.803509 0.500000 0.948141
O O9 0.750000 0.250000 0.948306
O O10 0.823470 0.263249 0.895500
O O11 0.825837 0.260962 0.000000
O O12 0.444683 0.500000 0.500000
O O13 0.500000 0.259727 0.500000
O O14 0.418058 0.259370 0.451236
O O15 0.750000 0.250000 0.837660
O O16 0.697379 0.000000 0.840440
O O17 0.844420 0.764265 0.386801
O O18 0.900829 0.000000 0.397382
O O19 0.750000 0.750000 0.638676
O O20 0.800474 0.000000 0.649778
#
# Coordination Sequence:
#
# PCOD9483141 Si02
#       7
#    16  16  16   8  16  16  16
#     4  10  20  33  49  69  92 116 141 174 221 272
#     4  10  20  32  46  65  88 116 151 187 223 264
#     4   8  14  24  37  54  79 114 153 188 222 260
#     4   9  16  28  50  73  89 111 145 185 224 261
#     4  10  18  27  41  62  90 122 155 191 227 263
#     4   9  18  32  49  70  92 115 148 183 215 258
#     4   9  18  30  44  62  85 115 147 179 213 251
#
# _framework density 15.63815
#
# number of rings (size 3 to 8) (size 9 to 14) (size 15 to 20)
#    0.000    2.692    0.000    3.231    0.000    6.769 
#    0.000    0.769    0.000    1.385    0.000    0.000 
#    0.000    0.615    0.000    7.077    0.000    2.000 
#
# Total GULP energy -289665.424556 kJ/mol
# GULP energy per Si atom -5570.488934 kJ/mol
# Density = 1.560256 g / cm^3
# Si number density = 15.638150 Si / 1000 Ang^3
#
#
#
# Elastic Constant Matrix: (Units=GPa)
#
#
# Indices 1 2 3 4 5 6 
#
# 1 108.2001 22.5959 76.5944 0.0000 0.0000 0.0000
# 2 22.5959 20.9852 26.9371 0.0000 0.0000 0.0000
# 3 76.5944 26.9371 166.3014 0.0000 0.0000 0.0000
# 4 0.0000 0.0000 0.0000 15.2099 0.0000 0.0000
# 5 0.0000 0.0000 0.0000 0.0000 20.9788 0.0000
# 6 0.0000 0.0000 0.0000 0.0000 0.0000 22.3168
#
#
#
# Elastic Compliance Matrix: (Units=1/GPa)
#
#
# Indices 1 2 3 4 5 6 
#
# 1 0.014998 -0.009194 -0.005418 0.000000 0.000000 0.000000
# 2 -0.009194 0.065797 -0.006423 0.000000 0.000000 0.000000
# 3 -0.005418 -0.006423 0.009549 0.000000 0.000000 0.000000
# 4 0.000000 0.000000 0.000000 0.065747 0.000000 0.000000
# 5 0.000000 0.000000 0.000000 0.000000 0.047667 0.000000
# 6 0.000000 0.000000 0.000000 0.000000 0.000000 0.044809
#
#
# Mechanical properties :
#
#
# Convention : Reuss Voigt Hill
#
# Bulk Modulus (GPa) = 20.71540 60.86015 40.78778
# Shear Modulus (GPa) = 16.30102 22.99171 19.64637
#
# Velocity S-wave (km/s) = 3.23211 3.83852 3.54829
# Velocity P-wave (km/s) = 5.21576 7.65819 6.55179
#
# Compressibility (1/GPa) = 0.04827326
#
# Stress axis : x y z
#
# Youngs Moduli (GPa) = 66.67649 15.19825 104.72074
#
# Poissons Ratio (x) = 0.13973 0.56742
# Poissons Ratio (y) = 0.61300 0.67265
# Poissons Ratio (z) = 0.36128 0.09762
#
# Static dielectric constant tensor:
#      x y z
#    x 1.508740 0.000000 0.000000 
#    y 0.000000 1.533900 0.000000 
#    z 0.000000 0.000000 1.547820 
# 
# From -- ./inp_files/73786.got.cif
#   From: 2010.05.17/outbox.cif.g08.bks.cpg/sg65_37_cif.got.tgz:73786.got - 2010.06.03 17:01:31.
