data_PCOD9483739
_publ_section_title
;
Structure prediction by ZEFSAII (Michael W. Deem and Ramdas Pophale) SiO2 
 PCOD9483739
Probable space group: C M M M
;
_chemical_formula_sum "Si O2"
_cell_formula_units_Z 72
_cell_length_a 29.449382
_cell_length_b 8.390732
_cell_length_c 16.214719
_cell_angle_alpha 90.000000
_cell_angle_beta 90.000000
_cell_angle_gamma 90.000000
_cell_volume 4006.687418
_symmetry_space_group_name_H-M "C M M M"
_symmetry_group_IT_number 65
_symmetry_cell_setting 'orthorhombic'
loop_
_space_group_symop_operation_xyz
x,y,z
-x,-y,z
x,-y,-z
-x,y,-z
-x,-y,-z
x,y,-z
-x,y,z
x,-y,z
1/2+x,1/2+y,z
1/2-x,1/2-y,z
1/2+x,1/2-y,-z
1/2-x,1/2+y,-z
1/2-x,1/2-y,-z
1/2+x,1/2+y,-z
1/2-x,1/2+y,z
1/2+x,1/2-y,z
loop_
_atom_site_type_symbol
_atom_site_label
_atom_site_fract_x
_atom_site_fract_y
_atom_site_fract_z
Si Si1 0.301354 0.309848 0.675581
Si Si2 0.946348 0.308004 0.592407
Si Si3 0.447523 0.305547 0.092669
Si Si4 0.197973 0.689658 0.500000
Si Si5 0.891276 0.807802 0.249069
O O1 0.299177 0.500000 0.674400
O O2 0.250000 0.250000 0.687762
O O3 0.319970 0.253565 0.586364
O O4 0.339074 0.254722 0.740612
O O5 0.931641 0.255564 0.500000
O O6 0.942134 0.500000 0.594375
O O7 0.918990 0.239015 0.669105
O O8 0.000000 0.269574 0.600569
O O9 0.500000 0.259118 0.106643
O O10 0.446618 0.500000 0.093349
O O11 0.416059 0.247733 0.166867
O O12 0.434269 0.255498 0.000000
O O13 0.196271 0.500000 0.500000
O O14 0.250000 0.750000 0.500000
O O15 0.890869 0.000000 0.245204
#
# Coordination Sequence:
#
# PCOD9483739 Si02
#       5
#    16  16  16   8  16
#     4  10  20  33  47  67  96 127 163 206 247 288
#     4   9  19  34  48  66  97 134 166 193 230 289
#     4   8  14  27  49  76 102 124 150 192 247 299
#     4  10  18  30  48  66  87 120 161 202 244 285
#     4  10  20  31  49  75  98 123 162 208 246 284
#
# _framework density 17.969957000000001
#
# number of rings (size 3 to 8) (size 9 to 14) (size 15 to 20)
#    0.000    2.667    0.000    5.000    1.556    3.556 
#    0.000    1.111    0.000    1.333    0.000    3.111 
#    0.000    0.000    0.000    0.000    0.000    0.889 
#
# Total GULP energy -200707.877510 kJ/mol
# GULP energy per Si atom -5575.218820 kJ/mol
# Density = 1.792906 g / cm^3
# Si number density = 17.969957 Si / 1000 Ang^3
#
#
#
# Elastic Constant Matrix: (Units=GPa)
#
#
# Indices 1 2 3 4 5 6 
#
# 1 109.7309 18.9585 99.6835 0.0000 0.0000 0.0000
# 2 18.9585 18.9410 14.6918 0.0000 0.0000 0.0000
# 3 99.6835 14.6918 153.4595 0.0000 0.0000 0.0000
# 4 0.0000 0.0000 0.0000 7.6670 0.0000 0.0000
# 5 0.0000 0.0000 0.0000 0.0000 30.3110 0.0000
# 6 0.0000 0.0000 0.0000 0.0000 0.0000 15.9548
#
#
#
# Elastic Compliance Matrix: (Units=1/GPa)
#
#
# Indices 1 2 3 4 5 6 
#
# 1 0.025048 -0.013449 -0.014983 0.000000 0.000000 0.000000
# 2 -0.013449 0.064252 0.002585 0.000000 0.000000 0.000000
# 3 -0.014983 0.002585 0.016001 0.000000 0.000000 0.000000
# 4 0.000000 0.000000 0.000000 0.130429 0.000000 0.000000
# 5 0.000000 0.000000 0.000000 0.000000 0.032991 0.000000
# 6 0.000000 0.000000 0.000000 0.000000 0.000000 0.062677
#
#
# Mechanical properties :
#
#
# Convention : Reuss Voigt Hill
#
# Bulk Modulus (GPa) = 18.65429 60.97766 39.81597
# Shear Modulus (GPa) = 12.47000 20.70638 16.58819
#
# Velocity S-wave (km/s) = 2.63712 3.39820 3.04156
# Velocity P-wave (km/s) = 4.43575 7.02879 5.87706
#
# Compressibility (1/GPa) = 0.05360698
#
# Stress axis : x y z
#
# Youngs Moduli (GPa) = 39.92348 15.56370 62.49446
#
# Poissons Ratio (x) = 0.20932 0.93635
# Poissons Ratio (y) = 0.53695 -0.16155
# Poissons Ratio (z) = 0.59817 -0.04023
#
# Static dielectric constant tensor:
#      x y z
#    x 1.636160 0.000000 0.000000 
#    y 0.000000 1.643580 0.000000 
#    z 0.000000 0.000000 1.624590 
# 
# From -- ./inp_files/36956.got.cif
#   From: 2010.05.17/outbox.cif.g08.bks.cpg/sg65_19_cif.got.tgz:36956.got - 2010.06.03 17:01:31.
