data_PCOD9483130
_publ_section_title
;
Structure prediction by ZEFSAII (Michael W. Deem and Ramdas Pophale) SiO2 
 PCOD9483130
Probable space group: C M M M
;
_chemical_formula_sum "Si O2"
_cell_formula_units_Z 104
_cell_length_a 28.049791
_cell_length_b 8.626758
_cell_length_c 27.605740
_cell_angle_alpha 90.000000
_cell_angle_beta 90.000000
_cell_angle_gamma 90.000000
_cell_volume 6680.002704
_symmetry_space_group_name_H-M "C M M M"
_symmetry_group_IT_number 65
_symmetry_cell_setting 'orthorhombic'
loop_
_space_group_symop_operation_xyz
x,y,z
-x,-y,z
x,-y,-z
-x,y,-z
-x,-y,-z
x,y,-z
-x,y,z
x,-y,z
1/2+x,1/2+y,z
1/2-x,1/2-y,z
1/2+x,1/2-y,-z
1/2-x,1/2+y,-z
1/2-x,1/2-y,-z
1/2+x,1/2+y,-z
1/2-x,1/2+y,z
1/2+x,1/2-y,z
loop_
_atom_site_type_symbol
_atom_site_label
_atom_site_fract_x
_atom_site_fract_y
_atom_site_fract_z
Si Si1 0.445674 0.687020 0.698251
Si Si2 0.197457 0.685523 0.351326
Si Si3 0.893811 0.186967 0.598774
Si Si4 0.803903 0.186091 0.841841
Si Si5 0.854532 0.314698 0.252269
Si Si6 0.944800 0.810574 0.500000
Si Si7 0.804047 0.812876 0.947944
O O1 0.500000 0.736951 0.705944
O O2 0.443857 0.500000 0.701730
O O3 0.427740 0.728837 0.644167
O O4 0.407471 0.757766 0.734916
O O5 0.198519 0.500000 0.352220
O O6 0.250000 0.750000 0.360092
O O7 0.157983 0.745127 0.389137
O O8 0.178494 0.735666 0.297952
O O9 0.917218 0.238551 0.548483
O O10 0.890203 0.000000 0.597875
O O11 0.750000 0.250000 0.837443
O O12 0.834673 0.247492 0.797461
O O13 0.823542 0.233993 0.895208
O O14 0.801999 0.000000 0.839870
O O15 0.853394 0.500000 0.250378
O O16 0.000000 0.760685 0.500000
O O17 0.945340 0.000000 0.500000
O O18 0.750000 0.750000 0.948130
O O19 0.802771 0.000000 0.947993
O O20 0.825812 0.763603 0.000000
#
# Coordination Sequence:
#
# PCOD9483130 Si02
#       7
#    16  16  16  16  16   8  16
#     4   9  17  30  48  68  90 116 144 175 214 259
#     4  10  20  33  48  65  87 117 151 184 218 256
#     4   9  17  30  49  72  95 117 143 175 211 255
#     4  10  18  27  41  61  87 118 150 184 219 256
#     4  10  20  31  44  64  89 116 147 183 220 260
#     4   9  16  28  50  77  98 115 140 175 214 257
#     4   8  14  24  37  54  78 110 146 180 214 252
#
# _framework density 15.568854999999999
#
# number of rings (size 3 to 8) (size 9 to 14) (size 15 to 20)
#    0.000    2.692    0.000    2.308    0.000    5.846 
#    0.000    0.769    0.000    1.846    0.000    0.000 
#    0.000    0.615    0.000    7.077    0.000    2.000 
#
# Total GULP energy -289693.447765 kJ/mol
# GULP energy per Si atom -5571.027842 kJ/mol
# Density = 1.553342 g / cm^3
# Si number density = 15.568855 Si / 1000 Ang^3
#
#
#
# Elastic Constant Matrix: (Units=GPa)
#
#
# Indices 1 2 3 4 5 6 
#
# 1 122.7000 27.9283 79.2834 0.0000 0.0000 0.0000
# 2 27.9283 18.9712 29.8479 0.0000 0.0000 0.0000
# 3 79.2834 29.8479 159.1253 0.0000 0.0000 0.0000
# 4 0.0000 0.0000 0.0000 15.5094 0.0000 0.0000
# 5 0.0000 0.0000 0.0000 0.0000 13.3976 0.0000
# 6 0.0000 0.0000 0.0000 0.0000 0.0000 20.1790
#
#
#
# Elastic Compliance Matrix: (Units=1/GPa)
#
#
# Indices 1 2 3 4 5 6 
#
# 1 0.014195 -0.013859 -0.004473 0.000000 0.000000 0.000000
# 2 -0.013859 0.088312 -0.009660 0.000000 0.000000 0.000000
# 3 -0.004473 -0.009660 0.010325 0.000000 0.000000 0.000000
# 4 0.000000 0.000000 0.000000 0.064477 0.000000 0.000000
# 5 0.000000 0.000000 0.000000 0.000000 0.074640 0.000000
# 6 0.000000 0.000000 0.000000 0.000000 0.000000 0.049556
#
#
# Mechanical properties :
#
#
# Convention : Reuss Voigt Hill
#
# Bulk Modulus (GPa) = 17.59078 63.87954 40.73516
# Shear Modulus (GPa) = 13.28236 20.73298 17.00767
#
# Velocity S-wave (km/s) = 2.92402 3.65320 3.30876
# Velocity P-wave (km/s) = 4.76687 7.67554 6.38894
#
# Compressibility (1/GPa) = 0.05684795
#
# Stress axis : x y z
#
# Youngs Moduli (GPa) = 70.44897 11.32343 96.85410
#
# Poissons Ratio (x) = 0.15694 0.43320
# Poissons Ratio (y) = 0.97639 0.93559
# Poissons Ratio (z) = 0.31510 0.10938
#
# Static dielectric constant tensor:
#      x y z
#    x 1.486670 0.000000 0.000000 
#    y 0.000000 1.527410 0.000000 
#    z 0.000000 0.000000 1.547770 
# 
# From -- ./inp_files/71854.got.cif
#   From: 2010.05.17/outbox.cif.g08.bks.cpg/sg65_36_cif.got.tgz:71854.got - 2010.06.03 17:01:31.
