data_PCOD9483025
_publ_section_title
;
Structure prediction by ZEFSAII (Michael W. Deem and Ramdas Pophale) SiO2 
 PCOD9483025
Probable space group: C M M M
;
_chemical_formula_sum "Si O2"
_cell_formula_units_Z 96
_cell_length_a 15.459165
_cell_length_b 18.178918
_cell_length_c 18.275533
_cell_angle_alpha 90.000000
_cell_angle_beta 90.000000
_cell_angle_gamma 90.000000
_cell_volume 5135.989357
_symmetry_space_group_name_H-M "C M M M"
_symmetry_group_IT_number 65
_symmetry_cell_setting 'orthorhombic'
loop_
_space_group_symop_operation_xyz
x,y,z
-x,-y,z
x,-y,-z
-x,y,-z
-x,-y,-z
x,y,-z
-x,y,z
x,-y,z
1/2+x,1/2+y,z
1/2-x,1/2-y,z
1/2+x,1/2-y,-z
1/2-x,1/2+y,-z
1/2-x,1/2-y,-z
1/2+x,1/2+y,-z
1/2-x,1/2+y,z
1/2+x,1/2-y,z
loop_
_atom_site_type_symbol
_atom_site_label
_atom_site_fract_x
_atom_site_fract_y
_atom_site_fract_z
Si Si1 0.665935 0.696248 0.417000
Si Si2 0.403950 0.119442 0.084668
Si Si3 0.095523 0.295372 0.295608
Si Si4 0.754595 0.584738 0.313810
Si Si5 0.648401 0.731181 0.140696
Si Si6 0.785777 0.918798 0.145427
O O1 0.636580 0.684174 0.500000
O O2 0.750000 0.750000 0.419614
O O3 0.602240 0.741131 0.364564
O O4 0.695191 0.622329 0.375464
O O5 0.500000 0.096578 0.112126
O O6 0.398311 0.208167 0.091621
O O7 0.316391 0.092279 0.124504
O O8 0.397998 0.097640 0.000000
O O9 0.163390 0.361188 0.305312
O O10 0.117257 0.248363 0.223036
O O11 0.000000 0.326062 0.287775
O O12 0.776406 0.500000 0.330682
O O13 0.711043 0.585769 0.233684
O O14 0.750000 0.750000 0.140401
O O15 0.651906 0.646257 0.117926
O O16 0.810755 0.000000 0.120834
#
# Coordination Sequence:
#
# PCOD9483025 Si02
#       6
#    16  16  16  16  16  16
#     4   9  18  34  54  75 101 140 182 215 253 304
#     4  10  21  35  53  80 110 141 175 211 259 318
#     4  11  19  31  53  80 108 140 174 215 266 315
#     4  10  19  33  53  79 108 139 175 214 259 316
#     4  10  17  33  54  73 102 140 183 221 256 300
#     4  10  20  33  53  77 105 140 177 217 262 308
#
# _framework density 18.691628000000001
#
# number of rings (size 3 to 8) (size 9 to 14) (size 15 to 20)
#    0.000    2.000    5.000    1.000    0.000    4.667 
#    0.000    2.500    0.000    3.500    0.000    7.000 
#    0.000    0.000    0.000    0.000    0.000    0.000 
#
# Total GULP energy -267417.961895 kJ/mol
# GULP energy per Si atom -5571.207539 kJ/mol
# Density = 1.864908 g / cm^3
# Si number density = 18.691628 Si / 1000 Ang^3
#
#
#
# Elastic Constant Matrix: (Units=GPa)
#
#
# Indices 1 2 3 4 5 6 
#
# 1 14.8395 -3.9192 -5.0729 0.0000 0.0000 0.0000
# 2 -3.9192 112.8631 6.1840 0.0000 0.0000 0.0000
# 3 -5.0729 6.1840 65.0146 0.0000 0.0000 0.0000
# 4 0.0000 0.0000 0.0000 -1.3027 0.0000 0.0000
# 5 0.0000 0.0000 0.0000 0.0000 2.1640 0.0000
# 6 0.0000 0.0000 0.0000 0.0000 0.0000 8.6743
#
#
#
# Elastic Compliance Matrix: (Units=1/GPa)
#
#
# Indices 1 2 3 4 5 6 
#
# 1 0.069742 0.002135 0.005239 0.000000 0.000000 0.000000
# 2 0.002135 0.008972 -0.000687 0.000000 0.000000 0.000000
# 3 0.005239 -0.000687 0.015855 0.000000 0.000000 0.000000
# 4 0.000000 0.000000 0.000000 -0.767665 0.000000 0.000000
# 5 0.000000 0.000000 0.000000 0.000000 0.462104 0.000000
# 6 0.000000 0.000000 0.000000 0.000000 0.000000 0.115283
#
#
# Mechanical properties :
#
#
# Convention : Reuss Voigt Hill
#
# Bulk Modulus (GPa) = 9.26414 20.78900 15.02657
# Shear Modulus (GPa) = -68.39904 14.94216 -26.72844
#
# Velocity S-wave (km/s) = -6.05581 2.83044 -3.78559
# Velocity P-wave (km/s) = 6.62798 4.67205 3.32430
#
# Compressibility (1/GPa) = 0.10794314
#
# Stress axis : x y z
#
# Youngs Moduli (GPa) = 14.33847 111.45718 63.07059
#
# Poissons Ratio (x) = -0.23793 -0.33041
# Poissons Ratio (y) = -0.03061 0.04332
# Poissons Ratio (z) = -0.07512 0.07655
#
# Static dielectric constant tensor:
#      x y z
#    x 1.645510 0.000000 0.000000 
#    y 0.000000 1.697700 0.000000 
#    z 0.000000 0.000000 1.649870 
# 
# From -- ./inp_files/54489.got.cif
#   From: 2010.05.17/outbox.cif.g08.bks.cpg/sg65_28_cif.got.tgz:54489.got - 2010.06.03 17:01:31.
