data_PCOD9483420
_publ_section_title
;
Structure prediction by ZEFSAII (Michael W. Deem and Ramdas Pophale) SiO2 
 PCOD9483420
Probable space group: C M M M
;
_chemical_formula_sum "Si O2"
_cell_formula_units_Z 120
_cell_length_a 15.020349
_cell_length_b 20.130346
_cell_length_c 19.721305
_cell_angle_alpha 90.000000
_cell_angle_beta 90.000000
_cell_angle_gamma 90.000000
_cell_volume 5963.028884
_symmetry_space_group_name_H-M "C M M M"
_symmetry_group_IT_number 65
_symmetry_cell_setting 'orthorhombic'
loop_
_space_group_symop_operation_xyz
x,y,z
-x,-y,z
x,-y,-z
-x,y,-z
-x,-y,-z
x,y,-z
-x,y,z
x,-y,z
1/2+x,1/2+y,z
1/2-x,1/2-y,z
1/2+x,1/2-y,-z
1/2-x,1/2+y,-z
1/2-x,1/2-y,-z
1/2+x,1/2+y,-z
1/2-x,1/2+y,z
1/2+x,1/2-y,z
loop_
_atom_site_type_symbol
_atom_site_label
_atom_site_fract_x
_atom_site_fract_y
_atom_site_fract_z
Si Si1 0.603628 0.759680 0.926626
Si Si2 0.097662 0.922137 0.150470
Si Si3 0.777516 0.674862 0.335991
Si Si4 0.393558 0.074928 0.580290
Si Si5 0.399250 0.000000 0.916957
Si Si6 0.901412 0.729902 0.771683
Si Si7 0.403909 0.628597 0.699961
Si Si8 0.270847 0.114500 0.924014
O O1 0.500000 0.783442 0.929822
O O2 0.612394 0.741373 0.847323
O O3 0.677990 0.816621 0.928981
O O4 0.615132 0.722025 0.000000
O O5 0.101227 0.913990 0.231325
O O6 0.180560 0.886420 0.116908
O O7 0.000000 0.896373 0.127897
O O8 0.103114 0.000000 0.132983
O O9 0.750000 0.750000 0.358447
O O10 0.848802 0.635886 0.380724
O O11 0.822649 0.685822 0.260934
O O12 0.689940 0.628348 0.337320
O O13 0.374443 0.079744 0.500000
O O14 0.500000 0.078574 0.588661
O O15 0.365856 0.000000 0.602862
O O16 0.343218 0.063559 0.894694
O O17 0.500000 0.000000 0.892391
O O18 0.403636 0.000000 0.000000
O O19 0.906247 0.794848 0.724898
O O20 0.000000 0.697286 0.770128
O O21 0.500000 0.613834 0.666665
O O22 0.249523 0.091064 0.000000
#
# Coordination Sequence:
#
# PCOD9483420 Si02
#       8
#    16  16  16  16   8  16  16  16
#     4   9  17  29  47  70  96 127 163 208 269 340
#     4  10  20  33  47  62  83 115 160 212 260 310
#     4  10  19  32  56  85 115 151 194 240 282 331
#     4   9  19  37  61  91 128 164 193 227 280 343
#     4   9  16  26  41  59  79 103 132 170 226 303
#     4   9  17  31  51  74 103 136 175 227 284 338
#     4   9  19  34  50  71  99 134 176 222 272 320
#     4  10  18  29  43  61  83 110 147 194 253 319
#
# _framework density 20.124001
#
# number of rings (size 3 to 8) (size 9 to 14) (size 15 to 20)
#    0.000    2.600    0.667    2.000    0.000    3.200 
#    0.000    1.333    0.000    8.000    0.000    0.933 
#    0.000    0.000    0.000    0.000    0.000    0.000 
#
# Total GULP energy -334093.498201 kJ/mol
# GULP energy per Si atom -5568.224970 kJ/mol
# Density = 2.007820 g / cm^3
# Si number density = 20.124001 Si / 1000 Ang^3
#
#
#
# Elastic Constant Matrix: (Units=GPa)
#
#
# Indices 1 2 3 4 5 6 
#
# 1 126.1336 45.1809 29.5822 0.0000 0.0000 0.0000
# 2 45.1809 48.0055 22.6173 0.0000 0.0000 0.0000
# 3 29.5822 22.6173 43.9439 0.0000 0.0000 0.0000
# 4 0.0000 0.0000 0.0000 20.6336 0.0000 0.0000
# 5 0.0000 0.0000 0.0000 0.0000 16.9456 0.0000
# 6 0.0000 0.0000 0.0000 0.0000 0.0000 26.0923
#
#
#
# Elastic Compliance Matrix: (Units=1/GPa)
#
#
# Indices 1 2 3 4 5 6 
#
# 1 0.012263 -0.010102 -0.003056 0.000000 0.000000 0.000000
# 2 -0.010102 0.035821 -0.011636 0.000000 0.000000 0.000000
# 3 -0.003056 -0.011636 0.030802 0.000000 0.000000 0.000000
# 4 0.000000 0.000000 0.000000 0.048465 0.000000 0.000000
# 5 0.000000 0.000000 0.000000 0.000000 0.059012 0.000000
# 6 0.000000 0.000000 0.000000 0.000000 0.000000 0.038325
#
#
# Mechanical properties :
#
#
# Convention : Reuss Voigt Hill
#
# Bulk Modulus (GPa) = 34.13148 45.87153 40.00151
# Shear Modulus (GPa) = 17.60298 20.78116 19.19207
#
# Velocity S-wave (km/s) = 2.96078 3.21698 3.09154
# Velocity P-wave (km/s) = 5.35591 6.05331 5.71526
#
# Compressibility (1/GPa) = 0.02929846
#
# Stress axis : x y z
#
# Youngs Moduli (GPa) = 81.54373 27.91690 32.46496
#
# Poissons Ratio (x) = 0.28201 0.09922
# Poissons Ratio (y) = 0.82375 0.37776
# Poissons Ratio (z) = 0.24921 0.32484
#
# Static dielectric constant tensor:
#      x y z
#    x 1.773740 0.000000 0.000000 
#    y 0.000000 1.841000 0.000000 
#    z 0.000000 0.000000 1.712600 
# 
# From -- ./inp_files/63018.got.cif
#   From: 2010.05.17/outbox.cif.g08.bks.cpg/sg65_32_cif.got.tgz:63018.got - 2010.06.03 17:01:31.
