data_PCOD9483160
_publ_section_title
;
Structure prediction by ZEFSAII (Michael W. Deem and Ramdas Pophale) SiO2 
 PCOD9483160
Probable space group: C M M M
;
_chemical_formula_sum "Si O2"
_cell_formula_units_Z 104
_cell_length_a 8.654487
_cell_length_b 28.318207
_cell_length_c 27.447751
_cell_angle_alpha 90.000000
_cell_angle_beta 90.000000
_cell_angle_gamma 90.000000
_cell_volume 6726.882583
_symmetry_space_group_name_H-M "C M M M"
_symmetry_group_IT_number 65
_symmetry_cell_setting 'orthorhombic'
loop_
_space_group_symop_operation_xyz
x,y,z
-x,-y,z
x,-y,-z
-x,y,-z
-x,-y,-z
x,y,-z
-x,y,z
x,-y,z
1/2+x,1/2+y,z
1/2-x,1/2-y,z
1/2+x,1/2-y,-z
1/2-x,1/2+y,-z
1/2-x,1/2-y,-z
1/2+x,1/2+y,-z
1/2-x,1/2+y,z
1/2+x,1/2-y,z
loop_
_atom_site_type_symbol
_atom_site_label
_atom_site_fract_x
_atom_site_fract_y
_atom_site_fract_z
Si Si1 0.178506 0.442624 0.500000
Si Si2 0.686612 0.446135 0.795274
Si Si3 0.810938 0.445233 0.393589
Si Si4 0.185650 0.855870 0.854324
Si Si5 0.684591 0.198055 0.944495
Si Si6 0.685149 0.697916 0.755616
Si Si7 0.685407 0.108418 0.703036
O O1 0.175460 0.500000 0.500000
O O2 0.245815 0.429579 0.552708
O O3 0.000000 0.426379 0.500000
O O4 0.500000 0.443841 0.790377
O O5 0.730907 0.500000 0.805306
O O6 0.730133 0.408424 0.836872
O O7 0.758988 0.427381 0.745145
O O8 0.765633 0.500000 0.385102
O O9 0.763590 0.412087 0.349113
O O10 0.000000 0.445171 0.395275
O O11 0.257723 0.838395 0.904295
O O12 0.230893 0.821519 0.809364
O O13 0.000000 0.853996 0.858514
O O14 0.500000 0.200355 0.943394
O O15 0.750000 0.250000 0.932756
O O16 0.733802 0.186521 0.000000
O O17 0.500000 0.698442 0.753748
O O18 0.750000 0.750000 0.747741
O O19 0.747139 0.659282 0.717496
O O20 0.500000 0.110806 0.703576
#
# Coordination Sequence:
#
# PCOD9483160 Si02
#       7
#     8  16  16  16  16  16  16
#     4   7  10  18  32  52  82 117 146 175 214 253
#     4   9  18  32  47  64  89 120 152 184 218 256
#     4   8  13  21  35  58  88 118 147 179 213 252
#     4   9  18  31  48  68  88 113 144 177 213 255
#     4  10  20  32  47  68  92 116 142 174 214 259
#     4  10  20  33  47  65  89 116 146 179 218 262
#     4  10  18  27  42  66  92 117 147 181 218 261
#
# _framework density 15.460356000000001
#
# number of rings (size 3 to 8) (size 9 to 14) (size 15 to 20)
#    0.000    2.846    0.000    4.154    0.000    6.154 
#    0.000    0.000    0.000    0.462    0.000    5.923 
#    0.000    8.615    0.000    0.000    0.000    0.000 
#
# Total GULP energy -289706.097153 kJ/mol
# GULP energy per Si atom -5571.271099 kJ/mol
# Density = 1.542517 g / cm^3
# Si number density = 15.460356 Si / 1000 Ang^3
#
#
#
# Elastic Constant Matrix: (Units=GPa)
#
#
# Indices 1 2 3 4 5 6 
#
# 1 18.2511 30.2564 29.6140 0.0000 0.0000 0.0000
# 2 30.2564 128.3868 82.1539 0.0000 0.0000 0.0000
# 3 29.6140 82.1539 133.1197 0.0000 0.0000 0.0000
# 4 0.0000 0.0000 0.0000 22.0961 0.0000 0.0000
# 5 0.0000 0.0000 0.0000 0.0000 8.7811 0.0000
# 6 0.0000 0.0000 0.0000 0.0000 0.0000 19.4535
#
#
#
# Elastic Compliance Matrix: (Units=1/GPa)
#
#
# Indices 1 2 3 4 5 6 
#
# 1 0.101879 -0.015711 -0.012968 0.000000 0.000000 0.000000
# 2 -0.015711 0.015295 -0.005944 0.000000 0.000000 0.000000
# 3 -0.012968 -0.005944 0.014065 0.000000 0.000000 0.000000
# 4 0.000000 0.000000 0.000000 0.045257 0.000000 0.000000
# 5 0.000000 0.000000 0.000000 0.000000 0.113881 0.000000
# 6 0.000000 0.000000 0.000000 0.000000 0.000000 0.051405
#
#
# Mechanical properties :
#
#
# Convention : Reuss Voigt Hill
#
# Bulk Modulus (GPa) = 16.13097 62.64514 39.38805
# Shear Modulus (GPa) = 11.58231 19.24837 15.41534
#
# Velocity S-wave (km/s) = 2.74005 3.53230 3.16110
# Velocity P-wave (km/s) = 4.52404 7.56598 6.23342
#
# Compressibility (1/GPa) = 0.06199256
#
# Stress axis : x y z
#
# Youngs Moduli (GPa) = 9.81557 65.37981 71.09670
#
# Poissons Ratio (x) = 1.02720 0.92198
# Poissons Ratio (y) = 0.15422 0.42261
# Poissons Ratio (z) = 0.12729 0.38863
#
# Static dielectric constant tensor:
#      x y z
#    x 1.523650 0.000000 0.000000 
#    y 0.000000 1.496790 0.000000 
#    z 0.000000 0.000000 1.525530 
# 
# From -- ./inp_files/73737.got.cif
#   From: 2010.05.17/outbox.cif.g08.bks.cpg/sg65_37_cif.got.tgz:73737.got - 2010.06.03 17:01:31.
