data_PCOD9483197
_publ_section_title
;
Structure prediction by ZEFSAII (Michael W. Deem and Ramdas Pophale) SiO2 
 PCOD9483197
Probable space group: C M M M
;
_chemical_formula_sum "Si O2"
_cell_formula_units_Z 80
_cell_length_a 18.649024
_cell_length_b 37.312524
_cell_length_c 9.263129
_cell_angle_alpha 90.000000
_cell_angle_beta 90.000000
_cell_angle_gamma 90.000000
_cell_volume 6445.675651
_symmetry_space_group_name_H-M "C M M M"
_symmetry_group_IT_number 65
_symmetry_cell_setting 'orthorhombic'
loop_
_space_group_symop_operation_xyz
x,y,z
-x,-y,z
x,-y,-z
-x,y,-z
-x,-y,-z
x,y,-z
-x,y,z
x,-y,z
1/2+x,1/2+y,z
1/2-x,1/2-y,z
1/2+x,1/2-y,-z
1/2-x,1/2+y,-z
1/2-x,1/2-y,-z
1/2+x,1/2+y,-z
1/2-x,1/2+y,z
1/2+x,1/2-y,z
loop_
_atom_site_type_symbol
_atom_site_label
_atom_site_fract_x
_atom_site_fract_y
_atom_site_fract_z
Si Si1 0.083610 0.753187 0.171833
Si Si2 0.338202 0.177505 0.172074
Si Si3 0.913806 0.611667 0.670351
Si Si4 0.912996 0.459983 0.167615
Si Si5 0.709461 0.711474 0.666006
O O1 0.112984 0.712915 0.199159
O O2 0.133740 0.780461 0.258949
O O3 0.000000 0.755566 0.209459
O O4 0.091738 0.759472 0.000000
O O5 0.375140 0.143431 0.244628
O O6 0.261173 0.185651 0.243231
O O7 0.332144 0.173137 0.000000
O O8 0.899423 0.614006 0.500000
O O9 0.890625 0.573119 0.733666
O O10 0.000000 0.614827 0.691088
O O11 0.889039 0.500000 0.211774
O O12 0.000000 0.460498 0.171164
O O13 0.892608 0.454208 0.000000
O O14 0.702260 0.699949 0.500000
O O15 0.750000 0.750000 0.666346
#
# Coordination Sequence:
#
# PCOD9483197 Si02
#       5
#    16  16  16  16  16
#     4   9  17  28  41  56  72  92 121 154 185 219
#     4  10  18  28  41  54  71  96 124 153 185 220
#     4  10  19  27  36  53  75  96 120 153 190 223
#     4   8  14  25  39  52  67  90 120 151 181 215
#     4   9  17  28  40  54  72  93 117 147 185 225
#
# _framework density 12.411422999999999
#
# number of rings (size 3 to 8) (size 9 to 14) (size 15 to 20)
#    0.000    2.800    0.000    3.000    0.000    6.000 
#    0.000    2.000    0.000    0.000    0.000    0.000 
#    0.000    0.000    0.000    0.000    0.000    1.000 
#
# Total GULP energy -222785.765270 kJ/mol
# GULP energy per Si atom -5569.644132 kJ/mol
# Density = 1.238317 g / cm^3
# Si number density = 12.411423 Si / 1000 Ang^3
#
#
#
# Elastic Constant Matrix: (Units=GPa)
#
#
# Indices 1 2 3 4 5 6 
#
# 1 74.8503 36.7063 51.5896 0.0000 0.0000 0.0000
# 2 36.7063 76.5853 61.9371 0.0000 0.0000 0.0000
# 3 51.5896 61.9371 86.7543 0.0000 0.0000 0.0000
# 4 0.0000 0.0000 0.0000 18.3601 0.0000 0.0000
# 5 0.0000 0.0000 0.0000 0.0000 18.5002 0.0000
# 6 0.0000 0.0000 0.0000 0.0000 0.0000 12.9484
#
#
#
# Elastic Compliance Matrix: (Units=1/GPa)
#
#
# Indices 1 2 3 4 5 6 
#
# 1 0.022639 0.000088 -0.013525 0.000000 0.000000 0.000000
# 2 0.000088 0.030897 -0.022111 0.000000 0.000000 0.000000
# 3 -0.013525 -0.022111 0.035355 0.000000 0.000000 0.000000
# 4 0.000000 0.000000 0.000000 0.054466 0.000000 0.000000
# 5 0.000000 0.000000 0.000000 0.000000 0.054054 0.000000
# 6 0.000000 0.000000 0.000000 0.000000 0.000000 0.077230
#
#
# Mechanical properties :
#
#
# Convention : Reuss Voigt Hill
#
# Bulk Modulus (GPa) = 56.19539 59.85066 58.02302
# Shear Modulus (GPa) = 14.21794 15.82552 15.02173
#
# Velocity S-wave (km/s) = 3.38827 3.57470 3.48273
# Velocity P-wave (km/s) = 7.78991 8.08485 7.93875
#
# Compressibility (1/GPa) = 0.01779505
#
# Stress axis : x y z
#
# Youngs Moduli (GPa) = 44.17138 32.36580 28.28432
#
# Poissons Ratio (x) = -0.00284 0.38255
# Poissons Ratio (y) = -0.00387 0.62538
# Poissons Ratio (z) = 0.59743 0.71562
#
# Static dielectric constant tensor:
#      x y z
#    x 1.381520 0.000000 0.000000 
#    y 0.000000 1.392580 0.000000 
#    z 0.000000 0.000000 1.413780 
# 
# From -- ./inp_files/9872.got.cif
#   From: 2010.05.17/outbox.cif.g08.bks.cpg/sg65_5_cif.got.tgz:9872.got - 2010.06.03 17:01:31.
