data_PCOD9483358
_publ_section_title
;
Structure prediction by ZEFSAII (Michael W. Deem and Ramdas Pophale) SiO2 
 PCOD9483358
Probable space group: C M M M
;
_chemical_formula_sum "Si O2"
_cell_formula_units_Z 72
_cell_length_a 10.555447
_cell_length_b 14.518508
_cell_length_c 20.690736
_cell_angle_alpha 90.000000
_cell_angle_beta 90.000000
_cell_angle_gamma 90.000000
_cell_volume 3170.841672
_symmetry_space_group_name_H-M "C M M M"
_symmetry_group_IT_number 65
_symmetry_cell_setting 'orthorhombic'
loop_
_space_group_symop_operation_xyz
x,y,z
-x,-y,z
x,-y,-z
-x,y,-z
-x,-y,-z
x,y,-z
-x,y,z
x,-y,z
1/2+x,1/2+y,z
1/2-x,1/2-y,z
1/2+x,1/2-y,-z
1/2-x,1/2+y,-z
1/2-x,1/2-y,-z
1/2+x,1/2+y,-z
1/2-x,1/2+y,z
1/2+x,1/2-y,z
loop_
_atom_site_type_symbol
_atom_site_label
_atom_site_fract_x
_atom_site_fract_y
_atom_site_fract_z
Si Si1 0.266439 0.138065 0.638026
Si Si2 0.000000 0.107553 0.156828
Si Si3 0.000000 0.650542 0.719617
Si Si4 0.650006 0.835044 0.500000
Si Si5 0.000000 0.134625 0.690701
Si Si6 0.731873 0.387647 0.072990
Si Si7 0.500000 0.111931 0.869494
O O1 0.250000 0.250000 0.639919
O O2 0.370982 0.109543 0.690612
O O3 0.318432 0.114508 0.567042
O O4 0.127538 0.103078 0.655747
O O5 0.127151 0.145586 0.124053
O O6 0.000000 0.111527 0.233675
O O7 0.000000 0.000000 0.139278
O O8 0.000000 0.754304 0.692284
O O9 0.000000 0.648918 0.796519
O O10 0.500000 0.808405 0.500000
O O11 0.750000 0.750000 0.500000
O O12 0.732832 0.500000 0.073476
O O13 0.872738 0.360142 0.093609
O O14 0.700575 0.359109 0.000000
O O15 0.500000 0.000000 0.864742
#
# Coordination Sequence:
#
# PCOD9483358 Si02
#       7
#    16   8   8   8   8  16   8
#     4   9  18  29  46  68  97 127 159 195 238 283
#     4  10  19  32  51  73  95 121 160 200 238 288
#     4  10  18  32  47  67  98 131 156 190 240 289
#     4  10  18  28  46  72 101 128 162 206 244 277
#     4  10  20  32  47  71  98 129 158 190 242 291
#     4   9  17  30  49  72  95 120 155 202 246 281
#     4  10  19  30  49  73  95 123 162 198 234 282
#
# _framework density 22.706906
#
# number of rings (size 3 to 8) (size 9 to 14) (size 15 to 20)
#    0.000    2.444    1.111    2.000    4.667    2.667 
#    0.000    0.000    0.000    4.000    0.000    4.667 
#    0.000    0.000    0.000    0.000    0.000    0.000 
#
# Total GULP energy -201121.517196 kJ/mol
# GULP energy per Si atom -5586.708811 kJ/mol
# Density = 2.265522 g / cm^3
# Si number density = 22.706906 Si / 1000 Ang^3
#
#
#
# Elastic Constant Matrix: (Units=GPa)
#
#
# Indices 1 2 3 4 5 6 
#
# 1 219.3474 0.0222 80.1620 0.0000 0.0000 0.0000
# 2 0.0222 78.4942 -23.8389 0.0000 0.0000 0.0000
# 3 80.1620 -23.8389 134.4993 0.0000 0.0000 0.0000
# 4 0.0000 0.0000 0.0000 21.6419 0.0000 0.0000
# 5 0.0000 0.0000 0.0000 0.0000 49.0233 0.0000
# 6 0.0000 0.0000 0.0000 0.0000 0.0000 -17.7181
#
#
#
# Elastic Compliance Matrix: (Units=1/GPa)
#
#
# Indices 1 2 3 4 5 6 
#
# 1 0.005923 -0.001135 -0.003731 0.000000 0.000000 0.000000
# 2 -0.001135 0.013682 0.003101 0.000000 0.000000 0.000000
# 3 -0.003731 0.003101 0.010208 0.000000 0.000000 0.000000
# 4 0.000000 0.000000 0.000000 0.046207 0.000000 0.000000
# 5 0.000000 0.000000 0.000000 0.000000 0.020398 0.000000
# 6 0.000000 0.000000 0.000000 0.000000 0.000000 -0.056439
#
#
# Mechanical properties :
#
#
# Convention : Reuss Voigt Hill
#
# Bulk Modulus (GPa) = 38.04585 60.55907 49.30246
# Shear Modulus (GPa) = 95.65885 35.65578 65.65731
#
# Velocity S-wave (km/s) = 6.49762 3.96695 5.38311
# Velocity P-wave (km/s) = 8.54890 6.90725 7.77154
#
# Compressibility (1/GPa) = 0.02628408
#
# Stress axis : x y z
#
# Youngs Moduli (GPa) = 168.84397 73.08866 97.95869
#
# Poissons Ratio (x) = 0.08294 0.36549
# Poissons Ratio (y) = 0.19160 -0.30381
# Poissons Ratio (z) = 0.62996 -0.22667
#
# Static dielectric constant tensor:
#      x y z
#    x 1.834350 0.000000 0.000000 
#    y 0.000000 1.933110 0.000000 
#    z 0.000000 0.000000 1.782400 
# 
# From -- ./inp_files/51211.got.cif
#   From: 2010.05.17/outbox.cif.g08.bks.cpg/sg65_26_cif.got.tgz:51211.got - 2010.06.03 17:01:31.
