data_PCOD9483657
_publ_section_title
;
Structure prediction by ZEFSAII (Michael W. Deem and Ramdas Pophale) SiO2 
 PCOD9483657
Probable space group: C M M M
;
_chemical_formula_sum "Si O2"
_cell_formula_units_Z 96
_cell_length_a 30.423752
_cell_length_b 13.281176
_cell_length_c 15.093436
_cell_angle_alpha 90.000000
_cell_angle_beta 90.000000
_cell_angle_gamma 90.000000
_cell_volume 6098.702123
_symmetry_space_group_name_H-M "C M M M"
_symmetry_group_IT_number 65
_symmetry_cell_setting 'orthorhombic'
loop_
_space_group_symop_operation_xyz
x,y,z
-x,-y,z
x,-y,-z
-x,y,-z
-x,-y,-z
x,y,-z
-x,y,z
x,-y,z
1/2+x,1/2+y,z
1/2-x,1/2-y,z
1/2+x,1/2-y,-z
1/2-x,1/2+y,-z
1/2-x,1/2-y,-z
1/2+x,1/2+y,-z
1/2-x,1/2+y,z
1/2+x,1/2-y,z
loop_
_atom_site_type_symbol
_atom_site_label
_atom_site_fract_x
_atom_site_fract_y
_atom_site_fract_z
Si Si1 0.285849 0.613758 0.639104
Si Si2 0.313183 0.831660 0.403943
Si Si3 0.773639 0.111576 0.149149
Si Si4 0.948493 0.377913 0.600152
Si Si5 0.379520 0.115493 0.744314
Si Si6 0.178079 0.690245 0.100417
O O1 0.300536 0.500000 0.616638
O O2 0.313579 0.710197 0.607855
O O3 0.237139 0.632787 0.601530
O O4 0.280912 0.621088 0.745338
O O5 0.331133 0.859564 0.500000
O O6 0.339237 0.881491 0.324722
O O7 0.803511 0.196187 0.105048
O O8 0.722053 0.129351 0.129421
O O9 0.785665 0.000000 0.120507
O O10 0.936123 0.343567 0.500000
O O11 0.944105 0.500000 0.599655
O O12 0.919081 0.342227 0.682998
O O13 0.000000 0.354878 0.612638
O O14 0.361284 0.172119 0.830664
O O15 0.389419 0.000000 0.769091
O O16 0.166304 0.663507 0.000000
#
# Coordination Sequence:
#
# PCOD9483657 Si02
#       6
#    16  16  16  16  16  16
#     4  10  18  30  44  57  84 121 150 185 225 262
#     4  11  20  29  42  61  86 117 153 184 218 264
#     4  10  18  32  49  61  84 123 161 197 233 261
#     4   8  15  29  49  71  92 116 145 175 214 266
#     4  11  20  31  45  65  93 117 146 187 224 258
#     4  11  21  32  46  65  89 117 156 197 232 269
#
# _framework density 15.741054
#
# number of rings (size 3 to 8) (size 9 to 14) (size 15 to 20)
#    0.000    1.833    3.333    5.000    0.000    5.333 
#    0.000    0.000    0.000    0.500    0.000    2.333 
#    0.000    2.667    0.000   10.667    0.000    0.667 
#
# Total GULP energy -267591.836284 kJ/mol
# GULP energy per Si atom -5574.829923 kJ/mol
# Density = 1.570523 g / cm^3
# Si number density = 15.741054 Si / 1000 Ang^3
#
#
#
# Elastic Constant Matrix: (Units=GPa)
#
#
# Indices 1 2 3 4 5 6 
#
# 1 56.3511 0.4744 31.6308 0.0000 0.0000 0.0000
# 2 0.4744 61.8607 8.0944 0.0000 0.0000 0.0000
# 3 31.6308 8.0944 114.8495 0.0000 0.0000 0.0000
# 4 0.0000 0.0000 0.0000 -19.8955 0.0000 0.0000
# 5 0.0000 0.0000 0.0000 0.0000 10.1900 0.0000
# 6 0.0000 0.0000 0.0000 0.0000 0.0000 9.3342
#
#
#
# Elastic Compliance Matrix: (Units=1/GPa)
#
#
# Indices 1 2 3 4 5 6 
#
# 1 0.021013 0.000602 -0.005830 0.000000 0.000000 0.000000
# 2 0.000602 0.016333 -0.001317 0.000000 0.000000 0.000000
# 3 -0.005830 -0.001317 0.010405 0.000000 0.000000 0.000000
# 4 0.000000 0.000000 0.000000 -0.050263 0.000000 0.000000
# 5 0.000000 0.000000 0.000000 0.000000 0.098136 0.000000
# 6 0.000000 0.000000 0.000000 0.000000 0.000000 0.107133
#
#
# Mechanical properties :
#
#
# Convention : Reuss Voigt Hill
#
# Bulk Modulus (GPa) = 28.85009 34.82893 31.83951
# Shear Modulus (GPa) = 21.98754 12.78317 17.38536
#
# Velocity S-wave (km/s) = 3.74147 2.85281 3.32695
# Velocity P-wave (km/s) = 6.08543 5.74679 5.91854
#
# Compressibility (1/GPa) = 0.03466194
#
# Stress axis : x y z
#
# Youngs Moduli (GPa) = 47.58937 61.22556 96.10403
#
# Poissons Ratio (x) = -0.03684 0.56025
# Poissons Ratio (y) = -0.02863 0.12655
# Poissons Ratio (z) = 0.27743 0.08062
#
# Static dielectric constant tensor:
#      x y z
#    x 1.511250 0.000000 0.000000 
#    y 0.000000 1.562120 0.000000 
#    z 0.000000 0.000000 1.564810 
# 
# From -- ./inp_files/47866.got.cif
#   From: 2010.05.17/outbox.cif.g08.bks.cpg/sg65_24_cif.got.tgz:47866.got - 2010.06.03 17:01:31.
