data_PCOD9483096
_publ_section_title
;
Structure prediction by ZEFSAII (Michael W. Deem and Ramdas Pophale) SiO2 
 PCOD9483096
Probable space group: C M M M
;
_chemical_formula_sum "Si O2"
_cell_formula_units_Z 104
_cell_length_a 36.745723
_cell_length_b 28.232936
_cell_length_c 9.198600
_cell_angle_alpha 90.000000
_cell_angle_beta 90.000000
_cell_angle_gamma 90.000000
_cell_volume 9542.992325
_symmetry_space_group_name_H-M "C M M M"
_symmetry_group_IT_number 65
_symmetry_cell_setting 'orthorhombic'
loop_
_space_group_symop_operation_xyz
x,y,z
-x,-y,z
x,-y,-z
-x,y,-z
-x,-y,-z
x,y,-z
-x,y,z
x,-y,z
1/2+x,1/2+y,z
1/2-x,1/2-y,z
1/2+x,1/2-y,-z
1/2-x,1/2+y,-z
1/2-x,1/2-y,-z
1/2+x,1/2+y,-z
1/2-x,1/2+y,z
1/2+x,1/2-y,z
loop_
_atom_site_type_symbol
_atom_site_label
_atom_site_fract_x
_atom_site_fract_y
_atom_site_fract_z
Si Si1 0.500000 0.942491 0.167754
Si Si2 0.210651 0.776713 0.167930
Si Si3 0.925554 0.443046 0.672138
Si Si4 0.780513 0.554927 0.173445
Si Si5 0.255510 0.360870 0.667070
Si Si6 0.823031 0.307746 0.332261
Si Si7 0.642513 0.894066 0.826331
O O1 0.536547 0.928434 0.252427
O O2 0.500000 0.000000 0.166164
O O3 0.500000 0.926576 0.000000
O O4 0.250000 0.750000 0.169334
O O5 0.217397 0.826897 0.244852
O O6 0.183576 0.742505 0.255433
O O7 0.199994 0.781825 0.000000
O O8 0.926159 0.433092 0.500000
O O9 0.921764 0.500000 0.689750
O O10 0.891975 0.417661 0.750007
O O11 0.777445 0.500000 0.214567
O O12 0.752937 0.589335 0.256790
O O13 0.821495 0.573862 0.201646
O O14 0.774672 0.559329 0.000000
O O15 0.266756 0.366282 0.500000
O O16 0.216563 0.333470 0.667578
O O17 0.834428 0.303025 0.500000
O O18 0.848791 0.342803 0.241976
O O19 0.637686 0.891141 0.000000
#
# Coordination Sequence:
#
# PCOD9483096 Si02
#       7
#     8  16  16  16  16  16  16
#     4   9  17  29  43  55  65  79 101 127 153 183
#     4   9  15  23  35  48  61  78  99 122 148 179
#     4  10  19  29  40  53  68  84 102 126 156 188
#     4   9  17  27  36  46  62  83 105 129 156 187
#     4   9  16  24  34  47  61  78 100 125 152 182
#     4   9  16  25  35  48  65  81  98 122 151 182
#     4  10  18  27  38  51  66  84 105 126 152 189
#
# _framework density 10.898049
#
# number of rings (size 3 to 8) (size 9 to 14) (size 15 to 20)
#    0.000    2.692    0.000    3.000    0.000    8.923 
#    0.000    0.000    0.000    0.000    0.000    0.000 
#    0.000    0.000    0.000    0.000    0.000    0.000 
#
# Total GULP energy -289670.547592 kJ/mol
# GULP energy per Si atom -5570.587454 kJ/mol
# Density = 1.087324 g / cm^3
# Si number density = 10.898049 Si / 1000 Ang^3
#
#
#
# Elastic Constant Matrix: (Units=GPa)
#
#
# Indices 1 2 3 4 5 6 
#
# 1 33.2843 38.3233 39.1243 0.0000 0.0000 0.0000
# 2 38.3233 80.1318 58.5346 0.0000 0.0000 0.0000
# 3 39.1243 58.5346 97.4153 0.0000 0.0000 0.0000
# 4 0.0000 0.0000 0.0000 18.5627 0.0000 0.0000
# 5 0.0000 0.0000 0.0000 0.0000 15.0527 0.0000
# 6 0.0000 0.0000 0.0000 0.0000 0.0000 12.7584
#
#
#
# Elastic Compliance Matrix: (Units=1/GPa)
#
#
# Indices 1 2 3 4 5 6 
#
# 1 0.078804 -0.025966 -0.016047 0.000000 0.000000 0.000000
# 2 -0.025966 0.030798 -0.008077 0.000000 0.000000 0.000000
# 3 -0.016047 -0.008077 0.021564 0.000000 0.000000 0.000000
# 4 0.000000 0.000000 0.000000 0.053871 0.000000 0.000000
# 5 0.000000 0.000000 0.000000 0.000000 0.066433 0.000000
# 6 0.000000 0.000000 0.000000 0.000000 0.000000 0.078380
#
#
# Mechanical properties :
#
#
# Convention : Reuss Voigt Hill
#
# Bulk Modulus (GPa) = 32.27385 53.64398 42.95891
# Shear Modulus (GPa) = 11.35433 14.26469 12.80951
#
# Velocity S-wave (km/s) = 3.23130 3.62183 3.43212
# Velocity P-wave (km/s) = 6.60306 8.17438 7.43037
#
# Compressibility (1/GPa) = 0.03098484
#
# Stress axis : x y z
#
# Youngs Moduli (GPa) = 12.68964 32.46944 46.37434
#
# Poissons Ratio (x) = 0.84311 0.74417
# Poissons Ratio (y) = 0.32950 0.37458
# Poissons Ratio (z) = 0.20363 0.26226
#
# Static dielectric constant tensor:
#      x y z
#    x 1.320850 0.000000 0.000000 
#    y 0.000000 1.339110 0.000000 
#    z 0.000000 0.000000 1.364940 
# 
# From -- ./inp_files/17016.got.cif
#   From: 2010.05.17/outbox.cif.g08.bks.cpg/sg65_9_cif.got.tgz:17016.got - 2010.06.03 17:01:31.
