data_PCOD9483328
_publ_section_title
;
Structure prediction by ZEFSAII (Michael W. Deem and Ramdas Pophale) SiO2 
 PCOD9483328
Probable space group: C M M M
;
_chemical_formula_sum "Si O2"
_cell_formula_units_Z 88
_cell_length_a 13.872826
_cell_length_b 18.131400
_cell_length_c 19.525385
_cell_angle_alpha 90.000000
_cell_angle_beta 90.000000
_cell_angle_gamma 90.000000
_cell_volume 4911.293452
_symmetry_space_group_name_H-M "C M M M"
_symmetry_group_IT_number 65
_symmetry_cell_setting 'orthorhombic'
loop_
_space_group_symop_operation_xyz
x,y,z
-x,-y,z
x,-y,-z
-x,y,-z
-x,-y,-z
x,y,-z
-x,y,z
x,-y,z
1/2+x,1/2+y,z
1/2-x,1/2-y,z
1/2+x,1/2-y,-z
1/2-x,1/2+y,-z
1/2-x,1/2-y,-z
1/2+x,1/2+y,-z
1/2-x,1/2+y,z
1/2+x,1/2-y,z
loop_
_atom_site_type_symbol
_atom_site_label
_atom_site_fract_x
_atom_site_fract_y
_atom_site_fract_z
Si Si1 0.611177 0.910579 0.923119
Si Si2 0.789400 0.588130 0.784788
Si Si3 0.617693 0.297429 0.578253
Si Si4 0.617533 0.000000 0.577400
Si Si5 0.615870 0.147914 0.654117
Si Si6 0.387876 0.414340 0.693646
O O1 0.500000 0.888917 0.908067
O O2 0.682210 0.890027 0.861585
O O3 0.611596 0.000000 0.925210
O O4 0.636113 0.884880 0.000000
O O5 0.814490 0.500000 0.776512
O O6 0.847804 0.638040 0.731128
O O7 0.679618 0.596168 0.759669
O O8 0.651790 0.306324 0.500000
O O9 0.500000 0.297237 0.575206
O O10 0.646930 0.219693 0.612060
O O11 0.643411 0.361781 0.631461
O O12 0.647540 0.073563 0.615878
O O13 0.500000 0.000000 0.576189
O O14 0.652254 0.000000 0.500000
O O15 0.500000 0.149111 0.654998
O O16 0.500000 0.399035 0.708764
O O17 0.379617 0.500000 0.672885
#
# Coordination Sequence:
#
# PCOD9483328 Si02
#       6
#    16  16  16   8  16  16
#     4   8  14  25  44  73 107 137 159 184 227 285
#     4  10  18  29  47  70  99 129 163 198 236 286
#     4   9  18  33  51  69  92 124 163 209 257 300
#     4   9  16  26  40  60  94 134 158 177 216 278
#     4  10  18  28  45  71  99 127 156 187 234 297
#     4   9  19  35  52  67  86 119 168 221 263 290
#
# _framework density 17.917887
#
# number of rings (size 3 to 8) (size 9 to 14) (size 15 to 20)
#    0.000    2.818    0.909    1.636    0.000    4.000 
#    0.000    4.545    0.000    0.545    0.000    6.364 
#    0.000    4.364    0.000    0.182    0.000    0.000 
#
# Total GULP energy -245360.274818 kJ/mol
# GULP energy per Si atom -5576.369882 kJ/mol
# Density = 1.787711 g / cm^3
# Si number density = 17.917887 Si / 1000 Ang^3
#
#
#
# Elastic Constant Matrix: (Units=GPa)
#
#
# Indices 1 2 3 4 5 6 
#
# 1 76.0659 41.3807 60.6956 0.0000 0.0000 0.0000
# 2 41.3807 60.9876 57.7334 0.0000 0.0000 0.0000
# 3 60.6956 57.7334 177.7894 0.0000 0.0000 0.0000
# 4 0.0000 0.0000 0.0000 18.5761 0.0000 0.0000
# 5 0.0000 0.0000 0.0000 0.0000 18.9635 0.0000
# 6 0.0000 0.0000 0.0000 0.0000 0.0000 17.8585
#
#
#
# Elastic Compliance Matrix: (Units=1/GPa)
#
#
# Indices 1 2 3 4 5 6 
#
# 1 0.022611 -0.011600 -0.003952 0.000000 0.000000 0.000000
# 2 -0.011600 0.029626 -0.005660 0.000000 0.000000 0.000000
# 3 -0.003952 -0.005660 0.008812 0.000000 0.000000 0.000000
# 4 0.000000 0.000000 0.000000 0.053833 0.000000 0.000000
# 5 0.000000 0.000000 0.000000 0.000000 0.052733 0.000000
# 6 0.000000 0.000000 0.000000 0.000000 0.000000 0.055996
#
#
# Mechanical properties :
#
#
# Convention : Reuss Voigt Hill
#
# Bulk Modulus (GPa) = 53.69639 70.49582 62.09610
# Shear Modulus (GPa) = 18.36595 21.41516 19.89055
#
# Velocity S-wave (km/s) = 3.20505 3.46089 3.33542
# Velocity P-wave (km/s) = 6.61283 7.44309 7.04021
#
# Compressibility (1/GPa) = 0.01862323
#
# Stress axis : x y z
#
# Youngs Moduli (GPa) = 44.22666 33.75424 113.48357
#
# Poissons Ratio (x) = 0.39156 0.44850
# Poissons Ratio (y) = 0.51305 0.64233
# Poissons Ratio (z) = 0.17479 0.19105
#
# Static dielectric constant tensor:
#      x y z
#    x 1.664770 0.000000 0.000000 
#    y 0.000000 1.611530 0.000000 
#    z 0.000000 0.000000 1.599430 
# 
# From -- ./inp_files/52983.got.cif
#   From: 2010.05.17/outbox.cif.g08.bks.cpg/sg65_27_cif.got.tgz:52983.got - 2010.06.03 17:01:31.
