data_PCOD9483774
_publ_section_title
;
Structure prediction by ZEFSAII (Michael W. Deem and Ramdas Pophale) SiO2 
 PCOD9483774
Probable space group: C M M M
;
_chemical_formula_sum "Si O2"
_cell_formula_units_Z 104
_cell_length_a 7.918670
_cell_length_b 29.942470
_cell_length_c 25.646559
_cell_angle_alpha 90.000000
_cell_angle_beta 90.000000
_cell_angle_gamma 90.000000
_cell_volume 6080.915546
_symmetry_space_group_name_H-M "C M M M"
_symmetry_group_IT_number 65
_symmetry_cell_setting 'orthorhombic'
loop_
_space_group_symop_operation_xyz
x,y,z
-x,-y,z
x,-y,-z
-x,y,-z
-x,-y,-z
x,y,-z
-x,y,z
x,-y,z
1/2+x,1/2+y,z
1/2-x,1/2-y,z
1/2+x,1/2-y,-z
1/2-x,1/2+y,-z
1/2-x,1/2-y,-z
1/2+x,1/2+y,-z
1/2-x,1/2+y,z
1/2+x,1/2-y,z
loop_
_atom_site_type_symbol
_atom_site_label
_atom_site_fract_x
_atom_site_fract_y
_atom_site_fract_z
Si Si1 0.500000 0.945922 0.059336
Si Si2 0.300697 0.553515 0.136663
Si Si3 0.799996 0.700865 0.601690
Si Si4 0.294017 0.393865 0.241533
Si Si5 0.299219 0.299118 0.723391
Si Si6 0.795613 0.607744 0.557794
Si Si7 0.296843 0.449318 0.342048
O O1 0.330391 0.933892 0.091163
O O2 0.500000 0.000000 0.057110
O O3 0.500000 0.929131 0.000000
O O4 0.500000 0.562198 0.124972
O O5 0.286231 0.500000 0.145900
O O6 0.250844 0.580147 0.188860
O O7 0.750000 0.750000 0.582523
O O8 0.753212 0.697329 0.662742
O O9 0.731825 0.657658 0.571727
O O10 0.000000 0.698839 0.598240
O O11 0.500000 0.393494 0.243054
O O12 0.234424 0.342631 0.246141
O O13 0.234742 0.420490 0.292824
O O14 0.500000 0.300933 0.724162
O O15 0.250000 0.250000 0.742844
O O16 0.737859 0.594493 0.500000
O O17 0.744559 0.574878 0.603978
O O18 0.000000 0.608911 0.557153
O O19 0.500000 0.450963 0.337616
O O20 0.232583 0.500000 0.340551
#
# Coordination Sequence:
#
# PCOD9483774 Si02
#       7
#     8  16  16  16  16  16  16
#     4   9  18  32  48  74 112 148 185 221 249 291
#     4   9  17  31  50  74 106 144 180 216 258 297
#     4  10  19  32  50  70  91 117 153 193 242 301
#     4   9  17  31  51  72  99 131 160 201 251 300
#     4  10  18  30  48  70  98 128 156 192 245 302
#     4  10  22  38  51  66  92 122 155 198 248 303
#     4  10  20  35  54  73  92 119 159 203 248 297
#
# _framework density 17.102687
#
# number of rings (size 3 to 8) (size 9 to 14) (size 15 to 20)
#    0.000    2.385    1.538    2.308    0.000    4.000 
#    4.154    3.077    0.000    0.000    0.000    0.000 
#    0.000    0.615    0.308    0.000    0.000    0.000 
#
# Total GULP energy -289954.597139 kJ/mol
# GULP energy per Si atom -5576.049945 kJ/mol
# Density = 1.706376 g / cm^3
# Si number density = 17.102687 Si / 1000 Ang^3
#
#
#
# Elastic Constant Matrix: (Units=GPa)
#
#
# Indices 1 2 3 4 5 6 
#
# 1 37.8432 20.9046 30.0085 0.0000 0.0000 0.0000
# 2 20.9046 114.1456 64.4823 0.0000 0.0000 0.0000
# 3 30.0085 64.4823 127.8339 0.0000 0.0000 0.0000
# 4 0.0000 0.0000 0.0000 15.5729 0.0000 0.0000
# 5 0.0000 0.0000 0.0000 0.0000 6.6749 0.0000
# 6 0.0000 0.0000 0.0000 0.0000 0.0000 36.9630
#
#
#
# Elastic Compliance Matrix: (Units=1/GPa)
#
#
# Indices 1 2 3 4 5 6 
#
# 1 0.032904 -0.002325 -0.006551 0.000000 0.000000 0.000000
# 2 -0.002325 0.012416 -0.005717 0.000000 0.000000 0.000000
# 3 -0.006551 -0.005717 0.012244 0.000000 0.000000 0.000000
# 4 0.000000 0.000000 0.000000 0.064214 0.000000 0.000000
# 5 0.000000 0.000000 0.000000 0.000000 0.149815 0.000000
# 6 0.000000 0.000000 0.000000 0.000000 0.000000 0.027054
#
#
# Mechanical properties :
#
#
# Convention : Reuss Voigt Hill
#
# Bulk Modulus (GPa) = 35.23904 56.73483 45.98693
# Shear Modulus (GPa) = 14.82383 22.80398 18.81390
#
# Velocity S-wave (km/s) = 2.94726 3.65548 3.32031
# Velocity P-wave (km/s) = 5.67723 7.14575 6.45340
#
# Compressibility (1/GPa) = 0.02837762
#
# Stress axis : x y z
#
# Youngs Moduli (GPa) = 30.39124 80.53911 81.66969
#
# Poissons Ratio (x) = 0.18727 0.53504
# Poissons Ratio (y) = 0.07067 0.46693
# Poissons Ratio (z) = 0.19910 0.46046
#
# Static dielectric constant tensor:
#      x y z
#    x 1.495630 0.000000 0.000000 
#    y 0.000000 1.606240 0.000000 
#    z 0.000000 0.000000 1.557980 
# 
# From -- ./inp_files/68271.got.cif
#   From: 2010.05.17/outbox.cif.g08.bks.cpg/sg65_35_cif.got.tgz:68271.got - 2010.06.03 17:01:31.
