data_PCOD9483233
_publ_section_title
;
Structure prediction by ZEFSAII (Michael W. Deem and Ramdas Pophale) SiO2 
 PCOD9483233
Probable space group: C M M M
;
_chemical_formula_sum "Si O2"
_cell_formula_units_Z 72
_cell_length_a 24.592057
_cell_length_b 14.482426
_cell_length_c 8.437181
_cell_angle_alpha 90.000000
_cell_angle_beta 90.000000
_cell_angle_gamma 90.000000
_cell_volume 3004.924335
_symmetry_space_group_name_H-M "C M M M"
_symmetry_group_IT_number 65
_symmetry_cell_setting 'orthorhombic'
loop_
_space_group_symop_operation_xyz
x,y,z
-x,-y,z
x,-y,-z
-x,y,-z
-x,-y,-z
x,y,-z
-x,y,z
x,-y,z
1/2+x,1/2+y,z
1/2-x,1/2-y,z
1/2+x,1/2-y,-z
1/2-x,1/2+y,-z
1/2-x,1/2-y,-z
1/2+x,1/2+y,-z
1/2-x,1/2+y,z
1/2+x,1/2-y,z
loop_
_atom_site_type_symbol
_atom_site_label
_atom_site_fract_x
_atom_site_fract_y
_atom_site_fract_z
Si Si1 0.101767 0.327398 0.500000
Si Si2 0.939912 0.864947 0.500000
Si Si3 0.799659 0.181457 0.500000
Si Si4 0.756403 0.890730 0.176648
Si Si5 0.368487 0.153863 0.827178
Si Si6 0.933914 0.846629 0.168663
O O1 0.055933 0.248227 0.500000
O O2 0.150076 0.250726 0.500000
O O3 0.108241 0.384527 0.661337
O O4 0.916158 0.893559 0.331742
O O5 0.000000 0.902290 0.500000
O O6 0.750000 0.250000 0.500000
O O7 0.791994 0.128709 0.667275
O O8 0.697098 0.841524 0.189112
O O9 0.744715 0.000000 0.175913
O O10 0.779169 0.866821 0.000000
O O11 0.399945 0.251625 0.834318
O O12 0.378356 0.109354 0.000000
O O13 0.000000 0.830559 0.178477
O O14 0.924370 0.893653 0.000000
#
# Coordination Sequence:
#
# PCOD9483233 Si02
#       6
#     8   8   8  16  16  16
#     4  10  18  28  42  68  92 112 147 184 228 269
#     4   8  14  24  38  56  84 116 140 169 213 268
#     4  12  21  32  49  72  95 120 149 197 239 270
#     4  10  21  35  49  65  90 126 161 190 226 276
#     4   9  16  27  43  61  85 117 152 188 224 264
#     4   8  13  21  35  56  80 108 144 184 223 258
#
# _framework density 23.960668999999999
#
# number of rings (size 3 to 8) (size 9 to 14) (size 15 to 20)
#    0.000    2.667    2.222    0.333    0.000    1.333 
#    0.000    0.000    0.000    0.667    0.000    4.667 
#    0.000   12.444    0.000    3.111    0.000    0.000 
#
# Total GULP energy -200422.837331 kJ/mol
# GULP energy per Si atom -5567.301037 kJ/mol
# Density = 2.390613 g / cm^3
# Si number density = 23.960669 Si / 1000 Ang^3
#
#
#
# Elastic Constant Matrix: (Units=GPa)
#
#
# Indices 1 2 3 4 5 6 
#
# 1 113.4876 34.3468 14.3563 0.0000 0.0000 0.0000
# 2 34.3468 71.3691 36.2563 0.0000 0.0000 0.0000
# 3 14.3563 36.2563 311.0532 0.0000 0.0000 0.0000
# 4 0.0000 0.0000 0.0000 16.0732 0.0000 0.0000
# 5 0.0000 0.0000 0.0000 0.0000 16.3564 0.0000
# 6 0.0000 0.0000 0.0000 0.0000 0.0000 -23.0438
#
#
#
# Elastic Compliance Matrix: (Units=1/GPa)
#
#
# Indices 1 2 3 4 5 6 
#
# 1 0.010317 -0.005021 0.000109 0.000000 0.000000 0.000000
# 2 -0.005021 0.017337 -0.001789 0.000000 0.000000 0.000000
# 3 0.000109 -0.001789 0.003418 0.000000 0.000000 0.000000
# 4 0.000000 0.000000 0.000000 0.062215 0.000000 0.000000
# 5 0.000000 0.000000 0.000000 0.000000 0.061138 0.000000
# 6 0.000000 0.000000 0.000000 0.000000 0.000000 -0.043396
#
#
# Mechanical properties :
#
#
# Convention : Reuss Voigt Hill
#
# Bulk Modulus (GPa) = 56.58970 73.98097 65.28533
# Shear Modulus (GPa) = 38.36660 29.27387 33.82024
#
# Velocity S-wave (km/s) = 4.00588 3.49914 3.76106
# Velocity P-wave (km/s) = 6.71306 6.87520 6.79461
#
# Compressibility (1/GPa) = 0.01767106
#
# Stress axis : x y z
#
# Youngs Moduli (GPa) = 96.92530 57.68102 292.53595
#
# Poissons Ratio (x) = 0.28959 -0.03189
# Poissons Ratio (y) = 0.48662 0.52336
# Poissons Ratio (z) = -0.01057 0.10319
#
# Static dielectric constant tensor:
#      x y z
#    x 2.138980 0.000000 0.000000 
#    y 0.000000 1.960870 0.000000 
#    z 0.000000 0.000000 2.072860 
# 
# From -- ./inp_files/18042.got.cif
#   From: 2010.05.17/outbox.cif.g08.bks.cpg/sg65_10_cif.got.tgz:18042.got - 2010.06.03 17:01:31.
