data_PCOD9483716
_publ_section_title
;
Structure prediction by ZEFSAII (Michael W. Deem and Ramdas Pophale) SiO2 
 PCOD9483716
Probable space group: C M M M
;
_chemical_formula_sum "Si O2"
_cell_formula_units_Z 96
_cell_length_a 16.332519
_cell_length_b 24.790253
_cell_length_c 13.929987
_cell_angle_alpha 90.000000
_cell_angle_beta 90.000000
_cell_angle_gamma 90.000000
_cell_volume 5640.074521
_symmetry_space_group_name_H-M "C M M M"
_symmetry_group_IT_number 65
_symmetry_cell_setting 'orthorhombic'
loop_
_space_group_symop_operation_xyz
x,y,z
-x,-y,z
x,-y,-z
-x,y,-z
-x,-y,-z
x,y,-z
-x,y,z
x,-y,z
1/2+x,1/2+y,z
1/2-x,1/2-y,z
1/2+x,1/2-y,-z
1/2-x,1/2+y,-z
1/2-x,1/2-y,-z
1/2+x,1/2+y,-z
1/2-x,1/2+y,z
1/2+x,1/2-y,z
loop_
_atom_site_type_symbol
_atom_site_label
_atom_site_fract_x
_atom_site_fract_y
_atom_site_fract_z
Si Si1 0.094489 0.242252 0.614201
Si Si2 0.596097 0.332819 0.891039
Si Si3 0.500000 0.127431 0.889968
Si Si4 0.500000 0.063671 0.299984
Si Si5 0.145390 0.367076 0.386945
Si Si6 0.348178 0.208411 0.110150
Si Si7 0.285571 0.332379 0.260972
O O1 0.102791 0.231414 0.500000
O O2 0.110910 0.305973 0.627801
O O3 0.161526 0.208501 0.673042
O O4 0.000000 0.230488 0.642701
O O5 0.500000 0.340962 0.878247
O O6 0.615077 0.268509 0.880724
O O7 0.649729 0.360683 0.809484
O O8 0.618217 0.347952 0.000000
O O9 0.500000 0.081172 0.811305
O O10 0.578828 0.165808 0.876450
O O11 0.500000 0.108276 0.000000
O O12 0.420903 0.091306 0.347909
O O13 0.500000 0.000000 0.312381
O O14 0.157509 0.374209 0.500000
O O15 0.230166 0.368771 0.329435
O O16 0.278460 0.195272 0.186838
O O17 0.317558 0.203245 0.000000
#
# Coordination Sequence:
#
# PCOD9483716 Si02
#       7
#    16  16   8   8  16  16  16
#     4  10  20  33  48  70 103 143 180 213 258 319
#     4  10  19  29  42  68 107 144 180 214 249 307
#     4  10  20  36  57  76 102 137 175 217 267 315
#     4  12  25  41  62  81  99 138 187 225 274 319
#     4  11  22  37  53  72 102 136 179 230 268 309
#     4  10  18  30  47  68  98 139 181 216 254 310
#     4  12  21  28  48  74 102 137 180 220 267 312
#
# _framework density 17.021052999999998
#
# number of rings (size 3 to 8) (size 9 to 14) (size 15 to 20)
#    0.000    1.333    3.333    4.750    0.000    3.500 
#    0.000    0.000    0.000    0.000    0.000    0.000 
#    0.000    2.667    0.000   10.000    0.000    0.000 
#
# Total GULP energy -268162.112094 kJ/mol
# GULP energy per Si atom -5586.710669 kJ/mol
# Density = 1.698231 g / cm^3
# Si number density = 17.021053 Si / 1000 Ang^3
#
#
#
# Elastic Constant Matrix: (Units=GPa)
#
#
# Indices 1 2 3 4 5 6 
#
# 1 131.0763 40.6835 78.8194 0.0000 0.0000 0.0000
# 2 40.6835 50.9273 40.4827 0.0000 0.0000 0.0000
# 3 78.8194 40.4827 132.0330 0.0000 0.0000 0.0000
# 4 0.0000 0.0000 0.0000 10.2047 0.0000 0.0000
# 5 0.0000 0.0000 0.0000 0.0000 40.2767 0.0000
# 6 0.0000 0.0000 0.0000 0.0000 0.0000 7.1707
#
#
#
# Elastic Compliance Matrix: (Units=1/GPa)
#
#
# Indices 1 2 3 4 5 6 
#
# 1 0.012997 -0.005574 -0.006050 0.000000 0.000000 0.000000
# 2 -0.005574 0.028354 -0.005366 0.000000 0.000000 0.000000
# 3 -0.006050 -0.005366 0.012831 0.000000 0.000000 0.000000
# 4 0.000000 0.000000 0.000000 0.097994 0.000000 0.000000
# 5 0.000000 0.000000 0.000000 0.000000 0.024828 0.000000
# 6 0.000000 0.000000 0.000000 0.000000 0.000000 0.139456
#
#
# Mechanical properties :
#
#
# Convention : Reuss Voigt Hill
#
# Bulk Modulus (GPa) = 49.49950 70.44529 59.97240
# Shear Modulus (GPa) = 13.99878 21.80050 17.89964
#
# Velocity S-wave (km/s) = 2.87093 3.58270 3.24638
# Velocity P-wave (km/s) = 6.33515 7.65450 7.02586
#
# Compressibility (1/GPa) = 0.02020223
#
# Stress axis : x y z
#
# Youngs Moduli (GPa) = 76.94075 35.26818 77.93720
#
# Poissons Ratio (x) = 0.19657 0.47151
# Poissons Ratio (y) = 0.42884 0.41824
# Poissons Ratio (z) = 0.46548 0.18926
#
# Static dielectric constant tensor:
#      x y z
#    x 1.608380 0.000000 0.000000 
#    y 0.000000 1.518640 0.000000 
#    z 0.000000 0.000000 1.638390 
# 
# From -- ./inp_files/41010.got.cif
#   From: 2010.05.17/outbox.cif.g08.bks.cpg/sg65_21_cif.got.tgz:41010.got - 2010.06.03 17:01:31.
