data_PCOD9483920
_publ_section_title
;
Structure prediction by ZEFSAII (Michael W. Deem and Ramdas Pophale) SiO2 
 PCOD9483920
Probable space group: C M M M
;
_chemical_formula_sum "Si O2"
_cell_formula_units_Z 104
_cell_length_a 29.163511
_cell_length_b 9.742580
_cell_length_c 21.834665
_cell_angle_alpha 90.000000
_cell_angle_beta 90.000000
_cell_angle_gamma 90.000000
_cell_volume 6203.836182
_symmetry_space_group_name_H-M "C M M M"
_symmetry_group_IT_number 65
_symmetry_cell_setting 'orthorhombic'
loop_
_space_group_symop_operation_xyz
x,y,z
-x,-y,z
x,-y,-z
-x,y,-z
-x,-y,-z
x,y,-z
-x,y,z
x,-y,z
1/2+x,1/2+y,z
1/2-x,1/2-y,z
1/2+x,1/2-y,-z
1/2-x,1/2+y,-z
1/2-x,1/2-y,-z
1/2+x,1/2+y,-z
1/2-x,1/2+y,z
1/2+x,1/2-y,z
loop_
_atom_site_type_symbol
_atom_site_label
_atom_site_fract_x
_atom_site_fract_y
_atom_site_fract_z
Si Si1 0.885428 0.332553 0.382463
Si Si2 0.053909 0.839686 0.292206
Si Si3 0.203146 0.835386 0.426133
Si Si4 0.448099 0.164963 0.500000
Si Si5 0.552691 0.660644 0.145681
Si Si6 0.805557 0.000000 0.925943
Si Si7 0.797802 0.500000 0.074284
Si Si8 0.365072 0.759548 0.926453
O O1 0.879182 0.500000 0.378586
O O2 0.912512 0.266423 0.325380
O O3 0.838418 0.248773 0.394585
O O4 0.918704 0.300991 0.440158
O O5 0.058740 0.828661 0.218754
O O6 0.000000 0.813127 0.306906
O O7 0.063471 0.000000 0.308820
O O8 0.196301 0.829677 0.500000
O O9 0.250000 0.750000 0.413164
O O10 0.205317 0.000000 0.410119
O O11 0.500000 0.221685 0.500000
O O12 0.451932 0.000000 0.500000
O O13 0.500000 0.693066 0.131477
O O14 0.560360 0.500000 0.128919
O O15 0.587447 0.754914 0.108783
O O16 0.753853 0.000000 0.901812
O O17 0.836273 0.126831 0.909026
O O18 0.801826 0.000000 0.000000
O O19 0.829294 0.625347 0.091640
O O20 0.794307 0.500000 0.000000
O O21 0.372506 0.764026 0.000000
#
# Coordination Sequence:
#
# PCOD9483920 Si02
#       8
#    16  16  16   8  16   8   8  16
#     4  11  20  33  54  80 109 138 173 214 265 315
#     4   9  19  36  55  74 100 137 178 217 259 312
#     4  10  20  34  54  80 111 143 180 217 257 311
#     4   9  18  30  46  73 110 139 160 203 262 311
#     4   9  18  34  54  75 100 135 179 221 260 306
#     4   9  16  28  49  75 101 133 172 207 247 312
#     4   9  18  30  45  71 109 139 162 205 263 316
#     4  10  18  30  50  78 106 134 170 212 264 317
#
# _framework density 16.763819999999999
#
# number of rings (size 3 to 8) (size 9 to 14) (size 15 to 20)
#    0.000    2.385    1.538    2.769    0.000    3.692 
#    1.385    1.154    0.000    5.077    0.000    0.000 
#    0.000    0.000    0.000    0.000    0.000    0.000 
#
# Total GULP energy -289497.852871 kJ/mol
# GULP energy per Si atom -5567.266401 kJ/mol
# Density = 1.672567 g / cm^3
# Si number density = 16.763820 Si / 1000 Ang^3
#
#
#
# Elastic Constant Matrix: (Units=GPa)
#
#
# Indices 1 2 3 4 5 6 
#
# 1 133.5780 48.6757 33.8794 0.0000 0.0000 0.0000
# 2 48.6757 98.1594 14.5662 0.0000 0.0000 0.0000
# 3 33.8794 14.5662 22.8424 0.0000 0.0000 0.0000
# 4 0.0000 0.0000 0.0000 18.9778 0.0000 0.0000
# 5 0.0000 0.0000 0.0000 0.0000 -11.8887 0.0000
# 6 0.0000 0.0000 0.0000 0.0000 0.0000 57.0932
#
#
#
# Elastic Compliance Matrix: (Units=1/GPa)
#
#
# Indices 1 2 3 4 5 6 
#
# 1 0.013319 -0.004057 -0.017167 0.000000 0.000000 0.000000
# 2 -0.004057 0.012488 -0.001946 0.000000 0.000000 0.000000
# 3 -0.017167 -0.001946 0.070481 0.000000 0.000000 0.000000
# 4 0.000000 0.000000 0.000000 0.052693 0.000000 0.000000
# 5 0.000000 0.000000 0.000000 0.000000 -0.084113 0.000000
# 6 0.000000 0.000000 0.000000 0.000000 0.000000 0.017515
#
#
# Mechanical properties :
#
#
# Convention : Reuss Voigt Hill
#
# Bulk Modulus (GPa) = 20.02097 49.86918 34.94507
# Shear Modulus (GPa) = 34.39433 23.33367 28.86400
#
# Velocity S-wave (km/s) = 4.53448 3.73487 4.15396
# Velocity P-wave (km/s) = 6.27569 6.95785 6.62556
#
# Compressibility (1/GPa) = 0.04994763
#
# Stress axis : x y z
#
# Youngs Moduli (GPa) = 75.08227 80.07601 14.18820
#
# Poissons Ratio (x) = 0.32487 0.24357
# Poissons Ratio (y) = 0.30461 0.02761
# Poissons Ratio (z) = 1.28894 0.15584
#
# Static dielectric constant tensor:
#      x y z
#    x 1.557640 0.000000 0.000000 
#    y 0.000000 1.544010 0.000000 
#    z 0.000000 0.000000 1.551450 
# 
# From -- ./inp_files/71873.got.cif
#   From: 2010.05.17/outbox.cif.g08.bks.cpg/sg65_36_cif.got.tgz:71873.got - 2010.06.03 17:01:31.
