data_PCOD9483763
_publ_section_title
;
Structure prediction by ZEFSAII (Michael W. Deem and Ramdas Pophale) SiO2 
 PCOD9483763
Probable space group: C M M M
;
_chemical_formula_sum "Si O2"
_cell_formula_units_Z 80
_cell_length_a 8.809729
_cell_length_b 25.594949
_cell_length_c 20.608428
_cell_angle_alpha 90.000000
_cell_angle_beta 90.000000
_cell_angle_gamma 90.000000
_cell_volume 4646.882412
_symmetry_space_group_name_H-M "C M M M"
_symmetry_group_IT_number 65
_symmetry_cell_setting 'orthorhombic'
loop_
_space_group_symop_operation_xyz
x,y,z
-x,-y,z
x,-y,-z
-x,y,-z
-x,-y,-z
x,y,-z
-x,y,z
x,-y,z
1/2+x,1/2+y,z
1/2-x,1/2-y,z
1/2+x,1/2-y,-z
1/2-x,1/2+y,-z
1/2-x,1/2-y,-z
1/2+x,1/2+y,-z
1/2-x,1/2+y,z
1/2+x,1/2-y,z
loop_
_atom_site_type_symbol
_atom_site_label
_atom_site_fract_x
_atom_site_fract_y
_atom_site_fract_z
Si Si1 0.317763 0.890981 0.242840
Si Si2 0.317669 0.308891 0.000000
Si Si3 0.683233 0.807744 0.500000
Si Si4 0.825297 0.000000 0.759787
Si Si5 0.817008 0.609619 0.392442
Si Si6 0.316978 0.808149 0.866179
Si Si7 0.674935 0.500000 0.397896
O O1 0.500000 0.894185 0.243665
O O2 0.268015 0.882505 0.317561
O O3 0.275424 0.844493 0.194544
O O4 0.253946 0.946505 0.219497
O O5 0.250000 0.250000 0.000000
O O6 0.252893 0.331221 0.932785
O O7 0.500000 0.307800 0.000000
O O8 0.500000 0.804171 0.500000
O O9 0.750000 0.750000 0.500000
O O10 0.729606 0.842314 0.437692
O O11 0.817681 0.000000 0.680965
O O12 0.000000 0.000000 0.779236
O O13 0.753948 0.554112 0.417304
O O14 0.000000 0.606456 0.393730
O O15 0.500000 0.805082 0.871924
O O16 0.250000 0.750000 0.857473
O O17 0.500000 0.500000 0.417724
#
# Coordination Sequence:
#
# PCOD9483763 Si02
#       7
#    16   8   8   8  16  16   8
#     4   9  18  32  51  72  97 129 164 198 238 288
#     4  10  18  30  48  69  96 129 160 196 240 286
#     4  10  22  37  52  69  95 132 170 202 241 290
#     4   9  17  29  48  73 100 126 157 198 244 287
#     4   9  18  34  52  71  96 129 164 199 241 292
#     4  10  19  31  48  72  99 128 161 199 240 285
#     4   9  17  30  50  77  99 119 153 202 251 288
#
# _framework density 17.215843
#
# number of rings (size 3 to 8) (size 9 to 14) (size 15 to 20)
#    0.000    2.600    0.000    3.300    0.000    6.000 
#    0.000    2.000    0.000    0.600    0.000    4.200 
#    0.000    0.000    0.000    0.000    0.000    0.000 
#
# Total GULP energy -222985.459629 kJ/mol
# GULP energy per Si atom -5574.636491 kJ/mol
# Density = 1.717666 g / cm^3
# Si number density = 17.215843 Si / 1000 Ang^3
#
#
#
# Elastic Constant Matrix: (Units=GPa)
#
#
# Indices 1 2 3 4 5 6 
#
# 1 42.7899 40.8557 37.5995 0.0000 0.0000 0.0000
# 2 40.8557 146.4090 79.6528 0.0000 0.0000 0.0000
# 3 37.5995 79.6528 110.4415 0.0000 0.0000 0.0000
# 4 0.0000 0.0000 0.0000 -16.2329 0.0000 0.0000
# 5 0.0000 0.0000 0.0000 0.0000 14.9007 0.0000
# 6 0.0000 0.0000 0.0000 0.0000 0.0000 30.8153
#
#
#
# Elastic Compliance Matrix: (Units=1/GPa)
#
#
# Indices 1 2 3 4 5 6 
#
# 1 0.035884 -0.005541 -0.008220 0.000000 0.000000 0.000000
# 2 -0.005541 0.012097 -0.006838 0.000000 0.000000 0.000000
# 3 -0.008220 -0.006838 0.016785 0.000000 0.000000 0.000000
# 4 0.000000 0.000000 0.000000 -0.061603 0.000000 0.000000
# 5 0.000000 0.000000 0.000000 0.000000 0.067111 0.000000
# 6 0.000000 0.000000 0.000000 0.000000 0.000000 0.032451
#
#
# Mechanical properties :
#
#
# Convention : Reuss Voigt Hill
#
# Bulk Modulus (GPa) = 42.43278 68.42848 55.43063
# Shear Modulus (GPa) = 32.94295 15.33213 24.13754
#
# Velocity S-wave (km/s) = 4.37913 2.98750 3.74846
# Velocity P-wave (km/s) = 7.09014 7.19263 7.14157
#
# Compressibility (1/GPa) = 0.02356668
#
# Stress axis : x y z
#
# Youngs Moduli (GPa) = 27.86773 82.66826 59.57858
#
# Poissons Ratio (x) = 0.45810 0.48973
# Poissons Ratio (y) = 0.15443 0.40738
# Poissons Ratio (z) = 0.22907 0.56526
#
# Static dielectric constant tensor:
#      x y z
#    x 1.579970 0.000000 0.000000 
#    y 0.000000 1.556300 0.000000 
#    z 0.000000 0.000000 1.620910 
# 
# From -- ./inp_files/59720.got.cif
#   From: 2010.05.17/outbox.cif.g08.bks.cpg/sg65_30_cif.got.tgz:59720.got - 2010.06.03 17:01:31.
