data_PCOD9483542
_publ_section_title
;
Structure prediction by ZEFSAII (Michael W. Deem and Ramdas Pophale) SiO2 
 PCOD9483542
Probable space group: C M M M
;
_chemical_formula_sum "Si O2"
_cell_formula_units_Z 64
_cell_length_a 7.327022
_cell_length_b 34.455426
_cell_length_c 11.392614
_cell_angle_alpha 90.000000
_cell_angle_beta 90.000000
_cell_angle_gamma 90.000000
_cell_volume 2876.129936
_symmetry_space_group_name_H-M "C M M M"
_symmetry_group_IT_number 65
_symmetry_cell_setting 'orthorhombic'
loop_
_space_group_symop_operation_xyz
x,y,z
-x,-y,z
x,-y,-z
-x,y,-z
-x,-y,-z
x,y,-z
-x,y,z
x,-y,z
1/2+x,1/2+y,z
1/2-x,1/2-y,z
1/2+x,1/2-y,-z
1/2-x,1/2+y,-z
1/2-x,1/2-y,-z
1/2+x,1/2+y,-z
1/2-x,1/2+y,z
1/2+x,1/2-y,z
loop_
_atom_site_type_symbol
_atom_site_label
_atom_site_fract_x
_atom_site_fract_y
_atom_site_fract_z
Si Si1 0.708547 0.577646 0.755888
Si Si2 0.286842 0.500000 0.861479
Si Si3 0.224094 0.833443 0.755850
Si Si4 0.793629 0.178190 0.500000
Si Si5 0.281054 0.087282 0.500000
Si Si6 0.783543 0.204436 0.000000
O O1 0.500000 0.581336 0.799158
O O2 0.793533 0.540847 0.819542
O O3 0.784270 0.621408 0.763516
O O4 0.714761 0.567881 0.618427
O O5 0.500000 0.500000 0.819740
O O6 0.286567 0.500000 0.000000
O O7 0.284965 0.814327 0.631066
O O8 0.283198 0.813015 0.876150
O O9 0.000000 0.833187 0.749625
O O10 0.795871 0.131108 0.500000
O O11 0.000000 0.193923 0.500000
O O12 0.500000 0.089439 0.500000
O O13 0.750000 0.250000 0.000000
O O14 0.000000 0.196753 0.000000
#
# Coordination Sequence:
#
# PCOD9483542 Si02
#       6
#    16   8  16   8   8   8
#     4   9  17  31  50  73  99 128 159 201 251 294
#     4   9  18  29  47  76 102 121 160 217 254 279
#     4   8  15  28  51  73  95 126 162 194 237 294
#     4   8  14  30  52  76  97 123 159 203 249 296
#     4  10  18  29  47  71  98 129 169 207 238 285
#     4  10  20  34  50  73  99 129 161 198 238 290
#
# _framework density 22.252123999999998
#
# number of rings (size 3 to 8) (size 9 to 14) (size 15 to 20)
#    0.000    3.125    0.000    2.625    1.750    0.500 
#    0.000    8.750    0.000    1.500    0.000    0.000 
#    0.000    0.000    0.000    0.000    0.000    0.000 
#
# Total GULP energy -178251.268302 kJ/mol
# GULP energy per Si atom -5570.352134 kJ/mol
# Density = 2.220148 g / cm^3
# Si number density = 22.252124 Si / 1000 Ang^3
#
#
#
# Elastic Constant Matrix: (Units=GPa)
#
#
# Indices 1 2 3 4 5 6 
#
# 1 94.6193 -4.4362 -2.3299 0.0000 0.0000 0.0000
# 2 -4.4362 91.2773 86.1228 0.0000 0.0000 0.0000
# 3 -2.3299 86.1228 197.6450 0.0000 0.0000 0.0000
# 4 0.0000 0.0000 0.0000 -163.6181 0.0000 0.0000
# 5 0.0000 0.0000 0.0000 0.0000 -38.1919 0.0000
# 6 0.0000 0.0000 0.0000 0.0000 0.0000 -27.4236
#
#
#
# Elastic Compliance Matrix: (Units=1/GPa)
#
#
# Indices 1 2 3 4 5 6 
#
# 1 0.010596 0.000674 -0.000169 0.000000 0.000000 0.000000
# 2 0.000674 0.018648 -0.008118 0.000000 0.000000 0.000000
# 3 -0.000169 -0.008118 0.008595 0.000000 0.000000 0.000000
# 4 0.000000 0.000000 0.000000 -0.006112 0.000000 0.000000
# 5 0.000000 0.000000 0.000000 0.000000 -0.026184 0.000000
# 6 0.000000 0.000000 0.000000 0.000000 0.000000 -0.036465
#
#
# Mechanical properties :
#
#
# Convention : Reuss Voigt Hill
#
# Bulk Modulus (GPa) = 44.22012 60.25056 52.23534
# Shear Modulus (GPa) = -612.81185 -25.56773 -319.18979
#
# Velocity S-wave (km/s) = -16.61303 -3.39337 -11.98974
# Velocity P-wave (km/s) = 18.65676 3.43246 12.96713
#
# Compressibility (1/GPa) = 0.02261414
#
# Stress axis : x y z
#
# Youngs Moduli (GPa) = 94.37415 53.62600 116.34908
#
# Poissons Ratio (x) = -0.03616 0.01966
# Poissons Ratio (y) = -0.06365 0.94448
# Poissons Ratio (z) = 0.01594 0.43532
#
# Static dielectric constant tensor:
#      x y z
#    x 2.046750 0.000000 0.000000 
#    y 0.000000 1.781950 0.000000 
#    z 0.000000 0.000000 1.832180 
# 
# From -- ./inp_files/21057.got.cif
#   From: 2010.05.17/outbox.cif.g08.bks.cpg/sg65_11_cif.got.tgz:21057.got - 2010.06.03 17:01:31.
