data_PCOD9483101
_publ_section_title
;
Structure prediction by ZEFSAII (Michael W. Deem and Ramdas Pophale) SiO2 
 PCOD9483101
Probable space group: C M M M
;
_chemical_formula_sum "Si O2"
_cell_formula_units_Z 104
_cell_length_a 26.425318
_cell_length_b 8.665891
_cell_length_c 28.600224
_cell_angle_alpha 90.000000
_cell_angle_beta 90.000000
_cell_angle_gamma 90.000000
_cell_volume 6549.420563
_symmetry_space_group_name_H-M "C M M M"
_symmetry_group_IT_number 65
_symmetry_cell_setting 'orthorhombic'
loop_
_space_group_symop_operation_xyz
x,y,z
-x,-y,z
x,-y,-z
-x,y,-z
-x,-y,-z
x,y,-z
-x,y,z
x,-y,z
1/2+x,1/2+y,z
1/2-x,1/2-y,z
1/2+x,1/2-y,-z
1/2-x,1/2+y,-z
1/2-x,1/2-y,-z
1/2+x,1/2+y,-z
1/2-x,1/2+y,z
1/2+x,1/2-y,z
loop_
_atom_site_type_symbol
_atom_site_label
_atom_site_fract_x
_atom_site_fract_y
_atom_site_fract_z
Si Si1 0.342750 0.318089 0.747009
Si Si2 0.557224 0.180365 0.778710
Si Si3 0.304865 0.686052 0.151815
Si Si4 0.591686 0.181031 0.885350
Si Si5 0.000000 0.184691 0.945381
Si Si6 0.306719 0.685762 0.646305
Si Si7 0.307406 0.815210 0.551131
O O1 0.332288 0.500000 0.746457
O O2 0.401561 0.285234 0.754382
O O3 0.315654 0.257517 0.794379
O O4 0.327761 0.257402 0.696144
O O5 0.500000 0.220344 0.766975
O O6 0.565899 0.195596 0.834252
O O7 0.566250 0.000000 0.767276
O O8 0.304233 0.500000 0.151500
O O9 0.250000 0.750000 0.137307
O O10 0.352815 0.742431 0.120980
O O11 0.551161 0.252447 0.921002
O O12 0.598305 0.000000 0.895545
O O13 0.000000 0.000000 0.940945
O O14 0.000000 0.226685 0.000000
O O15 0.250000 0.750000 0.645494
O O16 0.331587 0.746878 0.598269
O O17 0.193013 0.000000 0.645105
O O18 0.330149 0.776619 0.500000
O O19 0.250000 0.750000 0.549725
O O20 0.305024 0.000000 0.555190
#
# Coordination Sequence:
#
# PCOD9483101 Si02
#       7
#    16  16  16  16   8  16  16
#     4   9  19  30  41  63  91 122 157 190 227 273
#     4   9  17  30  47  68  92 119 152 189 227 271
#     4  10  19  32  49  72 101 134 170 203 238 282
#     4  10  19  34  54  76 102 131 165 203 242 285
#     4  11  23  37  55  81 109 133 161 201 246 291
#     4  10  18  27  39  56  82 113 148 184 221 265
#     4   9  16  25  37  53  73 101 140 181 223 269
#
# _framework density 15.879267
#
# number of rings (size 3 to 8) (size 9 to 14) (size 15 to 20)
#    0.000    2.385    0.769    3.462    0.000    4.308 
#    0.000    0.000    0.000    0.462    0.000    0.000 
#    0.000    0.615    0.000    6.769    0.000    4.923 
#
# Total GULP energy -289524.816415 kJ/mol
# GULP energy per Si atom -5567.784931 kJ/mol
# Density = 1.584312 g / cm^3
# Si number density = 15.879267 Si / 1000 Ang^3
#
#
#
# Elastic Constant Matrix: (Units=GPa)
#
#
# Indices 1 2 3 4 5 6 
#
# 1 78.2612 25.1070 44.4175 0.0000 0.0000 0.0000
# 2 25.1070 46.9570 40.3243 0.0000 0.0000 0.0000
# 3 44.4175 40.3243 106.2443 0.0000 0.0000 0.0000
# 4 0.0000 0.0000 0.0000 22.7181 0.0000 0.0000
# 5 0.0000 0.0000 0.0000 0.0000 21.3931 0.0000
# 6 0.0000 0.0000 0.0000 0.0000 0.0000 25.1052
#
#
#
# Elastic Compliance Matrix: (Units=1/GPa)
#
#
# Indices 1 2 3 4 5 6 
#
# 1 0.017379 -0.004529 -0.005547 0.000000 0.000000 0.000000
# 2 -0.004529 0.032774 -0.010546 0.000000 0.000000 0.000000
# 3 -0.005547 -0.010546 0.015734 0.000000 0.000000 0.000000
# 4 0.000000 0.000000 0.000000 0.044018 0.000000 0.000000
# 5 0.000000 0.000000 0.000000 0.000000 0.046744 0.000000
# 6 0.000000 0.000000 0.000000 0.000000 0.000000 0.039832
#
#
# Mechanical properties :
#
#
# Convention : Reuss Voigt Hill
#
# Bulk Modulus (GPa) = 40.57830 50.12891 45.35361
# Shear Modulus (GPa) = 20.33043 21.95086 21.14064
#
# Velocity S-wave (km/s) = 3.58203 3.72204 3.65271
# Velocity P-wave (km/s) = 6.53587 7.07876 6.81272
#
# Compressibility (1/GPa) = 0.02464371
#
# Stress axis : x y z
#
# Youngs Moduli (GPa) = 57.54199 30.51238 63.55818
#
# Poissons Ratio (x) = 0.13819 0.35253
# Poissons Ratio (y) = 0.26060 0.67026
# Poissons Ratio (z) = 0.31916 0.32177
#
# Static dielectric constant tensor:
#      x y z
#    x 1.510680 0.000000 0.000000 
#    y 0.000000 1.543560 0.000000 
#    z 0.000000 0.000000 1.577980 
# 
# From -- ./inp_files/73601.got.cif
#   From: 2010.05.17/outbox.cif.g08.bks.cpg/sg65_37_cif.got.tgz:73601.got - 2010.06.03 17:01:31.
