data_PCOD9483572
_publ_section_title
;
Structure prediction by ZEFSAII (Michael W. Deem and Ramdas Pophale) SiO2 
 PCOD9483572
Probable space group: C M M M
;
_chemical_formula_sum "Si O2"
_cell_formula_units_Z 112
_cell_length_a 16.662965
_cell_length_b 14.699946
_cell_length_c 24.606810
_cell_angle_alpha 90.000000
_cell_angle_beta 90.000000
_cell_angle_gamma 90.000000
_cell_volume 6027.307342
_symmetry_space_group_name_H-M "C M M M"
_symmetry_group_IT_number 65
_symmetry_cell_setting 'orthorhombic'
loop_
_space_group_symop_operation_xyz
x,y,z
-x,-y,z
x,-y,-z
-x,y,-z
-x,-y,-z
x,y,-z
-x,y,z
x,-y,z
1/2+x,1/2+y,z
1/2-x,1/2-y,z
1/2+x,1/2-y,-z
1/2-x,1/2+y,-z
1/2-x,1/2-y,-z
1/2+x,1/2+y,-z
1/2-x,1/2+y,z
1/2+x,1/2-y,z
loop_
_atom_site_type_symbol
_atom_site_label
_atom_site_fract_x
_atom_site_fract_y
_atom_site_fract_z
Si Si1 0.152762 0.395264 0.939913
Si Si2 0.865214 0.395049 0.645729
Si Si3 0.094785 0.240553 0.562561
Si Si4 0.672639 0.394759 0.647549
Si Si5 0.652519 0.249609 0.147737
Si Si6 0.593062 0.258490 0.270089
Si Si7 0.151778 0.895252 0.939740
O O1 0.128822 0.500000 0.934560
O O2 0.126924 0.335822 0.889112
O O3 0.250488 0.392134 0.940225
O O4 0.127234 0.362442 0.000000
O O5 0.892614 0.500000 0.645633
O O6 0.891927 0.335927 0.593710
O O7 0.768714 0.394670 0.646377
O O8 0.893219 0.335843 0.697441
O O9 0.120827 0.244974 0.500000
O O10 0.139988 0.162256 0.596224
O O11 0.000000 0.220630 0.564391
O O12 0.645308 0.500000 0.648166
O O13 0.643398 0.336826 0.699436
O O14 0.750000 0.250000 0.151765
O O15 0.617830 0.249714 0.207725
O O16 0.626411 0.335160 0.110972
O O17 0.500000 0.282554 0.275104
O O18 0.127845 0.000000 0.933906
O O19 0.126093 0.863300 0.000000
#
# Coordination Sequence:
#
# PCOD9483572 Si02
#       7
#    16  16  16  16  16  16  16
#     4   8  14  25  43  69  97 123 157 205 258 307
#     4  10  21  38  60  82 105 138 180 225 269 308
#     4  10  21  36  56  85 119 150 178 210 251 306
#     4  10  21  38  60  82 105 138 180 225 269 308
#     4  10  18  29  48  72  97 127 166 212 259 305
#     4  11  23  37  53  75 106 142 178 218 264 317
#     4   8  14  25  43  69  97 123 157 205 258 307
#
# _framework density 18.582096
#
# number of rings (size 3 to 8) (size 9 to 14) (size 15 to 20)
#    0.000    2.429    0.000    5.571    0.000    6.857 
#    0.000    5.714    0.000    1.714    0.000    2.000 
#    0.000    0.000    0.000    0.000    0.000    0.000 
#
# Total GULP energy -312409.845886 kJ/mol
# GULP energy per Si atom -5578.747248 kJ/mol
# Density = 1.853980 g / cm^3
# Si number density = 18.582096 Si / 1000 Ang^3
#
#
#
# Elastic Constant Matrix: (Units=GPa)
#
#
# Indices 1 2 3 4 5 6 
#
# 1 28.9124 -1.4539 8.2527 0.0000 0.0000 0.0000
# 2 -1.4539 105.0637 63.2821 0.0000 0.0000 0.0000
# 3 8.2527 63.2821 176.0106 0.0000 0.0000 0.0000
# 4 0.0000 0.0000 0.0000 12.2558 0.0000 0.0000
# 5 0.0000 0.0000 0.0000 0.0000 46.5613 0.0000
# 6 0.0000 0.0000 0.0000 0.0000 0.0000 -27.1532
#
#
#
# Elastic Compliance Matrix: (Units=1/GPa)
#
#
# Indices 1 2 3 4 5 6 
#
# 1 0.035351 0.001899 -0.002340 0.000000 0.000000 0.000000
# 2 0.001899 0.012251 -0.004494 0.000000 0.000000 0.000000
# 3 -0.002340 -0.004494 0.007407 0.000000 0.000000 0.000000
# 4 0.000000 0.000000 0.000000 0.081594 0.000000 0.000000
# 5 0.000000 0.000000 0.000000 0.000000 0.021477 0.000000
# 6 0.000000 0.000000 0.000000 0.000000 0.000000 -0.036828
#
#
# Mechanical properties :
#
#
# Convention : Reuss Voigt Hill
#
# Bulk Modulus (GPa) = 22.15418 50.01652 36.08535
# Shear Modulus (GPa) = 34.20722 22.32649 28.26685
#
# Velocity S-wave (km/s) = 4.29519 3.47003 3.90447
# Velocity P-wave (km/s) = 6.04536 6.55971 6.30778
#
# Compressibility (1/GPa) = 0.04513820
#
# Stress axis : x y z
#
# Youngs Moduli (GPa) = 28.28802 81.62632 135.01034
#
# Poissons Ratio (x) = -0.15499 0.31595
# Poissons Ratio (y) = -0.05371 0.60669
# Poissons Ratio (z) = 0.06620 0.36680
#
# Static dielectric constant tensor:
#      x y z
#    x 1.647370 0.000000 0.000000 
#    y 0.000000 1.642860 0.000000 
#    z 0.000000 0.000000 1.617250 
# 
# From -- ./inp_files/70051.got.cif
#   From: 2010.05.17/outbox.cif.g08.bks.cpg/sg65_36_cif.got.tgz:70051.got - 2010.06.03 17:01:31.
