data_PCOD9483349
_publ_section_title
;
Structure prediction by ZEFSAII (Michael W. Deem and Ramdas Pophale) SiO2 
 PCOD9483349
Probable space group: C M M M
;
_chemical_formula_sum "Si O2"
_cell_formula_units_Z 56
_cell_length_a 8.403246
_cell_length_b 18.543812
_cell_length_c 19.095796
_cell_angle_alpha 90.000000
_cell_angle_beta 90.000000
_cell_angle_gamma 90.000000
_cell_volume 2975.663786
_symmetry_space_group_name_H-M "C M M M"
_symmetry_group_IT_number 65
_symmetry_cell_setting 'orthorhombic'
loop_
_space_group_symop_operation_xyz
x,y,z
-x,-y,z
x,-y,-z
-x,y,-z
-x,-y,-z
x,y,-z
-x,y,z
x,-y,z
1/2+x,1/2+y,z
1/2-x,1/2-y,z
1/2+x,1/2-y,-z
1/2-x,1/2+y,-z
1/2-x,1/2-y,-z
1/2+x,1/2+y,-z
1/2-x,1/2+y,z
1/2+x,1/2-y,z
loop_
_atom_site_type_symbol
_atom_site_label
_atom_site_fract_x
_atom_site_fract_y
_atom_site_fract_z
Si Si1 0.805501 0.417036 0.861352
Si Si2 0.190619 0.167026 0.424107
Si Si3 0.690274 0.167618 0.723416
Si Si4 0.192462 0.331785 0.000000
O O1 0.754397 0.500000 0.864247
O O2 0.753366 0.377989 0.790066
O O3 0.000000 0.416776 0.861250
O O4 0.754048 0.373278 0.930024
O O5 0.239467 0.135495 0.500000
O O6 0.250000 0.250000 0.424501
O O7 0.255210 0.136022 0.351475
O O8 0.000000 0.167153 0.421082
O O9 0.500000 0.169406 0.723725
O O10 0.750000 0.250000 0.729333
O O11 0.250000 0.250000 0.000000
O O12 0.000000 0.332145 0.000000
#
# Coordination Sequence:
#
# PCOD9483349 Si02
#       4
#    16  16  16   8
#     4   9  18  32  50  72  96 126 164 198 230 274
#     4   9  16  26  42  65  93 123 156 195 237 282
#     4  10  18  28  46  70  96 124 156 198 240 281
#     4  10  19  33  55  77  99 126 156 196 238 278
#
# _framework density 18.819330000000001
#
# number of rings (size 3 to 8) (size 9 to 14) (size 15 to 20)
#    0.000    2.571    0.000    4.714    0.000    3.429 
#    0.000    1.429    0.000    9.429    0.000    6.000 
#    0.000    0.000    0.000    0.000    0.000    0.000 
#
# Total GULP energy -156094.161540 kJ/mol
# GULP energy per Si atom -5574.791484 kJ/mol
# Density = 1.877650 g / cm^3
# Si number density = 18.819330 Si / 1000 Ang^3
#
#
#
# Elastic Constant Matrix: (Units=GPa)
#
#
# Indices 1 2 3 4 5 6 
#
# 1 29.5242 12.2417 31.4707 0.0000 0.0000 0.0000
# 2 12.2417 100.4339 94.9484 0.0000 0.0000 0.0000
# 3 31.4707 94.9484 248.5854 0.0000 0.0000 0.0000
# 4 0.0000 0.0000 0.0000 -3.5025 0.0000 0.0000
# 5 0.0000 0.0000 0.0000 0.0000 21.5539 0.0000
# 6 0.0000 0.0000 0.0000 0.0000 0.0000 15.9638
#
#
#
# Elastic Compliance Matrix: (Units=1/GPa)
#
#
# Indices 1 2 3 4 5 6 
#
# 1 0.039155 -0.000135 -0.004905 0.000000 0.000000 0.000000
# 2 -0.000135 0.015585 -0.005936 0.000000 0.000000 0.000000
# 3 -0.004905 -0.005936 0.006911 0.000000 0.000000 0.000000
# 4 0.000000 0.000000 0.000000 -0.285510 0.000000 0.000000
# 5 0.000000 0.000000 0.000000 0.000000 0.046395 0.000000
# 6 0.000000 0.000000 0.000000 0.000000 0.000000 0.062642
#
#
# Mechanical properties :
#
#
# Convention : Reuss Voigt Hill
#
# Bulk Modulus (GPa) = 25.18966 72.87392 49.03179
# Shear Modulus (GPa) = -62.78480 22.79523 -19.99479
#
# Velocity S-wave (km/s) = -5.78224 3.48410 -3.26308
# Velocity P-wave (km/s) = 5.58256 7.41568 3.45161
#
# Compressibility (1/GPa) = 0.03969882
#
# Stress axis : x y z
#
# Youngs Moduli (GPa) = 25.53927 64.16598 144.69921
#
# Poissons Ratio (x) = 0.00867 0.70982
# Poissons Ratio (y) = 0.00345 0.85886
# Poissons Ratio (z) = 0.12528 0.38086
#
# Static dielectric constant tensor:
#      x y z
#    x 1.653880 0.000000 0.000000 
#    y 0.000000 1.724450 0.000000 
#    z 0.000000 0.000000 1.701650 
# 
# From -- ./inp_files/53902.got.cif
#   From: 2010.05.17/outbox.cif.g08.bks.cpg/sg65_27_cif.got.tgz:53902.got - 2010.06.03 17:01:31.
