data_PCOD9483045
_publ_section_title
;
Structure prediction by ZEFSAII (Michael W. Deem and Ramdas Pophale) SiO2 
 PCOD9483045
Probable space group: C M M M
;
_chemical_formula_sum "Si O2"
_cell_formula_units_Z 112
_cell_length_a 23.087748
_cell_length_b 14.593114
_cell_length_c 15.764003
_cell_angle_alpha 90.000000
_cell_angle_beta 90.000000
_cell_angle_gamma 90.000000
_cell_volume 5311.241603
_symmetry_space_group_name_H-M "C M M M"
_symmetry_group_IT_number 65
_symmetry_cell_setting 'orthorhombic'
loop_
_space_group_symop_operation_xyz
x,y,z
-x,-y,z
x,-y,-z
-x,y,-z
-x,-y,-z
x,y,-z
-x,y,z
x,-y,z
1/2+x,1/2+y,z
1/2-x,1/2-y,z
1/2+x,1/2-y,-z
1/2-x,1/2+y,-z
1/2-x,1/2-y,-z
1/2+x,1/2+y,-z
1/2-x,1/2+y,z
1/2+x,1/2-y,z
loop_
_atom_site_type_symbol
_atom_site_label
_atom_site_fract_x
_atom_site_fract_y
_atom_site_fract_z
Si Si1 0.885793 0.892630 0.223192
Si Si2 0.643267 0.104369 0.092908
Si Si3 0.401475 0.108880 0.402616
Si Si4 0.742017 0.641077 0.827398
Si Si5 0.353278 0.602854 0.587321
Si Si6 0.768722 0.643299 0.637111
Si Si7 0.435909 0.202780 0.772746
O O1 0.825811 0.883442 0.170320
O O2 0.869017 0.863527 0.319992
O O3 0.930435 0.811372 0.205862
O O4 0.903559 0.000000 0.220435
O O5 0.712593 0.103501 0.105567
O O6 0.613777 0.157527 0.169965
O O7 0.622596 0.000000 0.095950
O O8 0.629635 0.143924 0.000000
O O9 0.420753 0.128302 0.500000
O O10 0.332059 0.125546 0.397999
O O11 0.426608 0.170481 0.325483
O O12 0.412411 0.000000 0.386457
O O13 0.750000 0.750000 0.831194
O O14 0.764548 0.611186 0.734442
O O15 0.371450 0.651679 0.500000
O O16 0.377164 0.500000 0.585038
O O17 0.284079 0.597780 0.588635
O O18 0.750000 0.750000 0.634998
O O19 0.500000 0.171105 0.797326
#
# Coordination Sequence:
#
# PCOD9483045 Si02
#       7
#    16  16  16  16  16  16  16
#     4  10  21  38  62  92 125 165 208 253 307 371
#     4  11  24  42  68 100 128 159 202 250 306 375
#     4  11  23  38  59  87 120 163 213 260 312 375
#     4  10  17  35  63  95 132 163 192 239 308 377
#     4   9  17  28  46  77 115 153 194 240 292 351
#     4  10  18  28  49  81 120 160 197 239 293 363
#     4  12  26  45  65  86 120 167 214 266 317 356
#
# _framework density 21.087347000000001
#
# number of rings (size 3 to 8) (size 9 to 14) (size 15 to 20)
#    0.000    1.571    2.857    3.429    0.000    7.429 
#    0.000    1.429    0.000    0.429    0.000    4.000 
#    0.000    0.000    0.000    0.000    0.000    0.000 
#
# Total GULP energy -312146.291751 kJ/mol
# GULP energy per Si atom -5574.040924 kJ/mol
# Density = 2.103935 g / cm^3
# Si number density = 21.087347 Si / 1000 Ang^3
#
#
#
# Elastic Constant Matrix: (Units=GPa)
#
#
# Indices 1 2 3 4 5 6 
#
# 1 54.1284 7.0946 12.7197 0.0000 0.0000 0.0000
# 2 7.0946 113.6684 16.2210 0.0000 0.0000 0.0000
# 3 12.7197 16.2210 77.3318 0.0000 0.0000 0.0000
# 4 0.0000 0.0000 0.0000 -23.3619 0.0000 0.0000
# 5 0.0000 0.0000 0.0000 0.0000 -3.6234 0.0000
# 6 0.0000 0.0000 0.0000 0.0000 0.0000 -4.3028
#
#
#
# Elastic Compliance Matrix: (Units=1/GPa)
#
#
# Indices 1 2 3 4 5 6 
#
# 1 0.019283 -0.000774 -0.003009 0.000000 0.000000 0.000000
# 2 -0.000774 0.009100 -0.001781 0.000000 0.000000 0.000000
# 3 -0.003009 -0.001781 0.013800 0.000000 0.000000 0.000000
# 4 0.000000 0.000000 0.000000 -0.042805 0.000000 0.000000
# 5 0.000000 0.000000 0.000000 0.000000 -0.275988 0.000000
# 6 0.000000 0.000000 0.000000 0.000000 0.000000 -0.232406
#
#
# Mechanical properties :
#
#
# Convention : Reuss Voigt Hill
#
# Bulk Modulus (GPa) = 32.20270 35.24437 33.72353
# Shear Modulus (GPa) = -10.25569 7.68193 -1.28688
#
# Velocity S-wave (km/s) = -2.20771 1.91071 -0.78204
# Velocity P-wave (km/s) = 2.96742 4.64947 3.90020
#
# Compressibility (1/GPa) = 0.03105329
#
# Stress axis : x y z
#
# Youngs Moduli (GPa) = 51.85857 109.88934 72.46394
#
# Poissons Ratio (x) = 0.08507 0.21807
# Poissons Ratio (y) = 0.04014 0.12909
# Poissons Ratio (z) = 0.15606 0.19577
#
# Static dielectric constant tensor:
#      x y z
#    x 1.718910 0.000000 0.000000 
#    y 0.000000 1.905840 0.000000 
#    z 0.000000 0.000000 1.790700 
# 
# From -- ./inp_files/45764.got.cif
#   From: 2010.05.17/outbox.cif.g08.bks.cpg/sg65_23_cif.got.tgz:45764.got - 2010.06.03 17:01:31.
