data_PCOD9483292
_publ_section_title
;
Structure prediction by ZEFSAII (Michael W. Deem and Ramdas Pophale) SiO2 
 PCOD9483292
Probable space group: C M M M
;
_chemical_formula_sum "Si O2"
_cell_formula_units_Z 120
_cell_length_a 29.713412
_cell_length_b 8.318146
_cell_length_c 29.408608
_cell_angle_alpha 90.000000
_cell_angle_beta 90.000000
_cell_angle_gamma 90.000000
_cell_volume 7268.646233
_symmetry_space_group_name_H-M "C M M M"
_symmetry_group_IT_number 65
_symmetry_cell_setting 'orthorhombic'
loop_
_space_group_symop_operation_xyz
x,y,z
-x,-y,z
x,-y,-z
-x,y,-z
-x,-y,-z
x,y,-z
-x,y,z
x,-y,z
1/2+x,1/2+y,z
1/2-x,1/2-y,z
1/2+x,1/2-y,-z
1/2-x,1/2+y,-z
1/2-x,1/2-y,-z
1/2+x,1/2+y,-z
1/2-x,1/2+y,z
1/2+x,1/2-y,z
loop_
_atom_site_type_symbol
_atom_site_label
_atom_site_fract_x
_atom_site_fract_y
_atom_site_fract_z
Si Si1 0.298910 0.192064 0.279482
Si Si2 0.948530 0.194017 0.051725
Si Si3 0.892604 0.193922 0.312987
Si Si4 0.051794 0.805627 0.224521
Si Si5 0.201154 0.693742 0.825730
Si Si6 0.606884 0.807803 0.136950
Si Si7 0.447741 0.302910 0.400709
Si Si8 0.945309 0.186188 0.500000
O O1 0.250000 0.250000 0.295439
O O2 0.341153 0.254330 0.307697
O O3 0.304185 0.248986 0.226849
O O4 0.299598 0.000000 0.279185
O O5 0.914463 0.253819 0.089615
O O6 0.000000 0.245567 0.062229
O O7 0.948356 0.000000 0.052306
O O8 0.938074 0.245571 0.000000
O O9 0.920288 0.250823 0.268574
O O10 0.916768 0.249776 0.359089
O O11 0.894469 0.000000 0.312900
O O12 0.076205 0.752313 0.178573
O O13 0.000000 0.750800 0.226062
O O14 0.051433 0.000000 0.225416
O O15 0.201173 0.500000 0.825382
O O16 0.250000 0.750000 0.842094
O O17 0.157945 0.750032 0.854014
O O18 0.607343 0.000000 0.138416
O O19 0.500000 0.257737 0.393148
O O20 0.447177 0.500000 0.402071
O O21 0.432674 0.244267 0.450818
O O22 0.000000 0.184288 0.500000
O O23 0.930249 0.000000 0.500000
#
# Coordination Sequence:
#
# PCOD9483292 Si02
#       8
#    16  16  16  16  16  16  16   8
#     4  10  19  33  49  66  91 121 156 195 235 280
#     4   9  19  36  55  74  97 126 161 197 230 270
#     4  10  18  28  44  67  94 125 158 193 233 276
#     4  10  20  31  43  63  94 131 164 188 217 267
#     4   9  19  33  49  69  93 120 153 192 232 274
#     4  11  21  33  49  73  99 123 154 194 237 277
#     4   8  13  22  38  62  93 126 160 197 234 275
#     4   7  10  18  34  58  88 121 156 197 240 273
#
# _framework density 16.509264000000002
#
# number of rings (size 3 to 8) (size 9 to 14) (size 15 to 20)
#    0.000    2.600    1.333    2.800    0.000    5.600 
#    0.000    0.667    0.000    1.600    0.000    0.933 
#    0.000    1.600    0.000    0.000    0.000    0.000 
#
# Total GULP energy -334472.963521 kJ/mol
# GULP energy per Si atom -5574.549392 kJ/mol
# Density = 1.647169 g / cm^3
# Si number density = 16.509264 Si / 1000 Ang^3
#
#
#
# Elastic Constant Matrix: (Units=GPa)
#
#
# Indices 1 2 3 4 5 6 
#
# 1 150.9572 15.3004 91.3089 0.0000 0.0000 0.0000
# 2 15.3004 8.0909 14.5964 0.0000 0.0000 0.0000
# 3 91.3089 14.5964 129.4813 0.0000 0.0000 0.0000
# 4 0.0000 0.0000 0.0000 3.4861 0.0000 0.0000
# 5 0.0000 0.0000 0.0000 0.0000 12.0718 0.0000
# 6 0.0000 0.0000 0.0000 0.0000 0.0000 22.0333
#
#
#
# Elastic Compliance Matrix: (Units=1/GPa)
#
#
# Indices 1 2 3 4 5 6 
#
# 1 0.012095 -0.009396 -0.007470 0.000000 0.000000 0.000000
# 2 -0.009396 0.162447 -0.011686 0.000000 0.000000 0.000000
# 3 -0.007470 -0.011686 0.014308 0.000000 0.000000 0.000000
# 4 0.000000 0.000000 0.000000 0.286853 0.000000 0.000000
# 5 0.000000 0.000000 0.000000 0.000000 0.082838 0.000000
# 6 0.000000 0.000000 0.000000 0.000000 0.000000 0.045386
#
#
# Mechanical properties :
#
#
# Convention : Reuss Voigt Hill
#
# Bulk Modulus (GPa) = 7.59044 58.99341 33.29193
# Shear Modulus (GPa) = 7.09273 18.67317 12.88295
#
# Velocity S-wave (km/s) = 2.07498 3.36679 2.79650
# Velocity P-wave (km/s) = 3.21689 7.13616 5.53503
#
# Compressibility (1/GPa) = 0.13174464
#
# Stress axis : x y z
#
# Youngs Moduli (GPa) = 82.67737 6.15587 69.88889
#
# Poissons Ratio (x) = 0.05784 0.52208
# Poissons Ratio (y) = 0.77685 0.81675
# Poissons Ratio (z) = 0.61762 0.07194
#
# Static dielectric constant tensor:
#      x y z
#    x 1.544810 0.000000 0.000000 
#    y 0.000000 1.578360 0.000000 
#    z 0.000000 0.000000 1.558820 
# 
# From -- ./inp_files/76110.got.cif
#   From: 2010.05.17/outbox.cif.g08.bks.cpg/sg65_39_cif.got.tgz:76110.got - 2010.06.03 17:01:31.
