data_PCOD9483791
_publ_section_title
;
Structure prediction by ZEFSAII (Michael W. Deem and Ramdas Pophale) SiO2 
 PCOD9483791
Probable space group: C M M M
;
_chemical_formula_sum "Si O2"
_cell_formula_units_Z 128
_cell_length_a 17.175319
_cell_length_b 22.636403
_cell_length_c 18.510811
_cell_angle_alpha 90.000000
_cell_angle_beta 90.000000
_cell_angle_gamma 90.000000
_cell_volume 7196.770868
_symmetry_space_group_name_H-M "C M M M"
_symmetry_group_IT_number 65
_symmetry_cell_setting 'orthorhombic'
loop_
_space_group_symop_operation_xyz
x,y,z
-x,-y,z
x,-y,-z
-x,y,-z
-x,-y,-z
x,y,-z
-x,y,z
x,-y,z
1/2+x,1/2+y,z
1/2-x,1/2-y,z
1/2+x,1/2-y,-z
1/2-x,1/2+y,-z
1/2-x,1/2-y,-z
1/2+x,1/2+y,-z
1/2-x,1/2+y,z
1/2+x,1/2-y,z
loop_
_atom_site_type_symbol
_atom_site_label
_atom_site_fract_x
_atom_site_fract_y
_atom_site_fract_z
Si Si1 0.907879 0.686868 0.423158
Si Si2 0.336161 0.430970 0.583757
Si Si3 0.584538 0.429293 0.132063
Si Si4 0.810198 0.371545 0.224053
Si Si5 0.909481 0.732091 0.728363
Si Si6 0.868074 0.865705 0.273427
Si Si7 0.654336 0.067070 0.629916
Si Si8 0.753239 0.571307 0.919454
O O1 0.873289 0.705106 0.500000
O O2 0.877279 0.719666 0.352604
O O3 0.893443 0.617495 0.410691
O O4 0.000000 0.698062 0.425096
O O5 0.349681 0.414055 0.500000
O O6 0.359476 0.500000 0.592566
O O7 0.375307 0.390413 0.645155
O O8 0.243352 0.429147 0.600857
O O9 0.500000 0.407185 0.106398
O O10 0.583501 0.500000 0.126638
O O11 0.596288 0.410733 0.215314
O O12 0.662693 0.409713 0.091153
O O13 0.858609 0.311013 0.222238
O O14 0.723245 0.360357 0.253942
O O15 0.846198 0.414692 0.285346
O O16 0.801312 0.401079 0.146140
O O17 0.903564 0.801515 0.739857
O O18 0.000000 0.713956 0.732122
O O19 0.627601 0.000000 0.619731
O O20 0.755419 0.500000 0.913011
O O21 0.779345 0.587396 0.000000
#
# Coordination Sequence:
#
# PCOD9483791 Si02
#       8
#    16  16  16  16  16  16  16  16
#     4   9  18  30  41  58  87 118 151 197 247 288
#     4   9  17  28  43  66  95 123 154 198 246 286
#     4   9  17  29  47  73 104 133 158 190 233 277
#     4   9  18  32  49  70  97 124 153 195 239 278
#     4  10  20  33  49  67  88 122 165 204 242 282
#     4  10  18  30  49  70  91 123 167 204 235 280
#     4   9  16  27  44  64  87 118 154 189 232 285
#     4   9  17  30  52  81 106 128 155 186 227 282
#
# _framework density 17.785755000000002
#
# number of rings (size 3 to 8) (size 9 to 14) (size 15 to 20)
#    0.000    2.750    0.000    1.875    0.000    4.750 
#    0.000    1.875    0.000   13.125    0.000    5.250 
#    0.000    0.000    0.000    0.000    0.000    0.000 
#
# Total GULP energy -356516.503583 kJ/mol
# GULP energy per Si atom -5570.570368 kJ/mol
# Density = 1.774527 g / cm^3
# Si number density = 17.785755 Si / 1000 Ang^3
#
#
#
# Elastic Constant Matrix: (Units=GPa)
#
#
# Indices 1 2 3 4 5 6 
#
# 1 20.1950 2.1069 15.0450 0.0000 0.0000 0.0000
# 2 2.1069 17.8039 8.5275 0.0000 0.0000 0.0000
# 3 15.0450 8.5275 111.1958 0.0000 0.0000 0.0000
# 4 0.0000 0.0000 0.0000 13.2801 0.0000 0.0000
# 5 0.0000 0.0000 0.0000 0.0000 8.1540 0.0000
# 6 0.0000 0.0000 0.0000 0.0000 0.0000 13.2367
#
#
#
# Elastic Compliance Matrix: (Units=1/GPa)
#
#
# Indices 1 2 3 4 5 6 
#
# 1 0.055229 -0.003069 -0.007237 0.000000 0.000000 0.000000
# 2 -0.003069 0.058480 -0.004069 0.000000 0.000000 0.000000
# 3 -0.007237 -0.004069 0.010284 0.000000 0.000000 0.000000
# 4 0.000000 0.000000 0.000000 0.075300 0.000000 0.000000
# 5 0.000000 0.000000 0.000000 0.000000 0.122640 0.000000
# 6 0.000000 0.000000 0.000000 0.000000 0.000000 0.075547
#
#
# Mechanical properties :
#
#
# Convention : Reuss Voigt Hill
#
# Bulk Modulus (GPa) = 10.49965 22.28372 16.39168
# Shear Modulus (GPa) = 10.91751 15.16852 13.04302
#
# Velocity S-wave (km/s) = 2.48026 2.92352 2.71096
# Velocity P-wave (km/s) = 3.75745 4.89409 4.36295
#
# Compressibility (1/GPa) = 0.09524130
#
# Stress axis : x y z
#
# Youngs Moduli (GPa) = 18.10639 17.09990 97.23430
#
# Poissons Ratio (x) = 0.05249 0.70370
# Poissons Ratio (y) = 0.05558 0.39569
# Poissons Ratio (z) = 0.13104 0.06959
#
# Static dielectric constant tensor:
#      x y z
#    x 1.628070 0.000000 0.000000 
#    y 0.000000 1.598230 0.000000 
#    z 0.000000 0.000000 1.631190 
# 
# From -- ./inp_files/55142.got.cif
#   From: 2010.05.17/outbox.cif.g08.bks.cpg/sg65_28_cif.got.tgz:55142.got - 2010.06.03 17:01:31.
