data_PCOD9483629
_publ_section_title
;
Structure prediction by ZEFSAII (Michael W. Deem and Ramdas Pophale) SiO2 
 PCOD9483629
Probable space group: C M M M
;
_chemical_formula_sum "Si O2"
_cell_formula_units_Z 104
_cell_length_a 19.426015
_cell_length_b 13.554942
_cell_length_c 21.068672
_cell_angle_alpha 90.000000
_cell_angle_beta 90.000000
_cell_angle_gamma 90.000000
_cell_volume 5547.771247
_symmetry_space_group_name_H-M "C M M M"
_symmetry_group_IT_number 65
_symmetry_cell_setting 'orthorhombic'
loop_
_space_group_symop_operation_xyz
x,y,z
-x,-y,z
x,-y,-z
-x,y,-z
-x,-y,-z
x,y,-z
-x,y,z
x,-y,z
1/2+x,1/2+y,z
1/2-x,1/2-y,z
1/2+x,1/2-y,-z
1/2-x,1/2+y,-z
1/2-x,1/2-y,-z
1/2+x,1/2+y,-z
1/2-x,1/2+y,z
1/2+x,1/2-y,z
loop_
_atom_site_type_symbol
_atom_site_label
_atom_site_fract_x
_atom_site_fract_y
_atom_site_fract_z
Si Si1 0.582104 0.000000 0.425855
Si Si2 0.693462 0.384617 0.674002
Si Si3 0.178290 0.116171 0.173818
Si Si4 0.421397 0.230966 0.888469
Si Si5 0.577907 0.891151 0.763378
Si Si6 0.205983 0.383909 0.930730
Si Si7 0.347894 0.819480 0.352493
O O1 0.610715 0.100686 0.394009
O O2 0.500000 0.000000 0.419378
O O3 0.600678 0.000000 0.500000
O O4 0.675523 0.500000 0.662952
O O5 0.690452 0.367336 0.750807
O O6 0.652088 0.298567 0.636140
O O7 0.771058 0.362339 0.651828
O O8 0.113116 0.174921 0.145806
O O9 0.244399 0.139553 0.128872
O O10 0.166314 0.000000 0.166141
O O11 0.500000 0.247244 0.912154
O O12 0.425590 0.149176 0.833383
O O13 0.361630 0.184134 0.931269
O O14 0.500000 0.894429 0.738511
O O15 0.621931 0.825314 0.717997
O O16 0.608402 0.000000 0.762183
O O17 0.187046 0.500000 0.924960
O O18 0.241382 0.372776 0.000000
#
# Coordination Sequence:
#
# PCOD9483629 Si02
#       7
#     8  16  16  16  16  16  16
#     4  11  24  42  64  92 130 168 204 248 291 344
#     4  10  20  34  57  88 121 158 194 251 309 358
#     4  10  21  37  57  80 113 153 195 244 299 357
#     4  11  22  34  52  81 114 145 184 238 305 365
#     4  10  18  29  49  78 109 141 180 234 292 348
#     4  10  22  39  58  78 104 145 196 246 298 364
#     4  11  19  33  59  86 118 155 198 242 293 353
#
# _framework density 18.746267
#
# number of rings (size 3 to 8) (size 9 to 14) (size 15 to 20)
#    0.000    1.615    3.077    2.308    2.154    4.000 
#    0.000    2.308    0.000    1.846    0.000    4.308 
#    0.000    0.000    0.000    0.000    0.000    0.000 
#
# Total GULP energy -289658.349930 kJ/mol
# GULP energy per Si atom -5570.352883 kJ/mol
# Density = 1.870360 g / cm^3
# Si number density = 18.746267 Si / 1000 Ang^3
#
#
#
# Elastic Constant Matrix: (Units=GPa)
#
#
# Indices 1 2 3 4 5 6 
#
# 1 56.5473 36.4079 3.1128 0.0000 0.0000 0.0000
# 2 36.4079 147.7415 30.6425 0.0000 0.0000 0.0000
# 3 3.1128 30.6425 43.3752 0.0000 0.0000 0.0000
# 4 0.0000 0.0000 0.0000 8.8220 0.0000 0.0000
# 5 0.0000 0.0000 0.0000 0.0000 17.4344 0.0000
# 6 0.0000 0.0000 0.0000 0.0000 0.0000 33.7880
#
#
#
# Elastic Compliance Matrix: (Units=1/GPa)
#
#
# Indices 1 2 3 4 5 6 
#
# 1 0.021257 -0.005767 0.002549 0.000000 0.000000 0.000000
# 2 -0.005767 0.009495 -0.006294 0.000000 0.000000 0.000000
# 3 0.002549 -0.006294 0.027318 0.000000 0.000000 0.000000
# 4 0.000000 0.000000 0.000000 0.113353 0.000000 0.000000
# 5 0.000000 0.000000 0.000000 0.000000 0.057358 0.000000
# 6 0.000000 0.000000 0.000000 0.000000 0.000000 0.029596
#
#
# Mechanical properties :
#
#
# Convention : Reuss Voigt Hill
#
# Bulk Modulus (GPa) = 25.61106 43.11003 34.36054
# Shear Modulus (GPa) = 17.21657 23.84225 20.52941
#
# Velocity S-wave (km/s) = 3.03380 3.57016 3.31285
# Velocity P-wave (km/s) = 5.09544 6.32781 5.74477
#
# Compressibility (1/GPa) = 0.03904564
#
# Stress axis : x y z
#
# Youngs Moduli (GPa) = 47.04312 105.31693 36.60568
#
# Poissons Ratio (x) = 0.60736 -0.09329
# Poissons Ratio (y) = 0.27130 0.23040
# Poissons Ratio (z) = -0.11989 0.66286
#
# Static dielectric constant tensor:
#      x y z
#    x 1.680040 0.000000 0.000000 
#    y 0.000000 1.692170 0.000000 
#    z 0.000000 0.000000 1.649970 
# 
# From -- ./inp_files/63832.got.cif
#   From: 2010.05.17/outbox.cif.g08.bks.cpg/sg65_32_cif.got.tgz:63832.got - 2010.06.03 17:01:31.
