data_PCOD9483284
_publ_section_title
;
Structure prediction by ZEFSAII (Michael W. Deem and Ramdas Pophale) SiO2 
 PCOD9483284
Probable space group: C M M M
;
_chemical_formula_sum "Si O2"
_cell_formula_units_Z 104
_cell_length_a 14.517731
_cell_length_b 27.776124
_cell_length_c 18.737254
_cell_angle_alpha 90.000000
_cell_angle_beta 90.000000
_cell_angle_gamma 90.000000
_cell_volume 7555.728281
_symmetry_space_group_name_H-M "C M M M"
_symmetry_group_IT_number 65
_symmetry_cell_setting 'orthorhombic'
loop_
_space_group_symop_operation_xyz
x,y,z
-x,-y,z
x,-y,-z
-x,y,-z
-x,-y,-z
x,y,-z
-x,y,z
x,-y,z
1/2+x,1/2+y,z
1/2-x,1/2-y,z
1/2+x,1/2-y,-z
1/2-x,1/2+y,-z
1/2-x,1/2-y,-z
1/2+x,1/2+y,-z
1/2-x,1/2+y,z
1/2+x,1/2-y,z
loop_
_atom_site_type_symbol
_atom_site_label
_atom_site_fract_x
_atom_site_fract_y
_atom_site_fract_z
Si Si1 0.110750 0.113420 0.142631
Si Si2 0.606200 0.121847 0.079317
Si Si3 0.396998 0.942865 0.216432
Si Si4 0.702579 0.558091 0.274928
Si Si5 0.887996 0.944877 0.000000
Si Si6 0.892814 0.058384 0.421047
Si Si7 0.271803 0.304437 0.083700
O O1 0.150737 0.086217 0.211602
O O2 0.139328 0.083237 0.071639
O O3 0.154305 0.166058 0.130021
O O4 0.000000 0.114985 0.145982
O O5 0.500000 0.138544 0.083586
O O6 0.620233 0.083759 0.141823
O O7 0.677831 0.164928 0.087465
O O8 0.619724 0.100687 0.000000
O O9 0.500000 0.929434 0.241917
O O10 0.311385 0.932059 0.267473
O O11 0.396541 0.000000 0.204466
O O12 0.687970 0.500000 0.266457
O O13 0.664438 0.573270 0.352029
O O14 0.000000 0.945891 0.000000
O O15 0.855401 0.000000 0.000000
O O16 0.861482 0.074582 0.500000
O O17 0.000000 0.072078 0.412439
O O18 0.890254 0.000000 0.421849
O O19 0.250000 0.250000 0.105755
O O20 0.301681 0.303573 0.000000
#
# Coordination Sequence:
#
# PCOD9483284 Si02
#       7
#    16  16  16  16   8  16  16
#     4  11  20  30  43  63  89 115 147 182 220 264
#     4   9  17  30  45  59  76 102 143 187 221 255
#     4   9  17  28  42  61  85 112 142 178 220 259
#     4  10  18  28  44  66  91 121 150 176 213 261
#     4   9  18  30  41  56  85 121 148 169 202 256
#     4   8  14  25  41  62  89 120 151 178 204 244
#     4  10  20  33  46  59  78 108 149 190 227 263
#
# _framework density 13.764392000000001
#
# number of rings (size 3 to 8) (size 9 to 14) (size 15 to 20)
#    0.000    2.538    2.308    1.385    0.000    2.462 
#    0.000    3.077    0.000    0.462    0.000    3.231 
#    0.000    0.615    0.000    0.000    0.000    0.000 
#
# Total GULP energy -289580.071410 kJ/mol
# GULP energy per Si atom -5568.847527 kJ/mol
# Density = 1.373306 g / cm^3
# Si number density = 13.764392 Si / 1000 Ang^3
#
#
#
# Elastic Constant Matrix: (Units=GPa)
#
#
# Indices 1 2 3 4 5 6 
#
# 1 83.9531 30.8529 61.2994 0.0000 0.0000 0.0000
# 2 30.8529 44.3426 34.4929 0.0000 0.0000 0.0000
# 3 61.2994 34.4929 113.0676 0.0000 0.0000 0.0000
# 4 0.0000 0.0000 0.0000 2.2574 0.0000 0.0000
# 5 0.0000 0.0000 0.0000 0.0000 20.3238 0.0000
# 6 0.0000 0.0000 0.0000 0.0000 0.0000 12.6385
#
#
#
# Elastic Compliance Matrix: (Units=1/GPa)
#
#
# Indices 1 2 3 4 5 6 
#
# 1 0.021574 -0.007752 -0.009331 0.000000 0.000000 0.000000
# 2 -0.007752 0.032354 -0.005667 0.000000 0.000000 0.000000
# 3 -0.009331 -0.005667 0.015632 0.000000 0.000000 0.000000
# 4 0.000000 0.000000 0.000000 0.442980 0.000000 0.000000
# 5 0.000000 0.000000 0.000000 0.000000 0.049203 0.000000
# 6 0.000000 0.000000 0.000000 0.000000 0.000000 0.079123
#
#
# Mechanical properties :
#
#
# Convention : Reuss Voigt Hill
#
# Bulk Modulus (GPa) = 41.56549 54.96155 48.26352
# Shear Modulus (GPa) = 7.20060 14.69183 10.94622
#
# Velocity S-wave (km/s) = 2.28969 3.27062 2.82309
# Velocity P-wave (km/s) = 6.10358 7.36747 6.76510
#
# Compressibility (1/GPa) = 0.02405842
#
# Stress axis : x y z
#
# Youngs Moduli (GPa) = 46.35290 30.90822 63.97118
#
# Poissons Ratio (x) = 0.23960 0.59693
# Poissons Ratio (y) = 0.35933 0.36254
# Poissons Ratio (z) = 0.43253 0.17516
#
# Static dielectric constant tensor:
#      x y z
#    x 1.479730 0.000000 0.000000 
#    y 0.000000 1.431510 0.000000 
#    z 0.000000 0.000000 1.441000 
# 
# From -- ./inp_files/53626.got.cif
#   From: 2010.05.17/outbox.cif.g08.bks.cpg/sg65_27_cif.got.tgz:53626.got - 2010.06.03 17:01:31.
