data_PCOD9483644
_publ_section_title
;
Structure prediction by ZEFSAII (Michael W. Deem and Ramdas Pophale) SiO2 
 PCOD9483644
Probable space group: C M M M
;
_chemical_formula_sum "Si O2"
_cell_formula_units_Z 104
_cell_length_a 9.053646
_cell_length_b 30.539814
_cell_length_c 21.122876
_cell_angle_alpha 90.000000
_cell_angle_beta 90.000000
_cell_angle_gamma 90.000000
_cell_volume 5840.404766
_symmetry_space_group_name_H-M "C M M M"
_symmetry_group_IT_number 65
_symmetry_cell_setting 'orthorhombic'
loop_
_space_group_symop_operation_xyz
x,y,z
-x,-y,z
x,-y,-z
-x,y,-z
-x,-y,-z
x,y,-z
-x,y,z
x,-y,z
1/2+x,1/2+y,z
1/2-x,1/2-y,z
1/2+x,1/2-y,-z
1/2-x,1/2+y,-z
1/2-x,1/2-y,-z
1/2+x,1/2+y,-z
1/2-x,1/2+y,z
1/2+x,1/2-y,z
loop_
_atom_site_type_symbol
_atom_site_label
_atom_site_fract_x
_atom_site_fract_y
_atom_site_fract_z
Si Si1 0.331139 0.705732 0.408332
Si Si2 0.164516 0.500000 0.076033
Si Si3 0.322104 0.878999 0.792861
Si Si4 0.680877 0.904558 0.071552
Si Si5 0.167792 0.793270 0.743723
Si Si6 0.177224 0.612242 0.428839
Si Si7 0.320245 0.050732 0.689280
O O1 0.500000 0.704437 0.430271
O O2 0.250000 0.750000 0.430270
O O3 0.335536 0.708884 0.332221
O O4 0.249552 0.660282 0.423759
O O5 0.235664 0.453566 0.088591
O O6 0.000000 0.500000 0.106056
O O7 0.146708 0.500000 0.000000
O O8 0.500000 0.877788 0.790390
O O9 0.277880 0.877603 0.866754
O O10 0.255734 0.836636 0.760537
O O11 0.277024 0.921960 0.752290
O O12 0.500000 0.906869 0.069494
O O13 0.727460 0.892473 0.000000
O O14 0.250000 0.750000 0.767717
O O15 0.000000 0.795091 0.767106
O O16 0.207340 0.595016 0.500000
O O17 0.225358 0.579368 0.372498
O O18 0.000000 0.617516 0.422521
O O19 0.500000 0.049544 0.688320
O O20 0.270022 0.000000 0.688576
#
# Coordination Sequence:
#
# PCOD9483644 Si02
#       7
#    16   8  16  16  16  16  16
#     4  10  20  34  54  77 103 132 162 203 254 308
#     4   7  10  18  32  56  95 133 162 196 237 284
#     4  10  18  29  51  77 104 135 167 209 254 295
#     4   8  14  23  38  66 102 136 168 203 247 297
#     4  10  20  34  54  78 103 130 164 206 254 305
#     4  10  20  34  52  73 101 136 172 211 252 295
#     4   9  18  31  48  74 104 133 172 216 251 287
#
# _framework density 17.806985999999998
#
# number of rings (size 3 to 8) (size 9 to 14) (size 15 to 20)
#    0.000    2.692    1.538    1.846    1.077    2.154 
#    0.000    1.538    0.000    2.769    0.000    1.077 
#    0.000    1.846    0.000    0.000    0.000    0.000 
#
# Total GULP energy -289476.414271 kJ/mol
# GULP energy per Si atom -5566.854121 kJ/mol
# Density = 1.776646 g / cm^3
# Si number density = 17.806986 Si / 1000 Ang^3
#
#
#
# Elastic Constant Matrix: (Units=GPa)
#
#
# Indices 1 2 3 4 5 6 
#
# 1 21.6558 26.3907 28.8170 0.0000 0.0000 0.0000
# 2 26.3907 121.4971 53.0459 0.0000 0.0000 0.0000
# 3 28.8170 53.0459 109.6606 0.0000 0.0000 0.0000
# 4 0.0000 0.0000 0.0000 -0.0576 0.0000 0.0000
# 5 0.0000 0.0000 0.0000 0.0000 6.3043 0.0000
# 6 0.0000 0.0000 0.0000 0.0000 0.0000 13.4465
#
#
#
# Elastic Compliance Matrix: (Units=1/GPa)
#
#
# Indices 1 2 3 4 5 6 
#
# 1 0.080221 -0.010422 -0.016039 0.000000 0.000000 0.000000
# 2 -0.010422 0.011788 -0.002964 0.000000 0.000000 0.000000
# 3 -0.016039 -0.002964 0.014767 0.000000 0.000000 0.000000
# 4 0.000000 0.000000 0.000000-17.367863 0.000000 0.000000
# 5 0.000000 0.000000 0.000000 0.000000 0.158621 0.000000
# 6 0.000000 0.000000 0.000000 0.000000 0.000000 0.074369
#
#
# Mechanical properties :
#
#
# Convention : Reuss Voigt Hill
#
# Bulk Modulus (GPa) = 20.86512 52.14675 36.50594
# Shear Modulus (GPa) = -0.29493 13.57598 6.64053
#
# Velocity S-wave (km/s) = -0.40741 2.76415 1.93320
# Velocity P-wave (km/s) = 3.39433 6.28771 5.05257
#
# Compressibility (1/GPa) = 0.04792687
#
# Stress axis : x y z
#
# Youngs Moduli (GPa) = 12.46552 84.82916 67.71638
#
# Poissons Ratio (x) = 0.88411 1.08612
# Poissons Ratio (y) = 0.12992 0.20068
# Poissons Ratio (z) = 0.19994 0.25140
#
# Static dielectric constant tensor:
#      x y z
#    x 1.609540 0.000000 0.000000 
#    y 0.000000 1.602910 0.000000 
#    z 0.000000 0.000000 1.635690 
# 
# From -- ./inp_files/60801.got.cif
#   From: 2010.05.17/outbox.cif.g08.bks.cpg/sg65_31_cif.got.tgz:60801.got - 2010.06.03 17:01:31.
