data_PCOD9483830
_publ_section_title
;
Structure prediction by ZEFSAII (Michael W. Deem and Ramdas Pophale) SiO2 
 PCOD9483830
Probable space group: C M M M
;
_chemical_formula_sum "Si O2"
_cell_formula_units_Z 72
_cell_length_a 8.476464
_cell_length_b 19.871748
_cell_length_c 24.060937
_cell_angle_alpha 90.000000
_cell_angle_beta 90.000000
_cell_angle_gamma 90.000000
_cell_volume 4052.876117
_symmetry_space_group_name_H-M "C M M M"
_symmetry_group_IT_number 65
_symmetry_cell_setting 'orthorhombic'
loop_
_space_group_symop_operation_xyz
x,y,z
-x,-y,z
x,-y,-z
-x,y,-z
-x,-y,-z
x,y,-z
-x,y,z
x,-y,z
1/2+x,1/2+y,z
1/2-x,1/2-y,z
1/2+x,1/2-y,-z
1/2-x,1/2+y,-z
1/2-x,1/2-y,-z
1/2+x,1/2+y,-z
1/2-x,1/2+y,z
1/2+x,1/2-y,z
loop_
_atom_site_type_symbol
_atom_site_label
_atom_site_fract_x
_atom_site_fract_y
_atom_site_fract_z
Si Si1 0.690724 0.825522 0.937324
Si Si2 0.187887 0.326900 0.500000
Si Si3 0.690597 0.922495 0.838844
Si Si4 0.689429 0.326611 0.382628
Si Si5 0.690399 0.577642 0.717768
O O1 0.500000 0.825170 0.936496
O O2 0.750000 0.750000 0.927386
O O3 0.745913 0.875556 0.889134
O O4 0.740169 0.845460 0.000000
O O5 0.250000 0.250000 0.500000
O O6 0.250765 0.355157 0.558227
O O7 0.000000 0.326897 0.500000
O O8 0.500000 0.921481 0.838377
O O9 0.749857 0.900335 0.778316
O O10 0.741386 0.000000 0.846902
O O11 0.500000 0.324667 0.384024
O O12 0.750000 0.250000 0.376251
O O13 0.742436 0.373209 0.331558
O O14 0.500000 0.577999 0.718377
O O15 0.742132 0.500000 0.709036
#
# Coordination Sequence:
#
# PCOD9483830 Si02
#       5
#    16   8  16  16  16
#     4   9  18  32  49  70  97 127 158 194 237 284
#     4  10  18  30  49  72  99 127 157 195 237 280
#     4   9  18  32  50  71  94 123 159 198 239 281
#     4  10  19  32  51  73  97 125 159 197 236 281
#     4   9  19  35  52  70  95 128 162 196 236 281
#
# _framework density 17.765162
#
# number of rings (size 3 to 8) (size 9 to 14) (size 15 to 20)
#    0.000    2.667    0.000    3.000    0.000    4.000 
#    0.000    7.222    0.000    3.333    0.000    6.222 
#    0.000    0.000    0.000    0.000    0.000    0.000 
#
# Total GULP energy -200692.148633 kJ/mol
# GULP energy per Si atom -5574.781906 kJ/mol
# Density = 1.772473 g / cm^3
# Si number density = 17.765162 Si / 1000 Ang^3
#
#
#
# Elastic Constant Matrix: (Units=GPa)
#
#
# Indices 1 2 3 4 5 6 
#
# 1 29.2629 17.4817 30.5133 0.0000 0.0000 0.0000
# 2 17.4817 71.4348 105.0906 0.0000 0.0000 0.0000
# 3 30.5133 105.0906 217.1992 0.0000 0.0000 0.0000
# 4 0.0000 0.0000 0.0000 -60.8002 0.0000 0.0000
# 5 0.0000 0.0000 0.0000 0.0000 29.4539 0.0000
# 6 0.0000 0.0000 0.0000 0.0000 0.0000 20.4164
#
#
#
# Elastic Compliance Matrix: (Units=1/GPa)
#
#
# Indices 1 2 3 4 5 6 
#
# 1 0.040622 -0.005363 -0.003112 0.000000 0.000000 0.000000
# 2 -0.005363 0.049282 -0.023091 0.000000 0.000000 0.000000
# 3 -0.003112 -0.023091 0.016214 0.000000 0.000000 0.000000
# 4 0.000000 0.000000 0.000000 -0.016447 0.000000 0.000000
# 5 0.000000 0.000000 0.000000 0.000000 0.033951 0.000000
# 6 0.000000 0.000000 0.000000 0.000000 0.000000 0.048980
#
#
# Mechanical properties :
#
#
# Convention : Reuss Voigt Hill
#
# Bulk Modulus (GPa) = 23.26394 69.34088 46.30241
# Shear Modulus (GPa) = 19.99505 8.80144 14.39824
#
# Velocity S-wave (km/s) = 3.35852 2.22825 2.84998
# Velocity P-wave (km/s) = 5.30690 6.76290 6.07865
#
# Compressibility (1/GPa) = 0.04298498
#
# Stress axis : x y z
#
# Youngs Moduli (GPa) = 24.61737 20.29154 61.67588
#
# Poissons Ratio (x) = 0.10882 0.19193
# Poissons Ratio (y) = 0.13202 1.42417
# Poissons Ratio (z) = 0.07661 0.46856
#
# Static dielectric constant tensor:
#      x y z
#    x 1.611340 0.000000 0.000000 
#    y 0.000000 1.586750 0.000000 
#    z 0.000000 0.000000 1.618840 
# 
# From -- ./inp_files/56462.got.cif
#   From: 2010.05.17/outbox.cif.g08.bks.cpg/sg65_29_cif.got.tgz:56462.got - 2010.06.03 17:01:31.
