data_PCOD9483364
_publ_section_title
;
Structure prediction by ZEFSAII (Michael W. Deem and Ramdas Pophale) SiO2 
 PCOD9483364
Probable space group: C M M M
;
_chemical_formula_sum "Si O2"
_cell_formula_units_Z 72
_cell_length_a 20.643407
_cell_length_b 17.119856
_cell_length_c 8.448703
_cell_angle_alpha 90.000000
_cell_angle_beta 90.000000
_cell_angle_gamma 90.000000
_cell_volume 2985.874336
_symmetry_space_group_name_H-M "C M M M"
_symmetry_group_IT_number 65
_symmetry_cell_setting 'orthorhombic'
loop_
_space_group_symop_operation_xyz
x,y,z
-x,-y,z
x,-y,-z
-x,y,-z
-x,-y,-z
x,y,-z
-x,y,z
x,-y,z
1/2+x,1/2+y,z
1/2-x,1/2-y,z
1/2+x,1/2-y,-z
1/2-x,1/2+y,-z
1/2-x,1/2-y,-z
1/2+x,1/2+y,-z
1/2-x,1/2+y,z
1/2+x,1/2-y,z
loop_
_atom_site_type_symbol
_atom_site_label
_atom_site_fract_x
_atom_site_fract_y
_atom_site_fract_z
Si Si1 0.426648 0.165616 0.812294
Si Si2 0.102180 0.907138 0.500000
Si Si3 0.921466 0.500000 0.679316
Si Si4 0.890255 0.163192 0.179439
Si Si5 0.249930 0.157429 0.500000
Si Si6 0.744854 0.906144 0.828003
O O1 0.500000 0.176162 0.745037
O O2 0.402639 0.080499 0.761401
O O3 0.387701 0.244759 0.778769
O O4 0.432476 0.162266 0.000000
O O5 0.075976 0.876516 0.331157
O O6 0.176807 0.876896 0.500000
O O7 0.100596 0.000000 0.500000
O O8 0.898482 0.500000 0.500000
O O9 0.000000 0.500000 0.680702
O O10 0.818959 0.125431 0.167541
O O11 0.918651 0.155858 0.000000
O O12 0.250000 0.250000 0.500000
O O13 0.280412 0.127747 0.663190
O O14 0.744966 0.000000 0.819733
O O15 0.715988 0.882466 0.000000
#
# Coordination Sequence:
#
# PCOD9483364 Si02
#       6
#    16   8   8  16   8  16
#     4   9  17  29  45  67  94 124 161 204 246 284
#     4  10  20  34  53  75  96 122 159 196 229 278
#     4   9  17  27  41  63  89 119 155 201 247 287
#     4   9  17  29  48  72  96 126 161 200 239 275
#     4  10  18  28  46  75 101 118 143 189 238 276
#     4   9  17  31  51  73  96 125 163 197 226 271
#
# _framework density 24.11354
#
# number of rings (size 3 to 8) (size 9 to 14) (size 15 to 20)
#    0.000    2.778    0.000    3.333    1.556    3.111 
#    0.000    0.000    0.000    3.333   34.667   14.000 
#    0.000    0.000    0.000    0.000    0.000    0.000 
#
# Total GULP energy -201057.630633 kJ/mol
# GULP energy per Si atom -5584.934184 kJ/mol
# Density = 2.405866 g / cm^3
# Si number density = 24.113540 Si / 1000 Ang^3
#
#
#
# Elastic Constant Matrix: (Units=GPa)
#
#
# Indices 1 2 3 4 5 6 
#
# 1 74.8931 21.1055 15.5590 0.0000 0.0000 0.0000
# 2 21.1055 213.9625 104.9257 0.0000 0.0000 0.0000
# 3 15.5590 104.9257 235.0310 0.0000 0.0000 0.0000
# 4 0.0000 0.0000 0.0000 45.8632 0.0000 0.0000
# 5 0.0000 0.0000 0.0000 0.0000 0.3739 0.0000
# 6 0.0000 0.0000 0.0000 0.0000 0.0000 313.6383
#
#
#
# Elastic Compliance Matrix: (Units=1/GPa)
#
#
# Indices 1 2 3 4 5 6 
#
# 1 0.013762 -0.001166 -0.000391 0.000000 0.000000 0.000000
# 2 -0.001166 0.006083 -0.002638 0.000000 0.000000 0.000000
# 3 -0.000391 -0.002638 0.005458 0.000000 0.000000 0.000000
# 4 0.000000 0.000000 0.000000 0.021804 0.000000 0.000000
# 5 0.000000 0.000000 0.000000 0.000000 2.674590 0.000000
# 6 0.000000 0.000000 0.000000 0.000000 0.000000 0.003188
#
#
# Mechanical properties :
#
#
# Convention : Reuss Voigt Hill
#
# Bulk Modulus (GPa) = 59.12442 89.67412 74.39927
# Shear Modulus (GPa) = 1.82554 97.46150 49.64352
#
# Velocity S-wave (km/s) = 0.87104 6.36439 4.54226
# Velocity P-wave (km/s) = 5.05806 9.55387 7.64396
#
# Compressibility (1/GPa) = 0.01691349
#
# Stress axis : x y z
#
# Youngs Moduli (GPa) = 72.66346 164.40582 183.20347
#
# Poissons Ratio (x) = 0.19170 0.07154
# Poissons Ratio (y) = 0.08473 0.48334
# Poissons Ratio (z) = 0.02838 0.43374
#
# Static dielectric constant tensor:
#      x y z
#    x 1.944250 0.000000 0.000000 
#    y 0.000000 1.843580 0.000000 
#    z 0.000000 0.000000 1.964190 
# 
# From -- ./inp_files/15835.got.cif
#   From: 2010.05.17/outbox.cif.g08.bks.cpg/sg65_8_cif.got.tgz:15835.got - 2010.06.03 17:01:31.
