data_PCOD9483149
_publ_section_title
;
Structure prediction by ZEFSAII (Michael W. Deem and Ramdas Pophale) SiO2 
 PCOD9483149
Probable space group: C M M M
;
_chemical_formula_sum "Si O2"
_cell_formula_units_Z 112
_cell_length_a 29.010222
_cell_length_b 16.230046
_cell_length_c 17.277528
_cell_angle_alpha 90.000000
_cell_angle_beta 90.000000
_cell_angle_gamma 90.000000
_cell_volume 8134.903555
_symmetry_space_group_name_H-M "C M M M"
_symmetry_group_IT_number 65
_symmetry_cell_setting 'orthorhombic'
loop_
_space_group_symop_operation_xyz
x,y,z
-x,-y,z
x,-y,-z
-x,y,-z
-x,-y,-z
x,y,-z
-x,y,z
x,-y,z
1/2+x,1/2+y,z
1/2-x,1/2-y,z
1/2+x,1/2-y,-z
1/2-x,1/2+y,-z
1/2-x,1/2-y,-z
1/2+x,1/2+y,-z
1/2-x,1/2+y,z
1/2+x,1/2-y,z
loop_
_atom_site_type_symbol
_atom_site_label
_atom_site_fract_x
_atom_site_fract_y
_atom_site_fract_z
Si Si1 0.181911 0.407126 0.500000
Si Si2 0.806228 0.243568 0.910255
Si Si3 0.143410 0.655856 0.336660
Si Si4 0.703372 0.306888 0.344770
Si Si5 0.819151 0.408932 0.823974
Si Si6 0.792534 0.904901 0.500000
Si Si7 0.946445 0.401038 0.590531
Si Si8 0.708921 0.592128 0.191974
O O1 0.163577 0.500000 0.500000
O O2 0.166141 0.368058 0.580641
O O3 0.236949 0.407976 0.500000
O O4 0.750000 0.250000 0.906722
O O5 0.828658 0.325744 0.872908
O O6 0.815135 0.160846 0.861337
O O7 0.818943 0.236174 0.000000
O O8 0.161294 0.747670 0.322793
O O9 0.162574 0.604314 0.263751
O O10 0.089594 0.641868 0.352534
O O11 0.750000 0.250000 0.346894
O O12 0.694624 0.352224 0.425111
O O13 0.708149 0.375313 0.279326
O O14 0.835186 0.500000 0.851388
O O15 0.763546 0.411347 0.825844
O O16 0.808925 0.000000 0.500000
O O17 0.936466 0.380618 0.500000
O O18 0.941200 0.500000 0.597895
O O19 0.000000 0.381218 0.605096
O O20 0.690167 0.500000 0.183311
#
# Coordination Sequence:
#
# PCOD9483149 Si02
#       8
#     8  16  16  16  16   8  16  16
#     4  11  19  25  36  58  81 113 155 184 205 251
#     4   9  17  30  43  58  82 113 150 189 222 258
#     4  12  19  27  44  61  86 116 153 182 224 267
#     4  12  19  30  40  58  87 117 151 188 222 259
#     4  10  18  27  42  63  85 115 150 182 218 265
#     4  11  22  30  36  54  85 124 158 185 220 258
#     4   9  18  31  44  61  86 114 147 190 232 266
#     4  10  18  30  43  57  83 118 152 187 222 255
#
# _framework density 13.767833
#
# number of rings (size 3 to 8) (size 9 to 14) (size 15 to 20)
#    0.000    1.571    5.000    3.214    0.000    2.857 
#    0.000    2.857    0.000    0.000    0.000    0.000 
#    0.000    3.429    0.000    3.000    0.000    1.857 
#
# Total GULP energy -311897.778247 kJ/mol
# GULP energy per Si atom -5569.603183 kJ/mol
# Density = 1.373650 g / cm^3
# Si number density = 13.767833 Si / 1000 Ang^3
#
#
#
# Elastic Constant Matrix: (Units=GPa)
#
#
# Indices 1 2 3 4 5 6 
#
# 1 39.3446 14.6565 -2.5775 0.0000 0.0000 0.0000
# 2 14.6565 107.4700 44.4586 0.0000 0.0000 0.0000
# 3 -2.5775 44.4586 73.2308 0.0000 0.0000 0.0000
# 4 0.0000 0.0000 0.0000 -42.7704 0.0000 0.0000
# 5 0.0000 0.0000 0.0000 0.0000 6.2893 0.0000
# 6 0.0000 0.0000 0.0000 0.0000 0.0000 10.7811
#
#
#
# Elastic Compliance Matrix: (Units=1/GPa)
#
#
# Indices 1 2 3 4 5 6 
#
# 1 0.027790 -0.005601 0.004379 0.000000 0.000000 0.000000
# 2 -0.005601 0.013555 -0.008426 0.000000 0.000000 0.000000
# 3 0.004379 -0.008426 0.018925 0.000000 0.000000 0.000000
# 4 0.000000 0.000000 0.000000 -0.023381 0.000000 0.000000
# 5 0.000000 0.000000 0.000000 0.000000 0.159001 0.000000
# 6 0.000000 0.000000 0.000000 0.000000 0.000000 0.092755
#
#
# Mechanical properties :
#
#
# Convention : Reuss Voigt Hill
#
# Bulk Modulus (GPa) = 24.40692 37.01340 30.71016
# Shear Modulus (GPa) = 15.54728 5.76050 10.65389
#
# Velocity S-wave (km/s) = 3.36407 2.04771 2.78479
# Velocity P-wave (km/s) = 5.73195 5.70378 5.71789
#
# Compressibility (1/GPa) = 0.04097199
#
# Stress axis : x y z
#
# Youngs Moduli (GPa) = 35.98433 73.77577 52.83979
#
# Poissons Ratio (x) = 0.41324 -0.23137
# Poissons Ratio (y) = 0.20156 0.44524
# Poissons Ratio (z) = -0.15756 0.62165
#
# Static dielectric constant tensor:
#      x y z
#    x 1.436740 0.000000 0.000000 
#    y 0.000000 1.491300 0.000000 
#    z 0.000000 0.000000 1.482680 
# 
# From -- ./inp_files/58306.got.cif
#   From: 2010.05.17/outbox.cif.g08.bks.cpg/sg65_30_cif.got.tgz:58306.got - 2010.06.03 17:01:31.
