data_PCOD9483340
_publ_section_title
;
Structure prediction by ZEFSAII (Michael W. Deem and Ramdas Pophale) SiO2 
 PCOD9483340
Probable space group: C M M M
;
_chemical_formula_sum "Si O2"
_cell_formula_units_Z 80
_cell_length_a 19.329413
_cell_length_b 27.932356
_cell_length_c 7.454049
_cell_angle_alpha 90.000000
_cell_angle_beta 90.000000
_cell_angle_gamma 90.000000
_cell_volume 4024.560657
_symmetry_space_group_name_H-M "C M M M"
_symmetry_group_IT_number 65
_symmetry_cell_setting 'orthorhombic'
loop_
_space_group_symop_operation_xyz
x,y,z
-x,-y,z
x,-y,-z
-x,y,-z
-x,-y,-z
x,y,-z
-x,y,z
x,-y,z
1/2+x,1/2+y,z
1/2-x,1/2-y,z
1/2+x,1/2-y,-z
1/2-x,1/2+y,-z
1/2-x,1/2-y,-z
1/2+x,1/2+y,-z
1/2-x,1/2+y,z
1/2+x,1/2-y,z
loop_
_atom_site_type_symbol
_atom_site_label
_atom_site_fract_x
_atom_site_fract_y
_atom_site_fract_z
Si Si1 0.922136 0.150150 0.219821
Si Si2 0.789670 0.795076 0.793512
Si Si3 0.787244 0.391175 0.287626
Si Si4 0.850775 0.946769 0.215514
Si Si5 0.422205 0.055261 0.718813
O O1 0.862677 0.186557 0.283440
O O2 0.899346 0.096747 0.277760
O O3 0.000000 0.161398 0.274713
O O4 0.920136 0.150140 0.000000
O O5 0.750000 0.750000 0.710855
O O6 0.740606 0.841693 0.792102
O O7 0.804841 0.781860 0.000000
O O8 0.793086 0.383276 0.500000
O O9 0.727518 0.430604 0.257060
O O10 0.860262 0.410924 0.219274
O O11 0.865628 0.000000 0.284100
O O12 0.857305 0.948130 0.000000
O O13 0.420994 0.055656 0.500000
O O14 0.500000 0.069060 0.773804
O O15 0.410370 0.000000 0.772512
#
# Coordination Sequence:
#
# PCOD9483340 Si02
#       5
#    16  16  16  16  16
#     4   8  14  26  45  67  88 113 149 186 215 252
#     4   9  18  33  50  66  87 115 146 183 228 272
#     4  10  18  28  46  69  90 114 149 189 223 261
#     4   9  17  28  43  65  93 123 151 180 216 257
#     4   8  14  25  41  62  89 120 151 180 211 252
#
# _framework density 19.877946000000001
#
# number of rings (size 3 to 8) (size 9 to 14) (size 15 to 20)
#    0.000    3.200    0.000    3.000    0.000    2.000 
#    0.000    3.000    0.000   13.200    0.000   12.600 
#    0.000    0.000    0.000    0.000    0.000    0.000 
#
# Total GULP energy -223015.228719 kJ/mol
# GULP energy per Si atom -5575.380718 kJ/mol
# Density = 1.983270 g / cm^3
# Si number density = 19.877946 Si / 1000 Ang^3
#
#
#
# Elastic Constant Matrix: (Units=GPa)
#
#
# Indices 1 2 3 4 5 6 
#
# 1 189.1071 89.8031 -1.6112 0.0000 0.0000 0.0000
# 2 89.8031 118.9383 1.1565 0.0000 0.0000 0.0000
# 3 -1.6112 1.1565 61.1652 0.0000 0.0000 0.0000
# 4 0.0000 0.0000 0.0000 23.5952 0.0000 0.0000
# 5 0.0000 0.0000 0.0000 0.0000 11.8150 0.0000
# 6 0.0000 0.0000 0.0000 0.0000 0.0000 1.5642
#
#
#
# Elastic Compliance Matrix: (Units=1/GPa)
#
#
# Indices 1 2 3 4 5 6 
#
# 1 0.008251 -0.006233 0.000335 0.000000 0.000000 0.000000
# 2 -0.006233 0.013118 -0.000412 0.000000 0.000000 0.000000
# 3 0.000335 -0.000412 0.016366 0.000000 0.000000 0.000000
# 4 0.000000 0.000000 0.000000 0.042382 0.000000 0.000000
# 5 0.000000 0.000000 0.000000 0.000000 0.084638 0.000000
# 6 0.000000 0.000000 0.000000 0.000000 0.000000 0.639324
#
#
# Mechanical properties :
#
#
# Convention : Reuss Voigt Hill
#
# Bulk Modulus (GPa) = 39.81762 60.87860 50.34811
# Shear Modulus (GPa) = 6.06010 26.05235 16.05622
#
# Velocity S-wave (km/s) = 1.74793 3.62417 2.84516
# Velocity P-wave (km/s) = 4.91409 6.94302 6.01472
#
# Compressibility (1/GPa) = 0.02511451
#
# Stress axis : x y z
#
# Youngs Moduli (GPa) = 121.20127 76.23226 61.10303
#
# Poissons Ratio (x) = 0.47515 -0.02048
# Poissons Ratio (y) = 0.75543 0.02519
# Poissons Ratio (z) = -0.04063 0.03142
#
# Static dielectric constant tensor:
#      x y z
#    x 1.694160 0.000000 0.000000 
#    y 0.000000 1.684000 0.000000 
#    z 0.000000 0.000000 1.744690 
# 
# From -- ./inp_files/9621.got.cif
#   From: 2010.05.17/outbox.cif.g08.bks.cpg/sg65_5_cif.got.tgz:9621.got - 2010.06.03 17:01:31.
