data_PCOD9483578
_publ_section_title
;
Structure prediction by ZEFSAII (Michael W. Deem and Ramdas Pophale) SiO2 
 PCOD9483578
Probable space group: C M M M
;
_chemical_formula_sum "Si O2"
_cell_formula_units_Z 80
_cell_length_a 21.283524
_cell_length_b 25.806873
_cell_length_c 8.626967
_cell_angle_alpha 90.000000
_cell_angle_beta 90.000000
_cell_angle_gamma 90.000000
_cell_volume 4738.458254
_symmetry_space_group_name_H-M "C M M M"
_symmetry_group_IT_number 65
_symmetry_cell_setting 'orthorhombic'
loop_
_space_group_symop_operation_xyz
x,y,z
-x,-y,z
x,-y,-z
-x,y,-z
-x,-y,-z
x,y,-z
-x,y,z
x,-y,z
1/2+x,1/2+y,z
1/2-x,1/2-y,z
1/2+x,1/2-y,-z
1/2-x,1/2+y,-z
1/2-x,1/2-y,-z
1/2+x,1/2+y,-z
1/2-x,1/2+y,z
1/2+x,1/2-y,z
loop_
_atom_site_type_symbol
_atom_site_label
_atom_site_fract_x
_atom_site_fract_y
_atom_site_fract_z
Si Si1 0.569067 0.775300 0.687063
Si Si2 0.112310 0.611963 0.311986
Si Si3 0.397568 0.000000 0.680084
Si Si4 0.244286 0.000000 0.679435
Si Si5 0.753597 0.891017 0.814591
Si Si6 0.310652 0.283591 0.813204
O O1 0.571349 0.774676 0.500000
O O2 0.500000 0.757217 0.736930
O O3 0.578164 0.835402 0.735462
O O4 0.626153 0.741234 0.748703
O O5 0.111824 0.609325 0.500000
O O6 0.085157 0.556544 0.254162
O O7 0.184363 0.616644 0.257467
O O8 0.321017 0.000000 0.684878
O O9 0.417768 0.000000 0.500000
O O10 0.223190 0.947120 0.759877
O O11 0.226536 0.000000 0.500000
O O12 0.797205 0.842916 0.767407
O O13 0.747273 0.890440 0.000000
O O14 0.250000 0.250000 0.763095
O O15 0.313164 0.281212 0.000000
#
# Coordination Sequence:
#
# PCOD9483578 Si02
#       6
#    16  16   8   8  16  16
#     4  10  21  34  48  70 100 134 174 215 255 303
#     4   9  16  28  45  65  94 130 168 207 249 293
#     4   7  12  23  40  61  85 119 159 197 234 279
#     4   9  17  29  45  70 103 130 158 194 246 304
#     4  10  18  29  48  73 100 127 163 207 247 291
#     4  10  20  34  51  74 101 130 170 212 251 301
#
# _framework density 16.883127999999999
#
# number of rings (size 3 to 8) (size 9 to 14) (size 15 to 20)
#    0.000    2.600    2.000    2.100    0.000    2.400 
#    0.000    0.500    0.000    3.000    0.000    0.700 
#    0.000   12.000    0.000    0.000    0.000    0.000 
#
# Total GULP energy -222905.869171 kJ/mol
# GULP energy per Si atom -5572.646729 kJ/mol
# Density = 1.684470 g / cm^3
# Si number density = 16.883128 Si / 1000 Ang^3
#
#
#
# Elastic Constant Matrix: (Units=GPa)
#
#
# Indices 1 2 3 4 5 6 
#
# 1 97.6896 63.3448 12.5034 0.0000 0.0000 0.0000
# 2 63.3448 135.7988 21.3477 0.0000 0.0000 0.0000
# 3 12.5034 21.3477 8.6106 0.0000 0.0000 0.0000
# 4 0.0000 0.0000 0.0000 22.8815 0.0000 0.0000
# 5 0.0000 0.0000 0.0000 0.0000 39.0950 0.0000
# 6 0.0000 0.0000 0.0000 0.0000 0.0000 9.9943
#
#
#
# Elastic Compliance Matrix: (Units=1/GPa)
#
#
# Indices 1 2 3 4 5 6 
#
# 1 0.014946 -0.005833 -0.007240 0.000000 0.000000 0.000000
# 2 -0.005833 0.014344 -0.027090 0.000000 0.000000 0.000000
# 3 -0.007240 -0.027090 0.193814 0.000000 0.000000 0.000000
# 4 0.000000 0.000000 0.000000 0.043703 0.000000 0.000000
# 5 0.000000 0.000000 0.000000 0.000000 0.025579 0.000000
# 6 0.000000 0.000000 0.000000 0.000000 0.000000 0.100057
#
#
# Mechanical properties :
#
#
# Convention : Reuss Voigt Hill
#
# Bulk Modulus (GPa) = 7.00402 48.49897 27.75150
# Shear Modulus (GPa) = 9.60868 24.05435 16.83152
#
# Velocity S-wave (km/s) = 2.38823 3.77869 3.16087
# Velocity P-wave (km/s) = 3.42964 6.91568 5.45844
#
# Compressibility (1/GPa) = 0.14277509
#
# Stress axis : x y z
#
# Youngs Moduli (GPa) = 66.90853 69.71778 5.15958
#
# Poissons Ratio (x) = 0.40669 0.03736
# Poissons Ratio (y) = 0.39031 0.13978
# Poissons Ratio (z) = 0.48444 1.88868
#
# Static dielectric constant tensor:
#      x y z
#    x 1.546300 0.000000 0.000000 
#    y 0.000000 1.609510 0.000000 
#    z 0.000000 0.000000 1.575550 
# 
# From -- ./inp_files/11555.got.cif
#   From: 2010.05.17/outbox.cif.g08.bks.cpg/sg65_6_cif.got.tgz:11555.got - 2010.06.03 17:01:31.
