data_PCOD9483174
_publ_section_title
;
Structure prediction by ZEFSAII (Michael W. Deem and Ramdas Pophale) SiO2 
 PCOD9483174
Probable space group: C M M M
;
_chemical_formula_sum "Si O2"
_cell_formula_units_Z 120
_cell_length_a 18.212929
_cell_length_b 22.280733
_cell_length_c 18.533751
_cell_angle_alpha 90.000000
_cell_angle_beta 90.000000
_cell_angle_gamma 90.000000
_cell_volume 7520.948120
_symmetry_space_group_name_H-M "C M M M"
_symmetry_group_IT_number 65
_symmetry_cell_setting 'orthorhombic'
loop_
_space_group_symop_operation_xyz
x,y,z
-x,-y,z
x,-y,-z
-x,y,-z
-x,-y,-z
x,y,-z
-x,y,z
x,-y,z
1/2+x,1/2+y,z
1/2-x,1/2-y,z
1/2+x,1/2-y,-z
1/2-x,1/2+y,-z
1/2-x,1/2-y,-z
1/2+x,1/2+y,-z
1/2-x,1/2+y,z
1/2+x,1/2-y,z
loop_
_atom_site_type_symbol
_atom_site_label
_atom_site_fract_x
_atom_site_fract_y
_atom_site_fract_z
Si Si1 0.000000 0.431894 0.914070
Si Si2 0.584697 0.724920 0.828166
Si Si3 0.779274 0.185164 0.584651
Si Si4 0.915772 0.570270 0.286827
Si Si5 0.119291 0.349241 0.414869
Si Si6 0.635141 0.861658 0.153646
Si Si7 0.417070 0.281135 0.655431
Si Si8 0.219135 0.818513 0.083765
O O1 0.925281 0.399886 0.889207
O O2 0.000000 0.500000 0.886419
O O3 0.000000 0.432488 0.000000
O O4 0.500000 0.712366 0.848274
O O5 0.604099 0.794035 0.845150
O O6 0.590945 0.720973 0.741577
O O7 0.644476 0.684464 0.869666
O O8 0.796172 0.191651 0.500000
O O9 0.750000 0.250000 0.611114
O O10 0.707846 0.144526 0.591762
O O11 0.854698 0.174846 0.625190
O O12 0.897191 0.500000 0.285663
O O13 0.913222 0.598168 0.366556
O O14 0.865725 0.609982 0.233767
O O15 0.000000 0.577401 0.260794
O O16 0.100986 0.349378 0.500000
O O17 0.095518 0.285129 0.380062
O O18 0.715887 0.858152 0.118792
O O19 0.500000 0.299327 0.637706
O O20 0.250000 0.750000 0.084673
O O21 0.206374 0.834555 0.000000
#
# Coordination Sequence:
#
# PCOD9483174 Si02
#       8
#     8  16  16  16  16  16  16  16
#     4  11  22  34  52  74  97 129 167 207 249 289
#     4  10  19  31  48  73 100 133 164 193 239 294
#     4   8  16  28  42  62  89 121 156 195 238 282
#     4  11  22  34  49  69  94 127 168 210 248 287
#     4  10  20  32  47  65  92 130 169 204 241 285
#     4  11  19  34  51  68  97 132 165 204 243 289
#     4  10  18  27  44  69  96 125 161 194 229 282
#     4   9  20  33  48  73  98 127 165 198 236 296
#
# _framework density 15.955436000000001
#
# number of rings (size 3 to 8) (size 9 to 14) (size 15 to 20)
#    0.000    2.067    2.667    2.400    1.867    4.533 
#    0.000    0.667    0.000    0.000    0.000    0.000 
#    0.000    3.733    0.000    9.467    0.000    0.000 
#
# Total GULP energy -334290.167018 kJ/mol
# GULP energy per Si atom -5571.502784 kJ/mol
# Density = 1.591912 g / cm^3
# Si number density = 15.955436 Si / 1000 Ang^3
#
#
#
# Elastic Constant Matrix: (Units=GPa)
#
#
# Indices 1 2 3 4 5 6 
#
# 1 132.2134 27.2806 62.2574 0.0000 0.0000 0.0000
# 2 27.2806 39.1543 22.6288 0.0000 0.0000 0.0000
# 3 62.2574 22.6288 98.2777 0.0000 0.0000 0.0000
# 4 0.0000 0.0000 0.0000 12.8866 0.0000 0.0000
# 5 0.0000 0.0000 0.0000 0.0000 27.9401 0.0000
# 6 0.0000 0.0000 0.0000 0.0000 0.0000 16.2836
#
#
#
# Elastic Compliance Matrix: (Units=1/GPa)
#
#
# Indices 1 2 3 4 5 6 
#
# 1 0.011385 -0.004342 -0.006212 0.000000 0.000000 0.000000
# 2 -0.004342 0.031116 -0.004414 0.000000 0.000000 0.000000
# 3 -0.006212 -0.004414 0.015127 0.000000 0.000000 0.000000
# 4 0.000000 0.000000 0.000000 0.077600 0.000000 0.000000
# 5 0.000000 0.000000 0.000000 0.000000 0.035791 0.000000
# 6 0.000000 0.000000 0.000000 0.000000 0.000000 0.061411
#
#
# Mechanical properties :
#
#
# Convention : Reuss Voigt Hill
#
# Bulk Modulus (GPa) = 36.11232 54.88654 45.49943
# Shear Modulus (GPa) = 18.40962 21.92064 20.16513
#
# Velocity S-wave (km/s) = 3.40047 3.71059 3.55891
# Velocity P-wave (km/s) = 6.17252 7.26860 6.74287
#
# Compressibility (1/GPa) = 0.02769138
#
# Stress axis : x y z
#
# Youngs Moduli (GPa) = 87.83712 32.13751 66.10698
#
# Poissons Ratio (x) = 0.13954 0.41068
# Poissons Ratio (y) = 0.38138 0.29180
# Poissons Ratio (z) = 0.54567 0.14186
#
# Static dielectric constant tensor:
#      x y z
#    x 1.563790 0.000000 0.000000 
#    y 0.000000 1.506700 0.000000 
#    z 0.000000 0.000000 1.565160 
# 
# From -- ./inp_files/54924.got.cif
#   From: 2010.05.17/outbox.cif.g08.bks.cpg/sg65_28_cif.got.tgz:54924.got - 2010.06.03 17:01:31.
