data_PCOD9483327
_publ_section_title
;
Structure prediction by ZEFSAII (Michael W. Deem and Ramdas Pophale) SiO2 
 PCOD9483327
Probable space group: C M M M
;
_chemical_formula_sum "Si O2"
_cell_formula_units_Z 80
_cell_length_a 33.130564
_cell_length_b 15.679523
_cell_length_c 7.352230
_cell_angle_alpha 90.000000
_cell_angle_beta 90.000000
_cell_angle_gamma 90.000000
_cell_volume 3819.273507
_symmetry_space_group_name_H-M "C M M M"
_symmetry_group_IT_number 65
_symmetry_cell_setting 'orthorhombic'
loop_
_space_group_symop_operation_xyz
x,y,z
-x,-y,z
x,-y,-z
-x,y,-z
-x,-y,-z
x,y,-z
-x,y,z
x,-y,z
1/2+x,1/2+y,z
1/2-x,1/2-y,z
1/2+x,1/2-y,-z
1/2-x,1/2+y,-z
1/2-x,1/2-y,-z
1/2+x,1/2+y,-z
1/2-x,1/2+y,z
1/2+x,1/2-y,z
loop_
_atom_site_type_symbol
_atom_site_label
_atom_site_fract_x
_atom_site_fract_y
_atom_site_fract_z
Si Si1 0.884730 0.770564 0.214766
Si Si2 0.851882 0.595980 0.777843
Si Si3 0.822290 0.908779 0.221791
Si Si4 0.046232 0.094920 0.718359
Si Si5 0.762622 0.654845 0.221028
O O1 0.880969 0.673586 0.282134
O O2 0.848608 0.829818 0.288259
O O3 0.924880 0.826634 0.235101
O O4 0.877417 0.763605 0.000000
O O5 0.861472 0.500000 0.716660
O O6 0.806366 0.622425 0.720974
O O7 0.852103 0.593113 0.000000
O O8 0.775663 0.901465 0.274392
O O9 0.839297 0.000000 0.279474
O O10 0.823235 0.906478 0.000000
O O11 0.045628 0.091379 0.500000
O O12 0.000000 0.107447 0.779766
O O13 0.059630 0.000000 0.782609
O O14 0.750000 0.750000 0.277339
O O15 0.764361 0.655615 0.000000
#
# Coordination Sequence:
#
# PCOD9483327 Si02
#       5
#    16  16  16  16  16
#     4  10  18  28  45  71  99 122 152 195 236 272
#     4   9  16  25  38  59  92 133 169 198 231 271
#     4   9  15  21  32  55  88 121 150 186 230 268
#     4   9  19  36  55  73  94 120 147 176 221 288
#     4   9  13  20  32  50  84 128 165 192 224 268
#
# _framework density 20.946390000000001
#
# number of rings (size 3 to 8) (size 9 to 14) (size 15 to 20)
#    0.000    2.800    2.000    1.800    0.000    4.000 
#    0.000    1.000    0.000    1.200    0.000    7.000 
#    0.000    3.200    0.000    0.000    0.000    0.000 
#
# Total GULP energy -223158.180850 kJ/mol
# GULP energy per Si atom -5578.954521 kJ/mol
# Density = 2.089872 g / cm^3
# Si number density = 20.946390 Si / 1000 Ang^3
#
#
#
# Elastic Constant Matrix: (Units=GPa)
#
#
# Indices 1 2 3 4 5 6 
#
# 1 98.8925 88.2550 -5.8661 0.0000 0.0000 0.0000
# 2 88.2550 237.6992 7.2017 0.0000 0.0000 0.0000
# 3 -5.8661 7.2017 75.7702 0.0000 0.0000 0.0000
# 4 0.0000 0.0000 0.0000 8.8925 0.0000 0.0000
# 5 0.0000 0.0000 0.0000 0.0000 28.6144 0.0000
# 6 0.0000 0.0000 0.0000 0.0000 0.0000 30.8876
#
#
#
# Elastic Compliance Matrix: (Units=1/GPa)
#
#
# Indices 1 2 3 4 5 6 
#
# 1 0.015347 -0.005751 0.001735 0.000000 0.000000 0.000000
# 2 -0.005751 0.006374 -0.001051 0.000000 0.000000 0.000000
# 3 0.001735 -0.001051 0.013432 0.000000 0.000000 0.000000
# 4 0.000000 0.000000 0.000000 0.112454 0.000000 0.000000
# 5 0.000000 0.000000 0.000000 0.000000 0.034947 0.000000
# 6 0.000000 0.000000 0.000000 0.000000 0.000000 0.032375
#
#
# Mechanical properties :
#
#
# Convention : Reuss Voigt Hill
#
# Bulk Modulus (GPa) = 39.96963 65.72700 52.84831
# Shear Modulus (GPa) = 21.42211 35.19701 28.30956
#
# Velocity S-wave (km/s) = 3.20146 4.10364 3.68030
# Velocity P-wave (km/s) = 5.72617 7.34166 6.58365
#
# Compressibility (1/GPa) = 0.02501900
#
# Stress axis : x y z
#
# Youngs Moduli (GPa) = 65.15913 156.88675 74.44907
#
# Poissons Ratio (x) = 0.90221 -0.12915
# Poissons Ratio (y) = 0.37471 0.07825
# Poissons Ratio (z) = -0.11303 0.16490
#
# Static dielectric constant tensor:
#      x y z
#    x 1.723080 0.000000 0.000000 
#    y 0.000000 1.789880 0.000000 
#    z 0.000000 0.000000 1.827750 
# 
# From -- ./inp_files/24996.got.cif
#   From: 2010.05.17/outbox.cif.g08.bks.cpg/sg65_13_cif.got.tgz:24996.got - 2010.06.03 17:01:31.
