data_PCOD9483631
_publ_section_title
;
Structure prediction by ZEFSAII (Michael W. Deem and Ramdas Pophale) SiO2 
 PCOD9483631
Probable space group: C M M M
;
_chemical_formula_sum "Si O2"
_cell_formula_units_Z 88
_cell_length_a 23.250313
_cell_length_b 16.033486
_cell_length_c 13.151996
_cell_angle_alpha 90.000000
_cell_angle_beta 90.000000
_cell_angle_gamma 90.000000
_cell_volume 4902.847995
_symmetry_space_group_name_H-M "C M M M"
_symmetry_group_IT_number 65
_symmetry_cell_setting 'orthorhombic'
loop_
_space_group_symop_operation_xyz
x,y,z
-x,-y,z
x,-y,-z
-x,y,-z
-x,-y,-z
x,y,-z
-x,y,z
x,-y,z
1/2+x,1/2+y,z
1/2-x,1/2-y,z
1/2+x,1/2-y,-z
1/2-x,1/2+y,-z
1/2-x,1/2-y,-z
1/2+x,1/2+y,-z
1/2-x,1/2+y,z
1/2+x,1/2-y,z
loop_
_atom_site_type_symbol
_atom_site_label
_atom_site_fract_x
_atom_site_fract_y
_atom_site_fract_z
Si Si1 0.751748 0.901468 0.111990
Si Si2 0.319182 0.755056 0.383992
Si Si3 0.133925 0.665389 0.816146
Si Si4 0.931215 0.500000 0.121263
Si Si5 0.068327 0.831185 0.115989
Si Si6 0.648604 0.595043 0.274949
O O1 0.694466 0.848893 0.127674
O O2 0.798056 0.886062 0.198947
O O3 0.736346 0.000000 0.117478
O O4 0.776275 0.885480 0.000000
O O5 0.329303 0.781221 0.500000
O O6 0.250000 0.750000 0.368821
O O7 0.348445 0.813842 0.299795
O O8 0.345860 0.663735 0.362068
O O9 0.096750 0.582290 0.830426
O O10 0.099537 0.743012 0.862977
O O11 0.000000 0.500000 0.133242
O O12 0.918363 0.500000 0.000000
O O13 0.093709 0.891348 0.202398
O O14 0.000000 0.821565 0.126094
O O15 0.080228 0.858953 0.000000
O O16 0.652374 0.500000 0.310035
#
# Coordination Sequence:
#
# PCOD9483631 Si02
#       6
#    16  16  16   8  16  16
#     4  10  18  29  49  80 115 146 174 216 275 335
#     4  10  21  39  58  80 111 146 186 237 294 343
#     4  11  20  34  56  82 114 151 190 232 276 331
#     4  11  22  36  59  89 123 161 193 223 265 332
#     4  10  21  35  52  78 114 154 190 222 265 328
#     4  10  21  36  56  82 110 140 185 235 280 339
#
# _framework density 17.948751999999999
#
# number of rings (size 3 to 8) (size 9 to 14) (size 15 to 20)
#    0.000    1.727    2.727    2.727    0.000    3.273 
#    0.000    4.091    0.000   14.182    0.000    5.091 
#    0.000    0.000    0.000    0.000    0.000    0.000 
#
# Total GULP energy -245683.345169 kJ/mol
# GULP energy per Si atom -5583.712390 kJ/mol
# Density = 1.790790 g / cm^3
# Si number density = 17.948752 Si / 1000 Ang^3
#
#
#
# Elastic Constant Matrix: (Units=GPa)
#
#
# Indices 1 2 3 4 5 6 
#
# 1 85.1712 13.4102 24.5108 0.0000 0.0000 0.0000
# 2 13.4102 62.0259 20.0136 0.0000 0.0000 0.0000
# 3 24.5108 20.0136 94.5989 0.0000 0.0000 0.0000
# 4 0.0000 0.0000 0.0000 15.7470 0.0000 0.0000
# 5 0.0000 0.0000 0.0000 0.0000 -16.9744 0.0000
# 6 0.0000 0.0000 0.0000 0.0000 0.0000 18.3227
#
#
#
# Elastic Compliance Matrix: (Units=1/GPa)
#
#
# Indices 1 2 3 4 5 6 
#
# 1 0.012878 -0.001833 -0.002949 0.000000 0.000000 0.000000
# 2 -0.001833 0.017564 -0.003241 0.000000 0.000000 0.000000
# 3 -0.002949 -0.003241 0.012021 0.000000 0.000000 0.000000
# 4 0.000000 0.000000 0.000000 0.063504 0.000000 0.000000
# 5 0.000000 0.000000 0.000000 0.000000 -0.058912 0.000000
# 6 0.000000 0.000000 0.000000 0.000000 0.000000 0.054577
#
#
# Mechanical properties :
#
#
# Convention : Reuss Voigt Hill
#
# Bulk Modulus (GPa) = 37.85359 39.74058 38.79708
# Shear Modulus (GPa) = 39.53070 15.67650 27.60360
#
# Velocity S-wave (km/s) = 4.69809 2.95855 3.92588
# Velocity P-wave (km/s) = 7.11090 5.81892 6.49711
#
# Compressibility (1/GPa) = 0.02641758
#
# Stress axis : x y z
#
# Youngs Moduli (GPa) = 77.64991 56.93355 83.18952
#
# Poissons Ratio (x) = 0.10435 0.24533
# Poissons Ratio (y) = 0.14231 0.26962
# Poissons Ratio (z) = 0.22899 0.18453
#
# Static dielectric constant tensor:
#      x y z
#    x 1.609160 0.000000 0.000000 
#    y 0.000000 1.627260 0.000000 
#    z 0.000000 0.000000 1.592600 
# 
# From -- ./inp_files/26802.got.cif
#   From: 2010.05.17/outbox.cif.g08.bks.cpg/sg65_14_cif.got.tgz:26802.got - 2010.06.03 17:01:31.
