data_PCOD9483347
_publ_section_title
;
Structure prediction by ZEFSAII (Michael W. Deem and Ramdas Pophale) SiO2 
 PCOD9483347
Probable space group: C M M M
;
_chemical_formula_sum "Si O2"
_cell_formula_units_Z 112
_cell_length_a 16.103272
_cell_length_b 17.793454
_cell_length_c 22.983144
_cell_angle_alpha 90.000000
_cell_angle_beta 90.000000
_cell_angle_gamma 90.000000
_cell_volume 6585.425283
_symmetry_space_group_name_H-M "C M M M"
_symmetry_group_IT_number 65
_symmetry_cell_setting 'orthorhombic'
loop_
_space_group_symop_operation_xyz
x,y,z
-x,-y,z
x,-y,-z
-x,y,-z
-x,-y,-z
x,y,-z
-x,y,z
x,-y,z
1/2+x,1/2+y,z
1/2-x,1/2-y,z
1/2+x,1/2-y,-z
1/2-x,1/2+y,-z
1/2-x,1/2-y,-z
1/2+x,1/2+y,-z
1/2-x,1/2+y,z
1/2+x,1/2-y,z
loop_
_atom_site_type_symbol
_atom_site_label
_atom_site_fract_x
_atom_site_fract_y
_atom_site_fract_z
Si Si1 0.099990 0.914798 0.068052
Si Si2 0.165596 0.794767 0.840939
Si Si3 0.239798 0.915139 0.757320
Si Si4 0.906121 0.305959 0.367298
Si Si5 0.092236 0.335834 0.231015
Si Si6 0.092617 0.147327 0.431544
Si Si7 0.257351 0.084563 0.380707
O O1 0.134964 0.847695 0.107144
O O2 0.000000 0.913209 0.072305
O O3 0.126573 0.000000 0.085548
O O4 0.121781 0.905255 0.000000
O O5 0.250000 0.750000 0.856178
O O6 0.185677 0.852149 0.788456
O O7 0.105185 0.731200 0.815030
O O8 0.334570 0.896144 0.775272
O O9 0.235330 0.908450 0.687761
O O10 0.217152 0.000000 0.773719
O O11 0.898119 0.304314 0.297040
O O12 0.899867 0.223577 0.394471
O O13 0.831827 0.357168 0.391596
O O14 0.000000 0.334485 0.379861
O O15 0.000000 0.367677 0.225896
O O16 0.095313 0.165001 0.500000
O O17 0.172681 0.098762 0.415404
O O18 0.000000 0.114631 0.419542
O O19 0.287533 0.000000 0.390915
#
# Coordination Sequence:
#
# PCOD9483347 Si02
#       7
#    16  16  16  16  16  16  16
#     4   9  18  32  48  65  88 121 158 193 229 270
#     4  10  18  28  46  70  95 121 150 188 230 269
#     4   9  18  31  46  67  95 124 152 182 222 274
#     4   9  18  33  52  73  96 122 155 192 229 276
#     4   9  17  29  47  70  94 121 151 185 225 267
#     4  10  21  36  53  70  89 120 160 196 232 279
#     4  10  20  33  50  72  98 125 152 189 235 278
#
# _framework density 17.007254
#
# number of rings (size 3 to 8) (size 9 to 14) (size 15 to 20)
#    0.000    2.571    0.000    2.571    0.000    4.857 
#    0.000    4.286    0.000    1.714    0.000    3.000 
#    0.000    0.000    0.000   26.571    0.000    0.286 
#
# Total GULP energy -312017.835537 kJ/mol
# GULP energy per Si atom -5571.747063 kJ/mol
# Density = 1.696854 g / cm^3
# Si number density = 17.007254 Si / 1000 Ang^3
#
#
#
# Elastic Constant Matrix: (Units=GPa)
#
#
# Indices 1 2 3 4 5 6 
#
# 1 46.8865 2.8275 6.5557 0.0000 0.0000 0.0000
# 2 2.8275 42.2765 9.6274 0.0000 0.0000 0.0000
# 3 6.5557 9.6274 21.3611 0.0000 0.0000 0.0000
# 4 0.0000 0.0000 0.0000 -9.3348 0.0000 0.0000
# 5 0.0000 0.0000 0.0000 0.0000 20.9830 0.0000
# 6 0.0000 0.0000 0.0000 0.0000 0.0000 10.8842
#
#
#
# Elastic Compliance Matrix: (Units=1/GPa)
#
#
# Indices 1 2 3 4 5 6 
#
# 1 0.022285 0.000075 -0.006873 0.000000 0.000000 0.000000
# 2 0.000075 0.026359 -0.011903 0.000000 0.000000 0.000000
# 3 -0.006873 -0.011903 0.054288 0.000000 0.000000 0.000000
# 4 0.000000 0.000000 0.000000 -0.107126 0.000000 0.000000
# 5 0.000000 0.000000 0.000000 0.000000 0.047658 0.000000
# 6 0.000000 0.000000 0.000000 0.000000 0.000000 0.091877
#
#
# Mechanical properties :
#
#
# Convention : Reuss Voigt Hill
#
# Bulk Modulus (GPa) = 15.26026 16.50505 15.88266
# Shear Modulus (GPa) = 25.69556 10.60737 18.15147
#
# Velocity S-wave (km/s) = 3.89119 2.50010 3.27047
# Velocity P-wave (km/s) = 5.40193 4.24968 4.86007
#
# Compressibility (1/GPa) = 0.06552968
#
# Stress axis : x y z
#
# Youngs Moduli (GPa) = 44.87418 37.93710 18.42023
#
# Poissons Ratio (x) = -0.00283 0.12660
# Poissons Ratio (y) = -0.00335 0.21926
# Poissons Ratio (z) = 0.30841 0.45157
#
# Static dielectric constant tensor:
#      x y z
#    x 1.585960 0.000000 0.000000 
#    y 0.000000 1.556640 0.000000 
#    z 0.000000 0.000000 1.563290 
# 
# From -- ./inp_files/63944.got.cif
#   From: 2010.05.17/outbox.cif.g08.bks.cpg/sg65_32_cif.got.tgz:63944.got - 2010.06.03 17:01:31.
