data_PCOD9483071
_publ_section_title
;
Structure prediction by ZEFSAII (Michael W. Deem and Ramdas Pophale) SiO2 
 PCOD9483071
Probable space group: C M M M
;
_chemical_formula_sum "Si O2"
_cell_formula_units_Z 104
_cell_length_a 8.515942
_cell_length_b 28.018040
_cell_length_c 27.652657
_cell_angle_alpha 90.000000
_cell_angle_beta 90.000000
_cell_angle_gamma 90.000000
_cell_volume 6597.924060
_symmetry_space_group_name_H-M "C M M M"
_symmetry_group_IT_number 65
_symmetry_cell_setting 'orthorhombic'
loop_
_space_group_symop_operation_xyz
x,y,z
-x,-y,z
x,-y,-z
-x,y,-z
-x,-y,-z
x,y,-z
-x,y,z
x,-y,z
1/2+x,1/2+y,z
1/2-x,1/2-y,z
1/2+x,1/2-y,-z
1/2-x,1/2+y,-z
1/2-x,1/2-y,-z
1/2+x,1/2+y,-z
1/2-x,1/2+y,z
1/2+x,1/2-y,z
loop_
_atom_site_type_symbol
_atom_site_label
_atom_site_fract_x
_atom_site_fract_y
_atom_site_fract_z
Si Si1 0.810055 0.850320 0.253627
Si Si2 0.689613 0.553166 0.302989
Si Si3 0.687839 0.198137 0.349587
Si Si4 0.308222 0.055403 0.500000
Si Si5 0.810119 0.399105 0.399126
Si Si6 0.688102 0.804524 0.052584
Si Si7 0.688138 0.695763 0.153541
O O1 0.759070 0.903914 0.267788
O O2 0.748250 0.816184 0.296213
O O3 0.758908 0.833073 0.200853
O O4 0.000000 0.848689 0.254846
O O5 0.500000 0.553337 0.303366
O O6 0.743278 0.500000 0.289844
O O7 0.748049 0.567253 0.356319
O O8 0.500000 0.199207 0.348665
O O9 0.750000 0.250000 0.363486
O O10 0.738298 0.154815 0.384902
O O11 0.500000 0.055561 0.500000
O O12 0.257159 0.082256 0.548732
O O13 0.259009 0.000000 0.500000
O O14 0.000000 0.400564 0.398227
O O15 0.500000 0.803597 0.055296
O O16 0.750000 0.750000 0.052094
O O17 0.754038 0.825386 0.102387
O O18 0.733438 0.825580 0.000000
O O19 0.500000 0.697345 0.152747
O O20 0.750000 0.750000 0.157621
#
# Coordination Sequence:
#
# PCOD9483071 Si02
#       7
#    16  16  16   8  16  16  16
#     4   9  18  30  43  62  86 111 141 173 206 248
#     4   9  17  30  47  65  87 113 137 166 208 253
#     4  10  19  30  45  63  84 112 143 174 207 244
#     4   9  16  28  48  69  87 107 133 171 214 251
#     4   9  18  31  47  67  87 109 140 173 205 246
#     4   9  16  25  37  53  75 105 139 171 203 240
#     4  10  18  26  38  56  80 109 139 171 203 237
#
# _framework density 15.762534
#
# number of rings (size 3 to 8) (size 9 to 14) (size 15 to 20)
#    0.000    2.692    0.000    3.231    0.000    4.923 
#    0.000    0.769    0.000    1.385    0.000    0.000 
#    0.000    0.615    0.000    7.692    0.000    1.231 
#
# Total GULP energy -289700.302435 kJ/mol
# GULP energy per Si atom -5571.159662 kJ/mol
# Density = 1.572666 g / cm^3
# Si number density = 15.762534 Si / 1000 Ang^3
#
#
#
# Elastic Constant Matrix: (Units=GPa)
#
#
# Indices 1 2 3 4 5 6 
#
# 1 16.1092 14.8287 22.4842 0.0000 0.0000 0.0000
# 2 14.8287 94.0228 60.8484 0.0000 0.0000 0.0000
# 3 22.4842 60.8484 157.0653 0.0000 0.0000 0.0000
# 4 0.0000 0.0000 0.0000 15.4818 0.0000 0.0000
# 5 0.0000 0.0000 0.0000 0.0000 17.4983 0.0000
# 6 0.0000 0.0000 0.0000 0.0000 0.0000 12.9937
#
#
#
# Elastic Compliance Matrix: (Units=1/GPa)
#
#
# Indices 1 2 3 4 5 6 
#
# 1 0.080911 -0.007027 -0.008860 0.000000 0.000000 0.000000
# 2 -0.007027 0.014805 -0.004730 0.000000 0.000000 0.000000
# 3 -0.008860 -0.004730 0.009467 0.000000 0.000000 0.000000
# 4 0.000000 0.000000 0.000000 0.064592 0.000000 0.000000
# 5 0.000000 0.000000 0.000000 0.000000 0.057148 0.000000
# 6 0.000000 0.000000 0.000000 0.000000 0.000000 0.076960
#
#
# Mechanical properties :
#
#
# Convention : Reuss Voigt Hill
#
# Bulk Modulus (GPa) = 15.63717 51.50220 33.56969
# Shear Modulus (GPa) = 13.64500 20.46383 17.05442
#
# Velocity S-wave (km/s) = 2.94540 3.60704 3.29288
# Velocity P-wave (km/s) = 4.63780 7.07760 5.98338
#
# Compressibility (1/GPa) = 0.06395017
#
# Stress axis : x y z
#
# Youngs Moduli (GPa) = 12.35920 67.54574 105.62510
#
# Poissons Ratio (x) = 0.47463 0.93588
# Poissons Ratio (y) = 0.08684 0.49957
# Poissons Ratio (z) = 0.10951 0.31946
#
# Static dielectric constant tensor:
#      x y z
#    x 1.550310 0.000000 0.000000 
#    y 0.000000 1.523330 0.000000 
#    z 0.000000 0.000000 1.543810 
# 
# From -- ./inp_files/73771.got.cif
#   From: 2010.05.17/outbox.cif.g08.bks.cpg/sg65_37_cif.got.tgz:73771.got - 2010.06.03 17:01:31.
