data_PCOD9483468
_publ_section_title
;
Structure prediction by ZEFSAII (Michael W. Deem and Ramdas Pophale) SiO2 
 PCOD9483468
Probable space group: C M M M
;
_chemical_formula_sum "Si O2"
_cell_formula_units_Z 104
_cell_length_a 30.060453
_cell_length_b 7.539514
_cell_length_c 24.243563
_cell_angle_alpha 90.000000
_cell_angle_beta 90.000000
_cell_angle_gamma 90.000000
_cell_volume 5494.590362
_symmetry_space_group_name_H-M "C M M M"
_symmetry_group_IT_number 65
_symmetry_cell_setting 'orthorhombic'
loop_
_space_group_symop_operation_xyz
x,y,z
-x,-y,z
x,-y,-z
-x,y,-z
-x,-y,-z
x,y,-z
-x,y,z
x,-y,z
1/2+x,1/2+y,z
1/2-x,1/2-y,z
1/2+x,1/2-y,-z
1/2-x,1/2+y,-z
1/2-x,1/2-y,-z
1/2+x,1/2+y,-z
1/2-x,1/2+y,z
1/2+x,1/2-y,z
loop_
_atom_site_type_symbol
_atom_site_label
_atom_site_fract_x
_atom_site_fract_y
_atom_site_fract_z
Si Si1 0.392953 0.783117 0.560898
Si Si2 0.107467 0.712899 0.226932
Si Si3 0.054092 0.204292 0.000000
Si Si4 0.051159 0.283064 0.332780
Si Si5 0.200911 0.287804 0.394427
Si Si6 0.949490 0.787309 0.880359
Si Si7 0.700880 0.787594 0.732171
O O1 0.407339 0.726277 0.500000
O O2 0.423904 0.726555 0.611490
O O3 0.342202 0.725203 0.572693
O O4 0.393374 0.000000 0.561206
O O5 0.108649 0.500000 0.231232
O O6 0.078162 0.776515 0.278839
O O7 0.083427 0.752989 0.169730
O O8 0.158081 0.777921 0.234396
O O9 0.065933 0.283087 0.940358
O O10 0.000000 0.201506 0.000000
O O11 0.070014 0.000000 0.000000
O O12 0.051525 0.500000 0.332503
O O13 0.000000 0.226631 0.331026
O O14 0.197026 0.500000 0.391747
O O15 0.250000 0.250000 0.417248
O O16 0.199031 0.219640 0.331160
O O17 0.000000 0.722811 0.868484
O O18 0.952590 0.000000 0.886363
O O19 0.750000 0.750000 0.754724
O O20 0.697280 0.000000 0.728831
#
# Coordination Sequence:
#
# PCOD9483468 Si02
#       7
#    16  16   8  16  16  16  16
#     4   9  16  26  40  58  81 110 145 183 220 260
#     4  10  18  29  45  67  93 120 148 183 229 274
#     4   7  12  26  45  63  90 127 158 183 214 251
#     4   9  16  26  40  58  83 115 147 179 219 265
#     4   9  16  28  44  62  84 109 138 175 221 270
#     4   9  17  29  46  69  96 126 158 187 214 252
#     4   9  17  29  45  63  87 116 146 180 223 274
#
# _framework density 18.927707999999999
#
# number of rings (size 3 to 8) (size 9 to 14) (size 15 to 20)
#    0.000    3.000    1.538    1.385    0.000    2.154 
#    0.000    1.923    0.000    1.385    0.000    0.538 
#    0.000    0.000    0.000    4.615    0.000    4.615 
#
# Total GULP energy -289904.113186 kJ/mol
# GULP energy per Si atom -5575.079100 kJ/mol
# Density = 1.888463 g / cm^3
# Si number density = 18.927708 Si / 1000 Ang^3
#
#
#
# Elastic Constant Matrix: (Units=GPa)
#
#
# Indices 1 2 3 4 5 6 
#
# 1 144.0308 4.8182 91.4476 0.0000 0.0000 0.0000
# 2 4.8182 44.8890 3.8921 0.0000 0.0000 0.0000
# 3 91.4476 3.8921 161.4912 0.0000 0.0000 0.0000
# 4 0.0000 0.0000 0.0000 3.5041 0.0000 0.0000
# 5 0.0000 0.0000 0.0000 0.0000 21.4138 0.0000
# 6 0.0000 0.0000 0.0000 0.0000 0.0000 7.8350
#
#
#
# Elastic Compliance Matrix: (Units=1/GPa)
#
#
# Indices 1 2 3 4 5 6 
#
# 1 0.010858 -0.000634 -0.006134 0.000000 0.000000 0.000000
# 2 -0.000634 0.022361 -0.000180 0.000000 0.000000 0.000000
# 3 -0.006134 -0.000180 0.009670 0.000000 0.000000 0.000000
# 4 0.000000 0.000000 0.000000 0.285378 0.000000 0.000000
# 5 0.000000 0.000000 0.000000 0.000000 0.046699 0.000000
# 6 0.000000 0.000000 0.000000 0.000000 0.000000 0.127632
#
#
# Mechanical properties :
#
#
# Convention : Reuss Voigt Hill
#
# Bulk Modulus (GPa) = 34.48929 61.19187 47.84058
# Shear Modulus (GPa) = 9.50287 23.23413 16.36850
#
# Velocity S-wave (km/s) = 2.24310 3.50740 2.94392
# Velocity P-wave (km/s) = 4.99698 6.98584 6.07337
#
# Compressibility (1/GPa) = 0.02899451
#
# Stress axis : x y z
#
# Youngs Moduli (GPa) = 92.09419 44.72111 103.41405
#
# Poissons Ratio (x) = 0.02834 0.63429
# Poissons Ratio (y) = 0.05836 0.01862
# Poissons Ratio (z) = 0.56486 0.00805
#
# Static dielectric constant tensor:
#      x y z
#    x 1.656500 0.000000 0.000000 
#    y 0.000000 1.741190 0.000000 
#    z 0.000000 0.000000 1.661570 
# 
# From -- ./inp_files/72186.got.cif
#   From: 2010.05.17/outbox.cif.g08.bks.cpg/sg65_37_cif.got.tgz:72186.got - 2010.06.03 17:01:31.
