data_PCOD9483690
_publ_section_title
;
Structure prediction by ZEFSAII (Michael W. Deem and Ramdas Pophale) SiO2 
 PCOD9483690
Probable space group: C M M M
;
_chemical_formula_sum "Si O2"
_cell_formula_units_Z 112
_cell_length_a 16.780059
_cell_length_b 28.581144
_cell_length_c 14.599751
_cell_angle_alpha 90.000000
_cell_angle_beta 90.000000
_cell_angle_gamma 90.000000
_cell_volume 7001.942507
_symmetry_space_group_name_H-M "C M M M"
_symmetry_group_IT_number 65
_symmetry_cell_setting 'orthorhombic'
loop_
_space_group_symop_operation_xyz
x,y,z
-x,-y,z
x,-y,-z
-x,y,-z
-x,-y,-z
x,y,-z
-x,y,z
x,-y,z
1/2+x,1/2+y,z
1/2-x,1/2-y,z
1/2+x,1/2-y,-z
1/2-x,1/2+y,-z
1/2-x,1/2-y,-z
1/2+x,1/2+y,-z
1/2-x,1/2+y,z
1/2+x,1/2-y,z
loop_
_atom_site_type_symbol
_atom_site_label
_atom_site_fract_x
_atom_site_fract_y
_atom_site_fract_z
Si Si1 0.156165 0.262503 0.104084
Si Si2 0.675547 0.359658 0.287743
Si Si3 0.848577 0.311993 0.286301
Si Si4 0.093724 0.158127 0.895730
Si Si5 0.411765 0.100844 0.607746
Si Si6 0.755095 0.946441 0.390690
Si Si7 0.905726 0.777705 0.392645
O O1 0.250000 0.250000 0.116956
O O2 0.130983 0.298337 0.182286
O O3 0.109106 0.213834 0.114455
O O4 0.146101 0.279509 0.000000
O O5 0.758646 0.331221 0.287456
O O6 0.643643 0.365479 0.184825
O O7 0.692488 0.408483 0.337560
O O8 0.615518 0.326207 0.343054
O O9 0.900428 0.352784 0.331901
O O10 0.859232 0.264725 0.344524
O O11 0.000000 0.148737 0.885641
O O12 0.118132 0.145984 0.000000
O O13 0.405662 0.114122 0.500000
O O14 0.500000 0.080654 0.622203
O O15 0.337795 0.066660 0.626612
O O16 0.767807 0.941495 0.500000
O O17 0.770828 0.000000 0.364962
O O18 0.885444 0.780350 0.500000
O O19 0.000000 0.768343 0.383742
#
# Coordination Sequence:
#
# PCOD9483690 Si02
#       7
#    16  16  16  16  16  16  16
#     4  10  18  30  46  67  97 133 170 202 234 277
#     4  11  20  32  50  72  96 126 163 199 243 291
#     4  11  19  29  45  70 100 135 164 196 234 278
#     4  10  20  33  50  72  97 127 163 201 240 283
#     4   9  18  31  48  72 102 134 165 198 237 283
#     4   9  19  35  54  75  97 123 160 206 250 291
#     4  11  22  32  44  65  96 134 169 199 233 280
#
# _framework density 15.995562
#
# number of rings (size 3 to 8) (size 9 to 14) (size 15 to 20)
#    0.000    1.857    2.857    2.143    0.000    4.286 
#    0.000    1.429    0.000    2.143    0.000    6.000 
#    0.000    0.000    0.000    6.286    0.000    0.286 
#
# Total GULP energy -312433.227169 kJ/mol
# GULP energy per Si atom -5579.164771 kJ/mol
# Density = 1.595916 g / cm^3
# Si number density = 15.995562 Si / 1000 Ang^3
#
#
#
# Elastic Constant Matrix: (Units=GPa)
#
#
# Indices 1 2 3 4 5 6 
#
# 1 51.6503 22.6168 32.5242 0.0000 0.0000 0.0000
# 2 22.6168 96.0884 54.3908 0.0000 0.0000 0.0000
# 3 32.5242 54.3908 98.8022 0.0000 0.0000 0.0000
# 4 0.0000 0.0000 0.0000 14.7508 0.0000 0.0000
# 5 0.0000 0.0000 0.0000 0.0000 21.5252 0.0000
# 6 0.0000 0.0000 0.0000 0.0000 0.0000 4.5883
#
#
#
# Elastic Compliance Matrix: (Units=1/GPa)
#
#
# Indices 1 2 3 4 5 6 
#
# 1 0.024626 -0.001754 -0.007141 0.000000 0.000000 0.000000
# 2 -0.001754 0.015243 -0.007814 0.000000 0.000000 0.000000
# 3 -0.007141 -0.007814 0.016773 0.000000 0.000000 0.000000
# 4 0.000000 0.000000 0.000000 0.067793 0.000000 0.000000
# 5 0.000000 0.000000 0.000000 0.000000 0.046457 0.000000
# 6 0.000000 0.000000 0.000000 0.000000 0.000000 0.217945
#
#
# Mechanical properties :
#
#
# Convention : Reuss Voigt Hill
#
# Bulk Modulus (GPa) = 43.05803 51.73382 47.39592
# Shear Modulus (GPa) = 11.62802 17.30681 14.46742
#
# Velocity S-wave (km/s) = 2.69913 3.29291 3.01069
# Velocity P-wave (km/s) = 6.05730 6.84620 6.46380
#
# Compressibility (1/GPa) = 0.02322447
#
# Stress axis : x y z
#
# Youngs Moduli (GPa) = 40.60811 65.60393 59.61851
#
# Poissons Ratio (x) = 0.11509 0.42571
# Poissons Ratio (y) = 0.07124 0.46585
# Poissons Ratio (z) = 0.28997 0.51262
#
# Static dielectric constant tensor:
#      x y z
#    x 1.557460 0.000000 0.000000 
#    y 0.000000 1.499730 0.000000 
#    z 0.000000 0.000000 1.546260 
# 
# From -- ./inp_files/41076.got.cif
#   From: 2010.05.17/outbox.cif.g08.bks.cpg/sg65_21_cif.got.tgz:41076.got - 2010.06.03 17:01:31.
