data_PCOD9483675
_publ_section_title
;
Structure prediction by ZEFSAII (Michael W. Deem and Ramdas Pophale) SiO2 
 PCOD9483675
Probable space group: C M M M
;
_chemical_formula_sum "Si O2"
_cell_formula_units_Z 88
_cell_length_a 20.597169
_cell_length_b 20.436241
_cell_length_c 14.318395
_cell_angle_alpha 90.000000
_cell_angle_beta 90.000000
_cell_angle_gamma 90.000000
_cell_volume 6027.023531
_symmetry_space_group_name_H-M "C M M M"
_symmetry_group_IT_number 65
_symmetry_cell_setting 'orthorhombic'
loop_
_space_group_symop_operation_xyz
x,y,z
-x,-y,z
x,-y,-z
-x,y,-z
-x,-y,-z
x,y,-z
-x,y,z
x,-y,z
1/2+x,1/2+y,z
1/2-x,1/2-y,z
1/2+x,1/2-y,-z
1/2-x,1/2+y,-z
1/2-x,1/2-y,-z
1/2+x,1/2+y,-z
1/2-x,1/2+y,z
1/2+x,1/2-y,z
loop_
_atom_site_type_symbol
_atom_site_label
_atom_site_fract_x
_atom_site_fract_y
_atom_site_fract_z
Si Si1 0.763025 0.928146 0.612977
Si Si2 0.391232 0.926315 0.612341
Si Si3 0.574117 0.000000 0.886183
Si Si4 0.920811 0.357842 0.893518
Si Si5 0.315593 0.290940 0.387830
Si Si6 0.425788 0.792619 0.291083
O O1 0.768144 0.928533 0.500000
O O2 0.686093 0.920705 0.631372
O O3 0.802552 0.865052 0.645448
O O4 0.783777 0.000000 0.647098
O O5 0.400165 0.921998 0.500000
O O6 0.423798 0.864532 0.660921
O O7 0.412154 0.000000 0.641020
O O8 0.604081 0.070074 0.862413
O O9 0.500000 0.000000 0.851003
O O10 0.570812 0.000000 0.000000
O O11 0.904407 0.305127 0.815781
O O12 0.000000 0.362521 0.894366
O O13 0.900588 0.344570 0.000000
O O14 0.324385 0.291036 0.500000
O O15 0.250000 0.250000 0.369066
O O16 0.376293 0.255072 0.342101
O O17 0.500000 0.769082 0.293829
#
# Coordination Sequence:
#
# PCOD9483675 Si02
#       6
#    16  16   8  16  16  16
#     4   8  14  27  47  64  78 107 153 189 207 237
#     4   9  17  28  40  59  89 120 148 174 204 251
#     4   7  10  20  38  54  71 105 149 181 203 236
#     4   8  15  27  40  55  79 111 146 182 216 254
#     4  10  18  30  46  63  87 120 150 176 209 252
#     4  11  21  28  41  65  90 116 146 179 219 262
#
# _framework density 14.600904999999999
#
# number of rings (size 3 to 8) (size 9 to 14) (size 15 to 20)
#    0.000    3.000    1.818    2.727    1.273    1.818 
#    0.000    0.909    0.000    1.091    0.000    2.545 
#    0.000    0.727    0.000    4.545    0.000    0.000 
#
# Total GULP energy -244961.799437 kJ/mol
# GULP energy per Si atom -5567.313624 kJ/mol
# Density = 1.456767 g / cm^3
# Si number density = 14.600905 Si / 1000 Ang^3
#
#
#
# Elastic Constant Matrix: (Units=GPa)
#
#
# Indices 1 2 3 4 5 6 
#
# 1 52.4997 41.2161 23.5061 0.0000 0.0000 0.0000
# 2 41.2161 92.2381 27.7110 0.0000 0.0000 0.0000
# 3 23.5061 27.7110 39.6879 0.0000 0.0000 0.0000
# 4 0.0000 0.0000 0.0000 18.1587 0.0000 0.0000
# 5 0.0000 0.0000 0.0000 0.0000 -27.4905 0.0000
# 6 0.0000 0.0000 0.0000 0.0000 0.0000 19.8617
#
#
#
# Elastic Compliance Matrix: (Units=1/GPa)
#
#
# Indices 1 2 3 4 5 6 
#
# 1 0.033182 -0.011291 -0.011769 0.000000 0.000000 0.000000
# 2 -0.011291 0.017562 -0.005574 0.000000 0.000000 0.000000
# 3 -0.011769 -0.005574 0.036059 0.000000 0.000000 0.000000
# 4 0.000000 0.000000 0.000000 0.055070 0.000000 0.000000
# 5 0.000000 0.000000 0.000000 0.000000 -0.036376 0.000000
# 6 0.000000 0.000000 0.000000 0.000000 0.000000 0.050348
#
#
# Mechanical properties :
#
#
# Convention : Reuss Voigt Hill
#
# Bulk Modulus (GPa) = 33.85996 41.03245 37.44621
# Shear Modulus (GPa) = 22.42578 8.23881 15.33230
#
# Velocity S-wave (km/s) = 3.92333 2.37801 3.24403
# Velocity P-wave (km/s) = 6.61544 5.97525 6.30347
#
# Compressibility (1/GPa) = 0.02953341
#
# Stress axis : x y z
#
# Youngs Moduli (GPa) = 30.13722 56.94212 27.73230
#
# Poissons Ratio (x) = 0.64295 0.32637
# Poissons Ratio (y) = 0.34029 0.15459
# Poissons Ratio (z) = 0.35468 0.31742
#
# Static dielectric constant tensor:
#      x y z
#    x 1.456520 0.000000 0.000000 
#    y 0.000000 1.511520 0.000000 
#    z 0.000000 0.000000 1.508630 
# 
# From -- ./inp_files/44547.got.cif
#   From: 2010.05.17/outbox.cif.g08.bks.cpg/sg65_23_cif.got.tgz:44547.got - 2010.06.03 17:01:31.
