data_PCOD9483556
_publ_section_title
;
Structure prediction by ZEFSAII (Michael W. Deem and Ramdas Pophale) SiO2 
 PCOD9483556
Probable space group: C M M M
;
_chemical_formula_sum "Si O2"
_cell_formula_units_Z 88
_cell_length_a 18.782112
_cell_length_b 7.936400
_cell_length_c 30.144586
_cell_angle_alpha 90.000000
_cell_angle_beta 90.000000
_cell_angle_gamma 90.000000
_cell_volume 4493.422940
_symmetry_space_group_name_H-M "C M M M"
_symmetry_group_IT_number 65
_symmetry_cell_setting 'orthorhombic'
loop_
_space_group_symop_operation_xyz
x,y,z
-x,-y,z
x,-y,-z
-x,y,-z
-x,-y,-z
x,y,-z
-x,y,z
x,-y,z
1/2+x,1/2+y,z
1/2-x,1/2-y,z
1/2+x,1/2-y,-z
1/2-x,1/2+y,-z
1/2-x,1/2-y,-z
1/2+x,1/2+y,-z
1/2-x,1/2+y,z
1/2+x,1/2-y,z
loop_
_atom_site_type_symbol
_atom_site_label
_atom_site_fract_x
_atom_site_fract_y
_atom_site_fract_z
Si Si1 0.082304 0.206783 0.412769
Si Si2 0.333026 0.300793 0.327136
Si Si3 0.167095 0.703640 0.134570
Si Si4 0.833414 0.700567 0.769183
Si Si5 0.667311 0.297067 0.500000
Si Si6 0.582980 0.794453 0.951152
O O1 0.120869 0.267670 0.367914
O O2 0.126801 0.262149 0.455768
O O3 0.000000 0.258524 0.415034
O O4 0.082744 0.000000 0.412567
O O5 0.333953 0.500000 0.330952
O O6 0.250000 0.250000 0.330223
O O7 0.362456 0.258835 0.278142
O O8 0.161718 0.500000 0.134577
O O9 0.250000 0.750000 0.131468
O O10 0.139122 0.763413 0.182943
O O11 0.126073 0.767602 0.091351
O O12 0.838291 0.500000 0.769366
O O13 0.750000 0.750000 0.768656
O O14 0.663171 0.500000 0.500000
O O15 0.750000 0.250000 0.500000
O O16 0.500000 0.748603 0.947401
O O17 0.585966 0.000000 0.950865
O O18 0.609091 0.739743 0.000000
#
# Coordination Sequence:
#
# PCOD9483556 Si02
#       6
#    16  16  16  16   8  16
#     4   9  18  32  50  72  96 124 157 189 223 266
#     4  10  18  29  48  70  92 119 153 191 224 262
#     4   9  17  28  44  67  91 115 146 185 226 266
#     4   9  16  27  43  64  91 120 150 184 223 267
#     4  10  19  33  55  77  97 122 154 192 228 268
#     4   8  14  26  44  64  86 114 148 183 219 264
#
# _framework density 19.584181000000001
#
# number of rings (size 3 to 8) (size 9 to 14) (size 15 to 20)
#    0.000    2.909    0.000    3.545    0.000    2.182 
#    0.000    1.818    0.000    7.091    0.000    1.273 
#    0.000    0.000    0.000    0.000    0.000    0.000 
#
# Total GULP energy -245174.120071 kJ/mol
# GULP energy per Si atom -5572.139093 kJ/mol
# Density = 1.953961 g / cm^3
# Si number density = 19.584181 Si / 1000 Ang^3
#
#
#
# Elastic Constant Matrix: (Units=GPa)
#
#
# Indices 1 2 3 4 5 6 
#
# 1 89.4881 3.1825 101.8659 0.0000 0.0000 0.0000
# 2 3.1825 19.3070 14.3190 0.0000 0.0000 0.0000
# 3 101.8659 14.3190 257.9791 0.0000 0.0000 0.0000
# 4 0.0000 0.0000 0.0000 268.3569 0.0000 0.0000
# 5 0.0000 0.0000 0.0000 0.0000 -20.6084 0.0000
# 6 0.0000 0.0000 0.0000 0.0000 0.0000 11.2496
#
#
#
# Elastic Compliance Matrix: (Units=1/GPa)
#
#
# Indices 1 2 3 4 5 6 
#
# 1 0.020435 0.002728 -0.008220 0.000000 0.000000 0.000000
# 2 0.002728 0.054383 -0.004096 0.000000 0.000000 0.000000
# 3 -0.008220 -0.004096 0.007350 0.000000 0.000000 0.000000
# 4 0.000000 0.000000 0.000000 0.003726 0.000000 0.000000
# 5 0.000000 0.000000 0.000000 0.000000 -0.048524 0.000000
# 6 0.000000 0.000000 0.000000 0.000000 0.000000 0.088892
#
#
# Mechanical properties :
#
#
# Convention : Reuss Voigt Hill
#
# Bulk Modulus (GPa) = 15.87520 67.27877 41.57698
# Shear Modulus (GPa) = 30.04181 68.29341 49.16761
#
# Velocity S-wave (km/s) = 3.92086 5.91163 5.01600
# Velocity P-wave (km/s) = 5.34988 9.00138 7.40426
#
# Compressibility (1/GPa) = 0.06299132
#
# Stress axis : x y z
#
# Youngs Moduli (GPa) = 48.93525 18.38825 136.06255
#
# Poissons Ratio (x) = -0.05017 1.11850
# Poissons Ratio (y) = -0.13351 0.55728
# Poissons Ratio (z) = 0.40227 0.07531
#
# Static dielectric constant tensor:
#      x y z
#    x 1.647620 0.000000 0.000000 
#    y 0.000000 1.702380 0.000000 
#    z 0.000000 0.000000 1.747930 
# 
# From -- ./inp_files/77859.got.cif
#   From: 2010.05.17/outbox.cif.g08.bks.cpg/sg65_39_cif.got.tgz:77859.got - 2010.06.03 17:01:31.
