data_PCOD9483329
_publ_section_title
;
Structure prediction by ZEFSAII (Michael W. Deem and Ramdas Pophale) SiO2 
 PCOD9483329
Probable space group: C M M M
;
_chemical_formula_sum "Si O2"
_cell_formula_units_Z 96
_cell_length_a 7.607755
_cell_length_b 24.579497
_cell_length_c 26.474937
_cell_angle_alpha 90.000000
_cell_angle_beta 90.000000
_cell_angle_gamma 90.000000
_cell_volume 4950.675316
_symmetry_space_group_name_H-M "C M M M"
_symmetry_group_IT_number 65
_symmetry_cell_setting 'orthorhombic'
loop_
_space_group_symop_operation_xyz
x,y,z
-x,-y,z
x,-y,-z
-x,y,-z
-x,-y,-z
x,y,-z
-x,y,z
x,-y,z
1/2+x,1/2+y,z
1/2-x,1/2-y,z
1/2+x,1/2-y,-z
1/2-x,1/2+y,-z
1/2-x,1/2-y,-z
1/2+x,1/2+y,-z
1/2-x,1/2+y,z
1/2+x,1/2-y,z
loop_
_atom_site_type_symbol
_atom_site_label
_atom_site_fract_x
_atom_site_fract_y
_atom_site_fract_z
Si Si1 0.707013 0.686389 0.751596
Si Si2 0.797883 0.000000 0.334881
Si Si3 0.289943 0.891993 0.840140
Si Si4 0.289242 0.686342 0.555741
Si Si5 0.214371 0.436671 0.943342
Si Si6 0.216858 0.879523 0.346563
Si Si7 0.214367 0.500000 0.218699
O O1 0.500000 0.681939 0.747125
O O2 0.750000 0.750000 0.747611
O O3 0.753425 0.660033 0.805546
O O4 0.779224 0.650462 0.704767
O O5 0.721157 0.058207 0.349992
O O6 0.790884 0.000000 0.274322
O O7 0.000000 0.000000 0.352583
O O8 0.500000 0.896158 0.843115
O O9 0.224629 0.898335 0.897621
O O10 0.228768 0.945628 0.810127
O O11 0.222130 0.670044 0.500000
O O12 0.500000 0.680068 0.554843
O O13 0.250000 0.750000 0.562412
O O14 0.225479 0.653267 0.604016
O O15 0.261518 0.500000 0.933023
O O16 0.000000 0.435512 0.944279
O O17 0.274240 0.422707 0.000000
O O18 0.000000 0.880248 0.345241
O O19 0.000000 0.500000 0.221689
#
# Coordination Sequence:
#
# PCOD9483329 Si02
#       7
#    16   8  16  16  16  16   8
#     4  11  22  35  50  70  96 128 164 202 245 289
#     4  10  18  32  49  67  97 133 162 189 232 294
#     4  10  18  30  49  74 103 130 159 198 238 283
#     4   9  17  31  50  71  94 122 159 201 241 281
#     4   8  13  23  43  72 102 129 157 191 233 281
#     4   9  18  31  49  72  97 125 157 195 238 287
#     4  10  18  28  45  73 103 129 160 195 234 278
#
# _framework density 19.391293000000001
#
# number of rings (size 3 to 8) (size 9 to 14) (size 15 to 20)
#    0.000    2.500    2.500    1.500    0.000    0.000 
#    0.000    2.083    0.000    3.500    0.000    1.167 
#    0.000    3.333    0.000    0.000    0.000    0.000 
#
# Total GULP energy -267670.914287 kJ/mol
# GULP energy per Si atom -5576.477381 kJ/mol
# Density = 1.934716 g / cm^3
# Si number density = 19.391293 Si / 1000 Ang^3
#
#
#
# Elastic Constant Matrix: (Units=GPa)
#
#
# Indices 1 2 3 4 5 6 
#
# 1 36.9722 -2.1518 5.3455 0.0000 0.0000 0.0000
# 2 -2.1518 122.4222 87.4912 0.0000 0.0000 0.0000
# 3 5.3455 87.4912 171.1755 0.0000 0.0000 0.0000
# 4 0.0000 0.0000 0.0000 27.1634 0.0000 0.0000
# 5 0.0000 0.0000 0.0000 0.0000 10.7985 0.0000
# 6 0.0000 0.0000 0.0000 0.0000 0.0000 -32.6990
#
#
#
# Elastic Compliance Matrix: (Units=1/GPa)
#
#
# Indices 1 2 3 4 5 6 
#
# 1 0.027399 0.001722 -0.001736 0.000000 0.000000 0.000000
# 2 0.001722 0.012978 -0.006687 0.000000 0.000000 0.000000
# 3 -0.001736 -0.006687 0.009314 0.000000 0.000000 0.000000
# 4 0.000000 0.000000 0.000000 0.036814 0.000000 0.000000
# 5 0.000000 0.000000 0.000000 0.000000 0.092606 0.000000
# 6 0.000000 0.000000 0.000000 0.000000 0.000000 -0.030582
#
#
# Mechanical properties :
#
#
# Convention : Reuss Voigt Hill
#
# Bulk Modulus (GPa) = 27.55658 56.88218 42.21938
# Shear Modulus (GPa) = 28.73143 17.04493 22.88818
#
# Velocity S-wave (km/s) = 3.85342 2.96801 3.43932
# Velocity P-wave (km/s) = 5.83439 6.41428 6.13119
#
# Compressibility (1/GPa) = 0.03628897
#
# Stress axis : x y z
#
# Youngs Moduli (GPa) = 36.49825 77.05570 107.36564
#
# Poissons Ratio (x) = -0.13270 0.18637
# Poissons Ratio (y) = -0.06285 0.71794
# Poissons Ratio (z) = 0.06335 0.51526
#
# Static dielectric constant tensor:
#      x y z
#    x 1.731470 0.000000 0.000000 
#    y 0.000000 1.619990 0.000000 
#    z 0.000000 0.000000 1.706010 
# 
# From -- ./inp_files/73486.got.cif
#   From: 2010.05.17/outbox.cif.g08.bks.cpg/sg65_37_cif.got.tgz:73486.got - 2010.06.03 17:01:31.
