data_PCOD9483060
_publ_section_title
;
Structure prediction by ZEFSAII (Michael W. Deem and Ramdas Pophale) SiO2 
 PCOD9483060
Probable space group: C M M M
;
_chemical_formula_sum "Si O2"
_cell_formula_units_Z 88
_cell_length_a 30.824484
_cell_length_b 24.389393
_cell_length_c 9.202985
_cell_angle_alpha 90.000000
_cell_angle_beta 90.000000
_cell_angle_gamma 90.000000
_cell_volume 6918.716274
_symmetry_space_group_name_H-M "C M M M"
_symmetry_group_IT_number 65
_symmetry_cell_setting 'orthorhombic'
loop_
_space_group_symop_operation_xyz
x,y,z
-x,-y,z
x,-y,-z
-x,y,-z
-x,-y,-z
x,y,-z
-x,y,z
x,-y,z
1/2+x,1/2+y,z
1/2-x,1/2-y,z
1/2+x,1/2-y,-z
1/2-x,1/2+y,-z
1/2-x,1/2-y,-z
1/2+x,1/2+y,-z
1/2-x,1/2+y,z
1/2+x,1/2-y,z
loop_
_atom_site_type_symbol
_atom_site_label
_atom_site_fract_x
_atom_site_fract_y
_atom_site_fract_z
Si Si1 0.796540 0.218884 0.666964
Si Si2 0.000000 0.436038 0.677231
Si Si3 0.837889 0.318108 0.826665
Si Si4 0.746610 0.378669 0.174585
Si Si5 0.907822 0.389838 0.670916
Si Si6 0.351694 0.000000 0.335206
Si Si7 0.237352 0.500000 0.825779
O O1 0.810081 0.211764 0.500000
O O2 0.750000 0.250000 0.666593
O O3 0.827968 0.259537 0.753971
O O4 0.786658 0.161754 0.746269
O O5 0.956429 0.404226 0.720974
O O6 0.000000 0.500000 0.724858
O O7 0.000000 0.437889 0.500000
O O8 0.795659 0.356722 0.793932
O O9 0.880609 0.345782 0.760786
O O10 0.840568 0.313233 0.000000
O O11 0.742819 0.441911 0.222221
O O12 0.741109 0.374836 0.000000
O O13 0.908951 0.374319 0.500000
O O14 0.881310 0.446679 0.681231
O O15 0.333814 0.000000 0.500000
O O16 0.312369 0.000000 0.224542
O O17 0.238727 0.500000 0.000000
#
# Coordination Sequence:
#
# PCOD9483060 Si02
#       7
#    16   8  16  16  16   8   8
#     4   9  17  28  41  56  74  94 122 159 195 229
#     4   9  16  28  43  57  75 101 131 164 203 244
#     4  10  18  28  42  56  74  98 126 160 198 237
#     4   9  17  27  39  55  76 101 127 154 190 232
#     4  10  18  28  42  58  74  97 131 167 203 240
#     4  10  18  25  38  56  74  96 128 168 201 233
#     4  10  18  28  39  55  79 106 130 155 191 238
#
# _framework density 12.719123
#
# number of rings (size 3 to 8) (size 9 to 14) (size 15 to 20)
#    0.000    2.455    2.727    1.091    0.000    3.636 
#    0.000    0.455    0.000    0.545    0.000    0.000 
#    0.000    0.000    0.000    0.000    0.000    0.909 
#
# Total GULP energy -245107.585039 kJ/mol
# GULP energy per Si atom -5570.626933 kJ/mol
# Density = 1.269017 g / cm^3
# Si number density = 12.719123 Si / 1000 Ang^3
#
#
#
# Elastic Constant Matrix: (Units=GPa)
#
#
# Indices 1 2 3 4 5 6 
#
# 1 61.2286 48.2833 32.2906 0.0000 0.0000 0.0000
# 2 48.2833 108.5912 45.2502 0.0000 0.0000 0.0000
# 3 32.2906 45.2502 39.9368 0.0000 0.0000 0.0000
# 4 0.0000 0.0000 0.0000 19.0266 0.0000 0.0000
# 5 0.0000 0.0000 0.0000 0.0000 11.4720 0.0000
# 6 0.0000 0.0000 0.0000 0.0000 0.0000 15.2584
#
#
#
# Elastic Compliance Matrix: (Units=1/GPa)
#
#
# Indices 1 2 3 4 5 6 
#
# 1 0.030550 -0.006234 -0.017637 0.000000 0.000000 0.000000
# 2 -0.006234 0.018718 -0.016168 0.000000 0.000000 0.000000
# 3 -0.017637 -0.016168 0.057619 0.000000 0.000000 0.000000
# 4 0.000000 0.000000 0.000000 0.052558 0.000000 0.000000
# 5 0.000000 0.000000 0.000000 0.000000 0.087168 0.000000
# 6 0.000000 0.000000 0.000000 0.000000 0.000000 0.065538
#
#
# Mechanical properties :
#
#
# Convention : Reuss Voigt Hill
#
# Bulk Modulus (GPa) = 37.30189 51.26719 44.28454
# Shear Modulus (GPa) = 12.46371 14.74691 13.60531
#
# Velocity S-wave (km/s) = 3.13376 3.40873 3.27413
# Velocity P-wave (km/s) = 6.51805 7.47578 7.01328
#
# Compressibility (1/GPa) = 0.02680829
#
# Stress axis : x y z
#
# Youngs Moduli (GPa) = 32.73361 53.42523 17.35542
#
# Poissons Ratio (x) = 0.33304 0.30611
# Poissons Ratio (y) = 0.20406 0.28060
# Poissons Ratio (z) = 0.57734 0.86376
#
# Static dielectric constant tensor:
#      x y z
#    x 1.390070 0.000000 0.000000 
#    y 0.000000 1.416950 0.000000 
#    z 0.000000 0.000000 1.427050 
# 
# From -- ./inp_files/15013.got.cif
#   From: 2010.05.17/outbox.cif.g08.bks.cpg/sg65_8_cif.got.tgz:15013.got - 2010.06.03 17:01:31.
