data_PCOD9483090
_publ_section_title
;
Structure prediction by ZEFSAII (Michael W. Deem and Ramdas Pophale) SiO2 
 PCOD9483090
Probable space group: C M M M
;
_chemical_formula_sum "Si O2"
_cell_formula_units_Z 72
_cell_length_a 16.453251
_cell_length_b 14.602102
_cell_length_c 14.474089
_cell_angle_alpha 90.000000
_cell_angle_beta 90.000000
_cell_angle_gamma 90.000000
_cell_volume 3477.429544
_symmetry_space_group_name_H-M "C M M M"
_symmetry_group_IT_number 65
_symmetry_cell_setting 'orthorhombic'
loop_
_space_group_symop_operation_xyz
x,y,z
-x,-y,z
x,-y,-z
-x,y,-z
-x,-y,-z
x,y,-z
-x,y,z
x,-y,z
1/2+x,1/2+y,z
1/2-x,1/2-y,z
1/2+x,1/2-y,-z
1/2-x,1/2+y,-z
1/2-x,1/2-y,-z
1/2+x,1/2+y,-z
1/2-x,1/2+y,z
1/2+x,1/2-y,z
loop_
_atom_site_type_symbol
_atom_site_label
_atom_site_fract_x
_atom_site_fract_y
_atom_site_fract_z
Si Si1 0.250805 0.357760 0.209801
Si Si2 0.590202 0.639813 0.107621
Si Si3 0.000000 0.394750 0.387183
Si Si4 0.323911 0.110428 0.395520
Si Si5 0.410224 0.862518 0.891883
O O1 0.250000 0.250000 0.188028
O O2 0.334176 0.393818 0.167354
O O3 0.242576 0.367987 0.319384
O O4 0.168088 0.395629 0.164093
O O5 0.500000 0.609575 0.136562
O O6 0.589398 0.751261 0.111545
O O7 0.601934 0.615556 0.000000
O O8 0.912708 0.352552 0.362580
O O9 0.000000 0.500000 0.354824
O O10 0.000000 0.397290 0.500000
O O11 0.307406 0.142077 0.500000
O O12 0.331811 0.000000 0.399507
O O13 0.500000 0.892156 0.858653
O O14 0.402589 0.887327 0.000000
#
# Coordination Sequence:
#
# PCOD9483090 Si02
#       5
#    16  16   8  16  16
#     4  10  18  26  44  72  93 116 149 194 229 265
#     4   8  14  26  43  63  90 121 151 185 223 264
#     4   7  12  26  46  64  81 109 150 182 207 258
#     4   9  18  32  48  65  89 122 155 185 223 275
#     4   8  14  24  39  63  95 124 147 174 217 275
#
# _framework density 20.70495
#
# number of rings (size 3 to 8) (size 9 to 14) (size 15 to 20)
#    0.000    3.444    0.000    3.333    1.556    3.111 
#    0.000    0.000    0.000    4.000    0.000    4.667 
#    0.000    0.000    0.000    0.000    0.000    0.000 
#
# Total GULP energy -200721.656068 kJ/mol
# GULP energy per Si atom -5575.601557 kJ/mol
# Density = 2.065782 g / cm^3
# Si number density = 20.704950 Si / 1000 Ang^3
#
#
#
# Elastic Constant Matrix: (Units=GPa)
#
#
# Indices 1 2 3 4 5 6 
#
# 1 198.9105 7.4854 110.6681 0.0000 0.0000 0.0000
# 2 7.4854 59.9154 -3.7319 0.0000 0.0000 0.0000
# 3 110.6681 -3.7319 97.9634 0.0000 0.0000 0.0000
# 4 0.0000 0.0000 0.0000 23.9157 0.0000 0.0000
# 5 0.0000 0.0000 0.0000 0.0000 32.5165 0.0000
# 6 0.0000 0.0000 0.0000 0.0000 0.0000 -14.9670
#
#
#
# Elastic Compliance Matrix: (Units=1/GPa)
#
#
# Indices 1 2 3 4 5 6 
#
# 1 0.013967 -0.002734 -0.015882 0.000000 0.000000 0.000000
# 2 -0.002734 0.017265 0.003746 0.000000 0.000000 0.000000
# 3 -0.015882 0.003746 0.028292 0.000000 0.000000 0.000000
# 4 0.000000 0.000000 0.000000 0.041814 0.000000 0.000000
# 5 0.000000 0.000000 0.000000 0.000000 0.030754 0.000000
# 6 0.000000 0.000000 0.000000 0.000000 0.000000 -0.066814
#
#
# Mechanical properties :
#
#
# Convention : Reuss Voigt Hill
#
# Bulk Modulus (GPa) = 33.57440 65.07027 49.32233
# Shear Modulus (GPa) = 47.64391 24.45090 36.04740
#
# Velocity S-wave (km/s) = 4.80217 3.44018 4.17706
# Velocity P-wave (km/s) = 6.85555 6.87571 6.86564
#
# Compressibility (1/GPa) = 0.02978460
#
# Stress axis : x y z
#
# Youngs Moduli (GPa) = 71.59933 57.92022 35.34518
#
# Poissons Ratio (x) = 0.15836 0.56135
# Poissons Ratio (y) = 0.19576 -0.13242
# Poissons Ratio (z) = 1.13715 -0.21699
#
# Static dielectric constant tensor:
#      x y z
#    x 1.785580 0.000000 0.000000 
#    y 0.000000 1.777550 0.000000 
#    z 0.000000 0.000000 1.735760 
# 
# From -- ./inp_files/24473.got.cif
#   From: 2010.05.17/outbox.cif.g08.bks.cpg/sg65_13_cif.got.tgz:24473.got - 2010.06.03 17:01:31.
