data_PCOD9483286
_publ_section_title
;
Structure prediction by ZEFSAII (Michael W. Deem and Ramdas Pophale) SiO2 
 PCOD9483286
Probable space group: C M M M
;
_chemical_formula_sum "Si O2"
_cell_formula_units_Z 88
_cell_length_a 28.038617
_cell_length_b 8.863574
_cell_length_c 22.123058
_cell_angle_alpha 90.000000
_cell_angle_beta 90.000000
_cell_angle_gamma 90.000000
_cell_volume 5498.074510
_symmetry_space_group_name_H-M "C M M M"
_symmetry_group_IT_number 65
_symmetry_cell_setting 'orthorhombic'
loop_
_space_group_symop_operation_xyz
x,y,z
-x,-y,z
x,-y,-z
-x,y,-z
-x,-y,-z
x,y,-z
-x,y,z
x,-y,z
1/2+x,1/2+y,z
1/2-x,1/2-y,z
1/2+x,1/2-y,-z
1/2-x,1/2+y,-z
1/2-x,1/2-y,-z
1/2+x,1/2+y,-z
1/2-x,1/2+y,z
1/2+x,1/2-y,z
loop_
_atom_site_type_symbol
_atom_site_label
_atom_site_fract_x
_atom_site_fract_y
_atom_site_fract_z
Si Si1 0.802858 0.681255 0.000000
Si Si2 0.105751 0.319399 0.568826
Si Si3 0.445980 0.681864 0.681749
Si Si4 0.196845 0.680810 0.132397
Si Si5 0.801574 0.819538 0.373040
Si Si6 0.352848 0.319535 0.247136
O O1 0.750000 0.750000 0.000000
O O2 0.823350 0.724130 0.065667
O O3 0.799554 0.500000 0.000000
O O4 0.092749 0.281173 0.500000
O O5 0.107735 0.500000 0.574590
O O6 0.069573 0.253116 0.618117
O O7 0.157432 0.250921 0.585110
O O8 0.500000 0.723022 0.697803
O O9 0.443114 0.500000 0.675865
O O10 0.405646 0.725834 0.730373
O O11 0.200692 0.500000 0.135435
O O12 0.250000 0.750000 0.137944
O O13 0.165065 0.739837 0.187097
O O14 0.750000 0.750000 0.384826
O O15 0.818082 0.786330 0.303987
O O16 0.800854 0.000000 0.380295
O O17 0.352199 0.500000 0.238010
#
# Coordination Sequence:
#
# PCOD9483286 Si02
#       6
#     8  16  16  16  16  16
#     4   8  16  28  40  60  91 126 161 191 218 255
#     4  10  21  35  50  70  95 121 151 188 229 275
#     4   9  19  36  55  72  91 117 149 188 235 283
#     4  10  18  28  44  66  95 129 160 189 222 261
#     4  10  20  33  49  68  93 125 158 192 229 271
#     4   9  18  31  47  69  93 117 150 189 228 272
#
# _framework density 16.005603000000001
#
# number of rings (size 3 to 8) (size 9 to 14) (size 15 to 20)
#    0.000    2.545    0.000    3.273    0.000    8.364 
#    0.000    1.818    0.000    0.000    0.000    0.636 
#    0.000    5.091    0.000    0.000    0.000    0.000 
#
# Total GULP energy -245280.566503 kJ/mol
# GULP energy per Si atom -5574.558330 kJ/mol
# Density = 1.596917 g / cm^3
# Si number density = 16.005603 Si / 1000 Ang^3
#
#
#
# Elastic Constant Matrix: (Units=GPa)
#
#
# Indices 1 2 3 4 5 6 
#
# 1 80.8290 19.5194 37.4473 0.0000 0.0000 0.0000
# 2 19.5194 22.8378 34.8059 0.0000 0.0000 0.0000
# 3 37.4473 34.8059 123.5888 0.0000 0.0000 0.0000
# 4 0.0000 0.0000 0.0000 23.6708 0.0000 0.0000
# 5 0.0000 0.0000 0.0000 0.0000 9.6985 0.0000
# 6 0.0000 0.0000 0.0000 0.0000 0.0000 21.2581
#
#
#
# Elastic Compliance Matrix: (Units=1/GPa)
#
#
# Indices 1 2 3 4 5 6 
#
# 1 0.015796 -0.010874 -0.001724 0.000000 0.000000 0.000000
# 2 -0.010874 0.084198 -0.020418 0.000000 0.000000 0.000000
# 3 -0.001724 -0.020418 0.014364 0.000000 0.000000 0.000000
# 4 0.000000 0.000000 0.000000 0.042246 0.000000 0.000000
# 5 0.000000 0.000000 0.000000 0.000000 0.103109 0.000000
# 6 0.000000 0.000000 0.000000 0.000000 0.000000 0.047041
#
#
# Mechanical properties :
#
#
# Convention : Reuss Voigt Hill
#
# Bulk Modulus (GPa) = 20.69203 45.64452 33.16828
# Shear Modulus (GPa) = 12.85694 19.95767 16.40730
#
# Velocity S-wave (km/s) = 2.83729 3.53500 3.20519
# Velocity P-wave (km/s) = 4.86720 6.72617 5.87074
#
# Compressibility (1/GPa) = 0.04832778
#
# Stress axis : x y z
#
# Youngs Moduli (GPa) = 63.30556 11.87671 69.61902
#
# Poissons Ratio (x) = 0.12914 0.12002
# Poissons Ratio (y) = 0.68837 1.42146
# Poissons Ratio (z) = 0.10914 0.24250
#
# Static dielectric constant tensor:
#      x y z
#    x 1.515740 0.000000 0.000000 
#    y 0.000000 1.537990 0.000000 
#    z 0.000000 0.000000 1.548390 
# 
# From -- ./inp_files/60270.got.cif
#   From: 2010.05.17/outbox.cif.g08.bks.cpg/sg65_31_cif.got.tgz:60270.got - 2010.06.03 17:01:31.
