data_PCOD9483532
_publ_section_title
;
Structure prediction by ZEFSAII (Michael W. Deem and Ramdas Pophale) SiO2 
 PCOD9483532
Probable space group: C M M M
;
_chemical_formula_sum "Si O2"
_cell_formula_units_Z 80
_cell_length_a 26.041202
_cell_length_b 21.192364
_cell_length_c 8.685435
_cell_angle_alpha 90.000000
_cell_angle_beta 90.000000
_cell_angle_gamma 90.000000
_cell_volume 4793.271242
_symmetry_space_group_name_H-M "C M M M"
_symmetry_group_IT_number 65
_symmetry_cell_setting 'orthorhombic'
loop_
_space_group_symop_operation_xyz
x,y,z
-x,-y,z
x,-y,-z
-x,y,-z
-x,-y,-z
x,y,-z
-x,y,z
x,-y,z
1/2+x,1/2+y,z
1/2-x,1/2-y,z
1/2+x,1/2-y,-z
1/2-x,1/2+y,-z
1/2-x,1/2-y,-z
1/2+x,1/2+y,-z
1/2-x,1/2+y,z
1/2+x,1/2-y,z
loop_
_atom_site_type_symbol
_atom_site_label
_atom_site_fract_x
_atom_site_fract_y
_atom_site_fract_z
Si Si1 0.781954 0.569863 0.685645
Si Si2 0.000000 0.385962 0.178123
Si Si3 0.500000 0.732140 0.179495
Si Si4 0.607973 0.120773 0.315681
Si Si5 0.780650 0.186940 0.814413
Si Si6 0.610711 0.737531 0.187386
O O1 0.779995 0.572055 0.500000
O O2 0.766085 0.500000 0.736911
O O3 0.841412 0.582074 0.729555
O O4 0.746672 0.625401 0.749439
O O5 0.053588 0.405366 0.255247
O O6 0.000000 0.308853 0.186172
O O7 0.000000 0.404000 0.000000
O O8 0.555280 0.712394 0.243777
O O9 0.500000 0.713744 0.000000
O O10 0.605406 0.124146 0.500000
O O11 0.615914 0.191272 0.249145
O O12 0.750000 0.250000 0.765720
O O13 0.839884 0.196941 0.768070
O O14 0.778549 0.184301 0.000000
O O15 0.609376 0.741295 0.000000
#
# Coordination Sequence:
#
# PCOD9483532 Si02
#       6
#    16   8   8  16  16  16
#     4  10  22  37  50  68  98 134 169 206 251 300
#     4   9  17  29  46  66  93 127 161 201 248 289
#     4   7  12  23  41  64  91 122 150 182 230 286
#     4  10  18  29  47  69  93 124 166 207 243 287
#     4  10  19  31  50  75 101 127 162 207 251 298
#     4   9  16  28  46  70  99 128 158 196 246 295
#
# _framework density 16.690062999999999
#
# number of rings (size 3 to 8) (size 9 to 14) (size 15 to 20)
#    0.000    2.600    2.000    2.100    0.000    2.400 
#    0.000    0.500    0.000    3.000    0.000    0.700 
#    0.000    5.600    0.000    0.000    0.000    0.000 
#
# Total GULP energy -222876.424281 kJ/mol
# GULP energy per Si atom -5571.910607 kJ/mol
# Density = 1.665208 g / cm^3
# Si number density = 16.690063 Si / 1000 Ang^3
#
#
#
# Elastic Constant Matrix: (Units=GPa)
#
#
# Indices 1 2 3 4 5 6 
#
# 1 150.8113 65.2418 26.5071 0.0000 0.0000 0.0000
# 2 65.2418 91.3989 16.2774 0.0000 0.0000 0.0000
# 3 26.5071 16.2774 17.7553 0.0000 0.0000 0.0000
# 4 0.0000 0.0000 0.0000 -17.4664 0.0000 0.0000
# 5 0.0000 0.0000 0.0000 0.0000 24.2147 0.0000
# 6 0.0000 0.0000 0.0000 0.0000 0.0000 13.1999
#
#
#
# Elastic Compliance Matrix: (Units=1/GPa)
#
#
# Indices 1 2 3 4 5 6 
#
# 1 0.011196 -0.005993 -0.011220 0.000000 0.000000 0.000000
# 2 -0.005993 0.016284 -0.005981 0.000000 0.000000 0.000000
# 3 -0.011220 -0.005981 0.078555 0.000000 0.000000 0.000000
# 4 0.000000 0.000000 0.000000 -0.057253 0.000000 0.000000
# 5 0.000000 0.000000 0.000000 0.000000 0.041297 0.000000
# 6 0.000000 0.000000 0.000000 0.000000 0.000000 0.075758
#
#
# Mechanical properties :
#
#
# Convention : Reuss Voigt Hill
#
# Bulk Modulus (GPa) = 16.76555 52.89091 34.82823
# Shear Modulus (GPa) = 21.54175 14.11894 17.83035
#
# Velocity S-wave (km/s) = 3.59652 2.91168 3.27206
# Velocity P-wave (km/s) = 5.22625 6.56221 5.93196
#
# Compressibility (1/GPa) = 0.05964613
#
# Stress axis : x y z
#
# Youngs Moduli (GPa) = 89.32093 61.40819 12.73001
#
# Poissons Ratio (x) = 0.36805 0.14282
# Poissons Ratio (y) = 0.53534 0.07614
# Poissons Ratio (z) = 1.00214 0.36730
#
# Static dielectric constant tensor:
#      x y z
#    x 1.608010 0.000000 0.000000 
#    y 0.000000 1.532510 0.000000 
#    z 0.000000 0.000000 1.565200 
# 
# From -- ./inp_files/12099.got.cif
#   From: 2010.05.17/outbox.cif.g08.bks.cpg/sg65_7_cif.got.tgz:12099.got - 2010.06.03 17:01:31.
