data_PCOD9483942
_publ_section_title
;
Structure prediction by ZEFSAII (Michael W. Deem and Ramdas Pophale) SiO2 
 PCOD9483942
Probable space group: C M M M
;
_chemical_formula_sum "Si O2"
_cell_formula_units_Z 104
_cell_length_a 14.431274
_cell_length_b 20.186386
_cell_length_c 15.398538
_cell_angle_alpha 90.000000
_cell_angle_beta 90.000000
_cell_angle_gamma 90.000000
_cell_volume 4485.829216
_symmetry_space_group_name_H-M "C M M M"
_symmetry_group_IT_number 65
_symmetry_cell_setting 'orthorhombic'
loop_
_space_group_symop_operation_xyz
x,y,z
-x,-y,z
x,-y,-z
-x,y,-z
-x,-y,-z
x,y,-z
-x,y,z
x,-y,z
1/2+x,1/2+y,z
1/2-x,1/2-y,z
1/2+x,1/2-y,-z
1/2-x,1/2+y,-z
1/2-x,1/2-y,-z
1/2+x,1/2+y,-z
1/2-x,1/2+y,z
1/2+x,1/2-y,z
loop_
_atom_site_type_symbol
_atom_site_label
_atom_site_fract_x
_atom_site_fract_y
_atom_site_fract_z
Si Si1 0.108755 0.118168 0.718464
Si Si2 0.613733 0.500000 0.401446
Si Si3 0.113617 0.427734 0.217411
Si Si4 0.605989 0.893892 0.594634
Si Si5 0.113321 0.845208 0.097505
Si Si6 0.140266 0.759801 0.403424
Si Si7 0.612437 0.192475 0.901990
O O1 0.145168 0.064339 0.651347
O O2 0.145764 0.116516 0.816698
O O3 0.116005 0.189819 0.672759
O O4 0.000000 0.103659 0.727300
O O5 0.500000 0.500000 0.404482
O O6 0.645993 0.500000 0.500000
O O7 0.139694 0.500000 0.181564
O O8 0.146026 0.421992 0.316883
O O9 0.144213 0.363301 0.164427
O O10 0.000000 0.425441 0.218235
O O11 0.649772 0.906963 0.500000
O O12 0.500000 0.917914 0.590279
O O13 0.602181 0.814253 0.606203
O O14 0.141365 0.768390 0.111801
O O15 0.000000 0.846420 0.097119
O O16 0.141883 0.865753 0.000000
O O17 0.112520 0.785135 0.500000
O O18 0.250000 0.750000 0.403303
O O19 0.500000 0.193625 0.898279
O O20 0.638766 0.173917 0.000000
#
# Coordination Sequence:
#
# PCOD9483942 Si02
#       7
#    16   8  16  16  16  16  16
#     4  10  18  30  51  75 100 132 165 199 245 298
#     4   9  18  30  45  71 103 131 165 205 242 289
#     4   9  16  24  36  57  84 114 149 186 222 263
#     4   9  17  29  45  64  86 115 153 193 234 280
#     4   8  14  25  43  69  98 125 156 197 244 291
#     4  10  20  32  48  70  96 123 156 202 250 291
#     4   8  13  21  33  52  82 117 148 181 224 270
#
# _framework density 23.184118999999999
#
# number of rings (size 3 to 8) (size 9 to 14) (size 15 to 20)
#    0.000    3.000    0.000    2.769    0.000    4.615 
#    0.000    3.462    1.692    2.769    0.000    0.000 
#    0.000    0.000    0.000    0.000    0.000    0.000 
#
# Total GULP energy -290376.516292 kJ/mol
# GULP energy per Si atom -5584.163775 kJ/mol
# Density = 2.313135 g / cm^3
# Si number density = 23.184119 Si / 1000 Ang^3
#
#
#
# Elastic Constant Matrix: (Units=GPa)
#
#
# Indices 1 2 3 4 5 6 
#
# 1 76.4961 -10.4280 -3.7621 0.0000 0.0000 0.0000
# 2 -10.4280 63.4333 64.8421 0.0000 0.0000 0.0000
# 3 -3.7621 64.8421 195.8312 0.0000 0.0000 0.0000
# 4 0.0000 0.0000 0.0000 107.9578 0.0000 0.0000
# 5 0.0000 0.0000 0.0000 0.0000 -7.2823 0.0000
# 6 0.0000 0.0000 0.0000 0.0000 0.0000**********
#
#
#
# Elastic Compliance Matrix: (Units=1/GPa)
#
#
# Indices 1 2 3 4 5 6 
#
# 1 0.013438 0.002941 -0.000715 0.000000 0.000000 0.000000
# 2 0.002941 0.024474 -0.008047 0.000000 0.000000 0.000000
# 3 -0.000715 -0.008047 0.007757 0.000000 0.000000 0.000000
# 4 0.000000 0.000000 0.000000 0.009263 0.000000 0.000000
# 5 0.000000 0.000000 0.000000 0.000000 -0.137320 0.000000
# 6 0.000000 0.000000 0.000000 0.000000 0.000000 -0.000059
#
#
# Mechanical properties :
#
#
# Convention : Reuss Voigt Hill
#
# Bulk Modulus (GPa) = 29.39002 48.56273 38.97637
# Shear Modulus (GPa) = -84.08797 -3328.21526 -1706.15162
#
# Velocity S-wave (km/s) = -6.02896 -37.92987 -27.15716
# Velocity P-wave (km/s) = 5.97998 43.55733 31.08859
#
# Compressibility (1/GPa) = 0.03402516
#
# Stress axis : x y z
#
# Youngs Moduli (GPa) = 74.41451 40.86000 128.91277
#
# Poissons Ratio (x) = -0.12015 0.09224
# Poissons Ratio (y) = -0.21882 1.03737
# Poissons Ratio (z) = 0.05324 0.32880
#
# Static dielectric constant tensor:
#      x y z
#    x 1.873780 0.000000 0.000000 
#    y 0.000000 1.856460 0.000000 
#    z 0.000000 0.000000 1.871810 
# 
# From -- ./inp_files/44442.got.cif
#   From: 2010.05.17/outbox.cif.g08.bks.cpg/sg65_23_cif.got.tgz:44442.got - 2010.06.03 17:01:31.
