data_PCOD9483871
_publ_section_title
;
Structure prediction by ZEFSAII (Michael W. Deem and Ramdas Pophale) SiO2 
 PCOD9483871
Probable space group: C M M M
;
_chemical_formula_sum "Si O2"
_cell_formula_units_Z 96
_cell_length_a 8.838765
_cell_length_b 26.268165
_cell_length_c 25.709780
_cell_angle_alpha 90.000000
_cell_angle_beta 90.000000
_cell_angle_gamma 90.000000
_cell_volume 5969.248834
_symmetry_space_group_name_H-M "C M M M"
_symmetry_group_IT_number 65
_symmetry_cell_setting 'orthorhombic'
loop_
_space_group_symop_operation_xyz
x,y,z
-x,-y,z
x,-y,-z
-x,y,-z
-x,-y,-z
x,y,-z
-x,y,z
x,-y,z
1/2+x,1/2+y,z
1/2-x,1/2-y,z
1/2+x,1/2-y,-z
1/2-x,1/2+y,-z
1/2-x,1/2-y,-z
1/2+x,1/2+y,-z
1/2-x,1/2+y,z
1/2+x,1/2-y,z
loop_
_atom_site_type_symbol
_atom_site_label
_atom_site_fract_x
_atom_site_fract_y
_atom_site_fract_z
Si Si1 0.320557 0.500000 0.357703
Si Si2 0.180057 0.695860 0.440307
Si Si3 0.181235 0.107330 0.755436
Si Si4 0.321167 0.000000 0.755182
Si Si5 0.682100 0.193281 0.055764
Si Si6 0.321274 0.388218 0.632120
Si Si7 0.182429 0.692930 0.828936
O O1 0.500000 0.500000 0.341379
O O2 0.219224 0.500000 0.306219
O O3 0.294101 0.553421 0.385679
O O4 0.229281 0.685349 0.500000
O O5 0.250000 0.750000 0.424757
O O6 0.232097 0.651966 0.401726
O O7 0.000000 0.700097 0.439773
O O8 0.248298 0.053050 0.774111
O O9 0.215728 0.113522 0.693724
O O10 0.251224 0.154011 0.787143
O O11 0.000000 0.106427 0.760612
O O12 0.500000 0.000000 0.763801
O O13 0.500000 0.196531 0.055701
O O14 0.750000 0.250000 0.055165
O O15 0.723994 0.172825 0.112731
O O16 0.727589 0.168974 0.000000
O O17 0.500000 0.377800 0.627132
O O18 0.250000 0.750000 0.823165
O O19 0.000000 0.695632 0.824854
#
# Coordination Sequence:
#
# PCOD9483871 Si02
#       7
#     8  16  16   8  16  16  16
#     4   8  16  32  51  73 100 126 153 186 229 278
#     4  10  21  36  53  72  94 122 157 196 235 276
#     4  10  20  34  50  70  98 129 160 195 236 281
#     4  10  18  30  50  73  94 121 160 199 235 279
#     4   8  14  25  41  61  87 120 157 195 233 276
#     4   9  18  33  53  73  94 123 156 190 229 276
#     4  10  19  30  45  68  98 130 162 196 238 285
#
# _framework density 16.082424
#
# number of rings (size 3 to 8) (size 9 to 14) (size 15 to 20)
#    0.000    2.667    0.000    3.250    0.000    5.667 
#    0.000    0.417    0.000    2.500    0.000    0.583 
#    0.000    4.667    0.000    0.000    0.000    0.000 
#
# Total GULP energy -267219.335047 kJ/mol
# GULP energy per Si atom -5567.069480 kJ/mol
# Density = 1.604582 g / cm^3
# Si number density = 16.082424 Si / 1000 Ang^3
#
#
#
# Elastic Constant Matrix: (Units=GPa)
#
#
# Indices 1 2 3 4 5 6 
#
# 1 52.9630 54.1623 40.7040 0.0000 0.0000 0.0000
# 2 54.1623 120.3151 67.3951 0.0000 0.0000 0.0000
# 3 40.7040 67.3951 67.3649 0.0000 0.0000 0.0000
# 4 0.0000 0.0000 0.0000 -3.9522 0.0000 0.0000
# 5 0.0000 0.0000 0.0000 0.0000 18.5354 0.0000
# 6 0.0000 0.0000 0.0000 0.0000 0.0000 29.2747
#
#
#
# Elastic Compliance Matrix: (Units=1/GPa)
#
#
# Indices 1 2 3 4 5 6 
#
# 1 0.040075 -0.010184 -0.014027 0.000000 0.000000 0.000000
# 2 -0.010184 0.021495 -0.015351 0.000000 0.000000 0.000000
# 3 -0.014027 -0.015351 0.038678 0.000000 0.000000 0.000000
# 4 0.000000 0.000000 0.000000 -0.253023 0.000000 0.000000
# 5 0.000000 0.000000 0.000000 0.000000 0.053951 0.000000
# 6 0.000000 0.000000 0.000000 0.000000 0.000000 0.034159
#
#
# Mechanical properties :
#
#
# Convention : Reuss Voigt Hill
#
# Bulk Modulus (GPa) = 47.33676 62.79619 55.06647
# Shear Modulus (GPa) = 232.55363 13.99702 123.27532
#
# Velocity S-wave (km/s) = 12.03807 2.95334 8.76462
# Velocity P-wave (km/s) = 14.92373 7.12466 11.69356
#
# Compressibility (1/GPa) = 0.02112523
#
# Stress axis : x y z
#
# Youngs Moduli (GPa) = 24.95304 46.52236 25.85443
#
# Poissons Ratio (x) = 0.47377 0.36265
# Poissons Ratio (y) = 0.25411 0.39690
# Poissons Ratio (z) = 0.35000 0.71418
#
# Static dielectric constant tensor:
#      x y z
#    x 1.538620 0.000000 0.000000 
#    y 0.000000 1.384940 0.000000 
#    z 0.000000 0.000000 1.562940 
# 
# From -- ./inp_files/67913.got.cif
#   From: 2010.05.17/outbox.cif.g08.bks.cpg/sg65_34_cif.got.tgz:67913.got - 2010.06.03 17:01:31.
