data_PCOD9483170
_publ_section_title
;
Structure prediction by ZEFSAII (Michael W. Deem and Ramdas Pophale) SiO2 
 PCOD9483170
Probable space group: C M M M
;
_chemical_formula_sum "Si O2"
_cell_formula_units_Z 72
_cell_length_a 8.139840
_cell_length_b 16.292157
_cell_length_c 26.079863
_cell_angle_alpha 90.000000
_cell_angle_beta 90.000000
_cell_angle_gamma 90.000000
_cell_volume 3458.595408
_symmetry_space_group_name_H-M "C M M M"
_symmetry_group_IT_number 65
_symmetry_cell_setting 'orthorhombic'
loop_
_space_group_symop_operation_xyz
x,y,z
-x,-y,z
x,-y,-z
-x,y,-z
-x,-y,-z
x,y,-z
-x,y,z
x,-y,z
1/2+x,1/2+y,z
1/2-x,1/2-y,z
1/2+x,1/2-y,-z
1/2-x,1/2+y,-z
1/2-x,1/2-y,-z
1/2+x,1/2+y,-z
1/2-x,1/2+y,z
1/2+x,1/2-y,z
loop_
_atom_site_type_symbol
_atom_site_label
_atom_site_fract_x
_atom_site_fract_y
_atom_site_fract_z
Si Si1 0.304291 0.155257 0.836009
Si Si2 0.303855 0.654114 0.944823
Si Si3 0.801992 0.338692 0.620881
Si Si4 0.299018 0.000000 0.559151
Si Si5 0.700123 0.093573 0.726747
O O1 0.500000 0.152137 0.834655
O O2 0.250000 0.250000 0.835416
O O3 0.252914 0.117686 0.890722
O O4 0.239423 0.115764 0.783528
O O5 0.500000 0.651736 0.944718
O O6 0.250000 0.750000 0.944361
O O7 0.245311 0.619768 0.000000
O O8 0.750000 0.250000 0.600895
O O9 0.745500 0.417124 0.588095
O O10 0.742925 0.350439 0.679716
O O11 0.000000 0.341438 0.621522
O O12 0.500000 0.000000 0.560401
O O13 0.248169 0.000000 0.500000
O O14 0.500000 0.098407 0.728222
O O15 0.742401 0.000000 0.714321
#
# Coordination Sequence:
#
# PCOD9483170 Si02
#       5
#    16  16  16   8  16
#     4  10  18  27  44  68  93 119 154 202 251 304
#     4   9  16  26  41  61  88 121 156 196 244 300
#     4  10  19  34  57  81 109 144 183 226 269 317
#     4   9  18  34  57  83 111 149 192 223 256 316
#     4   9  17  31  50  71  96 131 172 210 254 310
#
# _framework density 20.817699999999999
#
# number of rings (size 3 to 8) (size 9 to 14) (size 15 to 20)
#    0.000    2.556    1.111    3.333    0.000    1.778 
#    0.000    1.667    0.000    6.667    0.000    4.667 
#    0.000    0.000    0.000    0.000    0.000    0.000 
#
# Total GULP energy -200725.200476 kJ/mol
# GULP energy per Si atom -5575.700013 kJ/mol
# Density = 2.077032 g / cm^3
# Si number density = 20.817700 Si / 1000 Ang^3
#
#
#
# Elastic Constant Matrix: (Units=GPa)
#
#
# Indices 1 2 3 4 5 6 
#
# 1 21.2173 1.7815 17.8143 0.0000 0.0000 0.0000
# 2 1.7815 103.1356 66.3344 0.0000 0.0000 0.0000
# 3 17.8143 66.3344 171.3605 0.0000 0.0000 0.0000
# 4 0.0000 0.0000 0.0000 63.1165 0.0000 0.0000
# 5 0.0000 0.0000 0.0000 0.0000 18.3599 0.0000
# 6 0.0000 0.0000 0.0000 0.0000 0.0000 14.2612
#
#
#
# Elastic Compliance Matrix: (Units=1/GPa)
#
#
# Indices 1 2 3 4 5 6 
#
# 1 0.052555 0.003470 -0.006807 0.000000 0.000000 0.000000
# 2 0.003470 0.013139 -0.005447 0.000000 0.000000 0.000000
# 3 -0.006807 -0.005447 0.008652 0.000000 0.000000 0.000000
# 4 0.000000 0.000000 0.000000 0.015844 0.000000 0.000000
# 5 0.000000 0.000000 0.000000 0.000000 0.054466 0.000000
# 6 0.000000 0.000000 0.000000 0.000000 0.000000 0.070120
#
#
# Mechanical properties :
#
#
# Convention : Reuss Voigt Hill
#
# Bulk Modulus (GPa) = 17.61214 51.95263 34.78238
# Shear Modulus (GPa) = 19.89884 33.13306 26.51595
#
# Velocity S-wave (km/s) = 3.09505 3.99379 3.57280
# Velocity P-wave (km/s) = 4.60988 6.80274 5.81069
#
# Compressibility (1/GPa) = 0.05677902
#
# Stress axis : x y z
#
# Youngs Moduli (GPa) = 19.02762 76.10652 115.58192
#
# Poissons Ratio (x) = -0.26411 0.78675
# Poissons Ratio (y) = -0.06603 0.62959
# Poissons Ratio (z) = 0.12952 0.41456
#
# Static dielectric constant tensor:
#      x y z
#    x 1.738600 0.000000 0.000000 
#    y 0.000000 1.728010 0.000000 
#    z 0.000000 0.000000 1.806740 
# 
# From -- ./inp_files/72545.got.cif
#   From: 2010.05.17/outbox.cif.g08.bks.cpg/sg65_37_cif.got.tgz:72545.got - 2010.06.03 17:01:31.
