data_PCOD9483182
_publ_section_title
;
Structure prediction by ZEFSAII (Michael W. Deem and Ramdas Pophale) SiO2 
 PCOD9483182
Probable space group: C M M M
;
_chemical_formula_sum "Si O2"
_cell_formula_units_Z 80
_cell_length_a 15.489450
_cell_length_b 30.359038
_cell_length_c 7.371786
_cell_angle_alpha 90.000000
_cell_angle_beta 90.000000
_cell_angle_gamma 90.000000
_cell_volume 3466.544042
_symmetry_space_group_name_H-M "C M M M"
_symmetry_group_IT_number 65
_symmetry_cell_setting 'orthorhombic'
loop_
_space_group_symop_operation_xyz
x,y,z
-x,-y,z
x,-y,-z
-x,y,-z
-x,-y,-z
x,y,-z
-x,y,z
x,-y,z
1/2+x,1/2+y,z
1/2-x,1/2-y,z
1/2+x,1/2-y,-z
1/2-x,1/2+y,-z
1/2-x,1/2-y,-z
1/2+x,1/2+y,-z
1/2-x,1/2+y,z
1/2+x,1/2-y,z
loop_
_atom_site_type_symbol
_atom_site_label
_atom_site_fract_x
_atom_site_fract_y
_atom_site_fract_z
Si Si1 0.221789 0.856491 0.216268
Si Si2 0.901810 0.779178 0.220768
Si Si3 0.719883 0.548969 0.717273
Si Si4 0.909395 0.553008 0.290274
Si Si5 0.097668 0.322117 0.220866
O O1 0.164901 0.815790 0.285146
O O2 0.176771 0.903828 0.250373
O O3 0.320843 0.850908 0.283722
O O4 0.226504 0.851781 0.000000
O O5 0.883285 0.728675 0.271629
O O6 0.000000 0.789350 0.275346
O O7 0.899776 0.779550 0.000000
O O8 0.727486 0.545313 0.500000
O O9 0.690264 0.500000 0.779414
O O10 0.815782 0.558595 0.795032
O O11 0.907742 0.567763 0.500000
O O12 0.914709 0.500000 0.295965
O O13 0.000000 0.569038 0.207509
O O14 0.000000 0.332668 0.283205
O O15 0.095160 0.324277 0.000000
#
# Coordination Sequence:
#
# PCOD9483182 Si02
#       5
#    16  16  16  16  16
#     4  10  18  27  45  71  92 113 147 188 224 258
#     4   8  14  26  45  68  92 117 146 180 218 264
#     4   9  18  31  44  59  84 120 156 186 221 266
#     4   7  10  19  36  54  70  95 137 180 207 235
#     4   8  14  25  42  67  98 124 143 170 214 268
#
# _framework density 23.077739000000001
#
# number of rings (size 3 to 8) (size 9 to 14) (size 15 to 20)
#    0.000    3.600    0.000    3.600    0.000    3.600 
#    0.000    0.000    0.000    3.600    0.000   12.600 
#    0.000    0.000    0.000    0.000    0.000    0.000 
#
# Total GULP energy -222782.681743 kJ/mol
# GULP energy per Si atom -5569.567044 kJ/mol
# Density = 2.302521 g / cm^3
# Si number density = 23.077739 Si / 1000 Ang^3
#
#
#
# Elastic Constant Matrix: (Units=GPa)
#
#
# Indices 1 2 3 4 5 6 
#
# 1 44.5947 59.8692 3.9441 0.0000 0.0000 0.0000
# 2 59.8692 198.7033 0.5810 0.0000 0.0000 0.0000
# 3 3.9441 0.5810 86.9448 0.0000 0.0000 0.0000
# 4 0.0000 0.0000 0.0000 15.6086 0.0000 0.0000
# 5 0.0000 0.0000 0.0000 0.0000 -26.4734 0.0000
# 6 0.0000 0.0000 0.0000 0.0000 0.0000 1.6963
#
#
#
# Elastic Compliance Matrix: (Units=1/GPa)
#
#
# Indices 1 2 3 4 5 6 
#
# 1 0.037889 -0.011411 -0.001643 0.000000 0.000000 0.000000
# 2 -0.011411 0.008469 0.000461 0.000000 0.000000 0.000000
# 3 -0.001643 0.000461 0.011573 0.000000 0.000000 0.000000
# 4 0.000000 0.000000 0.000000 0.064067 0.000000 0.000000
# 5 0.000000 0.000000 0.000000 0.000000 -0.037774 0.000000
# 6 0.000000 0.000000 0.000000 0.000000 0.000000 0.589503
#
#
# Mechanical properties :
#
#
# Convention : Reuss Voigt Hill
#
# Bulk Modulus (GPa) = 30.53776 51.00348 40.77062
# Shear Modulus (GPa) = 7.04395 15.88954 11.46675
#
# Velocity S-wave (km/s) = 1.74897 2.62682 2.23149
# Velocity P-wave (km/s) = 4.16411 5.59901 4.93400
#
# Compressibility (1/GPa) = 0.03274634
#
# Stress axis : x y z
#
# Youngs Moduli (GPa) = 26.39271 118.07105 86.40818
#
# Poissons Ratio (x) = 1.34733 0.14193
# Poissons Ratio (y) = 0.30117 -0.03984
# Poissons Ratio (z) = 0.04335 -0.05444
#
# Static dielectric constant tensor:
#      x y z
#    x 1.901450 0.000000 0.000000 
#    y 0.000000 1.901330 0.000000 
#    z 0.000000 0.000000 1.895330 
# 
# From -- ./inp_files/24608.got.cif
#   From: 2010.05.17/outbox.cif.g08.bks.cpg/sg65_13_cif.got.tgz:24608.got - 2010.06.03 17:01:31.
