data_PCOD9483524
_publ_section_title
;
Structure prediction by ZEFSAII (Michael W. Deem and Ramdas Pophale) SiO2 
 PCOD9483524
Probable space group: C M M M
;
_chemical_formula_sum "Si O2"
_cell_formula_units_Z 104
_cell_length_a 17.392393
_cell_length_b 35.322322
_cell_length_c 7.349634
_cell_angle_alpha 90.000000
_cell_angle_beta 90.000000
_cell_angle_gamma 90.000000
_cell_volume 4515.171990
_symmetry_space_group_name_H-M "C M M M"
_symmetry_group_IT_number 65
_symmetry_cell_setting 'orthorhombic'
loop_
_space_group_symop_operation_xyz
x,y,z
-x,-y,z
x,-y,-z
-x,y,-z
-x,-y,-z
x,y,-z
-x,y,z
x,-y,z
1/2+x,1/2+y,z
1/2-x,1/2-y,z
1/2+x,1/2-y,-z
1/2-x,1/2+y,-z
1/2-x,1/2-y,-z
1/2+x,1/2+y,-z
1/2-x,1/2+y,z
1/2+x,1/2-y,z
loop_
_atom_site_type_symbol
_atom_site_label
_atom_site_fract_x
_atom_site_fract_y
_atom_site_fract_z
Si Si1 0.321455 0.339649 0.782892
Si Si2 0.500000 0.941260 0.292207
Si Si3 0.088093 0.766719 0.778065
Si Si4 0.179542 0.074777 0.282993
Si Si5 0.000000 0.353835 0.220766
Si Si6 0.344187 0.188350 0.221566
Si Si7 0.088875 0.000000 0.722499
Si Si8 0.333073 0.042686 0.281045
O O1 0.378557 0.306906 0.716852
O O2 0.347427 0.382571 0.748807
O O3 0.234984 0.330641 0.714956
O O4 0.318266 0.335532 0.000000
O O5 0.500000 0.955952 0.500000
O O6 0.500000 0.896200 0.291251
O O7 0.580984 0.953241 0.208153
O O8 0.143068 0.731994 0.724267
O O9 0.000000 0.760402 0.720377
O O10 0.086940 0.766563 0.000000
O O11 0.182942 0.070018 0.500000
O O12 0.267259 0.070604 0.213092
O O13 0.130015 0.038970 0.216794
O O14 0.078436 0.333367 0.277979
O O15 0.000000 0.354600 0.000000
O O16 0.342907 0.187573 0.000000
O O17 0.091219 0.000000 0.500000
O O18 0.000000 0.000000 0.776321
O O19 0.339315 0.048038 0.500000
O O20 0.305199 0.000000 0.249856
#
# Coordination Sequence:
#
# PCOD9483524 Si02
#       8
#    16   8  16  16   8  16   8  16
#     4  10  20  31  49  77 103 124 155 202 249 288
#     4  10  19  28  44  72 100 124 156 198 241 281
#     4   9  16  29  49  72  97 127 164 202 237 279
#     4  10  19  34  54  73  96 127 162 200 242 288
#     4  10  18  29  47  67  94 130 164 197 231 274
#     4   9  16  29  48  71  97 129 167 201 232 276
#     4   9  18  34  57  78  94 124 171 209 235 281
#     4   9  16  29  49  70  92 123 163 201 233 275
#
# _framework density 23.033450999999999
#
# number of rings (size 3 to 8) (size 9 to 14) (size 15 to 20)
#    0.000    2.538    1.538    1.615    0.000    3.385 
#    0.000    0.385    0.000    5.077    0.000    0.000 
#    0.000    0.000    0.000    0.000    0.000    0.000 
#
# Total GULP energy -290477.800922 kJ/mol
# GULP energy per Si atom -5586.111556 kJ/mol
# Density = 2.298103 g / cm^3
# Si number density = 23.033451 Si / 1000 Ang^3
#
#
#
# Elastic Constant Matrix: (Units=GPa)
#
#
# Indices 1 2 3 4 5 6 
#
# 1 93.9917 53.2505 3.2842 0.0000 0.0000 0.0000
# 2 53.2505 160.4389 -3.4219 0.0000 0.0000 0.0000
# 3 3.2842 -3.4219 86.2364 0.0000 0.0000 0.0000
# 4 0.0000 0.0000 0.0000 13.7012 0.0000 0.0000
# 5 0.0000 0.0000 0.0000 0.0000 -16.7514 0.0000
# 6 0.0000 0.0000 0.0000 0.0000 0.0000 36.8175
#
#
#
# Elastic Compliance Matrix: (Units=1/GPa)
#
#
# Indices 1 2 3 4 5 6 
#
# 1 0.013142 -0.004376 -0.000674 0.000000 0.000000 0.000000
# 2 -0.004376 0.007695 0.000472 0.000000 0.000000 0.000000
# 3 -0.000674 0.000472 0.011640 0.000000 0.000000 0.000000
# 4 0.000000 0.000000 0.000000 0.072986 0.000000 0.000000
# 5 0.000000 0.000000 0.000000 0.000000 -0.059697 0.000000
# 6 0.000000 0.000000 0.000000 0.000000 0.000000 0.027161
#
#
# Mechanical properties :
#
#
# Convention : Reuss Voigt Hill
#
# Bulk Modulus (GPa) = 42.87946 49.65472 46.26709
# Shear Modulus (GPa) = 55.64253 25.92375 40.78314
#
# Velocity S-wave (km/s) = 4.92034 3.35846 4.21242
# Velocity P-wave (km/s) = 7.13696 6.05339 6.61739
#
# Compressibility (1/GPa) = 0.02332119
#
# Stress axis : x y z
#
# Youngs Moduli (GPa) = 76.09091 129.94613 85.90746
#
# Poissons Ratio (x) = 0.56869 0.05791
# Poissons Ratio (y) = 0.33300 -0.04055
# Poissons Ratio (z) = 0.05130 -0.06134
#
# Static dielectric constant tensor:
#      x y z
#    x 1.843980 0.000000 0.000000 
#    y 0.000000 1.829260 0.000000 
#    z 0.000000 0.000000 1.948890 
# 
# From -- ./inp_files/27557.got.cif
#   From: 2010.05.17/outbox.cif.g08.bks.cpg/sg65_14_cif.got.tgz:27557.got - 2010.06.03 17:01:31.
