data_PCOD9483877
_publ_section_title
;
Structure prediction by ZEFSAII (Michael W. Deem and Ramdas Pophale) SiO2 
 PCOD9483877
Probable space group: C M M M
;
_chemical_formula_sum "Si O2"
_cell_formula_units_Z 120
_cell_length_a 28.240457
_cell_length_b 9.267018
_cell_length_c 26.031983
_cell_angle_alpha 90.000000
_cell_angle_beta 90.000000
_cell_angle_gamma 90.000000
_cell_volume 6812.695512
_symmetry_space_group_name_H-M "C M M M"
_symmetry_group_IT_number 65
_symmetry_cell_setting 'orthorhombic'
loop_
_space_group_symop_operation_xyz
x,y,z
-x,-y,z
x,-y,-z
-x,y,-z
-x,-y,-z
x,y,-z
-x,y,z
x,-y,z
1/2+x,1/2+y,z
1/2-x,1/2-y,z
1/2+x,1/2-y,-z
1/2-x,1/2+y,-z
1/2-x,1/2-y,-z
1/2+x,1/2+y,-z
1/2-x,1/2+y,z
1/2+x,1/2-y,z
loop_
_atom_site_type_symbol
_atom_site_label
_atom_site_fract_x
_atom_site_fract_y
_atom_site_fract_z
Si Si1 0.298317 0.827742 0.755696
Si Si2 0.300334 0.670696 0.941915
Si Si3 0.500000 0.175629 0.559872
Si Si4 0.641656 0.829945 0.854504
Si Si5 0.945004 0.836688 0.830298
Si Si6 0.444385 0.663383 0.707540
Si Si7 0.903576 0.672801 0.617414
Si Si8 0.799595 0.674395 0.635201
O O1 0.250000 0.750000 0.771500
O O2 0.337641 0.790851 0.797978
O O3 0.307142 0.789818 0.695980
O O4 0.291898 0.000000 0.757117
O O5 0.294387 0.500000 0.933350
O O6 0.250000 0.750000 0.939959
O O7 0.331806 0.741358 0.898150
O O8 0.319503 0.690829 0.000000
O O9 0.500000 0.213369 0.500000
O O10 0.449783 0.224643 0.585040
O O11 0.500000 0.000000 0.564273
O O12 0.587417 0.782749 0.855272
O O13 0.648334 0.000000 0.861880
O O14 0.941033 0.822136 0.768585
O O15 0.000000 0.823971 0.843493
O O16 0.929050 0.000000 0.843369
O O17 0.500000 0.679006 0.694709
O O18 0.429649 0.500000 0.693621
O O19 0.415455 0.777784 0.675146
O O20 0.903298 0.500000 0.613861
O O21 0.848886 0.718260 0.606895
O O22 0.794492 0.500000 0.630960
O O23 0.750000 0.750000 0.619577
#
# Coordination Sequence:
#
# PCOD9483877 Si02
#       8
#    16  16   8  16  16  16  16  16
#     4   9  18  30  43  65  98 130 161 196 234 284
#     4  10  21  37  56  77 101 129 163 206 256 308
#     4   9  18  32  51  77 103 127 163 213 268 317
#     4  11  21  32  50  75 101 131 167 209 255 300
#     4   9  19  34  49  68  99 137 171 203 242 295
#     4   9  17  29  46  71 102 134 168 204 246 298
#     4  10  18  30  50  73  97 129 168 211 256 304
#     4   9  18  31  46  67  97 131 168 203 239 290
#
# _framework density 17.614173999999998
#
# number of rings (size 3 to 8) (size 9 to 14) (size 15 to 20)
#    0.000    2.467    0.667    2.800    0.000    5.333 
#    0.000    4.000    0.000    1.600    0.000    2.800 
#    0.000    0.000    0.000    0.000    0.000    0.000 
#
# Total GULP energy -334247.248341 kJ/mol
# GULP energy per Si atom -5570.787472 kJ/mol
# Density = 1.757408 g / cm^3
# Si number density = 17.614174 Si / 1000 Ang^3
#
#
#
# Elastic Constant Matrix: (Units=GPa)
#
#
# Indices 1 2 3 4 5 6 
#
# 1 116.7230 37.6169 36.1042 0.0000 0.0000 0.0000
# 2 37.6169 20.1908 19.5821 0.0000 0.0000 0.0000
# 3 36.1042 19.5821 31.3572 0.0000 0.0000 0.0000
# 4 0.0000 0.0000 0.0000 9.0445 0.0000 0.0000
# 5 0.0000 0.0000 0.0000 0.0000 13.1985 0.0000
# 6 0.0000 0.0000 0.0000 0.0000 0.0000 28.7702
#
#
#
# Elastic Compliance Matrix: (Units=1/GPa)
#
#
# Indices 1 2 3 4 5 6 
#
# 1 0.021446 -0.040592 0.000657 0.000000 0.000000 0.000000
# 2 -0.040592 0.202426 -0.079674 0.000000 0.000000 0.000000
# 3 0.000657 -0.079674 0.080890 0.000000 0.000000 0.000000
# 4 0.000000 0.000000 0.000000 0.110564 0.000000 0.000000
# 5 0.000000 0.000000 0.000000 0.000000 0.075766 0.000000
# 6 0.000000 0.000000 0.000000 0.000000 0.000000 0.034758
#
#
# Mechanical properties :
#
#
# Convention : Reuss Voigt Hill
#
# Bulk Modulus (GPa) = 15.25742 39.43082 27.34412
# Shear Modulus (GPa) = 6.35390 15.20049 10.77719
#
# Velocity S-wave (km/s) = 1.90134 2.94082 2.47624
# Velocity P-wave (km/s) = 3.67436 5.82801 4.87168
#
# Compressibility (1/GPa) = 0.06554188
#
# Stress axis : x y z
#
# Youngs Moduli (GPa) = 46.62848 4.94008 12.36250
#
# Poissons Ratio (x) = 0.20053 -0.00812
# Poissons Ratio (y) = 1.89276 0.98497
# Poissons Ratio (z) = -0.03061 0.39360
#
# Static dielectric constant tensor:
#      x y z
#    x 1.631050 0.000000 0.000000 
#    y 0.000000 1.595000 0.000000 
#    z 0.000000 0.000000 1.595040 
# 
# From -- ./inp_files/76118.got.cif
#   From: 2010.05.17/outbox.cif.g08.bks.cpg/sg65_39_cif.got.tgz:76118.got - 2010.06.03 17:01:31.
