data_PCOD9483512
_publ_section_title
;
Structure prediction by ZEFSAII (Michael W. Deem and Ramdas Pophale) SiO2 
 PCOD9483512
Probable space group: C M M M
;
_chemical_formula_sum "Si O2"
_cell_formula_units_Z 64
_cell_length_a 7.973426
_cell_length_b 14.648642
_cell_length_c 23.673363
_cell_angle_alpha 90.000000
_cell_angle_beta 90.000000
_cell_angle_gamma 90.000000
_cell_volume 2765.045555
_symmetry_space_group_name_H-M "C M M M"
_symmetry_group_IT_number 65
_symmetry_cell_setting 'orthorhombic'
loop_
_space_group_symop_operation_xyz
x,y,z
-x,-y,z
x,-y,-z
-x,y,-z
-x,-y,-z
x,y,-z
-x,y,z
x,-y,z
1/2+x,1/2+y,z
1/2-x,1/2-y,z
1/2+x,1/2-y,-z
1/2-x,1/2+y,-z
1/2-x,1/2-y,-z
1/2+x,1/2+y,-z
1/2-x,1/2+y,z
1/2+x,1/2-y,z
loop_
_atom_site_type_symbol
_atom_site_label
_atom_site_fract_x
_atom_site_fract_y
_atom_site_fract_z
Si Si1 0.319373 0.105673 0.867506
Si Si2 0.797115 0.857472 0.500000
Si Si3 0.201492 0.143444 0.744097
Si Si4 0.500000 0.387617 0.065303
Si Si5 0.202536 0.857296 0.621626
O O1 0.500000 0.149341 0.877661
O O2 0.281536 0.105545 0.800763
O O3 0.164095 0.145212 0.901539
O O4 0.329509 0.000000 0.885139
O O5 0.750000 0.750000 0.500000
O O6 0.737170 0.894029 0.439150
O O7 0.000000 0.865755 0.500000
O O8 0.250000 0.250000 0.744146
O O9 0.258754 0.106548 0.682726
O O10 0.000000 0.132596 0.747928
O O11 0.500000 0.500000 0.067723
O O12 0.500000 0.361551 0.000000
O O13 0.250000 0.750000 0.621547
O O14 0.000000 0.865013 0.621741
#
# Coordination Sequence:
#
# PCOD9483512 Si02
#       5
#    16   8  16   8  16
#     4  10  20  34  53  78 104 131 165 203 245 291
#     4   8  12  20  32  50  79 116 151 193 240 284
#     4  10  18  29  46  71 100 133 168 206 248 297
#     4   9  18  34  56  80 104 129 160 200 242 289
#     4   8  14  22  35  56  85 118 156 196 240 287
#
# _framework density 23.146091999999999
#
# number of rings (size 3 to 8) (size 9 to 14) (size 15 to 20)
#    0.000    2.875    1.250    0.750    0.000    1.500 
#    0.000    2.500    0.000    0.750    0.000    0.875 
#    0.000    7.000    0.000    0.000    0.000    0.500 
#
# Total GULP energy -178460.735049 kJ/mol
# GULP energy per Si atom -5576.897970 kJ/mol
# Density = 2.309341 g / cm^3
# Si number density = 23.146092 Si / 1000 Ang^3
#
#
#
# Elastic Constant Matrix: (Units=GPa)
#
#
# Indices 1 2 3 4 5 6 
#
# 1 129.4988 7.9577 92.1377 0.0000 0.0000 0.0000
# 2 7.9577 66.1142 3.4754 0.0000 0.0000 0.0000
# 3 92.1377 3.4754 204.6712 0.0000 0.0000 0.0000
# 4 0.0000 0.0000 0.0000 17.8531 0.0000 0.0000
# 5 0.0000 0.0000 0.0000 0.0000 0.3168 0.0000
# 6 0.0000 0.0000 0.0000 0.0000 0.0000 4.5825
#
#
#
# Elastic Compliance Matrix: (Units=1/GPa)
#
#
# Indices 1 2 3 4 5 6 
#
# 1 0.011441 -0.001107 -0.005132 0.000000 0.000000 0.000000
# 2 -0.001107 0.015246 0.000240 0.000000 0.000000 0.000000
# 3 -0.005132 0.000240 0.007192 0.000000 0.000000 0.000000
# 4 0.000000 0.000000 0.000000 0.056013 0.000000 0.000000
# 5 0.000000 0.000000 0.000000 0.000000 3.156544 0.000000
# 6 0.000000 0.000000 0.000000 0.000000 0.000000 0.218222
#
#
# Mechanical properties :
#
#
# Convention : Reuss Voigt Hill
#
# Bulk Modulus (GPa) = 45.70312 67.49175 56.59743
# Shear Modulus (GPa) = 1.43515 24.33136 12.88326
#
# Velocity S-wave (km/s) = 0.78828 3.24575 2.36181
# Velocity P-wave (km/s) = 4.54058 6.57791 5.65180
#
# Compressibility (1/GPa) = 0.02188035
#
# Stress axis : x y z
#
# Youngs Moduli (GPa) = 87.40197 65.59083 139.04286
#
# Poissons Ratio (x) = 0.07263 0.71354
# Poissons Ratio (y) = 0.09679 -0.03332
# Poissons Ratio (z) = 0.44853 -0.01572
#
# Static dielectric constant tensor:
#      x y z
#    x 1.862660 0.000000 0.000000 
#    y 0.000000 2.006970 0.000000 
#    z 0.000000 0.000000 1.882270 
# 
# From -- ./inp_files/59141.got.cif
#   From: 2010.05.17/outbox.cif.g08.bks.cpg/sg65_30_cif.got.tgz:59141.got - 2010.06.03 17:01:31.
