data_PCOD9483823
_publ_section_title
;
Structure prediction by ZEFSAII (Michael W. Deem and Ramdas Pophale) SiO2 
 PCOD9483823
Probable space group: C M M M
;
_chemical_formula_sum "Si O2"
_cell_formula_units_Z 80
_cell_length_a 8.143745
_cell_length_b 19.393688
_cell_length_c 26.665562
_cell_angle_alpha 90.000000
_cell_angle_beta 90.000000
_cell_angle_gamma 90.000000
_cell_volume 4211.485523
_symmetry_space_group_name_H-M "C M M M"
_symmetry_group_IT_number 65
_symmetry_cell_setting 'orthorhombic'
loop_
_space_group_symop_operation_xyz
x,y,z
-x,-y,z
x,-y,-z
-x,y,-z
-x,-y,-z
x,y,-z
-x,y,z
x,-y,z
1/2+x,1/2+y,z
1/2-x,1/2-y,z
1/2+x,1/2-y,-z
1/2-x,1/2+y,-z
1/2-x,1/2-y,-z
1/2+x,1/2+y,-z
1/2-x,1/2+y,z
1/2+x,1/2-y,z
loop_
_atom_site_type_symbol
_atom_site_label
_atom_site_fract_x
_atom_site_fract_y
_atom_site_fract_z
Si Si1 0.695393 0.829730 0.107957
Si Si2 0.694166 0.670116 0.000000
Si Si3 0.801778 0.327933 0.407703
Si Si4 0.801784 0.328031 0.705797
Si Si5 0.201229 0.579069 0.500000
Si Si6 0.298697 0.920577 0.201610
O O1 0.500000 0.829147 0.110185
O O2 0.750000 0.750000 0.112869
O O3 0.757559 0.876777 0.153425
O O4 0.744314 0.858010 0.053127
O O5 0.750000 0.750000 0.000000
O O6 0.500000 0.668047 0.000000
O O7 0.750000 0.250000 0.420064
O O8 0.743771 0.343232 0.350956
O O9 0.744289 0.380312 0.450305
O O10 0.000000 0.330335 0.407079
O O11 0.750000 0.250000 0.718474
O O12 0.745179 0.381465 0.747872
O O13 0.000000 0.329969 0.705226
O O14 0.253948 0.500000 0.500000
O O15 0.000000 0.579643 0.500000
O O16 0.500000 0.920271 0.201313
O O17 0.246491 0.000000 0.199960
#
# Coordination Sequence:
#
# PCOD9483823 Si02
#       6
#    16   8  16  16   8  16
#     4  10  18  30  50  72  94 120 152 190 229 271
#     4  10  18  30  49  72  97 121 151 191 229 268
#     4   9  17  29  47  69  92 121 155 193 235 276
#     4   9  17  30  49  71  93 119 154 194 234 276
#     4   9  17  28  43  67  96 123 156 196 234 273
#     4   9  18  31  47  69  95 122 154 191 229 272
#
# _framework density 18.995671999999999
#
# number of rings (size 3 to 8) (size 9 to 14) (size 15 to 20)
#    0.000    2.700    0.000    3.600    0.000    0.800 
#    0.000    5.500    0.000    9.600    0.000    5.600 
#    0.000    0.000    0.000    0.000    0.000    0.000 
#
# Total GULP energy -223078.376924 kJ/mol
# GULP energy per Si atom -5576.959423 kJ/mol
# Density = 1.895244 g / cm^3
# Si number density = 18.995672 Si / 1000 Ang^3
#
#
#
# Elastic Constant Matrix: (Units=GPa)
#
#
# Indices 1 2 3 4 5 6 
#
# 1 19.8669 9.5288 13.4179 0.0000 0.0000 0.0000
# 2 9.5288 142.2203 133.7662 0.0000 0.0000 0.0000
# 3 13.4179 133.7662 185.8343 0.0000 0.0000 0.0000
# 4 0.0000 0.0000 0.0000 2.2551 0.0000 0.0000
# 5 0.0000 0.0000 0.0000 0.0000 5.6176 0.0000
# 6 0.0000 0.0000 0.0000 0.0000 0.0000 19.0234
#
#
#
# Elastic Compliance Matrix: (Units=1/GPa)
#
#
# Indices 1 2 3 4 5 6 
#
# 1 0.052916 0.000149 -0.003928 0.000000 0.000000 0.000000
# 2 0.000149 0.021771 -0.015682 0.000000 0.000000 0.000000
# 3 -0.003928 -0.015682 0.016953 0.000000 0.000000 0.000000
# 4 0.000000 0.000000 0.000000 0.443431 0.000000 0.000000
# 5 0.000000 0.000000 0.000000 0.000000 0.178010 0.000000
# 6 0.000000 0.000000 0.000000 0.000000 0.000000 0.052567
#
#
# Mechanical properties :
#
#
# Convention : Reuss Voigt Hill
#
# Bulk Modulus (GPa) = 18.96863 73.48302 46.22582
# Shear Modulus (GPa) = 6.08167 18.12648 12.10407
#
# Velocity S-wave (km/s) = 1.79124 3.09243 2.52702
# Velocity P-wave (km/s) = 3.77962 7.17767 5.73605
#
# Compressibility (1/GPa) = 0.05271863
#
# Stress axis : x y z
#
# Youngs Moduli (GPa) = 18.89775 45.93257 58.98721
#
# Poissons Ratio (x) = -0.00686 0.23172
# Poissons Ratio (y) = -0.00282 0.92503
# Poissons Ratio (z) = 0.07423 0.72031
#
# Static dielectric constant tensor:
#      x y z
#    x 1.660330 0.000000 0.000000 
#    y 0.000000 1.619490 0.000000 
#    z 0.000000 0.000000 1.695290 
# 
# From -- ./inp_files/72929.got.cif
#   From: 2010.05.17/outbox.cif.g08.bks.cpg/sg65_37_cif.got.tgz:72929.got - 2010.06.03 17:01:31.
