data_PCOD9483339
_publ_section_title
;
Structure prediction by ZEFSAII (Michael W. Deem and Ramdas Pophale) SiO2 
 PCOD9483339
Probable space group: C M M M
;
_chemical_formula_sum "Si O2"
_cell_formula_units_Z 80
_cell_length_a 19.829618
_cell_length_b 8.021081
_cell_length_c 27.197806
_cell_angle_alpha 90.000000
_cell_angle_beta 90.000000
_cell_angle_gamma 90.000000
_cell_volume 4325.946277
_symmetry_space_group_name_H-M "C M M M"
_symmetry_group_IT_number 65
_symmetry_cell_setting 'orthorhombic'
loop_
_space_group_symop_operation_xyz
x,y,z
-x,-y,z
x,-y,-z
-x,y,-z
-x,-y,-z
x,y,-z
-x,y,z
x,-y,z
1/2+x,1/2+y,z
1/2-x,1/2-y,z
1/2+x,1/2-y,-z
1/2-x,1/2+y,-z
1/2-x,1/2-y,-z
1/2+x,1/2+y,-z
1/2-x,1/2+y,z
1/2+x,1/2-y,z
loop_
_atom_site_type_symbol
_atom_site_label
_atom_site_fract_x
_atom_site_fract_y
_atom_site_fract_z
Si Si1 0.328316 0.701636 0.643660
Si Si2 0.328183 0.802439 0.142705
Si Si3 0.922190 0.703771 0.055405
Si Si4 0.671365 0.301281 0.248896
Si Si5 0.077879 0.203548 0.444716
O O1 0.331337 0.500000 0.643703
O O2 0.250000 0.750000 0.638232
O O3 0.353797 0.759072 0.697719
O O4 0.373227 0.763155 0.598396
O O5 0.250000 0.750000 0.139479
O O6 0.372971 0.733760 0.098082
O O7 0.356601 0.759548 0.196865
O O8 0.328759 0.000000 0.138817
O O9 0.921028 0.500000 0.055968
O O10 0.000000 0.752785 0.063790
O O11 0.902605 0.755094 0.000000
O O12 0.667085 0.500000 0.248379
O O13 0.750000 0.250000 0.248367
O O14 0.097711 0.255951 0.500000
O O15 0.000000 0.252193 0.436521
O O16 0.079286 0.000000 0.444333
#
# Coordination Sequence:
#
# PCOD9483339 Si02
#       5
#    16  16  16  16  16
#     4   9  17  28  44  66  88 112 144 179 215 254
#     4  10  18  28  46  69  90 113 143 179 215 253
#     4   8  15  29  47  65  86 114 147 179 211 251
#     4   9  16  27  42  61  88 118 144 173 212 256
#     4   8  14  26  44  64  86 113 145 179 213 253
#
# _framework density 18.493064
#
# number of rings (size 3 to 8) (size 9 to 14) (size 15 to 20)
#    0.000    3.200    0.000    3.600    0.000    1.600 
#    0.000    1.000    0.000    6.000    0.000    7.000 
#    0.000    0.000    0.000    0.000    0.000    0.000 
#
# Total GULP energy -222694.712895 kJ/mol
# GULP energy per Si atom -5567.367822 kJ/mol
# Density = 1.845097 g / cm^3
# Si number density = 18.493064 Si / 1000 Ang^3
#
#
#
# Elastic Constant Matrix: (Units=GPa)
#
#
# Indices 1 2 3 4 5 6 
#
# 1 65.3262 5.4555 100.5292 0.0000 0.0000 0.0000
# 2 5.4555 17.0100 14.7286 0.0000 0.0000 0.0000
# 3 100.5292 14.7286 230.7846 0.0000 0.0000 0.0000
# 4 0.0000 0.0000 0.0000 -8.8500 0.0000 0.0000
# 5 0.0000 0.0000 0.0000 0.0000 -14.7340 0.0000
# 6 0.0000 0.0000 0.0000 0.0000 0.0000 6.8956
#
#
#
# Elastic Compliance Matrix: (Units=1/GPa)
#
#
# Indices 1 2 3 4 5 6 
#
# 1 0.046558 0.002782 -0.020458 0.000000 0.000000 0.000000
# 2 0.002782 0.062394 -0.005194 0.000000 0.000000 0.000000
# 3 -0.020458 -0.005194 0.013576 0.000000 0.000000 0.000000
# 4 0.000000 0.000000 0.000000 -0.112994 0.000000 0.000000
# 5 0.000000 0.000000 0.000000 0.000000 -0.067870 0.000000
# 6 0.000000 0.000000 0.000000 0.000000 0.000000 0.145019
#
#
# Mechanical properties :
#
#
# Convention : Reuss Voigt Hill
#
# Bulk Modulus (GPa) = 13.02286 61.61636 37.31961
# Shear Modulus (GPa) = 31.64178 9.48949 20.56563
#
# Velocity S-wave (km/s) = 4.14092 2.26771 3.33839
# Velocity P-wave (km/s) = 5.46994 6.34410 5.92317
#
# Compressibility (1/GPa) = 0.07678803
#
# Stress axis : x y z
#
# Youngs Moduli (GPa) = 21.47853 16.02725 73.65926
#
# Poissons Ratio (x) = -0.04459 1.50693
# Poissons Ratio (y) = -0.05975 0.38257
# Poissons Ratio (z) = 0.43941 0.08324
#
# Static dielectric constant tensor:
#      x y z
#    x 1.609410 0.000000 0.000000 
#    y 0.000000 1.656160 0.000000 
#    z 0.000000 0.000000 1.693410 
# 
# From -- ./inp_files/77769.got.cif
#   From: 2010.05.17/outbox.cif.g08.bks.cpg/sg65_39_cif.got.tgz:77769.got - 2010.06.03 17:01:31.
