data_PCOD9483988
_publ_section_title
;
Structure prediction by ZEFSAII (Michael W. Deem and Ramdas Pophale) SiO2 
 PCOD9483988
Probable space group: C M M M
;
_chemical_formula_sum "Si O2"
_cell_formula_units_Z 112
_cell_length_a 14.886599
_cell_length_b 26.208947
_cell_length_c 15.155777
_cell_angle_alpha 90.000000
_cell_angle_beta 90.000000
_cell_angle_gamma 90.000000
_cell_volume 5913.209542
_symmetry_space_group_name_H-M "C M M M"
_symmetry_group_IT_number 65
_symmetry_cell_setting 'orthorhombic'
loop_
_space_group_symop_operation_xyz
x,y,z
-x,-y,z
x,-y,-z
-x,y,-z
-x,-y,-z
x,y,-z
-x,y,z
x,-y,z
1/2+x,1/2+y,z
1/2-x,1/2-y,z
1/2+x,1/2-y,-z
1/2-x,1/2+y,-z
1/2-x,1/2-y,-z
1/2+x,1/2+y,-z
1/2-x,1/2+y,z
1/2+x,1/2-y,z
loop_
_atom_site_type_symbol
_atom_site_label
_atom_site_fract_x
_atom_site_fract_y
_atom_site_fract_z
Si Si1 0.301807 0.942542 0.775030
Si Si2 0.132030 0.837791 0.904698
Si Si3 0.643619 0.753320 0.211214
Si Si4 0.901677 0.058016 0.178293
Si Si5 0.892305 0.288739 0.596133
Si Si6 0.607919 0.091836 0.599681
Si Si7 0.652395 0.149246 0.101336
O O1 0.193232 0.934207 0.771245
O O2 0.342614 0.936477 0.678101
O O3 0.349645 0.902008 0.839883
O O4 0.315900 0.000000 0.807817
O O5 0.104305 0.798453 0.829065
O O6 0.099642 0.895274 0.889614
O O7 0.240322 0.840812 0.905074
O O8 0.103926 0.817855 0.000000
O O9 0.750000 0.750000 0.196027
O O10 0.632117 0.759250 0.315532
O O11 0.612281 0.803490 0.157239
O O12 0.000000 0.061095 0.224653
O O13 0.896882 0.000000 0.141788
O O14 0.859226 0.270204 0.500000
O O15 0.866314 0.348206 0.606153
O O16 0.000000 0.288446 0.592477
O O17 0.629070 0.074493 0.500000
O O18 0.500000 0.088123 0.610460
O O19 0.619216 0.145316 0.000000
#
# Coordination Sequence:
#
# PCOD9483988 Si02
#       7
#    16  16  16  16  16  16  16
#     4  10  19  32  54  81 107 141 184 223 265 320
#     4   9  18  30  48  77 107 137 177 222 267 317
#     4  10  18  30  52  77 104 137 174 215 267 320
#     4   9  19  35  53  74 105 145 185 225 267 309
#     4   9  18  33  52  73 101 136 169 207 261 323
#     4   9  18  34  57  83 108 134 169 218 274 326
#     4   9  17  31  49  72 106 143 177 216 264 316
#
# _framework density 18.940645
#
# number of rings (size 3 to 8) (size 9 to 14) (size 15 to 20)
#    0.000    2.714    1.429    1.286    0.000    4.000 
#    0.000    4.286    0.000    3.000    0.000    3.000 
#    0.000    0.000    0.000    0.000    0.000    0.143 
#
# Total GULP energy -311765.813728 kJ/mol
# GULP energy per Si atom -5567.246674 kJ/mol
# Density = 1.889753 g / cm^3
# Si number density = 18.940645 Si / 1000 Ang^3
#
#
#
# Elastic Constant Matrix: (Units=GPa)
#
#
# Indices 1 2 3 4 5 6 
#
# 1 31.9228 15.5184 15.2106 0.0000 0.0000 0.0000
# 2 15.5184 97.6771 63.4054 0.0000 0.0000 0.0000
# 3 15.2106 63.4054 133.6208 0.0000 0.0000 0.0000
# 4 0.0000 0.0000 0.0000 86.3078 0.0000 0.0000
# 5 0.0000 0.0000 0.0000 0.0000 57.2224 0.0000
# 6 0.0000 0.0000 0.0000 0.0000 0.0000 1.7439
#
#
#
# Elastic Compliance Matrix: (Units=1/GPa)
#
#
# Indices 1 2 3 4 5 6 
#
# 1 0.034280 -0.004210 -0.001905 0.000000 0.000000 0.000000
# 2 -0.004210 0.015312 -0.006787 0.000000 0.000000 0.000000
# 3 -0.001905 -0.006787 0.010921 0.000000 0.000000 0.000000
# 4 0.000000 0.000000 0.000000 0.011586 0.000000 0.000000
# 5 0.000000 0.000000 0.000000 0.000000 0.017476 0.000000
# 6 0.000000 0.000000 0.000000 0.000000 0.000000 0.573427
#
#
# Mechanical properties :
#
#
# Convention : Reuss Voigt Hill
#
# Bulk Modulus (GPa) = 28.80957 50.16549 39.48753
# Shear Modulus (GPa) = 7.13904 40.32725 23.73314
#
# Velocity S-wave (km/s) = 1.94354 4.61926 3.54365
# Velocity P-wave (km/s) = 4.50332 7.41574 6.13487
#
# Compressibility (1/GPa) = 0.03471068
#
# Stress axis : x y z
#
# Youngs Moduli (GPa) = 29.17188 65.30795 91.56636
#
# Poissons Ratio (x) = 0.27494 0.17439
# Poissons Ratio (y) = 0.12281 0.62143
# Poissons Ratio (z) = 0.05556 0.44322
#
# Static dielectric constant tensor:
#      x y z
#    x 1.695920 0.000000 0.000000 
#    y 0.000000 1.680750 0.000000 
#    z 0.000000 0.000000 1.674870 
# 
# From -- ./inp_files/41059.got.cif
#   From: 2010.05.17/outbox.cif.g08.bks.cpg/sg65_21_cif.got.tgz:41059.got - 2010.06.03 17:01:31.
