data_PCOD9483112
_publ_section_title
;
Structure prediction by ZEFSAII (Michael W. Deem and Ramdas Pophale) SiO2 
 PCOD9483112
Probable space group: C M M M
;
_chemical_formula_sum "Si O2"
_cell_formula_units_Z 104
_cell_length_a 28.038570
_cell_length_b 8.437764
_cell_length_c 27.747860
_cell_angle_alpha 90.000000
_cell_angle_beta 90.000000
_cell_angle_gamma 90.000000
_cell_volume 6564.667427
_symmetry_space_group_name_H-M "C M M M"
_symmetry_group_IT_number 65
_symmetry_cell_setting 'orthorhombic'
loop_
_space_group_symop_operation_xyz
x,y,z
-x,-y,z
x,-y,-z
-x,y,-z
-x,-y,-z
x,y,-z
-x,y,z
x,-y,z
1/2+x,1/2+y,z
1/2-x,1/2-y,z
1/2+x,1/2-y,-z
1/2-x,1/2+y,-z
1/2-x,1/2-y,-z
1/2+x,1/2+y,-z
1/2-x,1/2+y,z
1/2+x,1/2-y,z
loop_
_atom_site_type_symbol
_atom_site_label
_atom_site_fract_x
_atom_site_fract_y
_atom_site_fract_z
Si Si1 0.898821 0.308347 0.399669
Si Si2 0.304488 0.809856 0.157109
Si Si3 0.649213 0.310179 0.253943
Si Si4 0.553060 0.691372 0.303698
Si Si5 0.195298 0.691454 0.051797
Si Si6 0.697887 0.810493 0.349757
Si Si7 0.555397 0.806340 0.500000
O O1 0.899568 0.500000 0.399282
O O2 0.932937 0.248673 0.357022
O O3 0.845236 0.257477 0.384900
O O4 0.917631 0.254529 0.451523
O O5 0.250000 0.750000 0.161566
O O6 0.334316 0.748052 0.202051
O O7 0.323767 0.757792 0.104197
O O8 0.303732 0.000000 0.158470
O O9 0.650605 0.500000 0.254863
O O10 0.595961 0.255949 0.268821
O O11 0.683800 0.248496 0.296321
O O12 0.500000 0.746190 0.290623
O O13 0.553193 0.500000 0.303699
O O14 0.195086 0.500000 0.051755
O O15 0.250000 0.750000 0.051644
O O16 0.174094 0.744066 0.000000
O O17 0.750000 0.750000 0.363439
O O18 0.698407 0.000000 0.349235
O O19 0.500000 0.756814 0.500000
O O20 0.555520 0.000000 0.500000
#
# Coordination Sequence:
#
# PCOD9483112 Si02
#       7
#    16  16  16  16  16  16   8
#     4   9  18  31  48  69  89 111 140 172 204 245
#     4  10  18  27  40  59  85 114 144 176 208 243
#     4  10  19  30  44  62  85 111 140 173 209 250
#     4   9  18  32  48  65  86 111 137 168 209 254
#     4   8  14  24  37  53  75 106 141 173 205 241
#     4  10  19  31  46  63  85 113 145 176 207 243
#     4   9  16  28  48  71  91 109 133 169 212 253
#
# _framework density 15.842387
#
# number of rings (size 3 to 8) (size 9 to 14) (size 15 to 20)
#    0.000    2.692    0.000    2.308    0.000    2.769 
#    0.000    0.769    0.000    1.385    0.000    0.000 
#    0.000    0.615    0.000    7.692    0.000    0.000 
#
# Total GULP energy -289646.395593 kJ/mol
# GULP energy per Si atom -5570.122992 kJ/mol
# Density = 1.580633 g / cm^3
# Si number density = 15.842387 Si / 1000 Ang^3
#
#
#
# Elastic Constant Matrix: (Units=GPa)
#
#
# Indices 1 2 3 4 5 6 
#
# 1 95.3166 14.4822 62.8180 0.0000 0.0000 0.0000
# 2 14.4822 17.3216 16.7988 0.0000 0.0000 0.0000
# 3 62.8180 16.7988 158.6141 0.0000 0.0000 0.0000
# 4 0.0000 0.0000 0.0000 10.5764 0.0000 0.0000
# 5 0.0000 0.0000 0.0000 0.0000 16.2232 0.0000
# 6 0.0000 0.0000 0.0000 0.0000 0.0000 12.0645
#
#
#
# Elastic Compliance Matrix: (Units=1/GPa)
#
#
# Indices 1 2 3 4 5 6 
#
# 1 0.015039 -0.007575 -0.005154 0.000000 0.000000 0.000000
# 2 -0.007575 0.068156 -0.004218 0.000000 0.000000 0.000000
# 3 -0.005154 -0.004218 0.008792 0.000000 0.000000 0.000000
# 4 0.000000 0.000000 0.000000 0.094550 0.000000 0.000000
# 5 0.000000 0.000000 0.000000 0.000000 0.061640 0.000000
# 6 0.000000 0.000000 0.000000 0.000000 0.000000 0.082888
#
#
# Mechanical properties :
#
#
# Convention : Reuss Voigt Hill
#
# Bulk Modulus (GPa) = 17.21392 51.05004 34.13198
# Shear Modulus (GPa) = 13.00986 19.58305 16.29646
#
# Velocity S-wave (km/s) = 2.86878 3.51966 3.21075
# Velocity P-wave (km/s) = 4.67574 6.98649 5.94447
#
# Compressibility (1/GPa) = 0.05809252
#
# Stress axis : x y z
#
# Youngs Moduli (GPa) = 66.49429 14.67223 113.73385
#
# Poissons Ratio (x) = 0.11115 0.58615
# Poissons Ratio (y) = 0.50372 0.47975
# Poissons Ratio (z) = 0.34269 0.06189
#
# Static dielectric constant tensor:
#      x y z
#    x 1.523890 0.000000 0.000000 
#    y 0.000000 1.539200 0.000000 
#    z 0.000000 0.000000 1.549560 
# 
# From -- ./inp_files/76251.got.cif
#   From: 2010.05.17/outbox.cif.g08.bks.cpg/sg65_39_cif.got.tgz:76251.got - 2010.06.03 17:01:31.
