data_PCOD9483238
_publ_section_title
;
Structure prediction by ZEFSAII (Michael W. Deem and Ramdas Pophale) SiO2 
 PCOD9483238
Probable space group: C M M M
;
_chemical_formula_sum "Si O2"
_cell_formula_units_Z 80
_cell_length_a 7.764601
_cell_length_b 29.909134
_cell_length_c 23.289257
_cell_angle_alpha 90.000000
_cell_angle_beta 90.000000
_cell_angle_gamma 90.000000
_cell_volume 5408.522184
_symmetry_space_group_name_H-M "C M M M"
_symmetry_group_IT_number 65
_symmetry_cell_setting 'orthorhombic'
loop_
_space_group_symop_operation_xyz
x,y,z
-x,-y,z
x,-y,-z
-x,y,-z
-x,-y,-z
x,y,-z
-x,y,z
x,-y,z
1/2+x,1/2+y,z
1/2-x,1/2-y,z
1/2+x,1/2-y,-z
1/2-x,1/2+y,-z
1/2-x,1/2-y,-z
1/2+x,1/2+y,-z
1/2-x,1/2+y,z
1/2+x,1/2-y,z
loop_
_atom_site_type_symbol
_atom_site_label
_atom_site_fract_x
_atom_site_fract_y
_atom_site_fract_z
Si Si1 0.500000 0.054540 0.066029
Si Si2 0.707230 0.107158 0.388874
Si Si3 0.802163 0.054366 0.150195
Si Si4 0.710779 0.051447 0.500000
Si Si5 0.293467 0.550667 0.722195
Si Si6 0.706919 0.200564 0.433919
O O1 0.669402 0.068737 0.101318
O O2 0.500000 0.000000 0.065864
O O3 0.500000 0.069181 0.000000
O O4 0.500000 0.108053 0.392316
O O5 0.767788 0.077353 0.442847
O O6 0.751626 0.083656 0.329349
O O7 0.769750 0.157944 0.398065
O O8 0.737338 0.066060 0.214329
O O9 0.000000 0.069414 0.141666
O O10 0.806090 0.000000 0.149946
O O11 0.500000 0.051691 0.500000
O O12 0.766239 0.000000 0.500000
O O13 0.500000 0.547656 0.726277
O O14 0.227816 0.500000 0.710845
O O15 0.770809 0.197070 0.500000
O O16 0.500000 0.197755 0.436388
O O17 0.750000 0.250000 0.412024
#
# Coordination Sequence:
#
# PCOD9483238 Si02
#       6
#     8  16  16   8  16  16
#     4   9  16  24  38  60  80 103 143 183 211 248
#     4  10  18  28  43  61  77  99 135 175 210 254
#     4   8  15  27  39  53  79 110 139 177 215 245
#     4   9  16  26  38  55  79 101 125 165 216 255
#     4   9  18  30  41  56  80 109 140 173 207 250
#     4   9  17  30  45  60  78  98 126 168 214 259
#
# _framework density 14.79147
#
# number of rings (size 3 to 8) (size 9 to 14) (size 15 to 20)
#    0.000    3.000    1.000    1.800    1.400    2.400 
#    0.000    2.500    0.000    1.800    0.000    0.000 
#    0.000    0.000    0.000    0.000    0.000    1.000 
#
# Total GULP energy -222795.719864 kJ/mol
# GULP energy per Si atom -5569.892997 kJ/mol
# Density = 1.475780 g / cm^3
# Si number density = 14.791470 Si / 1000 Ang^3
#
#
#
# Elastic Constant Matrix: (Units=GPa)
#
#
# Indices 1 2 3 4 5 6 
#
# 1 39.7240 17.4455 37.2158 0.0000 0.0000 0.0000
# 2 17.4455 88.7365 58.7262 0.0000 0.0000 0.0000
# 3 37.2158 58.7262 136.0385 0.0000 0.0000 0.0000
# 4 0.0000 0.0000 0.0000 2.0149 0.0000 0.0000
# 5 0.0000 0.0000 0.0000 0.0000 -37.2239 0.0000
# 6 0.0000 0.0000 0.0000 0.0000 0.0000 12.6846
#
#
#
# Elastic Compliance Matrix: (Units=1/GPa)
#
#
# Indices 1 2 3 4 5 6 
#
# 1 0.033883 -0.000738 -0.008951 0.000000 0.000000 0.000000
# 2 -0.000738 0.015793 -0.006616 0.000000 0.000000 0.000000
# 3 -0.008951 -0.006616 0.012655 0.000000 0.000000 0.000000
# 4 0.000000 0.000000 0.000000 0.496295 0.000000 0.000000
# 5 0.000000 0.000000 0.000000 0.000000 -0.026864 0.000000
# 6 0.000000 0.000000 0.000000 0.000000 0.000000 0.078836
#
#
# Mechanical properties :
#
#
# Convention : Reuss Voigt Hill
#
# Bulk Modulus (GPa) = 33.64410 54.58602 44.11506
# Shear Modulus (GPa) = 7.65563 5.56922 6.61243
#
# Velocity S-wave (km/s) = 2.27749 1.94251 2.11663
# Velocity P-wave (km/s) = 5.45077 6.48189 5.98857
#
# Compressibility (1/GPa) = 0.02972289
#
# Stress axis : x y z
#
# Youngs Moduli (GPa) = 29.51292 63.32065 79.01708
#
# Poissons Ratio (x) = 0.04671 0.70728
# Poissons Ratio (y) = 0.02177 0.52275
# Poissons Ratio (z) = 0.26417 0.41891
#
# Static dielectric constant tensor:
#      x y z
#    x 1.542100 0.000000 0.000000 
#    y 0.000000 1.479770 0.000000 
#    z 0.000000 0.000000 1.490480 
# 
# From -- ./inp_files/60062.got.cif
#   From: 2010.05.17/outbox.cif.g08.bks.cpg/sg65_31_cif.got.tgz:60062.got - 2010.06.03 17:01:31.
