data_PCOD9483595
_publ_section_title
;
Structure prediction by ZEFSAII (Michael W. Deem and Ramdas Pophale) SiO2 
 PCOD9483595
Probable space group: C M M M
;
_chemical_formula_sum "Si O2"
_cell_formula_units_Z 88
_cell_length_a 17.605891
_cell_length_b 18.080579
_cell_length_c 14.374572
_cell_angle_alpha 90.000000
_cell_angle_beta 90.000000
_cell_angle_gamma 90.000000
_cell_volume 4575.781364
_symmetry_space_group_name_H-M "C M M M"
_symmetry_group_IT_number 65
_symmetry_cell_setting 'orthorhombic'
loop_
_space_group_symop_operation_xyz
x,y,z
-x,-y,z
x,-y,-z
-x,y,-z
-x,-y,-z
x,y,-z
-x,y,z
x,-y,z
1/2+x,1/2+y,z
1/2-x,1/2-y,z
1/2+x,1/2-y,-z
1/2-x,1/2+y,-z
1/2-x,1/2-y,-z
1/2+x,1/2+y,-z
1/2-x,1/2+y,z
1/2+x,1/2-y,z
loop_
_atom_site_type_symbol
_atom_site_label
_atom_site_fract_x
_atom_site_fract_y
_atom_site_fract_z
Si Si1 0.585042 0.167267 0.196453
Si Si2 0.265535 0.912229 0.786508
Si Si3 0.584626 0.225554 0.603498
Si Si4 0.172193 0.201673 0.107284
Si Si5 0.915648 0.000000 0.388105
Si Si6 0.193378 0.863929 0.607828
O O1 0.500000 0.148599 0.163999
O O2 0.653374 0.112172 0.170840
O O3 0.583700 0.172531 0.308492
O O4 0.610037 0.248411 0.159538
O O5 0.197144 0.874149 0.843778
O O6 0.257878 0.875630 0.683925
O O7 0.259616 0.000000 0.781477
O O8 0.592980 0.192168 0.500000
O O9 0.500000 0.262425 0.604201
O O10 0.650787 0.285806 0.614724
O O11 0.250000 0.250000 0.111024
O O12 0.151213 0.191136 0.000000
O O13 0.867826 0.072912 0.366580
O O14 0.922100 0.000000 0.500000
O O15 0.000000 0.000000 0.347803
O O16 0.216896 0.873886 0.500000
#
# Coordination Sequence:
#
# PCOD9483595 Si02
#       6
#    16  16  16  16   8  16
#     4  10  21  37  58  83 111 147 191 235 277 324
#     4  11  22  36  55  83 117 151 189 227 272 335
#     4   9  17  30  50  78 110 142 182 233 282 324
#     4   9  19  38  62  84 106 136 178 229 283 335
#     4   9  16  26  42  68 104 146 186 221 270 332
#     4  10  18  29  48  76 110 149 188 231 277 326
#
# _framework density 19.231688999999999
#
# number of rings (size 3 to 8) (size 9 to 14) (size 15 to 20)
#    0.000    2.273    2.727    0.545    0.000    4.000 
#    0.000    1.818    0.000    0.000    0.000   10.182 
#    0.000    0.000    0.000    0.000    0.000    0.000 
#
# Total GULP energy -245272.055510 kJ/mol
# GULP energy per Si atom -5574.364898 kJ/mol
# Density = 1.918792 g / cm^3
# Si number density = 19.231689 Si / 1000 Ang^3
#
#
#
# Elastic Constant Matrix: (Units=GPa)
#
#
# Indices 1 2 3 4 5 6 
#
# 1 92.9245 6.4112 7.5975 0.0000 0.0000 0.0000
# 2 6.4112 35.6263 5.0335 0.0000 0.0000 0.0000
# 3 7.5975 5.0335 69.5491 0.0000 0.0000 0.0000
# 4 0.0000 0.0000 0.0000 13.8781 0.0000 0.0000
# 5 0.0000 0.0000 0.0000 0.0000 9.8243 0.0000
# 6 0.0000 0.0000 0.0000 0.0000 0.0000 8.5722
#
#
#
# Elastic Compliance Matrix: (Units=1/GPa)
#
#
# Indices 1 2 3 4 5 6 
#
# 1 0.010975 -0.001824 -0.001067 0.000000 0.000000 0.000000
# 2 -0.001824 0.028662 -0.001875 0.000000 0.000000 0.000000
# 3 -0.001067 -0.001875 0.014631 0.000000 0.000000 0.000000
# 4 0.000000 0.000000 0.000000 0.072056 0.000000 0.000000
# 5 0.000000 0.000000 0.000000 0.000000 0.101789 0.000000
# 6 0.000000 0.000000 0.000000 0.000000 0.000000 0.116657
#
#
# Mechanical properties :
#
#
# Convention : Reuss Voigt Hill
#
# Bulk Modulus (GPa) = 22.35381 26.24272 24.29826
# Shear Modulus (GPa) = 13.54232 18.39208 15.96720
#
# Velocity S-wave (km/s) = 2.65649 3.09583 2.88454
# Velocity P-wave (km/s) = 4.58889 5.14335 4.87401
#
# Compressibility (1/GPa) = 0.04473511
#
# Stress axis : x y z
#
# Youngs Moduli (GPa) = 91.12031 34.88901 68.35000
#
# Poissons Ratio (x) = 0.06364 0.07292
# Poissons Ratio (y) = 0.16622 0.12816
# Poissons Ratio (z) = 0.09721 0.06542
#
# Static dielectric constant tensor:
#      x y z
#    x 1.740800 0.000000 0.000000 
#    y 0.000000 1.651170 0.000000 
#    z 0.000000 0.000000 1.690250 
# 
# From -- ./inp_files/42465.got.cif
#   From: 2010.05.17/outbox.cif.g08.bks.cpg/sg65_22_cif.got.tgz:42465.got - 2010.06.03 17:01:31.
