data_PCOD9483826
_publ_section_title
;
Structure prediction by ZEFSAII (Michael W. Deem and Ramdas Pophale) SiO2 
 PCOD9483826
Probable space group: C M M M
;
_chemical_formula_sum "Si O2"
_cell_formula_units_Z 104
_cell_length_a 29.786153
_cell_length_b 8.570343
_cell_length_c 24.097771
_cell_angle_alpha 90.000000
_cell_angle_beta 90.000000
_cell_angle_gamma 90.000000
_cell_volume 6151.619890
_symmetry_space_group_name_H-M "C M M M"
_symmetry_group_IT_number 65
_symmetry_cell_setting 'orthorhombic'
loop_
_space_group_symop_operation_xyz
x,y,z
-x,-y,z
x,-y,-z
-x,y,-z
-x,-y,-z
x,y,-z
-x,y,z
x,-y,z
1/2+x,1/2+y,z
1/2-x,1/2-y,z
1/2+x,1/2-y,-z
1/2-x,1/2+y,-z
1/2-x,1/2-y,-z
1/2+x,1/2+y,-z
1/2-x,1/2+y,z
1/2+x,1/2-y,z
loop_
_atom_site_type_symbol
_atom_site_label
_atom_site_fract_x
_atom_site_fract_y
_atom_site_fract_z
Si Si1 0.606525 0.688409 0.438240
Si Si2 0.297406 0.686910 0.607282
Si Si3 0.797592 0.312722 0.732909
Si Si4 0.554240 0.681981 0.000000
Si Si5 0.893166 0.309634 0.774889
Si Si6 0.051699 0.688506 0.666054
Si Si7 0.552036 0.188139 0.117906
O O1 0.593036 0.739398 0.500000
O O2 0.604409 0.500000 0.436248
O O3 0.658340 0.732859 0.426529
O O4 0.575905 0.754157 0.389414
O O5 0.295109 0.500000 0.609510
O O6 0.250000 0.750000 0.585195
O O7 0.302693 0.751071 0.669916
O O8 0.796145 0.500000 0.730882
O O9 0.750000 0.250000 0.754259
O O10 0.841414 0.262838 0.767210
O O11 0.569154 0.757646 0.057797
O O12 0.564986 0.500000 0.000000
O O13 0.500000 0.700088 0.000000
O O14 0.894018 0.500000 0.775278
O O15 0.920903 0.259195 0.720478
O O16 0.917549 0.256822 0.830956
O O17 0.052206 0.500000 0.666209
O O18 0.000000 0.739989 0.668581
O O19 0.500000 0.239968 0.125121
O O20 0.551570 0.000000 0.118457
#
# Coordination Sequence:
#
# PCOD9483826 Si02
#       7
#    16  16  16   8  16  16  16
#     4  10  22  38  52  68  94 127 161 197 242 298
#     4  10  19  32  51  72  94 121 154 194 242 295
#     4  10  18  30  49  72  99 127 155 191 240 292
#     4   9  17  29  43  65 102 139 166 197 236 273
#     4   9  17  30  50  75 100 125 157 200 244 283
#     4  10  20  35  54  74  96 123 159 204 248 287
#     4   9  16  28  48  72  97 130 169 200 230 276
#
# _framework density 16.906116000000001
#
# number of rings (size 3 to 8) (size 9 to 14) (size 15 to 20)
#    0.000    2.385    1.538    2.538    0.000    4.615 
#    0.000    3.846    0.000    1.846    0.000    0.538 
#    0.000    0.000    0.000    0.000    0.000    0.000 
#
# Total GULP energy -290008.579999 kJ/mol
# GULP energy per Si atom -5577.088077 kJ/mol
# Density = 1.686764 g / cm^3
# Si number density = 16.906116 Si / 1000 Ang^3
#
#
#
# Elastic Constant Matrix: (Units=GPa)
#
#
# Indices 1 2 3 4 5 6 
#
# 1 126.2052 21.6018 79.2503 0.0000 0.0000 0.0000
# 2 21.6018 15.2586 21.0779 0.0000 0.0000 0.0000
# 3 79.2503 21.0779 141.2727 0.0000 0.0000 0.0000
# 4 0.0000 0.0000 0.0000 11.6956 0.0000 0.0000
# 5 0.0000 0.0000 0.0000 0.0000 25.4454 0.0000
# 6 0.0000 0.0000 0.0000 0.0000 0.0000 16.2009
#
#
#
# Elastic Compliance Matrix: (Units=1/GPa)
#
#
# Indices 1 2 3 4 5 6 
#
# 1 0.013540 -0.010929 -0.005965 0.000000 0.000000 0.000000
# 2 -0.010929 0.091372 -0.007502 0.000000 0.000000 0.000000
# 3 -0.005965 -0.007502 0.011544 0.000000 0.000000 0.000000
# 4 0.000000 0.000000 0.000000 0.085502 0.000000 0.000000
# 5 0.000000 0.000000 0.000000 0.000000 0.039300 0.000000
# 6 0.000000 0.000000 0.000000 0.000000 0.000000 0.061725
#
#
# Mechanical properties :
#
#
# Convention : Reuss Voigt Hill
#
# Bulk Modulus (GPa) = 14.77884 58.51072 36.64478
# Shear Modulus (GPa) = 13.35725 21.38880 17.37302
#
# Velocity S-wave (km/s) = 2.81389 3.56076 3.20913
# Velocity P-wave (km/s) = 4.39523 7.18259 5.95431
#
# Compressibility (1/GPa) = 0.06766430
#
# Stress axis : x y z
#
# Youngs Moduli (GPa) = 73.85574 10.94432 86.62519
#
# Poissons Ratio (x) = 0.11961 0.51672
# Poissons Ratio (y) = 0.80715 0.64985
# Poissons Ratio (z) = 0.44055 0.08210
#
# Static dielectric constant tensor:
#      x y z
#    x 1.578570 0.000000 0.000000 
#    y 0.000000 1.580100 0.000000 
#    z 0.000000 0.000000 1.556430 
# 
# From -- ./inp_files/72188.got.cif
#   From: 2010.05.17/outbox.cif.g08.bks.cpg/sg65_37_cif.got.tgz:72188.got - 2010.06.03 17:01:31.
