data_PCOD9483438
_publ_section_title
;
Structure prediction by ZEFSAII (Michael W. Deem and Ramdas Pophale) SiO2 
 PCOD9483438
Probable space group: C M M M
;
_chemical_formula_sum "Si O2"
_cell_formula_units_Z 120
_cell_length_a 30.614727
_cell_length_b 14.326278
_cell_length_c 16.659753
_cell_angle_alpha 90.000000
_cell_angle_beta 90.000000
_cell_angle_gamma 90.000000
_cell_volume 7306.885865
_symmetry_space_group_name_H-M "C M M M"
_symmetry_group_IT_number 65
_symmetry_cell_setting 'orthorhombic'
loop_
_space_group_symop_operation_xyz
x,y,z
-x,-y,z
x,-y,-z
-x,y,-z
-x,-y,-z
x,y,-z
-x,y,z
x,-y,z
1/2+x,1/2+y,z
1/2-x,1/2-y,z
1/2+x,1/2-y,-z
1/2-x,1/2+y,-z
1/2-x,1/2-y,-z
1/2+x,1/2+y,-z
1/2-x,1/2+y,z
1/2+x,1/2-y,z
loop_
_atom_site_type_symbol
_atom_site_label
_atom_site_fract_x
_atom_site_fract_y
_atom_site_fract_z
Si Si1 0.052822 0.105371 0.500000
Si Si2 0.447064 0.294190 0.334032
Si Si3 0.047538 0.272892 0.904531
Si Si4 0.446993 0.104513 0.407009
Si Si5 0.370057 0.890774 0.097996
Si Si6 0.775004 0.612608 0.904141
Si Si7 0.679760 0.386444 0.907505
Si Si8 0.410814 0.388735 0.176246
O O1 0.064510 0.157376 0.418404
O O2 0.000000 0.102718 0.500000
O O3 0.069433 0.000000 0.500000
O O4 0.500000 0.300770 0.322867
O O5 0.434311 0.186239 0.346576
O O6 0.423174 0.345937 0.262020
O O7 0.088191 0.333174 0.873163
O O8 0.057461 0.165757 0.884522
O O9 0.000000 0.300014 0.871326
O O10 0.046459 0.285846 0.000000
O O11 0.434017 0.123891 0.500000
O O12 0.500000 0.104893 0.407988
O O13 0.432496 0.000000 0.385907
O O14 0.322393 0.853623 0.125081
O O15 0.374456 0.000000 0.118977
O O16 0.369477 0.886692 0.000000
O O17 0.776514 0.500000 0.892972
O O18 0.727288 0.646097 0.876330
O O19 0.773607 0.628590 0.000000
O O20 0.682114 0.500000 0.911723
O O21 0.638183 0.365546 0.853204
O O22 0.672794 0.353610 0.000000
O O23 0.416370 0.500000 0.175501
#
# Coordination Sequence:
#
# PCOD9483438 Si02
#       8
#     8  16  16  16  16  16  16  16
#     4   9  16  26  41  61  85 113 145 184 227 269
#     4  10  18  29  44  64  87 112 149 193 231 275
#     4  10  21  34  45  60  85 120 164 206 236 267
#     4   8  13  24  44  67  88 109 134 171 226 285
#     4   8  14  27  48  70  89 111 142 184 238 295
#     4   7  10  20  42  69  90 107 134 180 239 296
#     4   8  14  26  44  64  86 115 153 197 243 284
#     4  11  22  33  44  58  82 121 165 205 240 271
#
# _framework density 16.422864000000001
#
# number of rings (size 3 to 8) (size 9 to 14) (size 15 to 20)
#    0.000    3.133    0.667    3.200    0.000    2.667 
#    0.000    3.333    0.000    4.800    0.000    0.000 
#    0.000    1.067    0.000    6.133    0.000   11.067 
#
# Total GULP energy -334125.325854 kJ/mol
# GULP energy per Si atom -5568.755431 kJ/mol
# Density = 1.638549 g / cm^3
# Si number density = 16.422864 Si / 1000 Ang^3
#
#
#
# Elastic Constant Matrix: (Units=GPa)
#
#
# Indices 1 2 3 4 5 6 
#
# 1 126.5616 46.7829 36.6140 0.0000 0.0000 0.0000
# 2 46.7829 79.8617 18.5060 0.0000 0.0000 0.0000
# 3 36.6140 18.5060 35.4936 0.0000 0.0000 0.0000
# 4 0.0000 0.0000 0.0000 20.5894 0.0000 0.0000
# 5 0.0000 0.0000 0.0000 0.0000 312.6478 0.0000
# 6 0.0000 0.0000 0.0000 0.0000 0.0000 19.7358
#
#
#
# Elastic Compliance Matrix: (Units=1/GPa)
#
#
# Indices 1 2 3 4 5 6 
#
# 1 0.012842 -0.005065 -0.010607 0.000000 0.000000 0.000000
# 2 -0.005065 0.016240 -0.003243 0.000000 0.000000 0.000000
# 3 -0.010607 -0.003243 0.040806 0.000000 0.000000 0.000000
# 4 0.000000 0.000000 0.000000 0.048569 0.000000 0.000000
# 5 0.000000 0.000000 0.000000 0.000000 0.003198 0.000000
# 6 0.000000 0.000000 0.000000 0.000000 0.000000 0.050669
#
#
# Mechanical properties :
#
#
# Convention : Reuss Voigt Hill
#
# Bulk Modulus (GPa) = 31.19148 49.52475 40.35811
# Shear Modulus (GPa) = 22.64088 79.92887 51.28488
#
# Velocity S-wave (km/s) = 3.71700 6.98390 5.59424
# Velocity P-wave (km/s) = 6.12009 9.75985 8.14586
#
# Compressibility (1/GPa) = 0.03206004
#
# Stress axis : x y z
#
# Youngs Moduli (GPa) = 77.86954 61.57594 24.50613
#
# Poissons Ratio (x) = 0.31188 0.25992
# Poissons Ratio (y) = 0.39441 0.07946
# Poissons Ratio (z) = 0.82593 0.19966
#
# Static dielectric constant tensor:
#      x y z
#    x 1.581910 0.000000 0.000000 
#    y 0.000000 1.615290 0.000000 
#    z 0.000000 0.000000 1.531320 
# 
# From -- ./inp_files/48107.got.cif
#   From: 2010.05.17/outbox.cif.g08.bks.cpg/sg65_25_cif.got.tgz:48107.got - 2010.06.03 17:01:31.
