data_PCOD9483360
_publ_section_title
;
Structure prediction by ZEFSAII (Michael W. Deem and Ramdas Pophale) SiO2 
 PCOD9483360
Probable space group: C M M M
;
_chemical_formula_sum "Si O2"
_cell_formula_units_Z 104
_cell_length_a 14.622129
_cell_length_b 15.286498
_cell_length_c 21.357106
_cell_angle_alpha 90.000000
_cell_angle_beta 90.000000
_cell_angle_gamma 90.000000
_cell_volume 4773.764802
_symmetry_space_group_name_H-M "C M M M"
_symmetry_group_IT_number 65
_symmetry_cell_setting 'orthorhombic'
loop_
_space_group_symop_operation_xyz
x,y,z
-x,-y,z
x,-y,-z
-x,y,-z
-x,-y,-z
x,y,-z
-x,y,z
x,-y,z
1/2+x,1/2+y,z
1/2-x,1/2-y,z
1/2+x,1/2-y,-z
1/2-x,1/2+y,-z
1/2-x,1/2-y,-z
1/2+x,1/2+y,-z
1/2-x,1/2+y,z
1/2+x,1/2-y,z
loop_
_atom_site_type_symbol
_atom_site_label
_atom_site_fract_x
_atom_site_fract_y
_atom_site_fract_z
Si Si1 0.611362 0.766707 0.114071
Si Si2 0.361101 0.000000 0.429886
Si Si3 0.362045 0.500000 0.573963
Si Si4 0.144147 0.849502 0.670556
Si Si5 0.389785 0.401347 0.183785
Si Si6 0.394866 0.907672 0.204667
Si Si7 0.136509 0.652005 0.659088
Si Si8 0.888672 0.395740 0.000000
O O1 0.500000 0.760059 0.108675
O O2 0.642763 0.668547 0.131249
O O3 0.642909 0.820634 0.174957
O O4 0.638862 0.833028 0.058425
O O5 0.391360 0.911316 0.396411
O O6 0.391474 0.000000 0.500000
O O7 0.249334 0.000000 0.427905
O O8 0.390673 0.500000 0.500000
O O9 0.389742 0.582737 0.617515
O O10 0.129705 0.876653 0.743288
O O11 0.106251 0.752298 0.659340
O O12 0.253392 0.846531 0.661686
O O13 0.500000 0.401062 0.179904
O O14 0.357661 0.500000 0.172323
O O15 0.500000 0.910928 0.182743
O O16 0.394192 0.895739 0.278060
O O17 0.351669 0.000000 0.186826
O O18 0.859421 0.500000 0.000000
O O19 0.000000 0.400318 0.000000
#
# Coordination Sequence:
#
# PCOD9483360 Si02
#       8
#    16   8   8  16  16  16  16   8
#     4   9  17  29  45  70 101 130 162 201 243 287
#     4   9  18  32  47  67  99 130 157 198 248 301
#     4   9  18  32  49  69  95 126 161 206 254 297
#     4  10  19  31  49  72  96 123 161 205 248 291
#     4  10  19  31  49  72  97 130 167 203 249 292
#     4  10  18  28  46  72  99 126 156 193 241 293
#     4  10  19  30  48  73  96 123 161 199 245 294
#     4   9  16  28  47  71 102 137 168 199 241 291
#
# _framework density 21.785741000000002
#
# number of rings (size 3 to 8) (size 9 to 14) (size 15 to 20)
#    0.000    2.385    3.077    0.462    0.000    2.462 
#    0.000    3.462    0.000    4.154    0.000    4.308 
#    0.000    2.462    0.000    0.000    0.000    0.000 
#
# Total GULP energy -289785.191107 kJ/mol
# GULP energy per Si atom -5572.792137 kJ/mol
# Density = 2.173616 g / cm^3
# Si number density = 21.785741 Si / 1000 Ang^3
#
#
#
# Elastic Constant Matrix: (Units=GPa)
#
#
# Indices 1 2 3 4 5 6 
#
# 1 72.8758 6.7540 -6.7058 0.0000 0.0000 0.0000
# 2 6.7540 238.8406 83.5440 0.0000 0.0000 0.0000
# 3 -6.7058 83.5440 124.1688 0.0000 0.0000 0.0000
# 4 0.0000 0.0000 0.0000 -253.3328 0.0000 0.0000
# 5 0.0000 0.0000 0.0000 0.0000 15.0787 0.0000
# 6 0.0000 0.0000 0.0000 0.0000 0.0000 -0.4412
#
#
#
# Elastic Compliance Matrix: (Units=1/GPa)
#
#
# Indices 1 2 3 4 5 6 
#
# 1 0.013924 -0.000859 0.001330 0.000000 0.000000 0.000000
# 2 -0.000859 0.005529 -0.003766 0.000000 0.000000 0.000000
# 3 0.001330 -0.003766 0.010659 0.000000 0.000000 0.000000
# 4 0.000000 0.000000 0.000000 -0.003947 0.000000 0.000000
# 5 0.000000 0.000000 0.000000 0.000000 0.066319 0.000000
# 6 0.000000 0.000000 0.000000 0.000000 0.000000 -2.266372
#
#
# Mechanical properties :
#
#
# Convention : Reuss Voigt Hill
#
# Bulk Modulus (GPa) = 42.51438 67.00773 54.76105
# Shear Modulus (GPa) = -2.31540 -24.25287 -13.28413
#
# Velocity S-wave (km/s) = -1.03204 -3.34015 -2.47202
# Velocity P-wave (km/s) = 4.25875 3.99361 4.12831
#
# Compressibility (1/GPa) = 0.02352145
#
# Stress axis : x y z
#
# Youngs Moduli (GPa) = 71.81868 180.87985 93.81463
#
# Poissons Ratio (x) = 0.15536 -0.12476
# Poissons Ratio (y) = 0.06169 0.35332
# Poissons Ratio (z) = -0.09551 0.68122
#
# Static dielectric constant tensor:
#      x y z
#    x 1.920220 0.000000 0.000000 
#    y 0.000000 1.832600 0.000000 
#    z 0.000000 0.000000 1.777770 
# 
# From -- ./inp_files/63866.got.cif
#   From: 2010.05.17/outbox.cif.g08.bks.cpg/sg65_32_cif.got.tgz:63866.got - 2010.06.03 17:01:31.
