data_PCOD9483996
_publ_section_title
;
Structure prediction by ZEFSAII (Michael W. Deem and Ramdas Pophale) SiO2 
 PCOD9483996
Probable space group: C M M M
;
_chemical_formula_sum "Si O2"
_cell_formula_units_Z 56
_cell_length_a 8.942726
_cell_length_b 25.592254
_cell_length_c 12.943520
_cell_angle_alpha 90.000000
_cell_angle_beta 90.000000
_cell_angle_gamma 90.000000
_cell_volume 2962.312430
_symmetry_space_group_name_H-M "C M M M"
_symmetry_group_IT_number 65
_symmetry_cell_setting 'orthorhombic'
loop_
_space_group_symop_operation_xyz
x,y,z
-x,-y,z
x,-y,-z
-x,y,-z
-x,-y,-z
x,y,-z
-x,y,z
x,-y,z
1/2+x,1/2+y,z
1/2-x,1/2-y,z
1/2+x,1/2-y,-z
1/2-x,1/2+y,-z
1/2-x,1/2-y,-z
1/2+x,1/2+y,-z
1/2-x,1/2+y,z
1/2+x,1/2-y,z
loop_
_atom_site_type_symbol
_atom_site_label
_atom_site_fract_x
_atom_site_fract_y
_atom_site_fract_z
Si Si1 0.673834 0.305428 0.204008
Si Si2 0.324805 0.582551 0.284280
Si Si3 0.335253 0.938782 0.500000
Si Si4 0.818845 0.500000 0.874782
Si Si5 0.822914 0.307537 0.000000
O O1 0.500000 0.294364 0.179732
O O2 0.750000 0.250000 0.232354
O O3 0.682575 0.354245 0.279058
O O4 0.757063 0.329447 0.104339
O O5 0.500000 0.568129 0.279899
O O6 0.252683 0.571083 0.394553
O O7 0.244106 0.549902 0.191482
O O8 0.500000 0.912720 0.500000
O O9 0.356984 0.000000 0.500000
O O10 0.000000 0.500000 0.869303
O O11 0.780255 0.500000 0.000000
O O12 0.750000 0.250000 0.000000
O O13 0.000000 0.306784 0.000000
#
# Coordination Sequence:
#
# PCOD9483996 Si02
#       5
#    16  16   8   8   8
#     4  10  21  37  57  86 120 158 202 247 298 358
#     4  11  24  41  65  92 122 161 205 252 303 361
#     4  11  23  41  66  93 119 154 205 255 302 358
#     4  11  25  42  61  92 129 163 203 249 306 365
#     4  10  18  30  52  79 112 157 200 242 290 346
#
# _framework density 18.904150999999999
#
# number of rings (size 3 to 8) (size 9 to 14) (size 15 to 20)
#    0.000    1.429    1.429    5.571    2.000    6.286 
#    0.000    0.714    0.000    0.000    0.000    0.000 
#    0.000    0.000    0.000    0.000    0.000    0.000 
#
# Total GULP energy -155906.045286 kJ/mol
# GULP energy per Si atom -5568.073046 kJ/mol
# Density = 1.886112 g / cm^3
# Si number density = 18.904151 Si / 1000 Ang^3
#
#
#
# Elastic Constant Matrix: (Units=GPa)
#
#
# Indices 1 2 3 4 5 6 
#
# 1 169.7120 58.8640 77.9517 0.0000 0.0000 0.0000
# 2 58.8640 107.0002 49.1724 0.0000 0.0000 0.0000
# 3 77.9517 49.1724 140.6380 0.0000 0.0000 0.0000
# 4 0.0000 0.0000 0.0000 43.1862 0.0000 0.0000
# 5 0.0000 0.0000 0.0000 0.0000 71.8642 0.0000
# 6 0.0000 0.0000 0.0000 0.0000 0.0000 22.8950
#
#
#
# Elastic Compliance Matrix: (Units=1/GPa)
#
#
# Indices 1 2 3 4 5 6 
#
# 1 0.008667 -0.003050 -0.003737 0.000000 0.000000 0.000000
# 2 -0.003050 0.012209 -0.002578 0.000000 0.000000 0.000000
# 3 -0.003737 -0.002578 0.010083 0.000000 0.000000 0.000000
# 4 0.000000 0.000000 0.000000 0.023156 0.000000 0.000000
# 5 0.000000 0.000000 0.000000 0.000000 0.013915 0.000000
# 6 0.000000 0.000000 0.000000 0.000000 0.000000 0.043678
#
#
# Mechanical properties :
#
#
# Convention : Reuss Voigt Hill
#
# Bulk Modulus (GPa) = 81.78187 87.70293 84.74240
# Shear Modulus (GPa) = 37.17083 43.01323 40.09203
#
# Velocity S-wave (km/s) = 4.43908 4.77522 4.61022
# Velocity P-wave (km/s) = 8.34441 8.76914 8.55941
#
# Compressibility (1/GPa) = 0.01222765
#
# Stress axis : x y z
#
# Youngs Moduli (GPa) = 115.38027 81.90968 99.17449
#
# Poissons Ratio (x) = 0.24986 0.37065
# Poissons Ratio (y) = 0.35196 0.25565
# Poissons Ratio (z) = 0.43121 0.21115
#
# Static dielectric constant tensor:
#      x y z
#    x 1.697640 0.000000 0.000000 
#    y 0.000000 1.649280 0.000000 
#    z 0.000000 0.000000 1.712080 
# 
# From -- ./inp_files/20568.got.cif
#   From: 2010.05.17/outbox.cif.g08.bks.cpg/sg65_11_cif.got.tgz:20568.got - 2010.06.03 17:01:31.
