data_PCOD9483558
_publ_section_title
;
Structure prediction by ZEFSAII (Michael W. Deem and Ramdas Pophale) SiO2 
 PCOD9483558
Probable space group: C M M M
;
_chemical_formula_sum "Si O2"
_cell_formula_units_Z 112
_cell_length_a 15.257824
_cell_length_b 19.227652
_cell_length_c 23.884842
_cell_angle_alpha 90.000000
_cell_angle_beta 90.000000
_cell_angle_gamma 90.000000
_cell_volume 7007.146976
_symmetry_space_group_name_H-M "C M M M"
_symmetry_group_IT_number 65
_symmetry_cell_setting 'orthorhombic'
loop_
_space_group_symop_operation_xyz
x,y,z
-x,-y,z
x,-y,-z
-x,y,-z
-x,-y,-z
x,y,-z
-x,y,z
x,-y,z
1/2+x,1/2+y,z
1/2-x,1/2-y,z
1/2+x,1/2-y,-z
1/2-x,1/2+y,-z
1/2-x,1/2-y,-z
1/2+x,1/2+y,-z
1/2-x,1/2+y,z
1/2+x,1/2-y,z
loop_
_atom_site_type_symbol
_atom_site_label
_atom_site_fract_x
_atom_site_fract_y
_atom_site_fract_z
Si Si1 0.263438 0.330859 0.432680
Si Si2 0.895691 0.847891 0.878803
Si Si3 0.396812 0.801097 0.933456
Si Si4 0.763184 0.578023 0.067153
Si Si5 0.902811 0.419945 0.567992
Si Si6 0.394066 0.578773 0.233399
Si Si7 0.394999 0.581501 0.361438
O O1 0.273007 0.337653 0.500000
O O2 0.250000 0.250000 0.419875
O O3 0.176256 0.371767 0.414101
O O4 0.344584 0.367130 0.402366
O O5 0.879592 0.769062 0.898688
O O6 0.833067 0.897216 0.914852
O O7 0.871829 0.866187 0.814596
O O8 0.000000 0.861546 0.886559
O O9 0.500000 0.818752 0.927687
O O10 0.334116 0.863983 0.915171
O O11 0.381244 0.786930 0.000000
O O12 0.781542 0.500000 0.088041
O O13 0.767363 0.576408 0.000000
O O14 0.903290 0.419139 0.500000
O O15 0.889187 0.500000 0.584963
O O16 0.000000 0.397607 0.586356
O O17 0.500000 0.576363 0.235235
O O18 0.364660 0.500000 0.218471
O O19 0.366661 0.594257 0.296943
O O20 0.500000 0.590287 0.365206
O O21 0.376177 0.500000 0.374213
#
# Coordination Sequence:
#
# PCOD9483558 Si02
#       7
#    16  16  16  16  16  16  16
#     4  10  20  31  44  67  99 128 151 181 225 275
#     4  10  18  29  48  71  94 120 150 188 237 288
#     4   9  18  32  48  66  91 124 160 196 232 272
#     4  10  20  31  44  66  96 127 158 193 232 276
#     4   8  14  26  44  63  83 112 151 187 213 245
#     4   8  15  29  48  69  93 121 153 189 229 276
#     4   9  18  33  52  72  94 121 154 193 234 275
#
# _framework density 15.98368
#
# number of rings (size 3 to 8) (size 9 to 14) (size 15 to 20)
#    0.000    2.857    0.000    3.000    0.000    4.857 
#    0.000    5.714    0.000    0.000    0.000    1.000 
#    0.000    1.143    0.000    0.000    0.000    0.000 
#
# Total GULP energy -311822.708582 kJ/mol
# GULP energy per Si atom -5568.262653 kJ/mol
# Density = 1.594730 g / cm^3
# Si number density = 15.983680 Si / 1000 Ang^3
#
#
#
# Elastic Constant Matrix: (Units=GPa)
#
#
# Indices 1 2 3 4 5 6 
#
# 1 63.6191 64.5130 30.1231 0.0000 0.0000 0.0000
# 2 64.5130 119.0076 54.5255 0.0000 0.0000 0.0000
# 3 30.1231 54.5255 43.5750 0.0000 0.0000 0.0000
# 4 0.0000 0.0000 0.0000 5.8930 0.0000 0.0000
# 5 0.0000 0.0000 0.0000 0.0000 13.5633 0.0000
# 6 0.0000 0.0000 0.0000 0.0000 0.0000 16.5274
#
#
#
# Elastic Compliance Matrix: (Units=1/GPa)
#
#
# Indices 1 2 3 4 5 6 
#
# 1 0.034929 -0.018448 -0.001062 0.000000 0.000000 0.000000
# 2 -0.018448 0.029436 -0.024081 0.000000 0.000000 0.000000
# 3 -0.001062 -0.024081 0.053815 0.000000 0.000000 0.000000
# 4 0.000000 0.000000 0.000000 0.169692 0.000000 0.000000
# 5 0.000000 0.000000 0.000000 0.000000 0.073728 0.000000
# 6 0.000000 0.000000 0.000000 0.000000 0.000000 0.060506
#
#
# Mechanical properties :
#
#
# Convention : Reuss Voigt Hill
#
# Bulk Modulus (GPa) = 32.25924 58.28056 45.26990
# Shear Modulus (GPa) = 9.62241 12.33276 10.97758
#
# Velocity S-wave (km/s) = 2.45626 2.78075 2.62353
# Velocity P-wave (km/s) = 5.31702 6.84484 6.12872
#
# Compressibility (1/GPa) = 0.03099887
#
# Stress axis : x y z
#
# Youngs Moduli (GPa) = 28.62991 33.97165 18.58205
#
# Poissons Ratio (x) = 0.62670 0.01973
# Poissons Ratio (y) = 0.52816 0.44747
# Poissons Ratio (z) = 0.03040 0.81806
#
# Static dielectric constant tensor:
#      x y z
#    x 1.536290 0.000000 0.000000 
#    y 0.000000 1.532720 0.000000 
#    z 0.000000 0.000000 1.531320 
# 
# From -- ./inp_files/70045.got.cif
#   From: 2010.05.17/outbox.cif.g08.bks.cpg/sg65_36_cif.got.tgz:70045.got - 2010.06.03 17:01:31.
