data_PCOD9483836
_publ_section_title
;
Structure prediction by ZEFSAII (Michael W. Deem and Ramdas Pophale) SiO2 
 PCOD9483836
Probable space group: C M M M
;
_chemical_formula_sum "Si O2"
_cell_formula_units_Z 80
_cell_length_a 18.699538
_cell_length_b 8.605136
_cell_length_c 26.828116
_cell_angle_alpha 90.000000
_cell_angle_beta 90.000000
_cell_angle_gamma 90.000000
_cell_volume 4316.967616
_symmetry_space_group_name_H-M "C M M M"
_symmetry_group_IT_number 65
_symmetry_cell_setting 'orthorhombic'
loop_
_space_group_symop_operation_xyz
x,y,z
-x,-y,z
x,-y,-z
-x,y,-z
-x,-y,-z
x,y,-z
-x,y,z
x,-y,z
1/2+x,1/2+y,z
1/2-x,1/2-y,z
1/2+x,1/2-y,-z
1/2-x,1/2+y,-z
1/2-x,1/2-y,-z
1/2+x,1/2+y,-z
1/2-x,1/2+y,z
1/2+x,1/2-y,z
loop_
_atom_site_type_symbol
_atom_site_label
_atom_site_fract_x
_atom_site_fract_y
_atom_site_fract_z
Si Si1 0.917233 0.312820 0.798762
Si Si2 0.669362 0.813070 0.896504
Si Si3 0.831550 0.814551 0.000000
Si Si4 0.169612 0.187058 0.594742
Si Si5 0.917121 0.187167 0.692480
Si Si6 0.083545 0.686687 0.500000
O O1 0.914987 0.500000 0.796535
O O2 0.873372 0.263969 0.847292
O O3 0.890938 0.247803 0.745937
O O4 0.000000 0.264328 0.803975
O O5 0.750000 0.750000 0.892464
O O6 0.670792 0.000000 0.899354
O O7 0.636961 0.748085 0.948160
O O8 0.750000 0.750000 0.000000
O O9 0.830072 0.000000 0.000000
O O10 0.250000 0.250000 0.591849
O O11 0.131402 0.237269 0.646212
O O12 0.123335 0.248530 0.548590
O O13 0.170897 0.000000 0.593209
O O14 0.000000 0.238780 0.685784
O O15 0.917257 0.000000 0.693537
O O16 0.087771 0.500000 0.500000
O O17 0.000000 0.732192 0.500000
#
# Coordination Sequence:
#
# PCOD9483836 Si02
#       6
#    16  16   8  16  16   8
#     4   9  19  35  54  76 103 137 175 215 260 310
#     4  10  19  32  51  74 101 132 169 212 258 310
#     4  10  18  30  49  72  99 131 169 211 257 308
#     4  11  23  39  59  84 116 149 183 225 273 321
#     4   9  19  36  57  79 104 139 180 219 263 316
#     4  11  24  41  62  87 113 145 186 227 270 323
#
# _framework density 18.531525999999999
#
# number of rings (size 3 to 8) (size 9 to 14) (size 15 to 20)
#    0.000    2.100    0.000    4.500    0.000    5.600 
#    0.000    6.500    0.000    3.000    0.000    0.000 
#    0.000    0.000    0.000    0.000    0.000    0.000 
#
# Total GULP energy -223296.013170 kJ/mol
# GULP energy per Si atom -5582.400329 kJ/mol
# Density = 1.848935 g / cm^3
# Si number density = 18.531526 Si / 1000 Ang^3
#
#
#
# Elastic Constant Matrix: (Units=GPa)
#
#
# Indices 1 2 3 4 5 6 
#
# 1 96.5656 32.2100 99.5053 0.0000 0.0000 0.0000
# 2 32.2100 54.0789 51.3491 0.0000 0.0000 0.0000
# 3 99.5053 51.3491 231.1390 0.0000 0.0000 0.0000
# 4 0.0000 0.0000 0.0000 35.4184 0.0000 0.0000
# 5 0.0000 0.0000 0.0000 0.0000 36.8170 0.0000
# 6 0.0000 0.0000 0.0000 0.0000 0.0000 18.6558
#
#
#
# Elastic Compliance Matrix: (Units=1/GPa)
#
#
# Indices 1 2 3 4 5 6 
#
# 1 0.019479 -0.004613 -0.007361 0.000000 0.000000 0.000000
# 2 -0.004613 0.024527 -0.003463 0.000000 0.000000 0.000000
# 3 -0.007361 -0.003463 0.008265 0.000000 0.000000 0.000000
# 4 0.000000 0.000000 0.000000 0.028234 0.000000 0.000000
# 5 0.000000 0.000000 0.000000 0.000000 0.027161 0.000000
# 6 0.000000 0.000000 0.000000 0.000000 0.000000 0.053603
#
#
# Mechanical properties :
#
#
# Convention : Reuss Voigt Hill
#
# Bulk Modulus (GPa) = 46.73437 83.10135 64.91786
# Shear Modulus (GPa) = 25.09087 31.42619 28.25853
#
# Velocity S-wave (km/s) = 3.68361 4.12251 3.90922
# Velocity P-wave (km/s) = 6.58525 8.22196 7.44870
#
# Compressibility (1/GPa) = 0.02139753
#
# Stress axis : x y z
#
# Youngs Moduli (GPa) = 51.33606 40.77111 120.99578
#
# Poissons Ratio (x) = 0.18806 0.89067
# Poissons Ratio (y) = 0.23679 0.41903
# Poissons Ratio (z) = 0.37789 0.14120
#
# Static dielectric constant tensor:
#      x y z
#    x 1.623750 0.000000 0.000000 
#    y 0.000000 1.629570 0.000000 
#    z 0.000000 0.000000 1.644900 
# 
# From -- ./inp_files/75061.got.cif
#   From: 2010.05.17/outbox.cif.g08.bks.cpg/sg65_38_cif.got.tgz:75061.got - 2010.06.03 17:01:31.
