data_PCOD9483015
_publ_section_title
;
Structure prediction by ZEFSAII (Michael W. Deem and Ramdas Pophale) SiO2 
 PCOD9483015
Probable space group: C M M M
;
_chemical_formula_sum "Si O2"
_cell_formula_units_Z 104
_cell_length_a 22.436666
_cell_length_b 7.345660
_cell_length_c 29.106660
_cell_angle_alpha 90.000000
_cell_angle_beta 90.000000
_cell_angle_gamma 90.000000
_cell_volume 4797.130340
_symmetry_space_group_name_H-M "C M M M"
_symmetry_group_IT_number 65
_symmetry_cell_setting 'orthorhombic'
loop_
_space_group_symop_operation_xyz
x,y,z
-x,-y,z
x,-y,-z
-x,y,-z
-x,-y,-z
x,y,-z
-x,y,z
x,-y,z
1/2+x,1/2+y,z
1/2-x,1/2-y,z
1/2+x,1/2-y,-z
1/2-x,1/2+y,-z
1/2-x,1/2-y,-z
1/2+x,1/2+y,-z
1/2-x,1/2+y,z
1/2+x,1/2-y,z
loop_
_atom_site_type_symbol
_atom_site_label
_atom_site_fract_x
_atom_site_fract_y
_atom_site_fract_z
Si Si1 0.114145 0.704770 0.231937
Si Si2 0.818941 0.283459 0.853222
Si Si3 0.000000 0.217811 0.174537
Si Si4 0.679617 0.215992 0.500000
Si Si5 0.930110 0.722609 0.330777
Si Si6 0.000000 0.713350 0.933357
Si Si7 0.821825 0.718118 0.398289
Si Si8 0.369288 0.777316 0.950820
O O1 0.135647 0.500000 0.243147
O O2 0.159971 0.792654 0.196088
O O3 0.091779 0.783240 0.280131
O O4 0.056506 0.701344 0.199755
O O5 0.832485 0.500000 0.851580
O O6 0.750000 0.250000 0.856841
O O7 0.845438 0.214285 0.901426
O O8 0.000000 0.265560 0.121387
O O9 0.000000 0.000000 0.179526
O O10 0.750000 0.250000 0.500000
O O11 0.661837 0.286516 0.550254
O O12 0.666961 0.000000 0.500000
O O13 0.932009 0.500000 0.331187
O O14 0.875436 0.778820 0.364475
O O15 0.000000 0.778271 0.339391
O O16 0.937749 0.784301 0.951195
O O17 0.000000 0.500000 0.944661
O O18 0.825510 0.500000 0.398930
O O19 0.750000 0.750000 0.388476
O O20 0.367019 0.000000 0.949597
O O21 0.341069 0.723323 0.000000
#
# Coordination Sequence:
#
# PCOD9483015 Si02
#       8
#    16  16   8   8  16   8  16  16
#     4  10  19  36  57  73  93 132 173 202 241 304
#     4  10  21  35  52  73  98 128 165 204 244 292
#     4  12  22  31  51  81 104 123 155 206 252 290
#     4   8  14  26  45  69 101 135 175 216 254 304
#     4   9  17  30  53  78 100 130 174 217 255 306
#     4  10  17  32  56  78 100 126 159 199 243 298
#     4   9  17  30  49  75 103 138 177 217 261 304
#     4   9  17  30  52  79  99 122 162 205 240 285
#
# _framework density 21.679628000000001
#
# number of rings (size 3 to 8) (size 9 to 14) (size 15 to 20)
#    0.000    2.462    2.308    0.923    0.000    2.462 
#    0.000    1.154    0.000    4.154    0.000    0.000 
#    0.000    6.154    0.000    0.000    0.000    0.000 
#
# Total GULP energy -289535.815550 kJ/mol
# GULP energy per Si atom -5567.996453 kJ/mol
# Density = 2.163028 g / cm^3
# Si number density = 21.679628 Si / 1000 Ang^3
#
#
#
# Elastic Constant Matrix: (Units=GPa)
#
#
# Indices 1 2 3 4 5 6 
#
# 1 142.5261 1.2226 95.9519 0.0000 0.0000 0.0000
# 2 1.2226 90.0175 3.4700 0.0000 0.0000 0.0000
# 3 95.9519 3.4700 210.6663 0.0000 0.0000 0.0000
# 4 0.0000 0.0000 0.0000 -32.0571 0.0000 0.0000
# 5 0.0000 0.0000 0.0000 0.0000 99.9926 0.0000
# 6 0.0000 0.0000 0.0000 0.0000 0.0000 11.5080
#
#
#
# Elastic Compliance Matrix: (Units=1/GPa)
#
#
# Indices 1 2 3 4 5 6 
#
# 1 0.010119 0.000040 -0.004610 0.000000 0.000000 0.000000
# 2 0.000040 0.011116 -0.000201 0.000000 0.000000 0.000000
# 3 -0.004610 -0.000201 0.006850 0.000000 0.000000 0.000000
# 4 0.000000 0.000000 0.000000 -0.031194 0.000000 0.000000
# 5 0.000000 0.000000 0.000000 0.000000 0.010001 0.000000
# 6 0.000000 0.000000 0.000000 0.000000 0.000000 0.086896
#
#
# Mechanical properties :
#
#
# Convention : Reuss Voigt Hill
#
# Bulk Modulus (GPa) = 53.92740 71.61100 62.76920
# Shear Modulus (GPa) = 45.65776 38.72638 42.19207
#
# Velocity S-wave (km/s) = 4.59412 4.23105 4.41632
# Velocity P-wave (km/s) = 7.28491 7.54800 7.41762
#
# Compressibility (1/GPa) = 0.01854345
#
# Stress axis : x y z
#
# Youngs Moduli (GPa) = 98.82154 89.95905 145.99132
#
# Poissons Ratio (x) = -0.00362 0.67297
# Poissons Ratio (y) = -0.00398 0.02941
# Poissons Ratio (z) = 0.45553 0.01812
#
# Static dielectric constant tensor:
#      x y z
#    x 1.764030 0.000000 0.000000 
#    y 0.000000 1.854910 0.000000 
#    z 0.000000 0.000000 1.822300 
# 
# From -- ./inp_files/78293.got.cif
#   From: 2010.05.17/outbox.cif.g08.bks.cpg/sg65_40_cif.got.tgz:78293.got - 2010.06.03 17:01:31.
