data_PCOD9483478
_publ_section_title
;
Structure prediction by ZEFSAII (Michael W. Deem and Ramdas Pophale) SiO2 
 PCOD9483478
Probable space group: C M M M
;
_chemical_formula_sum "Si O2"
_cell_formula_units_Z 88
_cell_length_a 19.768051
_cell_length_b 14.111740
_cell_length_c 18.568362
_cell_angle_alpha 90.000000
_cell_angle_beta 90.000000
_cell_angle_gamma 90.000000
_cell_volume 5179.859899
_symmetry_space_group_name_H-M "C M M M"
_symmetry_group_IT_number 65
_symmetry_cell_setting 'orthorhombic'
loop_
_space_group_symop_operation_xyz
x,y,z
-x,-y,z
x,-y,-z
-x,y,-z
-x,-y,-z
x,y,-z
-x,y,z
x,-y,z
1/2+x,1/2+y,z
1/2-x,1/2-y,z
1/2+x,1/2-y,-z
1/2-x,1/2+y,-z
1/2-x,1/2-y,-z
1/2+x,1/2+y,-z
1/2-x,1/2+y,z
1/2+x,1/2-y,z
loop_
_atom_site_type_symbol
_atom_site_label
_atom_site_fract_x
_atom_site_fract_y
_atom_site_fract_z
Si Si1 0.198003 0.615224 0.082336
Si Si2 0.842215 0.885760 0.142900
Si Si3 0.076635 0.884594 0.000000
Si Si4 0.417948 0.390355 0.419368
Si Si5 0.922202 0.389192 0.187841
Si Si6 0.919727 0.209369 0.725812
O O1 0.199573 0.500000 0.078241
O O2 0.265148 0.642580 0.126086
O O3 0.130835 0.639728 0.126403
O O4 0.199019 0.650112 0.000000
O O5 0.876074 0.843517 0.213718
O O6 0.844389 0.000000 0.148175
O O7 0.884746 0.857163 0.072330
O O8 0.000000 0.849829 0.000000
O O9 0.075477 0.000000 0.000000
O O10 0.394705 0.363898 0.500000
O O11 0.500000 0.388903 0.421069
O O12 0.398341 0.500000 0.405497
O O13 0.397790 0.323572 0.353405
O O14 0.911508 0.500000 0.204780
O O15 0.913108 0.320356 0.255858
O O16 0.000000 0.378153 0.162995
O O17 0.000000 0.185099 0.734325
#
# Coordination Sequence:
#
# PCOD9483478 Si02
#       6
#    16  16   8  16  16  16
#     4   9  17  32  51  67  89 123 162 207 253 292
#     4  10  18  29  45  69  98 127 156 188 233 292
#     4   9  16  26  40  59  92 134 160 179 218 273
#     4   8  14  26  46  73 104 133 156 183 226 282
#     4   9  19  35  51  66  86 118 164 215 258 286
#     4  10  19  30  46  71  99 128 162 197 234 280
#
# _framework density 16.988876000000001
#
# number of rings (size 3 to 8) (size 9 to 14) (size 15 to 20)
#    0.000    2.818    0.909    1.636    0.000    2.909 
#    1.636    2.727    0.000    0.545    0.000    6.364 
#    0.000    4.364    0.000    0.182    0.000    0.000 
#
# Total GULP energy -245324.003699 kJ/mol
# GULP energy per Si atom -5575.545539 kJ/mol
# Density = 1.695021 g / cm^3
# Si number density = 16.988876 Si / 1000 Ang^3
#
#
#
# Elastic Constant Matrix: (Units=GPa)
#
#
# Indices 1 2 3 4 5 6 
#
# 1 79.8287 41.8572 60.5822 0.0000 0.0000 0.0000
# 2 41.8572 75.1708 59.0247 0.0000 0.0000 0.0000
# 3 60.5822 59.0247 151.3175 0.0000 0.0000 0.0000
# 4 0.0000 0.0000 0.0000 21.8177 0.0000 0.0000
# 5 0.0000 0.0000 0.0000 0.0000 9.3099 0.0000
# 6 0.0000 0.0000 0.0000 0.0000 0.0000 8.8529
#
#
#
# Elastic Compliance Matrix: (Units=1/GPa)
#
#
# Indices 1 2 3 4 5 6 
#
# 1 0.020324 -0.007103 -0.005366 0.000000 0.000000 0.000000
# 2 -0.007103 0.021659 -0.005605 0.000000 0.000000 0.000000
# 3 -0.005366 -0.005605 0.010943 0.000000 0.000000 0.000000
# 4 0.000000 0.000000 0.000000 0.045834 0.000000 0.000000
# 5 0.000000 0.000000 0.000000 0.000000 0.107413 0.000000
# 6 0.000000 0.000000 0.000000 0.000000 0.000000 0.112958
#
#
# Mechanical properties :
#
#
# Convention : Reuss Voigt Hill
#
# Bulk Modulus (GPa) = 59.60216 69.91614 64.75915
# Shear Modulus (GPa) = 13.85532 17.65296 15.75414
#
# Velocity S-wave (km/s) = 2.85889 3.22699 3.04850
# Velocity P-wave (km/s) = 6.78652 7.42482 7.11284
#
# Compressibility (1/GPa) = 0.01677791
#
# Stress axis : x y z
#
# Youngs Moduli (GPa) = 49.20367 46.16969 91.38042
#
# Poissons Ratio (x) = 0.32796 0.49036
# Poissons Ratio (y) = 0.34951 0.51216
# Poissons Ratio (z) = 0.26403 0.25877
#
# Static dielectric constant tensor:
#      x y z
#    x 1.579010 0.000000 0.000000 
#    y 0.000000 1.623870 0.000000 
#    z 0.000000 0.000000 1.543510 
# 
# From -- ./inp_files/40220.got.cif
#   From: 2010.05.17/outbox.cif.g08.bks.cpg/sg65_21_cif.got.tgz:40220.got - 2010.06.03 17:01:31.
