data_PCOD9483397
_publ_section_title
;
Structure prediction by ZEFSAII (Michael W. Deem and Ramdas Pophale) SiO2 
 PCOD9483397
Probable space group: C M M M
;
_chemical_formula_sum "Si O2"
_cell_formula_units_Z 88
_cell_length_a 14.042592
_cell_length_b 16.545380
_cell_length_c 21.743398
_cell_angle_alpha 90.000000
_cell_angle_beta 90.000000
_cell_angle_gamma 90.000000
_cell_volume 5051.861544
_symmetry_space_group_name_H-M "C M M M"
_symmetry_group_IT_number 65
_symmetry_cell_setting 'orthorhombic'
loop_
_space_group_symop_operation_xyz
x,y,z
-x,-y,z
x,-y,-z
-x,y,-z
-x,-y,-z
x,y,-z
-x,y,z
x,-y,z
1/2+x,1/2+y,z
1/2-x,1/2-y,z
1/2+x,1/2-y,-z
1/2-x,1/2+y,-z
1/2-x,1/2-y,-z
1/2+x,1/2+y,-z
1/2-x,1/2+y,z
1/2+x,1/2-y,z
loop_
_atom_site_type_symbol
_atom_site_label
_atom_site_fract_x
_atom_site_fract_y
_atom_site_fract_z
Si Si1 0.390796 0.656929 0.696768
Si Si2 0.220642 0.405440 0.621954
Si Si3 0.608699 0.843850 0.263373
Si Si4 0.609818 0.598400 0.069202
Si Si5 0.610290 0.098723 0.500000
Si Si6 0.223101 0.095520 0.812056
O O1 0.500000 0.635650 0.682964
O O2 0.316984 0.639667 0.641934
O O3 0.386246 0.750903 0.715324
O O4 0.351250 0.609053 0.756168
O O5 0.243070 0.500000 0.614320
O O6 0.148842 0.394954 0.679284
O O7 0.167305 0.375813 0.560905
O O8 0.500000 0.864393 0.249085
O O9 0.681141 0.859256 0.207916
O O10 0.500000 0.622980 0.079863
O O11 0.610425 0.500000 0.070249
O O12 0.676861 0.625290 0.124573
O O13 0.637602 0.623179 0.000000
O O14 0.500000 0.125607 0.500000
O O15 0.608126 0.000000 0.500000
O O16 0.242794 0.000000 0.816692
#
# Coordination Sequence:
#
# PCOD9483397 Si02
#       6
#    16  16  16  16   8  16
#     4  10  20  33  48  68  98 129 155 189 236 288
#     4  10  19  32  52  74  94 119 156 199 237 277
#     4  10  20  33  48  67  95 129 159 191 234 280
#     4   8  14  25  42  67  98 126 153 191 239 286
#     4   9  18  32  50  73  99 125 155 194 238 280
#     4  10  18  28  48  74  95 119 156 200 239 278
#
# _framework density 17.419322000000001
#
# number of rings (size 3 to 8) (size 9 to 14) (size 15 to 20)
#    0.000    2.455    0.000    6.000    0.000    4.364 
#    0.000    2.273    0.000    6.545    0.000    5.091 
#    0.000    0.000    0.000    0.000    0.000    0.000 
#
# Total GULP energy -245372.598263 kJ/mol
# GULP energy per Si atom -5576.649961 kJ/mol
# Density = 1.737967 g / cm^3
# Si number density = 17.419322 Si / 1000 Ang^3
#
#
#
# Elastic Constant Matrix: (Units=GPa)
#
#
# Indices 1 2 3 4 5 6 
#
# 1 181.6910 25.1950 94.6428 0.0000 0.0000 0.0000
# 2 25.1950 26.9922 6.2228 0.0000 0.0000 0.0000
# 3 94.6428 6.2228 135.7120 0.0000 0.0000 0.0000
# 4 0.0000 0.0000 0.0000 0.4785 0.0000 0.0000
# 5 0.0000 0.0000 0.0000 0.0000 25.8350 0.0000
# 6 0.0000 0.0000 0.0000 0.0000 0.0000 30.4175
#
#
#
# Elastic Compliance Matrix: (Units=1/GPa)
#
#
# Indices 1 2 3 4 5 6 
#
# 1 0.010060 -0.007856 -0.006655 0.000000 0.000000 0.000000
# 2 -0.007856 0.043578 0.003480 0.000000 0.000000 0.000000
# 3 -0.006655 0.003480 0.011850 0.000000 0.000000 0.000000
# 4 0.000000 0.000000 0.000000 2.089831 0.000000 0.000000
# 5 0.000000 0.000000 0.000000 0.000000 0.038707 0.000000
# 6 0.000000 0.000000 0.000000 0.000000 0.000000 0.032876
#
#
# Mechanical properties :
#
#
# Convention : Reuss Voigt Hill
#
# Bulk Modulus (GPa) = 23.02735 66.27960 44.65348
# Shear Modulus (GPa) = 2.20903 25.90185 14.05544
#
# Velocity S-wave (km/s) = 1.12734 3.86030 2.84366
# Velocity P-wave (km/s) = 3.86557 7.61586 6.03920
#
# Compressibility (1/GPa) = 0.04342663
#
# Stress axis : x y z
#
# Youngs Moduli (GPa) = 99.40301 22.94725 84.38565
#
# Poissons Ratio (x) = 0.18027 0.56163
# Poissons Ratio (y) = 0.78090 -0.29369
# Poissons Ratio (z) = 0.66157 -0.07986
#
# Static dielectric constant tensor:
#      x y z
#    x 1.588990 0.000000 0.000000 
#    y 0.000000 1.608530 0.000000 
#    z 0.000000 0.000000 1.590940 
# 
# From -- ./inp_files/62489.got.cif
#   From: 2010.05.17/outbox.cif.g08.bks.cpg/sg65_32_cif.got.tgz:62489.got - 2010.06.03 17:01:31.
