data_PCOD9483608
_publ_section_title
;
Structure prediction by ZEFSAII (Michael W. Deem and Ramdas Pophale) SiO2 
 PCOD9483608
Probable space group: C M M M
;
_chemical_formula_sum "Si O2"
_cell_formula_units_Z 72
_cell_length_a 8.536628
_cell_length_b 18.419833
_cell_length_c 24.308222
_cell_angle_alpha 90.000000
_cell_angle_beta 90.000000
_cell_angle_gamma 90.000000
_cell_volume 3822.304124
_symmetry_space_group_name_H-M "C M M M"
_symmetry_group_IT_number 65
_symmetry_cell_setting 'orthorhombic'
loop_
_space_group_symop_operation_xyz
x,y,z
-x,-y,z
x,-y,-z
-x,y,-z
-x,-y,-z
x,y,-z
-x,y,z
x,-y,z
1/2+x,1/2+y,z
1/2-x,1/2-y,z
1/2+x,1/2-y,-z
1/2-x,1/2+y,-z
1/2-x,1/2-y,-z
1/2+x,1/2+y,-z
1/2-x,1/2+y,z
1/2+x,1/2-y,z
loop_
_atom_site_type_symbol
_atom_site_label
_atom_site_fract_x
_atom_site_fract_y
_atom_site_fract_z
Si Si1 0.311759 0.168179 0.106643
Si Si2 0.811999 0.084377 0.000000
Si Si3 0.812260 0.667587 0.325454
Si Si4 0.191056 0.416676 0.216252
Si Si5 0.687770 0.667046 0.559820
O O1 0.500000 0.169098 0.105680
O O2 0.250000 0.250000 0.105064
O O3 0.251467 0.124215 0.054051
O O4 0.259321 0.128579 0.162802
O O5 0.000000 0.087984 0.000000
O O6 0.763871 0.000000 0.000000
O O7 0.750000 0.750000 0.320540
O O8 0.759132 0.621633 0.272790
O O9 0.754943 0.635371 0.383753
O O10 0.000000 0.670256 0.326190
O O11 0.243208 0.500000 0.213066
O O12 0.000000 0.416906 0.216360
O O13 0.731805 0.634769 0.500000
O O14 0.500000 0.668459 0.563263
O O15 0.750000 0.750000 0.559110
#
# Coordination Sequence:
#
# PCOD9483608 Si02
#       5
#    16   8  16  16  16
#     4  11  22  38  61  85 112 145 182 222 265 316
#     4  11  24  41  60  85 117 147 180 223 266 311
#     4  10  18  29  49  74 101 131 165 210 258 307
#     4   9  19  35  54  77 104 136 175 217 261 311
#     4   9  16  26  42  66  97 130 165 207 253 303
#
# _framework density 18.836805999999999
#
# number of rings (size 3 to 8) (size 9 to 14) (size 15 to 20)
#    0.000    2.111    0.000    5.333    0.000    3.111 
#    0.000    3.333    0.000    8.667    0.000    4.667 
#    0.000    0.000    0.000    0.000    0.000    0.000 
#
# Total GULP energy -200916.363187 kJ/mol
# GULP energy per Si atom -5581.010089 kJ/mol
# Density = 1.879393 g / cm^3
# Si number density = 18.836806 Si / 1000 Ang^3
#
#
#
# Elastic Constant Matrix: (Units=GPa)
#
#
# Indices 1 2 3 4 5 6 
#
# 1 50.4388 30.0583 45.7938 0.0000 0.0000 0.0000
# 2 30.0583 129.3615 102.9122 0.0000 0.0000 0.0000
# 3 45.7938 102.9122 238.9674 0.0000 0.0000 0.0000
# 4 0.0000 0.0000 0.0000 -2.6212 0.0000 0.0000
# 5 0.0000 0.0000 0.0000 0.0000 -129.8959 0.0000
# 6 0.0000 0.0000 0.0000 0.0000 0.0000 8.8649
#
#
#
# Elastic Compliance Matrix: (Units=1/GPa)
#
#
# Indices 1 2 3 4 5 6 
#
# 1 0.024748 -0.003008 -0.003447 0.000000 0.000000 0.000000
# 2 -0.003008 0.012125 -0.004645 0.000000 0.000000 0.000000
# 3 -0.003447 -0.004645 0.006846 0.000000 0.000000 0.000000
# 4 0.000000 0.000000 0.000000 -0.381506 0.000000 0.000000
# 5 0.000000 0.000000 0.000000 0.000000 -0.007698 0.000000
# 6 0.000000 0.000000 0.000000 0.000000 0.000000 0.112804
#
#
# Mechanical properties :
#
#
# Convention : Reuss Voigt Hill
#
# Bulk Modulus (GPa) = 46.47286 86.25514 66.36400
# Shear Modulus (GPa) = -24.59321 -8.73021 -16.66171
#
# Velocity S-wave (km/s) = -3.61722 -2.15516 -2.97733
# Velocity P-wave (km/s) = 2.69799 6.30057 4.84646
#
# Compressibility (1/GPa) = 0.02151793
#
# Stress axis : x y z
#
# Youngs Moduli (GPa) = 40.40672 82.47721 146.07850
#
# Poissons Ratio (x) = 0.24811 0.50354
# Poissons Ratio (y) = 0.12155 0.67854
# Poissons Ratio (z) = 0.13928 0.38311
#
# Static dielectric constant tensor:
#      x y z
#    x 1.615140 0.000000 0.000000 
#    y 0.000000 1.618740 0.000000 
#    z 0.000000 0.000000 1.677140 
# 
# From -- ./inp_files/67067.got.cif
#   From: 2010.05.17/outbox.cif.g08.bks.cpg/sg65_34_cif.got.tgz:67067.got - 2010.06.03 17:01:31.
