data_PCOD9483924
_publ_section_title
;
Structure prediction by ZEFSAII (Michael W. Deem and Ramdas Pophale) SiO2 
 PCOD9483924
Probable space group: C M M M
;
_chemical_formula_sum "Si O2"
_cell_formula_units_Z 104
_cell_length_a 25.982607
_cell_length_b 8.199080
_cell_length_c 25.242241
_cell_angle_alpha 90.000000
_cell_angle_beta 90.000000
_cell_angle_gamma 90.000000
_cell_volume 5377.442277
_symmetry_space_group_name_H-M "C M M M"
_symmetry_group_IT_number 65
_symmetry_cell_setting 'orthorhombic'
loop_
_space_group_symop_operation_xyz
x,y,z
-x,-y,z
x,-y,-z
-x,y,-z
-x,-y,-z
x,y,-z
-x,y,z
x,-y,z
1/2+x,1/2+y,z
1/2-x,1/2-y,z
1/2+x,1/2-y,-z
1/2-x,1/2+y,-z
1/2-x,1/2-y,-z
1/2+x,1/2+y,-z
1/2-x,1/2+y,z
1/2+x,1/2-y,z
loop_
_atom_site_type_symbol
_atom_site_label
_atom_site_fract_x
_atom_site_fract_y
_atom_site_fract_z
Si Si1 0.112077 0.699610 0.764157
Si Si2 0.807848 0.804771 0.439636
Si Si3 0.606596 0.806095 0.642001
Si Si4 0.808925 0.696943 0.852606
Si Si5 0.500000 0.694350 0.062069
Si Si6 0.500000 0.687121 0.656028
Si Si7 0.500000 0.811997 0.227466
Si Si8 0.389579 0.803787 0.060622
O O1 0.110124 0.500000 0.765356
O O2 0.117819 0.748035 0.702734
O O3 0.159211 0.751746 0.800805
O O4 0.056216 0.758778 0.785663
O O5 0.818818 0.748599 0.500000
O O6 0.750000 0.750000 0.426580
O O7 0.848181 0.737829 0.397682
O O8 0.809911 0.000000 0.438939
O O9 0.552621 0.724404 0.625984
O O10 0.599618 0.000000 0.642935
O O11 0.809651 0.500000 0.852927
O O12 0.750000 0.750000 0.853575
O O13 0.842830 0.753876 0.902812
O O14 0.500000 0.500000 0.064482
O O15 0.445748 0.758268 0.083473
O O16 0.500000 0.747037 0.000000
O O17 0.500000 0.500000 0.674127
O O18 0.500000 0.801863 0.708140
O O19 0.500000 0.000000 0.209650
O O20 0.387566 0.000000 0.058913
O O21 0.385808 0.741915 0.000000
#
# Coordination Sequence:
#
# PCOD9483924 Si02
#       8
#    16  16  16  16   8   8   8  16
#     4   8  16  31  52  76  99 128 166 209 257 307
#     4  10  21  37  56  79 107 138 174 216 259 303
#     4  10  19  34  56  79 105 138 175 212 256 309
#     4  10  21  36  51  70 100 136 174 215 257 300
#     4   9  17  30  51  79 106 128 155 200 256 307
#     4  10  18  30  50  78 110 139 171 211 256 307
#     4   8  14  29  51  72  95 125 166 210 254 308
#     4   9  18  33  53  75  99 131 170 209 252 305
#
# _framework density 19.340050000000002
#
# number of rings (size 3 to 8) (size 9 to 14) (size 15 to 20)
#    0.000    2.692    0.000    2.769    0.000    4.000 
#    0.000    8.077    0.000    6.000    0.000    0.000 
#    0.000    0.000    0.000    0.000    0.000    0.000 
#
# Total GULP energy -289981.487325 kJ/mol
# GULP energy per Si atom -5576.567064 kJ/mol
# Density = 1.929603 g / cm^3
# Si number density = 19.340050 Si / 1000 Ang^3
#
#
#
# Elastic Constant Matrix: (Units=GPa)
#
#
# Indices 1 2 3 4 5 6 
#
# 1 207.6889 17.0475 97.2148 0.0000 0.0000 0.0000
# 2 17.0475 24.8562 15.2342 0.0000 0.0000 0.0000
# 3 97.2148 15.2342 99.3540 0.0000 0.0000 0.0000
# 4 0.0000 0.0000 0.0000 10.8641 0.0000 0.0000
# 5 0.0000 0.0000 0.0000 0.0000 45.1578 0.0000
# 6 0.0000 0.0000 0.0000 0.0000 0.0000 32.9775
#
#
#
# Elastic Compliance Matrix: (Units=1/GPa)
#
#
# Indices 1 2 3 4 5 6 
#
# 1 0.008900 -0.000846 -0.008578 0.000000 0.000000 0.000000
# 2 -0.000846 0.044485 -0.005993 0.000000 0.000000 0.000000
# 3 -0.008578 -0.005993 0.019378 0.000000 0.000000 0.000000
# 4 0.000000 0.000000 0.000000 0.092046 0.000000 0.000000
# 5 0.000000 0.000000 0.000000 0.000000 0.022145 0.000000
# 6 0.000000 0.000000 0.000000 0.000000 0.000000 0.030324
#
#
# Mechanical properties :
#
#
# Convention : Reuss Voigt Hill
#
# Bulk Modulus (GPa) = 23.85093 65.65466 44.75280
# Shear Modulus (GPa) = 19.07763 31.29340 25.18552
#
# Velocity S-wave (km/s) = 3.14416 4.02688 3.61258
# Velocity P-wave (km/s) = 5.05373 7.45937 6.37112
#
# Compressibility (1/GPa) = 0.04192709
#
# Stress axis : x y z
#
# Youngs Moduli (GPa) = 112.36366 22.47955 51.60611
#
# Poissons Ratio (x) = 0.01902 0.44269
# Poissons Ratio (y) = 0.09508 0.30927
# Poissons Ratio (z) = 0.96389 0.13472
#
# Static dielectric constant tensor:
#      x y z
#    x 1.673550 0.000000 0.000000 
#    y 0.000000 1.685700 0.000000 
#    z 0.000000 0.000000 1.688780 
# 
# From -- ./inp_files/65955.got.cif
#   From: 2010.05.17/outbox.cif.g08.bks.cpg/sg65_33_cif.got.tgz:65955.got - 2010.06.03 17:01:31.
