data_PCOD9483054
_publ_section_title
;
Structure prediction by ZEFSAII (Michael W. Deem and Ramdas Pophale) SiO2 
 PCOD9483054
Probable space group: C M M M
;
_chemical_formula_sum "Si O2"
_cell_formula_units_Z 80
_cell_length_a 14.559773
_cell_length_b 23.848742
_cell_length_c 13.059083
_cell_angle_alpha 90.000000
_cell_angle_beta 90.000000
_cell_angle_gamma 90.000000
_cell_volume 4534.535032
_symmetry_space_group_name_H-M "C M M M"
_symmetry_group_IT_number 65
_symmetry_cell_setting 'orthorhombic'
loop_
_space_group_symop_operation_xyz
x,y,z
-x,-y,z
x,-y,-z
-x,y,-z
-x,-y,-z
x,y,-z
-x,y,z
x,-y,z
1/2+x,1/2+y,z
1/2-x,1/2-y,z
1/2+x,1/2-y,-z
1/2-x,1/2+y,-z
1/2-x,1/2-y,-z
1/2+x,1/2+y,-z
1/2-x,1/2+y,z
1/2+x,1/2-y,z
loop_
_atom_site_type_symbol
_atom_site_label
_atom_site_fract_x
_atom_site_fract_y
_atom_site_fract_z
Si Si1 0.108822 0.725364 0.224996
Si Si2 0.112353 0.854223 0.223593
Si Si3 0.397479 0.362609 0.000000
Si Si4 0.287591 0.435373 0.379228
Si Si5 0.855580 0.265880 0.000000
Si Si6 0.607164 0.870330 0.619905
O O1 0.144185 0.789257 0.234486
O O2 0.140006 0.680750 0.308476
O O3 0.000000 0.730006 0.240739
O O4 0.123538 0.705534 0.107963
O O5 0.144608 0.875083 0.110685
O O6 0.152776 0.893386 0.310895
O O7 0.000000 0.854969 0.223827
O O8 0.500000 0.386977 0.000000
O O9 0.405202 0.294582 0.000000
O O10 0.308107 0.427658 0.500000
O O11 0.304943 0.500000 0.352508
O O12 0.180008 0.419983 0.365348
O O13 0.750000 0.250000 0.000000
O O14 0.610777 0.854034 0.500000
O O15 0.500000 0.883835 0.643031
#
# Coordination Sequence:
#
# PCOD9483054 Si02
#       6
#    16  16   8  16   8  16
#     4   9  18  32  50  75 106 134 163 201 248 300
#     4   9  18  33  54  76 104 136 164 201 248 298
#     4   8  16  32  49  69  99 135 169 200 237 289
#     4  10  22  37  52  72  98 131 173 214 252 298
#     4  10  18  24  44  76 105 136 164 191 236 298
#     4   9  19  35  54  75 100 131 168 211 255 299
#
# _framework density 17.642382000000001
#
# number of rings (size 3 to 8) (size 9 to 14) (size 15 to 20)
#    0.000    2.800    0.000    2.100    5.600    2.000 
#    0.000    7.500    0.000    1.800    0.000    0.000 
#    0.000    4.800    0.000    0.000    0.000    0.000 
#
# Total GULP energy -222734.460234 kJ/mol
# GULP energy per Si atom -5568.361506 kJ/mol
# Density = 1.760223 g / cm^3
# Si number density = 17.642382 Si / 1000 Ang^3
#
#
#
# Elastic Constant Matrix: (Units=GPa)
#
#
# Indices 1 2 3 4 5 6 
#
# 1 34.1064 7.2176 7.7230 0.0000 0.0000 0.0000
# 2 7.2176 51.0123 34.3676 0.0000 0.0000 0.0000
# 3 7.7230 34.3676 65.2100 0.0000 0.0000 0.0000
# 4 0.0000 0.0000 0.0000 -5.2513 0.0000 0.0000
# 5 0.0000 0.0000 0.0000 0.0000 23.5836 0.0000
# 6 0.0000 0.0000 0.0000 0.0000 0.0000 18.5371
#
#
#
# Elastic Compliance Matrix: (Units=1/GPa)
#
#
# Indices 1 2 3 4 5 6 
#
# 1 0.030404 -0.002909 -0.002068 0.000000 0.000000 0.000000
# 2 -0.002909 0.030674 -0.015821 0.000000 0.000000 0.000000
# 3 -0.002068 -0.015821 0.023918 0.000000 0.000000 0.000000
# 4 0.000000 0.000000 0.000000 -0.190428 0.000000 0.000000
# 5 0.000000 0.000000 0.000000 0.000000 0.042402 0.000000
# 6 0.000000 0.000000 0.000000 0.000000 0.000000 0.053946
#
#
# Mechanical properties :
#
#
# Convention : Reuss Voigt Hill
#
# Bulk Modulus (GPa) = 23.04152 27.66056 25.35104
# Shear Modulus (GPa) = 106.43175 14.10858 60.27017
#
# Velocity S-wave (km/s) = 7.77549 2.83096 5.85118
# Velocity P-wave (km/s) = 9.67986 5.13793 7.74913
#
# Compressibility (1/GPa) = 0.04339992
#
# Stress axis : x y z
#
# Youngs Moduli (GPa) = 32.89069 32.60111 41.80892
#
# Poissons Ratio (x) = 0.09483 0.08645
# Poissons Ratio (y) = 0.09567 0.66148
# Poissons Ratio (z) = 0.06801 0.51580
#
# Static dielectric constant tensor:
#      x y z
#    x 1.743050 0.000000 0.000000 
#    y 0.000000 1.609730 0.000000 
#    z 0.000000 0.000000 1.626190 
# 
# From -- ./inp_files/24672.got.cif
#   From: 2010.05.17/outbox.cif.g08.bks.cpg/sg65_13_cif.got.tgz:24672.got - 2010.06.03 17:01:31.
