data_PCOD9483500
_publ_section_title
;
Structure prediction by ZEFSAII (Michael W. Deem and Ramdas Pophale) SiO2 
 PCOD9483500
Probable space group: C M M M
;
_chemical_formula_sum "Si O2"
_cell_formula_units_Z 88
_cell_length_a 18.359640
_cell_length_b 30.146588
_cell_length_c 7.683393
_cell_angle_alpha 90.000000
_cell_angle_beta 90.000000
_cell_angle_gamma 90.000000
_cell_volume 4252.608222
_symmetry_space_group_name_H-M "C M M M"
_symmetry_group_IT_number 65
_symmetry_cell_setting 'orthorhombic'
loop_
_space_group_symop_operation_xyz
x,y,z
-x,-y,z
x,-y,-z
-x,y,-z
-x,-y,-z
x,y,-z
-x,y,z
x,-y,z
1/2+x,1/2+y,z
1/2-x,1/2-y,z
1/2+x,1/2-y,-z
1/2-x,1/2+y,-z
1/2-x,1/2-y,-z
1/2+x,1/2+y,-z
1/2-x,1/2+y,z
1/2+x,1/2-y,z
loop_
_atom_site_type_symbol
_atom_site_label
_atom_site_fract_x
_atom_site_fract_y
_atom_site_fract_z
Si Si1 0.146514 0.402715 0.703829
Si Si2 0.411713 0.284428 0.702247
Si Si3 0.500000 0.948522 0.713118
Si Si4 0.206669 0.948803 0.713371
Si Si5 0.416666 0.186593 0.202372
Si Si6 0.916086 0.881138 0.286654
O O1 0.147436 0.414249 0.500000
O O2 0.220548 0.423526 0.774799
O O3 0.135964 0.350009 0.717475
O O4 0.072918 0.424526 0.777016
O O5 0.391287 0.282180 0.500000
O O6 0.500000 0.286088 0.713336
O O7 0.390690 0.237335 0.781486
O O8 0.388282 0.332429 0.772349
O O9 0.500000 0.945795 0.500000
O O10 0.500000 0.000000 0.759506
O O11 0.206150 0.948668 0.500000
O O12 0.136628 0.920480 0.768352
O O13 0.205864 0.000000 0.768071
O O14 0.500000 0.183555 0.276222
O O15 0.421376 0.175968 0.000000
O O16 0.916357 0.879544 0.500000
O O17 0.000000 0.887328 0.232773
#
# Coordination Sequence:
#
# PCOD9483500 Si02
#       6
#    16  16   8  16  16  16
#     4  10  18  29  46  68  95 128 163 197 234 277
#     4   8  14  26  46  69  93 123 158 191 229 282
#     4   9  16  26  43  65  87 117 161 203 232 265
#     4   9  17  28  44  69  98 125 157 198 239 278
#     4  10  19  30  46  69  96 124 158 200 242 282
#     4   8  14  26  45  70  98 126 155 190 235 287
#
# _framework density 20.693183999999999
#
# number of rings (size 3 to 8) (size 9 to 14) (size 15 to 20)
#    0.000    3.000    0.909    2.182    0.000    3.273 
#    0.000    2.727    0.000    9.273    0.000    0.000 
#    0.000    0.000    0.000    8.727    0.000    9.091 
#
# Total GULP energy -245295.303701 kJ/mol
# GULP energy per Si atom -5574.893266 kJ/mol
# Density = 2.064609 g / cm^3
# Si number density = 20.693184 Si / 1000 Ang^3
#
#
#
# Elastic Constant Matrix: (Units=GPa)
#
#
# Indices 1 2 3 4 5 6 
#
# 1 110.2978 96.4429 3.5878 0.0000 0.0000 0.0000
# 2 96.4429 182.3889 1.1769 0.0000 0.0000 0.0000
# 3 3.5878 1.1769 27.6191 0.0000 0.0000 0.0000
# 4 0.0000 0.0000 0.0000 -28.0186 0.0000 0.0000
# 5 0.0000 0.0000 0.0000 0.0000 -2.7660 0.0000
# 6 0.0000 0.0000 0.0000 0.0000 0.0000 12.9327
#
#
#
# Elastic Compliance Matrix: (Units=1/GPa)
#
#
# Indices 1 2 3 4 5 6 
#
# 1 0.016954 -0.008953 -0.001821 0.000000 0.000000 0.000000
# 2 -0.008953 0.010212 0.000728 0.000000 0.000000 0.000000
# 3 -0.001821 0.000728 0.036412 0.000000 0.000000 0.000000
# 4 0.000000 0.000000 0.000000 -0.035691 0.000000 0.000000
# 5 0.000000 0.000000 0.000000 0.000000 -0.361538 0.000000
# 6 0.000000 0.000000 0.000000 0.000000 0.000000 0.077323
#
#
# Mechanical properties :
#
#
# Convention : Reuss Voigt Hill
#
# Bulk Modulus (GPa) = 22.99571 58.08013 40.53792
# Shear Modulus (GPa) = -22.54909 11.03618 -5.75646
#
# Velocity S-wave (km/s) = -3.30462 2.31189 -1.66969
# Velocity P-wave (km/s) = 1.85037 5.93756 3.98941
#
# Compressibility (1/GPa) = 0.04348637
#
# Stress axis : x y z
#
# Youngs Moduli (GPa) = 58.98255 97.92071 27.46325
#
# Poissons Ratio (x) = 0.87671 0.05001
# Poissons Ratio (y) = 0.52808 -0.01999
# Poissons Ratio (z) = 0.10740 -0.07127
#
# Static dielectric constant tensor:
#      x y z
#    x 1.728430 0.000000 0.000000 
#    y 0.000000 1.741800 0.000000 
#    z 0.000000 0.000000 1.756230 
# 
# From -- ./inp_files/10070.got.cif
#   From: 2010.05.17/outbox.cif.g08.bks.cpg/sg65_6_cif.got.tgz:10070.got - 2010.06.03 17:01:31.
