data_PCOD9483192
_publ_section_title
;
Structure prediction by ZEFSAII (Michael W. Deem and Ramdas Pophale) SiO2 
 PCOD9483192
Probable space group: C M M M
;
_chemical_formula_sum "Si O2"
_cell_formula_units_Z 112
_cell_length_a 19.255410
_cell_length_b 29.415655
_cell_length_c 13.988470
_cell_angle_alpha 90.000000
_cell_angle_beta 90.000000
_cell_angle_gamma 90.000000
_cell_volume 7923.216251
_symmetry_space_group_name_H-M "C M M M"
_symmetry_group_IT_number 65
_symmetry_cell_setting 'orthorhombic'
loop_
_space_group_symop_operation_xyz
x,y,z
-x,-y,z
x,-y,-z
-x,y,-z
-x,-y,-z
x,y,-z
-x,y,z
x,-y,z
1/2+x,1/2+y,z
1/2-x,1/2-y,z
1/2+x,1/2-y,-z
1/2-x,1/2+y,-z
1/2-x,1/2-y,-z
1/2+x,1/2+y,-z
1/2-x,1/2+y,z
1/2+x,1/2-y,z
loop_
_atom_site_type_symbol
_atom_site_label
_atom_site_fract_x
_atom_site_fract_y
_atom_site_fract_z
Si Si1 0.416312 0.051403 0.220711
Si Si2 0.916821 0.307671 0.703354
Si Si3 0.079604 0.948122 0.383689
Si Si4 0.349687 0.104741 0.612450
Si Si5 0.327587 0.729897 0.613453
Si Si6 0.809305 0.126102 0.616034
Si Si7 0.084212 0.359435 0.892893
O O1 0.500000 0.053640 0.230019
O O2 0.382916 0.066287 0.321031
O O3 0.395843 0.090369 0.144952
O O4 0.397519 0.000000 0.194001
O O5 0.890577 0.348593 0.635280
O O6 0.880112 0.261752 0.670484
O O7 0.896043 0.323807 0.810311
O O8 0.000000 0.304418 0.698494
O O9 0.080790 0.947574 0.500000
O O10 0.134949 0.910998 0.350304
O O11 0.000000 0.938023 0.355382
O O12 0.096387 0.000000 0.354848
O O13 0.353212 0.094482 0.500000
O O14 0.269453 0.112916 0.640834
O O15 0.344692 0.731624 0.500000
O O16 0.250000 0.750000 0.623468
O O17 0.326785 0.677498 0.645659
O O18 0.811147 0.126560 0.500000
O O19 0.000000 0.358891 0.895636
O O20 0.109697 0.350482 0.000000
#
# Coordination Sequence:
#
# PCOD9483192 Si02
#       7
#    16  16  16  16  16  16  16
#     4   9  18  29  40  60  86 110 143 182 216 251
#     4  10  19  29  44  65  84 108 144 181 217 257
#     4   8  14  25  39  54  74  99 131 178 225 253
#     4  10  18  28  40  56  82 118 150 175 206 249
#     4  10  18  29  42  59  86 119 148 175 211 249
#     4   9  17  27  41  58  77 109 149 178 207 250
#     4   8  15  29  47  64  82 105 136 177 222 266
#
# _framework density 14.135674
#
# number of rings (size 3 to 8) (size 9 to 14) (size 15 to 20)
#    0.000    2.857    1.429    2.143    0.000    3.714 
#    0.000    5.000    0.000    0.429    0.000    0.000 
#    0.000    0.000    0.000    0.000    0.000    2.286 
#
# Total GULP energy -311749.413825 kJ/mol
# GULP energy per Si atom -5566.953818 kJ/mol
# Density = 1.410350 g / cm^3
# Si number density = 14.135674 Si / 1000 Ang^3
#
#
#
# Elastic Constant Matrix: (Units=GPa)
#
#
# Indices 1 2 3 4 5 6 
#
# 1 62.1895 46.2076 22.4298 0.0000 0.0000 0.0000
# 2 46.2076 86.9126 20.8270 0.0000 0.0000 0.0000
# 3 22.4298 20.8270 50.8487 0.0000 0.0000 0.0000
# 4 0.0000 0.0000 0.0000 7.1227 0.0000 0.0000
# 5 0.0000 0.0000 0.0000 0.0000 4.4618 0.0000
# 6 0.0000 0.0000 0.0000 0.0000 0.0000 25.8731
#
#
#
# Elastic Compliance Matrix: (Units=1/GPa)
#
#
# Indices 1 2 3 4 5 6 
#
# 1 0.028727 -0.013568 -0.007114 0.000000 0.000000 0.000000
# 2 -0.013568 0.019166 -0.001865 0.000000 0.000000 0.000000
# 3 -0.007114 -0.001865 0.023568 0.000000 0.000000 0.000000
# 4 0.000000 0.000000 0.000000 0.140397 0.000000 0.000000
# 5 0.000000 0.000000 0.000000 0.000000 0.224122 0.000000
# 6 0.000000 0.000000 0.000000 0.000000 0.000000 0.038650
#
#
# Mechanical properties :
#
#
# Convention : Reuss Voigt Hill
#
# Bulk Modulus (GPa) = 37.92733 42.09773 40.01253
# Shear Modulus (GPa) = 9.46046 14.85730 12.15888
#
# Velocity S-wave (km/s) = 2.58982 3.24551 2.93602
# Velocity P-wave (km/s) = 5.98599 6.62497 6.31357
#
# Compressibility (1/GPa) = 0.02636621
#
# Stress axis : x y z
#
# Youngs Moduli (GPa) = 34.81036 52.17487 42.42966
#
# Poissons Ratio (x) = 0.70791 0.30186
# Poissons Ratio (y) = 0.47231 0.07914
# Poissons Ratio (z) = 0.24766 0.09732
#
# Static dielectric constant tensor:
#      x y z
#    x 1.460300 0.000000 0.000000 
#    y 0.000000 1.473370 0.000000 
#    z 0.000000 0.000000 1.451880 
# 
# From -- ./inp_files/41405.got.cif
#   From: 2010.05.17/outbox.cif.g08.bks.cpg/sg65_21_cif.got.tgz:41405.got - 2010.06.03 17:01:31.
