data_PCOD9483135
_publ_section_title
;
Structure prediction by ZEFSAII (Michael W. Deem and Ramdas Pophale) SiO2 
 PCOD9483135
Probable space group: C M M M
;
_chemical_formula_sum "Si O2"
_cell_formula_units_Z 104
_cell_length_a 29.633561
_cell_length_b 19.536935
_cell_length_c 12.678388
_cell_angle_alpha 90.000000
_cell_angle_beta 90.000000
_cell_angle_gamma 90.000000
_cell_volume 7340.139485
_symmetry_space_group_name_H-M "C M M M"
_symmetry_group_IT_number 65
_symmetry_cell_setting 'orthorhombic'
loop_
_space_group_symop_operation_xyz
x,y,z
-x,-y,z
x,-y,-z
-x,y,-z
-x,-y,-z
x,y,-z
-x,y,z
x,-y,z
1/2+x,1/2+y,z
1/2-x,1/2-y,z
1/2+x,1/2-y,-z
1/2-x,1/2+y,-z
1/2-x,1/2-y,-z
1/2+x,1/2+y,-z
1/2-x,1/2+y,z
1/2+x,1/2-y,z
loop_
_atom_site_type_symbol
_atom_site_label
_atom_site_fract_x
_atom_site_fract_y
_atom_site_fract_z
Si Si1 0.894923 0.849044 0.693794
Si Si2 0.803448 0.080183 0.627368
Si Si3 0.378430 0.194995 0.371528
Si Si4 0.054052 0.919640 0.500000
Si Si5 0.225143 0.319660 0.627821
Si Si6 0.946736 0.079793 0.874909
Si Si7 0.051647 0.422121 0.371881
O O1 0.845036 0.880268 0.679353
O O2 0.892538 0.768151 0.674553
O O3 0.925210 0.883574 0.602328
O O4 0.916610 0.871418 0.803818
O O5 0.808732 0.087285 0.500000
O O6 0.756517 0.116461 0.657509
O O7 0.804188 0.000000 0.652402
O O8 0.379540 0.200634 0.500000
O O9 0.326920 0.178590 0.339478
O O10 0.412594 0.134918 0.338907
O O11 0.000000 0.914540 0.500000
O O12 0.066620 0.000000 0.500000
O O13 0.224469 0.317960 0.500000
O O14 0.250000 0.250000 0.662693
O O15 0.000000 0.090966 0.853791
O O16 0.937102 0.000000 0.848392
O O17 0.939604 0.088409 0.000000
O O18 0.052004 0.422219 0.500000
O O19 0.062697 0.500000 0.338726
O O20 0.000000 0.406743 0.339721
#
# Coordination Sequence:
#
# PCOD9483135 Si02
#       7
#    16  16  16   8  16  16  16
#     4  12  19  29  44  66  92 118 146 185 230 274
#     4  10  18  27  41  62  88 118 151 186 223 266
#     4  10  18  28  42  63  90 121 150 183 226 271
#     4  11  22  30  38  59  93 125 147 172 213 272
#     4   9  16  27  39  52  81 119 151 177 207 255
#     4   9  19  35  50  62  82 118 161 197 224 256
#     4   8  15  27  40  54  78 114 152 186 218 257
#
# _framework density 14.168668
#
# number of rings (size 3 to 8) (size 9 to 14) (size 15 to 20)
#    0.000    2.231    3.077    2.769    0.000    3.077 
#    0.000    3.077    0.000    0.000    0.000    2.154 
#    0.000    0.615    0.000    3.385    0.000    0.154 
#
# Total GULP energy -289817.537808 kJ/mol
# GULP energy per Si atom -5573.414189 kJ/mol
# Density = 1.413642 g / cm^3
# Si number density = 14.168668 Si / 1000 Ang^3
#
#
#
# Elastic Constant Matrix: (Units=GPa)
#
#
# Indices 1 2 3 4 5 6 
#
# 1 117.8599 90.5203 26.4439 0.0000 0.0000 0.0000
# 2 90.5203 132.4092 24.1976 0.0000 0.0000 0.0000
# 3 26.4439 24.1976 23.1962 0.0000 0.0000 0.0000
# 4 0.0000 0.0000 0.0000 12.9866 0.0000 0.0000
# 5 0.0000 0.0000 0.0000 0.0000 9.8103 0.0000
# 6 0.0000 0.0000 0.0000 0.0000 0.0000 30.0626
#
#
#
# Elastic Compliance Matrix: (Units=1/GPa)
#
#
# Indices 1 2 3 4 5 6 
#
# 1 0.019703 -0.011571 -0.010391 0.000000 0.000000 0.000000
# 2 -0.011571 0.016126 -0.003632 0.000000 0.000000 0.000000
# 3 -0.010391 -0.003632 0.058745 0.000000 0.000000 0.000000
# 4 0.000000 0.000000 0.000000 0.077003 0.000000 0.000000
# 5 0.000000 0.000000 0.000000 0.000000 0.101934 0.000000
# 6 0.000000 0.000000 0.000000 0.000000 0.000000 0.033264
#
#
# Mechanical properties :
#
#
# Convention : Reuss Voigt Hill
#
# Bulk Modulus (GPa) = 23.04842 61.75432 42.40137
# Shear Modulus (GPa) = 13.42558 19.39212 16.40885
#
# Velocity S-wave (km/s) = 3.08158 3.70356 3.40679
# Velocity P-wave (km/s) = 5.38182 7.87199 6.74285
#
# Compressibility (1/GPa) = 0.04338692
#
# Stress axis : x y z
#
# Youngs Moduli (GPa) = 50.75458 62.01106 17.02270
#
# Poissons Ratio (x) = 0.71750 0.17688
# Poissons Ratio (y) = 0.58726 0.06182
# Poissons Ratio (z) = 0.52740 0.22521
#
# Static dielectric constant tensor:
#      x y z
#    x 1.475060 0.000000 0.000000 
#    y 0.000000 1.466630 0.000000 
#    z 0.000000 0.000000 1.430960 
# 
# From -- ./inp_files/32518.got.cif
#   From: 2010.05.17/outbox.cif.g08.bks.cpg/sg65_17_cif.got.tgz:32518.got - 2010.06.03 17:01:31.
