data_PCOD9483828
_publ_section_title
;
Structure prediction by ZEFSAII (Michael W. Deem and Ramdas Pophale) SiO2 
 PCOD9483828
Probable space group: C M M M
;
_chemical_formula_sum "Si O2"
_cell_formula_units_Z 72
_cell_length_a 18.845119
_cell_length_b 8.164320
_cell_length_c 24.258186
_cell_angle_alpha 90.000000
_cell_angle_beta 90.000000
_cell_angle_gamma 90.000000
_cell_volume 3732.305841
_symmetry_space_group_name_H-M "C M M M"
_symmetry_group_IT_number 65
_symmetry_cell_setting 'orthorhombic'
loop_
_space_group_symop_operation_xyz
x,y,z
-x,-y,z
x,-y,-z
-x,y,-z
-x,-y,-z
x,y,-z
-x,y,z
x,-y,z
1/2+x,1/2+y,z
1/2-x,1/2-y,z
1/2+x,1/2-y,-z
1/2-x,1/2+y,-z
1/2-x,1/2-y,-z
1/2+x,1/2+y,-z
1/2-x,1/2+y,z
1/2+x,1/2-y,z
loop_
_atom_site_type_symbol
_atom_site_label
_atom_site_fract_x
_atom_site_fract_y
_atom_site_fract_z
Si Si1 0.668029 0.195091 0.618205
Si Si2 0.417836 0.800241 0.938171
Si Si3 0.081807 0.299416 0.275260
Si Si4 0.168778 0.697913 0.167638
Si Si5 0.167777 0.806393 0.500000
O O1 0.750000 0.250000 0.622958
O O2 0.622081 0.256861 0.669591
O O3 0.638285 0.245509 0.558319
O O4 0.668241 0.000000 0.620049
O O5 0.500000 0.753376 0.928634
O O6 0.367807 0.742939 0.888899
O O7 0.416459 0.000000 0.938047
O O8 0.397186 0.747218 0.000000
O O9 0.082185 0.500000 0.275583
O O10 0.124204 0.246508 0.220845
O O11 0.000000 0.247700 0.273945
O O12 0.166054 0.500000 0.167190
O O13 0.250000 0.750000 0.171533
O O14 0.250000 0.750000 0.500000
O O15 0.166255 0.000000 0.500000
#
# Coordination Sequence:
#
# PCOD9483828 Si02
#       5
#    16  16  16  16   8
#     4  10  18  30  50  73  97 123 155 195 236 280
#     4   8  14  26  46  71  96 125 164 204 237 274
#     4   9  18  32  50  71  93 122 162 202 237 277
#     4  10  19  31  49  72  98 126 158 199 243 285
#     4  10  18  30  49  72  99 127 157 191 229 278
#
# _framework density 19.291024
#
# number of rings (size 3 to 8) (size 9 to 14) (size 15 to 20)
#    0.000    2.667    0.000    5.000    0.000    3.111 
#    0.000    1.667    0.000   11.333    0.000    1.556 
#    0.000    0.000    0.000    0.000    0.000    0.000 
#
# Total GULP energy -200811.672915 kJ/mol
# GULP energy per Si atom -5578.102025 kJ/mol
# Density = 1.924712 g / cm^3
# Si number density = 19.291024 Si / 1000 Ang^3
#
#
#
# Elastic Constant Matrix: (Units=GPa)
#
#
# Indices 1 2 3 4 5 6 
#
# 1 134.4286 8.8910 124.9787 0.0000 0.0000 0.0000
# 2 8.8910 23.9397 18.7764 0.0000 0.0000 0.0000
# 3 124.9787 18.7764 230.8343 0.0000 0.0000 0.0000
# 4 0.0000 0.0000 0.0000 1.5288 0.0000 0.0000
# 5 0.0000 0.0000 0.0000 0.0000 13.6389 0.0000
# 6 0.0000 0.0000 0.0000 0.0000 0.0000 20.1930
#
#
#
# Elastic Compliance Matrix: (Units=1/GPa)
#
#
# Indices 1 2 3 4 5 6 
#
# 1 0.014995 0.000853 -0.008188 0.000000 0.000000 0.000000
# 2 0.000853 0.044667 -0.004095 0.000000 0.000000 0.000000
# 3 -0.008188 -0.004095 0.009098 0.000000 0.000000 0.000000
# 4 0.000000 0.000000 0.000000 0.654126 0.000000 0.000000
# 5 0.000000 0.000000 0.000000 0.000000 0.073320 0.000000
# 6 0.000000 0.000000 0.000000 0.000000 0.000000 0.049522
#
#
# Mechanical properties :
#
#
# Convention : Reuss Voigt Hill
#
# Bulk Modulus (GPa) = 21.78655 77.16607 49.47631
# Shear Modulus (GPa) = 5.65683 22.84257 14.24970
#
# Velocity S-wave (km/s) = 1.71427 3.44481 2.72080
# Velocity P-wave (km/s) = 3.90339 7.47731 5.96434
#
# Compressibility (1/GPa) = 0.04589988
#
# Stress axis : x y z
#
# Youngs Moduli (GPa) = 66.68984 22.38802 109.91050
#
# Poissons Ratio (x) = -0.01910 0.89993
# Poissons Ratio (y) = -0.05688 0.45009
# Poissons Ratio (z) = 0.54605 0.09168
#
# Static dielectric constant tensor:
#      x y z
#    x 1.635660 0.000000 0.000000 
#    y 0.000000 1.683850 0.000000 
#    z 0.000000 0.000000 1.703340 
# 
# From -- ./inp_files/64311.got.cif
#   From: 2010.05.17/outbox.cif.g08.bks.cpg/sg65_33_cif.got.tgz:64311.got - 2010.06.03 17:01:31.
