data_PCOD9483452
_publ_section_title
;
Structure prediction by ZEFSAII (Michael W. Deem and Ramdas Pophale) SiO2 
 PCOD9483452
Probable space group: C M M M
;
_chemical_formula_sum "Si O2"
_cell_formula_units_Z 80
_cell_length_a 26.971397
_cell_length_b 23.680337
_cell_length_c 9.165607
_cell_angle_alpha 90.000000
_cell_angle_beta 90.000000
_cell_angle_gamma 90.000000
_cell_volume 5853.997761
_symmetry_space_group_name_H-M "C M M M"
_symmetry_group_IT_number 65
_symmetry_cell_setting 'orthorhombic'
loop_
_space_group_symop_operation_xyz
x,y,z
-x,-y,z
x,-y,-z
-x,y,-z
-x,-y,-z
x,y,-z
-x,y,z
x,-y,z
1/2+x,1/2+y,z
1/2-x,1/2-y,z
1/2+x,1/2-y,-z
1/2-x,1/2+y,-z
1/2-x,1/2-y,-z
1/2+x,1/2+y,-z
1/2-x,1/2+y,z
1/2+x,1/2-y,z
loop_
_atom_site_type_symbol
_atom_site_label
_atom_site_fract_x
_atom_site_fract_y
_atom_site_fract_z
Si Si1 0.742233 0.884286 0.173176
Si Si2 0.716342 0.000000 0.673988
Si Si3 0.097929 0.500000 0.326383
Si Si4 0.700586 0.289304 0.332126
Si Si5 0.057436 0.387679 0.825151
Si Si6 0.645355 0.193917 0.172992
O O1 0.784667 0.844254 0.240002
O O2 0.690151 0.850869 0.196858
O O3 0.738460 0.943841 0.253780
O O4 0.748476 0.891329 0.000000
O O5 0.723878 0.000000 0.500000
O O6 0.657005 0.000000 0.701552
O O7 0.090085 0.500000 0.500000
O O8 0.074229 0.555565 0.255473
O O9 0.689865 0.303224 0.500000
O O10 0.750000 0.250000 0.329861
O O11 0.658597 0.250291 0.260521
O O12 0.094610 0.337089 0.784674
O O13 0.000000 0.375407 0.794414
O O14 0.062801 0.396451 0.000000
O O15 0.644622 0.206358 0.000000
#
# Coordination Sequence:
#
# PCOD9483452 Si02
#       6
#    16   8   8  16  16  16
#     4  10  18  29  45  62  81 108 141 175 210 253
#     4  11  21  30  42  61  86 114 143 179 218 255
#     4  11  22  32  43  58  82 112 146 187 227 259
#     4   9  17  28  43  62  83 105 131 168 213 259
#     4  10  20  33  47  61  80 110 148 187 223 257
#     4   9  17  29  44  61  80 105 140 178 214 255
#
# _framework density 13.665875
#
# number of rings (size 3 to 8) (size 9 to 14) (size 15 to 20)
#    0.000    2.200    2.000    2.100    0.000    6.400 
#    0.000    0.000    0.000    0.000    0.000    0.000 
#    0.000    0.000    0.000    0.900    0.000   18.600 
#
# Total GULP energy -223082.251271 kJ/mol
# GULP energy per Si atom -5577.056282 kJ/mol
# Density = 1.363477 g / cm^3
# Si number density = 13.665875 Si / 1000 Ang^3
#
#
#
# Elastic Constant Matrix: (Units=GPa)
#
#
# Indices 1 2 3 4 5 6 
#
# 1 75.9358 64.8731 45.5192 0.0000 0.0000 0.0000
# 2 64.8731 105.0781 69.0333 0.0000 0.0000 0.0000
# 3 45.5192 69.0333 70.6324 0.0000 0.0000 0.0000
# 4 0.0000 0.0000 0.0000 16.0384 0.0000 0.0000
# 5 0.0000 0.0000 0.0000 0.0000 14.7085 0.0000
# 6 0.0000 0.0000 0.0000 0.0000 0.0000 10.2030
#
#
#
# Elastic Compliance Matrix: (Units=1/GPa)
#
#
# Indices 1 2 3 4 5 6 
#
# 1 0.028128 -0.015246 -0.003226 0.000000 0.000000 0.000000
# 2 -0.015246 0.034854 -0.024240 0.000000 0.000000 0.000000
# 3 -0.003226 -0.024240 0.039928 0.000000 0.000000 0.000000
# 4 0.000000 0.000000 0.000000 0.062350 0.000000 0.000000
# 5 0.000000 0.000000 0.000000 0.000000 0.067988 0.000000
# 6 0.000000 0.000000 0.000000 0.000000 0.000000 0.098010
#
#
# Mechanical properties :
#
#
# Convention : Reuss Voigt Hill
#
# Bulk Modulus (GPa) = 57.18867 67.83304 62.51085
# Shear Modulus (GPa) = 11.83402 13.00469 12.41936
#
# Velocity S-wave (km/s) = 2.94590 3.08818 3.01788
# Velocity P-wave (km/s) = 7.31504 7.90319 7.61479
#
# Compressibility (1/GPa) = 0.01748598
#
# Stress axis : x y z
#
# Youngs Moduli (GPa) = 35.55197 28.69107 25.04531
#
# Poissons Ratio (x) = 0.43743 0.08080
# Poissons Ratio (y) = 0.54203 0.60709
# Poissons Ratio (z) = 0.11470 0.69546
#
# Static dielectric constant tensor:
#      x y z
#    x 1.432050 0.000000 0.000000 
#    y 0.000000 1.425250 0.000000 
#    z 0.000000 0.000000 1.455170 
# 
# From -- ./inp_files/12086.got.cif
#   From: 2010.05.17/outbox.cif.g08.bks.cpg/sg65_7_cif.got.tgz:12086.got - 2010.06.03 17:01:31.
