data_PCOD9483317
_publ_section_title
;
Structure prediction by ZEFSAII (Michael W. Deem and Ramdas Pophale) SiO2 
 PCOD9483317
Probable space group: C M M M
;
_chemical_formula_sum "Si O2"
_cell_formula_units_Z 104
_cell_length_a 7.951691
_cell_length_b 26.903627
_cell_length_c 29.441231
_cell_angle_alpha 90.000000
_cell_angle_beta 90.000000
_cell_angle_gamma 90.000000
_cell_volume 6298.342783
_symmetry_space_group_name_H-M "C M M M"
_symmetry_group_IT_number 65
_symmetry_cell_setting 'orthorhombic'
loop_
_space_group_symop_operation_xyz
x,y,z
-x,-y,z
x,-y,-z
-x,y,-z
-x,-y,-z
x,y,-z
-x,y,z
x,-y,z
1/2+x,1/2+y,z
1/2-x,1/2-y,z
1/2+x,1/2-y,-z
1/2-x,1/2+y,-z
1/2-x,1/2-y,-z
1/2+x,1/2+y,-z
1/2-x,1/2+y,z
1/2+x,1/2-y,z
loop_
_atom_site_type_symbol
_atom_site_label
_atom_site_fract_x
_atom_site_fract_y
_atom_site_fract_z
Si Si1 0.310016 0.695558 0.555103
Si Si2 0.000000 0.376395 0.445861
Si Si3 0.000000 0.559560 0.361168
Si Si4 0.296527 0.598199 0.106895
Si Si5 0.205465 0.000000 0.052390
Si Si6 0.700036 0.057366 0.797763
Si Si7 0.314580 0.560512 0.301644
Si Si8 0.797313 0.805519 0.947822
O O1 0.316175 0.697746 0.500000
O O2 0.500000 0.684475 0.570804
O O3 0.250000 0.750000 0.570743
O O4 0.165969 0.655835 0.565397
O O5 0.000000 0.423068 0.412849
O O6 0.000000 0.386810 0.500000
O O7 0.835018 0.577582 0.334142
O O8 0.000000 0.500000 0.359192
O O9 0.500000 0.598262 0.105813
O O10 0.239460 0.549876 0.078267
O O11 0.241808 0.590012 0.158578
O O12 0.237244 0.649239 0.083594
O O13 0.000000 0.000000 0.052693
O O14 0.258766 0.000000 0.000000
O O15 0.500000 0.056464 0.790442
O O16 0.782760 0.074484 0.750763
O O17 0.754950 0.000000 0.806971
O O18 0.500000 0.576377 0.316473
O O19 0.310125 0.500000 0.301841
O O20 0.750000 0.750000 0.932516
O O21 0.000000 0.808187 0.948938
O O22 0.736771 0.811597 0.000000
#
# Coordination Sequence:
#
# PCOD9483317 Si02
#       8
#    16   8   8  16   8  16  16  16
#     4   9  15  26  46  72 103 134 168 214 264 307
#     4  10  20  31  48  76 108 144 179 216 260 305
#     4  10  20  35  50  72 106 142 184 221 245 296
#     4  10  18  28  45  70  95 122 158 196 243 300
#     4   9  16  26  41  63  95 131 159 185 227 295
#     4  10  18  29  46  71 102 124 150 196 253 311
#     4   9  17  31  52  72  95 131 171 215 264 301
#     4   9  18  32  48  65  88 121 165 211 244 281
#
# _framework density 16.512280000000001
#
# number of rings (size 3 to 8) (size 9 to 14) (size 15 to 20)
#    0.000    2.538    2.308    0.923    0.000    3.846 
#    0.000    0.000    0.000    1.846    0.000    5.385 
#    0.000    0.000    0.000    0.000    0.000    0.000 
#
# Total GULP energy -289801.724435 kJ/mol
# GULP energy per Si atom -5573.110085 kJ/mol
# Density = 1.647470 g / cm^3
# Si number density = 16.512280 Si / 1000 Ang^3
#
#
#
# Elastic Constant Matrix: (Units=GPa)
#
#
# Indices 1 2 3 4 5 6 
#
# 1 90.3496 24.8782 33.0391 0.0000 0.0000 0.0000
# 2 24.8782 67.1835 36.2327 0.0000 0.0000 0.0000
# 3 33.0391 36.2327 79.2204 0.0000 0.0000 0.0000
# 4 0.0000 0.0000 0.0000 14.0721 0.0000 0.0000
# 5 0.0000 0.0000 0.0000 0.0000 1.8645 0.0000
# 6 0.0000 0.0000 0.0000 0.0000 0.0000 13.7086
#
#
#
# Elastic Compliance Matrix: (Units=1/GPa)
#
#
# Indices 1 2 3 4 5 6 
#
# 1 0.013389 -0.002584 -0.004402 0.000000 0.000000 0.000000
# 2 -0.002584 0.020257 -0.008187 0.000000 0.000000 0.000000
# 3 -0.004402 -0.008187 0.018204 0.000000 0.000000 0.000000
# 4 0.000000 0.000000 0.000000 0.071063 0.000000 0.000000
# 5 0.000000 0.000000 0.000000 0.000000 0.536333 0.000000
# 6 0.000000 0.000000 0.000000 0.000000 0.000000 0.072947
#
#
# Mechanical properties :
#
#
# Convention : Reuss Voigt Hill
#
# Bulk Modulus (GPa) = 46.50504 47.22815 46.86660
# Shear Modulus (GPa) = 6.49598 15.43593 10.96596
#
# Velocity S-wave (km/s) = 1.98559 3.06079 2.57983
# Velocity P-wave (km/s) = 5.78635 6.41523 6.10889
#
# Compressibility (1/GPa) = 0.02150304
#
# Stress axis : x y z
#
# Youngs Moduli (GPa) = 74.68562 49.36605 54.93443
#
# Poissons Ratio (x) = 0.12756 0.24184
# Poissons Ratio (y) = 0.19298 0.44976
# Poissons Ratio (z) = 0.32879 0.40417
#
# Static dielectric constant tensor:
#      x y z
#    x 1.587350 0.000000 0.000000 
#    y 0.000000 1.541330 0.000000 
#    z 0.000000 0.000000 1.533510 
# 
# From -- ./inp_files/68322.got.cif
#   From: 2010.05.17/outbox.cif.g08.bks.cpg/sg65_35_cif.got.tgz:68322.got - 2010.06.03 17:01:31.
