data_PCOD9483138
_publ_section_title
;
Structure prediction by ZEFSAII (Michael W. Deem and Ramdas Pophale) SiO2 
 PCOD9483138
Probable space group: C M M M
;
_chemical_formula_sum "Si O2"
_cell_formula_units_Z 96
_cell_length_a 28.017830
_cell_length_b 8.578057
_cell_length_c 25.114840
_cell_angle_alpha 90.000000
_cell_angle_beta 90.000000
_cell_angle_gamma 90.000000
_cell_volume 6036.064047
_symmetry_space_group_name_H-M "C M M M"
_symmetry_group_IT_number 65
_symmetry_cell_setting 'orthorhombic'
loop_
_space_group_symop_operation_xyz
x,y,z
-x,-y,z
x,-y,-z
-x,y,-z
-x,-y,-z
x,y,-z
-x,y,z
x,-y,z
1/2+x,1/2+y,z
1/2-x,1/2-y,z
1/2+x,1/2-y,-z
1/2-x,1/2+y,-z
1/2-x,1/2-y,-z
1/2+x,1/2+y,-z
1/2-x,1/2+y,z
1/2+x,1/2-y,z
loop_
_atom_site_type_symbol
_atom_site_label
_atom_site_fract_x
_atom_site_fract_y
_atom_site_fract_z
Si Si1 0.198803 0.813650 0.383657
Si Si2 0.304258 0.311824 0.942792
Si Si3 0.695783 0.312675 0.826085
Si Si4 0.946985 0.687896 0.335838
Si Si5 0.149379 0.687062 0.720360
Si Si6 0.399048 0.688180 0.439865
O O1 0.250000 0.750000 0.400656
O O2 0.184930 0.748216 0.325518
O O3 0.154970 0.769127 0.422299
O O4 0.200663 0.000000 0.380916
O O5 0.303320 0.500000 0.942821
O O6 0.250000 0.250000 0.943024
O O7 0.323600 0.264318 0.884806
O O8 0.325944 0.261714 0.000000
O O9 0.697268 0.500000 0.823575
O O10 0.750000 0.250000 0.821177
O O11 0.665105 0.249034 0.777433
O O12 0.946847 0.500000 0.335223
O O13 0.903617 0.739705 0.297775
O O14 0.933515 0.743031 0.395107
O O15 0.000000 0.742413 0.320991
O O16 0.150930 0.500000 0.720338
O O17 0.409118 0.739415 0.500000
O O18 0.402277 0.500000 0.438004
#
# Coordination Sequence:
#
# PCOD9483138 Si02
#       6
#    16  16  16  16  16  16
#     4  10  19  31  46  63  86 115 145 175 207 244
#     4   8  14  24  37  54  79 113 149 180 208 238
#     4  10  18  27  41  62  89 119 150 180 209 244
#     4   9  19  35  52  68  85 107 136 172 215 259
#     4  10  19  31  46  63  85 111 141 176 213 255
#     4   9  19  34  49  67  90 113 138 169 206 251
#
# _framework density 15.904405000000001
#
# number of rings (size 3 to 8) (size 9 to 14) (size 15 to 20)
#    0.000    2.667    0.000    2.000    0.000    3.333 
#    0.000    1.667    0.000    0.000    0.000    0.000 
#    0.000    0.667    0.000    8.333    0.000    0.000 
#
# Total GULP energy -267398.195697 kJ/mol
# GULP energy per Si atom -5570.795744 kJ/mol
# Density = 1.586821 g / cm^3
# Si number density = 15.904405 Si / 1000 Ang^3
#
#
#
# Elastic Constant Matrix: (Units=GPa)
#
#
# Indices 1 2 3 4 5 6 
#
# 1 64.9576 10.0051 23.3426 0.0000 0.0000 0.0000
# 2 10.0051 20.2807 12.8915 0.0000 0.0000 0.0000
# 3 23.3426 12.8915 119.8478 0.0000 0.0000 0.0000
# 4 0.0000 0.0000 0.0000 14.4989 0.0000 0.0000
# 5 0.0000 0.0000 0.0000 0.0000 12.4441 0.0000
# 6 0.0000 0.0000 0.0000 0.0000 0.0000 15.3568
#
#
#
# Elastic Compliance Matrix: (Units=1/GPa)
#
#
# Indices 1 2 3 4 5 6 
#
# 1 0.017410 -0.006906 -0.002648 0.000000 0.000000 0.000000
# 2 -0.006906 0.055666 -0.004643 0.000000 0.000000 0.000000
# 3 -0.002648 -0.004643 0.009359 0.000000 0.000000 0.000000
# 4 0.000000 0.000000 0.000000 0.068971 0.000000 0.000000
# 5 0.000000 0.000000 0.000000 0.000000 0.080360 0.000000
# 6 0.000000 0.000000 0.000000 0.000000 0.000000 0.065118
#
#
# Mechanical properties :
#
#
# Convention : Reuss Voigt Hill
#
# Bulk Modulus (GPa) = 18.50414 33.06272 25.78343
# Shear Modulus (GPa) = 14.56495 19.04974 16.80734
#
# Velocity S-wave (km/s) = 3.02947 3.46463 3.25433
# Velocity P-wave (km/s) = 4.88843 6.06946 5.51068
#
# Compressibility (1/GPa) = 0.05404197
#
# Stress axis : x y z
#
# Youngs Moduli (GPa) = 57.43867 17.96435 106.84810
#
# Poissons Ratio (x) = 0.12405 0.28294
# Poissons Ratio (y) = 0.39665 0.49607
# Poissons Ratio (z) = 0.15210 0.08340
#
# Static dielectric constant tensor:
#      x y z
#    x 1.480500 0.000000 0.000000 
#    y 0.000000 1.539360 0.000000 
#    z 0.000000 0.000000 1.557980 
# 
# From -- ./inp_files/68045.got.cif
#   From: 2010.05.17/outbox.cif.g08.bks.cpg/sg65_35_cif.got.tgz:68045.got - 2010.06.03 17:01:31.
