data_PCOD9483887
_publ_section_title
;
Structure prediction by ZEFSAII (Michael W. Deem and Ramdas Pophale) SiO2 
 PCOD9483887
Probable space group: C M M M
;
_chemical_formula_sum "Si O2"
_cell_formula_units_Z 104
_cell_length_a 8.718773
_cell_length_b 29.281137
_cell_length_c 23.999386
_cell_angle_alpha 90.000000
_cell_angle_beta 90.000000
_cell_angle_gamma 90.000000
_cell_volume 6126.937329
_symmetry_space_group_name_H-M "C M M M"
_symmetry_group_IT_number 65
_symmetry_cell_setting 'orthorhombic'
loop_
_space_group_symop_operation_xyz
x,y,z
-x,-y,z
x,-y,-z
-x,y,-z
-x,-y,-z
x,y,-z
-x,y,z
x,-y,z
1/2+x,1/2+y,z
1/2-x,1/2-y,z
1/2+x,1/2-y,-z
1/2-x,1/2+y,-z
1/2-x,1/2-y,-z
1/2+x,1/2+y,-z
1/2-x,1/2+y,z
1/2+x,1/2-y,z
loop_
_atom_site_type_symbol
_atom_site_label
_atom_site_fract_x
_atom_site_fract_y
_atom_site_fract_z
Si Si1 0.315488 0.300842 0.329898
Si Si2 0.683779 0.051547 0.608362
Si Si3 0.316568 0.142580 0.226093
Si Si4 0.683269 0.698411 0.000000
Si Si5 0.815191 0.142729 0.561499
Si Si6 0.316113 0.801146 0.884752
Si Si7 0.183214 0.948032 0.266935
O O1 0.500000 0.299562 0.328469
O O2 0.250000 0.250000 0.326598
O O3 0.255957 0.330267 0.277931
O O4 0.265326 0.325232 0.387429
O O5 0.500000 0.054900 0.609653
O O6 0.751630 0.092049 0.571795
O O7 0.748113 0.057432 0.670977
O O8 0.725006 0.000000 0.589874
O O9 0.500000 0.142515 0.232266
O O10 0.278150 0.168376 0.168799
O O11 0.254258 0.091170 0.228949
O O12 0.750000 0.750000 0.000000
O O13 0.746165 0.678899 0.941948
O O14 0.500000 0.699441 0.000000
O O15 0.768655 0.159161 0.500000
O O16 0.000000 0.140774 0.563360
O O17 0.500000 0.797931 0.890287
O O18 0.250000 0.750000 0.876722
O O19 0.000000 0.942436 0.270274
O O20 0.216878 0.000000 0.248861
#
# Coordination Sequence:
#
# PCOD9483887 Si02
#       7
#    16  16  16   8  16  16  16
#     4  11  23  38  56  76 102 136 173 219 266 314
#     4  10  20  34  54  79 105 132 166 210 260 316
#     4  11  22  35  55  82 110 140 176 218 263 312
#     4  10  18  30  50  74 105 146 185 222 260 301
#     4  10  22  39  56  75 100 134 175 215 262 320
#     4  10  20  33  50  76 110 147 183 219 259 305
#     4  10  20  34  54  79 107 139 172 210 261 317
#
# _framework density 16.974222999999999
#
# number of rings (size 3 to 8) (size 9 to 14) (size 15 to 20)
#    0.000    1.692    1.538    4.385    0.000    7.077 
#    0.000    1.538    0.000    0.000    0.000    0.538 
#    0.000    4.308    0.000    0.000    0.000    0.000 
#
# Total GULP energy -290368.193523 kJ/mol
# GULP energy per Si atom -5584.003722 kJ/mol
# Density = 1.693559 g / cm^3
# Si number density = 16.974223 Si / 1000 Ang^3
#
#
#
# Elastic Constant Matrix: (Units=GPa)
#
#
# Indices 1 2 3 4 5 6 
#
# 1 46.9934 30.7451 48.2347 0.0000 0.0000 0.0000
# 2 30.7451 96.2843 61.8518 0.0000 0.0000 0.0000
# 3 48.2347 61.8518 137.0187 0.0000 0.0000 0.0000
# 4 0.0000 0.0000 0.0000 18.8912 0.0000 0.0000
# 5 0.0000 0.0000 0.0000 0.0000 24.2442 0.0000
# 6 0.0000 0.0000 0.0000 0.0000 0.0000 27.4723
#
#
#
# Elastic Compliance Matrix: (Units=1/GPa)
#
#
# Indices 1 2 3 4 5 6 
#
# 1 0.034679 -0.004551 -0.010154 0.000000 0.000000 0.000000
# 2 -0.004551 0.015225 -0.005271 0.000000 0.000000 0.000000
# 3 -0.010154 -0.005271 0.013252 0.000000 0.000000 0.000000
# 4 0.000000 0.000000 0.000000 0.052935 0.000000 0.000000
# 5 0.000000 0.000000 0.000000 0.000000 0.041247 0.000000
# 6 0.000000 0.000000 0.000000 0.000000 0.000000 0.036400
#
#
# Mechanical properties :
#
#
# Convention : Reuss Voigt Hill
#
# Bulk Modulus (GPa) = 43.09376 62.43998 52.76687
# Shear Modulus (GPa) = 20.71051 23.41918 22.06485
#
# Velocity S-wave (km/s) = 3.49680 3.71845 3.60933
# Velocity P-wave (km/s) = 6.46115 7.43645 6.96589
#
# Compressibility (1/GPa) = 0.02320521
#
# Stress axis : x y z
#
# Youngs Moduli (GPa) = 28.83595 65.68201 75.46096
#
# Poissons Ratio (x) = 0.29892 0.76621
# Poissons Ratio (y) = 0.13123 0.39773
# Poissons Ratio (z) = 0.29279 0.34618
#
# Static dielectric constant tensor:
#      x y z
#    x 1.569290 0.000000 0.000000 
#    y 0.000000 1.564860 0.000000 
#    z 0.000000 0.000000 1.584010 
# 
# From -- ./inp_files/60888.got.cif
#   From: 2010.05.17/outbox.cif.g08.bks.cpg/sg65_31_cif.got.tgz:60888.got - 2010.06.03 17:01:31.
