data_PCOD9483105
_publ_section_title
;
Structure prediction by ZEFSAII (Michael W. Deem and Ramdas Pophale) SiO2 
 PCOD9483105
Probable space group: C M M M
;
_chemical_formula_sum "Si O2"
_cell_formula_units_Z 104
_cell_length_a 8.153007
_cell_length_b 28.121990
_cell_length_c 28.040306
_cell_angle_alpha 90.000000
_cell_angle_beta 90.000000
_cell_angle_gamma 90.000000
_cell_volume 6429.047188
_symmetry_space_group_name_H-M "C M M M"
_symmetry_group_IT_number 65
_symmetry_cell_setting 'orthorhombic'
loop_
_space_group_symop_operation_xyz
x,y,z
-x,-y,z
x,-y,-z
-x,y,-z
-x,-y,-z
x,y,-z
-x,y,z
x,-y,z
1/2+x,1/2+y,z
1/2-x,1/2-y,z
1/2+x,1/2-y,-z
1/2-x,1/2+y,-z
1/2-x,1/2-y,-z
1/2+x,1/2+y,-z
1/2-x,1/2+y,z
1/2+x,1/2-y,z
loop_
_atom_site_type_symbol
_atom_site_label
_atom_site_fract_x
_atom_site_fract_y
_atom_site_fract_z
Si Si1 0.808386 0.303188 0.399930
Si Si2 0.700428 0.552982 0.648768
Si Si3 0.695213 0.649967 0.304539
Si Si4 0.802005 0.694687 0.102628
Si Si5 0.803103 0.694874 0.793261
Si Si6 0.801593 0.694481 0.000000
Si Si7 0.804959 0.101471 0.552744
O O1 0.750000 0.250000 0.410012
O O2 0.774751 0.316172 0.344531
O O3 0.721584 0.344228 0.430615
O O4 0.000000 0.306723 0.409418
O O5 0.500000 0.552451 0.648358
O O6 0.756089 0.500000 0.661093
O O7 0.749035 0.596049 0.683512
O O8 0.757333 0.568538 0.595831
O O9 0.500000 0.652796 0.312084
O O10 0.735997 0.666237 0.251552
O O11 0.750000 0.750000 0.102488
O O12 0.746358 0.676361 0.154434
O O13 0.744445 0.674412 0.051363
O O14 0.000000 0.692440 0.102618
O O15 0.750000 0.750000 0.789018
O O16 0.000000 0.693298 0.791889
O O17 0.750000 0.750000 0.000000
O O18 0.000000 0.692505 0.000000
O O19 0.735663 0.093219 0.500000
O O20 0.000000 0.093274 0.550495
#
# Coordination Sequence:
#
# PCOD9483105 Si02
#       7
#    16  16  16  16  16   8  16
#     4  11  21  33  48  64  85 113 143 172 202 237
#     4   8  15  29  49  70  87 104 130 164 201 241
#     4  10  19  31  46  64  85 108 136 170 206 245
#     4   8  14  22  33  49  71 101 137 174 206 237
#     4  10  18  27  39  58  84 113 144 175 207 242
#     4   8  12  20  32  46  66  96 135 174 207 235
#     4   9  18  32  49  70  93 112 133 162 195 235
#
# _framework density 16.176580999999999
#
# number of rings (size 3 to 8) (size 9 to 14) (size 15 to 20)
#    0.000    2.769    0.000    3.692    0.000    1.538 
#    0.000    1.538    0.000   11.538    0.000    4.308 
#    0.000    0.000    0.000    0.692    0.000   15.615 
#
# Total GULP energy -289530.243714 kJ/mol
# GULP energy per Si atom -5567.889302 kJ/mol
# Density = 1.613976 g / cm^3
# Si number density = 16.176581 Si / 1000 Ang^3
#
#
#
# Elastic Constant Matrix: (Units=GPa)
#
#
# Indices 1 2 3 4 5 6 
#
# 1 11.7539 -3.2136 -5.0644 0.0000 0.0000 0.0000
# 2 -3.2136 57.4157 20.0836 0.0000 0.0000 0.0000
# 3 -5.0644 20.0836 116.9808 0.0000 0.0000 0.0000
# 4 0.0000 0.0000 0.0000 9.5775 0.0000 0.0000
# 5 0.0000 0.0000 0.0000 0.0000 9.5861 0.0000
# 6 0.0000 0.0000 0.0000 0.0000 0.0000 9.1716
#
#
#
# Elastic Compliance Matrix: (Units=1/GPa)
#
#
# Indices 1 2 3 4 5 6 
#
# 1 0.087467 0.003799 0.003134 0.000000 0.000000 0.000000
# 2 0.003799 0.018695 -0.003045 0.000000 0.000000 0.000000
# 3 0.003134 -0.003045 0.009207 0.000000 0.000000 0.000000
# 4 0.000000 0.000000 0.000000 0.104411 0.000000 0.000000
# 5 0.000000 0.000000 0.000000 0.000000 0.104317 0.000000
# 6 0.000000 0.000000 0.000000 0.000000 0.000000 0.109033
#
#
# Mechanical properties :
#
#
# Convention : Reuss Voigt Hill
#
# Bulk Modulus (GPa) = 8.12045 23.30687 15.71366
# Shear Modulus (GPa) = 10.72037 17.29003 14.00520
#
# Velocity S-wave (km/s) = 2.57711 3.27284 2.94559
# Velocity P-wave (km/s) = 3.72640 5.35920 4.61558
#
# Compressibility (1/GPa) = 0.12314587
#
# Stress axis : x y z
#
# Youngs Moduli (GPa) = 11.43285 53.49130 108.61430
#
# Poissons Ratio (x) = -0.20323 -0.34044
# Poissons Ratio (y) = -0.04344 0.33074
# Poissons Ratio (z) = -0.03583 0.16289
#
# Static dielectric constant tensor:
#      x y z
#    x 1.582660 0.000000 0.000000 
#    y 0.000000 1.520900 0.000000 
#    z 0.000000 0.000000 1.600080 
# 
# From -- ./inp_files/77103.got.cif
#   From: 2010.05.17/outbox.cif.g08.bks.cpg/sg65_39_cif.got.tgz:77103.got - 2010.06.03 17:01:31.
