data_PCOD9483888
_publ_section_title
;
Structure prediction by ZEFSAII (Michael W. Deem and Ramdas Pophale) SiO2 
 PCOD9483888
Probable space group: C M M M
;
_chemical_formula_sum "Si O2"
_cell_formula_units_Z 96
_cell_length_a 24.581339
_cell_length_b 26.066528
_cell_length_c 7.525834
_cell_angle_alpha 90.000000
_cell_angle_beta 90.000000
_cell_angle_gamma 90.000000
_cell_volume 4822.179350
_symmetry_space_group_name_H-M "C M M M"
_symmetry_group_IT_number 65
_symmetry_cell_setting 'orthorhombic'
loop_
_space_group_symop_operation_xyz
x,y,z
-x,-y,z
x,-y,-z
-x,y,-z
-x,-y,-z
x,y,-z
-x,y,z
x,-y,z
1/2+x,1/2+y,z
1/2-x,1/2-y,z
1/2+x,1/2-y,-z
1/2-x,1/2+y,-z
1/2-x,1/2-y,-z
1/2+x,1/2+y,-z
1/2-x,1/2+y,z
1/2+x,1/2-y,z
loop_
_atom_site_type_symbol
_atom_site_label
_atom_site_fract_x
_atom_site_fract_y
_atom_site_fract_z
Si Si1 0.814503 0.557888 0.289705
Si Si2 0.616789 0.652678 0.711464
Si Si3 0.500000 0.687733 0.717486
Si Si4 0.616870 0.153178 0.717472
Si Si5 0.000000 0.692375 0.283314
Si Si6 0.187744 0.751495 0.717288
Si Si7 0.191343 0.057903 0.788591
O O1 0.824796 0.554368 0.500000
O O2 0.818973 0.500000 0.215418
O O3 0.855803 0.600464 0.219119
O O4 0.751693 0.575004 0.269950
O O5 0.613636 0.660226 0.500000
O O6 0.555515 0.660703 0.778817
O O7 0.656068 0.697873 0.779267
O O8 0.645058 0.598222 0.740479
O O9 0.500000 0.686994 0.500000
O O10 0.500000 0.747733 0.769517
O O11 0.616821 0.152295 0.500000
O O12 0.555284 0.164557 0.774117
O O13 0.654527 0.201057 0.770151
O O14 0.000000 0.692515 0.500000
O O15 0.188354 0.752265 0.500000
O O16 0.250000 0.750000 0.776424
O O17 0.182413 0.000000 0.718536
O O18 0.192952 0.055165 0.000000
#
# Coordination Sequence:
#
# PCOD9483888 Si02
#       7
#    16  16   8  16   8  16  16
#     4   9  17  30  49  73  99 128 164 203 240 279
#     4  10  18  30  50  74  98 123 159 203 241 280
#     4   9  16  28  46  73 101 127 161 200 237 278
#     4   9  15  24  41  68 101 132 161 195 239 285
#     4   9  14  24  41  68 103 134 161 194 237 284
#     4   9  15  22  38  67  97 122 153 194 237 281
#     4  10  21  36  52  70  94 126 161 196 242 298
#
# _framework density 19.908011999999999
#
# number of rings (size 3 to 8) (size 9 to 14) (size 15 to 20)
#    0.000    2.667    1.667    1.500    0.000    3.667 
#    0.000    1.250    0.000    9.500    0.000    0.583 
#    0.000    2.667    0.000    0.000    0.000    0.000 
#
# Total GULP energy -267902.028644 kJ/mol
# GULP energy per Si atom -5581.292263 kJ/mol
# Density = 1.986270 g / cm^3
# Si number density = 19.908012 Si / 1000 Ang^3
#
#
#
# Elastic Constant Matrix: (Units=GPa)
#
#
# Indices 1 2 3 4 5 6 
#
# 1 219.5496 119.9182 4.4701 0.0000 0.0000 0.0000
# 2 119.9182 133.2502 0.8925 0.0000 0.0000 0.0000
# 3 4.4701 0.8925 48.1960 0.0000 0.0000 0.0000
# 4 0.0000 0.0000 0.0000 -23.6149 0.0000 0.0000
# 5 0.0000 0.0000 0.0000 0.0000 -58.3973 0.0000
# 6 0.0000 0.0000 0.0000 0.0000 0.0000 30.2066
#
#
#
# Elastic Compliance Matrix: (Units=1/GPa)
#
#
# Indices 1 2 3 4 5 6 
#
# 1 0.008981 -0.008078 -0.000683 0.000000 0.000000 0.000000
# 2 -0.008078 0.014771 0.000476 0.000000 0.000000 0.000000
# 3 -0.000683 0.000476 0.020803 0.000000 0.000000 0.000000
# 4 0.000000 0.000000 0.000000 -0.042346 0.000000 0.000000
# 5 0.000000 0.000000 0.000000 0.000000 -0.017124 0.000000
# 6 0.000000 0.000000 0.000000 0.000000 0.000000 0.033105
#
#
# Mechanical properties :
#
#
# Convention : Reuss Voigt Hill
#
# Bulk Modulus (GPa) = 35.73448 72.39528 54.06488
# Shear Modulus (GPa) = 113.40879 8.01989 60.71434
#
# Velocity S-wave (km/s) = 7.55580 2.00928 5.52844
# Velocity P-wave (km/s) = 9.70097 6.46736 8.24426
#
# Compressibility (1/GPa) = 0.02798418
#
# Stress axis : x y z
#
# Youngs Moduli (GPa) = 111.35034 67.70081 48.06960
#
# Poissons Ratio (x) = 0.54686 0.03285
# Poissons Ratio (y) = 0.89944 -0.02286
# Poissons Ratio (z) = 0.07609 -0.03220
#
# Static dielectric constant tensor:
#      x y z
#    x 1.680510 0.000000 0.000000 
#    y 0.000000 1.653470 0.000000 
#    z 0.000000 0.000000 1.748720 
# 
# From -- ./inp_files/14423.got.cif
#   From: 2010.05.17/outbox.cif.g08.bks.cpg/sg65_8_cif.got.tgz:14423.got - 2010.06.03 17:01:31.
