data_PCOD9483290
_publ_section_title
;
Structure prediction by ZEFSAII (Michael W. Deem and Ramdas Pophale) SiO2 
 PCOD9483290
Probable space group: C M M M
;
_chemical_formula_sum "Si O2"
_cell_formula_units_Z 88
_cell_length_a 14.391446
_cell_length_b 14.337988
_cell_length_c 18.090369
_cell_angle_alpha 90.000000
_cell_angle_beta 90.000000
_cell_angle_gamma 90.000000
_cell_volume 3732.845976
_symmetry_space_group_name_H-M "C M M M"
_symmetry_group_IT_number 65
_symmetry_cell_setting 'orthorhombic'
loop_
_space_group_symop_operation_xyz
x,y,z
-x,-y,z
x,-y,-z
-x,y,-z
-x,-y,-z
x,y,-z
-x,y,z
x,-y,z
1/2+x,1/2+y,z
1/2-x,1/2-y,z
1/2+x,1/2-y,-z
1/2-x,1/2+y,-z
1/2-x,1/2-y,-z
1/2+x,1/2+y,-z
1/2-x,1/2+y,z
1/2+x,1/2-y,z
loop_
_atom_site_type_symbol
_atom_site_label
_atom_site_fract_x
_atom_site_fract_y
_atom_site_fract_z
Si Si1 0.391756 0.500000 0.587335
Si Si2 0.137300 0.760888 0.084110
Si Si3 0.106016 0.602634 0.370502
Si Si4 0.642645 0.606224 0.792858
Si Si5 0.634090 0.102174 0.803006
Si Si6 0.890854 0.804383 0.640784
O O1 0.500000 0.500000 0.614541
O O2 0.394170 0.500000 0.500000
O O3 0.348847 0.401843 0.612285
O O4 0.250000 0.750000 0.082244
O O5 0.113391 0.855738 0.127397
O O6 0.104762 0.679126 0.138567
O O7 0.105441 0.756524 0.000000
O O8 0.146838 0.500000 0.389583
O O9 0.099634 0.607125 0.281048
O O10 0.148274 0.705011 0.386648
O O11 0.000000 0.601991 0.399454
O O12 0.612385 0.500000 0.777191
O O13 0.754350 0.607518 0.793691
O O14 0.613727 0.678566 0.729042
O O15 0.610784 0.000000 0.832359
O O16 0.000000 0.802889 0.619267
#
# Coordination Sequence:
#
# PCOD9483290 Si02
#       6
#     8  16  16  16  16  16
#     4   9  18  32  50  76 105 127 152 186 229 282
#     4   9  17  28  41  60  90 123 156 199 244 284
#     4   9  17  29  46  69  96 121 153 196 238 276
#     4  10  18  28  44  67  93 118 158 198 238 288
#     4   9  17  28  44  66  91 116 157 200 245 281
#     4  10  18  29  49  73  97 127 155 190 235 276
#
# _framework density 23.574504999999998
#
# number of rings (size 3 to 8) (size 9 to 14) (size 15 to 20)
#    0.000    2.636    2.727    0.000    0.000    0.727 
#    0.000    3.636    0.000    2.727    0.000   10.182 
#    0.000    0.000    0.000    0.000    0.000    0.000 
#
# Total GULP energy -245491.174019 kJ/mol
# GULP energy per Si atom -5579.344864 kJ/mol
# Density = 2.352085 g / cm^3
# Si number density = 23.574505 Si / 1000 Ang^3
#
#
#
# Elastic Constant Matrix: (Units=GPa)
#
#
# Indices 1 2 3 4 5 6 
#
# 1 83.7924 18.7716 -7.4250 0.0000 0.0000 0.0000
# 2 18.7716 222.8880 12.4858 0.0000 0.0000 0.0000
# 3 -7.4250 12.4858 35.2534 0.0000 0.0000 0.0000
# 4 0.0000 0.0000 0.0000 -0.4441 0.0000 0.0000
# 5 0.0000 0.0000 0.0000 0.0000 2.3379 0.0000
# 6 0.0000 0.0000 0.0000 0.0000 0.0000 6.0968
#
#
#
# Elastic Compliance Matrix: (Units=1/GPa)
#
#
# Indices 1 2 3 4 5 6 
#
# 1 0.012479 -0.001223 0.003061 0.000000 0.000000 0.000000
# 2 -0.001223 0.004697 -0.001921 0.000000 0.000000 0.000000
# 3 0.003061 -0.001921 0.029691 0.000000 0.000000 0.000000
# 4 0.000000 0.000000 0.000000 -2.251680 0.000000 0.000000
# 5 0.000000 0.000000 0.000000 0.000000 0.427741 0.000000
# 6 0.000000 0.000000 0.000000 0.000000 0.000000 0.164020
#
#
# Mechanical properties :
#
#
# Convention : Reuss Voigt Hill
#
# Bulk Modulus (GPa) = 21.41175 43.28873 32.35024
# Shear Modulus (GPa) = -3.13024 22.80487 9.83731
#
# Velocity S-wave (km/s) = -1.15356 3.11360 2.04497
# Velocity P-wave (km/s) = 2.70704 5.59718 4.39639
#
# Compressibility (1/GPa) = 0.04670332
#
# Stress axis : x y z
#
# Youngs Moduli (GPa) = 80.13204 212.89578 33.68000
#
# Poissons Ratio (x) = 0.26027 -0.10311
# Poissons Ratio (y) = 0.09796 0.06470
# Poissons Ratio (z) = -0.24531 0.40899
#
# Static dielectric constant tensor:
#      x y z
#    x 1.954160 0.000000 0.000000 
#    y 0.000000 1.954350 0.000000 
#    z 0.000000 0.000000 1.834620 
# 
# From -- ./inp_files/52996.got.cif
#   From: 2010.05.17/outbox.cif.g08.bks.cpg/sg65_27_cif.got.tgz:52996.got - 2010.06.03 17:01:31.
