data_PCOD9483564
_publ_section_title
;
Structure prediction by ZEFSAII (Michael W. Deem and Ramdas Pophale) SiO2 
 PCOD9483564
Probable space group: C M M M
;
_chemical_formula_sum "Si O2"
_cell_formula_units_Z 92
_cell_length_a 29.025896
_cell_length_b 25.701793
_cell_length_c 7.488070
_cell_angle_alpha 90.000000
_cell_angle_beta 90.000000
_cell_angle_gamma 90.000000
_cell_volume 5586.231790
_symmetry_space_group_name_H-M "C M M M"
_symmetry_group_IT_number 65
_symmetry_cell_setting 'orthorhombic'
loop_
_space_group_symop_operation_xyz
x,y,z
-x,-y,z
x,-y,-z
-x,y,-z
-x,-y,-z
x,y,-z
-x,y,z
x,-y,z
1/2+x,1/2+y,z
1/2-x,1/2-y,z
1/2+x,1/2-y,-z
1/2-x,1/2+y,-z
1/2-x,1/2-y,-z
1/2+x,1/2+y,-z
1/2-x,1/2+y,z
1/2+x,1/2-y,z
loop_
_atom_site_type_symbol
_atom_site_label
_atom_site_fract_x
_atom_site_fract_y
_atom_site_fract_z
Si Si1 0.447377 0.500000 0.785350
Si Si2 0.000000 0.775316 0.000000
Si Si3 0.251383 0.833652 0.218192
Si Si4 0.780362 0.942265 0.793704
Si Si5 0.079647 0.794343 0.292583
Si Si6 0.675111 0.249820 0.783891
Si Si7 0.619098 0.594536 0.706994
O O1 0.500000 0.500000 0.722639
O O2 0.419901 0.449171 0.724971
O O3 0.447500 0.500000 0.000000
O O4 0.959772 0.777428 0.157498
O O5 0.246094 0.892465 0.284176
O O6 0.296662 0.801553 0.271083
O O7 0.207132 0.798866 0.270900
O O8 0.250735 0.834520 0.000000
O O9 0.834240 0.926329 0.794088
O O10 0.775422 0.000000 0.713684
O O11 0.765783 0.945921 0.000000
O O12 0.064442 0.799730 0.500000
O O13 0.123892 0.756595 0.286207
O O14 0.099386 0.850584 0.228420
O O15 0.673211 0.250247 0.000000
O O16 0.630816 0.601685 0.500000
#
# Coordination Sequence:
#
# PCOD9483564 Si02
#       7
#     8   4  16  16  16  16  16
#     4  11  25  37  51  63  77 115 173 221 266 316
#     4  12  26  40  60  69 102 132 165 218 272 306
#     4   8  15  26  48  76 100 130 171 204 247 310
#     4  10  18  29  48  71  97 132 171 206 245 302
#     4  11  24  38  55  78  99 130 171 212 261 315
#     4   9  15  30  52  73  99 133 164 207 257 299
#     4  11  23  35  47  66  94 123 160 215 266 304
#
# _framework density 16.469062999999998
#
# number of rings (size 3 to 8) (size 9 to 14) (size 15 to 20)
#    0.000    2.000    3.478    2.087    3.652    0.696 
#    0.000    2.609    0.000    0.000    0.000    0.000 
#    0.000    0.000    0.000    1.565    0.000    2.783 
#
# Total GULP energy -256162.768067 kJ/mol
# GULP energy per Si atom -5568.755828 kJ/mol
# Density = 1.643158 g / cm^3
# Si number density = 16.469063 Si / 1000 Ang^3
#
#
#
# Elastic Constant Matrix: (Units=GPa)
#
#
# Indices 1 2 3 4 5 6 
#
# 1 104.1590 63.0073 18.8081 0.0000 0.0000 0.0000
# 2 63.0073 98.8934 12.9586 0.0000 0.0000 0.0000
# 3 18.8081 12.9586 71.1401 0.0000 0.0000 0.0000
# 4 0.0000 0.0000 0.0000 6.9602 0.0000 0.0000
# 5 0.0000 0.0000 0.0000 0.0000 -184.3587 0.0000
# 6 0.0000 0.0000 0.0000 0.0000 0.0000 -4.0327
#
#
#
# Elastic Compliance Matrix: (Units=1/GPa)
#
#
# Indices 1 2 3 4 5 6 
#
# 1 0.016023 -0.009889 -0.002435 0.000000 0.000000 0.000000
# 2 -0.009889 0.016463 -0.000384 0.000000 0.000000 0.000000
# 3 -0.002435 -0.000384 0.014770 0.000000 0.000000 0.000000
# 4 0.000000 0.000000 0.000000 0.143675 0.000000 0.000000
# 5 0.000000 0.000000 0.000000 0.000000 -0.005424 0.000000
# 6 0.000000 0.000000 0.000000 0.000000 0.000000 -0.247971
#
#
# Mechanical properties :
#
#
# Convention : Reuss Voigt Hill
#
# Bulk Modulus (GPa) = 45.78870 51.52672 48.65771
# Shear Modulus (GPa) = -167.96713 -24.32502 -96.14608
#
# Velocity S-wave (km/s) = -10.10994 -3.84736 -7.64896
# Velocity P-wave (km/s) = 10.41240 3.40861 6.95699
#
# Compressibility (1/GPa) = 0.02183945
#
# Stress axis : x y z
#
# Youngs Moduli (GPa) = 62.41220 60.74250 67.70276
#
# Poissons Ratio (x) = 0.60070 0.16483
# Poissons Ratio (y) = 0.61721 0.02602
# Poissons Ratio (z) = 0.15195 0.02334
#
# Static dielectric constant tensor:
#      x y z
#    x 1.530420 0.000000 0.000000 
#    y 0.000000 1.576690 0.000000 
#    z 0.000000 0.000000 1.637910 
# 
# From -- ./inp_files/16939.got.cif
#   From: 2010.05.17/outbox.cif.g08.bks.cpg/sg65_9_cif.got.tgz:16939.got - 2010.06.03 17:01:31.
