data_PCOD9483681
_publ_section_title
;
Structure prediction by ZEFSAII (Michael W. Deem and Ramdas Pophale) SiO2 
 PCOD9483681
Probable space group: C M M M
;
_chemical_formula_sum "Si O2"
_cell_formula_units_Z 104
_cell_length_a 28.197210
_cell_length_b 8.595386
_cell_length_c 27.160549
_cell_angle_alpha 90.000000
_cell_angle_beta 90.000000
_cell_angle_gamma 90.000000
_cell_volume 6582.791014
_symmetry_space_group_name_H-M "C M M M"
_symmetry_group_IT_number 65
_symmetry_cell_setting 'orthorhombic'
loop_
_space_group_symop_operation_xyz
x,y,z
-x,-y,z
x,-y,-z
-x,y,-z
-x,-y,-z
x,y,-z
-x,y,z
x,-y,z
1/2+x,1/2+y,z
1/2-x,1/2-y,z
1/2+x,1/2-y,-z
1/2-x,1/2+y,-z
1/2-x,1/2-y,-z
1/2+x,1/2+y,-z
1/2-x,1/2+y,z
1/2+x,1/2-y,z
loop_
_atom_site_type_symbol
_atom_site_label
_atom_site_fract_x
_atom_site_fract_y
_atom_site_fract_z
Si Si1 0.555056 0.312457 0.943498
Si Si2 0.696135 0.185712 0.500000
Si Si3 0.803698 0.814574 0.397067
Si Si4 0.301839 0.314718 0.796524
Si Si5 0.609594 0.813954 0.851170
Si Si6 0.553272 0.811086 0.753616
Si Si7 0.852658 0.687195 0.300359
O O1 0.500000 0.269001 0.934198
O O2 0.558041 0.500000 0.939982
O O3 0.588688 0.236895 0.903184
O O4 0.566328 0.269288 0.000000
O O5 0.750000 0.250000 0.500000
O O6 0.675989 0.248483 0.551429
O O7 0.696616 0.000000 0.500000
O O8 0.750000 0.750000 0.391003
O O9 0.834214 0.760017 0.350689
O O10 0.801178 0.000000 0.399751
O O11 0.300611 0.500000 0.791924
O O12 0.250000 0.250000 0.808191
O O13 0.340740 0.264006 0.836709
O O14 0.319652 0.241637 0.744889
O O15 0.572723 0.767505 0.807702
O O16 0.615105 0.000000 0.848853
O O17 0.500000 0.753542 0.744922
O O18 0.593900 0.764382 0.714925
O O19 0.551915 0.000000 0.752594
O O20 0.850758 0.500000 0.303462
#
# Coordination Sequence:
#
# PCOD9483681 Si02
#       7
#    16   8  16  16  16  16  16
#     4   9  18  32  49  71 100 131 161 195 237 282
#     4  10  18  30  46  66  91 120 155 192 234 279
#     4  11  20  31  46  66  94 126 159 193 233 278
#     4  11  21  34  50  69  95 126 160 196 236 281
#     4  10  19  31  49  73  98 125 159 196 236 283
#     4   8  15  28  46  68  94 122 152 189 230 272
#     4  10  19  31  47  70  97 125 159 195 233 277
#
# _framework density 15.798769
#
# number of rings (size 3 to 8) (size 9 to 14) (size 15 to 20)
#    0.000    2.154    0.000    7.615    0.000    1.231 
#    0.000    0.769    0.000    9.692    0.000    0.538 
#    0.000    4.308    0.000    0.000    0.000    0.000 
#
# Total GULP energy -290102.065406 kJ/mol
# GULP energy per Si atom -5578.885873 kJ/mol
# Density = 1.576281 g / cm^3
# Si number density = 15.798769 Si / 1000 Ang^3
#
#
#
# Elastic Constant Matrix: (Units=GPa)
#
#
# Indices 1 2 3 4 5 6 
#
# 1 113.5947 36.9068 66.5925 0.0000 0.0000 0.0000
# 2 36.9068 93.7374 42.0908 0.0000 0.0000 0.0000
# 3 66.5925 42.0908 123.3871 0.0000 0.0000 0.0000
# 4 0.0000 0.0000 0.0000 27.9959 0.0000 0.0000
# 5 0.0000 0.0000 0.0000 0.0000 21.6220 0.0000
# 6 0.0000 0.0000 0.0000 0.0000 0.0000 16.5184
#
#
#
# Elastic Compliance Matrix: (Units=1/GPa)
#
#
# Indices 1 2 3 4 5 6 
#
# 1 0.013312 -0.002380 -0.006373 0.000000 0.000000 0.000000
# 2 -0.002380 0.013023 -0.003158 0.000000 0.000000 0.000000
# 3 -0.006373 -0.003158 0.012621 0.000000 0.000000 0.000000
# 4 0.000000 0.000000 0.000000 0.035719 0.000000 0.000000
# 5 0.000000 0.000000 0.000000 0.000000 0.046249 0.000000
# 6 0.000000 0.000000 0.000000 0.000000 0.000000 0.060539
#
#
# Mechanical properties :
#
#
# Convention : Reuss Voigt Hill
#
# Bulk Modulus (GPa) = 66.07125 69.09993 67.58559
# Shear Modulus (GPa) = 23.77202 25.56920 24.67061
#
# Velocity S-wave (km/s) = 3.88322 4.02734 3.95594
# Velocity P-wave (km/s) = 7.87510 8.09064 7.98360
#
# Compressibility (1/GPa) = 0.01513518
#
# Stress axis : x y z
#
# Youngs Moduli (GPa) = 75.11768 76.78598 79.23022
#
# Poissons Ratio (x) = 0.18274 0.50493
# Poissons Ratio (y) = 0.17876 0.25022
# Poissons Ratio (z) = 0.47872 0.24251
#
# Static dielectric constant tensor:
#      x y z
#    x 1.509370 0.000000 0.000000 
#    y 0.000000 1.534180 0.000000 
#    z 0.000000 0.000000 1.524680 
# 
# From -- ./inp_files/76027.got.cif
#   From: 2010.05.17/outbox.cif.g08.bks.cpg/sg65_39_cif.got.tgz:76027.got - 2010.06.03 17:01:31.
