data_PCOD9483719
_publ_section_title
;
Structure prediction by ZEFSAII (Michael W. Deem and Ramdas Pophale) SiO2 
 PCOD9483719
Probable space group: C M M M
;
_chemical_formula_sum "Si O2"
_cell_formula_units_Z 80
_cell_length_a 8.325104
_cell_length_b 29.403265
_cell_length_c 19.024764
_cell_angle_alpha 90.000000
_cell_angle_beta 90.000000
_cell_angle_gamma 90.000000
_cell_volume 4656.981404
_symmetry_space_group_name_H-M "C M M M"
_symmetry_group_IT_number 65
_symmetry_cell_setting 'orthorhombic'
loop_
_space_group_symop_operation_xyz
x,y,z
-x,-y,z
x,-y,-z
-x,y,-z
-x,-y,-z
x,y,-z
-x,y,z
x,-y,z
1/2+x,1/2+y,z
1/2-x,1/2-y,z
1/2+x,1/2-y,-z
1/2-x,1/2+y,-z
1/2-x,1/2-y,-z
1/2+x,1/2+y,-z
1/2-x,1/2+y,z
1/2+x,1/2-y,z
loop_
_atom_site_type_symbol
_atom_site_label
_atom_site_fract_x
_atom_site_fract_y
_atom_site_fract_z
Si Si1 0.807552 0.551326 0.151868
Si Si2 0.196745 0.357718 0.785588
Si Si3 0.694104 0.197923 0.922392
Si Si4 0.816148 0.055293 0.000000
Si Si5 0.192209 0.302177 0.649710
Si Si6 0.690563 0.697720 0.500000
O O1 0.742929 0.500000 0.161620
O O2 0.750580 0.590090 0.205157
O O3 0.000000 0.548758 0.157252
O O4 0.768531 0.567852 0.072708
O O5 0.249765 0.330658 0.855387
O O6 0.250154 0.332188 0.715291
O O7 0.000000 0.357306 0.785165
O O8 0.500000 0.197041 0.921914
O O9 0.750000 0.250000 0.915400
O O10 0.747450 0.181349 0.000000
O O11 0.000000 0.070580 0.000000
O O12 0.814403 0.000000 0.000000
O O13 0.250000 0.250000 0.657168
O O14 0.247547 0.321150 0.574098
O O15 0.000000 0.301285 0.650156
O O16 0.500000 0.697318 0.500000
O O17 0.750000 0.750000 0.500000
#
# Coordination Sequence:
#
# PCOD9483719 Si02
#       6
#    16  16  16   8  16   8
#     4   9  17  30  48  67  86 114 153 191 228 275
#     4   9  18  29  45  68  90 117 150 187 229 266
#     4   9  17  29  43  58  82 117 151 185 218 255
#     4   9  17  29  43  61  86 113 144 189 240 277
#     4  10  18  30  47  69  97 124 151 182 222 268
#     4  10  18  30  48  70  95 122 151 181 220 267
#
# _framework density 17.178508999999998
#
# number of rings (size 3 to 8) (size 9 to 14) (size 15 to 20)
#    0.000    2.700    0.000    3.600    1.400    1.200 
#    0.000    4.000    0.000    0.000    0.000    0.700 
#    0.000    5.600    0.000    0.000    0.000    0.000 
#
# Total GULP energy -222948.388002 kJ/mol
# GULP energy per Si atom -5573.709700 kJ/mol
# Density = 1.713941 g / cm^3
# Si number density = 17.178509 Si / 1000 Ang^3
#
#
#
# Elastic Constant Matrix: (Units=GPa)
#
#
# Indices 1 2 3 4 5 6 
#
# 1 25.9054 9.1665 18.3286 0.0000 0.0000 0.0000
# 2 9.1665 84.1252 78.9566 0.0000 0.0000 0.0000
# 3 18.3286 78.9566 159.7418 0.0000 0.0000 0.0000
# 4 0.0000 0.0000 0.0000 13.5880 0.0000 0.0000
# 5 0.0000 0.0000 0.0000 0.0000 12.1206 0.0000
# 6 0.0000 0.0000 0.0000 0.0000 0.0000 11.0026
#
#
#
# Elastic Compliance Matrix: (Units=1/GPa)
#
#
# Indices 1 2 3 4 5 6 
#
# 1 0.042013 -0.000100 -0.004771 0.000000 0.000000 0.000000
# 2 -0.000100 0.022174 -0.010949 0.000000 0.000000 0.000000
# 3 -0.004771 -0.010949 0.012219 0.000000 0.000000 0.000000
# 4 0.000000 0.000000 0.000000 0.073594 0.000000 0.000000
# 5 0.000000 0.000000 0.000000 0.000000 0.082504 0.000000
# 6 0.000000 0.000000 0.000000 0.000000 0.000000 0.090887
#
#
# Mechanical properties :
#
#
# Convention : Reuss Voigt Hill
#
# Bulk Modulus (GPa) = 22.33790 53.63063 37.98427
# Shear Modulus (GPa) = 13.51524 18.23031 15.87278
#
# Velocity S-wave (km/s) = 2.80795 3.26118 3.04302
# Velocity P-wave (km/s) = 4.85226 6.74298 5.87419
#
# Compressibility (1/GPa) = 0.04476696
#
# Stress axis : x y z
#
# Youngs Moduli (GPa) = 23.80212 45.09837 81.83886
#
# Poissons Ratio (x) = 0.00450 0.39047
# Poissons Ratio (y) = 0.00237 0.89601
# Poissons Ratio (z) = 0.11357 0.49376
#
# Static dielectric constant tensor:
#      x y z
#    x 1.628460 0.000000 0.000000 
#    y 0.000000 1.601000 0.000000 
#    z 0.000000 0.000000 1.600280 
# 
# From -- ./inp_files/50218.got.cif
#   From: 2010.05.17/outbox.cif.g08.bks.cpg/sg65_26_cif.got.tgz:50218.got - 2010.06.03 17:01:31.
