data_PCOD9483181
_publ_section_title
;
Structure prediction by ZEFSAII (Michael W. Deem and Ramdas Pophale) SiO2 
 PCOD9483181
Probable space group: C M M M
;
_chemical_formula_sum "Si O2"
_cell_formula_units_Z 96
_cell_length_a 21.724851
_cell_length_b 25.876082
_cell_length_c 7.257525
_cell_angle_alpha 90.000000
_cell_angle_beta 90.000000
_cell_angle_gamma 90.000000
_cell_volume 4079.846897
_symmetry_space_group_name_H-M "C M M M"
_symmetry_group_IT_number 65
_symmetry_cell_setting 'orthorhombic'
loop_
_space_group_symop_operation_xyz
x,y,z
-x,-y,z
x,-y,-z
-x,y,-z
-x,-y,-z
x,y,-z
-x,y,z
x,-y,z
1/2+x,1/2+y,z
1/2-x,1/2-y,z
1/2+x,1/2-y,-z
1/2-x,1/2+y,-z
1/2-x,1/2-y,-z
1/2+x,1/2+y,-z
1/2-x,1/2+y,z
1/2+x,1/2-y,z
loop_
_atom_site_type_symbol
_atom_site_label
_atom_site_fract_x
_atom_site_fract_y
_atom_site_fract_z
Si Si1 0.677796 0.753403 0.723290
Si Si2 0.570990 0.556982 0.222173
Si Si3 0.830052 0.859378 0.708860
Si Si4 0.932365 0.671788 0.275314
Si Si5 0.905169 0.556670 0.277179
Si Si6 0.760644 0.556299 0.723682
O O1 0.678406 0.759356 0.500000
O O2 0.750000 0.750000 0.779485
O O3 0.653932 0.696785 0.781717
O O4 0.628663 0.796786 0.785767
O O5 0.500000 0.562635 0.274930
O O6 0.592036 0.500000 0.282945
O O7 0.612267 0.602853 0.292974
O O8 0.573905 0.557946 0.000000
O O9 0.808971 0.848751 0.500000
O O10 0.776395 0.894433 0.794400
O O11 0.930334 0.671806 0.500000
O O12 0.930766 0.611712 0.215879
O O13 0.000000 0.693574 0.223813
O O14 0.911966 0.556049 0.500000
O O15 0.927736 0.500000 0.213788
O O16 0.832506 0.558922 0.234549
O O17 0.755400 0.556527 0.500000
O O18 0.737224 0.500000 0.786251
#
# Coordination Sequence:
#
# PCOD9483181 Si02
#       6
#    16  16  16  16  16  16
#     4   9  17  28  41  59  87 121 151 183 231 284
#     4   9  19  35  50  64  89 125 157 187 235 297
#     4  10  18  27  45  70  90 113 152 197 230 264
#     4   9  16  24  33  47  72 106 142 180 219 260
#     4   8  13  21  33  49  72 104 138 171 211 260
#     4   8  13  21  34  55  81 102 125 167 218 257
#
# _framework density 23.530294999999999
#
# number of rings (size 3 to 8) (size 9 to 14) (size 15 to 20)
#    0.000    3.167    0.000    3.000    0.000    6.333 
#    0.000    4.167    0.000    0.500    0.000    0.000 
#    0.000    0.000    0.000    0.000    0.000    0.667 
#
# Total GULP energy -267775.915946 kJ/mol
# GULP energy per Si atom -5578.664916 kJ/mol
# Density = 2.347674 g / cm^3
# Si number density = 23.530295 Si / 1000 Ang^3
#
#
#
# Elastic Constant Matrix: (Units=GPa)
#
#
# Indices 1 2 3 4 5 6 
#
# 1 145.9908 91.7660 -0.7768 0.0000 0.0000 0.0000
# 2 91.7660 190.7844 2.0788 0.0000 0.0000 0.0000
# 3 -0.7768 2.0788 101.8706 0.0000 0.0000 0.0000
# 4 0.0000 0.0000 0.0000 -17.8297 0.0000 0.0000
# 5 0.0000 0.0000 0.0000 0.0000 3.4961 0.0000
# 6 0.0000 0.0000 0.0000 0.0000 0.0000 17.0907
#
#
#
# Elastic Compliance Matrix: (Units=1/GPa)
#
#
# Indices 1 2 3 4 5 6 
#
# 1 0.009821 -0.004726 0.000171 0.000000 0.000000 0.000000
# 2 -0.004726 0.007517 -0.000189 0.000000 0.000000 0.000000
# 3 0.000171 -0.000189 0.009822 0.000000 0.000000 0.000000
# 4 0.000000 0.000000 0.000000 -0.056086 0.000000 0.000000
# 5 0.000000 0.000000 0.000000 0.000000 0.286033 0.000000
# 6 0.000000 0.000000 0.000000 0.000000 0.000000 0.058511
#
#
# Mechanical properties :
#
#
# Convention : Reuss Voigt Hill
#
# Bulk Modulus (GPa) = 56.58798 69.42023 63.00411
# Shear Modulus (GPa) = 15.10592 23.58993 19.34793
#
# Velocity S-wave (km/s) = 2.53648 3.16972 2.87061
# Velocity P-wave (km/s) = 5.71660 6.55459 6.14988
#
# Compressibility (1/GPa) = 0.01767160
#
# Stress axis : x y z
#
# Youngs Moduli (GPa) = 101.82098 133.03796 101.81701
#
# Poissons Ratio (x) = 0.62871 -0.01744
# Poissons Ratio (y) = 0.48118 0.01929
# Poissons Ratio (z) = -0.01744 0.02520
#
# Static dielectric constant tensor:
#      x y z
#    x 1.861800 0.000000 0.000000 
#    y 0.000000 1.883290 0.000000 
#    z 0.000000 0.000000 1.931040 
# 
# From -- ./inp_files/12225.got.cif
#   From: 2010.05.17/outbox.cif.g08.bks.cpg/sg65_7_cif.got.tgz:12225.got - 2010.06.03 17:01:31.
