data_PCOD9483642
_publ_section_title
;
Structure prediction by ZEFSAII (Michael W. Deem and Ramdas Pophale) SiO2 
 PCOD9483642
Probable space group: C M M M
;
_chemical_formula_sum "Si O2"
_cell_formula_units_Z 64
_cell_length_a 25.645508
_cell_length_b 7.614304
_cell_length_c 15.328823
_cell_angle_alpha 90.000000
_cell_angle_beta 90.000000
_cell_angle_gamma 90.000000
_cell_volume 2993.300565
_symmetry_space_group_name_H-M "C M M M"
_symmetry_group_IT_number 65
_symmetry_cell_setting 'orthorhombic'
loop_
_space_group_symop_operation_xyz
x,y,z
-x,-y,z
x,-y,-z
-x,y,-z
-x,-y,-z
x,y,-z
-x,y,z
x,-y,z
1/2+x,1/2+y,z
1/2-x,1/2-y,z
1/2+x,1/2-y,-z
1/2-x,1/2+y,-z
1/2-x,1/2-y,-z
1/2+x,1/2+y,-z
1/2-x,1/2+y,z
1/2+x,1/2-y,z
loop_
_atom_site_type_symbol
_atom_site_label
_atom_site_fract_x
_atom_site_fract_y
_atom_site_fract_z
Si Si1 0.000000 0.295511 0.165433
Si Si2 0.887087 0.216087 0.350596
Si Si3 0.113577 0.210761 0.849475
Si Si4 0.688939 0.288767 0.000000
Si Si5 0.500000 0.698931 0.364167
Si Si6 0.189311 0.789729 0.500000
O O1 0.054709 0.253650 0.119926
O O2 0.000000 0.194490 0.257930
O O3 0.000000 0.500000 0.187304
O O4 0.880667 0.274023 0.250358
O O5 0.841140 0.273525 0.414117
O O6 0.943720 0.276958 0.385532
O O7 0.888804 0.000000 0.349723
O O8 0.117418 0.000000 0.846486
O O9 0.157698 0.276996 0.915003
O O10 0.750000 0.250000 0.000000
O O11 0.684045 0.500000 0.000000
O O12 0.500000 0.500000 0.397795
O O13 0.250000 0.750000 0.500000
O O14 0.183927 0.000000 0.500000
#
# Coordination Sequence:
#
# PCOD9483642 Si02
#       6
#     8  16  16   8   8   8
#     4  10  18  29  50  81 107 128 158 203 249 293
#     4   8  15  29  51  73  95 122 158 198 238 285
#     4   9  18  35  54  73  99 134 166 198 244 301
#     4  10  22  37  54  73  97 130 172 212 247 288
#     4   8  14  29  51  73  97 126 157 197 246 299
#     4  10  20  33  47  69  97 128 165 202 236 282
#
# _framework density 21.381080000000001
#
# number of rings (size 3 to 8) (size 9 to 14) (size 15 to 20)
#    0.000    3.000    0.000    2.625    0.000    3.000 
#    0.000   10.000    0.000    0.000    0.000   14.875 
#    0.000    0.000    0.000    0.000    0.000    0.000 
#
# Total GULP energy -178501.121617 kJ/mol
# GULP energy per Si atom -5578.160051 kJ/mol
# Density = 2.133242 g / cm^3
# Si number density = 21.381080 Si / 1000 Ang^3
#
#
#
# Elastic Constant Matrix: (Units=GPa)
#
#
# Indices 1 2 3 4 5 6 
#
# 1 242.2792 -4.7939 113.5532 0.0000 0.0000 0.0000
# 2 -4.7939 49.9012 10.0044 0.0000 0.0000 0.0000
# 3 113.5532 10.0044 125.7347 0.0000 0.0000 0.0000
# 4 0.0000 0.0000 0.0000 -2.4173 0.0000 0.0000
# 5 0.0000 0.0000 0.0000 0.0000 39.8614 0.0000
# 6 0.0000 0.0000 0.0000 0.0000 0.0000 25.2116
#
#
#
# Elastic Compliance Matrix: (Units=1/GPa)
#
#
# Indices 1 2 3 4 5 6 
#
# 1 0.007362 0.002073 -0.006814 0.000000 0.000000 0.000000
# 2 0.002073 0.020948 -0.003539 0.000000 0.000000 0.000000
# 3 -0.006814 -0.003539 0.014388 0.000000 0.000000 0.000000
# 4 0.000000 0.000000 0.000000 -0.413687 0.000000 0.000000
# 5 0.000000 0.000000 0.000000 0.000000 0.025087 0.000000
# 6 0.000000 0.000000 0.000000 0.000000 0.000000 0.039664
#
#
# Mechanical properties :
#
#
# Convention : Reuss Voigt Hill
#
# Bulk Modulus (GPa) = 38.25631 72.82694 55.54162
# Shear Modulus (GPa) = -17.79585 32.47458 7.33936
#
# Velocity S-wave (km/s) = -2.88812 3.90147 1.85475
# Velocity P-wave (km/s) = 2.60956 7.37771 5.53355
#
# Compressibility (1/GPa) = 0.02613948
#
# Stress axis : x y z
#
# Youngs Moduli (GPa) = 135.83271 47.73647 69.50020
#
# Poissons Ratio (x) = -0.09897 0.47355
# Poissons Ratio (y) = -0.28162 0.24598
# Poissons Ratio (z) = 0.92553 0.16895
#
# Static dielectric constant tensor:
#      x y z
#    x 1.768620 0.000000 0.000000 
#    y 0.000000 1.822670 0.000000 
#    z 0.000000 0.000000 1.778670 
# 
# From -- ./inp_files/45167.got.cif
#   From: 2010.05.17/outbox.cif.g08.bks.cpg/sg65_23_cif.got.tgz:45167.got - 2010.06.03 17:01:31.
