data_PCOD9483381
_publ_section_title
;
Structure prediction by ZEFSAII (Michael W. Deem and Ramdas Pophale) SiO2 
 PCOD9483381
Probable space group: C M M M
;
_chemical_formula_sum "Si O2"
_cell_formula_units_Z 120
_cell_length_a 7.769849
_cell_length_b 29.699036
_cell_length_c 27.192105
_cell_angle_alpha 90.000000
_cell_angle_beta 90.000000
_cell_angle_gamma 90.000000
_cell_volume 6274.769258
_symmetry_space_group_name_H-M "C M M M"
_symmetry_group_IT_number 65
_symmetry_cell_setting 'orthorhombic'
loop_
_space_group_symop_operation_xyz
x,y,z
-x,-y,z
x,-y,-z
-x,y,-z
-x,-y,-z
x,y,-z
-x,y,z
x,-y,z
1/2+x,1/2+y,z
1/2-x,1/2-y,z
1/2+x,1/2-y,-z
1/2-x,1/2+y,-z
1/2-x,1/2-y,-z
1/2+x,1/2+y,-z
1/2-x,1/2+y,z
1/2+x,1/2-y,z
loop_
_atom_site_type_symbol
_atom_site_label
_atom_site_fract_x
_atom_site_fract_y
_atom_site_fract_z
Si Si1 0.295558 0.698327 0.243537
Si Si2 0.206044 0.448260 0.107050
Si Si3 0.704763 0.448727 0.000000
Si Si4 0.207332 0.802186 0.646462
Si Si5 0.205367 0.608209 0.199533
Si Si6 0.790514 0.448171 0.708218
Si Si7 0.796230 0.143196 0.446689
Si Si8 0.791645 0.551185 0.596600
O O1 0.500000 0.695619 0.245992
O O2 0.250000 0.750000 0.232597
O O3 0.225675 0.686944 0.298582
O O4 0.235989 0.661148 0.204952
O O5 0.273167 0.500000 0.110268
O O6 0.241644 0.429304 0.052544
O O7 0.272648 0.416858 0.150984
O O8 0.000000 0.451091 0.111971
O O9 0.776868 0.500000 0.000000
O O10 0.500000 0.450884 0.000000
O O11 0.250000 0.750000 0.637497
O O12 0.276287 0.831929 0.601504
O O13 0.000000 0.807238 0.647944
O O14 0.274025 0.584342 0.249091
O O15 0.000000 0.601346 0.199707
O O16 0.744631 0.500000 0.719278
O O17 0.733787 0.437917 0.652621
O O18 0.000000 0.446242 0.707420
O O19 0.723937 0.156603 0.500000
O O20 0.773040 0.090053 0.438625
O O21 0.000000 0.152995 0.447616
O O22 0.737826 0.500000 0.585133
O O23 0.000000 0.551762 0.595930
#
# Coordination Sequence:
#
# PCOD9483381 Si02
#       8
#    16  16   8  16  16  16  16  16
#     4  10  20  34  51  70  94 123 155 192 235 284
#     4   9  17  29  46  70 101 136 171 204 238 278
#     4   9  17  29  45  65  94 135 178 215 245 273
#     4   9  19  35  53  72  93 118 149 186 231 285
#     4  10  18  28  47  74 100 126 158 196 237 281
#     4   8  14  26  45  69  96 124 153 186 227 277
#     4  10  21  35  49  67  92 119 148 186 233 283
#     4   9  18  32  49  68  90 119 156 194 228 267
#
# _framework density 19.124207999999999
#
# number of rings (size 3 to 8) (size 9 to 14) (size 15 to 20)
#    0.000    2.733    0.000    2.600    0.000    5.067 
#    0.000    1.333    0.000    2.000    0.000    0.467 
#    0.000    0.000    0.000    0.000    0.000    0.000 
#
# Total GULP energy -334638.966295 kJ/mol
# GULP energy per Si atom -5577.316105 kJ/mol
# Density = 1.908068 g / cm^3
# Si number density = 19.124208 Si / 1000 Ang^3
#
#
#
# Elastic Constant Matrix: (Units=GPa)
#
#
# Indices 1 2 3 4 5 6 
#
# 1 28.0382 -4.9237 4.4062 0.0000 0.0000 0.0000
# 2 -4.9237 73.0958 68.0961 0.0000 0.0000 0.0000
# 3 4.4062 68.0961 99.4918 0.0000 0.0000 0.0000
# 4 0.0000 0.0000 0.0000 18.6624 0.0000 0.0000
# 5 0.0000 0.0000 0.0000 0.0000 -0.4527 0.0000
# 6 0.0000 0.0000 0.0000 0.0000 0.0000 16.0587
#
#
#
# Elastic Compliance Matrix: (Units=1/GPa)
#
#
# Indices 1 2 3 4 5 6 
#
# 1 0.039272 0.011771 -0.009796 0.000000 0.000000 0.000000
# 2 0.011771 0.041281 -0.028776 0.000000 0.000000 0.000000
# 3 -0.009796 -0.028776 0.030180 0.000000 0.000000 0.000000
# 4 0.000000 0.000000 0.000000 0.053584 0.000000 0.000000
# 5 0.000000 0.000000 0.000000 0.000000 -2.208754 0.000000
# 6 0.000000 0.000000 0.000000 0.000000 0.000000 0.062271
#
#
# Mechanical properties :
#
#
# Convention : Reuss Voigt Hill
#
# Bulk Modulus (GPa) = 17.50315 37.30923 27.40619
# Shear Modulus (GPa) = -2.61846 15.72348 6.55251
#
# Velocity S-wave (km/s) = -1.17139 2.87047 1.85303
# Velocity P-wave (km/s) = 2.70974 5.52607 4.35202
#
# Compressibility (1/GPa) = 0.05713257
#
# Stress axis : x y z
#
# Youngs Moduli (GPa) = 25.46334 24.22411 33.13427
#
# Poissons Ratio (x) = -0.28515 0.32458
# Poissons Ratio (y) = -0.29974 0.95347
# Poissons Ratio (z) = 0.24944 0.69707
#
# Static dielectric constant tensor:
#      x y z
#    x 1.707270 0.000000 0.000000 
#    y 0.000000 1.623170 0.000000 
#    z 0.000000 0.000000 1.697020 
# 
# From -- ./inp_files/73923.got.cif
#   From: 2010.05.17/outbox.cif.g08.bks.cpg/sg65_37_cif.got.tgz:73923.got - 2010.06.03 17:01:31.
