data_PCOD9483295
_publ_section_title
;
Structure prediction by ZEFSAII (Michael W. Deem and Ramdas Pophale) SiO2 
 PCOD9483295
Probable space group: C M M M
;
_chemical_formula_sum "Si O2"
_cell_formula_units_Z 96
_cell_length_a 26.390959
_cell_length_b 9.971649
_cell_length_c 22.833949
_cell_angle_alpha 90.000000
_cell_angle_beta 90.000000
_cell_angle_gamma 90.000000
_cell_volume 6009.013528
_symmetry_space_group_name_H-M "C M M M"
_symmetry_group_IT_number 65
_symmetry_cell_setting 'orthorhombic'
loop_
_space_group_symop_operation_xyz
x,y,z
-x,-y,z
x,-y,-z
-x,y,-z
-x,-y,-z
x,y,-z
-x,y,z
x,-y,z
1/2+x,1/2+y,z
1/2-x,1/2-y,z
1/2+x,1/2-y,-z
1/2-x,1/2+y,-z
1/2-x,1/2-y,-z
1/2+x,1/2+y,-z
1/2-x,1/2+y,z
1/2+x,1/2-y,z
loop_
_atom_site_type_symbol
_atom_site_label
_atom_site_fract_x
_atom_site_fract_y
_atom_site_fract_z
Si Si1 0.561272 0.751877 0.354107
Si Si2 0.404312 0.842235 0.228595
Si Si3 0.204776 0.658304 0.830104
Si Si4 0.061370 0.500000 0.434041
Si Si5 0.938419 0.000000 0.567721
Si Si6 0.337198 0.656504 0.931875
Si Si7 0.056625 0.154892 0.126466
O O1 0.500000 0.750047 0.346272
O O2 0.585261 0.773689 0.290785
O O3 0.575696 0.873683 0.395939
O O4 0.576377 0.624948 0.392484
O O5 0.345463 0.835816 0.209824
O O6 0.434043 0.759226 0.178859
O O7 0.419216 0.000000 0.230712
O O8 0.217196 0.500000 0.838276
O O9 0.250000 0.750000 0.805145
O O10 0.190021 0.735686 0.890380
O O11 0.080997 0.500000 0.500000
O O12 0.000000 0.500000 0.437846
O O13 0.920661 0.000000 0.500000
O O14 0.000000 0.000000 0.564174
O O15 0.324353 0.500000 0.917379
O O16 0.397384 0.671034 0.918980
O O17 0.326218 0.678049 0.000000
O O18 0.000000 0.172998 0.102129
O O19 0.060009 0.000000 0.148238
#
# Coordination Sequence:
#
# PCOD9483295 Si02
#       7
#    16  16  16   8   8  16  16
#     4  10  18  28  44  67  97 132 165 196 228 268
#     4  10  20  33  48  69  96 124 160 201 241 287
#     4  10  21  37  55  73  95 121 151 196 250 297
#     4   9  16  26  42  64  93 131 166 193 225 265
#     4   9  18  30  42  62  97 137 170 197 227 263
#     4   9  18  33  52  74  99 127 160 195 233 282
#     4   9  18  30  46  69  98 132 165 198 233 270
#
# _framework density 15.976000000000001
#
# number of rings (size 3 to 8) (size 9 to 14) (size 15 to 20)
#    0.000    2.500    0.833    1.500    1.167    4.667 
#    0.000    1.667    0.000    0.000    0.000    4.667 
#    0.000    4.000    0.000    0.000    0.000    0.000 
#
# Total GULP energy -267331.280360 kJ/mol
# GULP energy per Si atom -5569.401674 kJ/mol
# Density = 1.593964 g / cm^3
# Si number density = 15.976000 Si / 1000 Ang^3
#
#
#
# Elastic Constant Matrix: (Units=GPa)
#
#
# Indices 1 2 3 4 5 6 
#
# 1 49.4130 19.7636 5.2758 0.0000 0.0000 0.0000
# 2 19.7636 120.8693 39.3292 0.0000 0.0000 0.0000
# 3 5.2758 39.3292 86.9670 0.0000 0.0000 0.0000
# 4 0.0000 0.0000 0.0000 31.3561 0.0000 0.0000
# 5 0.0000 0.0000 0.0000 0.0000 8.1119 0.0000
# 6 0.0000 0.0000 0.0000 0.0000 0.0000 20.3721
#
#
#
# Elastic Compliance Matrix: (Units=1/GPa)
#
#
# Indices 1 2 3 4 5 6 
#
# 1 0.021662 -0.003652 0.000337 0.000000 0.000000 0.000000
# 2 -0.003652 0.010316 -0.004444 0.000000 0.000000 0.000000
# 3 0.000337 -0.004444 0.013488 0.000000 0.000000 0.000000
# 4 0.000000 0.000000 0.000000 0.031892 0.000000 0.000000
# 5 0.000000 0.000000 0.000000 0.000000 0.123275 0.000000
# 6 0.000000 0.000000 0.000000 0.000000 0.000000 0.049087
#
#
# Mechanical properties :
#
#
# Convention : Reuss Voigt Hill
#
# Bulk Modulus (GPa) = 33.38924 42.88738 38.13831
# Shear Modulus (GPa) = 18.16729 24.82674 21.49702
#
# Velocity S-wave (km/s) = 3.37584 3.94636 3.67220
# Velocity P-wave (km/s) = 6.01166 6.90421 6.47334
#
# Compressibility (1/GPa) = 0.02994977
#
# Stress axis : x y z
#
# Youngs Moduli (GPa) = 46.16338 96.93213 74.14090
#
# Poissons Ratio (x) = 0.35398 -0.02501
# Poissons Ratio (y) = 0.16858 0.32948
# Poissons Ratio (z) = -0.01557 0.43076
#
# Static dielectric constant tensor:
#      x y z
#    x 1.542760 0.000000 0.000000 
#    y 0.000000 3.602160 0.000000 
#    z 0.000000 0.000000 1.509130 
# 
# From -- ./inp_files/71450.got.cif
#   From: 2010.05.17/outbox.cif.g08.bks.cpg/sg65_36_cif.got.tgz:71450.got - 2010.06.03 17:01:31.
