data_PCOD9483592
_publ_section_title
;
Structure prediction by ZEFSAII (Michael W. Deem and Ramdas Pophale) SiO2 
 PCOD9483592
Probable space group: C M M M
;
_chemical_formula_sum "Si O2"
_cell_formula_units_Z 88
_cell_length_a 14.894930
_cell_length_b 10.742903
_cell_length_c 26.111844
_cell_angle_alpha 90.000000
_cell_angle_beta 90.000000
_cell_angle_gamma 90.000000
_cell_volume 4178.281187
_symmetry_space_group_name_H-M "C M M M"
_symmetry_group_IT_number 65
_symmetry_cell_setting 'orthorhombic'
loop_
_space_group_symop_operation_xyz
x,y,z
-x,-y,z
x,-y,-z
-x,y,-z
-x,-y,-z
x,y,-z
-x,y,z
x,-y,z
1/2+x,1/2+y,z
1/2-x,1/2-y,z
1/2+x,1/2-y,-z
1/2-x,1/2+y,-z
1/2-x,1/2-y,-z
1/2+x,1/2+y,-z
1/2-x,1/2+y,z
1/2+x,1/2-y,z
loop_
_atom_site_type_symbol
_atom_site_label
_atom_site_fract_x
_atom_site_fract_y
_atom_site_fract_z
Si Si1 0.391800 0.141990 0.557868
Si Si2 0.893731 0.500000 0.168029
Si Si3 0.890468 0.645436 0.000000
Si Si4 0.355823 0.252022 0.662535
Si Si5 0.891562 0.000000 0.163203
Si Si6 0.609833 0.245320 0.890275
Si Si7 0.354342 0.500000 0.715794
Si Si8 0.139555 0.500000 0.288027
O O1 0.361718 0.171331 0.500000
O O2 0.500000 0.138485 0.557232
O O3 0.365064 0.238565 0.601572
O O4 0.360800 0.000000 0.570488
O O5 0.859103 0.627166 0.143100
O O6 0.880144 0.500000 0.228234
O O7 0.000000 0.500000 0.157080
O O8 0.863014 0.716953 0.051456
O O9 0.861655 0.500000 0.000000
O O10 0.000000 0.641976 0.000000
O O11 0.250000 0.250000 0.674327
O O12 0.391954 0.376034 0.688972
O O13 0.395558 0.125776 0.686179
O O14 0.860247 0.124811 0.134320
O O15 0.866979 0.000000 0.223141
O O16 0.000000 0.000000 0.161282
O O17 0.500000 0.247783 0.889481
O O18 0.247332 0.500000 0.705893
#
# Coordination Sequence:
#
# PCOD9483592 Si02
#       8
#    16   8   8  16   8  16   8   8
#     4   9  18  34  57  83 108 134 170 217 262 304
#     4  10  18  29  48  75  99 124 164 214 254 291
#     4   9  14  25  45  69  98 126 153 200 258 297
#     4  10  20  35  54  76 104 137 176 215 252 303
#     4  10  20  33  46  67  99 132 166 204 248 303
#     4   9  17  28  45  70  99 127 159 202 252 302
#     4  10  22  36  50  72 105 141 170 209 260 301
#     4  10  20  34  52  74  99 135 180 215 248 299
#
# _framework density 21.061291000000001
#
# number of rings (size 3 to 8) (size 9 to 14) (size 15 to 20)
#    0.000    2.455    1.818    1.636    0.000    2.182 
#    0.000    2.273    0.000    1.091    0.000    3.818 
#    0.000    0.000    0.000    0.000    0.000    0.000 
#
# Total GULP energy -245643.830585 kJ/mol
# GULP energy per Si atom -5582.814331 kJ/mol
# Density = 2.101335 g / cm^3
# Si number density = 21.061291 Si / 1000 Ang^3
#
#
#
# Elastic Constant Matrix: (Units=GPa)
#
#
# Indices 1 2 3 4 5 6 
#
# 1 50.9991 12.5396 -14.3132 0.0000 0.0000 0.0000
# 2 12.5396 215.6469 123.8008 0.0000 0.0000 0.0000
# 3 -14.3132 123.8008 180.5342 0.0000 0.0000 0.0000
# 4 0.0000 0.0000 0.0000 45.2919 0.0000 0.0000
# 5 0.0000 0.0000 0.0000 0.0000 32.0718 0.0000
# 6 0.0000 0.0000 0.0000 0.0000 0.0000 -9.1481
#
#
#
# Elastic Compliance Matrix: (Units=1/GPa)
#
#
# Indices 1 2 3 4 5 6 
#
# 1 0.021719 -0.003713 0.004268 0.000000 0.000000 0.000000
# 2 -0.003713 0.008283 -0.005974 0.000000 0.000000 0.000000
# 3 0.004268 -0.005974 0.009974 0.000000 0.000000 0.000000
# 4 0.000000 0.000000 0.000000 0.022079 0.000000 0.000000
# 5 0.000000 0.000000 0.000000 0.000000 0.031180 0.000000
# 6 0.000000 0.000000 0.000000 0.000000 0.000000 -0.109313
#
#
# Mechanical properties :
#
#
# Convention : Reuss Voigt Hill
#
# Bulk Modulus (GPa) = 34.31967 76.80383 55.56175
# Shear Modulus (GPa) = 1117.46876 35.32001 576.39439
#
# Velocity S-wave (km/s) = 23.05930 4.09957 16.56107
# Velocity P-wave (km/s) = 26.93150 7.67819 19.80228
#
# Compressibility (1/GPa) = 0.02913781
#
# Stress axis : x y z
#
# Youngs Moduli (GPa) = 46.04222 120.72890 100.25569
#
# Poissons Ratio (x) = 0.44831 -0.42793
# Poissons Ratio (y) = 0.17097 0.59897
# Poissons Ratio (z) = -0.19653 0.72129
#
# Static dielectric constant tensor:
#      x y z
#    x 1.777840 0.000000 0.000000 
#    y 0.000000 1.763490 0.000000 
#    z 0.000000 0.000000 1.727510 
# 
# From -- ./inp_files/71137.got.cif
#   From: 2010.05.17/outbox.cif.g08.bks.cpg/sg65_36_cif.got.tgz:71137.got - 2010.06.03 17:01:31.
