data_PCOD9483503
_publ_section_title
;
Structure prediction by ZEFSAII (Michael W. Deem and Ramdas Pophale) SiO2 
 PCOD9483503
Probable space group: C M M M
;
_chemical_formula_sum "Si O2"
_cell_formula_units_Z 72
_cell_length_a 7.918690
_cell_length_b 14.622283
_cell_length_c 26.628499
_cell_angle_alpha 90.000000
_cell_angle_beta 90.000000
_cell_angle_gamma 90.000000
_cell_volume 3083.295956
_symmetry_space_group_name_H-M "C M M M"
_symmetry_group_IT_number 65
_symmetry_cell_setting 'orthorhombic'
loop_
_space_group_symop_operation_xyz
x,y,z
-x,-y,z
x,-y,-z
-x,y,-z
-x,-y,-z
x,y,-z
-x,y,z
x,-y,z
1/2+x,1/2+y,z
1/2-x,1/2-y,z
1/2+x,1/2-y,-z
1/2-x,1/2+y,-z
1/2-x,1/2-y,-z
1/2+x,1/2+y,-z
1/2-x,1/2+y,z
1/2+x,1/2-y,z
loop_
_atom_site_type_symbol
_atom_site_label
_atom_site_fract_x
_atom_site_fract_y
_atom_site_fract_z
Si Si1 0.702596 0.643112 0.271003
Si Si2 0.000000 0.112645 0.442041
Si Si3 0.818780 0.394082 0.618868
Si Si4 0.204162 0.857862 0.054097
Si Si5 0.296125 0.642277 0.162230
O O1 0.500000 0.631623 0.274059
O O2 0.750000 0.750000 0.271001
O O3 0.781416 0.605817 0.321765
O O4 0.761432 0.606337 0.216524
O O5 0.835912 0.145316 0.412029
O O6 0.000000 0.139441 0.500000
O O7 0.000000 0.000000 0.440362
O O8 0.829027 0.500000 0.603426
O O9 0.000000 0.349959 0.609817
O O10 0.250000 0.750000 0.054086
O O11 0.265049 0.894180 0.108190
O O12 0.000000 0.866852 0.054113
O O13 0.265091 0.894120 0.000000
O O14 0.500000 0.633772 0.162349
O O15 0.250000 0.750000 0.162147
#
# Coordination Sequence:
#
# PCOD9483503 Si02
#       5
#    16   8  16  16  16
#     4  10  18  29  46  69  97 131 166 202 244 291
#     4   9  18  34  56  80 104 130 160 196 238 282
#     4  10  20  34  53  78 104 130 163 201 240 285
#     4   8  12  18  28  43  67 102 141 181 226 273
#     4   8  14  22  33  52  79 110 148 189 229 277
#
# _framework density 23.351634000000001
#
# number of rings (size 3 to 8) (size 9 to 14) (size 15 to 20)
#    0.000    3.000    1.111    0.667    0.000    1.333 
#    0.000    2.222    0.000    0.667    0.000    0.000 
#    0.000    0.889    0.000   11.111    0.000    5.778 
#
# Total GULP energy -200723.986116 kJ/mol
# GULP energy per Si atom -5575.666281 kJ/mol
# Density = 2.329848 g / cm^3
# Si number density = 23.351634 Si / 1000 Ang^3
#
#
#
# Elastic Constant Matrix: (Units=GPa)
#
#
# Indices 1 2 3 4 5 6 
#
# 1 114.2631 6.4804 88.9265 0.0000 0.0000 0.0000
# 2 6.4804 70.4844 5.4251 0.0000 0.0000 0.0000
# 3 88.9265 5.4251 223.1725 0.0000 0.0000 0.0000
# 4 0.0000 0.0000 0.0000 17.8962 0.0000 0.0000
# 5 0.0000 0.0000 0.0000 0.0000 -2.4697 0.0000
# 6 0.0000 0.0000 0.0000 0.0000 0.0000 1.3341
#
#
#
# Elastic Compliance Matrix: (Units=1/GPa)
#
#
# Indices 1 2 3 4 5 6 
#
# 1 0.012729 -0.000781 -0.005053 0.000000 0.000000 0.000000
# 2 -0.000781 0.014262 -0.000035 0.000000 0.000000 0.000000
# 3 -0.005053 -0.000035 0.006495 0.000000 0.000000 0.000000
# 4 0.000000 0.000000 0.000000 0.055878 0.000000 0.000000
# 5 0.000000 0.000000 0.000000 0.000000 -0.404907 0.000000
# 6 0.000000 0.000000 0.000000 0.000000 0.000000 0.749546
#
#
# Mechanical properties :
#
#
# Convention : Reuss Voigt Hill
#
# Bulk Modulus (GPa) = 45.98436 67.73157 56.85797
# Shear Modulus (GPa) = 11.03776 23.82466 17.43121
#
# Velocity S-wave (km/s) = 2.17647 3.19761 2.73512
# Velocity P-wave (km/s) = 5.10401 6.53460 5.86310
#
# Compressibility (1/GPa) = 0.02174652
#
# Stress axis : x y z
#
# Youngs Moduli (GPa) = 78.56384 70.11590 153.96232
#
# Poissons Ratio (x) = 0.05479 0.77795
# Poissons Ratio (y) = 0.06139 0.00544
# Poissons Ratio (z) = 0.39697 0.00248
#
# Static dielectric constant tensor:
#      x y z
#    x 1.868660 0.000000 0.000000 
#    y 0.000000 2.018830 0.000000 
#    z 0.000000 0.000000 1.903930 
# 
# From -- ./inp_files/72472.got.cif
#   From: 2010.05.17/outbox.cif.g08.bks.cpg/sg65_37_cif.got.tgz:72472.got - 2010.06.03 17:01:31.
