data_PCOD9483126
_publ_section_title
;
Structure prediction by ZEFSAII (Michael W. Deem and Ramdas Pophale) SiO2 
 PCOD9483126
Probable space group: C M M M
;
_chemical_formula_sum "Si O2"
_cell_formula_units_Z 96
_cell_length_a 27.146540
_cell_length_b 29.332431
_cell_length_c 9.051876
_cell_angle_alpha 90.000000
_cell_angle_beta 90.000000
_cell_angle_gamma 90.000000
_cell_volume 7207.773614
_symmetry_space_group_name_H-M "C M M M"
_symmetry_group_IT_number 65
_symmetry_cell_setting 'orthorhombic'
loop_
_space_group_symop_operation_xyz
x,y,z
-x,-y,z
x,-y,-z
-x,y,-z
-x,-y,-z
x,y,-z
-x,y,z
x,-y,z
1/2+x,1/2+y,z
1/2-x,1/2-y,z
1/2+x,1/2-y,-z
1/2-x,1/2+y,-z
1/2-x,1/2-y,-z
1/2+x,1/2+y,-z
1/2-x,1/2+y,z
1/2+x,1/2-y,z
loop_
_atom_site_type_symbol
_atom_site_label
_atom_site_fract_x
_atom_site_fract_y
_atom_site_fract_z
Si Si1 0.199711 0.719953 0.670448
Si Si2 0.943933 0.147432 0.678445
Si Si3 0.405011 0.550155 0.678976
Si Si4 0.243885 0.858108 0.175659
Si Si5 0.711156 0.551798 0.677130
Si Si6 0.645174 0.299351 0.823949
O O1 0.186076 0.712943 0.500000
O O2 0.250000 0.750000 0.673290
O O3 0.214435 0.673045 0.749414
O O4 0.160007 0.750756 0.754882
O O5 0.938050 0.148998 0.500000
O O6 0.933742 0.095085 0.727164
O O7 0.903342 0.179401 0.752073
O O8 0.000000 0.160043 0.713936
O O9 0.408276 0.549067 0.500000
O O10 0.421563 0.500000 0.732033
O O11 0.347089 0.555552 0.715000
O O12 0.240261 0.908564 0.241275
O O13 0.191297 0.833330 0.207522
O O14 0.250335 0.858606 0.000000
O O15 0.714909 0.557766 0.500000
O O16 0.726469 0.500000 0.712898
O O17 0.640429 0.295801 0.000000
#
# Coordination Sequence:
#
# PCOD9483126 Si02
#       6
#    16  16  16  16  16  16
#     4   9  17  28  44  62  78  98 124 157 196 239
#     4  10  19  29  43  60  76  99 134 173 211 251
#     4   8  14  25  40  56  73  95 128 172 215 248
#     4  10  18  27  41  61  82 103 128 160 199 244
#     4   9  16  26  41  58  77 105 138 169 202 240
#     4  10  19  30  42  57  79 103 126 161 204 248
#
# _framework density 13.318953
#
# number of rings (size 3 to 8) (size 9 to 14) (size 15 to 20)
#    0.000    2.667    1.667    2.500    0.000    4.333 
#    0.000    1.667    0.000    0.500    0.000    1.167 
#    0.000    0.000    0.000    0.000    0.000    0.833 
#
# Total GULP energy -267425.321583 kJ/mol
# GULP energy per Si atom -5571.360866 kJ/mol
# Density = 1.328864 g / cm^3
# Si number density = 13.318953 Si / 1000 Ang^3
#
#
#
# Elastic Constant Matrix: (Units=GPa)
#
#
# Indices 1 2 3 4 5 6 
#
# 1 61.2451 54.8395 33.8319 0.0000 0.0000 0.0000
# 2 54.8395 99.6377 51.5798 0.0000 0.0000 0.0000
# 3 33.8319 51.5798 42.7760 0.0000 0.0000 0.0000
# 4 0.0000 0.0000 0.0000 13.1804 0.0000 0.0000
# 5 0.0000 0.0000 0.0000 0.0000 13.6192 0.0000
# 6 0.0000 0.0000 0.0000 0.0000 0.0000 18.3928
#
#
#
# Elastic Compliance Matrix: (Units=1/GPa)
#
#
# Indices 1 2 3 4 5 6 
#
# 1 0.034224 -0.012838 -0.011589 0.000000 0.000000 0.000000
# 2 -0.012838 0.031523 -0.027858 0.000000 0.000000 0.000000
# 3 -0.011589 -0.027858 0.066134 0.000000 0.000000 0.000000
# 4 0.000000 0.000000 0.000000 0.075870 0.000000 0.000000
# 5 0.000000 0.000000 0.000000 0.000000 0.073426 0.000000
# 6 0.000000 0.000000 0.000000 0.000000 0.000000 0.054369
#
#
# Mechanical properties :
#
#
# Convention : Reuss Voigt Hill
#
# Bulk Modulus (GPa) = 36.61126 53.79570 45.20348
# Shear Modulus (GPa) = 11.13042 13.26565 12.19803
#
# Velocity S-wave (km/s) = 2.89395 3.15937 3.02957
# Velocity P-wave (km/s) = 6.22209 7.33395 6.80078
#
# Compressibility (1/GPa) = 0.02731400
#
# Stress axis : x y z
#
# Youngs Moduli (GPa) = 29.21906 31.72260 15.12077
#
# Poissons Ratio (x) = 0.40724 0.17523
# Poissons Ratio (y) = 0.37510 0.42123
# Poissons Ratio (z) = 0.33861 0.88372
#
# Static dielectric constant tensor:
#      x y z
#    x 1.407840 0.000000 0.000000 
#    y 0.000000 1.438860 0.000000 
#    z 0.000000 0.000000 1.441260 
# 
# From -- ./inp_files/14558.got.cif
#   From: 2010.05.17/outbox.cif.g08.bks.cpg/sg65_8_cif.got.tgz:14558.got - 2010.06.03 17:01:31.
