data_PCOD9483784
_publ_section_title
;
Structure prediction by ZEFSAII (Michael W. Deem and Ramdas Pophale) SiO2 
 PCOD9483784
Probable space group: C M M M
;
_chemical_formula_sum "Si O2"
_cell_formula_units_Z 104
_cell_length_a 30.713547
_cell_length_b 23.082737
_cell_length_c 8.987275
_cell_angle_alpha 90.000000
_cell_angle_beta 90.000000
_cell_angle_gamma 90.000000
_cell_volume 6371.553126
_symmetry_space_group_name_H-M "C M M M"
_symmetry_group_IT_number 65
_symmetry_cell_setting 'orthorhombic'
loop_
_space_group_symop_operation_xyz
x,y,z
-x,-y,z
x,-y,-z
-x,y,-z
-x,-y,-z
x,y,-z
-x,y,z
x,-y,z
1/2+x,1/2+y,z
1/2-x,1/2-y,z
1/2+x,1/2-y,-z
1/2-x,1/2+y,-z
1/2-x,1/2-y,-z
1/2+x,1/2+y,-z
1/2-x,1/2+y,z
1/2+x,1/2-y,z
loop_
_atom_site_type_symbol
_atom_site_label
_atom_site_fract_x
_atom_site_fract_y
_atom_site_fract_z
Si Si1 0.449062 0.779672 0.177643
Si Si2 0.950135 0.500000 0.680825
Si Si3 0.215965 0.929647 0.171993
Si Si4 0.195049 0.567504 0.321329
Si Si5 0.119100 0.068039 0.819952
Si Si6 0.602690 0.115239 0.680322
Si Si7 0.949225 0.845214 0.677691
O O1 0.500000 0.793491 0.209556
O O2 0.418774 0.828898 0.246733
O O3 0.439887 0.717270 0.249944
O O4 0.443818 0.776515 0.000000
O O5 0.950669 0.500000 0.500000
O O6 0.924628 0.442009 0.724649
O O7 0.000000 0.500000 0.732948
O O8 0.258767 0.911071 0.259933
O O9 0.167924 0.912376 0.226636
O O10 0.215372 0.000000 0.176081
O O11 0.220256 0.912284 0.000000
O O12 0.196535 0.567545 0.500000
O O13 0.188981 0.500000 0.274764
O O14 0.152773 0.603817 0.275780
O O15 0.082482 0.107034 0.746164
O O16 0.113795 0.000000 0.782367
O O17 0.117299 0.072340 0.000000
O O18 0.600755 0.119926 0.500000
O O19 0.944044 0.841996 0.500000
O O20 0.000000 0.858882 0.709755
#
# Coordination Sequence:
#
# PCOD9483784 Si02
#       7
#    16   8  16  16  16  16  16
#     4  10  21  36  52  70  94 128 170 210 249 296
#     4   9  16  26  43  67  95 129 165 203 250 299
#     4   8  15  28  46  69  98 132 166 197 234 287
#     4   9  16  27  44  69 100 130 164 206 249 293
#     4   9  18  33  53  78 107 136 164 195 237 290
#     4  10  18  30  48  71  98 129 168 210 251 297
#     4  10  21  36  54  76 101 130 165 203 242 289
#
# _framework density 16.322551000000001
#
# number of rings (size 3 to 8) (size 9 to 14) (size 15 to 20)
#    0.000    2.692    0.769    2.308    0.000    4.308 
#    0.000    3.462    0.000    2.308    0.000    6.462 
#    0.000    0.000    0.000    0.000    0.000    0.000 
#
# Total GULP energy -289821.643192 kJ/mol
# GULP energy per Si atom -5573.493138 kJ/mol
# Density = 1.628540 g / cm^3
# Si number density = 16.322551 Si / 1000 Ang^3
#
#
#
# Elastic Constant Matrix: (Units=GPa)
#
#
# Indices 1 2 3 4 5 6 
#
# 1 164.8100 95.8004 57.9964 0.0000 0.0000 0.0000
# 2 95.8004 92.3281 42.0602 0.0000 0.0000 0.0000
# 3 57.9964 42.0602 35.4785 0.0000 0.0000 0.0000
# 4 0.0000 0.0000 0.0000 24.7227 0.0000 0.0000
# 5 0.0000 0.0000 0.0000 0.0000 29.5988 0.0000
# 6 0.0000 0.0000 0.0000 0.0000 0.0000 13.8691
#
#
#
# Elastic Compliance Matrix: (Units=1/GPa)
#
#
# Indices 1 2 3 4 5 6 
#
# 1 0.018947 -0.012067 -0.016667 0.000000 0.000000 0.000000
# 2 -0.012067 0.031234 -0.017303 0.000000 0.000000 0.000000
# 3 -0.016667 -0.017303 0.075944 0.000000 0.000000 0.000000
# 4 0.000000 0.000000 0.000000 0.040449 0.000000 0.000000
# 5 0.000000 0.000000 0.000000 0.000000 0.033785 0.000000
# 6 0.000000 0.000000 0.000000 0.000000 0.000000 0.072103
#
#
# Mechanical properties :
#
#
# Convention : Reuss Voigt Hill
#
# Bulk Modulus (GPa) = 29.36706 76.03674 52.70190
# Shear Modulus (GPa) = 13.30201 20.08876 16.69538
#
# Velocity S-wave (km/s) = 2.85782 3.51199 3.20166
# Velocity P-wave (km/s) = 5.37776 7.94547 6.78420
#
# Compressibility (1/GPa) = 0.03405176
#
# Stress axis : x y z
#
# Youngs Moduli (GPa) = 52.77962 32.01670 13.16767
#
# Poissons Ratio (x) = 0.38634 0.21946
# Poissons Ratio (y) = 0.63688 0.22784
# Poissons Ratio (z) = 0.87967 0.55397
#
# Static dielectric constant tensor:
#      x y z
#    x 1.556670 0.000000 0.000000 
#    y 0.000000 1.515990 0.000000 
#    z 0.000000 0.000000 1.547380 
# 
# From -- ./inp_files/18615.got.cif
#   From: 2010.05.17/outbox.cif.g08.bks.cpg/sg65_10_cif.got.tgz:18615.got - 2010.06.03 17:01:31.
