data_PCOD9483144
_publ_section_title
;
Structure prediction by ZEFSAII (Michael W. Deem and Ramdas Pophale) SiO2 
 PCOD9483144
Probable space group: C M M M
;
_chemical_formula_sum "Si O2"
_cell_formula_units_Z 88
_cell_length_a 30.923699
_cell_length_b 24.335162
_cell_length_c 8.903898
_cell_angle_alpha 90.000000
_cell_angle_beta 90.000000
_cell_angle_gamma 90.000000
_cell_volume 6700.479075
_symmetry_space_group_name_H-M "C M M M"
_symmetry_group_IT_number 65
_symmetry_cell_setting 'orthorhombic'
loop_
_space_group_symop_operation_xyz
x,y,z
-x,-y,z
x,-y,-z
-x,y,-z
-x,-y,-z
x,y,-z
-x,y,z
x,-y,z
1/2+x,1/2+y,z
1/2-x,1/2-y,z
1/2+x,1/2-y,-z
1/2-x,1/2+y,-z
1/2-x,1/2-y,-z
1/2+x,1/2+y,-z
1/2-x,1/2+y,z
1/2+x,1/2-y,z
loop_
_atom_site_type_symbol
_atom_site_label
_atom_site_fract_x
_atom_site_fract_y
_atom_site_fract_z
Si Si1 0.248374 0.115881 0.319192
Si Si2 0.761218 0.000000 0.822971
Si Si3 0.165293 0.176645 0.177440
Si Si4 0.297323 0.778775 0.672152
Si Si5 0.851522 0.000000 0.670829
Si Si6 0.500000 0.564036 0.683393
Si Si7 0.908175 0.110039 0.323548
O O1 0.245301 0.114455 0.500000
O O2 0.203011 0.140252 0.256779
O O3 0.286044 0.159444 0.278533
O O4 0.255768 0.055836 0.252458
O O5 0.812551 0.000000 0.786818
O O6 0.753684 0.000000 0.000000
O O7 0.173533 0.239465 0.227157
O O8 0.119240 0.154460 0.233004
O O9 0.169937 0.170615 0.000000
O O10 0.313160 0.778759 0.500000
O O11 0.250000 0.750000 0.670504
O O12 0.881151 0.053375 0.686287
O O13 0.833103 0.000000 0.500000
O O14 0.500000 0.500000 0.732231
O O15 0.500000 0.562416 0.500000
O O16 0.543557 0.595476 0.729112
O O17 0.909624 0.125462 0.500000
#
# Coordination Sequence:
#
# PCOD9483144 Si02
#       7
#    16   8  16  16   8   8  16
#     4  10  19  31  44  57  77 104 133 162 197 239
#     4  12  22  28  39  61  85 105 131 165 201 242
#     4  11  20  28  41  60  80 100 128 166 206 244
#     4   8  16  30  45  58  73  98 130 162 197 237
#     4  10  18  27  42  56  74 105 133 164 205 247
#     4   9  16  28  45  63  75  95 135 176 209 244
#     4  10  18  29  45  60  76 100 134 171 209 251
#
# _framework density 13.133388999999999
#
# number of rings (size 3 to 8) (size 9 to 14) (size 15 to 20)
#    0.000    2.091    2.727    4.091    0.000    4.000 
#    0.000    0.455    0.000    0.545    0.000    0.000 
#    0.000    0.000    0.000    0.000    0.000    0.909 
#
# Total GULP energy -245293.460676 kJ/mol
# GULP energy per Si atom -5574.851379 kJ/mol
# Density = 1.310350 g / cm^3
# Si number density = 13.133389 Si / 1000 Ang^3
#
#
#
# Elastic Constant Matrix: (Units=GPa)
#
#
# Indices 1 2 3 4 5 6 
#
# 1 55.7629 43.2600 30.9470 0.0000 0.0000 0.0000
# 2 43.2600 105.3137 44.9830 0.0000 0.0000 0.0000
# 3 30.9470 44.9830 64.5049 0.0000 0.0000 0.0000
# 4 0.0000 0.0000 0.0000 9.6486 0.0000 0.0000
# 5 0.0000 0.0000 0.0000 0.0000 -14.3416 0.0000
# 6 0.0000 0.0000 0.0000 0.0000 0.0000 15.2446
#
#
#
# Elastic Compliance Matrix: (Units=1/GPa)
#
#
# Indices 1 2 3 4 5 6 
#
# 1 0.028935 -0.008483 -0.007966 0.000000 0.000000 0.000000
# 2 -0.008483 0.016011 -0.007095 0.000000 0.000000 0.000000
# 3 -0.007966 -0.007095 0.024273 0.000000 0.000000 0.000000
# 4 0.000000 0.000000 0.000000 0.103642 0.000000 0.000000
# 5 0.000000 0.000000 0.000000 0.000000 -0.069727 0.000000
# 6 0.000000 0.000000 0.000000 0.000000 0.000000 0.065597
#
#
# Mechanical properties :
#
#
# Convention : Reuss Voigt Hill
#
# Bulk Modulus (GPa) = 45.18931 51.55128 48.37029
# Shear Modulus (GPa) = 22.40184 9.20309 15.80246
#
# Velocity S-wave (km/s) = 4.13451 2.65002 3.47252
# Velocity P-wave (km/s) = 7.56802 6.97859 7.27927
#
# Compressibility (1/GPa) = 0.02212913
#
# Stress axis : x y z
#
# Youngs Moduli (GPa) = 34.56000 62.45809 41.19886
#
# Poissons Ratio (x) = 0.52984 0.32820
# Poissons Ratio (y) = 0.29318 0.29232
# Poissons Ratio (z) = 0.27531 0.44316
#
# Static dielectric constant tensor:
#      x y z
#    x 1.411820 0.000000 0.000000 
#    y 0.000000 1.448820 0.000000 
#    z 0.000000 0.000000 1.440870 
# 
# From -- ./inp_files/18826.got.cif
#   From: 2010.05.17/outbox.cif.g08.bks.cpg/sg65_10_cif.got.tgz:18826.got - 2010.06.03 17:01:31.
