data_PCOD9483769
_publ_section_title
;
Structure prediction by ZEFSAII (Michael W. Deem and Ramdas Pophale) SiO2 
 PCOD9483769
Probable space group: C M M M
;
_chemical_formula_sum "Si O2"
_cell_formula_units_Z 96
_cell_length_a 18.487671
_cell_length_b 18.714830
_cell_length_c 16.859997
_cell_angle_alpha 90.000000
_cell_angle_beta 90.000000
_cell_angle_gamma 90.000000
_cell_volume 5833.451393
_symmetry_space_group_name_H-M "C M M M"
_symmetry_group_IT_number 65
_symmetry_cell_setting 'orthorhombic'
loop_
_space_group_symop_operation_xyz
x,y,z
-x,-y,z
x,-y,-z
-x,y,-z
-x,-y,-z
x,y,-z
-x,y,z
x,-y,z
1/2+x,1/2+y,z
1/2-x,1/2-y,z
1/2+x,1/2-y,-z
1/2-x,1/2+y,-z
1/2-x,1/2-y,-z
1/2+x,1/2+y,-z
1/2-x,1/2+y,z
1/2+x,1/2-y,z
loop_
_atom_site_type_symbol
_atom_site_label
_atom_site_fract_x
_atom_site_fract_y
_atom_site_fract_z
Si Si1 0.216801 0.921632 0.686218
Si Si2 0.082389 0.113548 0.592467
Si Si3 0.083692 0.082596 0.904385
Si Si4 0.582506 0.240909 0.310917
Si Si5 0.801472 0.318405 0.591510
Si Si6 0.811469 0.192412 0.816664
O O1 0.134371 0.923433 0.655486
O O2 0.257438 0.889237 0.610564
O O3 0.225024 0.863644 0.755484
O O4 0.240860 0.000000 0.709596
O O5 0.104963 0.108696 0.500000
O O6 0.083283 0.195224 0.623593
O O7 0.000000 0.088011 0.597158
O O8 0.141885 0.140944 0.874830
O O9 0.000000 0.098184 0.878509
O O10 0.100300 0.000000 0.878922
O O11 0.083654 0.082835 0.000000
O O12 0.500000 0.224613 0.291534
O O13 0.628228 0.180457 0.354044
O O14 0.628280 0.266035 0.235215
O O15 0.819444 0.310675 0.500000
O O16 0.750000 0.250000 0.613021
O O17 0.750000 0.250000 0.844206
#
# Coordination Sequence:
#
# PCOD9483769 Si02
#       6
#    16  16  16  16  16  16
#     4  11  21  32  45  66  95 131 168 209 258 306
#     4   9  17  28  42  63  91 122 158 202 252 306
#     4   9  19  36  57  84 118 148 168 193 242 309
#     4  10  18  30  48  70  92 122 165 212 256 300
#     4  11  19  32  48  65  92 127 168 215 265 315
#     4  11  19  34  53  78 106 135 173 209 247 293
#
# _framework density 16.456810000000001
#
# number of rings (size 3 to 8) (size 9 to 14) (size 15 to 20)
#    0.000    1.833    5.000    2.500    0.000    3.667 
#    0.000    0.833    0.000    0.500    0.000    1.167 
#    0.000    0.000    0.000    8.000    0.000    0.000 
#
# Total GULP energy -267312.022673 kJ/mol
# GULP energy per Si atom -5569.000472 kJ/mol
# Density = 1.641935 g / cm^3
# Si number density = 16.456810 Si / 1000 Ang^3
#
#
#
# Elastic Constant Matrix: (Units=GPa)
#
#
# Indices 1 2 3 4 5 6 
#
# 1 90.9975 46.3875 21.6307 0.0000 0.0000 0.0000
# 2 46.3875 69.8452 18.1938 0.0000 0.0000 0.0000
# 3 21.6307 18.1938 36.4565 0.0000 0.0000 0.0000
# 4 0.0000 0.0000 0.0000 -7.6243 0.0000 0.0000
# 5 0.0000 0.0000 0.0000 0.0000 25.1077 0.0000
# 6 0.0000 0.0000 0.0000 0.0000 0.0000 14.5816
#
#
#
# Elastic Compliance Matrix: (Units=1/GPa)
#
#
# Indices 1 2 3 4 5 6 
#
# 1 0.017447 -0.010220 -0.005252 0.000000 0.000000 0.000000
# 2 -0.010220 0.022443 -0.005137 0.000000 0.000000 0.000000
# 3 -0.005252 -0.005137 0.033110 0.000000 0.000000 0.000000
# 4 0.000000 0.000000 0.000000 -0.131160 0.000000 0.000000
# 5 0.000000 0.000000 0.000000 0.000000 0.039828 0.000000
# 6 0.000000 0.000000 0.000000 0.000000 0.000000 0.068580
#
#
# Mechanical properties :
#
#
# Convention : Reuss Voigt Hill
#
# Bulk Modulus (GPa) = 31.46290 41.08035 36.27162
# Shear Modulus (GPa) = 48.99166 13.81881 31.40523
#
# Velocity S-wave (km/s) = 5.46209 2.90090 4.37320
# Velocity P-wave (km/s) = 7.67719 6.01972 6.89842
#
# Compressibility (1/GPa) = 0.03178347
#
# Stress axis : x y z
#
# Youngs Moduli (GPa) = 57.31547 44.55798 30.20279
#
# Poissons Ratio (x) = 0.45536 0.15862
# Poissons Ratio (y) = 0.58574 0.15514
# Poissons Ratio (z) = 0.30101 0.22888
#
# Static dielectric constant tensor:
#      x y z
#    x 1.606650 0.000000 0.000000 
#    y 0.000000 1.610100 0.000000 
#    z 0.000000 0.000000 1.552850 
# 
# From -- ./inp_files/54740.got.cif
#   From: 2010.05.17/outbox.cif.g08.bks.cpg/sg65_28_cif.got.tgz:54740.got - 2010.06.03 17:01:31.
