data_PCOD9483932
_publ_section_title
;
Structure prediction by ZEFSAII (Michael W. Deem and Ramdas Pophale) SiO2 
 PCOD9483932
Probable space group: C M M M
;
_chemical_formula_sum "Si O2"
_cell_formula_units_Z 72
_cell_length_a 8.156450
_cell_length_b 19.165987
_cell_length_c 24.651323
_cell_angle_alpha 90.000000
_cell_angle_beta 90.000000
_cell_angle_gamma 90.000000
_cell_volume 3853.652941
_symmetry_space_group_name_H-M "C M M M"
_symmetry_group_IT_number 65
_symmetry_cell_setting 'orthorhombic'
loop_
_space_group_symop_operation_xyz
x,y,z
-x,-y,z
x,-y,-z
-x,y,-z
-x,-y,-z
x,y,-z
-x,y,z
x,-y,z
1/2+x,1/2+y,z
1/2-x,1/2-y,z
1/2+x,1/2-y,-z
1/2-x,1/2+y,-z
1/2-x,1/2-y,-z
1/2+x,1/2+y,-z
1/2-x,1/2+y,z
1/2+x,1/2-y,z
loop_
_atom_site_type_symbol
_atom_site_label
_atom_site_fract_x
_atom_site_fract_y
_atom_site_fract_z
Si Si1 0.695808 0.669029 0.219408
Si Si2 0.200020 0.081057 0.560170
Si Si3 0.194824 0.330677 0.102931
Si Si4 0.201166 0.580620 0.000000
Si Si5 0.198383 0.830517 0.337655
O O1 0.500000 0.666030 0.218067
O O2 0.750000 0.750000 0.219346
O O3 0.758237 0.640234 0.162300
O O4 0.752443 0.641483 0.278246
O O5 0.252334 0.105188 0.500000
O O6 0.259301 0.126308 0.610727
O O7 0.000000 0.083193 0.560623
O O8 0.246380 0.000000 0.566151
O O9 0.250000 0.250000 0.098056
O O10 0.000000 0.329730 0.099996
O O11 0.257235 0.377714 0.053471
O O12 0.252284 0.500000 0.000000
O O13 0.000000 0.581096 0.000000
O O14 0.250000 0.750000 0.342130
O O15 0.000000 0.833026 0.337947
#
# Coordination Sequence:
#
# PCOD9483932 Si02
#       5
#    16  16  16   8  16
#     4   9  16  27  43  65  93 119 145 179 219 263
#     4   8  14  26  44  64  86 115 152 188 219 258
#     4  10  18  30  51  72  90 115 149 186 218 257
#     4   9  19  34  49  67  92 121 150 180 218 263
#     4   9  17  28  44  67  92 117 145 181 224 264
#
# _framework density 18.683572000000002
#
# number of rings (size 3 to 8) (size 9 to 14) (size 15 to 20)
#    0.000    3.000    0.000    3.667    0.000    1.333 
#    0.000    2.778    0.000    7.333    0.000    1.556 
#    0.000    0.000    0.000    0.000    0.000    0.000 
#
# Total GULP energy -200482.553732 kJ/mol
# GULP energy per Si atom -5568.959826 kJ/mol
# Density = 1.864105 g / cm^3
# Si number density = 18.683572 Si / 1000 Ang^3
#
#
#
# Elastic Constant Matrix: (Units=GPa)
#
#
# Indices 1 2 3 4 5 6 
#
# 1 17.3956 6.4338 19.3548 0.0000 0.0000 0.0000
# 2 6.4338 64.2519 89.6521 0.0000 0.0000 0.0000
# 3 19.3548 89.6521 246.8466 0.0000 0.0000 0.0000
# 4 0.0000 0.0000 0.0000 -7.8798 0.0000 0.0000
# 5 0.0000 0.0000 0.0000 0.0000 50.2118 0.0000
# 6 0.0000 0.0000 0.0000 0.0000 0.0000 9.1496
#
#
#
# Elastic Compliance Matrix: (Units=1/GPa)
#
#
# Indices 1 2 3 4 5 6 
#
# 1 0.063024 0.001185 -0.005372 0.000000 0.000000 0.000000
# 2 0.001185 0.031577 -0.011561 0.000000 0.000000 0.000000
# 3 -0.005372 -0.011561 0.008671 0.000000 0.000000 0.000000
# 4 0.000000 0.000000 0.000000 -0.126907 0.000000 0.000000
# 5 0.000000 0.000000 0.000000 0.000000 0.019916 0.000000
# 6 0.000000 0.000000 0.000000 0.000000 0.000000 0.109294
#
#
# Mechanical properties :
#
#
# Convention : Reuss Voigt Hill
#
# Bulk Modulus (GPa) = 13.93236 62.15285 38.04260
# Shear Modulus (GPa) = 31.05642 24.49988 27.77815
#
# Velocity S-wave (km/s) = 4.08147 3.62512 3.86005
# Velocity P-wave (km/s) = 5.44834 7.13164 6.34605
#
# Compressibility (1/GPa) = 0.07177537
#
# Stress axis : x y z
#
# Youngs Moduli (GPa) = 15.86687 31.66882 115.32403
#
# Poissons Ratio (x) = -0.03751 0.61950
# Poissons Ratio (y) = -0.01880 1.33329
# Poissons Ratio (z) = 0.08523 0.36613
#
# Static dielectric constant tensor:
#      x y z
#    x 1.651740 0.000000 0.000000 
#    y 0.000000 1.605490 0.000000 
#    z 0.000000 0.000000 1.710140 
# 
# From -- ./inp_files/67241.got.cif
#   From: 2010.05.17/outbox.cif.g08.bks.cpg/sg65_34_cif.got.tgz:67241.got - 2010.06.03 17:01:31.
