data_PCOD9483399
_publ_section_title
;
Structure prediction by ZEFSAII (Michael W. Deem and Ramdas Pophale) SiO2 
 PCOD9483399
Probable space group: C M M M
;
_chemical_formula_sum "Si O2"
_cell_formula_units_Z 64
_cell_length_a 20.304249
_cell_length_b 14.715305
_cell_length_c 8.385454
_cell_angle_alpha 90.000000
_cell_angle_beta 90.000000
_cell_angle_gamma 90.000000
_cell_volume 2505.432921
_symmetry_space_group_name_H-M "C M M M"
_symmetry_group_IT_number 65
_symmetry_cell_setting 'orthorhombic'
loop_
_space_group_symop_operation_xyz
x,y,z
-x,-y,z
x,-y,-z
-x,y,-z
-x,-y,-z
x,y,-z
-x,y,z
x,-y,z
1/2+x,1/2+y,z
1/2-x,1/2-y,z
1/2+x,1/2-y,-z
1/2-x,1/2+y,-z
1/2-x,1/2-y,-z
1/2+x,1/2+y,-z
1/2-x,1/2+y,z
1/2+x,1/2-y,z
loop_
_atom_site_type_symbol
_atom_site_label
_atom_site_fract_x
_atom_site_fract_y
_atom_site_fract_z
Si Si1 0.744656 0.102736 0.330541
Si Si2 0.420392 0.601392 0.810819
Si Si3 0.402547 0.895754 0.000000
Si Si4 0.247087 0.857564 0.000000
Si Si5 0.607772 0.204808 0.678102
O O1 0.779152 0.115343 0.500000
O O2 0.684449 0.173400 0.323199
O O3 0.716720 0.000000 0.330826
O O4 0.783087 0.111581 0.166135
O O5 0.500000 0.601231 0.800824
O O6 0.399180 0.500000 0.757712
O O7 0.399209 0.688937 0.710526
O O8 0.405847 0.613996 0.000000
O O9 0.421398 0.845433 0.164921
O O10 0.322163 0.893927 0.000000
O O11 0.423567 0.000000 0.000000
O O12 0.250000 0.750000 0.000000
O O13 0.582463 0.181427 0.500000
#
# Coordination Sequence:
#
# PCOD9483399 Si02
#       5
#    16  16   8   8  16
#     4   9  18  33  53  76 102 133 169 207 247 296
#     4   9  18  33  52  74 103 138 174 212 256 305
#     4  10  20  36  56  77 104 135 168 208 254 302
#     4  10  18  28  48  75 101 126 160 201 242 290
#     4  10  18  30  53  80 102 130 173 216 253 297
#
# _framework density 25.544488999999999
#
# number of rings (size 3 to 8) (size 9 to 14) (size 15 to 20)
#    0.000    2.500    1.250    4.125    0.000    3.000 
#    0.000    1.250    0.000   21.750    0.000    8.750 
#    0.000    0.000    0.000    0.000    0.000    0.000 
#
# Total GULP energy -179067.517347 kJ/mol
# GULP energy per Si atom -5595.859917 kJ/mol
# Density = 2.548635 g / cm^3
# Si number density = 25.544489 Si / 1000 Ang^3
#
#
#
# Elastic Constant Matrix: (Units=GPa)
#
#
# Indices 1 2 3 4 5 6 
#
# 1 82.1631 36.7770 27.6995 0.0000 0.0000 0.0000
# 2 36.7770 204.5086 99.1516 0.0000 0.0000 0.0000
# 3 27.6995 99.1516 289.8899 0.0000 0.0000 0.0000
# 4 0.0000 0.0000 0.0000 37.7708 0.0000 0.0000
# 5 0.0000 0.0000 0.0000 0.0000 8.4808 0.0000
# 6 0.0000 0.0000 0.0000 0.0000 0.0000 1.1038
#
#
#
# Elastic Compliance Matrix: (Units=1/GPa)
#
#
# Indices 1 2 3 4 5 6 
#
# 1 0.013307 -0.002130 -0.000543 0.000000 0.000000 0.000000
# 2 -0.002130 0.006203 -0.001918 0.000000 0.000000 0.000000
# 3 -0.000543 -0.001918 0.004157 0.000000 0.000000 0.000000
# 4 0.000000 0.000000 0.000000 0.026475 0.000000 0.000000
# 5 0.000000 0.000000 0.000000 0.000000 0.117913 0.000000
# 6 0.000000 0.000000 0.000000 0.000000 0.000000 0.905990
#
#
# Mechanical properties :
#
#
# Convention : Reuss Voigt Hill
#
# Bulk Modulus (GPa) = 69.03331 100.42418 84.72874
# Shear Modulus (GPa) = 4.59535 36.99997 20.79766
#
# Velocity S-wave (km/s) = 1.34271 3.80998 2.85647
# Velocity P-wave (km/s) = 5.43021 7.66508 6.64231
#
# Compressibility (1/GPa) = 0.01448576
#
# Stress axis : x y z
#
# Youngs Moduli (GPa) = 75.14665 161.22083 240.52918
#
# Poissons Ratio (x) = 0.34336 0.13063
# Poissons Ratio (y) = 0.16004 0.46134
# Poissons Ratio (z) = 0.04081 0.30922
#
# Static dielectric constant tensor:
#      x y z
#    x 2.056920 0.000000 0.000000 
#    y 0.000000 1.931860 0.000000 
#    z 0.000000 0.000000 2.042640 
# 
# From -- ./inp_files/13384.got.cif
#   From: 2010.05.17/outbox.cif.g08.bks.cpg/sg65_7_cif.got.tgz:13384.got - 2010.06.03 17:01:31.
