data_PCOD9483606
_publ_section_title
;
Structure prediction by ZEFSAII (Michael W. Deem and Ramdas Pophale) SiO2 
 PCOD9483606
Probable space group: C M M M
;
_chemical_formula_sum "Si O2"
_cell_formula_units_Z 96
_cell_length_a 13.001691
_cell_length_b 26.310401
_cell_length_c 18.510263
_cell_angle_alpha 90.000000
_cell_angle_beta 90.000000
_cell_angle_gamma 90.000000
_cell_volume 6331.985286
_symmetry_space_group_name_H-M "C M M M"
_symmetry_group_IT_number 65
_symmetry_cell_setting 'orthorhombic'
loop_
_space_group_symop_operation_xyz
x,y,z
-x,-y,z
x,-y,-z
-x,y,-z
-x,-y,-z
x,y,-z
-x,y,z
x,-y,z
1/2+x,1/2+y,z
1/2-x,1/2-y,z
1/2+x,1/2-y,-z
1/2-x,1/2+y,-z
1/2-x,1/2-y,-z
1/2+x,1/2+y,-z
1/2-x,1/2+y,z
1/2+x,1/2-y,z
loop_
_atom_site_type_symbol
_atom_site_label
_atom_site_fract_x
_atom_site_fract_y
_atom_site_fract_z
Si Si1 0.875980 0.941661 0.082426
Si Si2 0.500000 0.337545 0.586817
Si Si3 0.500000 0.440087 0.679454
Si Si4 0.683959 0.605622 0.226735
Si Si5 0.114297 0.559938 0.709475
Si Si6 0.882463 0.633810 0.415340
Si Si7 0.795221 0.805253 0.332947
O O1 0.838336 0.902813 0.142856
O O2 0.000000 0.941090 0.083417
O O3 0.844588 0.000000 0.100738
O O4 0.843209 0.931089 0.000000
O O5 0.500000 0.337113 0.500000
O O6 0.500000 0.396266 0.617132
O O7 0.601278 0.309758 0.618966
O O8 0.500000 0.500000 0.658370
O O9 0.599795 0.427472 0.728593
O O10 0.796481 0.584817 0.244454
O O11 0.680462 0.661764 0.261209
O O12 0.124405 0.500000 0.710663
O O13 0.123236 0.581005 0.628025
O O14 0.000000 0.574228 0.735304
O O15 0.863441 0.628329 0.500000
O O16 0.795862 0.667809 0.378267
O O17 0.000000 0.653443 0.405887
O O18 0.750000 0.750000 0.316729
#
# Coordination Sequence:
#
# PCOD9483606 Si02
#       7
#    16   8   8  16  16  16  16
#     4   9  16  26  46  79 111 131 147 174 223 287
#     4  10  22  35  48  71  97 124 163 208 252 301
#     4  10  18  29  49  74 100 131 157 187 240 307
#     4  10  18  31  49  69  98 127 158 193 233 284
#     4   9  17  28  43  64  90 123 161 194 226 271
#     4   9  18  31  46  65  88 116 154 199 246 289
#     4  10  22  36  49  67  90 120 165 207 247 288
#
# _framework density 15.161122000000001
#
# number of rings (size 3 to 8) (size 9 to 14) (size 15 to 20)
#    0.000    2.500    0.833    2.500    1.167    1.833 
#    0.000    1.667    0.000    7.000    0.000    2.333 
#    0.000    0.000    0.000    0.000    0.000    0.000 
#
# Total GULP energy -267300.017660 kJ/mol
# GULP energy per Si atom -5568.750368 kJ/mol
# Density = 1.512661 g / cm^3
# Si number density = 15.161122 Si / 1000 Ang^3
#
#
#
# Elastic Constant Matrix: (Units=GPa)
#
#
# Indices 1 2 3 4 5 6 
#
# 1 70.5000 33.3577 35.0042 0.0000 0.0000 0.0000
# 2 33.3577 73.9034 40.3090 0.0000 0.0000 0.0000
# 3 35.0042 40.3090 110.0782 0.0000 0.0000 0.0000
# 4 0.0000 0.0000 0.0000 8.9407 0.0000 0.0000
# 5 0.0000 0.0000 0.0000 0.0000 18.7525 0.0000
# 6 0.0000 0.0000 0.0000 0.0000 0.0000 20.1427
#
#
#
# Elastic Compliance Matrix: (Units=1/GPa)
#
#
# Indices 1 2 3 4 5 6 
#
# 1 0.019144 -0.006648 -0.003653 0.000000 0.000000 0.000000
# 2 -0.006648 0.019217 -0.004923 0.000000 0.000000 0.000000
# 3 -0.003653 -0.004923 0.012049 0.000000 0.000000 0.000000
# 4 0.000000 0.000000 0.000000 0.111849 0.000000 0.000000
# 5 0.000000 0.000000 0.000000 0.000000 0.053326 0.000000
# 6 0.000000 0.000000 0.000000 0.000000 0.000000 0.049646
#
#
# Mechanical properties :
#
#
# Convention : Reuss Voigt Hill
#
# Bulk Modulus (GPa) = 50.09755 52.42481 51.26118
# Shear Modulus (GPa) = 16.53806 19.28790 17.91298
#
# Velocity S-wave (km/s) = 3.30634 3.57065 3.44104
# Velocity P-wave (km/s) = 6.90587 7.18700 7.04783
#
# Compressibility (1/GPa) = 0.01996106
#
# Stress axis : x y z
#
# Youngs Moduli (GPa) = 52.23570 52.03678 82.99585
#
# Poissons Ratio (x) = 0.34597 0.30319
# Poissons Ratio (y) = 0.34729 0.40858
# Poissons Ratio (z) = 0.19082 0.25617
#
# Static dielectric constant tensor:
#      x y z
#    x 1.514050 0.000000 0.000000 
#    y 0.000000 1.510960 0.000000 
#    z 0.000000 0.000000 1.487320 
# 
# From -- ./inp_files/61912.got.cif
#   From: 2010.05.17/outbox.cif.g08.bks.cpg/sg65_31_cif.got.tgz:61912.got - 2010.06.03 17:01:31.
