data_PCOD9483146
_publ_section_title
;
Structure prediction by ZEFSAII (Michael W. Deem and Ramdas Pophale) SiO2 
 PCOD9483146
Probable space group: C M M M
;
_chemical_formula_sum "Si O2"
_cell_formula_units_Z 104
_cell_length_a 18.324276
_cell_length_b 26.890995
_cell_length_c 13.260117
_cell_angle_alpha 90.000000
_cell_angle_beta 90.000000
_cell_angle_gamma 90.000000
_cell_volume 6534.028922
_symmetry_space_group_name_H-M "C M M M"
_symmetry_group_IT_number 65
_symmetry_cell_setting 'orthorhombic'
loop_
_space_group_symop_operation_xyz
x,y,z
-x,-y,z
x,-y,-z
-x,y,-z
-x,-y,-z
x,y,-z
-x,y,z
x,-y,z
1/2+x,1/2+y,z
1/2-x,1/2-y,z
1/2+x,1/2-y,-z
1/2-x,1/2+y,-z
1/2-x,1/2-y,-z
1/2+x,1/2+y,-z
1/2-x,1/2+y,z
1/2+x,1/2-y,z
loop_
_atom_site_type_symbol
_atom_site_label
_atom_site_fract_x
_atom_site_fract_y
_atom_site_fract_z
Si Si1 0.911727 0.000000 0.884032
Si Si2 0.419450 0.213022 0.174914
Si Si3 0.264471 0.809193 0.802964
Si Si4 0.917562 0.909835 0.262412
Si Si5 0.806684 0.852820 0.385162
Si Si6 0.389572 0.675540 0.889597
Si Si7 0.917472 0.760096 0.389493
O O1 0.892703 0.047975 0.816587
O O2 0.000000 0.000000 0.890612
O O3 0.884435 0.000000 0.000000
O O4 0.500000 0.192057 0.153664
O O5 0.344531 0.185217 0.149538
O O6 0.414829 0.267843 0.125737
O O7 0.411870 0.223725 0.295067
O O8 0.250000 0.750000 0.783276
O O9 0.253319 0.839733 0.699327
O O10 0.197792 0.824683 0.874558
O O11 0.858121 0.898077 0.348028
O O12 0.920305 0.859405 0.196756
O O13 0.000000 0.921214 0.298775
O O14 0.781139 0.858980 0.500000
O O15 0.859547 0.804236 0.382305
O O16 0.410237 0.657586 0.000000
O O17 0.908363 0.736283 0.500000
O O18 0.000000 0.781200 0.385416
#
# Coordination Sequence:
#
# PCOD9483146 Si02
#       7
#     8  16  16  16  16  16  16
#     4   9  18  30  45  63  83 109 137 170 210 246
#     4  10  18  28  39  57  80 104 139 176 209 242
#     4   9  17  29  39  56  78 104 137 176 210 243
#     4  10  18  30  44  62  84 105 137 175 207 244
#     4  10  18  27  42  59  78 107 137 167 206 245
#     4  10  19  29  42  57  77 106 139 176 214 249
#     4   9  15  23  36  54  75  98 126 162 200 233
#
# _framework density 15.916672999999999
#
# number of rings (size 3 to 8) (size 9 to 14) (size 15 to 20)
#    0.000    2.385    4.615    1.385    0.000    6.462 
#    0.000    0.385    0.000    1.385    0.000    0.000 
#    0.000    0.000    0.000   11.077    0.000   33.846 
#
# Total GULP energy -289580.046124 kJ/mol
# GULP energy per Si atom -5568.847041 kJ/mol
# Density = 1.588045 g / cm^3
# Si number density = 15.916673 Si / 1000 Ang^3
#
#
#
# Elastic Constant Matrix: (Units=GPa)
#
#
# Indices 1 2 3 4 5 6 
#
# 1 93.8477 4.0644 -8.2831 0.0000 0.0000 0.0000
# 2 4.0644 21.1476 -0.8858 0.0000 0.0000 0.0000
# 3 -8.2831 -0.8858 48.3636 0.0000 0.0000 0.0000
# 4 0.0000 0.0000 0.0000 6.4207 0.0000 0.0000
# 5 0.0000 0.0000 0.0000 0.0000 4.5119 0.0000
# 6 0.0000 0.0000 0.0000 0.0000 0.0000 4.4534
#
#
#
# Elastic Compliance Matrix: (Units=1/GPa)
#
#
# Indices 1 2 3 4 5 6 
#
# 1 0.010905 -0.002019 0.001831 0.000000 0.000000 0.000000
# 2 -0.002019 0.047697 0.000528 0.000000 0.000000 0.000000
# 3 0.001831 0.000528 0.021000 0.000000 0.000000 0.000000
# 4 0.000000 0.000000 0.000000 0.155745 0.000000 0.000000
# 5 0.000000 0.000000 0.000000 0.000000 0.221636 0.000000
# 6 0.000000 0.000000 0.000000 0.000000 0.000000 0.224546
#
#
# Mechanical properties :
#
#
# Convention : Reuss Voigt Hill
#
# Bulk Modulus (GPa) = 12.45642 17.01667 14.73655
# Shear Modulus (GPa) = 7.06604 14.30811 10.68707
#
# Velocity S-wave (km/s) = 2.10927 3.00148 2.59403
# Velocity P-wave (km/s) = 3.71148 4.76720 4.27207
#
# Compressibility (1/GPa) = 0.08027987
#
# Stress axis : x y z
#
# Youngs Moduli (GPa) = 91.70465 20.96578 47.61926
#
# Poissons Ratio (x) = 0.04233 -0.08717
# Poissons Ratio (y) = 0.18516 -0.02513
# Poissons Ratio (z) = -0.16787 -0.01107
#
# Static dielectric constant tensor:
#      x y z
#    x 1.582490 0.000000 0.000000 
#    y 0.000000 1.515530 0.000000 
#    z 0.000000 0.000000 1.575130 
# 
# From -- ./inp_files/43244.got.cif
#   From: 2010.05.17/outbox.cif.g08.bks.cpg/sg65_22_cif.got.tgz:43244.got - 2010.06.03 17:01:31.
