data_PCOD9483038
_publ_section_title
;
Structure prediction by ZEFSAII (Michael W. Deem and Ramdas Pophale) SiO2 
 PCOD9483038
Probable space group: C M M M
;
_chemical_formula_sum "Si O2"
_cell_formula_units_Z 88
_cell_length_a 20.224477
_cell_length_b 13.666534
_cell_length_c 16.290020
_cell_angle_alpha 90.000000
_cell_angle_beta 90.000000
_cell_angle_gamma 90.000000
_cell_volume 4502.537135
_symmetry_space_group_name_H-M "C M M M"
_symmetry_group_IT_number 65
_symmetry_cell_setting 'orthorhombic'
loop_
_space_group_symop_operation_xyz
x,y,z
-x,-y,z
x,-y,-z
-x,y,-z
-x,-y,-z
x,y,-z
-x,y,z
x,-y,z
1/2+x,1/2+y,z
1/2-x,1/2-y,z
1/2+x,1/2-y,-z
1/2-x,1/2+y,-z
1/2-x,1/2-y,-z
1/2+x,1/2+y,-z
1/2-x,1/2+y,z
1/2+x,1/2-y,z
loop_
_atom_site_type_symbol
_atom_site_label
_atom_site_fract_x
_atom_site_fract_y
_atom_site_fract_z
Si Si1 0.423735 0.725224 0.097513
Si Si2 0.333752 0.110005 0.173751
Si Si3 0.814446 0.609928 0.371325
Si Si4 0.186890 0.885666 0.179512
Si Si5 0.832758 0.175942 0.360546
Si Si6 0.573104 0.500000 0.402146
O O1 0.500000 0.710922 0.123434
O O2 0.389284 0.817346 0.141720
O O3 0.374643 0.637095 0.121656
O O4 0.422845 0.739461 0.000000
O O5 0.325943 0.106853 0.272792
O O6 0.259475 0.135887 0.143304
O O7 0.349116 0.000000 0.146282
O O8 0.832382 0.500000 0.401405
O O9 0.846192 0.715123 0.394858
O O10 0.737156 0.630882 0.390505
O O11 0.177321 0.822371 0.261998
O O12 0.188032 0.000000 0.203812
O O13 0.888716 0.097645 0.377293
O O14 0.500000 0.500000 0.365996
O O15 0.569802 0.500000 0.500000
#
# Coordination Sequence:
#
# PCOD9483038 Si02
#       6
#    16  16  16  16  16   8
#     4  11  24  37  48  71 111 150 183 230 291 350
#     4   9  18  34  56  79 103 136 183 235 284 333
#     4   9  16  30  59  89 114 141 178 239 294 330
#     4  10  19  35  58  82 102 135 189 240 289 339
#     4  10  17  34  59  85 116 147 186 234 281 332
#     4  11  24  40  58  86 125 161 192 225 269 339
#
# _framework density 19.544536000000001
#
# number of rings (size 3 to 8) (size 9 to 14) (size 15 to 20)
#    0.000    2.091    3.636    1.636    0.000    3.636 
#    0.000    5.455    0.000    0.545    0.000    1.273 
#    0.000    0.000    0.000    0.000    0.000    0.000 
#
# Total GULP energy -245223.710111 kJ/mol
# GULP energy per Si atom -5573.266139 kJ/mol
# Density = 1.950005 g / cm^3
# Si number density = 19.544536 Si / 1000 Ang^3
#
#
#
# Elastic Constant Matrix: (Units=GPa)
#
#
# Indices 1 2 3 4 5 6 
#
# 1 90.2750 17.3142 8.1977 0.0000 0.0000 0.0000
# 2 17.3142 150.2437 -6.5869 0.0000 0.0000 0.0000
# 3 8.1977 -6.5869 29.3855 0.0000 0.0000 0.0000
# 4 0.0000 0.0000 0.0000 116.3810 0.0000 0.0000
# 5 0.0000 0.0000 0.0000 0.0000 22.0133 0.0000
# 6 0.0000 0.0000 0.0000 0.0000 0.0000 38.8722
#
#
#
# Elastic Compliance Matrix: (Units=1/GPa)
#
#
# Indices 1 2 3 4 5 6 
#
# 1 0.011693 -0.001505 -0.003599 0.000000 0.000000 0.000000
# 2 -0.001505 0.006916 0.001970 0.000000 0.000000 0.000000
# 3 -0.003599 0.001970 0.035476 0.000000 0.000000 0.000000
# 4 0.000000 0.000000 0.000000 0.008592 0.000000 0.000000
# 5 0.000000 0.000000 0.000000 0.000000 0.045427 0.000000
# 6 0.000000 0.000000 0.000000 0.000000 0.000000 0.025725
#
#
# Mechanical properties :
#
#
# Convention : Reuss Voigt Hill
#
# Bulk Modulus (GPa) = 20.91370 34.19491 27.55430
# Shear Modulus (GPa) = 32.04365 52.18524 42.11445
#
# Velocity S-wave (km/s) = 4.05349 5.17288 4.64701
# Velocity P-wave (km/s) = 5.71240 7.29466 6.55147
#
# Compressibility (1/GPa) = 0.04781555
#
# Stress axis : x y z
#
# Youngs Moduli (GPa) = 85.52249 144.59856 28.18795
#
# Poissons Ratio (x) = 0.21766 0.10146
# Poissons Ratio (y) = 0.12874 -0.05553
# Poissons Ratio (z) = 0.30783 -0.28488
#
# Static dielectric constant tensor:
#      x y z
#    x 1.671530 0.000000 0.000000 
#    y 0.000000 1.756660 0.000000 
#    z 0.000000 0.000000 1.715080 
# 
# From -- ./inp_files/54289.got.cif
#   From: 2010.05.17/outbox.cif.g08.bks.cpg/sg65_28_cif.got.tgz:54289.got - 2010.06.03 17:01:31.
