data_PCOD9483742
_publ_section_title
;
Structure prediction by ZEFSAII (Michael W. Deem and Ramdas Pophale) SiO2 
 PCOD9483742
Probable space group: C M M M
;
_chemical_formula_sum "Si O2"
_cell_formula_units_Z 64
_cell_length_a 7.522504
_cell_length_b 26.439896
_cell_length_c 17.879837
_cell_angle_alpha 90.000000
_cell_angle_beta 90.000000
_cell_angle_gamma 90.000000
_cell_volume 3556.196295
_symmetry_space_group_name_H-M "C M M M"
_symmetry_group_IT_number 65
_symmetry_cell_setting 'orthorhombic'
loop_
_space_group_symop_operation_xyz
x,y,z
-x,-y,z
x,-y,-z
-x,y,-z
-x,-y,-z
x,y,-z
-x,y,z
x,-y,z
1/2+x,1/2+y,z
1/2-x,1/2-y,z
1/2+x,1/2-y,-z
1/2-x,1/2+y,-z
1/2-x,1/2-y,-z
1/2+x,1/2+y,-z
1/2-x,1/2+y,z
1/2+x,1/2-y,z
loop_
_atom_site_type_symbol
_atom_site_label
_atom_site_fract_x
_atom_site_fract_y
_atom_site_fract_z
Si Si1 0.209897 0.561295 0.000000
Si Si2 0.217888 0.559060 0.837241
Si Si3 0.787302 0.000000 0.585720
Si Si4 0.713252 0.192901 0.414804
Si Si5 0.289395 0.900031 0.681415
O O1 0.280297 0.577657 0.081054
O O2 0.223766 0.500000 0.000000
O O3 0.000000 0.573427 0.000000
O O4 0.267177 0.500000 0.828560
O O5 0.281298 0.588767 0.764378
O O6 0.000000 0.559928 0.838237
O O7 0.731536 0.949930 0.630531
O O8 0.720679 0.000000 0.500000
O O9 0.000000 0.000000 0.583195
O O10 0.781676 0.187782 0.500000
O O11 0.500000 0.187240 0.418533
O O12 0.750000 0.250000 0.389127
O O13 0.783717 0.148764 0.361601
O O14 0.500000 0.891776 0.690704
#
# Coordination Sequence:
#
# PCOD9483742 Si02
#       5
#     8  16   8  16  16
#     4   7  10  16  30  56  89 114 132 162 208 248
#     4   8  12  20  36  61  89 113 136 169 209 248
#     4  11  23  33  41  60  91 122 146 171 213 265
#     4   9  18  31  46  63  82 107 142 184 224 258
#     4  10  18  30  48  67  86 112 148 183 215 253
#
# _framework density 17.996756999999999
#
# number of rings (size 3 to 8) (size 9 to 14) (size 15 to 20)
#    0.000    3.000    1.250    2.625    0.000    3.000 
#    0.000    2.500    0.000    0.000    0.000    2.625 
#    0.000    0.000    0.000    0.000    0.000    0.000 
#
# Total GULP energy -178331.103536 kJ/mol
# GULP energy per Si atom -5572.846986 kJ/mol
# Density = 1.795580 g / cm^3
# Si number density = 17.996757 Si / 1000 Ang^3
#
#
#
# Elastic Constant Matrix: (Units=GPa)
#
#
# Indices 1 2 3 4 5 6 
#
# 1 44.4778 -3.3268 4.2459 0.0000 0.0000 0.0000
# 2 -3.3268 120.4872 95.8967 0.0000 0.0000 0.0000
# 3 4.2459 95.8967 192.7576 0.0000 0.0000 0.0000
# 4 0.0000 0.0000 0.0000 25.3040 0.0000 0.0000
# 5 0.0000 0.0000 0.0000 0.0000 -11.5317 0.0000
# 6 0.0000 0.0000 0.0000 0.0000 0.0000 10.7603
#
#
#
# Elastic Compliance Matrix: (Units=1/GPa)
#
#
# Indices 1 2 3 4 5 6 
#
# 1 0.022739 0.001699 -0.001346 0.000000 0.000000 0.000000
# 2 0.001699 0.013867 -0.006936 0.000000 0.000000 0.000000
# 3 -0.001346 -0.006936 0.008668 0.000000 0.000000 0.000000
# 4 0.000000 0.000000 0.000000 0.039519 0.000000 0.000000
# 5 0.000000 0.000000 0.000000 0.000000 -0.086718 0.000000
# 6 0.000000 0.000000 0.000000 0.000000 0.000000 0.092934
#
#
# Mechanical properties :
#
#
# Convention : Reuss Voigt Hill
#
# Bulk Modulus (GPa) = 31.14508 61.26154 46.20331
# Shear Modulus (GPa) = 43.52379 22.30031 32.91205
#
# Velocity S-wave (km/s) = 4.92308 3.52395 4.28106
# Velocity P-wave (km/s) = 7.04693 7.11841 7.08276
#
# Compressibility (1/GPa) = 0.03210780
#
# Stress axis : x y z
#
# Youngs Moduli (GPa) = 43.97776 72.11217 115.36201
#
# Poissons Ratio (x) = -0.12255 0.15531
# Poissons Ratio (y) = -0.07474 0.80020
# Poissons Ratio (z) = 0.05921 0.50020
#
# Static dielectric constant tensor:
#      x y z
#    x 1.679510 0.000000 0.000000 
#    y 0.000000 1.584620 0.000000 
#    z 0.000000 0.000000 1.665900 
# 
# From -- ./inp_files/49647.got.cif
#   From: 2010.05.17/outbox.cif.g08.bks.cpg/sg65_25_cif.got.tgz:49647.got - 2010.06.03 17:01:31.
