data_PCOD9483714
_publ_section_title
;
Structure prediction by ZEFSAII (Michael W. Deem and Ramdas Pophale) SiO2 
 PCOD9483714
Probable space group: C M M M
;
_chemical_formula_sum "Si O2"
_cell_formula_units_Z 72
_cell_length_a 20.203021
_cell_length_b 8.575526
_cell_length_c 23.777436
_cell_angle_alpha 90.000000
_cell_angle_beta 90.000000
_cell_angle_gamma 90.000000
_cell_volume 4119.477211
_symmetry_space_group_name_H-M "C M M M"
_symmetry_group_IT_number 65
_symmetry_cell_setting 'orthorhombic'
loop_
_space_group_symop_operation_xyz
x,y,z
-x,-y,z
x,-y,-z
-x,y,-z
-x,-y,-z
x,y,-z
-x,y,z
x,-y,z
1/2+x,1/2+y,z
1/2-x,1/2-y,z
1/2+x,1/2-y,-z
1/2-x,1/2+y,-z
1/2-x,1/2-y,-z
1/2+x,1/2+y,-z
1/2-x,1/2+y,z
1/2+x,1/2-y,z
loop_
_atom_site_type_symbol
_atom_site_label
_atom_site_fract_x
_atom_site_fract_y
_atom_site_fract_z
Si Si1 0.575836 0.189886 0.283691
Si Si2 0.676824 0.313545 0.936034
Si Si3 0.325322 0.686334 0.500000
Si Si4 0.175004 0.687774 0.618240
Si Si5 0.576469 0.811950 0.843976
O O1 0.500000 0.239014 0.295405
O O2 0.628205 0.239546 0.330538
O O3 0.593332 0.237933 0.219961
O O4 0.575661 0.000000 0.284005
O O5 0.678760 0.500000 0.935195
O O6 0.750000 0.250000 0.923372
O O7 0.624807 0.254823 0.890563
O O8 0.659833 0.262693 0.000000
O O9 0.325091 0.500000 0.500000
O O10 0.250000 0.750000 0.500000
O O11 0.353087 0.750313 0.558710
O O12 0.177460 0.500000 0.616280
O O13 0.250000 0.750000 0.625178
O O14 0.500000 0.767522 0.854375
O O15 0.579952 0.000000 0.845493
#
# Coordination Sequence:
#
# PCOD9483714 Si02
#       5
#    16  16   8  16  16
#     4   8  16  32  52  73  98 129 164 201 239 283
#     4  10  21  36  53  74 102 134 168 208 252 297
#     4  10  18  30  47  68  97 127 159 199 241 286
#     4  10  18  30  50  73  97 125 160 200 241 287
#     4   9  18  34  55  77 102 133 168 205 247 296
#
# _framework density 17.477947
#
# number of rings (size 3 to 8) (size 9 to 14) (size 15 to 20)
#    0.000    2.667    0.000    5.000    0.000    3.111 
#    0.000    7.222    0.000    8.667    0.000    0.000 
#    0.000    0.000    0.000    0.000    0.000    0.000 
#
# Total GULP energy -200691.172198 kJ/mol
# GULP energy per Si atom -5574.754783 kJ/mol
# Density = 1.743817 g / cm^3
# Si number density = 17.477947 Si / 1000 Ang^3
#
#
#
# Elastic Constant Matrix: (Units=GPa)
#
#
# Indices 1 2 3 4 5 6 
#
# 1 102.0506 32.0575 122.4427 0.0000 0.0000 0.0000
# 2 32.0575 46.7800 43.2178 0.0000 0.0000 0.0000
# 3 122.4427 43.2178 190.8358 0.0000 0.0000 0.0000
# 4 0.0000 0.0000 0.0000 25.3272 0.0000 0.0000
# 5 0.0000 0.0000 0.0000 0.0000 568.5557 0.0000
# 6 0.0000 0.0000 0.0000 0.0000 0.0000 23.3648
#
#
#
# Elastic Compliance Matrix: (Units=1/GPa)
#
#
# Indices 1 2 3 4 5 6 
#
# 1 0.043510 -0.005091 -0.026764 0.000000 0.000000 0.000000
# 2 -0.005091 0.027628 -0.002990 0.000000 0.000000 0.000000
# 3 -0.026764 -0.002990 0.023089 0.000000 0.000000 0.000000
# 4 0.000000 0.000000 0.000000 0.039483 0.000000 0.000000
# 5 0.000000 0.000000 0.000000 0.000000 0.001759 0.000000
# 6 0.000000 0.000000 0.000000 0.000000 0.000000 0.042799
#
#
# Mechanical properties :
#
#
# Convention : Reuss Voigt Hill
#
# Bulk Modulus (GPa) = 40.75428 81.67801 61.21615
# Shear Modulus (GPa) = 19.52078 132.91277 76.21677
#
# Velocity S-wave (km/s) = 3.34560 8.72990 6.61075
# Velocity P-wave (km/s) = 6.18807 12.18393 9.66283
#
# Compressibility (1/GPa) = 0.02453730
#
# Stress axis : x y z
#
# Youngs Moduli (GPa) = 22.98332 36.19506 43.31037
#
# Poissons Ratio (x) = 0.18427 1.15914
# Poissons Ratio (y) = 0.11701 0.12952
# Poissons Ratio (z) = 0.61511 0.10824
#
# Static dielectric constant tensor:
#      x y z
#    x 1.648210 0.000000 0.000000 
#    y 0.000000 1.599900 0.000000 
#    z 0.000000 0.000000 1.613500 
# 
# From -- ./inp_files/59242.got.cif
#   From: 2010.05.17/outbox.cif.g08.bks.cpg/sg65_30_cif.got.tgz:59242.got - 2010.06.03 17:01:31.
