data_PCOD9483638
_publ_section_title
;
Structure prediction by ZEFSAII (Michael W. Deem and Ramdas Pophale) SiO2 
 PCOD9483638
Probable space group: C M M M
;
_chemical_formula_sum "Si O2"
_cell_formula_units_Z 72
_cell_length_a 14.460181
_cell_length_b 14.351273
_cell_length_c 18.829015
_cell_angle_alpha 90.000000
_cell_angle_beta 90.000000
_cell_angle_gamma 90.000000
_cell_volume 3907.434948
_symmetry_space_group_name_H-M "C M M M"
_symmetry_group_IT_number 65
_symmetry_cell_setting 'orthorhombic'
loop_
_space_group_symop_operation_xyz
x,y,z
-x,-y,z
x,-y,-z
-x,y,-z
-x,-y,-z
x,y,-z
-x,y,z
x,-y,z
1/2+x,1/2+y,z
1/2-x,1/2-y,z
1/2+x,1/2-y,-z
1/2-x,1/2+y,-z
1/2-x,1/2-y,-z
1/2+x,1/2+y,-z
1/2-x,1/2+y,z
1/2+x,1/2-y,z
loop_
_atom_site_type_symbol
_atom_site_label
_atom_site_fract_x
_atom_site_fract_y
_atom_site_fract_z
Si Si1 0.208748 0.889329 0.780105
Si Si2 0.607728 0.386609 0.920776
Si Si3 0.112939 0.107991 0.500000
Si Si4 0.109855 0.796978 0.645377
Si Si5 0.893915 0.606051 0.708487
O O1 0.169410 0.854679 0.854909
O O2 0.160248 0.840341 0.713406
O O3 0.318379 0.877950 0.769526
O O4 0.188568 0.000000 0.775202
O O5 0.500000 0.361979 0.909035
O O6 0.611797 0.500000 0.921644
O O7 0.635047 0.354935 0.000000
O O8 0.143320 0.158921 0.428061
O O9 0.000000 0.110836 0.500000
O O10 0.140591 0.000000 0.500000
O O11 0.121747 0.685672 0.650104
O O12 0.000000 0.816619 0.651845
O O13 0.881281 0.500000 0.682358
O O14 0.000000 0.615398 0.733153
#
# Coordination Sequence:
#
# PCOD9483638 Si02
#       5
#    16  16   8  16  16
#     4  10  18  29  50  77 102 130 165 204 250 305
#     4   8  14  25  43  72 109 139 160 192 246 310
#     4   9  18  32  50  77 112 138 155 190 252 317
#     4  10  19  32  52  76 102 131 163 202 251 305
#     4   9  19  35  51  67  92 131 179 221 249 280
#
# _framework density 18.426411000000002
#
# number of rings (size 3 to 8) (size 9 to 14) (size 15 to 20)
#    0.000    2.778    0.000    2.667    0.000    2.222 
#    0.000    2.778    0.000    9.333    0.000    7.778 
#    0.000    0.000    0.000    0.000    0.000    0.000 
#
# Total GULP energy -200656.573976 kJ/mol
# GULP energy per Si atom -5573.793722 kJ/mol
# Density = 1.838447 g / cm^3
# Si number density = 18.426411 Si / 1000 Ang^3
#
#
#
# Elastic Constant Matrix: (Units=GPa)
#
#
# Indices 1 2 3 4 5 6 
#
# 1 65.9243 50.3585 68.8851 0.0000 0.0000 0.0000
# 2 50.3585 77.5770 71.7581 0.0000 0.0000 0.0000
# 3 68.8851 71.7581 169.2377 0.0000 0.0000 0.0000
# 4 0.0000 0.0000 0.0000 9.1972 0.0000 0.0000
# 5 0.0000 0.0000 0.0000 0.0000 6.8187 0.0000
# 6 0.0000 0.0000 0.0000 0.0000 0.0000 18.1803
#
#
#
# Elastic Compliance Matrix: (Units=1/GPa)
#
#
# Indices 1 2 3 4 5 6 
#
# 1 0.035213 -0.015796 -0.007635 0.000000 0.000000 0.000000
# 2 -0.015796 0.028294 -0.005567 0.000000 0.000000 0.000000
# 3 -0.007635 -0.005567 0.011377 0.000000 0.000000 0.000000
# 4 0.000000 0.000000 0.000000 0.108729 0.000000 0.000000
# 5 0.000000 0.000000 0.000000 0.000000 0.146656 0.000000
# 6 0.000000 0.000000 0.000000 0.000000 0.000000 0.055005
#
#
# Mechanical properties :
#
#
# Convention : Reuss Voigt Hill
#
# Bulk Modulus (GPa) = 59.21589 77.19359 68.20474
# Shear Modulus (GPa) = 11.13832 14.95506 13.04669
#
# Velocity S-wave (km/s) = 2.46128 2.85197 2.66379
# Velocity P-wave (km/s) = 6.34692 7.26834 6.82320
#
# Compressibility (1/GPa) = 0.01688736
#
# Stress axis : x y z
#
# Youngs Moduli (GPa) = 28.39824 35.34314 87.89373
#
# Poissons Ratio (x) = 0.55827 0.67111
# Poissons Ratio (y) = 0.44857 0.48935
# Poissons Ratio (z) = 0.21683 0.19677
#
# Static dielectric constant tensor:
#      x y z
#    x 1.652870 0.000000 0.000000 
#    y 0.000000 1.654850 0.000000 
#    z 0.000000 0.000000 1.606200 
# 
# From -- ./inp_files/52719.got.cif
#   From: 2010.05.17/outbox.cif.g08.bks.cpg/sg65_27_cif.got.tgz:52719.got - 2010.06.03 17:01:31.
