data_PCOD9483352
_publ_section_title
;
Structure prediction by ZEFSAII (Michael W. Deem and Ramdas Pophale) SiO2 
 PCOD9483352
Probable space group: C M M M
;
_chemical_formula_sum "Si O2"
_cell_formula_units_Z 104
_cell_length_a 8.920284
_cell_length_b 31.657101
_cell_length_c 22.945828
_cell_angle_alpha 90.000000
_cell_angle_beta 90.000000
_cell_angle_gamma 90.000000
_cell_volume 6479.679976
_symmetry_space_group_name_H-M "C M M M"
_symmetry_group_IT_number 65
_symmetry_cell_setting 'orthorhombic'
loop_
_space_group_symop_operation_xyz
x,y,z
-x,-y,z
x,-y,-z
-x,y,-z
-x,-y,-z
x,y,-z
-x,y,z
x,-y,z
1/2+x,1/2+y,z
1/2-x,1/2-y,z
1/2+x,1/2-y,-z
1/2-x,1/2+y,-z
1/2-x,1/2-y,-z
1/2+x,1/2+y,-z
1/2-x,1/2+y,z
1/2+x,1/2-y,z
loop_
_atom_site_type_symbol
_atom_site_label
_atom_site_fract_x
_atom_site_fract_y
_atom_site_fract_z
Si Si1 0.672338 0.051216 0.000000
Si Si2 0.671453 0.792715 0.204309
Si Si3 0.173132 0.293277 0.653817
Si Si4 0.317632 0.452056 0.433583
Si Si5 0.678966 0.550171 0.877762
Si Si6 0.180546 0.881430 0.658753
Si Si7 0.818565 0.385753 0.213113
O O1 0.757124 0.063382 0.059103
O O2 0.500000 0.065883 0.000000
O O3 0.670250 0.000000 0.000000
O O4 0.500000 0.790875 0.185289
O O5 0.750000 0.750000 0.183828
O O6 0.674310 0.792017 0.275206
O O7 0.731649 0.839338 0.189545
O O8 0.250000 0.250000 0.633440
O O9 0.262654 0.335518 0.638078
O O10 0.000000 0.295691 0.635637
O O11 0.270099 0.442643 0.500000
O O12 0.500000 0.452004 0.433639
O O13 0.270327 0.500000 0.419082
O O14 0.271183 0.417374 0.386826
O O15 0.500000 0.555898 0.875791
O O16 0.709567 0.500000 0.870099
O O17 0.758411 0.577632 0.828289
O O18 0.252297 0.890021 0.721973
O O19 0.000000 0.881198 0.663716
O O20 0.000000 0.385631 0.216003
#
# Coordination Sequence:
#
# PCOD9483352 Si02
#       7
#     8  16  16  16  16  16  16
#     4   9  17  31  51  71  92 123 160 195 235 281
#     4   8  15  26  41  61  86 117 151 186 223 267
#     4   9  16  27  43  64  91 121 152 186 227 277
#     4   8  15  29  48  68  89 116 154 197 236 278
#     4  10  20  33  49  70  96 126 162 201 236 274
#     4  10  18  28  46  71  96 122 153 192 238 284
#     4  10  20  32  45  67  99 130 159 191 233 284
#
# _framework density 16.050174999999999
#
# number of rings (size 3 to 8) (size 9 to 14) (size 15 to 20)
#    0.000    2.846    0.000    3.462    0.000    6.769 
#    0.000    1.538    0.000    3.692    0.000    4.846 
#    0.000    0.000    0.000    0.000    0.000    0.000 
#
# Total GULP energy -289580.497578 kJ/mol
# GULP energy per Si atom -5568.855723 kJ/mol
# Density = 1.601364 g / cm^3
# Si number density = 16.050175 Si / 1000 Ang^3
#
#
#
# Elastic Constant Matrix: (Units=GPa)
#
#
# Indices 1 2 3 4 5 6 
#
# 1 70.2877 56.6850 37.1595 0.0000 0.0000 0.0000
# 2 56.6850 132.2154 76.0504 0.0000 0.0000 0.0000
# 3 37.1595 76.0504 74.7789 0.0000 0.0000 0.0000
# 4 0.0000 0.0000 0.0000 -2.8560 0.0000 0.0000
# 5 0.0000 0.0000 0.0000 0.0000 5.0227 0.0000
# 6 0.0000 0.0000 0.0000 0.0000 0.0000 27.4947
#
#
#
# Elastic Compliance Matrix: (Units=1/GPa)
#
#
# Indices 1 2 3 4 5 6 
#
# 1 0.022067 -0.007598 -0.003238 0.000000 0.000000 0.000000
# 2 -0.007598 0.020840 -0.017419 0.000000 0.000000 0.000000
# 3 -0.003238 -0.017419 0.032697 0.000000 0.000000 0.000000
# 4 0.000000 0.000000 0.000000 -0.350137 0.000000 0.000000
# 5 0.000000 0.000000 0.000000 0.000000 0.199097 0.000000
# 6 0.000000 0.000000 0.000000 0.000000 0.000000 0.036371
#
#
# Mechanical properties :
#
#
# Convention : Reuss Voigt Hill
#
# Bulk Modulus (GPa) = 52.37370 68.56353 60.46862
# Shear Modulus (GPa) = 209.98898 13.09142 111.54020
#
# Velocity S-wave (km/s) = 11.45063 2.85907 8.34539
# Velocity P-wave (km/s) = 14.40571 7.32871 11.42879
#
# Compressibility (1/GPa) = 0.01909355
#
# Stress axis : x y z
#
# Youngs Moduli (GPa) = 45.31672 47.98361 30.58364
#
# Poissons Ratio (x) = 0.36459 0.09904
# Poissons Ratio (y) = 0.34432 0.53274
# Poissons Ratio (z) = 0.14675 0.83583
#
# Static dielectric constant tensor:
#      x y z
#    x 1.542970 0.000000 0.000000 
#    y 0.000000 1.551250 0.000000 
#    z 0.000000 0.000000 1.510960 
# 
# From -- ./inp_files/68505.got.cif
#   From: 2010.05.17/outbox.cif.g08.bks.cpg/sg65_35_cif.got.tgz:68505.got - 2010.06.03 17:01:31.
