data_PCOD9483709
_publ_section_title
;
Structure prediction by ZEFSAII (Michael W. Deem and Ramdas Pophale) SiO2 
 PCOD9483709
Probable space group: C M M M
;
_chemical_formula_sum "Si O2"
_cell_formula_units_Z 104
_cell_length_a 21.432340
_cell_length_b 33.071132
_cell_length_c 7.896080
_cell_angle_alpha 90.000000
_cell_angle_beta 90.000000
_cell_angle_gamma 90.000000
_cell_volume 5596.676324
_symmetry_space_group_name_H-M "C M M M"
_symmetry_group_IT_number 65
_symmetry_cell_setting 'orthorhombic'
loop_
_space_group_symop_operation_xyz
x,y,z
-x,-y,z
x,-y,-z
-x,y,-z
-x,-y,-z
x,y,-z
-x,y,z
x,-y,z
1/2+x,1/2+y,z
1/2-x,1/2-y,z
1/2+x,1/2-y,-z
1/2-x,1/2+y,-z
1/2-x,1/2-y,-z
1/2+x,1/2+y,-z
1/2-x,1/2+y,z
1/2+x,1/2-y,z
loop_
_atom_site_type_symbol
_atom_site_label
_atom_site_fract_x
_atom_site_fract_y
_atom_site_fract_z
Si Si1 0.321006 0.651942 0.200824
Si Si2 0.930101 0.693426 0.204785
Si Si3 0.832347 0.936715 0.696897
Si Si4 0.429435 0.713081 0.298702
Si Si5 0.695643 0.955296 0.196699
Si Si6 0.819498 0.364719 0.792652
Si Si7 0.431100 0.500000 0.293109
O O1 0.343663 0.610597 0.285012
O O2 0.370648 0.687137 0.235123
O O3 0.247941 0.654429 0.255796
O O4 0.319130 0.645619 0.000000
O O5 0.919341 0.739732 0.257575
O O6 0.876139 0.663403 0.264867
O O7 0.000000 0.681942 0.261757
O O8 0.929503 0.692408 0.000000
O O9 0.820723 0.946615 0.500000
O O10 0.770468 0.950208 0.794171
O O11 0.891607 0.961259 0.757803
O O12 0.431143 0.707981 0.500000
O O13 0.500000 0.702431 0.233399
O O14 0.674198 0.911491 0.267803
O O15 0.679658 0.000000 0.269686
O O16 0.676239 0.956146 0.000000
O O17 0.820265 0.366064 0.000000
O O18 0.500000 0.500000 0.225384
O O19 0.434156 0.500000 0.500000
#
# Coordination Sequence:
#
# PCOD9483709 Si02
#       7
#    16  16  16  16  16  16   8
#     4  10  20  34  51  72  99 129 163 203 246 293
#     4   9  17  32  54  74  95 128 167 202 240 296
#     4  10  18  30  47  67  92 123 160 202 246 287
#     4  10  21  36  52  71  97 129 164 203 249 296
#     4   9  16  28  48  69  94 128 162 197 240 291
#     4   8  16  30  48  74 101 127 162 204 249 289
#     4   9  18  30  43  61  87 121 156 191 238 288
#
# _framework density 18.582457000000002
#
# number of rings (size 3 to 8) (size 9 to 14) (size 15 to 20)
#    0.000    2.692    0.769    2.308    0.000    2.154 
#    0.000    8.462    0.000    3.692    0.000    3.231 
#    0.000    0.000    0.000    9.385    0.000   10.154 
#
# Total GULP energy -289618.520296 kJ/mol
# GULP energy per Si atom -5569.586929 kJ/mol
# Density = 1.854016 g / cm^3
# Si number density = 18.582457 Si / 1000 Ang^3
#
#
#
# Elastic Constant Matrix: (Units=GPa)
#
#
# Indices 1 2 3 4 5 6 
#
# 1 119.7280 86.7951 6.2192 0.0000 0.0000 0.0000
# 2 86.7951 115.4119 1.1976 0.0000 0.0000 0.0000
# 3 6.2192 1.1976 25.4586 0.0000 0.0000 0.0000
# 4 0.0000 0.0000 0.0000 20.5482 0.0000 0.0000
# 5 0.0000 0.0000 0.0000 0.0000 -15.7546 0.0000
# 6 0.0000 0.0000 0.0000 0.0000 0.0000 -9.0134
#
#
#
# Elastic Compliance Matrix: (Units=1/GPa)
#
#
# Indices 1 2 3 4 5 6 
#
# 1 0.018747 -0.014058 -0.003918 0.000000 0.000000 0.000000
# 2 -0.014058 0.019210 0.002530 0.000000 0.000000 0.000000
# 3 -0.003918 0.002530 0.040118 0.000000 0.000000 0.000000
# 4 0.000000 0.000000 0.000000 0.048666 0.000000 0.000000
# 5 0.000000 0.000000 0.000000 0.000000 -0.063474 0.000000
# 6 0.000000 0.000000 0.000000 0.000000 0.000000 -0.110945
#
#
# Mechanical properties :
#
#
# Convention : Reuss Voigt Hill
#
# Bulk Modulus (GPa) = 21.19381 49.89137 35.54259
# Shear Modulus (GPa) = -4722.45308 10.24847 -2356.10231
#
# Velocity S-wave (km/s) = -50.46650 2.35098 -35.64646
# Velocity P-wave (km/s) = 58.17554 5.85460 40.92748
#
# Compressibility (1/GPa) = 0.04718358
#
# Stress axis : x y z
#
# Youngs Moduli (GPa) = 53.34242 52.05493 24.92671
#
# Poissons Ratio (x) = 0.73178 0.09767
# Poissons Ratio (y) = 0.74988 -0.06308
# Poissons Ratio (z) = 0.20901 -0.13172
#
# Static dielectric constant tensor:
#      x y z
#    x 1.639750 0.000000 0.000000 
#    y 0.000000 1.650530 0.000000 
#    z 0.000000 0.000000 1.678990 
# 
# From -- ./inp_files/12804.got.cif
#   From: 2010.05.17/outbox.cif.g08.bks.cpg/sg65_7_cif.got.tgz:12804.got - 2010.06.03 17:01:31.
