data_PCOD9483363
_publ_section_title
;
Structure prediction by ZEFSAII (Michael W. Deem and Ramdas Pophale) SiO2 
 PCOD9483363
Probable space group: C M M M
;
_chemical_formula_sum "Si O2"
_cell_formula_units_Z 72
_cell_length_a 26.073835
_cell_length_b 7.598615
_cell_length_c 18.007868
_cell_angle_alpha 90.000000
_cell_angle_beta 90.000000
_cell_angle_gamma 90.000000
_cell_volume 3567.809455
_symmetry_space_group_name_H-M "C M M M"
_symmetry_group_IT_number 65
_symmetry_cell_setting 'orthorhombic'
loop_
_space_group_symop_operation_xyz
x,y,z
-x,-y,z
x,-y,-z
-x,y,-z
-x,-y,-z
x,y,-z
-x,y,z
x,-y,z
1/2+x,1/2+y,z
1/2-x,1/2-y,z
1/2+x,1/2-y,-z
1/2-x,1/2+y,-z
1/2-x,1/2-y,-z
1/2+x,1/2+y,-z
1/2-x,1/2+y,z
1/2+x,1/2-y,z
loop_
_atom_site_type_symbol
_atom_site_label
_atom_site_fract_x
_atom_site_fract_y
_atom_site_fract_z
Si Si1 0.500000 0.699243 0.611020
Si Si2 0.611319 0.289185 0.795069
Si Si3 0.500000 0.204851 0.220398
Si Si4 0.690949 0.288517 0.916256
Si Si5 0.111698 0.783601 0.375604
Si Si6 0.689862 0.710770 0.500000
O O1 0.500000 0.500000 0.582494
O O2 0.500000 0.693944 0.701178
O O3 0.555916 0.776805 0.593882
O O4 0.616782 0.500000 0.791780
O O5 0.553130 0.248642 0.819149
O O6 0.652497 0.220050 0.853609
O O7 0.617594 0.225644 0.709984
O O8 0.500000 0.000000 0.239278
O O9 0.685259 0.500000 0.918604
O O10 0.750000 0.250000 0.897879
O O11 0.681013 0.221731 0.000000
O O12 0.158317 0.727031 0.427771
O O13 0.109822 0.000000 0.375468
O O14 0.685437 0.500000 0.500000
O O15 0.750000 0.750000 0.500000
#
# Coordination Sequence:
#
# PCOD9483363 Si02
#       6
#     8  16   8  16  16   8
#     4   8  14  29  50  69  89 115 148 189 237 279
#     4   9  17  32  51  69  93 126 159 187 226 282
#     4  10  18  28  46  74 101 122 150 192 236 273
#     4   9  18  32  50  71  94 121 155 196 237 275
#     4   8  15  28  48  69  88 115 151 189 224 265
#     4  10  20  33  45  63  93 124 155 188 224 266
#
# _framework density 20.18045
#
# number of rings (size 3 to 8) (size 9 to 14) (size 15 to 20)
#    0.000    3.111    0.000    2.333    0.000    2.222 
#    0.000    7.222    0.000    3.333    0.000   13.222 
#    0.000    0.000    0.000    0.000    0.000    0.000 
#
# Total GULP energy -200680.556788 kJ/mol
# GULP energy per Si atom -5574.459911 kJ/mol
# Density = 2.013452 g / cm^3
# Si number density = 20.180450 Si / 1000 Ang^3
#
#
#
# Elastic Constant Matrix: (Units=GPa)
#
#
# Indices 1 2 3 4 5 6 
#
# 1 213.1780 -4.3689 121.8410 0.0000 0.0000 0.0000
# 2 -4.3689 45.7989 9.1040 0.0000 0.0000 0.0000
# 3 121.8410 9.1040 125.1079 0.0000 0.0000 0.0000
# 4 0.0000 0.0000 0.0000 -0.6103 0.0000 0.0000
# 5 0.0000 0.0000 0.0000 0.0000 68.5036 0.0000
# 6 0.0000 0.0000 0.0000 0.0000 0.0000 21.2297
#
#
#
# Elastic Compliance Matrix: (Units=1/GPa)
#
#
# Indices 1 2 3 4 5 6 
#
# 1 0.011033 0.003235 -0.010980 0.000000 0.000000 0.000000
# 2 0.003235 0.023104 -0.004832 0.000000 0.000000 0.000000
# 3 -0.010980 -0.004832 0.019038 0.000000 0.000000 0.000000
# 4 0.000000 0.000000 0.000000 -1.638441 0.000000 0.000000
# 5 0.000000 0.000000 0.000000 0.000000 0.014598 0.000000
# 6 0.000000 0.000000 0.000000 0.000000 0.000000 0.047104
#
#
# Mechanical properties :
#
#
# Convention : Reuss Voigt Hill
#
# Bulk Modulus (GPa) = 35.68771 70.80411 53.24591
# Shear Modulus (GPa) = -3.35780 34.99184 15.81702
#
# Velocity S-wave (km/s) = -1.29132 4.16859 2.80264
# Velocity P-wave (km/s) = 3.93692 7.63748 6.07579
#
# Compressibility (1/GPa) = 0.02802085
#
# Stress axis : x y z
#
# Youngs Moduli (GPa) = 90.63770 43.28312 52.52586
#
# Poissons Ratio (x) = -0.14003 0.57675
# Poissons Ratio (y) = -0.29323 0.25380
# Poissons Ratio (z) = 0.99522 0.20914
#
# Static dielectric constant tensor:
#      x y z
#    x 1.717000 0.000000 0.000000 
#    y 0.000000 1.766880 0.000000 
#    z 0.000000 0.000000 1.712950 
# 
# From -- ./inp_files/57191.got.cif
#   From: 2010.05.17/outbox.cif.g08.bks.cpg/sg65_29_cif.got.tgz:57191.got - 2010.06.03 17:01:31.
