data_PCOD9483208
_publ_section_title
;
Structure prediction by ZEFSAII (Michael W. Deem and Ramdas Pophale) SiO2 
 PCOD9483208
Probable space group: C M M M
;
_chemical_formula_sum "Si O2"
_cell_formula_units_Z 72
_cell_length_a 18.728371
_cell_length_b 31.901286
_cell_length_c 9.130879
_cell_angle_alpha 90.000000
_cell_angle_beta 90.000000
_cell_angle_gamma 90.000000
_cell_volume 5455.326928
_symmetry_space_group_name_H-M "C M M M"
_symmetry_group_IT_number 65
_symmetry_cell_setting 'orthorhombic'
loop_
_space_group_symop_operation_xyz
x,y,z
-x,-y,z
x,-y,-z
-x,y,-z
-x,-y,-z
x,y,-z
-x,y,z
x,-y,z
1/2+x,1/2+y,z
1/2-x,1/2-y,z
1/2+x,1/2-y,-z
1/2-x,1/2+y,-z
1/2-x,1/2-y,-z
1/2+x,1/2+y,-z
1/2-x,1/2+y,z
1/2+x,1/2-y,z
loop_
_atom_site_type_symbol
_atom_site_label
_atom_site_fract_x
_atom_site_fract_y
_atom_site_fract_z
Si Si1 0.086695 0.500000 0.331173
Si Si2 0.160579 0.664763 0.325156
Si Si3 0.290206 0.295100 0.831604
Si Si4 0.417062 0.253059 0.324972
Si Si5 0.914464 0.586208 0.173900
O O1 0.110521 0.500000 0.500000
O O2 0.108004 0.457716 0.247322
O O3 0.000000 0.500000 0.331817
O O4 0.163559 0.659437 0.500000
O O5 0.238662 0.674646 0.260042
O O6 0.112304 0.706125 0.294449
O O7 0.125492 0.624799 0.248974
O O8 0.250000 0.250000 0.830443
O O9 0.133846 0.214394 0.758046
O O10 0.296684 0.308616 0.000000
O O11 0.410232 0.259285 0.500000
O O12 0.500000 0.256256 0.284417
O O13 0.000000 0.590990 0.196530
O O14 0.901681 0.585380 0.000000
#
# Coordination Sequence:
#
# PCOD9483208 Si02
#       5
#     8  16  16  16  16
#     4   9  17  29  43  57  75 101 132 163 196 235
#     4  10  18  28  42  58  77 103 135 167 198 234
#     4   9  17  28  40  55  76 101 129 162 201 239
#     4   9  17  28  41  57  77 102 133 167 200 235
#     4  10  19  29  41  58  80 104 131 165 202 236
#
# _framework density 13.19811
#
# number of rings (size 3 to 8) (size 9 to 14) (size 15 to 20)
#    0.000    2.556    0.000    3.000    0.000    7.556 
#    0.000    0.000    0.000    0.000    0.000    0.000 
#    0.000    0.000    0.000    1.000    0.000   18.444 
#
# Total GULP energy -200652.350049 kJ/mol
# GULP energy per Si atom -5573.676390 kJ/mol
# Density = 1.316807 g / cm^3
# Si number density = 13.198110 Si / 1000 Ang^3
#
#
#
# Elastic Constant Matrix: (Units=GPa)
#
#
# Indices 1 2 3 4 5 6 
#
# 1 94.8280 46.6293 58.7900 0.0000 0.0000 0.0000
# 2 46.6293 83.8845 65.9264 0.0000 0.0000 0.0000
# 3 58.7900 65.9264 95.8195 0.0000 0.0000 0.0000
# 4 0.0000 0.0000 0.0000 23.4231 0.0000 0.0000
# 5 0.0000 0.0000 0.0000 0.0000 21.5378 0.0000
# 6 0.0000 0.0000 0.0000 0.0000 0.0000 20.0203
#
#
#
# Elastic Compliance Matrix: (Units=1/GPa)
#
#
# Indices 1 2 3 4 5 6 
#
# 1 0.017311 -0.002777 -0.008711 0.000000 0.000000 0.000000
# 2 -0.002777 0.026402 -0.016462 0.000000 0.000000 0.000000
# 3 -0.008711 -0.016462 0.027107 0.000000 0.000000 0.000000
# 4 0.000000 0.000000 0.000000 0.042693 0.000000 0.000000
# 5 0.000000 0.000000 0.000000 0.000000 0.046430 0.000000
# 6 0.000000 0.000000 0.000000 0.000000 0.000000 0.049949
#
#
# Mechanical properties :
#
#
# Convention : Reuss Voigt Hill
#
# Bulk Modulus (GPa) = 67.01661 68.58038 67.79849
# Shear Modulus (GPa) = 18.46618 19.87533 19.17075
#
# Velocity S-wave (km/s) = 3.74458 3.88483 3.81535
# Velocity P-wave (km/s) = 8.34167 8.49692 8.41965
#
# Compressibility (1/GPa) = 0.01492167
#
# Stress axis : x y z
#
# Youngs Moduli (GPa) = 57.76604 37.87530 36.89113
#
# Poissons Ratio (x) = 0.10518 0.32134
# Poissons Ratio (y) = 0.16042 0.60729
# Poissons Ratio (z) = 0.50318 0.62349
#
# Static dielectric constant tensor:
#      x y z
#    x 1.413770 0.000000 0.000000 
#    y 0.000000 1.406580 0.000000 
#    z 0.000000 0.000000 1.441430 
# 
# From -- ./inp_files/11441.got.cif
#   From: 2010.05.17/outbox.cif.g08.bks.cpg/sg65_6_cif.got.tgz:11441.got - 2010.06.03 17:01:31.
