data_PCOD9483362
_publ_section_title
;
Structure prediction by ZEFSAII (Michael W. Deem and Ramdas Pophale) SiO2 
 PCOD9483362
Probable space group: C M M M
;
_chemical_formula_sum "Si O2"
_cell_formula_units_Z 80
_cell_length_a 21.605396
_cell_length_b 25.613751
_cell_length_c 7.876110
_cell_angle_alpha 90.000000
_cell_angle_beta 90.000000
_cell_angle_gamma 90.000000
_cell_volume 4358.601732
_symmetry_space_group_name_H-M "C M M M"
_symmetry_group_IT_number 65
_symmetry_cell_setting 'orthorhombic'
loop_
_space_group_symop_operation_xyz
x,y,z
-x,-y,z
x,-y,-z
-x,y,-z
-x,-y,-z
x,y,-z
-x,y,z
x,-y,z
1/2+x,1/2+y,z
1/2-x,1/2-y,z
1/2+x,1/2-y,-z
1/2-x,1/2+y,-z
1/2-x,1/2-y,-z
1/2+x,1/2+y,-z
1/2-x,1/2+y,z
1/2+x,1/2-y,z
loop_
_atom_site_type_symbol
_atom_site_label
_atom_site_fract_x
_atom_site_fract_y
_atom_site_fract_z
Si Si1 0.100558 0.500000 0.805926
Si Si2 0.432806 0.774049 0.296688
Si Si3 0.255786 0.610804 0.202756
Si Si4 0.190298 0.218849 0.296997
Si Si5 0.260713 0.000000 0.304510
Si Si6 0.112090 0.386970 0.206043
O O1 0.176058 0.500000 0.805160
O O2 0.085727 0.557051 0.731497
O O3 0.077902 0.500000 0.000000
O O4 0.433748 0.766645 0.500000
O O5 0.500000 0.758074 0.228609
O O6 0.373600 0.742537 0.228298
O O7 0.422664 0.835390 0.263085
O O8 0.297694 0.658172 0.264068
O O9 0.274357 0.553441 0.265535
O O10 0.184151 0.618449 0.261284
O O11 0.255227 0.610938 0.000000
O O12 0.189521 0.227001 0.500000
O O13 0.250000 0.250000 0.227673
O O14 0.280360 0.000000 0.500000
O O15 0.111437 0.388990 0.000000
#
# Coordination Sequence:
#
# PCOD9483362 Si02
#       6
#     8  16  16  16   8  16
#     4   8  16  30  45  67  96 128 165 209 252 287
#     4  10  21  35  49  68  98 131 163 205 254 296
#     4  10  19  31  49  74 103 131 163 204 250 293
#     4  10  19  32  51  74  98 127 168 210 245 292
#     4  10  18  28  46  73 104 133 162 198 246 296
#     4   9  17  30  48  68  94 127 165 205 244 291
#
# _framework density 18.354509
#
# number of rings (size 3 to 8) (size 9 to 14) (size 15 to 20)
#    0.000    2.400    2.000    2.700    0.000    4.800 
#    0.000    0.500    0.000    3.000    0.000    0.700 
#    0.000    5.600    0.000    0.000    0.000    0.000 
#
# Total GULP energy -223072.962707 kJ/mol
# GULP energy per Si atom -5576.824068 kJ/mol
# Density = 1.831273 g / cm^3
# Si number density = 18.354509 Si / 1000 Ang^3
#
#
#
# Elastic Constant Matrix: (Units=GPa)
#
#
# Indices 1 2 3 4 5 6 
#
# 1 112.4419 71.1605 17.7131 0.0000 0.0000 0.0000
# 2 71.1605 120.5036 -9.2520 0.0000 0.0000 0.0000
# 3 17.7131 -9.2520 21.5195 0.0000 0.0000 0.0000
# 4 0.0000 0.0000 0.0000 24.3580 0.0000 0.0000
# 5 0.0000 0.0000 0.0000 0.0000 4.0918 0.0000
# 6 0.0000 0.0000 0.0000 0.0000 0.0000 8.5916
#
#
#
# Elastic Compliance Matrix: (Units=1/GPa)
#
#
# Indices 1 2 3 4 5 6 
#
# 1 0.022418 -0.015156 -0.024969 0.000000 0.000000 0.000000
# 2 -0.015156 0.018828 0.020569 0.000000 0.000000 0.000000
# 3 -0.024969 0.020569 0.075865 0.000000 0.000000 0.000000
# 4 0.000000 0.000000 0.000000 0.041054 0.000000 0.000000
# 5 0.000000 0.000000 0.000000 0.000000 0.244393 0.000000
# 6 0.000000 0.000000 0.000000 0.000000 0.000000 0.116393
#
#
# Mechanical properties :
#
#
# Convention : Reuss Voigt Hill
#
# Bulk Modulus (GPa) = 12.82030 45.96758 29.39394
# Shear Modulus (GPa) = 8.56075 19.06450 13.81262
#
# Velocity S-wave (km/s) = 2.16200 3.22636 2.74623
# Velocity P-wave (km/s) = 3.63762 6.24322 5.10931
#
# Compressibility (1/GPa) = 0.07800127
#
# Stress axis : x y z
#
# Youngs Moduli (GPa) = 44.60641 53.11356 13.18125
#
# Poissons Ratio (x) = 0.80497 0.32912
# Poissons Ratio (y) = 0.67604 -0.27113
# Poissons Ratio (z) = 1.11377 -1.09252
#
# Static dielectric constant tensor:
#      x y z
#    x 1.642560 0.000000 0.000000 
#    y 0.000000 1.653860 0.000000 
#    z 0.000000 0.000000 1.658310 
# 
# From -- ./inp_files/13853.got.cif
#   From: 2010.05.17/outbox.cif.g08.bks.cpg/sg65_7_cif.got.tgz:13853.got - 2010.06.03 17:01:31.
