data_PCOD9483854
_publ_section_title
;
Structure prediction by ZEFSAII (Michael W. Deem and Ramdas Pophale) SiO2 
 PCOD9483854
Probable space group: C M M M
;
_chemical_formula_sum "Si O2"
_cell_formula_units_Z 64
_cell_length_a 18.625834
_cell_length_b 14.400237
_cell_length_c 13.074273
_cell_angle_alpha 90.000000
_cell_angle_beta 90.000000
_cell_angle_gamma 90.000000
_cell_volume 3506.734749
_symmetry_space_group_name_H-M "C M M M"
_symmetry_group_IT_number 65
_symmetry_cell_setting 'orthorhombic'
loop_
_space_group_symop_operation_xyz
x,y,z
-x,-y,z
x,-y,-z
-x,y,-z
-x,-y,-z
x,y,-z
-x,y,z
x,-y,z
1/2+x,1/2+y,z
1/2-x,1/2-y,z
1/2+x,1/2-y,-z
1/2-x,1/2+y,-z
1/2-x,1/2-y,-z
1/2+x,1/2+y,-z
1/2-x,1/2+y,z
1/2+x,1/2-y,z
loop_
_atom_site_type_symbol
_atom_site_label
_atom_site_fract_x
_atom_site_fract_y
_atom_site_fract_z
Si Si1 0.766627 0.859086 0.388133
Si Si2 0.421537 0.391874 0.695741
Si Si3 0.365211 0.711971 0.885672
Si Si4 0.717987 0.105182 0.835718
O O1 0.744924 0.894212 0.500000
O O2 0.750000 0.750000 0.385119
O O3 0.851909 0.873328 0.373097
O O4 0.728339 0.897663 0.287288
O O5 0.500000 0.377826 0.647475
O O6 0.416766 0.500000 0.727517
O O7 0.413800 0.327261 0.795159
O O8 0.341249 0.818244 0.864838
O O9 0.292481 0.649442 0.876963
O O10 0.394369 0.703188 0.000000
O O11 0.706451 0.000000 0.872006
#
# Coordination Sequence:
#
# PCOD9483854 Si02
#       4
#    16  16  16  16
#     4  10  18  32  54  78 106 138 174 214 258 311
#     4  10  21  36  53  77 110 142 173 212 262 318
#     4  10  19  32  48  72 105 138 174 217 263 307
#     4  10  18  30  49  75 104 135 172 215 264 311
#
# _framework density 18.250596999999999
#
# number of rings (size 3 to 8) (size 9 to 14) (size 15 to 20)
#    0.000    2.000    5.000    4.500    0.000    6.500 
#    0.000    2.500    0.000    0.750    0.000    1.750 
#    0.000    4.000    0.000    0.000    0.000    0.000 
#
# Total GULP energy -178383.362070 kJ/mol
# GULP energy per Si atom -5574.480065 kJ/mol
# Density = 1.820906 g / cm^3
# Si number density = 18.250597 Si / 1000 Ang^3
#
#
#
# Elastic Constant Matrix: (Units=GPa)
#
#
# Indices 1 2 3 4 5 6 
#
# 1 39.3513 19.8938 -14.5223 0.0000 0.0000 0.0000
# 2 19.8938 145.2624 4.1905 0.0000 0.0000 0.0000
# 3 -14.5223 4.1905 94.3245 0.0000 0.0000 0.0000
# 4 0.0000 0.0000 0.0000 -16.1914 0.0000 0.0000
# 5 0.0000 0.0000 0.0000 0.0000 -2.7062 0.0000
# 6 0.0000 0.0000 0.0000 0.0000 0.0000 20.5871
#
#
#
# Elastic Compliance Matrix: (Units=1/GPa)
#
#
# Indices 1 2 3 4 5 6 
#
# 1 0.029233 -0.004139 0.004685 0.000000 0.000000 0.000000
# 2 -0.004139 0.007479 -0.000969 0.000000 0.000000 0.000000
# 3 0.004685 -0.000969 0.011366 0.000000 0.000000 0.000000
# 4 0.000000 0.000000 0.000000 -0.061761 0.000000 0.000000
# 5 0.000000 0.000000 0.000000 0.000000 -0.369517 0.000000
# 6 0.000000 0.000000 0.000000 0.000000 0.000000 0.048574
#
#
# Mechanical properties :
#
#
# Convention : Reuss Voigt Hill
#
# Bulk Modulus (GPa) = 21.17244 33.11800 27.14522
# Shear Modulus (GPa) = -15.72153 18.29632 1.28740
#
# Velocity S-wave (km/s) = -2.93819 3.16967 0.84079
# Velocity P-wave (km/s) = 0.33991 5.61973 3.98101
#
# Compressibility (1/GPa) = 0.04723121
#
# Stress axis : x y z
#
# Youngs Moduli (GPa) = 34.20767 133.71040 87.98149
#
# Poissons Ratio (x) = 0.55338 -0.41216
# Poissons Ratio (y) = 0.14157 0.08529
# Poissons Ratio (z) = -0.16025 0.12963
#
# Static dielectric constant tensor:
#      x y z
#    x 1.620180 0.000000 0.000000 
#    y 0.000000 1.638030 0.000000 
#    z 0.000000 0.000000 1.654680 
# 
# From -- ./inp_files/42044.got.cif
#   From: 2010.05.17/outbox.cif.g08.bks.cpg/sg65_22_cif.got.tgz:42044.got - 2010.06.03 17:01:31.
