data_PCOD9483584
_publ_section_title
;
Structure prediction by ZEFSAII (Michael W. Deem and Ramdas Pophale) SiO2 
 PCOD9483584
Probable space group: C M M M
;
_chemical_formula_sum "Si O2"
_cell_formula_units_Z 104
_cell_length_a 30.864569
_cell_length_b 21.569689
_cell_length_c 7.423313
_cell_angle_alpha 90.000000
_cell_angle_beta 90.000000
_cell_angle_gamma 90.000000
_cell_volume 4941.990120
_symmetry_space_group_name_H-M "C M M M"
_symmetry_group_IT_number 65
_symmetry_cell_setting 'orthorhombic'
loop_
_space_group_symop_operation_xyz
x,y,z
-x,-y,z
x,-y,-z
-x,y,-z
-x,-y,-z
x,y,-z
-x,y,z
x,-y,z
1/2+x,1/2+y,z
1/2-x,1/2-y,z
1/2+x,1/2-y,-z
1/2-x,1/2+y,-z
1/2-x,1/2-y,-z
1/2+x,1/2+y,-z
1/2-x,1/2+y,z
1/2+x,1/2-y,z
loop_
_atom_site_type_symbol
_atom_site_label
_atom_site_fract_x
_atom_site_fract_y
_atom_site_fract_z
Si Si1 0.450403 0.862785 0.788307
Si Si2 0.725121 0.186871 0.219139
Si Si3 0.282381 0.429769 0.779828
Si Si4 0.049442 0.500000 0.285246
Si Si5 0.129226 0.718466 0.778957
Si Si6 0.865728 0.858141 0.207552
Si Si7 0.952168 0.071686 0.282468
O O1 0.500000 0.859737 0.713687
O O2 0.432884 0.933331 0.771155
O O3 0.414077 0.816321 0.715190
O O4 0.454313 0.849669 0.000000
O O5 0.750000 0.250000 0.276935
O O6 0.749312 0.124241 0.276244
O O7 0.674884 0.187942 0.272808
O O8 0.726364 0.187969 0.000000
O O9 0.274000 0.500000 0.718494
O O10 0.329642 0.405052 0.719750
O O11 0.281546 0.432083 0.000000
O O12 0.048562 0.500000 0.500000
O O13 0.000000 0.500000 0.214590
O O14 0.131910 0.789417 0.714853
O O15 0.127538 0.717946 0.000000
O O16 0.912695 0.888344 0.214473
O O17 0.852570 0.848586 0.000000
O O18 0.951116 0.073018 0.500000
O O19 0.000000 0.093140 0.225406
O O20 0.947206 0.000000 0.227309
#
# Coordination Sequence:
#
# PCOD9483584 Si02
#       7
#    16  16  16   8  16  16  16
#     4   9  17  30  47  68  97 128 158 197 241 284
#     4   9  14  25  42  61  94 134 160 189 238 290
#     4   9  16  25  40  66  98 126 156 199 245 283
#     4   9  17  31  51  71  91 121 161 199 239 289
#     4   9  17  28  44  68  98 131 163 192 234 292
#     4  10  18  29  48  73  99 125 156 197 244 289
#     4   9  19  35  50  65  92 129 164 198 237 282
#
# _framework density 21.044153999999999
#
# number of rings (size 3 to 8) (size 9 to 14) (size 15 to 20)
#    0.000    2.846    1.538    1.154    0.000    2.769 
#    1.385    3.077    0.000    1.846    0.000    3.231 
#    0.000    0.000    0.000    0.000    0.000    0.000 
#
# Total GULP energy -290039.952729 kJ/mol
# GULP energy per Si atom -5577.691399 kJ/mol
# Density = 2.099626 g / cm^3
# Si number density = 21.044154 Si / 1000 Ang^3
#
#
#
# Elastic Constant Matrix: (Units=GPa)
#
#
# Indices 1 2 3 4 5 6 
#
# 1 152.8150 100.3476 1.1691 0.0000 0.0000 0.0000
# 2 100.3476 179.7518 2.5594 0.0000 0.0000 0.0000
# 3 1.1691 2.5594 64.6456 0.0000 0.0000 0.0000
# 4 0.0000 0.0000 0.0000 -20.2600 0.0000 0.0000
# 5 0.0000 0.0000 0.0000 0.0000 19.6184 0.0000
# 6 0.0000 0.0000 0.0000 0.0000 0.0000 49.7333
#
#
#
# Elastic Compliance Matrix: (Units=1/GPa)
#
#
# Indices 1 2 3 4 5 6 
#
# 1 0.010331 -0.005768 0.000042 0.000000 0.000000 0.000000
# 2 -0.005768 0.008787 -0.000244 0.000000 0.000000 0.000000
# 3 0.000042 -0.000244 0.015478 0.000000 0.000000 0.000000
# 4 0.000000 0.000000 0.000000 -0.049358 0.000000 0.000000
# 5 0.000000 0.000000 0.000000 0.000000 0.050973 0.000000
# 6 0.000000 0.000000 0.000000 0.000000 0.000000 0.020107
#
#
# Mechanical properties :
#
#
# Convention : Reuss Voigt Hill
#
# Bulk Modulus (GPa) = 44.13918 67.26274 55.70096
# Shear Modulus (GPa) = 65.95504 29.36077 47.65790
#
# Velocity S-wave (km/s) = 5.60440 3.73929 4.76401
# Velocity P-wave (km/s) = 7.93090 7.11864 7.53572
#
# Compressibility (1/GPa) = 0.02265561
#
# Stress axis : x y z
#
# Youngs Moduli (GPa) = 96.79427 113.80783 64.60848
#
# Poissons Ratio (x) = 0.65645 -0.00268
# Poissons Ratio (y) = 0.55831 0.01574
# Poissons Ratio (z) = -0.00402 0.02772
#
# Static dielectric constant tensor:
#      x y z
#    x 1.735420 0.000000 0.000000 
#    y 0.000000 1.736540 0.000000 
#    z 0.000000 0.000000 1.803920 
# 
# From -- ./inp_files/18687.got.cif
#   From: 2010.05.17/outbox.cif.g08.bks.cpg/sg65_10_cif.got.tgz:18687.got - 2010.06.03 17:01:31.
