data_PCOD9483258
_publ_section_title
;
Structure prediction by ZEFSAII (Michael W. Deem and Ramdas Pophale) SiO2 
 PCOD9483258
Probable space group: C M M M
;
_chemical_formula_sum "Si O2"
_cell_formula_units_Z 104
_cell_length_a 8.099685
_cell_length_b 29.575052
_cell_length_c 22.076001
_cell_angle_alpha 90.000000
_cell_angle_beta 90.000000
_cell_angle_gamma 90.000000
_cell_volume 5288.275245
_symmetry_space_group_name_H-M "C M M M"
_symmetry_group_IT_number 65
_symmetry_cell_setting 'orthorhombic'
loop_
_space_group_symop_operation_xyz
x,y,z
-x,-y,z
x,-y,-z
-x,y,-z
-x,-y,-z
x,y,-z
-x,y,z
x,-y,z
1/2+x,1/2+y,z
1/2-x,1/2-y,z
1/2+x,1/2-y,-z
1/2-x,1/2+y,-z
1/2-x,1/2-y,-z
1/2+x,1/2+y,-z
1/2-x,1/2+y,z
1/2+x,1/2-y,z
loop_
_atom_site_type_symbol
_atom_site_label
_atom_site_fract_x
_atom_site_fract_y
_atom_site_fract_z
Si Si1 0.699804 0.447496 0.756420
Si Si2 0.685734 0.797970 0.255801
Si Si3 0.300573 0.301373 0.430204
Si Si4 0.810730 0.126586 0.332858
Si Si5 0.315758 0.798005 0.889628
Si Si6 0.701173 0.103147 0.119706
Si Si7 0.798735 0.449419 0.000000
O O1 0.500000 0.447725 0.753339
O O2 0.755550 0.500000 0.758315
O O3 0.761316 0.418917 0.697527
O O4 0.746905 0.420235 0.817454
O O5 0.500000 0.807216 0.277456
O O6 0.750000 0.750000 0.278382
O O7 0.802945 0.837604 0.277658
O O8 0.678027 0.794763 0.183537
O O9 0.249201 0.308342 0.500000
O O10 0.500000 0.302307 0.427094
O O11 0.250000 0.250000 0.413568
O O12 0.238978 0.342354 0.387260
O O13 0.000000 0.116407 0.349678
O O14 0.500000 0.802109 0.914693
O O15 0.250000 0.750000 0.912093
O O16 0.231396 0.846643 0.895656
O O17 0.500000 0.106538 0.123129
O O18 0.750734 0.073663 0.062316
O O19 0.738146 0.500000 0.000000
O O20 0.000000 0.449115 0.000000
#
# Coordination Sequence:
#
# PCOD9483258 Si02
#       7
#    16  16  16  16  16  16   8
#     4  10  21  35  51  73 101 131 163 205 258 305
#     4  10  18  28  43  68  99 128 159 194 237 286
#     4   9  18  32  49  71 100 133 166 200 241 289
#     4  10  19  31  48  70  97 131 166 203 246 293
#     4   9  18  30  46  69  98 129 158 193 236 288
#     4  10  19  35  55  77 101 130 168 208 250 297
#     4   9  18  32  54  79  99 125 165 213 258 297
#
# _framework density 19.666148
#
# number of rings (size 3 to 8) (size 9 to 14) (size 15 to 20)
#    0.000    2.385    1.538    1.385    0.000    4.000 
#    0.000    0.769    0.000    1.846    0.000    3.231 
#    0.000    0.000    0.000    6.615    0.000    7.077 
#
# Total GULP energy -289552.127018 kJ/mol
# GULP energy per Si atom -5568.310135 kJ/mol
# Density = 1.962139 g / cm^3
# Si number density = 19.666148 Si / 1000 Ang^3
#
#
#
# Elastic Constant Matrix: (Units=GPa)
#
#
# Indices 1 2 3 4 5 6 
#
# 1 18.6940 10.2313 6.4388 0.0000 0.0000 0.0000
# 2 10.2313 194.6963 66.4818 0.0000 0.0000 0.0000
# 3 6.4388 66.4818 96.2772 0.0000 0.0000 0.0000
# 4 0.0000 0.0000 0.0000 -4.3366 0.0000 0.0000
# 5 0.0000 0.0000 0.0000 0.0000 49.3901 0.0000
# 6 0.0000 0.0000 0.0000 0.0000 0.0000 17.2389
#
#
#
# Elastic Compliance Matrix: (Units=1/GPa)
#
#
# Indices 1 2 3 4 5 6 
#
# 1 0.055437 -0.002155 -0.002219 0.000000 0.000000 0.000000
# 2 -0.002155 0.006805 -0.004555 0.000000 0.000000 0.000000
# 3 -0.002219 -0.004555 0.013680 0.000000 0.000000 0.000000
# 4 0.000000 0.000000 0.000000 -0.230595 0.000000 0.000000
# 5 0.000000 0.000000 0.000000 0.000000 0.020247 0.000000
# 6 0.000000 0.000000 0.000000 0.000000 0.000000 0.058008
#
#
# Mechanical properties :
#
#
# Convention : Reuss Voigt Hill
#
# Bulk Modulus (GPa) = 17.22249 52.88569 35.05409
# Shear Modulus (GPa) = -127.53582 27.55952 -49.98815
#
# Velocity S-wave (km/s) = -8.06171 3.74755 -5.04713
# Velocity P-wave (km/s) = 8.82488 6.75837 4.01266
#
# Compressibility (1/GPa) = 0.05806362
#
# Stress axis : x y z
#
# Youngs Moduli (GPa) = 18.03844 146.95642 73.09833
#
# Poissons Ratio (x) = 0.31676 0.16221
# Poissons Ratio (y) = 0.03888 0.33294
# Poissons Ratio (z) = 0.04003 0.66934
#
# Static dielectric constant tensor:
#      x y z
#    x 1.739390 0.000000 0.000000 
#    y 0.000000 1.863290 0.000000 
#    z 0.000000 0.000000 1.702180 
# 
# From -- ./inp_files/60929.got.cif
#   From: 2010.05.17/outbox.cif.g08.bks.cpg/sg65_31_cif.got.tgz:60929.got - 2010.06.03 17:01:31.
