data_PCOD9483331
_publ_section_title
;
Structure prediction by ZEFSAII (Michael W. Deem and Ramdas Pophale) SiO2 
 PCOD9483331
Probable space group: C M M M
;
_chemical_formula_sum "Si O2"
_cell_formula_units_Z 80
_cell_length_a 21.529888
_cell_length_b 12.941012
_cell_length_c 17.578462
_cell_angle_alpha 90.000000
_cell_angle_beta 90.000000
_cell_angle_gamma 90.000000
_cell_volume 4897.685400
_symmetry_space_group_name_H-M "C M M M"
_symmetry_group_IT_number 65
_symmetry_cell_setting 'orthorhombic'
loop_
_space_group_symop_operation_xyz
x,y,z
-x,-y,z
x,-y,-z
-x,y,-z
-x,-y,-z
x,y,-z
-x,y,z
x,-y,z
1/2+x,1/2+y,z
1/2-x,1/2-y,z
1/2+x,1/2-y,-z
1/2-x,1/2+y,-z
1/2-x,1/2-y,-z
1/2+x,1/2+y,-z
1/2-x,1/2+y,z
1/2+x,1/2-y,z
loop_
_atom_site_type_symbol
_atom_site_label
_atom_site_fract_x
_atom_site_fract_y
_atom_site_fract_z
Si Si1 0.925368 0.794622 0.000000
Si Si2 0.575737 0.500000 0.587167
Si Si3 0.633092 0.376491 0.157687
Si Si4 0.424386 0.881988 0.413428
Si Si5 0.328676 0.123552 0.000000
Si Si6 0.425374 0.694700 0.687487
Si Si7 0.250000 0.250000 0.878023
O O1 0.897678 0.848841 0.924131
O O2 0.895735 0.679407 0.000000
O O3 0.000000 0.796627 0.000000
O O4 0.500000 0.500000 0.586208
O O5 0.596463 0.500000 0.500000
O O6 0.595578 0.398839 0.633134
O O7 0.637147 0.500000 0.164228
O O8 0.593941 0.329654 0.226944
O O9 0.699873 0.321094 0.163407
O O10 0.406892 0.851518 0.500000
O O11 0.500000 0.881972 0.412301
O O12 0.402818 0.801462 0.350030
O O13 0.404448 0.000000 0.400089
O O14 0.290247 0.170864 0.070585
O O15 0.330880 0.000000 0.000000
O O16 0.500000 0.696627 0.685110
#
# Coordination Sequence:
#
# PCOD9483331 Si02
#       7
#     8   8  16  16   8  16   8
#     4  10  22  35  51  78 107 141 173 199 247 318
#     4   9  16  26  42  69 105 135 157 192 250 315
#     4  11  21  35  53  73 101 134 173 214 258 301
#     4   8  14  26  44  66  96 134 169 199 238 297
#     4   9  17  34  56  74  95 126 170 223 267 300
#     4  10  18  28  45  74 107 133 162 203 255 310
#     4   9  20  34  52  74  93 124 176 226 259 296
#
# _framework density 16.334246
#
# number of rings (size 3 to 8) (size 9 to 14) (size 15 to 20)
#    0.000    2.500    1.000    3.300    0.000    4.200 
#    0.000    5.000    0.000    4.800    0.000    2.800 
#    0.000    0.000    0.000    0.000    0.000    0.000 
#
# Total GULP energy -222765.721331 kJ/mol
# GULP energy per Si atom -5569.143033 kJ/mol
# Density = 1.629707 g / cm^3
# Si number density = 16.334246 Si / 1000 Ang^3
#
#
#
# Elastic Constant Matrix: (Units=GPa)
#
#
# Indices 1 2 3 4 5 6 
#
# 1 48.2842 26.6191 12.6649 0.0000 0.0000 0.0000
# 2 26.6191 139.4464 62.6586 0.0000 0.0000 0.0000
# 3 12.6649 62.6586 120.6274 0.0000 0.0000 0.0000
# 4 0.0000 0.0000 0.0000 19.9010 0.0000 0.0000
# 5 0.0000 0.0000 0.0000 0.0000 -3.0495 0.0000
# 6 0.0000 0.0000 0.0000 0.0000 0.0000 14.6323
#
#
#
# Elastic Compliance Matrix: (Units=1/GPa)
#
#
# Indices 1 2 3 4 5 6 
#
# 1 0.023150 -0.004340 -0.000176 0.000000 0.000000 0.000000
# 2 -0.004340 0.010168 -0.004826 0.000000 0.000000 0.000000
# 3 -0.000176 -0.004826 0.010815 0.000000 0.000000 0.000000
# 4 0.000000 0.000000 0.000000 0.050249 0.000000 0.000000
# 5 0.000000 0.000000 0.000000 0.000000 -0.327925 0.000000
# 6 0.000000 0.000000 0.000000 0.000000 0.000000 0.068342
#
#
# Mechanical properties :
#
#
# Convention : Reuss Voigt Hill
#
# Bulk Modulus (GPa) = 39.29474 56.91592 48.10533
# Shear Modulus (GPa) = -36.22298 20.05779 -8.08260
#
# Velocity S-wave (km/s) = -4.71426 3.50803 -2.22688
# Velocity P-wave (km/s) = 2.35020 7.16439 4.78566
#
# Compressibility (1/GPa) = 0.02544870
#
# Stress axis : x y z
#
# Youngs Moduli (GPa) = 43.19744 98.34559 92.46101
#
# Poissons Ratio (x) = 0.42681 0.01629
# Poissons Ratio (y) = 0.18747 0.44623
# Poissons Ratio (z) = 0.00761 0.47463
#
# Static dielectric constant tensor:
#      x y z
#    x 1.541850 0.000000 0.000000 
#    y 0.000000 1.552720 0.000000 
#    z 0.000000 0.000000 1.547180 
# 
# From -- ./inp_files/55641.got.cif
#   From: 2010.05.17/outbox.cif.g08.bks.cpg/sg65_28_cif.got.tgz:55641.got - 2010.06.03 17:01:31.
