data_PCOD9483715
_publ_section_title
;
Structure prediction by ZEFSAII (Michael W. Deem and Ramdas Pophale) SiO2 
 PCOD9483715
Probable space group: C M M M
;
_chemical_formula_sum "Si O2"
_cell_formula_units_Z 104
_cell_length_a 20.389233
_cell_length_b 8.660484
_cell_length_c 33.916177
_cell_angle_alpha 90.000000
_cell_angle_beta 90.000000
_cell_angle_gamma 90.000000
_cell_volume 5988.939772
_symmetry_space_group_name_H-M "C M M M"
_symmetry_group_IT_number 65
_symmetry_cell_setting 'orthorhombic'
loop_
_space_group_symop_operation_xyz
x,y,z
-x,-y,z
x,-y,-z
-x,y,-z
-x,-y,-z
x,y,-z
-x,y,z
x,-y,z
1/2+x,1/2+y,z
1/2-x,1/2-y,z
1/2+x,1/2-y,-z
1/2-x,1/2+y,-z
1/2-x,1/2-y,-z
1/2+x,1/2+y,-z
1/2-x,1/2+y,z
1/2+x,1/2-y,z
loop_
_atom_site_type_symbol
_atom_site_label
_atom_site_fract_x
_atom_site_fract_y
_atom_site_fract_z
Si Si1 0.574861 0.687869 0.349835
Si Si2 0.321840 0.184702 0.892723
Si Si3 0.575743 0.313769 0.045047
Si Si4 0.175970 0.813708 0.417427
Si Si5 0.324332 0.184980 0.500000
Si Si6 0.075825 0.813842 0.259894
Si Si7 0.321803 0.184638 0.802323
O O1 0.500000 0.737428 0.358847
O O2 0.574285 0.500000 0.350028
O O3 0.628499 0.735559 0.381821
O O4 0.590941 0.734996 0.304967
O O5 0.250000 0.250000 0.902552
O O6 0.375419 0.244527 0.923199
O O7 0.336971 0.232898 0.847517
O O8 0.319432 0.000000 0.893882
O O9 0.500000 0.269213 0.052487
O O10 0.579021 0.500000 0.046773
O O11 0.592231 0.267784 0.000000
O O12 0.250000 0.750000 0.412129
O O13 0.148217 0.749673 0.458945
O O14 0.179014 0.000000 0.419270
O O15 0.250000 0.250000 0.500000
O O16 0.323911 0.000000 0.500000
O O17 0.124698 0.744131 0.228237
O O18 0.000000 0.771983 0.251922
O O19 0.080325 0.000000 0.258480
O O20 0.250000 0.250000 0.792479
O O21 0.319317 0.000000 0.801244
#
# Coordination Sequence:
#
# PCOD9483715 Si02
#       7
#    16  16  16  16   8  16  16
#     4   8  16  32  52  73  98 129 165 203 240 285
#     4  10  21  36  54  76 103 136 172 211 254 301
#     4   9  19  36  56  78 105 136 170 209 252 299
#     4  10  18  30  50  73  97 125 160 201 243 288
#     4  10  18  30  47  68  97 127 159 199 241 288
#     4   9  18  34  55  77 102 134 170 206 249 301
#     4  10  21  36  53  75 104 135 170 212 255 299
#
# _framework density 17.365345000000001
#
# number of rings (size 3 to 8) (size 9 to 14) (size 15 to 20)
#    0.000    2.615    0.000    4.385    0.000    4.308 
#    0.000    7.308    0.000    6.000    0.000    0.000 
#    0.000    0.000    0.000    0.000    0.000    0.000 
#
# Total GULP energy -289965.263314 kJ/mol
# GULP energy per Si atom -5576.255064 kJ/mol
# Density = 1.732582 g / cm^3
# Si number density = 17.365345 Si / 1000 Ang^3
#
#
#
# Elastic Constant Matrix: (Units=GPa)
#
#
# Indices 1 2 3 4 5 6 
#
# 1 123.6970 40.8328 127.2695 0.0000 0.0000 0.0000
# 2 40.8328 45.3940 45.9539 0.0000 0.0000 0.0000
# 3 127.2695 45.9539 163.5879 0.0000 0.0000 0.0000
# 4 0.0000 0.0000 0.0000 27.5971 0.0000 0.0000
# 5 0.0000 0.0000 0.0000 0.0000 62.5584 0.0000
# 6 0.0000 0.0000 0.0000 0.0000 0.0000 28.2215
#
#
#
# Elastic Compliance Matrix: (Units=1/GPa)
#
#
# Indices 1 2 3 4 5 6 
#
# 1 0.041862 -0.006548 -0.030729 0.000000 0.000000 0.000000
# 2 -0.006548 0.031808 -0.003841 0.000000 0.000000 0.000000
# 3 -0.030729 -0.003841 0.031098 0.000000 0.000000 0.000000
# 4 0.000000 0.000000 0.000000 0.036236 0.000000 0.000000
# 5 0.000000 0.000000 0.000000 0.000000 0.015985 0.000000
# 6 0.000000 0.000000 0.000000 0.000000 0.000000 0.035434
#
#
# Mechanical properties :
#
#
# Convention : Reuss Voigt Hill
#
# Bulk Modulus (GPa) = 44.37959 84.53235 64.45597
# Shear Modulus (GPa) = 17.71990 31.58359 24.65174
#
# Velocity S-wave (km/s) = 3.19786 4.26933 3.77184
# Velocity P-wave (km/s) = 6.26474 8.54911 7.49448
#
# Compressibility (1/GPa) = 0.02253288
#
# Stress axis : x y z
#
# Youngs Moduli (GPa) = 23.88810 31.43901 32.15595
#
# Poissons Ratio (x) = 0.20586 0.98811
# Poissons Ratio (y) = 0.15642 0.12351
# Poissons Ratio (z) = 0.73405 0.12076
#
# Static dielectric constant tensor:
#      x y z
#    x 1.565860 0.000000 0.000000 
#    y 0.000000 1.590790 0.000000 
#    z 0.000000 0.000000 1.599590 
# 
# From -- ./inp_files/78200.got.cif
#   From: 2010.05.17/outbox.cif.g08.bks.cpg/sg65_40_cif.got.tgz:78200.got - 2010.06.03 17:01:31.
