data_PCOD9483480
_publ_section_title
;
Structure prediction by ZEFSAII (Michael W. Deem and Ramdas Pophale) SiO2 
 PCOD9483480
Probable space group: C M M M
;
_chemical_formula_sum "Si O2"
_cell_formula_units_Z 116
_cell_length_a 26.747950
_cell_length_b 8.657778
_cell_length_c 26.670827
_cell_angle_alpha 90.000000
_cell_angle_beta 90.000000
_cell_angle_gamma 90.000000
_cell_volume 6176.371789
_symmetry_space_group_name_H-M "C M M M"
_symmetry_group_IT_number 65
_symmetry_cell_setting 'orthorhombic'
loop_
_space_group_symop_operation_xyz
x,y,z
-x,-y,z
x,-y,-z
-x,y,-z
-x,-y,-z
x,y,-z
-x,y,z
x,-y,z
1/2+x,1/2+y,z
1/2-x,1/2-y,z
1/2+x,1/2-y,-z
1/2-x,1/2+y,-z
1/2-x,1/2-y,-z
1/2+x,1/2+y,-z
1/2-x,1/2+y,z
1/2+x,1/2-y,z
loop_
_atom_site_type_symbol
_atom_site_label
_atom_site_fract_x
_atom_site_fract_y
_atom_site_fract_z
Si Si1 0.154495 0.181218 0.657877
Si Si2 0.806102 0.315028 0.444751
Si Si3 0.093584 0.313390 0.806946
Si Si4 0.500000 0.264366 0.000000
Si Si5 0.303019 0.184661 0.759991
Si Si6 0.443813 0.815776 0.300639
Si Si7 0.302165 0.175255 0.939391
Si Si8 0.415474 0.810463 0.081875
O O1 0.167039 0.246661 0.603473
O O2 0.185213 0.261213 0.703128
O O3 0.097188 0.220113 0.670025
O O4 0.164740 0.000000 0.659680
O O5 0.827333 0.274559 0.500000
O O6 0.804873 0.500000 0.440889
O O7 0.750000 0.250000 0.443520
O O8 0.094954 0.500000 0.809372
O O9 0.150305 0.262433 0.794269
O O10 0.061597 0.273720 0.758100
O O11 0.073767 0.264697 0.860789
O O12 0.455728 0.255581 0.956488
O O13 0.198184 0.500000 0.760651
O O14 0.250000 0.250000 0.776443
O O15 0.500000 0.791037 0.317825
O O16 0.432161 0.000000 0.304540
O O17 0.250000 0.250000 0.921835
O O18 0.357537 0.238286 0.927243
O O19 0.302364 0.000000 0.920116
O O20 0.299836 0.173150 0.000000
O O21 0.417862 0.000000 0.075951
#
# Coordination Sequence:
#
# PCOD9483480 Si02
#       8
#    16  16  16   4  16  16  16  16
#     4  11  21  33  52  78 109 145 182 224 271 321
#     4  10  20  34  53  79 113 151 188 224 263 311
#     4   8  17  30  46  69  99 132 167 209 258 316
#     4  12  21  28  46  76 111 142 167 214 273 322
#     4  10  19  33  51  74 105 139 176 218 266 322
#     4   9  18  34  54  75  99 133 177 225 276 326
#     4   9  17  30  47  68  95 124 158 199 242 293
#     4  10  18  29  45  73 107 135 167 210 262 317
#
# _framework density 18.781254000000001
#
# number of rings (size 3 to 8) (size 9 to 14) (size 15 to 20)
#    0.000    2.345    0.690    3.931    0.966    1.655 
#    0.000    0.000    0.000    3.724    0.000    3.862 
#    0.000    0.000    0.000    0.000    0.000    0.000 
#
# Total GULP energy -322952.219859 kJ/mol
# GULP energy per Si atom -5568.141722 kJ/mol
# Density = 1.873851 g / cm^3
# Si number density = 18.781254 Si / 1000 Ang^3
#
#
#
# Elastic Constant Matrix: (Units=GPa)
#
#
# Indices 1 2 3 4 5 6 
#
# 1 91.6471 15.7608 34.9760 0.0000 0.0000 0.0000
# 2 15.7608 32.6887 18.2085 0.0000 0.0000 0.0000
# 3 34.9760 18.2085 127.5658 0.0000 0.0000 0.0000
# 4 0.0000 0.0000 0.0000 4.3997 0.0000 0.0000
# 5 0.0000 0.0000 0.0000 0.0000 -2.8088 0.0000
# 6 0.0000 0.0000 0.0000 0.0000 0.0000 13.0573
#
#
#
# Elastic Compliance Matrix: (Units=1/GPa)
#
#
# Indices 1 2 3 4 5 6 
#
# 1 0.012787 -0.004576 -0.002853 0.000000 0.000000 0.000000
# 2 -0.004576 0.034872 -0.003723 0.000000 0.000000 0.000000
# 3 -0.002853 -0.003723 0.009153 0.000000 0.000000 0.000000
# 4 0.000000 0.000000 0.000000 0.227287 0.000000 0.000000
# 5 0.000000 0.000000 0.000000 0.000000 -0.356027 0.000000
# 6 0.000000 0.000000 0.000000 0.000000 0.000000 0.076586
#
#
# Mechanical properties :
#
#
# Convention : Reuss Voigt Hill
#
# Bulk Modulus (GPa) = 28.97889 43.31022 36.14455
# Shear Modulus (GPa) = 129.99287 15.12674 72.55980
#
# Velocity S-wave (km/s) = 8.32853 2.84107 6.22238
# Velocity P-wave (km/s) = 10.38985 5.82002 8.42086
#
# Compressibility (1/GPa) = 0.03450788
#
# Stress axis : x y z
#
# Youngs Moduli (GPa) = 78.20370 28.67658 109.25796
#
# Poissons Ratio (x) = 0.13123 0.31169
# Poissons Ratio (y) = 0.35788 0.40675
# Poissons Ratio (z) = 0.22310 0.10676
#
# Static dielectric constant tensor:
#      x y z
#    x 1.653200 0.000000 0.000000 
#    y 0.000000 1.666500 0.000000 
#    z 0.000000 0.000000 1.656980 
# 
# From -- ./inp_files/75887.got.cif
#   From: 2010.05.17/outbox.cif.g08.bks.cpg/sg65_38_cif.got.tgz:75887.got - 2010.06.03 17:01:31.
