data_PCOD9483288
_publ_section_title
;
Structure prediction by ZEFSAII (Michael W. Deem and Ramdas Pophale) SiO2 
 PCOD9483288
Probable space group: C M M M
;
_chemical_formula_sum "Si O2"
_cell_formula_units_Z 100
_cell_length_a 21.717068
_cell_length_b 33.371122
_cell_length_c 7.623269
_cell_angle_alpha 90.000000
_cell_angle_beta 90.000000
_cell_angle_gamma 90.000000
_cell_volume 5524.757813
_symmetry_space_group_name_H-M "C M M M"
_symmetry_group_IT_number 65
_symmetry_cell_setting 'orthorhombic'
loop_
_space_group_symop_operation_xyz
x,y,z
-x,-y,z
x,-y,-z
-x,y,-z
-x,-y,-z
x,y,-z
-x,y,z
x,-y,z
1/2+x,1/2+y,z
1/2-x,1/2-y,z
1/2+x,1/2-y,-z
1/2-x,1/2+y,-z
1/2-x,1/2-y,-z
1/2+x,1/2+y,-z
1/2-x,1/2+y,z
1/2+x,1/2-y,z
loop_
_atom_site_type_symbol
_atom_site_label
_atom_site_fract_x
_atom_site_fract_y
_atom_site_fract_z
Si Si1 0.633193 0.291590 0.789381
Si Si2 0.755417 0.847503 0.213367
Si Si3 0.366666 0.800881 0.784731
Si Si4 0.500000 0.193391 0.198814
Si Si5 0.723552 0.500000 0.000000
Si Si6 0.298533 0.434669 0.305033
Si Si7 0.500000 0.715771 0.297187
Si Si8 0.931390 0.952519 0.787682
O O1 0.687784 0.319775 0.726188
O O2 0.640445 0.245495 0.728438
O O3 0.564237 0.305662 0.742949
O O4 0.637095 0.290658 0.000000
O O5 0.691179 0.827420 0.268098
O O6 0.766003 0.892187 0.278434
O O7 0.756209 0.848177 0.000000
O O8 0.433460 0.816484 0.722323
O O9 0.368568 0.800450 0.000000
O O10 0.500000 0.242172 0.193055
O O11 0.500000 0.177679 0.000000
O O12 0.720188 0.534792 0.153554
O O13 0.285587 0.449891 0.500000
O O14 0.372800 0.429822 0.286466
O O15 0.500000 0.727024 0.500000
O O16 0.000000 0.939869 0.732474
O O17 0.924515 0.000000 0.744404
O O18 0.928663 0.950261 0.000000
#
# Coordination Sequence:
#
# PCOD9483288 Si02
#       8
#    16  16  16   8   4  16   8  16
#     4   9  17  31  51  71  99 143 191 222 262 317
#     4  10  19  33  51  76 111 142 176 225 274 319
#     4   8  14  27  52  80 105 141 182 221 260 312
#     4   8  14  28  50  76 100 132 185 220 253 317
#     4  12  22  44  61  76 106 139 176 220 270 336
#     4  12  23  37  58  81 106 138 177 223 273 325
#     4  10  18  28  44  66  96 136 183 234 273 308
#     4   9  16  31  54  76  99 129 169 216 267 323
#
# _framework density 18.100339999999999
#
# number of rings (size 3 to 8) (size 9 to 14) (size 15 to 20)
#    0.000    2.400    2.400    2.880    0.000    2.880 
#    1.440    4.000    0.000    4.800    0.000    0.000 
#    0.000    1.280    0.000    1.600    0.000    0.080 
#
# Total GULP energy -278363.412899 kJ/mol
# GULP energy per Si atom -5567.268258 kJ/mol
# Density = 1.805914 g / cm^3
# Si number density = 18.100340 Si / 1000 Ang^3
#
#
#
# Elastic Constant Matrix: (Units=GPa)
#
#
# Indices 1 2 3 4 5 6 
#
# 1 144.3902 66.1399 22.2181 0.0000 0.0000 0.0000
# 2 66.1399 85.5798 29.9700 0.0000 0.0000 0.0000
# 3 22.2181 29.9700 85.3729 0.0000 0.0000 0.0000
# 4 0.0000 0.0000 0.0000 -43.2732 0.0000 0.0000
# 5 0.0000 0.0000 0.0000 0.0000 -17.9618 0.0000
# 6 0.0000 0.0000 0.0000 0.0000 0.0000 -5.9152
#
#
#
# Elastic Compliance Matrix: (Units=1/GPa)
#
#
# Indices 1 2 3 4 5 6 
#
# 1 0.010722 -0.008334 0.000135 0.000000 0.000000 0.000000
# 2 -0.008334 0.019801 -0.004782 0.000000 0.000000 0.000000
# 3 0.000135 -0.004782 0.013357 0.000000 0.000000 0.000000
# 4 0.000000 0.000000 0.000000 -0.023109 0.000000 0.000000
# 5 0.000000 0.000000 0.000000 0.000000 -0.055674 0.000000
# 6 0.000000 0.000000 0.000000 0.000000 0.000000 -0.169057
#
#
# Mechanical properties :
#
#
# Convention : Reuss Voigt Hill
#
# Bulk Modulus (GPa) = 55.80982 61.33321 58.57151
# Shear Modulus (GPa) = -29.06555 -0.29570 -14.68062
#
# Velocity S-wave (km/s) = -4.01159 -0.40463 -2.85102
# Velocity P-wave (km/s) = 3.07300 5.80865 4.64670
#
# Compressibility (1/GPa) = 0.01791799
#
# Stress axis : x y z
#
# Youngs Moduli (GPa) = 93.26239 50.50338 74.86789
#
# Poissons Ratio (x) = 0.42090 -0.01012
# Poissons Ratio (y) = 0.77726 0.35802
# Poissons Ratio (z) = -0.01261 0.24151
#
# Static dielectric constant tensor:
#      x y z
#    x 1.650510 0.000000 0.000000 
#    y 0.000000 1.580380 0.000000 
#    z 0.000000 0.000000 1.657720 
# 
# From -- ./inp_files/12878.got.cif
#   From: 2010.05.17/outbox.cif.g08.bks.cpg/sg65_7_cif.got.tgz:12878.got - 2010.06.03 17:01:31.
