data_PCOD9483066
_publ_section_title
;
Structure prediction by ZEFSAII (Michael W. Deem and Ramdas Pophale) SiO2 
 PCOD9483066
Probable space group: C M M M
;
_chemical_formula_sum "Si O2"
_cell_formula_units_Z 80
_cell_length_a 25.870558
_cell_length_b 18.285306
_cell_length_c 12.155000
_cell_angle_alpha 90.000000
_cell_angle_beta 90.000000
_cell_angle_gamma 90.000000
_cell_volume 5749.935749
_symmetry_space_group_name_H-M "C M M M"
_symmetry_group_IT_number 65
_symmetry_cell_setting 'orthorhombic'
loop_
_space_group_symop_operation_xyz
x,y,z
-x,-y,z
x,-y,-z
-x,y,-z
-x,-y,-z
x,y,-z
-x,y,z
x,-y,z
1/2+x,1/2+y,z
1/2-x,1/2-y,z
1/2+x,1/2-y,-z
1/2-x,1/2+y,-z
1/2-x,1/2-y,-z
1/2+x,1/2+y,-z
1/2-x,1/2+y,z
1/2+x,1/2-y,z
loop_
_atom_site_type_symbol
_atom_site_label
_atom_site_fract_x
_atom_site_fract_y
_atom_site_fract_z
Si Si1 0.149111 0.181340 0.723565
Si Si2 0.196046 0.295883 0.873285
Si Si3 0.252007 0.416483 0.740155
Si Si4 0.704535 0.080933 0.500000
Si Si5 0.812502 0.742810 0.500000
Si Si6 0.438648 0.585284 0.369488
O O1 0.153683 0.244891 0.814474
O O2 0.192491 0.121221 0.753823
O O3 0.166807 0.218607 0.609168
O O4 0.095667 0.140092 0.701744
O O5 0.250000 0.250000 0.870078
O O6 0.209650 0.367862 0.803485
O O7 0.183940 0.311462 0.000000
O O8 0.252086 0.500000 0.778061
O O9 0.238543 0.415676 0.610517
O O10 0.673181 0.156693 0.500000
O O11 0.678751 0.000000 0.500000
O O12 0.750000 0.750000 0.500000
O O13 0.427991 0.596943 0.500000
O O14 0.500000 0.594920 0.353198
O O15 0.426040 0.500000 0.346176
#
# Coordination Sequence:
#
# PCOD9483066 Si02
#       6
#    16  16  16   8   8  16
#     4  11  17  27  45  62  85 118 154 181 221 263
#     4   9  18  30  42  58  83 114 149 187 219 254
#     4  10  18  26  39  61  89 119 148 177 213 262
#     4  10  18  26  36  58  91 115 140 176 213 253
#     4  12  16  26  39  63  88 116 144 184 219 262
#     4   9  18  30  43  65  95 120 146 184 226 266
#
# _framework density 13.913199000000001
#
# number of rings (size 3 to 8) (size 9 to 14) (size 15 to 20)
#    0.000    2.000    5.000    1.800    0.000    0.400 
#    0.000    0.000    0.000    2.400    0.000    1.400 
#    0.000    4.000    0.000    1.800    0.000    0.000 
#
# Total GULP energy -222793.814081 kJ/mol
# GULP energy per Si atom -5569.845352 kJ/mol
# Density = 1.388153 g / cm^3
# Si number density = 13.913199 Si / 1000 Ang^3
#
#
#
# Elastic Constant Matrix: (Units=GPa)
#
#
# Indices 1 2 3 4 5 6 
#
# 1 44.0342 33.5986 19.7155 0.0000 0.0000 0.0000
# 2 33.5986 117.5748 34.7108 0.0000 0.0000 0.0000
# 3 19.7155 34.7108 73.9057 0.0000 0.0000 0.0000
# 4 0.0000 0.0000 0.0000 -2.8597 0.0000 0.0000
# 5 0.0000 0.0000 0.0000 0.0000 11.3707 0.0000
# 6 0.0000 0.0000 0.0000 0.0000 0.0000 24.2090
#
#
#
# Elastic Compliance Matrix: (Units=1/GPa)
#
#
# Indices 1 2 3 4 5 6 
#
# 1 0.030372 -0.007299 -0.004674 0.000000 0.000000 0.000000
# 2 -0.007299 0.011629 -0.003514 0.000000 0.000000 0.000000
# 3 -0.004674 -0.003514 0.016428 0.000000 0.000000 0.000000
# 4 0.000000 0.000000 0.000000 -0.349687 0.000000 0.000000
# 5 0.000000 0.000000 0.000000 0.000000 0.087945 0.000000
# 6 0.000000 0.000000 0.000000 0.000000 0.000000 0.041307
#
#
# Mechanical properties :
#
#
# Convention : Reuss Voigt Hill
#
# Bulk Modulus (GPa) = 36.42533 45.72938 41.07735
# Shear Modulus (GPa) = -41.02388 16.37667 -12.32361
#
# Velocity S-wave (km/s) = -5.43595 3.43455 -2.97938
# Velocity P-wave (km/s) = 3.62798 6.97619 4.21337
#
# Compressibility (1/GPa) = 0.02745342
#
# Stress axis : x y z
#
# Youngs Moduli (GPa) = 32.92533 85.99479 60.87114
#
# Poissons Ratio (x) = 0.62770 0.28451
# Poissons Ratio (y) = 0.24033 0.21392
# Poissons Ratio (z) = 0.15389 0.30221
#
# Static dielectric constant tensor:
#      x y z
#    x 1.429480 0.000000 0.000000 
#    y 0.000000 1.484340 0.000000 
#    z 0.000000 0.000000 1.461110 
# 
# From -- ./inp_files/27607.got.cif
#   From: 2010.05.17/outbox.cif.g08.bks.cpg/sg65_14_cif.got.tgz:27607.got - 2010.06.03 17:01:31.
