data_PCOD9483646
_publ_section_title
;
Structure prediction by ZEFSAII (Michael W. Deem and Ramdas Pophale) SiO2 
 PCOD9483646
Probable space group: C M M M
;
_chemical_formula_sum "Si O2"
_cell_formula_units_Z 80
_cell_length_a 25.900564
_cell_length_b 8.011182
_cell_length_c 20.915274
_cell_angle_alpha 90.000000
_cell_angle_beta 90.000000
_cell_angle_gamma 90.000000
_cell_volume 4339.796626
_symmetry_space_group_name_H-M "C M M M"
_symmetry_group_IT_number 65
_symmetry_cell_setting 'orthorhombic'
loop_
_space_group_symop_operation_xyz
x,y,z
-x,-y,z
x,-y,-z
-x,y,-z
-x,-y,-z
x,y,-z
-x,y,z
x,-y,z
1/2+x,1/2+y,z
1/2-x,1/2-y,z
1/2+x,1/2-y,-z
1/2-x,1/2+y,-z
1/2-x,1/2-y,-z
1/2+x,1/2+y,-z
1/2-x,1/2+y,z
1/2+x,1/2-y,z
loop_
_atom_site_type_symbol
_atom_site_label
_atom_site_fract_x
_atom_site_fract_y
_atom_site_fract_z
Si Si1 0.500000 0.192681 0.261555
Si Si2 0.190273 0.298762 0.000000
Si Si3 0.809782 0.800603 0.360972
Si Si4 0.000000 0.195991 0.882704
Si Si5 0.610784 0.799353 0.746204
Si Si6 0.189678 0.201200 0.500000
Si Si7 0.388665 0.797988 0.892690
O O1 0.500000 0.201100 0.183936
O O2 0.555432 0.267962 0.279032
O O3 0.500000 0.000000 0.282881
O O4 0.250000 0.250000 0.000000
O O5 0.157493 0.240719 0.061610
O O6 0.188726 0.500000 0.000000
O O7 0.750000 0.750000 0.354072
O O8 0.843870 0.740142 0.302270
O O9 0.829773 0.738204 0.430774
O O10 0.811807 0.000000 0.361848
O O11 0.054448 0.239948 0.915071
O O12 0.000000 0.000000 0.867695
O O13 0.618797 0.740194 0.819195
O O14 0.606016 0.000000 0.750310
O O15 0.250000 0.250000 0.500000
O O16 0.185394 0.000000 0.500000
O O17 0.389032 0.000000 0.893270
#
# Coordination Sequence:
#
# PCOD9483646 Si02
#       7
#     8   8  16   8  16   8  16
#     4   8  16  32  51  70  99 134 161 192 239 290
#     4  10  22  39  56  71  93 132 172 202 241 292
#     4  10  19  31  48  71  98 127 160 198 240 286
#     4  10  18  29  51  80 102 121 155 204 248 283
#     4   9  17  31  51  74  98 125 159 198 239 284
#     4   8  16  30  46  65  92 125 159 196 238 282
#     4   9  19  36  54  72  98 131 163 197 243 295
#
# _framework density 18.434042999999999
#
# number of rings (size 3 to 8) (size 9 to 14) (size 15 to 20)
#    0.000    2.800    0.000    2.700    0.000    6.000 
#    0.000    4.000    0.000    0.600    0.000    4.200 
#    0.000    0.000    0.000    0.000    0.000    0.000 
#
# Total GULP energy -222758.772219 kJ/mol
# GULP energy per Si atom -5568.969305 kJ/mol
# Density = 1.839209 g / cm^3
# Si number density = 18.434043 Si / 1000 Ang^3
#
#
#
# Elastic Constant Matrix: (Units=GPa)
#
#
# Indices 1 2 3 4 5 6 
#
# 1 150.1602 4.4008 86.5075 0.0000 0.0000 0.0000
# 2 4.4008 18.5975 10.9238 0.0000 0.0000 0.0000
# 3 86.5075 10.9238 121.6633 0.0000 0.0000 0.0000
# 4 0.0000 0.0000 0.0000 10.6750 0.0000 0.0000
# 5 0.0000 0.0000 0.0000 0.0000 -16.5788 0.0000
# 6 0.0000 0.0000 0.0000 0.0000 0.0000 24.0559
#
#
#
# Elastic Compliance Matrix: (Units=1/GPa)
#
#
# Indices 1 2 3 4 5 6 
#
# 1 0.011363 0.002171 -0.008274 0.000000 0.000000 0.000000
# 2 0.002171 0.057179 -0.006678 0.000000 0.000000 0.000000
# 3 -0.008274 -0.006678 0.014702 0.000000 0.000000 0.000000
# 4 0.000000 0.000000 0.000000 0.093677 0.000000 0.000000
# 5 0.000000 0.000000 0.000000 0.000000 -0.060318 0.000000
# 6 0.000000 0.000000 0.000000 0.000000 0.000000 0.041570
#
#
# Mechanical properties :
#
#
# Convention : Reuss Voigt Hill
#
# Bulk Modulus (GPa) = 17.33620 54.89836 36.11728
# Shear Modulus (GPa) = 24.63506 16.20301 20.41904
#
# Velocity S-wave (km/s) = 3.65963 2.96796 3.33179
# Velocity P-wave (km/s) = 5.22322 6.44908 5.86825
#
# Compressibility (1/GPa) = 0.05768278
#
# Stress axis : x y z
#
# Youngs Moduli (GPa) = 88.00660 17.48881 68.01612
#
# Poissons Ratio (x) = -0.03797 0.56279
# Poissons Ratio (y) = -0.19109 0.45421
# Poissons Ratio (z) = 0.72820 0.11679
#
# Static dielectric constant tensor:
#      x y z
#    x 1.640350 0.000000 0.000000 
#    y 0.000000 1.678520 0.000000 
#    z 0.000000 0.000000 1.662710 
# 
# From -- ./inp_files/70913.got.cif
#   From: 2010.05.17/outbox.cif.g08.bks.cpg/sg65_36_cif.got.tgz:70913.got - 2010.06.03 17:01:31.
