data_PCOD9483536
_publ_section_title
;
Structure prediction by ZEFSAII (Michael W. Deem and Ramdas Pophale) SiO2 
 PCOD9483536
Probable space group: C M M M
;
_chemical_formula_sum "Si O2"
_cell_formula_units_Z 104
_cell_length_a 24.767674
_cell_length_b 29.107655
_cell_length_c 8.911624
_cell_angle_alpha 90.000000
_cell_angle_beta 90.000000
_cell_angle_gamma 90.000000
_cell_volume 6424.647376
_symmetry_space_group_name_H-M "C M M M"
_symmetry_group_IT_number 65
_symmetry_cell_setting 'orthorhombic'
loop_
_space_group_symop_operation_xyz
x,y,z
-x,-y,z
x,-y,-z
-x,y,-z
-x,-y,-z
x,y,-z
-x,y,z
x,-y,z
1/2+x,1/2+y,z
1/2-x,1/2-y,z
1/2+x,1/2-y,-z
1/2-x,1/2+y,-z
1/2-x,1/2-y,-z
1/2+x,1/2+y,-z
1/2-x,1/2+y,z
1/2+x,1/2-y,z
loop_
_atom_site_type_symbol
_atom_site_label
_atom_site_fract_x
_atom_site_fract_y
_atom_site_fract_z
Si Si1 0.065532 0.273137 0.172900
Si Si2 0.063180 0.624789 0.181721
Si Si3 0.062429 0.178277 0.680412
Si Si4 0.438142 0.500000 0.317497
Si Si5 0.853832 0.553699 0.679495
Si Si6 0.130265 0.089599 0.681836
Si Si7 0.737960 0.554187 0.179035
O O1 0.081579 0.323754 0.228834
O O2 0.081698 0.227940 0.262876
O O3 0.000000 0.274181 0.174412
O O4 0.082608 0.268355 0.000000
O O5 0.100400 0.586172 0.252905
O O6 0.000000 0.618803 0.222029
O O7 0.066304 0.623334 0.000000
O O8 0.061779 0.178492 0.500000
O O9 0.100078 0.136215 0.728682
O O10 0.000000 0.171305 0.730561
O O11 0.500000 0.500000 0.265004
O O12 0.439524 0.500000 0.500000
O O13 0.406174 0.545771 0.272583
O O14 0.851890 0.557979 0.500000
O O15 0.864203 0.500000 0.716453
O O16 0.795619 0.565885 0.748930
O O17 0.134291 0.089225 0.500000
O O18 0.189020 0.082858 0.751813
O O19 0.727827 0.500000 0.212585
O O20 0.740318 0.559525 0.000000
#
# Coordination Sequence:
#
# PCOD9483536 Si02
#       7
#    16  16  16   8  16  16  16
#     4   8  15  29  48  69  95 129 165 197 233 283
#     4   9  18  33  53  77 104 133 163 193 232 285
#     4   9  17  28  44  70 100 128 163 205 246 290
#     4   9  16  26  43  67  95 129 164 199 244 295
#     4  10  21  35  52  75 102 130 161 197 238 286
#     4  10  18  29  47  69  95 128 166 207 247 290
#     4  10  20  34  51  69  92 125 168 209 245 289
#
# _framework density 16.187657999999999
#
# number of rings (size 3 to 8) (size 9 to 14) (size 15 to 20)
#    0.000    2.692    0.769    2.308    0.000    5.231 
#    0.000    3.077    0.000    2.769    0.000    6.462 
#    0.000    0.000    0.000    0.000    0.000    0.000 
#
# Total GULP energy -289814.421074 kJ/mol
# GULP energy per Si atom -5573.354251 kJ/mol
# Density = 1.615081 g / cm^3
# Si number density = 16.187658 Si / 1000 Ang^3
#
#
#
# Elastic Constant Matrix: (Units=GPa)
#
#
# Indices 1 2 3 4 5 6 
#
# 1 110.1098 89.8946 37.1396 0.0000 0.0000 0.0000
# 2 89.8946 140.7682 42.1603 0.0000 0.0000 0.0000
# 3 37.1396 42.1603 24.7016 0.0000 0.0000 0.0000
# 4 0.0000 0.0000 0.0000 26.2436 0.0000 0.0000
# 5 0.0000 0.0000 0.0000 0.0000 23.2371 0.0000
# 6 0.0000 0.0000 0.0000 0.0000 0.0000 8.5906
#
#
#
# Elastic Compliance Matrix: (Units=1/GPa)
#
#
# Indices 1 2 3 4 5 6 
#
# 1 0.022697 -0.008743 -0.019203 0.000000 0.000000 0.000000
# 2 -0.008743 0.017900 -0.017407 0.000000 0.000000 0.000000
# 3 -0.019203 -0.017407 0.099066 0.000000 0.000000 0.000000
# 4 0.000000 0.000000 0.000000 0.038105 0.000000 0.000000
# 5 0.000000 0.000000 0.000000 0.000000 0.043035 0.000000
# 6 0.000000 0.000000 0.000000 0.000000 0.000000 0.116407
#
#
# Mechanical properties :
#
#
# Convention : Reuss Voigt Hill
#
# Bulk Modulus (GPa) = 20.42615 68.21873 44.32244
# Shear Modulus (GPa) = 11.25533 18.70660 14.98096
#
# Velocity S-wave (km/s) = 2.63972 3.40311 3.04543
# Velocity P-wave (km/s) = 4.68365 7.59444 6.30920
#
# Compressibility (1/GPa) = 0.04895686
#
# Stress axis : x y z
#
# Youngs Moduli (GPa) = 44.05945 55.86450 10.09428
#
# Poissons Ratio (x) = 0.48841 0.19384
# Poissons Ratio (y) = 0.38520 0.17571
# Poissons Ratio (z) = 0.84608 0.97245
#
# Static dielectric constant tensor:
#      x y z
#    x 1.518010 0.000000 0.000000 
#    y 0.000000 1.543530 0.000000 
#    z 0.000000 0.000000 1.544470 
# 
# From -- ./inp_files/14750.got.cif
#   From: 2010.05.17/outbox.cif.g08.bks.cpg/sg65_8_cif.got.tgz:14750.got - 2010.06.03 17:01:31.
