data_PCOD9483445
_publ_section_title
;
Structure prediction by ZEFSAII (Michael W. Deem and Ramdas Pophale) SiO2 
 PCOD9483445
Probable space group: C M M M
;
_chemical_formula_sum "Si O2"
_cell_formula_units_Z 104
_cell_length_a 27.762358
_cell_length_b 8.840308
_cell_length_c 23.250925
_cell_angle_alpha 90.000000
_cell_angle_beta 90.000000
_cell_angle_gamma 90.000000
_cell_volume 5706.423267
_symmetry_space_group_name_H-M "C M M M"
_symmetry_group_IT_number 65
_symmetry_cell_setting 'orthorhombic'
loop_
_space_group_symop_operation_xyz
x,y,z
-x,-y,z
x,-y,-z
-x,y,-z
-x,-y,-z
x,y,-z
-x,y,z
x,-y,z
1/2+x,1/2+y,z
1/2-x,1/2-y,z
1/2+x,1/2-y,-z
1/2-x,1/2+y,-z
1/2-x,1/2-y,-z
1/2+x,1/2+y,-z
1/2-x,1/2+y,z
1/2+x,1/2-y,z
loop_
_atom_site_type_symbol
_atom_site_label
_atom_site_fract_x
_atom_site_fract_y
_atom_site_fract_z
Si Si1 0.594795 0.685280 0.364501
Si Si2 0.500000 0.684427 0.434039
Si Si3 0.699986 0.672894 0.378865
Si Si4 0.799402 0.826043 0.239988
Si Si5 0.126668 0.677807 0.158575
Si Si6 0.302059 0.680550 0.932484
Si Si7 0.943089 0.820154 0.239313
O O1 0.597199 0.500000 0.364293
O O2 0.548715 0.731750 0.401789
O O3 0.646358 0.738426 0.389687
O O4 0.583454 0.729443 0.298461
O O5 0.500000 0.500000 0.432625
O O6 0.500000 0.732640 0.500000
O O7 0.701133 0.500000 0.399525
O O8 0.750000 0.750000 0.397590
O O9 0.700364 0.671693 0.308999
O O10 0.750000 0.750000 0.221316
O O11 0.839955 0.723480 0.212558
O O12 0.804243 0.000000 0.220474
O O13 0.124594 0.500000 0.149453
O O14 0.154184 0.755123 0.105344
O O15 0.076022 0.741766 0.181448
O O16 0.299581 0.500000 0.925949
O O17 0.250000 0.750000 0.915760
O O18 0.309254 0.716238 0.000000
O O19 0.000000 0.797599 0.247443
O O20 0.933873 0.000000 0.233879
#
# Coordination Sequence:
#
# PCOD9483445 Si02
#       7
#    16   8  16  16  16  16  16
#     4   9  15  28  48  72 105 141 174 218 276 329
#     4   9  16  26  48  82 111 135 174 229 282 327
#     4   9  17  28  44  66  98 137 173 210 255 315
#     4  10  18  29  44  66  98 134 171 209 251 306
#     4  12  23  33  49  74 107 140 173 217 266 321
#     4  10  21  38  59  81 107 141 183 226 267 317
#     4  10  19  34  55  75 100 139 178 218 274 336
#
# _framework density 18.225076000000001
#
# number of rings (size 3 to 8) (size 9 to 14) (size 15 to 20)
#    0.000    2.077    2.308    2.769    0.000    1.846 
#    0.000    0.000    0.000    0.923    0.000    3.231 
#    0.000    4.308    0.000    0.000    0.000    0.000 
#
# Total GULP energy -289817.325466 kJ/mol
# GULP energy per Si atom -5573.410105 kJ/mol
# Density = 1.818359 g / cm^3
# Si number density = 18.225076 Si / 1000 Ang^3
#
#
#
# Elastic Constant Matrix: (Units=GPa)
#
#
# Indices 1 2 3 4 5 6 
#
# 1 136.9548 39.3796 44.8673 0.0000 0.0000 0.0000
# 2 39.3796 42.5482 15.4223 0.0000 0.0000 0.0000
# 3 44.8673 15.4223 66.8087 0.0000 0.0000 0.0000
# 4 0.0000 0.0000 0.0000 7.0902 0.0000 0.0000
# 5 0.0000 0.0000 0.0000 0.0000 19.6055 0.0000
# 6 0.0000 0.0000 0.0000 0.0000 0.0000 23.9877
#
#
#
# Elastic Compliance Matrix: (Units=1/GPa)
#
#
# Indices 1 2 3 4 5 6 
#
# 1 0.011734 -0.008735 -0.005864 0.000000 0.000000 0.000000
# 2 -0.008735 0.032151 -0.001556 0.000000 0.000000 0.000000
# 3 -0.005864 -0.001556 0.019265 0.000000 0.000000 0.000000
# 4 0.000000 0.000000 0.000000 0.141040 0.000000 0.000000
# 5 0.000000 0.000000 0.000000 0.000000 0.051006 0.000000
# 6 0.000000 0.000000 0.000000 0.000000 0.000000 0.041688
#
#
# Mechanical properties :
#
#
# Convention : Reuss Voigt Hill
#
# Bulk Modulus (GPa) = 32.42391 49.51667 40.97029
# Shear Modulus (GPa) = 14.72863 19.91285 17.32074
#
# Velocity S-wave (km/s) = 2.84589 3.30905 3.08617
# Velocity P-wave (km/s) = 5.35053 6.46747 5.93534
#
# Compressibility (1/GPa) = 0.03084144
#
# Stress axis : x y z
#
# Youngs Moduli (GPa) = 85.21897 31.10311 51.90630
#
# Poissons Ratio (x) = 0.27169 0.30439
# Poissons Ratio (y) = 0.74439 0.08075
# Poissons Ratio (z) = 0.49974 0.04838
#
# Static dielectric constant tensor:
#      x y z
#    x 1.631020 0.000000 0.000000 
#    y 0.000000 1.621760 0.000000 
#    z 0.000000 0.000000 1.630870 
# 
# From -- ./inp_files/71832.got.cif
#   From: 2010.05.17/outbox.cif.g08.bks.cpg/sg65_36_cif.got.tgz:71832.got - 2010.06.03 17:01:31.
