data_PCOD9483852
_publ_section_title
;
Structure prediction by ZEFSAII (Michael W. Deem and Ramdas Pophale) SiO2 
 PCOD9483852
Probable space group: C M M M
;
_chemical_formula_sum "Si O2"
_cell_formula_units_Z 64
_cell_length_a 8.516611
_cell_length_b 18.457587
_cell_length_c 21.425590
_cell_angle_alpha 90.000000
_cell_angle_beta 90.000000
_cell_angle_gamma 90.000000
_cell_volume 3368.018941
_symmetry_space_group_name_H-M "C M M M"
_symmetry_group_IT_number 65
_symmetry_cell_setting 'orthorhombic'
loop_
_space_group_symop_operation_xyz
x,y,z
-x,-y,z
x,-y,-z
-x,y,-z
-x,-y,-z
x,y,-z
-x,y,z
x,-y,z
1/2+x,1/2+y,z
1/2-x,1/2-y,z
1/2+x,1/2-y,-z
1/2-x,1/2+y,-z
1/2-x,1/2-y,-z
1/2+x,1/2+y,-z
1/2-x,1/2+y,z
1/2+x,1/2-y,z
loop_
_atom_site_type_symbol
_atom_site_label
_atom_site_fract_x
_atom_site_fract_y
_atom_site_fract_z
Si Si1 0.308558 0.916846 0.245040
Si Si2 0.187014 0.167194 0.500000
Si Si3 0.311329 0.831778 0.879025
Si Si4 0.188463 0.915870 0.000000
Si Si5 0.311409 0.167652 0.630865
O O1 0.500000 0.917209 0.244870
O O2 0.258315 0.871462 0.184566
O O3 0.260044 0.878443 0.309259
O O4 0.255960 0.000000 0.241513
O O5 0.250000 0.250000 0.500000
O O6 0.249501 0.136116 0.565219
O O7 0.000000 0.167913 0.500000
O O8 0.500000 0.830919 0.879953
O O9 0.250000 0.750000 0.880846
O O10 0.251356 0.875761 0.938719
O O11 0.000000 0.912801 0.000000
O O12 0.237711 0.000000 0.000000
O O13 0.500000 0.169775 0.628535
O O14 0.250000 0.250000 0.637334
#
# Coordination Sequence:
#
# PCOD9483852 Si02
#       5
#    16   8  16   8  16
#     4   9  19  35  55  80 108 140 180 224 270 323
#     4  10  18  30  49  74 105 137 175 219 263 316
#     4  11  22  38  61  86 114 147 186 229 273 324
#     4  11  24  41  60  85 117 149 184 227 274 325
#     4  10  18  31  53  78 105 136 174 220 267 318
#
# _framework density 19.002268999999998
#
# number of rings (size 3 to 8) (size 9 to 14) (size 15 to 20)
#    0.000    1.875    0.000    6.375    0.000    2.000 
#    0.000    4.375    0.000   12.750    0.000    0.000 
#    0.000    0.000    0.000    0.000    0.000    0.000 
#
# Total GULP energy -178747.662233 kJ/mol
# GULP energy per Si atom -5585.864445 kJ/mol
# Density = 1.895902 g / cm^3
# Si number density = 19.002269 Si / 1000 Ang^3
#
#
#
# Elastic Constant Matrix: (Units=GPa)
#
#
# Indices 1 2 3 4 5 6 
#
# 1 66.9868 34.8283 48.3716 0.0000 0.0000 0.0000
# 2 34.8283 155.5215 115.3221 0.0000 0.0000 0.0000
# 3 48.3716 115.3221 236.5413 0.0000 0.0000 0.0000
# 4 0.0000 0.0000 0.0000 -6.0072 0.0000 0.0000
# 5 0.0000 0.0000 0.0000 0.0000 17.3550 0.0000
# 6 0.0000 0.0000 0.0000 0.0000 0.0000 11.0360
#
#
#
# Elastic Compliance Matrix: (Units=1/GPa)
#
#
# Indices 1 2 3 4 5 6 
#
# 1 0.017914 -0.002029 -0.002674 0.000000 0.000000 0.000000
# 2 -0.002029 0.010300 -0.004607 0.000000 0.000000 0.000000
# 3 -0.002674 -0.004607 0.007021 0.000000 0.000000 0.000000
# 4 0.000000 0.000000 0.000000 -0.166468 0.000000 0.000000
# 5 0.000000 0.000000 0.000000 0.000000 0.057620 0.000000
# 6 0.000000 0.000000 0.000000 0.000000 0.000000 0.090612
#
#
# Mechanical properties :
#
#
# Convention : Reuss Voigt Hill
#
# Bulk Modulus (GPa) = 60.18587 95.12153 77.65370
# Shear Modulus (GPa) = 121.48174 21.84529 71.66351
#
# Velocity S-wave (km/s) = 8.00431 3.39428 6.14776
# Velocity P-wave (km/s) = 10.82437 8.09494 9.55759
#
# Compressibility (1/GPa) = 0.01661520
#
# Stress axis : x y z
#
# Youngs Moduli (GPa) = 55.82145 97.08312 142.43965
#
# Poissons Ratio (x) = 0.19696 0.38092
# Poissons Ratio (y) = 0.11325 0.65621
# Poissons Ratio (z) = 0.14928 0.44726
#
# Static dielectric constant tensor:
#      x y z
#    x 1.611590 0.000000 0.000000 
#    y 0.000000 1.623590 0.000000 
#    z 0.000000 0.000000 1.663980 
# 
# From -- ./inp_files/58768.got.cif
#   From: 2010.05.17/outbox.cif.g08.bks.cpg/sg65_30_cif.got.tgz:58768.got - 2010.06.03 17:01:31.
