data_PCOD9483929
_publ_section_title
;
Structure prediction by ZEFSAII (Michael W. Deem and Ramdas Pophale) SiO2 
 PCOD9483929
Probable space group: C M M M
;
_chemical_formula_sum "Si O2"
_cell_formula_units_Z 88
_cell_length_a 22.905053
_cell_length_b 23.322557
_cell_length_c 8.148287
_cell_angle_alpha 90.000000
_cell_angle_beta 90.000000
_cell_angle_gamma 90.000000
_cell_volume 4352.850802
_symmetry_space_group_name_H-M "C M M M"
_symmetry_group_IT_number 65
_symmetry_cell_setting 'orthorhombic'
loop_
_space_group_symop_operation_xyz
x,y,z
-x,-y,z
x,-y,-z
-x,y,-z
-x,-y,-z
x,y,-z
-x,y,z
x,-y,z
1/2+x,1/2+y,z
1/2-x,1/2-y,z
1/2+x,1/2-y,-z
1/2-x,1/2+y,-z
1/2-x,1/2-y,-z
1/2+x,1/2+y,-z
1/2-x,1/2+y,z
1/2+x,1/2-y,z
loop_
_atom_site_type_symbol
_atom_site_label
_atom_site_fract_x
_atom_site_fract_y
_atom_site_fract_z
Si Si1 0.629241 0.163009 0.198501
Si Si2 0.567519 0.500000 0.196362
Si Si3 0.872963 0.205093 0.807032
Si Si4 0.000000 0.330998 0.803161
Si Si5 0.164677 0.087146 0.310342
Si Si6 0.500000 0.704062 0.688827
Si Si7 0.708716 0.061719 0.805453
O O1 0.635511 0.229389 0.253796
O O2 0.562867 0.141566 0.230037
O O3 0.675595 0.117350 0.263384
O O4 0.635063 0.166714 0.000000
O O5 0.500000 0.500000 0.256910
O O6 0.606173 0.554737 0.251481
O O7 0.565492 0.500000 0.000000
O O8 0.838926 0.155358 0.715177
O O9 0.940756 0.188475 0.780367
O O10 0.858904 0.202923 0.000000
O O11 0.000000 0.273009 0.699000
O O12 0.000000 0.315875 0.000000
O O13 0.172405 0.073304 0.500000
O O14 0.222038 0.066584 0.216475
O O15 0.500000 0.684467 0.500000
O O16 0.689505 0.000000 0.736753
O O17 0.696282 0.061250 0.000000
#
# Coordination Sequence:
#
# PCOD9483929 Si02
#       7
#    16   8  16   8  16   8  16
#     4   8  16  32  57  86 113 150 195 243 286 338
#     4  11  25  45  67  89 115 152 197 236 282 342
#     4  10  20  36  57  81 113 152 194 236 290 346
#     4   8  14  30  53  78 113 151 188 229 285 340
#     4  12  25  40  59  85 119 151 192 241 289 337
#     4  10  18  30  50  80 116 147 184 229 284 341
#     4  10  20  37  60  82 111 153 201 240 288 348
#
# _framework density 20.216636999999999
#
# number of rings (size 3 to 8) (size 9 to 14) (size 15 to 20)
#    0.000    2.091    0.909    4.364    1.273    1.455 
#    0.000    8.636    0.000    2.727    0.000    0.000 
#    0.000   13.091    0.000    0.000    0.000    0.000 
#
# Total GULP energy -245305.501333 kJ/mol
# GULP energy per Si atom -5575.125030 kJ/mol
# Density = 2.017062 g / cm^3
# Si number density = 20.216637 Si / 1000 Ang^3
#
#
#
# Elastic Constant Matrix: (Units=GPa)
#
#
# Indices 1 2 3 4 5 6 
#
# 1 71.9471 58.9692 -9.3321 0.0000 0.0000 0.0000
# 2 58.9692 135.3388 2.9463 0.0000 0.0000 0.0000
# 3 -9.3321 2.9463 22.7987 0.0000 0.0000 0.0000
# 4 0.0000 0.0000 0.0000 -28.7662 0.0000 0.0000
# 5 0.0000 0.0000 0.0000 0.0000 -20.2739 0.0000
# 6 0.0000 0.0000 0.0000 0.0000 0.0000 49.3139
#
#
#
# Elastic Compliance Matrix: (Units=1/GPa)
#
#
# Indices 1 2 3 4 5 6 
#
# 1 0.024215 -0.010797 0.011307 0.000000 0.000000 0.000000
# 2 -0.010797 0.012224 -0.005999 0.000000 0.000000 0.000000
# 3 0.011307 -0.005999 0.049266 0.000000 0.000000 0.000000
# 4 0.000000 0.000000 0.000000 -0.034763 0.000000 0.000000
# 5 0.000000 0.000000 0.000000 0.000000 -0.049325 0.000000
# 6 0.000000 0.000000 0.000000 0.000000 0.000000 0.020278
#
#
# Mechanical properties :
#
#
# Convention : Reuss Voigt Hill
#
# Bulk Modulus (GPa) = 13.38207 37.25017 25.31612
# Shear Modulus (GPa) = 86.53048 11.88816 49.20932
#
# Velocity S-wave (km/s) = 6.54939 2.42758 4.93901
# Velocity P-wave (km/s) = 7.98914 5.13060 6.71377
#
# Compressibility (1/GPa) = 0.07472688
#
# Stress axis : x y z
#
# Youngs Moduli (GPa) = 41.29619 81.80661 20.29802
#
# Poissons Ratio (x) = 0.88328 -0.22952
# Poissons Ratio (y) = 0.44588 0.12177
# Poissons Ratio (z) = -0.46695 0.49078
#
# Static dielectric constant tensor:
#      x y z
#    x 1.736470 0.000000 0.000000 
#    y 0.000000 1.788150 0.000000 
#    z 0.000000 0.000000 1.694950 
# 
# From -- ./inp_files/14059.got.cif
#   From: 2010.05.17/outbox.cif.g08.bks.cpg/sg65_8_cif.got.tgz:14059.got - 2010.06.03 17:01:31.
