data_PCOD9483669
_publ_section_title
;
Structure prediction by ZEFSAII (Michael W. Deem and Ramdas Pophale) SiO2 
 PCOD9483669
Probable space group: C M M M
;
_chemical_formula_sum "Si O2"
_cell_formula_units_Z 72
_cell_length_a 8.184910
_cell_length_b 37.863177
_cell_length_c 16.060650
_cell_angle_alpha 90.000000
_cell_angle_beta 90.000000
_cell_angle_gamma 90.000000
_cell_volume 4977.302978
_symmetry_space_group_name_H-M "C M M M"
_symmetry_group_IT_number 65
_symmetry_cell_setting 'orthorhombic'
loop_
_space_group_symop_operation_xyz
x,y,z
-x,-y,z
x,-y,-z
-x,y,-z
-x,-y,-z
x,y,-z
-x,y,z
x,-y,z
1/2+x,1/2+y,z
1/2-x,1/2-y,z
1/2+x,1/2-y,-z
1/2-x,1/2+y,-z
1/2-x,1/2-y,-z
1/2+x,1/2+y,-z
1/2-x,1/2+y,z
1/2+x,1/2-y,z
loop_
_atom_site_type_symbol
_atom_site_label
_atom_site_fract_x
_atom_site_fract_y
_atom_site_fract_z
Si Si1 0.692792 0.410834 0.399364
Si Si2 0.193576 0.290302 0.500000
Si Si3 0.306605 0.790803 0.000000
Si Si4 0.196021 0.166681 0.661244
Si Si5 0.500000 0.959600 0.399063
Si Si6 0.195027 0.209138 0.820795
O O1 0.700017 0.405855 0.500000
O O2 0.500000 0.419205 0.380579
O O3 0.740813 0.373879 0.356116
O O4 0.831615 0.439369 0.376113
O O5 0.250000 0.250000 0.500000
O O6 0.255444 0.310167 0.581913
O O7 0.000000 0.291368 0.500000
O O8 0.250000 0.750000 0.000000
O O9 0.244824 0.805121 0.911779
O O10 0.500000 0.791767 0.000000
O O11 0.259731 0.185124 0.745289
O O12 0.000000 0.166848 0.665984
O O13 0.500000 0.960311 0.500000
O O14 0.500000 0.000000 0.369214
O O15 0.250000 0.250000 0.811872
O O16 0.000000 0.209581 0.817503
#
# Coordination Sequence:
#
# PCOD9483669 Si02
#       6
#    16   8   8  16   8  16
#     4   9  17  30  47  65  90 122 153 185 230 274
#     4  12  24  32  44  60  84 119 156 197 235 265
#     4  10  18  30  46  62  82 108 142 187 236 283
#     4  10  20  33  47  63  87 117 153 194 229 274
#     4   9  18  30  46  68  92 115 155 195 223 274
#     4  10  19  31  46  63  84 112 150 193 236 275
#
# _framework density 14.465664
#
# number of rings (size 3 to 8) (size 9 to 14) (size 15 to 20)
#    0.000    2.111    1.111    4.667    1.556    4.000 
#    0.000    2.222    0.000    0.000    0.000    0.000 
#    0.000    0.000    0.000    2.000    0.000   16.889 
#
# Total GULP energy -200604.116828 kJ/mol
# GULP energy per Si atom -5572.336579 kJ/mol
# Density = 1.443274 g / cm^3
# Si number density = 14.465664 Si / 1000 Ang^3
#
#
#
# Elastic Constant Matrix: (Units=GPa)
#
#
# Indices 1 2 3 4 5 6 
#
# 1 56.0340 51.4612 24.0018 0.0000 0.0000 0.0000
# 2 51.4612 111.6019 49.6929 0.0000 0.0000 0.0000
# 3 24.0018 49.6929 101.1755 0.0000 0.0000 0.0000
# 4 0.0000 0.0000 0.0000 14.7383 0.0000 0.0000
# 5 0.0000 0.0000 0.0000 0.0000 12.4914 0.0000
# 6 0.0000 0.0000 0.0000 0.0000 0.0000 23.1038
#
#
#
# Elastic Compliance Matrix: (Units=1/GPa)
#
#
# Indices 1 2 3 4 5 6 
#
# 1 0.030970 -0.014091 -0.000426 0.000000 0.000000 0.000000
# 2 -0.014091 0.017880 -0.005439 0.000000 0.000000 0.000000
# 3 -0.000426 -0.005439 0.012656 0.000000 0.000000 0.000000
# 4 0.000000 0.000000 0.000000 0.067851 0.000000 0.000000
# 5 0.000000 0.000000 0.000000 0.000000 0.080055 0.000000
# 6 0.000000 0.000000 0.000000 0.000000 0.000000 0.043283
#
#
# Mechanical properties :
#
#
# Convention : Reuss Voigt Hill
#
# Bulk Modulus (GPa) = 46.30946 57.68037 51.99492
# Shear Modulus (GPa) = 16.67756 19.64373 18.16064
#
# Velocity S-wave (km/s) = 3.39913 3.68904 3.54705
# Velocity P-wave (km/s) = 6.89118 7.62272 7.26616
#
# Compressibility (1/GPa) = 0.02159386
#
# Stress axis : x y z
#
# Youngs Moduli (GPa) = 32.28957 55.92935 79.01209
#
# Poissons Ratio (x) = 0.78809 0.03367
# Poissons Ratio (y) = 0.45499 0.42974
# Poissons Ratio (z) = 0.01376 0.30420
#
# Static dielectric constant tensor:
#      x y z
#    x 1.487350 0.000000 0.000000 
#    y 0.000000 1.464530 0.000000 
#    z 0.000000 0.000000 1.493360 
# 
# From -- ./inp_files/37069.got.cif
#   From: 2010.05.17/outbox.cif.g08.bks.cpg/sg65_19_cif.got.tgz:37069.got - 2010.06.03 17:01:31.
