data_PCOD9483467
_publ_section_title
;
Structure prediction by ZEFSAII (Michael W. Deem and Ramdas Pophale) SiO2 
 PCOD9483467
Probable space group: C M M M
;
_chemical_formula_sum "Si O2"
_cell_formula_units_Z 88
_cell_length_a 28.530542
_cell_length_b 11.920391
_cell_length_c 18.141273
_cell_angle_alpha 90.000000
_cell_angle_beta 90.000000
_cell_angle_gamma 90.000000
_cell_volume 6169.760161
_symmetry_space_group_name_H-M "C M M M"
_symmetry_group_IT_number 65
_symmetry_cell_setting 'orthorhombic'
loop_
_space_group_symop_operation_xyz
x,y,z
-x,-y,z
x,-y,-z
-x,y,-z
-x,-y,-z
x,y,-z
-x,y,z
x,-y,z
1/2+x,1/2+y,z
1/2-x,1/2-y,z
1/2+x,1/2-y,-z
1/2-x,1/2+y,-z
1/2-x,1/2-y,-z
1/2+x,1/2+y,-z
1/2-x,1/2+y,z
1/2+x,1/2-y,z
loop_
_atom_site_type_symbol
_atom_site_label
_atom_site_fract_x
_atom_site_fract_y
_atom_site_fract_z
Si Si1 0.304634 0.235990 0.588578
Si Si2 0.056968 0.370287 0.916966
Si Si3 0.352960 0.000000 0.412441
Si Si4 0.946265 0.863410 0.500000
Si Si5 0.445649 0.767457 0.232861
Si Si6 0.948248 0.500000 0.322230
Si Si7 0.389986 0.633959 0.353633
O O1 0.309857 0.253979 0.500000
O O2 0.250000 0.250000 0.605990
O O3 0.337830 0.322265 0.631262
O O4 0.323941 0.111932 0.606290
O O5 0.071577 0.500000 0.904541
O O6 0.071437 0.289867 0.850424
O O7 0.000000 0.371221 0.914975
O O8 0.071066 0.337787 0.000000
O O9 0.359519 0.000000 0.500000
O O10 0.403627 0.000000 0.374927
O O11 0.919828 0.827507 0.574206
O O12 0.000000 0.825430 0.500000
O O13 0.946185 0.000000 0.500000
O O14 0.500000 0.727888 0.232298
O O15 0.445781 0.889348 0.271830
O O16 0.413681 0.687327 0.281925
O O17 0.000000 0.500000 0.358706
O O18 0.391505 0.500000 0.350415
#
# Coordination Sequence:
#
# PCOD9483467 Si02
#       7
#    16  16   8   8  16   8  16
#     4  10  21  35  51  67  87 116 154 203 249 283
#     4   8  13  23  42  67  92 120 156 192 227 273
#     4  10  20  35  48  67  91 120 160 195 237 289
#     4   9  18  32  45  59  83 119 163 202 225 256
#     4  10  18  29  45  66  96 127 155 191 234 274
#     4  10  18  29  45  66  94 129 155 184 236 282
#     4  11  21  32  47  66  89 123 164 199 233 277
#
# _framework density 14.263115000000001
#
# number of rings (size 3 to 8) (size 9 to 14) (size 15 to 20)
#    0.000    2.273    3.636    1.091    1.273    1.273 
#    0.000    0.000    0.000    0.545    0.000    2.545 
#    0.000    0.727    0.000    1.273    0.000    0.000 
#
# Total GULP energy -245226.784226 kJ/mol
# GULP energy per Si atom -5573.336005 kJ/mol
# Density = 1.423065 g / cm^3
# Si number density = 14.263115 Si / 1000 Ang^3
#
#
#
# Elastic Constant Matrix: (Units=GPa)
#
#
# Indices 1 2 3 4 5 6 
#
# 1 100.5701 35.7720 51.8747 0.0000 0.0000 0.0000
# 2 35.7720 61.4723 43.2759 0.0000 0.0000 0.0000
# 3 51.8747 43.2759 99.0567 0.0000 0.0000 0.0000
# 4 0.0000 0.0000 0.0000 19.9212 0.0000 0.0000
# 5 0.0000 0.0000 0.0000 0.0000 3.0642 0.0000
# 6 0.0000 0.0000 0.0000 0.0000 0.0000 11.0230
#
#
#
# Elastic Compliance Matrix: (Units=1/GPa)
#
#
# Indices 1 2 3 4 5 6 
#
# 1 0.014416 -0.004440 -0.005610 0.000000 0.000000 0.000000
# 2 -0.004440 0.024860 -0.008536 0.000000 0.000000 0.000000
# 3 -0.005610 -0.008536 0.016762 0.000000 0.000000 0.000000
# 4 0.000000 0.000000 0.000000 0.050198 0.000000 0.000000
# 5 0.000000 0.000000 0.000000 0.000000 0.326347 0.000000
# 6 0.000000 0.000000 0.000000 0.000000 0.000000 0.090720
#
#
# Mechanical properties :
#
#
# Convention : Reuss Voigt Hill
#
# Bulk Modulus (GPa) = 53.00117 58.10491 55.55304
# Shear Modulus (GPa) = 8.82203 15.48011 12.15107
#
# Velocity S-wave (km/s) = 2.48971 3.29800 2.92194
# Velocity P-wave (km/s) = 6.74575 7.43833 7.10049
#
# Compressibility (1/GPa) = 0.01886751
#
# Stress axis : x y z
#
# Youngs Moduli (GPa) = 69.36680 40.22488 59.65791
#
# Poissons Ratio (x) = 0.17859 0.33468
# Poissons Ratio (y) = 0.30797 0.50924
# Poissons Ratio (z) = 0.38914 0.34336
#
# Static dielectric constant tensor:
#      x y z
#    x 1.454780 0.000000 0.000000 
#    y 0.000000 1.475760 0.000000 
#    z 0.000000 0.000000 1.474380 
# 
# From -- ./inp_files/58189.got.cif
#   From: 2010.05.17/outbox.cif.g08.bks.cpg/sg65_30_cif.got.tgz:58189.got - 2010.06.03 17:01:31.
