data_PCOD9483359
_publ_section_title
;
Structure prediction by ZEFSAII (Michael W. Deem and Ramdas Pophale) SiO2 
 PCOD9483359
Probable space group: C M M M
;
_chemical_formula_sum "Si O2"
_cell_formula_units_Z 72
_cell_length_a 10.038315
_cell_length_b 29.153330
_cell_length_c 14.694577
_cell_angle_alpha 90.000000
_cell_angle_beta 90.000000
_cell_angle_gamma 90.000000
_cell_volume 4300.372512
_symmetry_space_group_name_H-M "C M M M"
_symmetry_group_IT_number 65
_symmetry_cell_setting 'orthorhombic'
loop_
_space_group_symop_operation_xyz
x,y,z
-x,-y,z
x,-y,-z
-x,y,-z
-x,-y,-z
x,y,-z
-x,y,z
x,-y,z
1/2+x,1/2+y,z
1/2-x,1/2-y,z
1/2+x,1/2-y,-z
1/2-x,1/2+y,-z
1/2-x,1/2-y,-z
1/2+x,1/2+y,-z
1/2-x,1/2+y,z
1/2+x,1/2-y,z
loop_
_atom_site_type_symbol
_atom_site_label
_atom_site_fract_x
_atom_site_fract_y
_atom_site_fract_z
Si Si1 0.756179 0.446565 0.893841
Si Si2 0.500000 0.551541 0.204792
Si Si3 0.500000 0.582483 0.399926
Si Si4 0.231229 0.157893 0.395098
Si Si5 0.500000 0.730889 0.609380
Si Si6 0.000000 0.327538 0.708685
Si Si7 0.000000 0.376883 0.895197
O O1 0.790255 0.500000 0.869609
O O2 0.634935 0.428101 0.833700
O O3 0.876084 0.411399 0.884082
O O4 0.716709 0.447259 0.000000
O O5 0.500000 0.500000 0.166676
O O6 0.500000 0.551074 0.312587
O O7 0.500000 0.560968 0.500000
O O8 0.630372 0.614883 0.392776
O O9 0.275220 0.164105 0.500000
O O10 0.362006 0.153002 0.333835
O O11 0.132870 0.200592 0.372934
O O12 0.500000 0.741417 0.500000
O O13 0.500000 0.775118 0.673082
O O14 0.000000 0.338932 0.815975
O O15 0.000000 0.359410 0.000000
#
# Coordination Sequence:
#
# PCOD9483359 Si02
#       7
#    16   8   8  16   8   8   8
#     4   9  17  31  50  69  89 114 147 191 237 270
#     4  10  18  28  46  72  95 116 151 192 223 262
#     4   9  18  32  44  60  95 133 155 176 215 267
#     4   9  18  31  48  70  93 117 149 189 228 265
#     4   9  18  32  49  71  96 117 141 183 236 275
#     4  12  19  27  48  71  92 116 147 185 228 271
#     4  10  21  33  45  66  95 124 151 180 221 274
#
# _framework density 16.742735
#
# number of rings (size 3 to 8) (size 9 to 14) (size 15 to 20)
#    0.000    2.444    0.000    5.000    0.000    4.667 
#    0.000    0.000    0.000    2.667    0.000    3.111 
#    0.000   20.444    0.000    0.000    0.000    0.000 
#
# Total GULP energy -200491.737702 kJ/mol
# GULP energy per Si atom -5569.214936 kJ/mol
# Density = 1.670463 g / cm^3
# Si number density = 16.742735 Si / 1000 Ang^3
#
#
#
# Elastic Constant Matrix: (Units=GPa)
#
#
# Indices 1 2 3 4 5 6 
#
# 1 111.2844 15.4339 64.3347 0.0000 0.0000 0.0000
# 2 15.4339 36.7860 30.7281 0.0000 0.0000 0.0000
# 3 64.3347 30.7281 106.9188 0.0000 0.0000 0.0000
# 4 0.0000 0.0000 0.0000 22.4524 0.0000 0.0000
# 5 0.0000 0.0000 0.0000 0.0000 20.1777 0.0000
# 6 0.0000 0.0000 0.0000 0.0000 0.0000 6.7784
#
#
#
# Elastic Compliance Matrix: (Units=1/GPa)
#
#
# Indices 1 2 3 4 5 6 
#
# 1 0.013843 0.001513 -0.008764 0.000000 0.000000 0.000000
# 2 0.001513 0.035937 -0.011239 0.000000 0.000000 0.000000
# 3 -0.008764 -0.011239 0.017857 0.000000 0.000000 0.000000
# 4 0.000000 0.000000 0.000000 0.044539 0.000000 0.000000
# 5 0.000000 0.000000 0.000000 0.000000 0.049560 0.000000
# 6 0.000000 0.000000 0.000000 0.000000 0.000000 0.147527
#
#
# Mechanical properties :
#
#
# Convention : Reuss Voigt Hill
#
# Bulk Modulus (GPa) = 32.61912 52.88697 42.75305
# Shear Modulus (GPa) = 14.02678 19.51454 16.77066
#
# Velocity S-wave (km/s) = 2.89759 3.41772 3.16835
# Velocity P-wave (km/s) = 5.54252 6.87248 6.24302
#
# Compressibility (1/GPa) = 0.03065686
#
# Stress axis : x y z
#
# Youngs Moduli (GPa) = 72.23916 27.82614 56.00180
#
# Poissons Ratio (x) = -0.04211 0.49082
# Poissons Ratio (y) = -0.10931 0.62939
# Poissons Ratio (z) = 0.63313 0.31273
#
# Static dielectric constant tensor:
#      x y z
#    x 1.601400 0.000000 0.000000 
#    y 0.000000 1.563890 0.000000 
#    z 0.000000 0.000000 1.557780 
# 
# From -- ./inp_files/36737.got.cif
#   From: 2010.05.17/outbox.cif.g08.bks.cpg/sg65_19_cif.got.tgz:36737.got - 2010.06.03 17:01:31.
