data_PCOD9483083
_publ_section_title
;
Structure prediction by ZEFSAII (Michael W. Deem and Ramdas Pophale) SiO2 
 PCOD9483083
Probable space group: C M M M
;
_chemical_formula_sum "Si O2"
_cell_formula_units_Z 88
_cell_length_a 21.077587
_cell_length_b 31.065608
_cell_length_c 7.629783
_cell_angle_alpha 90.000000
_cell_angle_beta 90.000000
_cell_angle_gamma 90.000000
_cell_volume 4995.890773
_symmetry_space_group_name_H-M "C M M M"
_symmetry_group_IT_number 65
_symmetry_cell_setting 'orthorhombic'
loop_
_space_group_symop_operation_xyz
x,y,z
-x,-y,z
x,-y,-z
-x,y,-z
-x,-y,-z
x,y,-z
-x,y,z
x,-y,z
1/2+x,1/2+y,z
1/2-x,1/2-y,z
1/2+x,1/2-y,-z
1/2-x,1/2+y,-z
1/2-x,1/2-y,-z
1/2+x,1/2+y,-z
1/2-x,1/2+y,z
1/2+x,1/2-y,z
loop_
_atom_site_type_symbol
_atom_site_label
_atom_site_fract_x
_atom_site_fract_y
_atom_site_fract_z
Si Si1 0.199187 0.366563 0.791888
Si Si2 0.931708 0.329707 0.787666
Si Si3 0.858811 0.548654 0.706926
Si Si4 0.930997 0.227356 0.211617
Si Si5 0.709046 0.292441 0.785215
Si Si6 0.500000 0.048952 0.208414
O O1 0.132674 0.349305 0.716298
O O2 0.194291 0.417668 0.767493
O O3 0.255484 0.336027 0.727046
O O4 0.197918 0.358864 0.000000
O O5 0.929238 0.278609 0.756924
O O6 0.000000 0.345903 0.722412
O O7 0.932073 0.335901 0.000000
O O8 0.853259 0.545624 0.500000
O O9 0.854286 0.500000 0.781548
O O10 0.930239 0.565987 0.744894
O O11 0.863858 0.209340 0.275965
O O12 0.000000 0.211350 0.276547
O O13 0.931462 0.221856 0.000000
O O14 0.750000 0.250000 0.734032
O O15 0.707379 0.291294 0.000000
O O16 0.500000 0.000000 0.282145
O O17 0.500000 0.047711 0.000000
#
# Coordination Sequence:
#
# PCOD9483083 Si02
#       6
#    16  16  16  16  16   8
#     4  10  18  26  42  64  83 110 146 187 223 251
#     4   8  13  20  31  53  82 108 138 174 209 243
#     4  10  21  35  46  58  83 116 146 179 223 270
#     4   8  12  19  32  51  81 117 144 170 210 258
#     4   9  14  22  35  57  88 115 141 178 222 259
#     4   9  17  31  51  69  83 105 143 189 227 257
#
# _framework density 17.614477000000001
#
# number of rings (size 3 to 8) (size 9 to 14) (size 15 to 20)
#    0.000    3.000    1.818    1.909    1.273    2.182 
#    0.000    0.000    0.000    0.545    0.000    0.000 
#    0.000    1.455    0.000    9.091    0.000    1.455 
#
# Total GULP energy -245072.326277 kJ/mol
# GULP energy per Si atom -5569.825597 kJ/mol
# Density = 1.757439 g / cm^3
# Si number density = 17.614477 Si / 1000 Ang^3
#
#
#
# Elastic Constant Matrix: (Units=GPa)
#
#
# Indices 1 2 3 4 5 6 
#
# 1 151.9876 73.5220 7.2096 0.0000 0.0000 0.0000
# 2 73.5220 83.1108 -0.6270 0.0000 0.0000 0.0000
# 3 7.2096 -0.6270 32.8791 0.0000 0.0000 0.0000
# 4 0.0000 0.0000 0.0000 -105.2283 0.0000 0.0000
# 5 0.0000 0.0000 0.0000 0.0000 -45.2656 0.0000
# 6 0.0000 0.0000 0.0000 0.0000 0.0000 32.5181
#
#
#
# Elastic Compliance Matrix: (Units=1/GPa)
#
#
# Indices 1 2 3 4 5 6 
#
# 1 0.011749 -0.010414 -0.002775 0.000000 0.000000 0.000000
# 2 -0.010414 0.021265 0.002689 0.000000 0.000000 0.000000
# 3 -0.002775 0.002689 0.031074 0.000000 0.000000 0.000000
# 4 0.000000 0.000000 0.000000 -0.009503 0.000000 0.000000
# 5 0.000000 0.000000 0.000000 0.000000 -0.022092 0.000000
# 6 0.000000 0.000000 0.000000 0.000000 0.000000 0.030752
#
#
# Mechanical properties :
#
#
# Convention : Reuss Voigt Hill
#
# Bulk Modulus (GPa) = 23.20819 47.57629 35.39224
# Shear Modulus (GPa) = 50.70569 -11.07030 19.81770
#
# Velocity S-wave (km/s) = 5.37111 -2.50966 3.35786
# Velocity P-wave (km/s) = 7.18814 4.32094 5.93043
#
# Compressibility (1/GPa) = 0.04308823
#
# Stress axis : x y z
#
# Youngs Moduli (GPa) = 85.11433 47.02520 32.18105
#
# Poissons Ratio (x) = 0.48974 0.08930
# Poissons Ratio (y) = 0.88641 -0.08654
# Poissons Ratio (z) = 0.23618 -0.12646
#
# Static dielectric constant tensor:
#      x y z
#    x 1.634350 0.000000 0.000000 
#    y 0.000000 1.649750 0.000000 
#    z 0.000000 0.000000 1.644340 
# 
# From -- ./inp_files/12627.got.cif
#   From: 2010.05.17/outbox.cif.g08.bks.cpg/sg65_7_cif.got.tgz:12627.got - 2010.06.03 17:01:31.
