data_PCOD9483446
_publ_section_title
;
Structure prediction by ZEFSAII (Michael W. Deem and Ramdas Pophale) SiO2 
 PCOD9483446
Probable space group: C M M M
;
_chemical_formula_sum "Si O2"
_cell_formula_units_Z 104
_cell_length_a 9.917684
_cell_length_b 26.719374
_cell_length_c 25.916569
_cell_angle_alpha 90.000000
_cell_angle_beta 90.000000
_cell_angle_gamma 90.000000
_cell_volume 6867.743268
_symmetry_space_group_name_H-M "C M M M"
_symmetry_group_IT_number 65
_symmetry_cell_setting 'orthorhombic'
loop_
_space_group_symop_operation_xyz
x,y,z
-x,-y,z
x,-y,-z
-x,y,-z
-x,-y,-z
x,y,-z
-x,y,z
x,-y,z
1/2+x,1/2+y,z
1/2-x,1/2-y,z
1/2+x,1/2-y,-z
1/2-x,1/2+y,-z
1/2-x,1/2-y,-z
1/2+x,1/2+y,-z
1/2-x,1/2+y,z
1/2+x,1/2-y,z
loop_
_atom_site_type_symbol
_atom_site_label
_atom_site_fract_x
_atom_site_fract_y
_atom_site_fract_z
Si Si1 0.338640 0.598304 0.888518
Si Si2 0.246722 0.810395 0.370302
Si Si3 0.000000 0.193961 0.557621
Si Si4 0.336977 0.442926 0.000000
Si Si5 0.000000 0.685080 0.559791
Si Si6 0.660308 0.940865 0.794869
Si Si7 0.345367 0.703272 0.162271
Si Si8 0.838533 0.862317 0.264735
O O1 0.500000 0.586477 0.879753
O O2 0.241275 0.570326 0.848117
O O3 0.323558 0.657181 0.876823
O O4 0.300873 0.583953 0.946666
O O5 0.250000 0.750000 0.360846
O O6 0.374688 0.826960 0.403586
O O7 0.217847 0.838479 0.317136
O O8 0.126835 0.820943 0.409444
O O9 0.000000 0.174076 0.500000
O O10 0.000000 0.254434 0.554676
O O11 0.286838 0.500000 0.000000
O O12 0.500000 0.444702 0.000000
O O13 0.000000 0.666318 0.500000
O O14 0.500000 0.926836 0.797428
O O15 0.745262 0.908547 0.753337
O O16 0.666613 0.000000 0.784154
O O17 0.500000 0.719621 0.158260
O O18 0.250000 0.750000 0.154272
O O19 0.326165 0.678435 0.218721
O O20 0.000000 0.874175 0.268697
#
# Coordination Sequence:
#
# PCOD9483446 Si02
#       8
#    16  16   8   8   8  16  16  16
#     4   9  18  33  52  75  99 126 161 199 235 282
#     4  10  18  29  44  67  98 130 164 200 235 278
#     4   9  16  28  44  62  93 133 167 198 232 275
#     4   9  16  28  52  79  97 119 159 205 246 285
#     4   9  18  28  42  64  93 133 169 194 232 281
#     4  10  21  35  51  72  98 125 153 190 243 296
#     4   9  18  31  46  66  95 129 163 197 234 278
#     4  10  20  33  48  70  95 124 163 201 238 283
#
# _framework density 15.143257
#
# number of rings (size 3 to 8) (size 9 to 14) (size 15 to 20)
#    0.000    2.538    0.769    2.769    1.077    6.154 
#    0.000    0.769    0.000    1.385    0.000    0.000 
#    0.000    3.692    0.000    0.000    0.000    0.000 
#
# Total GULP energy -289471.602571 kJ/mol
# GULP energy per Si atom -5566.761588 kJ/mol
# Density = 1.510879 g / cm^3
# Si number density = 15.143257 Si / 1000 Ang^3
#
#
#
# Elastic Constant Matrix: (Units=GPa)
#
#
# Indices 1 2 3 4 5 6 
#
# 1 128.7817 60.9036 70.9763 0.0000 0.0000 0.0000
# 2 60.9036 76.2004 60.8697 0.0000 0.0000 0.0000
# 3 70.9763 60.8697 157.8462 0.0000 0.0000 0.0000
# 4 0.0000 0.0000 0.0000 16.6902 0.0000 0.0000
# 5 0.0000 0.0000 0.0000 0.0000 25.6149 0.0000
# 6 0.0000 0.0000 0.0000 0.0000 0.0000 26.1547
#
#
#
# Elastic Compliance Matrix: (Units=1/GPa)
#
#
# Indices 1 2 3 4 5 6 
#
# 1 0.013238 -0.008419 -0.002706 0.000000 0.000000 0.000000
# 2 -0.008419 0.024320 -0.005593 0.000000 0.000000 0.000000
# 3 -0.002706 -0.005593 0.009709 0.000000 0.000000 0.000000
# 4 0.000000 0.000000 0.000000 0.059916 0.000000 0.000000
# 5 0.000000 0.000000 0.000000 0.000000 0.039040 0.000000
# 6 0.000000 0.000000 0.000000 0.000000 0.000000 0.038234
#
#
# Mechanical properties :
#
#
# Convention : Reuss Voigt Hill
#
# Bulk Modulus (GPa) = 72.30049 83.14750 77.72400
# Shear Modulus (GPa) = 22.47180 25.03055 23.75117
#
# Velocity S-wave (km/s) = 3.85638 4.07002 3.96464
# Velocity P-wave (km/s) = 8.22660 8.78141 8.50853
#
# Compressibility (1/GPa) = 0.01383116
#
# Stress axis : x y z
#
# Youngs Moduli (GPa) = 75.54066 41.11894 103.00044
#
# Poissons Ratio (x) = 0.34618 0.27871
# Poissons Ratio (y) = 0.63597 0.57605
# Poissons Ratio (z) = 0.20441 0.22997
#
# Static dielectric constant tensor:
#      x y z
#    x 1.487210 0.000000 0.000000 
#    y 0.000000 1.482180 0.000000 
#    z 0.000000 0.000000 1.494170 
# 
# From -- ./inp_files/73620.got.cif
#   From: 2010.05.17/outbox.cif.g08.bks.cpg/sg65_37_cif.got.tgz:73620.got - 2010.06.03 17:01:31.
