data_PCOD9483599
_publ_section_title
;
Structure prediction by ZEFSAII (Michael W. Deem and Ramdas Pophale) SiO2 
 PCOD9483599
Probable space group: C M M M
;
_chemical_formula_sum "Si O2"
_cell_formula_units_Z 104
_cell_length_a 31.875965
_cell_length_b 9.531790
_cell_length_c 21.161003
_cell_angle_alpha 90.000000
_cell_angle_beta 90.000000
_cell_angle_gamma 90.000000
_cell_volume 6429.453440
_symmetry_space_group_name_H-M "C M M M"
_symmetry_group_IT_number 65
_symmetry_cell_setting 'orthorhombic'
loop_
_space_group_symop_operation_xyz
x,y,z
-x,-y,z
x,-y,-z
-x,y,-z
-x,-y,-z
x,y,-z
-x,y,z
x,-y,z
1/2+x,1/2+y,z
1/2-x,1/2-y,z
1/2+x,1/2-y,-z
1/2-x,1/2+y,-z
1/2-x,1/2-y,-z
1/2+x,1/2+y,-z
1/2-x,1/2+y,z
1/2+x,1/2-y,z
loop_
_atom_site_type_symbol
_atom_site_label
_atom_site_fract_x
_atom_site_fract_y
_atom_site_fract_z
Si Si1 0.750000 0.750000 0.274081
Si Si2 0.825765 0.840012 0.182822
Si Si3 0.822557 0.343397 0.361720
Si Si4 0.949659 0.665295 0.626174
Si Si5 0.293547 0.835099 0.928144
Si Si6 0.551127 0.663575 0.500000
Si Si7 0.291103 0.159927 0.500000
Si Si8 0.110622 0.835436 0.707415
O O1 0.784634 0.821377 0.228216
O O2 0.779241 0.661611 0.321863
O O3 0.822069 0.731144 0.125980
O O4 0.867790 0.817465 0.224040
O O5 0.825358 0.000000 0.159552
O O6 0.840487 0.500000 0.351821
O O7 0.815735 0.319296 0.435451
O O8 0.852232 0.221462 0.337080
O O9 0.939199 0.500000 0.620762
O O10 0.936203 0.751363 0.563130
O O11 0.928193 0.739686 0.686270
O O12 0.000000 0.675488 0.630409
O O13 0.250000 0.750000 0.924537
O O14 0.286182 0.000000 0.916808
O O15 0.309670 0.818996 0.000000
O O16 0.564861 0.500000 0.500000
O O17 0.500000 0.662048 0.500000
O O18 0.250000 0.250000 0.500000
O O19 0.276954 0.000000 0.500000
O O20 0.101722 0.000000 0.698207
#
# Coordination Sequence:
#
# PCOD9483599 Si02
#       8
#     8  16  16  16  16   8   8  16
#     4  10  18  29  49  66  88 120 164 198 244 288
#     4  10  20  32  48  71  97 128 166 203 241 286
#     4  10  20  33  48  65  89 120 159 205 252 297
#     4  10  20  35  55  77 101 130 164 203 251 308
#     4  10  20  32  48  71  98 130 167 204 243 287
#     4   9  17  30  51  76  99 125 156 194 244 299
#     4  10  20  33  48  65  83 115 158 204 251 293
#     4  10  22  36  50  72  99 127 163 203 247 297
#
# _framework density 16.175557999999999
#
# number of rings (size 3 to 8) (size 9 to 14) (size 15 to 20)
#    0.000    2.077    1.538    2.077    0.000    7.692 
#    0.000    2.308    0.000    0.000    0.000    0.000 
#    0.000    0.615    0.000    6.769    0.000    4.923 
#
# Total GULP energy -289797.211223 kJ/mol
# GULP energy per Si atom -5573.023293 kJ/mol
# Density = 1.613874 g / cm^3
# Si number density = 16.175558 Si / 1000 Ang^3
#
#
#
# Elastic Constant Matrix: (Units=GPa)
#
#
# Indices 1 2 3 4 5 6 
#
# 1 46.7624 33.1669 22.1880 0.0000 0.0000 0.0000
# 2 33.1669 122.1795 68.8780 0.0000 0.0000 0.0000
# 3 22.1880 68.8780 89.8767 0.0000 0.0000 0.0000
# 4 0.0000 0.0000 0.0000 48.8173 0.0000 0.0000
# 5 0.0000 0.0000 0.0000 0.0000 17.5799 0.0000
# 6 0.0000 0.0000 0.0000 0.0000 0.0000 22.1895
#
#
#
# Elastic Compliance Matrix: (Units=1/GPa)
#
#
# Indices 1 2 3 4 5 6 
#
# 1 0.026652 -0.006208 -0.001822 0.000000 0.000000 0.000000
# 2 -0.006208 0.015856 -0.010619 0.000000 0.000000 0.000000
# 3 -0.001822 -0.010619 0.019714 0.000000 0.000000 0.000000
# 4 0.000000 0.000000 0.000000 0.020485 0.000000 0.000000
# 5 0.000000 0.000000 0.000000 0.000000 0.056883 0.000000
# 6 0.000000 0.000000 0.000000 0.000000 0.000000 0.045066
#
#
# Mechanical properties :
#
#
# Convention : Reuss Voigt Hill
#
# Bulk Modulus (GPa) = 40.12112 56.36494 48.24303
# Shear Modulus (GPa) = 21.71427 26.68974 24.20200
#
# Velocity S-wave (km/s) = 3.66787 4.06643 3.87228
# Velocity P-wave (km/s) = 6.54179 7.54780 7.06273
#
# Compressibility (1/GPa) = 0.02492453
#
# Stress axis : x y z
#
# Youngs Moduli (GPa) = 37.52026 63.06638 50.72452
#
# Poissons Ratio (x) = 0.39150 0.09244
# Poissons Ratio (y) = 0.23292 0.53865
# Poissons Ratio (z) = 0.06837 0.66971
#
# Static dielectric constant tensor:
#      x y z
#    x 1.549730 0.000000 0.000000 
#    y 0.000000 1.554100 0.000000 
#    z 0.000000 0.000000 1.569980 
# 
# From -- ./inp_files/66475.got.cif
#   From: 2010.05.17/outbox.cif.g08.bks.cpg/sg65_34_cif.got.tgz:66475.got - 2010.06.03 17:01:31.
