data_PCOD9483508
_publ_section_title
;
Structure prediction by ZEFSAII (Michael W. Deem and Ramdas Pophale) SiO2 
 PCOD9483508
Probable space group: C M M M
;
_chemical_formula_sum "Si O2"
_cell_formula_units_Z 104
_cell_length_a 29.673663
_cell_length_b 8.503986
_cell_length_c 24.128543
_cell_angle_alpha 90.000000
_cell_angle_beta 90.000000
_cell_angle_gamma 90.000000
_cell_volume 6088.703061
_symmetry_space_group_name_H-M "C M M M"
_symmetry_group_IT_number 65
_symmetry_cell_setting 'orthorhombic'
loop_
_space_group_symop_operation_xyz
x,y,z
-x,-y,z
x,-y,-z
-x,y,-z
-x,-y,-z
x,y,-z
-x,y,z
x,-y,z
1/2+x,1/2+y,z
1/2-x,1/2-y,z
1/2+x,1/2-y,-z
1/2-x,1/2+y,-z
1/2-x,1/2-y,-z
1/2+x,1/2+y,-z
1/2-x,1/2+y,z
1/2+x,1/2-y,z
loop_
_atom_site_type_symbol
_atom_site_label
_atom_site_fract_x
_atom_site_fract_y
_atom_site_fract_z
Si Si1 0.699334 0.312147 0.165409
Si Si2 0.644736 0.692145 0.274450
Si Si3 0.301419 0.812687 0.500000
Si Si4 0.049714 0.808987 0.767555
Si Si5 0.550801 0.310563 0.101693
Si Si6 0.698719 0.688907 0.383249
Si Si7 0.643859 0.812741 0.061240
O O1 0.700237 0.500000 0.167255
O O2 0.750000 0.250000 0.164479
O O3 0.673256 0.256768 0.220707
O O4 0.672224 0.261157 0.110960
O O5 0.644452 0.500000 0.274317
O O6 0.593216 0.745660 0.266188
O O7 0.668902 0.741141 0.331015
O O8 0.198815 0.500000 0.500000
O O9 0.250000 0.750000 0.500000
O O10 0.320370 0.749872 0.558063
O O11 0.055509 0.771916 0.832807
O O12 0.000000 0.753251 0.749943
O O13 0.049183 0.000000 0.764699
O O14 0.500000 0.266489 0.084307
O O15 0.554661 0.500000 0.096636
O O16 0.591585 0.231702 0.069759
O O17 0.700293 0.500000 0.384812
O O18 0.750000 0.750000 0.376734
O O19 0.648790 0.000000 0.063983
O O20 0.658461 0.758500 0.000000
#
# Coordination Sequence:
#
# PCOD9483508 Si02
#       7
#    16  16   8  16  16  16  16
#     4  11  22  38  57  76 100 128 165 208 255 305
#     4   9  17  29  49  77 104 130 160 201 247 295
#     4  10  18  30  46  66  97 134 173 207 240 279
#     4   8  13  25  48  76 102 126 155 194 243 295
#     4   9  17  32  56  80 101 128 163 203 250 305
#     4  10  18  29  46  70 102 135 168 201 240 286
#     4  11  24  39  53  72  99 132 169 208 254 305
#
# _framework density 17.080814
#
# number of rings (size 3 to 8) (size 9 to 14) (size 15 to 20)
#    0.000    2.308    1.538    4.385    0.000    2.154 
#    0.000    3.846    0.000    0.000    0.000    0.538 
#    0.000    4.308    0.000    0.000    0.000    0.000 
#
# Total GULP energy -290045.876679 kJ/mol
# GULP energy per Si atom -5577.805321 kJ/mol
# Density = 1.704194 g / cm^3
# Si number density = 17.080814 Si / 1000 Ang^3
#
#
#
# Elastic Constant Matrix: (Units=GPa)
#
#
# Indices 1 2 3 4 5 6 
#
# 1 111.4012 18.7012 73.1434 0.0000 0.0000 0.0000
# 2 18.7012 36.2833 29.4167 0.0000 0.0000 0.0000
# 3 73.1434 29.4167 149.0596 0.0000 0.0000 0.0000
# 4 0.0000 0.0000 0.0000 16.0287 0.0000 0.0000
# 5 0.0000 0.0000 0.0000 0.0000 22.3306 0.0000
# 6 0.0000 0.0000 0.0000 0.0000 0.0000 20.8107
#
#
#
# Elastic Compliance Matrix: (Units=1/GPa)
#
#
# Indices 1 2 3 4 5 6 
#
# 1 0.013349 -0.001869 -0.006182 0.000000 0.000000 0.000000
# 2 -0.001869 0.033072 -0.005610 0.000000 0.000000 0.000000
# 3 -0.006182 -0.005610 0.010849 0.000000 0.000000 0.000000
# 4 0.000000 0.000000 0.000000 0.062388 0.000000 0.000000
# 5 0.000000 0.000000 0.000000 0.000000 0.044782 0.000000
# 6 0.000000 0.000000 0.000000 0.000000 0.000000 0.048052
#
#
# Mechanical properties :
#
#
# Convention : Reuss Voigt Hill
#
# Bulk Modulus (GPa) = 33.38876 59.91854 46.65365
# Shear Modulus (GPa) = 20.01640 23.53286 21.77463
#
# Velocity S-wave (km/s) = 3.42696 3.71581 3.57431
# Velocity P-wave (km/s) = 5.93706 7.31883 6.66386
#
# Compressibility (1/GPa) = 0.02995020
#
# Stress axis : x y z
#
# Youngs Moduli (GPa) = 74.91256 30.23692 92.17370
#
# Poissons Ratio (x) = 0.05650 0.56977
# Poissons Ratio (y) = 0.13998 0.51708
# Poissons Ratio (z) = 0.46307 0.16962
#
# Static dielectric constant tensor:
#      x y z
#    x 1.574200 0.000000 0.000000 
#    y 0.000000 1.592620 0.000000 
#    z 0.000000 0.000000 1.589220 
# 
# From -- ./inp_files/71819.got.cif
#   From: 2010.05.17/outbox.cif.g08.bks.cpg/sg65_36_cif.got.tgz:71819.got - 2010.06.03 17:01:31.
