data_PCOD9483634
_publ_section_title
;
Structure prediction by ZEFSAII (Michael W. Deem and Ramdas Pophale) SiO2 
 PCOD9483634
Probable space group: C M M M
;
_chemical_formula_sum "Si O2"
_cell_formula_units_Z 80
_cell_length_a 16.700064
_cell_length_b 14.126246
_cell_length_c 19.191034
_cell_angle_alpha 90.000000
_cell_angle_beta 90.000000
_cell_angle_gamma 90.000000
_cell_volume 4527.341714
_symmetry_space_group_name_H-M "C M M M"
_symmetry_group_IT_number 65
_symmetry_cell_setting 'orthorhombic'
loop_
_space_group_symop_operation_xyz
x,y,z
-x,-y,z
x,-y,-z
-x,y,-z
-x,-y,-z
x,y,-z
-x,y,z
x,-y,z
1/2+x,1/2+y,z
1/2-x,1/2-y,z
1/2+x,1/2-y,-z
1/2-x,1/2+y,-z
1/2-x,1/2-y,-z
1/2+x,1/2+y,-z
1/2-x,1/2+y,z
1/2+x,1/2-y,z
loop_
_atom_site_type_symbol
_atom_site_label
_atom_site_fract_x
_atom_site_fract_y
_atom_site_fract_z
Si Si1 0.597454 0.606713 0.419472
Si Si2 0.404166 0.777224 0.079347
Si Si3 0.135762 0.890741 0.825966
Si Si4 0.824756 0.609314 0.204201
Si Si5 0.408129 0.259427 0.702024
O O1 0.620253 0.621971 0.500000
O O2 0.500000 0.606752 0.416800
O O3 0.623130 0.500000 0.398629
O O4 0.623838 0.688139 0.366741
O O5 0.500000 0.786555 0.082734
O O6 0.381212 0.672661 0.106379
O O7 0.365301 0.848824 0.134502
O O8 0.377924 0.793158 0.000000
O O9 0.229673 0.884125 0.806873
O O10 0.091472 0.839436 0.762254
O O11 0.113491 0.000000 0.833975
O O12 0.846476 0.500000 0.214565
O O13 0.855011 0.674909 0.267299
O O14 0.500000 0.227554 0.691156
#
# Coordination Sequence:
#
# PCOD9483634 Si02
#       5
#    16  16  16  16  16
#     4   8  14  25  43  71 104 130 153 188 237 289
#     4  10  21  35  51  72  96 121 153 198 246 288
#     4  10  20  33  50  71  96 126 157 191 236 291
#     4  10  21  35  50  68  93 129 167 199 233 276
#     4  10  18  29  50  75  97 123 157 199 240 278
#
# _framework density 17.670413
#
# number of rings (size 3 to 8) (size 9 to 14) (size 15 to 20)
#    0.000    2.400    0.000    6.000    0.000    6.400 
#    0.000    4.000    0.000    3.000    0.000    5.600 
#    0.000    0.000    0.000    0.000    0.000    0.000 
#
# Total GULP energy -223130.303213 kJ/mol
# GULP energy per Si atom -5578.257580 kJ/mol
# Density = 1.763019 g / cm^3
# Si number density = 17.670413 Si / 1000 Ang^3
#
#
#
# Elastic Constant Matrix: (Units=GPa)
#
#
# Indices 1 2 3 4 5 6 
#
# 1 35.0040 19.4242 5.1215 0.0000 0.0000 0.0000
# 2 19.4242 110.7991 46.1327 0.0000 0.0000 0.0000
# 3 5.1215 46.1327 85.9323 0.0000 0.0000 0.0000
# 4 0.0000 0.0000 0.0000 14.5197 0.0000 0.0000
# 5 0.0000 0.0000 0.0000 0.0000 -11.8921 0.0000
# 6 0.0000 0.0000 0.0000 0.0000 0.0000 17.6094
#
#
#
# Elastic Compliance Matrix: (Units=1/GPa)
#
#
# Indices 1 2 3 4 5 6 
#
# 1 0.031779 -0.006159 0.001413 0.000000 0.000000 0.000000
# 2 -0.006159 0.012817 -0.006514 0.000000 0.000000 0.000000
# 3 0.001413 -0.006514 0.015050 0.000000 0.000000 0.000000
# 4 0.000000 0.000000 0.000000 0.068872 0.000000 0.000000
# 5 0.000000 0.000000 0.000000 0.000000 -0.084089 0.000000
# 6 0.000000 0.000000 0.000000 0.000000 0.000000 0.056788
#
#
# Mechanical properties :
#
#
# Convention : Reuss Voigt Hill
#
# Bulk Modulus (GPa) = 26.93583 41.45470 34.19527
# Shear Modulus (GPa) = 36.73412 14.78454 25.75933
#
# Velocity S-wave (km/s) = 4.56439 2.89569 3.82221
# Velocity P-wave (km/s) = 6.56161 5.88990 6.23481
#
# Compressibility (1/GPa) = 0.03712527
#
# Stress axis : x y z
#
# Youngs Moduli (GPa) = 31.46694 78.01969 66.44595
#
# Poissons Ratio (x) = 0.48056 -0.09387
# Poissons Ratio (y) = 0.19382 0.43282
# Poissons Ratio (z) = -0.04445 0.50821
#
# Static dielectric constant tensor:
#      x y z
#    x 1.613700 0.000000 0.000000 
#    y 0.000000 1.599530 0.000000 
#    z 0.000000 0.000000 1.604320 
# 
# From -- ./inp_files/52882.got.cif
#   From: 2010.05.17/outbox.cif.g08.bks.cpg/sg65_27_cif.got.tgz:52882.got - 2010.06.03 17:01:31.
