data_PCOD9483376
_publ_section_title
;
Structure prediction by ZEFSAII (Michael W. Deem and Ramdas Pophale) SiO2 
 PCOD9483376
Probable space group: C M M M
;
_chemical_formula_sum "Si O2"
_cell_formula_units_Z 88
_cell_length_a 18.608942
_cell_length_b 8.460220
_cell_length_c 29.948787
_cell_angle_alpha 90.000000
_cell_angle_beta 90.000000
_cell_angle_gamma 90.000000
_cell_volume 4715.009542
_symmetry_space_group_name_H-M "C M M M"
_symmetry_group_IT_number 65
_symmetry_cell_setting 'orthorhombic'
loop_
_space_group_symop_operation_xyz
x,y,z
-x,-y,z
x,-y,-z
-x,y,-z
-x,-y,-z
x,y,-z
-x,y,z
x,-y,z
1/2+x,1/2+y,z
1/2-x,1/2-y,z
1/2+x,1/2-y,-z
1/2-x,1/2+y,-z
1/2-x,1/2-y,-z
1/2+x,1/2+y,-z
1/2-x,1/2+y,z
1/2+x,1/2-y,z
loop_
_atom_site_type_symbol
_atom_site_label
_atom_site_fract_x
_atom_site_fract_y
_atom_site_fract_z
Si Si1 0.167563 0.810598 0.048460
Si Si2 0.331859 0.810830 0.142150
Si Si3 0.331154 0.191300 0.317870
Si Si4 0.584396 0.311679 0.500000
Si Si5 0.417407 0.193095 0.770147
Si Si6 0.916660 0.690557 0.405586
O O1 0.250000 0.750000 0.048065
O O2 0.136521 0.744844 0.094560
O O3 0.168228 0.000000 0.050760
O O4 0.135902 0.763809 0.000000
O O5 0.250000 0.750000 0.146067
O O6 0.377566 0.755920 0.184653
O O7 0.329661 0.000000 0.142014
O O8 0.250000 0.250000 0.316436
O O9 0.374439 0.243883 0.273900
O O10 0.371121 0.244415 0.363040
O O11 0.331351 0.000000 0.317942
O O12 0.588079 0.500000 0.500000
O O13 0.500000 0.262263 0.500000
O O14 0.613643 0.247620 0.546821
O O15 0.500000 0.244546 0.768824
O O16 0.417366 0.000000 0.770174
O O17 0.917304 0.500000 0.405828
O O18 0.000000 0.743924 0.401305
#
# Coordination Sequence:
#
# PCOD9483376 Si02
#       6
#    16  16  16   8  16  16
#     4   9  16  26  42  65  94 126 159 196 236 280
#     4  10  18  28  47  72  98 127 157 196 241 284
#     4  10  20  34  53  75 100 129 160 199 244 288
#     4   9  17  29  48  75 104 131 159 199 248 287
#     4   9  18  33  52  73  96 125 163 201 237 282
#     4   9  17  31  52  75  98 129 169 204 234 278
#
# _framework density 18.663802
#
# number of rings (size 3 to 8) (size 9 to 14) (size 15 to 20)
#    0.000    2.636    0.000    3.545    0.000    5.091 
#    0.000    1.364    0.000    6.545    0.000    3.818 
#    0.000    0.000    0.000    0.000    0.000    0.000 
#
# Total GULP energy -245293.682826 kJ/mol
# GULP energy per Si atom -5574.856428 kJ/mol
# Density = 1.862132 g / cm^3
# Si number density = 18.663802 Si / 1000 Ang^3
#
#
#
# Elastic Constant Matrix: (Units=GPa)
#
#
# Indices 1 2 3 4 5 6 
#
# 1 90.9220 12.3007 91.2232 0.0000 0.0000 0.0000
# 2 12.3007 19.2771 31.7994 0.0000 0.0000 0.0000
# 3 91.2232 31.7994 244.6421 0.0000 0.0000 0.0000
# 4 0.0000 0.0000 0.0000 -9.0510 0.0000 0.0000
# 5 0.0000 0.0000 0.0000 0.0000 66.8276 0.0000
# 6 0.0000 0.0000 0.0000 0.0000 0.0000 18.2921
#
#
#
# Elastic Compliance Matrix: (Units=1/GPa)
#
#
# Indices 1 2 3 4 5 6 
#
# 1 0.017577 -0.000514 -0.006487 0.000000 0.000000 0.000000
# 2 -0.000514 0.066049 -0.008393 0.000000 0.000000 0.000000
# 3 -0.006487 -0.008393 0.007598 0.000000 0.000000 0.000000
# 4 0.000000 0.000000 0.000000 -0.110485 0.000000 0.000000
# 5 0.000000 0.000000 0.000000 0.000000 0.014964 0.000000
# 6 0.000000 0.000000 0.000000 0.000000 0.000000 0.054669
#
#
# Mechanical properties :
#
#
# Convention : Reuss Voigt Hill
#
# Bulk Modulus (GPa) = 16.54719 69.49864 43.02291
# Shear Modulus (GPa) = 49.35580 29.84827 39.60203
#
# Velocity S-wave (km/s) = 5.14802 4.00341 4.61137
# Velocity P-wave (km/s) = 6.64991 7.66079 7.17318
#
# Compressibility (1/GPa) = 0.06043324
#
# Stress axis : x y z
#
# Youngs Moduli (GPa) = 56.89328 15.14027 131.62042
#
# Poissons Ratio (x) = 0.00779 0.85385
# Poissons Ratio (y) = 0.02926 1.10475
# Poissons Ratio (z) = 0.36908 0.12708
#
# Static dielectric constant tensor:
#      x y z
#    x 1.624180 0.000000 0.000000 
#    y 0.000000 1.640100 0.000000 
#    z 0.000000 0.000000 1.683320 
# 
# From -- ./inp_files/77853.got.cif
#   From: 2010.05.17/outbox.cif.g08.bks.cpg/sg65_39_cif.got.tgz:77853.got - 2010.06.03 17:01:31.
