data_PCOD9483400
_publ_section_title
;
Structure prediction by ZEFSAII (Michael W. Deem and Ramdas Pophale) SiO2 
 PCOD9483400
Probable space group: C M M M
;
_chemical_formula_sum "Si O2"
_cell_formula_units_Z 112
_cell_length_a 16.200274
_cell_length_b 29.409349
_cell_length_c 14.395845
_cell_angle_alpha 90.000000
_cell_angle_beta 90.000000
_cell_angle_gamma 90.000000
_cell_volume 6858.749366
_symmetry_space_group_name_H-M "C M M M"
_symmetry_group_IT_number 65
_symmetry_cell_setting 'orthorhombic'
loop_
_space_group_symop_operation_xyz
x,y,z
-x,-y,z
x,-y,-z
-x,y,-z
-x,-y,-z
x,y,-z
-x,y,z
x,-y,z
1/2+x,1/2+y,z
1/2-x,1/2-y,z
1/2+x,1/2-y,-z
1/2-x,1/2+y,-z
1/2-x,1/2-y,-z
1/2+x,1/2+y,-z
1/2-x,1/2+y,z
1/2+x,1/2-y,z
loop_
_atom_site_type_symbol
_atom_site_label
_atom_site_fract_x
_atom_site_fract_y
_atom_site_fract_z
Si Si1 0.162578 0.722977 0.893409
Si Si2 0.096492 0.241057 0.605223
Si Si3 0.326020 0.163200 0.394333
Si Si4 0.000000 0.553674 0.790674
Si Si5 0.672904 0.946624 0.110865
Si Si6 0.255057 0.139477 0.201958
Si Si7 0.407358 0.692813 0.207890
Si Si8 0.500000 0.889150 0.603396
O O1 0.250000 0.750000 0.892556
O O2 0.179417 0.675200 0.843138
O O3 0.102812 0.757958 0.841182
O O4 0.137804 0.715850 0.000000
O O5 0.110155 0.225156 0.500000
O O6 0.157168 0.283302 0.622702
O O7 0.106724 0.203492 0.683406
O O8 0.000000 0.256306 0.610961
O O9 0.294540 0.157616 0.500000
O O10 0.272146 0.142223 0.312138
O O11 0.416902 0.140603 0.391392
O O12 0.918335 0.563914 0.849809
O O13 0.000000 0.500000 0.773257
O O14 0.000000 0.578572 0.692220
O O15 0.731314 0.910339 0.161014
O O16 0.690651 0.000000 0.130546
O O17 0.675196 0.940559 0.000000
O O18 0.165086 0.159285 0.177440
O O19 0.500000 0.675922 0.192597
O O20 0.500000 0.911066 0.500000
#
# Coordination Sequence:
#
# PCOD9483400 Si02
#       8
#    16  16  16   8  16  16  16   8
#     4   9  18  32  48  69  98 129 161 200 246 301
#     4   9  16  28  46  69 101 137 169 203 243 289
#     4  10  18  28  48  75 104 139 175 207 244 293
#     4  10  19  33  54  79 107 134 161 201 250 306
#     4  10  21  37  57  79 103 132 168 213 261 306
#     4  11  20  34  54  74 100 135 173 215 257 305
#     4  10  21  34  50  73 103 136 172 213 258 306
#     4  10  18  30  47  74 108 141 171 203 242 293
#
# _framework density 16.329508000000001
#
# number of rings (size 3 to 8) (size 9 to 14) (size 15 to 20)
#    0.000    2.143    3.571    0.643    0.000    2.429 
#    1.286    1.429    0.000    0.857    0.000    1.000 
#    0.000    0.000    0.000    4.857    0.000    0.000 
#
# Total GULP energy -312287.547731 kJ/mol
# GULP energy per Si atom -5576.563352 kJ/mol
# Density = 1.629234 g / cm^3
# Si number density = 16.329508 Si / 1000 Ang^3
#
#
#
# Elastic Constant Matrix: (Units=GPa)
#
#
# Indices 1 2 3 4 5 6 
#
# 1 69.5420 42.0108 29.0488 0.0000 0.0000 0.0000
# 2 42.0108 70.4884 40.2330 0.0000 0.0000 0.0000
# 3 29.0488 40.2330 80.3562 0.0000 0.0000 0.0000
# 4 0.0000 0.0000 0.0000 21.2141 0.0000 0.0000
# 5 0.0000 0.0000 0.0000 0.0000 14.4264 0.0000
# 6 0.0000 0.0000 0.0000 0.0000 0.0000 19.7457
#
#
#
# Elastic Compliance Matrix: (Units=1/GPa)
#
#
# Indices 1 2 3 4 5 6 
#
# 1 0.022698 -0.012384 -0.002005 0.000000 0.000000 0.000000
# 2 -0.012384 0.026619 -0.008851 0.000000 0.000000 0.000000
# 3 -0.002005 -0.008851 0.017601 0.000000 0.000000 0.000000
# 4 0.000000 0.000000 0.000000 0.047138 0.000000 0.000000
# 5 0.000000 0.000000 0.000000 0.000000 0.069318 0.000000
# 6 0.000000 0.000000 0.000000 0.000000 0.000000 0.050644
#
#
# Mechanical properties :
#
#
# Convention : Reuss Voigt Hill
#
# Bulk Modulus (GPa) = 48.92644 49.21909 49.07276
# Shear Modulus (GPa) = 17.40270 18.35018 17.87644
#
# Velocity S-wave (km/s) = 3.26808 3.35587 3.31226
# Velocity P-wave (km/s) = 6.65338 6.72476 6.68917
#
# Compressibility (1/GPa) = 0.02043885
#
# Stress axis : x y z
#
# Youngs Moduli (GPa) = 44.05593 37.56667 56.81458
#
# Poissons Ratio (x) = 0.46521 0.11392
# Poissons Ratio (y) = 0.54557 0.50288
# Poissons Ratio (z) = 0.08834 0.33251
#
# Static dielectric constant tensor:
#      x y z
#    x 1.568050 0.000000 0.000000 
#    y 0.000000 1.529850 0.000000 
#    z 0.000000 0.000000 1.571470 
# 
# From -- ./inp_files/41191.got.cif
#   From: 2010.05.17/outbox.cif.g08.bks.cpg/sg65_21_cif.got.tgz:41191.got - 2010.06.03 17:01:31.
