data_PCOD9483659
_publ_section_title
;
Structure prediction by ZEFSAII (Michael W. Deem and Ramdas Pophale) SiO2 
 PCOD9483659
Probable space group: C M M M
;
_chemical_formula_sum "Si O2"
_cell_formula_units_Z 56
_cell_length_a 38.381762
_cell_length_b 7.466070
_cell_length_c 10.670754
_cell_angle_alpha 90.000000
_cell_angle_beta 90.000000
_cell_angle_gamma 90.000000
_cell_volume 3057.821103
_symmetry_space_group_name_H-M "C M M M"
_symmetry_group_IT_number 65
_symmetry_cell_setting 'orthorhombic'
loop_
_space_group_symop_operation_xyz
x,y,z
-x,-y,z
x,-y,-z
-x,y,-z
-x,-y,-z
x,y,-z
-x,y,z
x,-y,z
1/2+x,1/2+y,z
1/2-x,1/2-y,z
1/2+x,1/2-y,-z
1/2-x,1/2+y,-z
1/2-x,1/2-y,-z
1/2+x,1/2+y,-z
1/2-x,1/2+y,z
1/2+x,1/2-y,z
loop_
_atom_site_type_symbol
_atom_site_label
_atom_site_fract_x
_atom_site_fract_y
_atom_site_fract_z
Si Si1 0.829478 0.218853 0.248771
Si Si2 0.209257 0.213952 0.000000
Si Si3 0.960544 0.500000 0.848272
Si Si4 0.403807 0.712330 0.850874
Si Si5 0.291299 0.714622 0.500000
O O1 0.808458 0.281722 0.126651
O O2 0.869750 0.267160 0.227500
O O3 0.810623 0.281042 0.374912
O O4 0.828635 0.000000 0.249397
O O5 0.250000 0.250000 0.000000
O O6 0.203874 0.000000 0.000000
O O7 0.937445 0.327175 0.814865
O O8 0.000000 0.500000 0.799737
O O9 0.962673 0.500000 0.000000
O O10 0.409516 0.500000 0.835761
O O11 0.396492 0.742548 0.000000
O O12 0.295020 0.500000 0.500000
O O13 0.250000 0.750000 0.500000
#
# Coordination Sequence:
#
# PCOD9483659 Si02
#       5
#    16   8   8  16   8
#     4   9  17  31  49  65  92 129 165 207 251 301
#     4  10  18  30  44  66  92 119 159 204 252 303
#     4   9  18  30  46  77 113 133 161 209 257 311
#     4   9  16  30  50  71  98 135 171 206 253 301
#     4  10  20  34  48  66  96 129 165 214 262 303
#
# _framework density 18.313693000000001
#
# number of rings (size 3 to 8) (size 9 to 14) (size 15 to 20)
#    0.000    2.714    1.429    0.857    0.000    0.571 
#    5.143    2.857    0.000    0.000    0.000    2.000 
#    0.000    5.714    0.000    0.000    0.000    0.000 
#
# Total GULP energy -156197.903047 kJ/mol
# GULP energy per Si atom -5578.496537 kJ/mol
# Density = 1.827201 g / cm^3
# Si number density = 18.313693 Si / 1000 Ang^3
#
#
#
# Elastic Constant Matrix: (Units=GPa)
#
#
# Indices 1 2 3 4 5 6 
#
# 1 204.3377 44.6606 84.8662 0.0000 0.0000 0.0000
# 2 44.6606 63.6967 28.9240 0.0000 0.0000 0.0000
# 3 84.8662 28.9240 121.6622 0.0000 0.0000 0.0000
# 4 0.0000 0.0000 0.0000 -2.9156 0.0000 0.0000
# 5 0.0000 0.0000 0.0000 0.0000 21.1451 0.0000
# 6 0.0000 0.0000 0.0000 0.0000 0.0000 27.0080
#
#
#
# Elastic Compliance Matrix: (Units=1/GPa)
#
#
# Indices 1 2 3 4 5 6 
#
# 1 0.007430 -0.003202 -0.004422 0.000000 0.000000 0.000000
# 2 -0.003202 0.018979 -0.002279 0.000000 0.000000 0.000000
# 3 -0.004422 -0.002279 0.011846 0.000000 0.000000 0.000000
# 4 0.000000 0.000000 0.000000 -0.342984 0.000000 0.000000
# 5 0.000000 0.000000 0.000000 0.000000 0.047292 0.000000
# 6 0.000000 0.000000 0.000000 0.000000 0.000000 0.037026
#
#
# Mechanical properties :
#
#
# Convention : Reuss Voigt Hill
#
# Bulk Modulus (GPa) = 54.19927 78.51091 66.35509
# Shear Modulus (GPa) = -25.71270 24.46388 -0.62441
#
# Velocity S-wave (km/s) = -3.75108 3.65886 -0.58455
# Velocity P-wave (km/s) = 3.30126 7.79826 5.98795
#
# Compressibility (1/GPa) = 0.01845043
#
# Stress axis : x y z
#
# Youngs Moduli (GPa) = 134.58810 52.68980 84.41939
#
# Poissons Ratio (x) = 0.16870 0.37328
# Poissons Ratio (y) = 0.43091 0.19237
# Poissons Ratio (z) = 0.59511 0.12006
#
# Static dielectric constant tensor:
#      x y z
#    x 1.670550 0.000000 0.000000 
#    y 0.000000 1.670780 0.000000 
#    z 0.000000 0.000000 1.623330 
# 
# From -- ./inp_files/20509.got.cif
#   From: 2010.05.17/outbox.cif.g08.bks.cpg/sg65_11_cif.got.tgz:20509.got - 2010.06.03 17:01:31.
