data_PCOD9483048
_publ_section_title
;
Structure prediction by ZEFSAII (Michael W. Deem and Ramdas Pophale) SiO2 
 PCOD9483048
Probable space group: C M M M
;
_chemical_formula_sum "Si O2"
_cell_formula_units_Z 40
_cell_length_a 16.170960
_cell_length_b 10.555742
_cell_length_c 9.817056
_cell_angle_alpha 90.000000
_cell_angle_beta 90.000000
_cell_angle_gamma 90.000000
_cell_volume 1675.736919
_symmetry_space_group_name_H-M "C M M M"
_symmetry_group_IT_number 65
_symmetry_cell_setting 'orthorhombic'
loop_
_space_group_symop_operation_xyz
x,y,z
-x,-y,z
x,-y,-z
-x,y,-z
-x,-y,-z
x,y,-z
-x,y,z
x,-y,z
1/2+x,1/2+y,z
1/2-x,1/2-y,z
1/2+x,1/2-y,-z
1/2-x,1/2+y,-z
1/2-x,1/2-y,-z
1/2+x,1/2+y,-z
1/2-x,1/2+y,z
1/2+x,1/2-y,z
loop_
_atom_site_type_symbol
_atom_site_label
_atom_site_fract_x
_atom_site_fract_y
_atom_site_fract_z
Si Si1 0.867531 0.856802 0.000000
Si Si2 0.650511 0.734790 0.706774
Si Si3 0.704459 0.000000 0.000000
Si Si4 0.372349 0.500000 0.500000
Si Si5 0.594890 0.000000 0.730210
O O1 0.885166 0.787139 0.140809
O O2 0.731292 0.615428 0.000000
O O3 0.902971 0.000000 0.000000
O O4 0.750000 0.750000 0.708665
O O5 0.629378 0.612455 0.617707
O O6 0.615964 0.868969 0.655854
O O7 0.651831 0.000000 0.135502
O O8 0.500000 0.000000 0.768795
#
# Coordination Sequence:
#
# PCOD9483048 Si02
#       5
#     8  16   4   4   8
#     4  10  18  38  73 105 133 177 225 279 345 399
#     4  12  22  44  69 103 136 183 227 282 343 407
#     4  10  17  40  68 106 133 178 220 280 345 408
#     4  12  26  40  71  96 129 182 246 282 316 404
#     4  12  26  41  67 106 142 172 225 294 346 396
#
# _framework density 23.870094000000002
#
# number of rings (size 3 to 8) (size 9 to 14) (size 15 to 20)
#    0.600    0.000    6.000    3.900    0.000    0.800 
#    0.000    4.000    0.000    1.200    0.000    0.000 
#    0.000    0.000    0.000    0.000    0.000    0.000 
#
# Total GULP energy -111382.787895 kJ/mol
# GULP energy per Si atom -5569.139395 kJ/mol
# Density = 2.381576 g / cm^3
# Si number density = 23.870094 Si / 1000 Ang^3
#
#
#
# Elastic Constant Matrix: (Units=GPa)
#
#
# Indices 1 2 3 4 5 6 
#
# 1 62.8488 12.9830 -6.3423 0.0000 0.0000 0.0000
# 2 12.9830 289.7830 79.9707 0.0000 0.0000 0.0000
# 3 -6.3423 79.9707 181.2967 0.0000 0.0000 0.0000
# 4 0.0000 0.0000 0.0000 -247.5805 0.0000 0.0000
# 5 0.0000 0.0000 0.0000 0.0000 -27.7231 0.0000
# 6 0.0000 0.0000 0.0000 0.0000 0.0000 9.7706
#
#
#
# Elastic Compliance Matrix: (Units=1/GPa)
#
#
# Indices 1 2 3 4 5 6 
#
# 1 0.016221 -0.001006 0.001011 0.000000 0.000000 0.000000
# 2 -0.001006 0.003992 -0.001796 0.000000 0.000000 0.000000
# 3 0.001011 -0.001796 0.006343 0.000000 0.000000 0.000000
# 4 0.000000 0.000000 0.000000 -0.004039 0.000000 0.000000
# 5 0.000000 0.000000 0.000000 0.000000 -0.036071 0.000000
# 6 0.000000 0.000000 0.000000 0.000000 0.000000 0.102348
#
#
# Mechanical properties :
#
#
# Convention : Reuss Voigt Hill
#
# Bulk Modulus (GPa) = 43.52593 78.57239 61.04916
# Shear Modulus (GPa) = 49.98327 -23.28547 13.34890
#
# Velocity S-wave (km/s) = 4.58096 -3.12670 2.36737
# Velocity P-wave (km/s) = 6.80105 4.46689 5.75358
#
# Compressibility (1/GPa) = 0.02297481
#
# Stress axis : x y z
#
# Youngs Moduli (GPa) = 61.64848 250.53128 157.64540
#
# Poissons Ratio (x) = 0.25198 -0.15940
# Poissons Ratio (y) = 0.06200 0.28311
# Poissons Ratio (z) = -0.06233 0.44992
#
# Static dielectric constant tensor:
#      x y z
#    x 1.899200 0.000000 0.000000 
#    y 0.000000 1.936480 0.000000 
#    z 0.000000 0.000000 1.889050 
# 
# From -- ./inp_files/27902.got.cif
#   From: 2010.05.17/outbox.cif.g08.bks.cpg/sg65_14_cif.got.tgz:27902.got - 2010.06.03 17:01:31.
