data_PCOD9483496
_publ_section_title
;
Structure prediction by ZEFSAII (Michael W. Deem and Ramdas Pophale) SiO2 
 PCOD9483496
Probable space group: C M M M
;
_chemical_formula_sum "Si O2"
_cell_formula_units_Z 72
_cell_length_a 24.116404
_cell_length_b 8.289034
_cell_length_c 22.316689
_cell_angle_alpha 90.000000
_cell_angle_beta 90.000000
_cell_angle_gamma 90.000000
_cell_volume 4461.143907
_symmetry_space_group_name_H-M "C M M M"
_symmetry_group_IT_number 65
_symmetry_cell_setting 'orthorhombic'
loop_
_space_group_symop_operation_xyz
x,y,z
-x,-y,z
x,-y,-z
-x,y,-z
-x,-y,-z
x,y,-z
-x,y,z
x,-y,z
1/2+x,1/2+y,z
1/2-x,1/2-y,z
1/2+x,1/2-y,-z
1/2-x,1/2+y,-z
1/2-x,1/2-y,-z
1/2+x,1/2+y,-z
1/2-x,1/2+y,z
1/2+x,1/2-y,z
loop_
_atom_site_type_symbol
_atom_site_label
_atom_site_fract_x
_atom_site_fract_y
_atom_site_fract_z
Si Si1 0.500000 0.683368 0.429506
Si Si2 0.064711 0.190208 0.729617
Si Si3 0.813073 0.808319 0.500000
Si Si4 0.384447 0.187553 0.612571
Si Si5 0.932420 0.000000 0.930185
Si Si6 0.067055 0.320375 0.139920
O O1 0.500000 0.500000 0.402527
O O2 0.500000 0.662627 0.500000
O O3 0.445420 0.779971 0.413500
O O4 0.108380 0.226432 0.676928
O O5 0.078025 0.286523 0.790012
O O6 0.000000 0.231297 0.712439
O O7 0.064964 0.000000 0.743278
O O8 0.750000 0.750000 0.500000
O O9 0.843144 0.749490 0.561011
O O10 0.815965 0.000000 0.500000
O O11 0.373892 0.000000 0.622423
O O12 0.913357 0.165158 0.897864
O O13 0.000000 0.000000 0.926424
O O14 0.917474 0.000000 0.000000
O O15 0.086962 0.500000 0.122538
O O16 0.000000 0.322080 0.133898
#
# Coordination Sequence:
#
# PCOD9483496 Si02
#       6
#     8  16   8  16   8  16
#     4  11  21  33  49  71 100 126 148 191 250 299
#     4  10  18  29  46  67  95 125 153 195 251 301
#     4  12  26  45  60  71  92 124 162 206 244 294
#     4  12  23  34  52  76  97 123 158 199 249 303
#     4   9  16  26  38  54  80 117 161 201 233 274
#     4   9  16  26  39  57  83 116 154 198 243 285
#
# _framework density 16.139358999999999
#
# number of rings (size 3 to 8) (size 9 to 14) (size 15 to 20)
#    0.000    1.556    3.333    4.000    0.000    1.778 
#    0.000    2.222    0.000    0.000    0.000    0.000 
#    0.000    0.000    0.000    0.000    0.000    1.111 
#
# Total GULP energy -200623.812277 kJ/mol
# GULP energy per Si atom -5572.883674 kJ/mol
# Density = 1.610262 g / cm^3
# Si number density = 16.139359 Si / 1000 Ang^3
#
#
#
# Elastic Constant Matrix: (Units=GPa)
#
#
# Indices 1 2 3 4 5 6 
#
# 1 50.4786 13.1157 18.8202 0.0000 0.0000 0.0000
# 2 13.1157 121.2373 46.1808 0.0000 0.0000 0.0000
# 3 18.8202 46.1808 92.6708 0.0000 0.0000 0.0000
# 4 0.0000 0.0000 0.0000 12.0090 0.0000 0.0000
# 5 0.0000 0.0000 0.0000 0.0000 1.1337 0.0000
# 6 0.0000 0.0000 0.0000 0.0000 0.0000 49.4302
#
#
#
# Elastic Compliance Matrix: (Units=1/GPa)
#
#
# Indices 1 2 3 4 5 6 
#
# 1 0.021499 -0.000818 -0.003959 0.000000 0.000000 0.000000
# 2 -0.000818 0.010212 -0.004923 0.000000 0.000000 0.000000
# 3 -0.003959 -0.004923 0.014048 0.000000 0.000000 0.000000
# 4 0.000000 0.000000 0.000000 0.083271 0.000000 0.000000
# 5 0.000000 0.000000 0.000000 0.000000 0.882085 0.000000
# 6 0.000000 0.000000 0.000000 0.000000 0.000000 0.020231
#
#
# Mechanical properties :
#
#
# Convention : Reuss Voigt Hill
#
# Bulk Modulus (GPa) = 37.93602 46.73557 42.33579
# Shear Modulus (GPa) = 4.71907 24.93258 14.82583
#
# Velocity S-wave (km/s) = 1.71181 3.93470 3.03415
# Velocity P-wave (km/s) = 5.24055 7.04719 6.20992
#
# Compressibility (1/GPa) = 0.02636017
#
# Stress axis : x y z
#
# Youngs Moduli (GPa) = 46.51431 97.92463 71.18445
#
# Poissons Ratio (x) = 0.08009 0.28178
# Poissons Ratio (y) = 0.03805 0.35043
# Poissons Ratio (z) = 0.18413 0.48207
#
# Static dielectric constant tensor:
#      x y z
#    x 1.493290 0.000000 0.000000 
#    y 0.000000 1.578680 0.000000 
#    z 0.000000 0.000000 1.577690 
# 
# From -- ./inp_files/64426.got.cif
#   From: 2010.05.17/outbox.cif.g08.bks.cpg/sg65_33_cif.got.tgz:64426.got - 2010.06.03 17:01:31.
