data_PCOD9483549
_publ_section_title
;
Structure prediction by ZEFSAII (Michael W. Deem and Ramdas Pophale) SiO2 
 PCOD9483549
Probable space group: C M M M
;
_chemical_formula_sum "Si O2"
_cell_formula_units_Z 112
_cell_length_a 19.258967
_cell_length_b 18.666008
_cell_length_c 19.147410
_cell_angle_alpha 90.000000
_cell_angle_beta 90.000000
_cell_angle_gamma 90.000000
_cell_volume 6883.264741
_symmetry_space_group_name_H-M "C M M M"
_symmetry_group_IT_number 65
_symmetry_cell_setting 'orthorhombic'
loop_
_space_group_symop_operation_xyz
x,y,z
-x,-y,z
x,-y,-z
-x,y,-z
-x,-y,-z
x,y,-z
-x,y,z
x,-y,z
1/2+x,1/2+y,z
1/2-x,1/2-y,z
1/2+x,1/2-y,-z
1/2-x,1/2+y,-z
1/2-x,1/2-y,-z
1/2+x,1/2+y,-z
1/2-x,1/2+y,z
1/2+x,1/2-y,z
loop_
_atom_site_type_symbol
_atom_site_label
_atom_site_fract_x
_atom_site_fract_y
_atom_site_fract_z
Si Si1 0.584483 0.233032 0.923093
Si Si2 0.083762 0.579332 0.870107
Si Si3 0.813228 0.084543 0.705373
Si Si4 0.081353 0.183514 0.784402
Si Si5 0.812905 0.804482 0.580817
Si Si6 0.580270 0.210197 0.652308
Si Si7 0.346572 0.918687 0.280960
O O1 0.500000 0.233055 0.921933
O O2 0.606278 0.150387 0.910996
O O3 0.605158 0.282339 0.857823
O O4 0.606926 0.257439 0.000000
O O5 0.105017 0.500000 0.896553
O O6 0.111427 0.586492 0.791308
O O7 0.000000 0.580182 0.868898
O O8 0.869251 0.120779 0.756547
O O9 0.814675 0.128051 0.632502
O O10 0.734681 0.094677 0.732979
O O11 0.825954 0.000000 0.696676
O O12 0.084689 0.245415 0.725218
O O13 0.000000 0.162053 0.789766
O O14 0.805604 0.824503 0.500000
O O15 0.750000 0.750000 0.599504
O O16 0.882538 0.759224 0.595127
O O17 0.500000 0.196486 0.637295
O O18 0.622467 0.137780 0.665178
O O19 0.353104 0.000000 0.307210
#
# Coordination Sequence:
#
# PCOD9483549 Si02
#       7
#    16  16  16  16  16  16  16
#     4   9  16  27  45  71 102 133 169 212 255 304
#     4   9  16  26  42  67 101 137 170 209 256 299
#     4  10  21  35  54  78 100 129 169 212 256 299
#     4   9  18  32  51  74  99 128 167 215 262 302
#     4  10  20  35  54  76 103 136 168 202 247 300
#     4  10  18  31  52  76 102 133 168 208 249 293
#     4  10  18  29  47  74 103 133 170 207 248 298
#
# _framework density 16.271349000000001
#
# number of rings (size 3 to 8) (size 9 to 14) (size 15 to 20)
#    0.000    2.429    2.857    0.429    0.000    2.000 
#    0.000    1.429    0.000    2.571    0.000    9.000 
#    0.000    0.000    0.000    0.000    0.000    0.000 
#
# Total GULP energy -311963.347331 kJ/mol
# GULP energy per Si atom -5570.774059 kJ/mol
# Density = 1.623431 g / cm^3
# Si number density = 16.271349 Si / 1000 Ang^3
#
#
#
# Elastic Constant Matrix: (Units=GPa)
#
#
# Indices 1 2 3 4 5 6 
#
# 1 53.1883 42.0846 8.4162 0.0000 0.0000 0.0000
# 2 42.0846 98.3523 39.7982 0.0000 0.0000 0.0000
# 3 8.4162 39.7982 69.5427 0.0000 0.0000 0.0000
# 4 0.0000 0.0000 0.0000 15.3808 0.0000 0.0000
# 5 0.0000 0.0000 0.0000 0.0000 14.0954 0.0000
# 6 0.0000 0.0000 0.0000 0.0000 0.0000 23.9390
#
#
#
# Elastic Compliance Matrix: (Units=1/GPa)
#
#
# Indices 1 2 3 4 5 6 
#
# 1 0.029593 -0.014593 0.004770 0.000000 0.000000 0.000000
# 2 -0.014593 0.020428 -0.009924 0.000000 0.000000 0.000000
# 3 0.004770 -0.009924 0.019482 0.000000 0.000000 0.000000
# 4 0.000000 0.000000 0.000000 0.065016 0.000000 0.000000
# 5 0.000000 0.000000 0.000000 0.000000 0.070945 0.000000
# 6 0.000000 0.000000 0.000000 0.000000 0.000000 0.041773
#
#
# Mechanical properties :
#
#
# Convention : Reuss Voigt Hill
#
# Bulk Modulus (GPa) = 33.32475 44.63124 38.97799
# Shear Modulus (GPa) = 16.85014 19.40199 18.12607
#
# Velocity S-wave (km/s) = 3.22152 3.45686 3.34126
# Velocity P-wave (km/s) = 5.86197 6.58954 6.23638
#
# Compressibility (1/GPa) = 0.03000773
#
# Stress axis : x y z
#
# Youngs Moduli (GPa) = 33.79219 48.95344 51.32954
#
# Poissons Ratio (x) = 0.71436 -0.24483
# Poissons Ratio (y) = 0.49312 0.50941
# Poissons Ratio (z) = -0.16118 0.48583
#
# Static dielectric constant tensor:
#      x y z
#    x 1.544350 0.000000 0.000000 
#    y 0.000000 1.549900 0.000000 
#    z 0.000000 0.000000 1.537350 
# 
# From -- ./inp_files/54898.got.cif
#   From: 2010.05.17/outbox.cif.g08.bks.cpg/sg65_28_cif.got.tgz:54898.got - 2010.06.03 17:01:31.
