data_PCOD9483630
_publ_section_title
;
Structure prediction by ZEFSAII (Michael W. Deem and Ramdas Pophale) SiO2 
 PCOD9483630
Probable space group: C M M M
;
_chemical_formula_sum "Si O2"
_cell_formula_units_Z 96
_cell_length_a 13.870586
_cell_length_b 21.941114
_cell_length_c 16.025823
_cell_angle_alpha 90.000000
_cell_angle_beta 90.000000
_cell_angle_gamma 90.000000
_cell_volume 4877.236610
_symmetry_space_group_name_H-M "C M M M"
_symmetry_group_IT_number 65
_symmetry_cell_setting 'orthorhombic'
loop_
_space_group_symop_operation_xyz
x,y,z
-x,-y,z
x,-y,-z
-x,y,-z
-x,-y,-z
x,y,-z
-x,y,z
x,-y,z
1/2+x,1/2+y,z
1/2-x,1/2-y,z
1/2+x,1/2-y,-z
1/2-x,1/2+y,-z
1/2-x,1/2-y,-z
1/2+x,1/2+y,-z
1/2-x,1/2+y,z
1/2+x,1/2-y,z
loop_
_atom_site_type_symbol
_atom_site_label
_atom_site_fract_x
_atom_site_fract_y
_atom_site_fract_z
Si Si1 0.882941 0.763536 0.592202
Si Si2 0.885522 0.368072 0.650145
Si Si3 0.799323 0.621665 0.826740
Si Si4 0.612119 0.000000 0.099976
Si Si5 0.611078 0.000000 0.400458
Si Si6 0.388573 0.331686 0.762518
Si Si7 0.609643 0.230512 0.907151
O O1 0.854122 0.785381 0.500000
O O2 0.850255 0.693373 0.605054
O O3 0.857863 0.803507 0.673203
O O4 0.000000 0.762147 0.593707
O O5 0.865458 0.360421 0.747683
O O6 0.845079 0.434962 0.626507
O O7 0.000000 0.370662 0.632470
O O8 0.836092 0.559285 0.864402
O O9 0.690452 0.620259 0.792897
O O10 0.816156 0.676187 0.891735
O O11 0.500000 0.000000 0.126102
O O12 0.615582 0.000000 0.000000
O O13 0.500000 0.000000 0.367911
O O14 0.607780 0.000000 0.500000
O O15 0.500000 0.352175 0.757522
O O16 0.384022 0.278580 0.832327
O O17 0.500000 0.205014 0.904313
O O18 0.622108 0.257190 0.000000
#
# Coordination Sequence:
#
# PCOD9483630 Si02
#       7
#    16  16  16   8   8  16  16
#     4   9  17  32  54  80 116 160 202 253 313 362
#     4  10  18  29  49  78 113 153 197 246 300 361
#     4  12  22  36  59  83 115 155 195 235 295 353
#     4  11  25  43  64  93 124 153 191 239 294 363
#     4   9  17  29  45  70 108 152 192 229 283 353
#     4  10  22  39  57  83 118 155 202 251 295 348
#     4  10  20  35  58  87 118 151 189 236 290 350
#
# _framework density 19.683277
#
# number of rings (size 3 to 8) (size 9 to 14) (size 15 to 20)
#    0.000    1.833    1.667    3.500    0.000    6.000 
#    0.000    2.917    0.000    0.500    0.000    0.000 
#    0.000    3.333    0.000    0.000    0.000    0.000 
#
# Total GULP energy -267936.097953 kJ/mol
# GULP energy per Si atom -5582.002041 kJ/mol
# Density = 1.963848 g / cm^3
# Si number density = 19.683277 Si / 1000 Ang^3
#
#
#
# Elastic Constant Matrix: (Units=GPa)
#
#
# Indices 1 2 3 4 5 6 
#
# 1 106.7949 40.0555 27.0361 0.0000 0.0000 0.0000
# 2 40.0555 47.9147 26.9499 0.0000 0.0000 0.0000
# 3 27.0361 26.9499 125.8489 0.0000 0.0000 0.0000
# 4 0.0000 0.0000 0.0000 16.9161 0.0000 0.0000
# 5 0.0000 0.0000 0.0000 0.0000 18.3403 0.0000
# 6 0.0000 0.0000 0.0000 0.0000 0.0000 9.0302
#
#
#
# Elastic Compliance Matrix: (Units=1/GPa)
#
#
# Indices 1 2 3 4 5 6 
#
# 1 0.013675 -0.011119 -0.000557 0.000000 0.000000 0.000000
# 2 -0.011119 0.032769 -0.004629 0.000000 0.000000 0.000000
# 3 -0.000557 -0.004629 0.009057 0.000000 0.000000 0.000000
# 4 0.000000 0.000000 0.000000 0.059115 0.000000 0.000000
# 5 0.000000 0.000000 0.000000 0.000000 0.054525 0.000000
# 6 0.000000 0.000000 0.000000 0.000000 0.000000 0.110740
#
#
# Mechanical properties :
#
#
# Convention : Reuss Voigt Hill
#
# Bulk Modulus (GPa) = 43.68279 52.07127 47.87703
# Shear Modulus (GPa) = 15.61917 21.29181 18.45549
#
# Velocity S-wave (km/s) = 2.82001 3.29252 3.06538
# Velocity P-wave (km/s) = 5.73100 6.40049 6.07497
#
# Compressibility (1/GPa) = 0.02289231
#
# Stress axis : x y z
#
# Youngs Moduli (GPa) = 73.12611 30.51677 110.41370
#
# Poissons Ratio (x) = 0.33931 0.06147
# Poissons Ratio (y) = 0.81308 0.51107
# Poissons Ratio (z) = 0.04071 0.14125
#
# Static dielectric constant tensor:
#      x y z
#    x 1.746610 0.000000 0.000000 
#    y 0.000000 1.685420 0.000000 
#    z 0.000000 0.000000 1.710040 
# 
# From -- ./inp_files/40443.got.cif
#   From: 2010.05.17/outbox.cif.g08.bks.cpg/sg65_21_cif.got.tgz:40443.got - 2010.06.03 17:01:31.
