data_PCOD9483778
_publ_section_title
;
Structure prediction by ZEFSAII (Michael W. Deem and Ramdas Pophale) SiO2 
 PCOD9483778
Probable space group: C M M M
;
_chemical_formula_sum "Si O2"
_cell_formula_units_Z 88
_cell_length_a 31.597497
_cell_length_b 10.884659
_cell_length_c 14.640958
_cell_angle_alpha 90.000000
_cell_angle_beta 90.000000
_cell_angle_gamma 90.000000
_cell_volume 5035.435112
_symmetry_space_group_name_H-M "C M M M"
_symmetry_group_IT_number 65
_symmetry_cell_setting 'orthorhombic'
loop_
_space_group_symop_operation_xyz
x,y,z
-x,-y,z
x,-y,-z
-x,y,-z
-x,-y,-z
x,y,-z
-x,y,z
x,-y,z
1/2+x,1/2+y,z
1/2-x,1/2-y,z
1/2+x,1/2-y,-z
1/2-x,1/2+y,-z
1/2-x,1/2-y,-z
1/2+x,1/2+y,-z
1/2-x,1/2+y,z
1/2+x,1/2-y,z
loop_
_atom_site_type_symbol
_atom_site_label
_atom_site_fract_x
_atom_site_fract_y
_atom_site_fract_z
Si Si1 0.548079 0.500000 0.610293
Si Si2 0.915213 0.261386 0.393447
Si Si3 0.321194 0.144761 0.601561
Si Si4 0.372398 0.851109 0.895423
Si Si5 0.046808 0.644063 0.783632
Si Si6 0.716554 0.146466 0.204114
O O1 0.500000 0.500000 0.645529
O O2 0.545642 0.500000 0.500000
O O3 0.572505 0.623399 0.634226
O O4 0.926580 0.281924 0.500000
O O5 0.865238 0.284400 0.385244
O O6 0.940459 0.344373 0.322362
O O7 0.304237 0.173569 0.500000
O O8 0.290818 0.162712 0.687132
O O9 0.332527 0.000000 0.602610
O O10 0.413869 0.804261 0.841908
O O11 0.328546 0.826272 0.843514
O O12 0.375176 0.000000 0.896532
O O13 0.371396 0.808437 0.000000
O O14 0.044390 0.500000 0.806276
O O15 0.000000 0.697917 0.799554
O O16 0.750000 0.250000 0.173762
O O17 0.726829 0.000000 0.187750
#
# Coordination Sequence:
#
# PCOD9483778 Si02
#       6
#     8  16  16  16  16  16
#     4   9  18  30  42  62  97 139 177 213 250 292
#     4  10  18  30  48  70  99 137 178 211 248 298
#     4   9  17  31  52  74 101 137 170 206 257 312
#     4   9  18  34  54  74 101 136 168 207 262 314
#     4  10  19  30  48  77 106 131 167 210 252 306
#     4  10  20  36  56  80 107 135 173 217 263 320
#
# _framework density 17.476147000000001
#
# number of rings (size 3 to 8) (size 9 to 14) (size 15 to 20)
#    0.000    2.455    1.818    1.091    0.000    3.273 
#    1.636    2.727    0.000    0.000    0.000    0.000 
#    0.000    2.182    0.000    0.000    0.000    0.000 
#
# Total GULP energy -244973.818983 kJ/mol
# GULP energy per Si atom -5567.586795 kJ/mol
# Density = 1.743637 g / cm^3
# Si number density = 17.476147 Si / 1000 Ang^3
#
#
#
# Elastic Constant Matrix: (Units=GPa)
#
#
# Indices 1 2 3 4 5 6 
#
# 1 101.9766 44.8316 43.2276 0.0000 0.0000 0.0000
# 2 44.8316 41.1885 16.8722 0.0000 0.0000 0.0000
# 3 43.2276 16.8722 80.1490 0.0000 0.0000 0.0000
# 4 0.0000 0.0000 0.0000 1.8505 0.0000 0.0000
# 5 0.0000 0.0000 0.0000 0.0000 6.7461 0.0000
# 6 0.0000 0.0000 0.0000 0.0000 0.0000 25.8988
#
#
#
# Elastic Compliance Matrix: (Units=1/GPa)
#
#
# Indices 1 2 3 4 5 6 
#
# 1 0.022352 -0.021220 -0.007588 0.000000 0.000000 0.000000
# 2 -0.021220 0.046716 0.001611 0.000000 0.000000 0.000000
# 3 -0.007588 0.001611 0.016230 0.000000 0.000000 0.000000
# 4 0.000000 0.000000 0.000000 0.540407 0.000000 0.000000
# 5 0.000000 0.000000 0.000000 0.000000 0.148233 0.000000
# 6 0.000000 0.000000 0.000000 0.000000 0.000000 0.038612
#
#
# Mechanical properties :
#
#
# Convention : Reuss Voigt Hill
#
# Bulk Modulus (GPa) = 32.35964 48.13077 40.24520
# Shear Modulus (GPa) = 5.69966 14.79127 10.24546
#
# Velocity S-wave (km/s) = 1.80789 2.91240 2.42390
# Velocity P-wave (km/s) = 4.78692 6.23779 5.55989
#
# Compressibility (1/GPa) = 0.03090269
#
# Stress axis : x y z
#
# Youngs Moduli (GPa) = 44.73910 21.40587 61.61333
#
# Poissons Ratio (x) = 0.45424 0.46753
# Poissons Ratio (y) = 0.94938 -0.09925
# Poissons Ratio (z) = 0.33949 -0.03448
#
# Static dielectric constant tensor:
#      x y z
#    x 1.605670 0.000000 0.000000 
#    y 0.000000 1.605280 0.000000 
#    z 0.000000 0.000000 1.616780 
# 
# From -- ./inp_files/46787.got.cif
#   From: 2010.05.17/outbox.cif.g08.bks.cpg/sg65_24_cif.got.tgz:46787.got - 2010.06.03 17:01:31.
