data_PCOD9483506
_publ_section_title
;
Structure prediction by ZEFSAII (Michael W. Deem and Ramdas Pophale) SiO2 
 PCOD9483506
Probable space group: C M M M
;
_chemical_formula_sum "Si O2"
_cell_formula_units_Z 120
_cell_length_a 19.275178
_cell_length_b 19.254643
_cell_length_c 19.591838
_cell_angle_alpha 90.000000
_cell_angle_beta 90.000000
_cell_angle_gamma 90.000000
_cell_volume 7271.249537
_symmetry_space_group_name_H-M "C M M M"
_symmetry_group_IT_number 65
_symmetry_cell_setting 'orthorhombic'
loop_
_space_group_symop_operation_xyz
x,y,z
-x,-y,z
x,-y,-z
-x,y,-z
-x,-y,-z
x,y,-z
-x,y,z
x,-y,z
1/2+x,1/2+y,z
1/2-x,1/2-y,z
1/2+x,1/2-y,-z
1/2-x,1/2+y,-z
1/2-x,1/2-y,-z
1/2+x,1/2+y,-z
1/2-x,1/2+y,z
1/2+x,1/2-y,z
loop_
_atom_site_type_symbol
_atom_site_label
_atom_site_fract_x
_atom_site_fract_y
_atom_site_fract_z
Si Si1 0.081395 0.344640 0.423462
Si Si2 0.923692 0.678466 0.819677
Si Si3 0.372224 0.079571 0.706582
Si Si4 0.176510 0.787742 0.248090
Si Si5 0.415824 0.419446 0.500000
Si Si6 0.581931 0.313779 0.380110
Si Si7 0.146408 0.420601 0.919932
Si Si8 0.759782 0.076936 0.804530
O O1 0.100890 0.365394 0.500000
O O2 0.125683 0.381450 0.365185
O O3 0.086202 0.261410 0.416436
O O4 0.000000 0.362523 0.412436
O O5 0.920161 0.622252 0.758520
O O6 0.866800 0.734766 0.798656
O O7 0.904247 0.636122 0.887452
O O8 0.000000 0.709352 0.823325
O O9 0.297595 0.080020 0.743842
O O10 0.394234 0.000000 0.699117
O O11 0.250000 0.750000 0.265040
O O12 0.131197 0.806568 0.314565
O O13 0.191329 0.858397 0.207681
O O14 0.392108 0.500000 0.500000
O O15 0.500000 0.420523 0.500000
O O16 0.396659 0.374686 0.567310
O O17 0.500000 0.323720 0.361855
O O18 0.120251 0.500000 0.909409
O O19 0.215930 0.415665 0.874294
O O20 0.158058 0.410633 0.000000
O O21 0.791758 0.000000 0.803243
#
# Coordination Sequence:
#
# PCOD9483506 Si02
#       8
#    16  16  16  16   8  16  16  16
#     4  10  18  29  46  69  98 133 170 209 255 308
#     4  11  21  33  52  80 111 141 178 223 269 319
#     4  10  19  32  50  72 101 137 176 216 264 315
#     4  12  20  34  56  80 103 142 184 219 262 327
#     4   9  18  34  55  78 101 129 173 230 291 341
#     4  10  19  33  54  77 101 131 171 223 273 323
#     4   9  18  34  56  82 113 148 182 213 257 319
#     4   9  19  36  55  76 105 141 179 222 265 313
#
# _framework density 16.503353000000001
#
# number of rings (size 3 to 8) (size 9 to 14) (size 15 to 20)
#    0.000    1.933    4.667    2.000    0.000    2.933 
#    0.000    3.000    1.467    1.200    0.000    0.000 
#    0.000    0.000    0.000   14.533    0.000    0.000 
#
# Total GULP energy -334457.084717 kJ/mol
# GULP energy per Si atom -5574.284745 kJ/mol
# Density = 1.646579 g / cm^3
# Si number density = 16.503353 Si / 1000 Ang^3
#
#
#
# Elastic Constant Matrix: (Units=GPa)
#
#
# Indices 1 2 3 4 5 6 
#
# 1 64.0086 44.1222 35.0829 0.0000 0.0000 0.0000
# 2 44.1222 111.6754 49.7179 0.0000 0.0000 0.0000
# 3 35.0829 49.7179 113.3449 0.0000 0.0000 0.0000
# 4 0.0000 0.0000 0.0000 23.2784 0.0000 0.0000
# 5 0.0000 0.0000 0.0000 0.0000 4.9353 0.0000
# 6 0.0000 0.0000 0.0000 0.0000 0.0000 24.1124
#
#
#
# Elastic Compliance Matrix: (Units=1/GPa)
#
#
# Indices 1 2 3 4 5 6 
#
# 1 0.022747 -0.007273 -0.003850 0.000000 0.000000 0.000000
# 2 -0.007273 0.013453 -0.003650 0.000000 0.000000 0.000000
# 3 -0.003850 -0.003650 0.011615 0.000000 0.000000 0.000000
# 4 0.000000 0.000000 0.000000 0.042958 0.000000 0.000000
# 5 0.000000 0.000000 0.000000 0.000000 0.202622 0.000000
# 6 0.000000 0.000000 0.000000 0.000000 0.000000 0.041472
#
#
# Mechanical properties :
#
#
# Convention : Reuss Voigt Hill
#
# Bulk Modulus (GPa) = 54.73872 60.76388 57.75130
# Shear Modulus (GPa) = 13.49514 21.13894 17.31704
#
# Velocity S-wave (km/s) = 2.86268 3.58283 3.24281
# Velocity P-wave (km/s) = 6.64582 7.34946 7.00648
#
# Compressibility (1/GPa) = 0.01826861
#
# Stress axis : x y z
#
# Youngs Moduli (GPa) = 43.96264 74.33342 86.09230
#
# Poissons Ratio (x) = 0.54061 0.33149
# Poissons Ratio (y) = 0.31973 0.31423
# Poissons Ratio (z) = 0.16928 0.27131
#
# Static dielectric constant tensor:
#      x y z
#    x 1.561130 0.000000 0.000000 
#    y 0.000000 1.569170 0.000000 
#    z 0.000000 0.000000 1.546080 
# 
# From -- ./inp_files/56101.got.cif
#   From: 2010.05.17/outbox.cif.g08.bks.cpg/sg65_29_cif.got.tgz:56101.got - 2010.06.03 17:01:31.
