data_PCOD9483369
_publ_section_title
;
Structure prediction by ZEFSAII (Michael W. Deem and Ramdas Pophale) SiO2 
 PCOD9483369
Probable space group: C M M M
;
_chemical_formula_sum "Si O2"
_cell_formula_units_Z 104
_cell_length_a 21.787805
_cell_length_b 12.736742
_cell_length_c 23.217102
_cell_angle_alpha 90.000000
_cell_angle_beta 90.000000
_cell_angle_gamma 90.000000
_cell_volume 6442.877006
_symmetry_space_group_name_H-M "C M M M"
_symmetry_group_IT_number 65
_symmetry_cell_setting 'orthorhombic'
loop_
_space_group_symop_operation_xyz
x,y,z
-x,-y,z
x,-y,-z
-x,y,-z
-x,-y,-z
x,y,-z
-x,y,z
x,-y,z
1/2+x,1/2+y,z
1/2-x,1/2-y,z
1/2+x,1/2-y,-z
1/2-x,1/2+y,-z
1/2-x,1/2-y,-z
1/2+x,1/2+y,-z
1/2-x,1/2+y,z
1/2+x,1/2-y,z
loop_
_atom_site_type_symbol
_atom_site_label
_atom_site_fract_x
_atom_site_fract_y
_atom_site_fract_z
Si Si1 0.428554 0.121245 0.910746
Si Si2 0.659808 0.378804 0.187383
Si Si3 0.821145 0.211995 0.936344
Si Si4 0.070381 0.307706 0.218792
Si Si5 0.070590 0.627574 0.564816
Si Si6 0.750000 0.250000 0.736774
Si Si7 0.146049 0.621303 0.324775
O O1 0.500000 0.151946 0.925751
O O2 0.373259 0.195763 0.932606
O O3 0.424398 0.129758 0.841282
O O4 0.420223 0.000000 0.928305
O O5 0.648499 0.500000 0.199693
O O6 0.667396 0.360319 0.119026
O O7 0.606868 0.300427 0.208906
O O8 0.719333 0.336010 0.221195
O O9 0.750000 0.250000 0.931849
O O10 0.827608 0.163288 0.000000
O O11 0.097945 0.370051 0.272317
O O12 0.000000 0.285155 0.229682
O O13 0.088719 0.659872 0.500000
O O14 0.070349 0.500000 0.565656
O O15 0.114600 0.660417 0.616467
O O16 0.000000 0.660644 0.574674
O O17 0.798851 0.306932 0.696591
O O18 0.164572 0.500000 0.332083
#
# Coordination Sequence:
#
# PCOD9483369 Si02
#       7
#    16  16  16  16  16   8  16
#     4   9  18  33  53  76 102 129 154 194 255 305
#     4  10  20  35  52  67  91 127 156 191 245 293
#     4  10  21  36  50  71  98 126 164 205 240 291
#     4   9  18  31  48  74  99 119 154 200 239 289
#     4   8  14  25  42  67  98 128 157 190 232 281
#     4  10  20  34  46  70  94 122 160 206 234 282
#     4  10  18  28  47  70  96 130 162 196 239 283
#
# _framework density 16.141857000000002
#
# number of rings (size 3 to 8) (size 9 to 14) (size 15 to 20)
#    0.000    2.615    0.769    1.846    0.000    3.385 
#    0.000    2.692    0.000    0.000    0.000    4.308 
#    0.000    5.538    0.000   49.385    0.000    3.846 
#
# Total GULP energy -289620.730309 kJ/mol
# GULP energy per Si atom -5569.629429 kJ/mol
# Density = 1.610512 g / cm^3
# Si number density = 16.141857 Si / 1000 Ang^3
#
#
#
# Elastic Constant Matrix: (Units=GPa)
#
#
# Indices 1 2 3 4 5 6 
#
# 1 84.2074 20.1431 43.4980 0.0000 0.0000 0.0000
# 2 20.1431 64.5168 20.7957 0.0000 0.0000 0.0000
# 3 43.4980 20.7957 112.4258 0.0000 0.0000 0.0000
# 4 0.0000 0.0000 0.0000 -3.6259 0.0000 0.0000
# 5 0.0000 0.0000 0.0000 0.0000 60.5702 0.0000
# 6 0.0000 0.0000 0.0000 0.0000 0.0000 11.3331
#
#
#
# Elastic Compliance Matrix: (Units=1/GPa)
#
#
# Indices 1 2 3 4 5 6 
#
# 1 0.015393 -0.003069 -0.005388 0.000000 0.000000 0.000000
# 2 -0.003069 0.017095 -0.001975 0.000000 0.000000 0.000000
# 3 -0.005388 -0.001975 0.011345 0.000000 0.000000 0.000000
# 4 0.000000 0.000000 0.000000 -0.275790 0.000000 0.000000
# 5 0.000000 0.000000 0.000000 0.000000 0.016510 0.000000
# 6 0.000000 0.000000 0.000000 0.000000 0.000000 0.088237
#
#
# Mechanical properties :
#
#
# Convention : Reuss Voigt Hill
#
# Bulk Modulus (GPa) = 43.53737 47.78039 45.65888
# Shear Modulus (GPa) = -50.66266 25.43635 -12.61316
#
# Velocity S-wave (km/s) = -5.60839 3.97394 -2.79838
# Velocity P-wave (km/s) = 3.86114 7.12186 4.23157
#
# Compressibility (1/GPa) = 0.02296878
#
# Stress axis : x y z
#
# Youngs Moduli (GPa) = 64.96578 58.49818 88.14809
#
# Poissons Ratio (x) = 0.17954 0.47492
# Poissons Ratio (y) = 0.19939 0.17405
# Poissons Ratio (z) = 0.35002 0.11551
#
# Static dielectric constant tensor:
#      x y z
#    x 1.552460 0.000000 0.000000 
#    y 0.000000 1.505440 0.000000 
#    z 0.000000 0.000000 1.549420 
# 
# From -- ./inp_files/71201.got.cif
#   From: 2010.05.17/outbox.cif.g08.bks.cpg/sg65_36_cif.got.tgz:71201.got - 2010.06.03 17:01:31.
