data_PCOD9483548
_publ_section_title
;
Structure prediction by ZEFSAII (Michael W. Deem and Ramdas Pophale) SiO2 
 PCOD9483548
Probable space group: C M M M
;
_chemical_formula_sum "Si O2"
_cell_formula_units_Z 104
_cell_length_a 7.550839
_cell_length_b 29.791675
_cell_length_c 23.790009
_cell_angle_alpha 90.000000
_cell_angle_beta 90.000000
_cell_angle_gamma 90.000000
_cell_volume 5351.613470
_symmetry_space_group_name_H-M "C M M M"
_symmetry_group_IT_number 65
_symmetry_cell_setting 'orthorhombic'
loop_
_space_group_symop_operation_xyz
x,y,z
-x,-y,z
x,-y,-z
-x,y,-z
-x,-y,-z
x,y,-z
-x,y,z
x,-y,z
1/2+x,1/2+y,z
1/2-x,1/2-y,z
1/2+x,1/2-y,-z
1/2-x,1/2+y,-z
1/2-x,1/2-y,-z
1/2+x,1/2+y,-z
1/2-x,1/2+y,z
1/2+x,1/2-y,z
loop_
_atom_site_type_symbol
_atom_site_label
_atom_site_fract_x
_atom_site_fract_y
_atom_site_fract_z
Si Si1 0.283623 0.105296 0.110681
Si Si2 0.288284 0.108138 0.670868
Si Si3 0.716477 0.051496 0.777726
Si Si4 0.287599 0.550442 0.436671
Si Si5 0.783211 0.448028 0.000000
Si Si6 0.212188 0.299906 0.719866
Si Si7 0.712043 0.199951 0.848907
O O1 0.500000 0.105090 0.109516
O O2 0.230154 0.079364 0.167359
O O3 0.225522 0.078555 0.055620
O O4 0.224965 0.157052 0.115973
O O5 0.500000 0.109631 0.676880
O O6 0.222705 0.075842 0.720905
O O7 0.254351 0.086539 0.610604
O O8 0.221631 0.158455 0.683025
O O9 0.500000 0.051408 0.777366
O O10 0.774103 0.000000 0.780370
O O11 0.223829 0.560729 0.500000
O O12 0.500000 0.548192 0.439293
O O13 0.223793 0.500000 0.421326
O O14 0.727204 0.500000 0.000000
O O15 0.000000 0.448404 0.000000
O O16 0.250000 0.250000 0.698346
O O17 0.279756 0.303109 0.784358
O O18 0.000000 0.303622 0.723239
O O19 0.500000 0.196037 0.845931
O O20 0.750000 0.250000 0.870411
#
# Coordination Sequence:
#
# PCOD9483548 Si02
#       7
#    16  16  16  16   8  16  16
#     4   9  15  25  39  58  88 123 154 189 232 276
#     4  10  18  29  47  73  97 118 153 199 240 279
#     4   9  15  23  38  61  89 118 146 183 235 284
#     4   9  19  35  51  68  96 133 164 188 222 273
#     4   9  16  24  37  60  89 123 161 193 226 277
#     4   9  17  29  45  67  95 123 154 191 235 286
#     4   9  16  28  45  64  90 121 152 188 233 281
#
# _framework density 19.433391
#
# number of rings (size 3 to 8) (size 9 to 14) (size 15 to 20)
#    0.000    2.846    1.538    1.385    0.000    3.692 
#    0.000    1.154    0.000    0.462    0.000    0.000 
#    0.000    2.462    0.000    0.000    0.000    0.308 
#
# Total GULP energy -290053.673172 kJ/mol
# GULP energy per Si atom -5577.955253 kJ/mol
# Density = 1.938916 g / cm^3
# Si number density = 19.433391 Si / 1000 Ang^3
#
#
#
# Elastic Constant Matrix: (Units=GPa)
#
#
# Indices 1 2 3 4 5 6 
#
# 1 43.7404 5.8604 1.8084 0.0000 0.0000 0.0000
# 2 5.8604 225.2413 107.7770 0.0000 0.0000 0.0000
# 3 1.8084 107.7770 124.2513 0.0000 0.0000 0.0000
# 4 0.0000 0.0000 0.0000 29.0673 0.0000 0.0000
# 5 0.0000 0.0000 0.0000 0.0000 5.7890 0.0000
# 6 0.0000 0.0000 0.0000 0.0000 0.0000 13.1672
#
#
#
# Elastic Compliance Matrix: (Units=1/GPa)
#
#
# Indices 1 2 3 4 5 6 
#
# 1 0.022949 -0.000748 0.000314 0.000000 0.000000 0.000000
# 2 -0.000748 0.007614 -0.006594 0.000000 0.000000 0.000000
# 3 0.000314 -0.006594 0.013763 0.000000 0.000000 0.000000
# 4 0.000000 0.000000 0.000000 0.034403 0.000000 0.000000
# 5 0.000000 0.000000 0.000000 0.000000 0.172742 0.000000
# 6 0.000000 0.000000 0.000000 0.000000 0.000000 0.075946
#
#
# Mechanical properties :
#
#
# Convention : Reuss Voigt Hill
#
# Bulk Modulus (GPa) = 33.03288 69.34717 51.19002
# Shear Modulus (GPa) = 14.22223 28.12384 21.17303
#
# Velocity S-wave (km/s) = 2.70820 3.80832 3.30437
# Velocity P-wave (km/s) = 5.17823 7.42292 6.39976
#
# Compressibility (1/GPa) = 0.03027287
#
# Stress axis : x y z
#
# Youngs Moduli (GPa) = 43.57427 131.33298 72.65776
#
# Poissons Ratio (x) = 0.09818 -0.02284
# Poissons Ratio (y) = 0.03257 0.47909
# Poissons Ratio (z) = -0.01370 0.86598
#
# Static dielectric constant tensor:
#      x y z
#    x 1.719930 0.000000 0.000000 
#    y 0.000000 1.690330 0.000000 
#    z 0.000000 0.000000 1.651770 
# 
# From -- ./inp_files/60911.got.cif
#   From: 2010.05.17/outbox.cif.g08.bks.cpg/sg65_31_cif.got.tgz:60911.got - 2010.06.03 17:01:31.
