data_PCOD9483919
_publ_section_title
;
Structure prediction by ZEFSAII (Michael W. Deem and Ramdas Pophale) SiO2 
 PCOD9483919
Probable space group: C M M M
;
_chemical_formula_sum "Si O2"
_cell_formula_units_Z 104
_cell_length_a 8.014671
_cell_length_b 29.732319
_cell_length_c 23.743750
_cell_angle_alpha 90.000000
_cell_angle_beta 90.000000
_cell_angle_gamma 90.000000
_cell_volume 5658.011086
_symmetry_space_group_name_H-M "C M M M"
_symmetry_group_IT_number 65
_symmetry_cell_setting 'orthorhombic'
loop_
_space_group_symop_operation_xyz
x,y,z
-x,-y,z
x,-y,-z
-x,y,-z
-x,-y,-z
x,y,-z
-x,y,z
x,-y,z
1/2+x,1/2+y,z
1/2-x,1/2-y,z
1/2+x,1/2-y,-z
1/2-x,1/2+y,-z
1/2-x,1/2-y,-z
1/2+x,1/2+y,-z
1/2-x,1/2+y,z
1/2+x,1/2-y,z
loop_
_atom_site_type_symbol
_atom_site_label
_atom_site_fract_x
_atom_site_fract_y
_atom_site_fract_z
Si Si1 0.298707 0.105279 0.110944
Si Si2 0.299094 0.108167 0.669637
Si Si3 0.704090 0.051666 0.777863
Si Si4 0.299094 0.550848 0.436137
Si Si5 0.698563 0.551188 0.000000
Si Si6 0.200883 0.299424 0.719885
Si Si7 0.299104 0.200507 0.850065
O O1 0.500000 0.106178 0.112793
O O2 0.241668 0.078845 0.166875
O O3 0.249966 0.078536 0.055380
O O4 0.240108 0.157054 0.115316
O O5 0.500000 0.109022 0.672324
O O6 0.240777 0.076431 0.720991
O O7 0.252240 0.086577 0.610412
O O8 0.238914 0.158675 0.682859
O O9 0.500000 0.051959 0.777882
O O10 0.758234 0.000000 0.779692
O O11 0.241774 0.560756 0.500000
O O12 0.500000 0.549709 0.437275
O O13 0.241179 0.500000 0.421318
O O14 0.767394 0.500000 0.000000
O O15 0.500000 0.548047 0.000000
O O16 0.250000 0.250000 0.699466
O O17 0.259783 0.304051 0.784929
O O18 0.000000 0.301413 0.721668
O O19 0.500000 0.199102 0.848802
O O20 0.250000 0.250000 0.870777
#
# Coordination Sequence:
#
# PCOD9483919 Si02
#       7
#    16  16  16  16   8  16  16
#     4  10  19  35  57  78  99 132 177 213 244 300
#     4  10  18  30  50  78 106 130 165 213 258 299
#     4   9  16  27  47  75 103 128 158 204 256 298
#     4   9  19  35  51  69 100 141 178 210 248 300
#     4  11  25  41  54  73 104 137 170 213 260 303
#     4   9  17  30  48  74 107 136 164 203 252 305
#     4   9  17  31  52  78 106 133 165 206 252 303
#
# _framework density 18.381018000000001
#
# number of rings (size 3 to 8) (size 9 to 14) (size 15 to 20)
#    0.000    2.538    1.538    1.615    0.000    3.692 
#    0.000    1.923    0.000    3.231    0.000    0.000 
#    0.000    0.000    0.000    0.000    0.000    0.000 
#
# Total GULP energy -290040.876798 kJ/mol
# GULP energy per Si atom -5577.709169 kJ/mol
# Density = 1.833918 g / cm^3
# Si number density = 18.381018 Si / 1000 Ang^3
#
#
#
# Elastic Constant Matrix: (Units=GPa)
#
#
# Indices 1 2 3 4 5 6 
#
# 1 12.0837 16.6921 8.0140 0.0000 0.0000 0.0000
# 2 16.6921 213.0025 100.3129 0.0000 0.0000 0.0000
# 3 8.0140 100.3129 117.1962 0.0000 0.0000 0.0000
# 4 0.0000 0.0000 0.0000 26.8625 0.0000 0.0000
# 5 0.0000 0.0000 0.0000 0.0000 -26.1774 0.0000
# 6 0.0000 0.0000 0.0000 0.0000 0.0000 23.0228
#
#
#
# Elastic Compliance Matrix: (Units=1/GPa)
#
#
# Indices 1 2 3 4 5 6 
#
# 1 0.092805 -0.007177 -0.000203 0.000000 0.000000 0.000000
# 2 -0.007177 0.008420 -0.006717 0.000000 0.000000 0.000000
# 3 -0.000203 -0.006717 0.014296 0.000000 0.000000 0.000000
# 4 0.000000 0.000000 0.000000 0.037227 0.000000 0.000000
# 5 0.000000 0.000000 0.000000 0.000000 -0.038201 0.000000
# 6 0.000000 0.000000 0.000000 0.000000 0.000000 0.043435
#
#
# Mechanical properties :
#
#
# Convention : Reuss Voigt Hill
#
# Bulk Modulus (GPa) = 11.45114 65.81338 38.63226
# Shear Modulus (GPa) = 23.22516 19.22583 21.22549
#
# Velocity S-wave (km/s) = 3.55849 3.23764 3.40185
# Velocity P-wave (km/s) = 4.80907 7.06111 6.04096
#
# Compressibility (1/GPa) = 0.08732754
#
# Stress axis : x y z
#
# Youngs Moduli (GPa) = 10.77530 118.75990 69.95199
#
# Poissons Ratio (x) = 0.85236 0.01419
# Poissons Ratio (y) = 0.07734 0.46983
# Poissons Ratio (z) = 0.00219 0.79765
#
# Static dielectric constant tensor:
#      x y z
#    x 1.667690 0.000000 0.000000 
#    y 0.000000 1.647680 0.000000 
#    z 0.000000 0.000000 1.606710 
# 
# From -- ./inp_files/60910.got.cif
#   From: 2010.05.17/outbox.cif.g08.bks.cpg/sg65_31_cif.got.tgz:60910.got - 2010.06.03 17:01:31.
