data_PCOD9483388
_publ_section_title
;
Structure prediction by ZEFSAII (Michael W. Deem and Ramdas Pophale) SiO2 
 PCOD9483388
Probable space group: C M M M
;
_chemical_formula_sum "Si O2"
_cell_formula_units_Z 116
_cell_length_a 28.504723
_cell_length_b 7.490158
_cell_length_c 29.203945
_cell_angle_alpha 90.000000
_cell_angle_beta 90.000000
_cell_angle_gamma 90.000000
_cell_volume 6235.184744
_symmetry_space_group_name_H-M "C M M M"
_symmetry_group_IT_number 65
_symmetry_cell_setting 'orthorhombic'
loop_
_space_group_symop_operation_xyz
x,y,z
-x,-y,z
x,-y,-z
-x,y,-z
-x,-y,-z
x,y,-z
-x,y,z
x,-y,z
1/2+x,1/2+y,z
1/2-x,1/2-y,z
1/2+x,1/2-y,-z
1/2-x,1/2+y,-z
1/2-x,1/2-y,-z
1/2+x,1/2+y,-z
1/2-x,1/2+y,z
1/2+x,1/2-y,z
loop_
_atom_site_type_symbol
_atom_site_label
_atom_site_fract_x
_atom_site_fract_y
_atom_site_fract_z
Si Si1 0.397758 0.292167 0.258986
Si Si2 0.803456 0.711705 0.785896
Si Si3 0.556235 0.714792 0.450742
Si Si4 0.054914 0.218277 0.350838
Si Si5 0.571237 0.500000 0.000000
Si Si6 0.445293 0.716252 0.166353
Si Si7 0.398693 0.794393 0.928990
Si Si8 0.696613 0.786931 0.109787
O O1 0.411565 0.500000 0.260150
O O2 0.342676 0.281676 0.248384
O O3 0.415296 0.218380 0.307354
O O4 0.422971 0.217155 0.213794
O O5 0.809554 0.500000 0.788021
O O6 0.750000 0.750000 0.772489
O O7 0.809713 0.783679 0.838093
O O8 0.574217 0.783130 0.500000
O O9 0.500000 0.744603 0.450457
O O10 0.562864 0.500000 0.451266
O O11 0.572501 0.779978 0.400947
O O12 0.000000 0.266737 0.345029
O O13 0.056147 0.000000 0.352240
O O14 0.573557 0.657324 0.039619
O O15 0.500000 0.760499 0.164561
O O16 0.440722 0.500000 0.164708
O O17 0.418838 0.790226 0.122337
O O18 0.344663 0.727415 0.923859
O O19 0.399631 0.000000 0.945153
O O20 0.750000 0.750000 0.095507
O O21 0.691397 0.000000 0.112329
#
# Coordination Sequence:
#
# PCOD9483388 Si02
#       8
#    16  16  16  16   4  16  16  16
#     4  10  18  28  47  74 105 137 165 203 250 300
#     4  10  19  32  49  74 100 127 162 199 238 295
#     4   7   9  14  26  46  78 124 173 216 254 290
#     4   8  13  21  34  58  94 134 175 213 250 295
#     4  12  26  44  67  84 110 146 162 222 259 298
#     4  10  20  35  56  81 106 136 173 208 249 303
#     4  11  23  42  63  86 109 138 174 210 257 308
#     4   9  19  33  57  82 104 131 165 200 241 303
#
# _framework density 18.604099000000001
#
# number of rings (size 3 to 8) (size 9 to 14) (size 15 to 20)
#    0.000    2.621    2.069    2.276    0.966    2.483 
#    0.000    1.034    0.000    2.069    0.000    0.000 
#    0.000    1.103    0.000    4.414    0.000    4.138 
#
# Total GULP energy -322878.786720 kJ/mol
# GULP energy per Si atom -5566.875633 kJ/mol
# Density = 1.856176 g / cm^3
# Si number density = 18.604099 Si / 1000 Ang^3
#
#
#
# Elastic Constant Matrix: (Units=GPa)
#
#
# Indices 1 2 3 4 5 6 
#
# 1 42.6445 -0.4114 11.6125 0.0000 0.0000 0.0000
# 2 -0.4114 70.1537 18.9950 0.0000 0.0000 0.0000
# 3 11.6125 18.9950 105.3364 0.0000 0.0000 0.0000
# 4 0.0000 0.0000 0.0000 -7.6086 0.0000 0.0000
# 5 0.0000 0.0000 0.0000 0.0000 7.0710 0.0000
# 6 0.0000 0.0000 0.0000 0.0000 0.0000 -22.1986
#
#
#
# Elastic Compliance Matrix: (Units=1/GPa)
#
#
# Indices 1 2 3 4 5 6 
#
# 1 0.024231 0.000910 -0.002835 0.000000 0.000000 0.000000
# 2 0.000910 0.015020 -0.002809 0.000000 0.000000 0.000000
# 3 -0.002835 -0.002809 0.010312 0.000000 0.000000 0.000000
# 4 0.000000 0.000000 0.000000 -0.131430 0.000000 0.000000
# 5 0.000000 0.000000 0.000000 0.000000 0.141422 0.000000
# 6 0.000000 0.000000 0.000000 0.000000 0.000000 -0.045048
#
#
# Mechanical properties :
#
#
# Convention : Reuss Voigt Hill
#
# Bulk Modulus (GPa) = 24.94102 30.94741 27.94421
# Shear Modulus (GPa) = 133.89952 7.98199 70.94075
#
# Velocity S-wave (km/s) = 8.49290 2.07359 6.18179
# Velocity P-wave (km/s) = 10.46937 4.73327 8.12440
#
# Compressibility (1/GPa) = 0.04009459
#
# Stress axis : x y z
#
# Youngs Moduli (GPa) = 41.27026 66.57660 96.96997
#
# Poissons Ratio (x) = -0.06057 0.27494
# Poissons Ratio (y) = -0.03755 0.27237
# Poissons Ratio (z) = 0.11701 0.18700
#
# Static dielectric constant tensor:
#      x y z
#    x 1.641490 0.000000 0.000000 
#    y 0.000000 1.645530 0.000000 
#    z 0.000000 0.000000 1.674780 
# 
# From -- ./inp_files/78496.got.cif
#   From: 2010.05.17/outbox.cif.g08.bks.cpg/sg65_40_cif.got.tgz:78496.got - 2010.06.03 17:01:31.
