data_PCOD9483278
_publ_section_title
;
Structure prediction by ZEFSAII (Michael W. Deem and Ramdas Pophale) SiO2 
 PCOD9483278
Probable space group: C M M M
;
_chemical_formula_sum "Si O2"
_cell_formula_units_Z 88
_cell_length_a 19.117849
_cell_length_b 30.171009
_cell_length_c 8.858808
_cell_angle_alpha 90.000000
_cell_angle_beta 90.000000
_cell_angle_gamma 90.000000
_cell_volume 5109.802926
_symmetry_space_group_name_H-M "C M M M"
_symmetry_group_IT_number 65
_symmetry_cell_setting 'orthorhombic'
loop_
_space_group_symop_operation_xyz
x,y,z
-x,-y,z
x,-y,-z
-x,y,-z
-x,-y,-z
x,y,-z
-x,y,z
x,-y,z
1/2+x,1/2+y,z
1/2-x,1/2-y,z
1/2+x,1/2-y,-z
1/2-x,1/2+y,-z
1/2-x,1/2-y,-z
1/2+x,1/2+y,-z
1/2-x,1/2+y,z
1/2+x,1/2-y,z
loop_
_atom_site_type_symbol
_atom_site_label
_atom_site_fract_x
_atom_site_fract_y
_atom_site_fract_z
Si Si1 0.355012 0.262674 0.177716
Si Si2 0.500000 0.837353 0.818727
Si Si3 0.704596 0.655921 0.322227
Si Si4 0.418907 0.401972 0.183483
Si Si5 0.000000 0.240922 0.321175
Si Si6 0.346046 0.843726 0.176451
Si Si7 0.584373 0.500000 0.828830
O O1 0.301287 0.293221 0.266393
O O2 0.430816 0.276562 0.240572
O O3 0.349936 0.209803 0.198174
O O4 0.348343 0.271605 0.000000
O O5 0.500000 0.793450 0.716348
O O6 0.574831 0.860319 0.791336
O O7 0.500000 0.824504 0.000000
O O8 0.696748 0.653584 0.500000
O O9 0.640591 0.630379 0.243689
O O10 0.780976 0.639008 0.271733
O O11 0.500000 0.392109 0.228066
O O12 0.399498 0.451956 0.238449
O O13 0.418188 0.402026 0.000000
O O14 0.000000 0.233075 0.500000
O O15 0.331240 0.851478 0.000000
O O16 0.500000 0.500000 0.839862
O O17 0.612870 0.500000 0.000000
#
# Coordination Sequence:
#
# PCOD9483278 Si02
#       7
#    16   8  16  16   8  16   8
#     4  10  20  34  49  62  84 124 167 204 243 287
#     4   8  16  32  52  68  84 113 154 197 236 284
#     4  12  24  32  43  68 101 128 156 198 243 286
#     4   9  18  34  55  75  96 126 162 200 241 287
#     4  10  18  28  44  66  88 111 148 197 242 286
#     4   9  18  34  52  68  87 119 163 204 244 289
#     4   7  12  28  55  79  93 114 157 202 237 281
#
# _framework density 17.221799000000001
#
# number of rings (size 3 to 8) (size 9 to 14) (size 15 to 20)
#    0.000    2.455    0.000    5.727    1.273    6.182 
#    0.000    0.455    0.000    1.636    0.000    0.000 
#    0.000    0.727    0.000    8.364    0.000    3.273 
#
# Total GULP energy -245141.623325 kJ/mol
# GULP energy per Si atom -5571.400530 kJ/mol
# Density = 1.718260 g / cm^3
# Si number density = 17.221799 Si / 1000 Ang^3
#
#
#
# Elastic Constant Matrix: (Units=GPa)
#
#
# Indices 1 2 3 4 5 6 
#
# 1 118.9890 16.0095 42.8740 0.0000 0.0000 0.0000
# 2 16.0095 37.1439 16.5858 0.0000 0.0000 0.0000
# 3 42.8740 16.5858 49.9077 0.0000 0.0000 0.0000
# 4 0.0000 0.0000 0.0000 -3.4252 0.0000 0.0000
# 5 0.0000 0.0000 0.0000 0.0000 -22.1915 0.0000
# 6 0.0000 0.0000 0.0000 0.0000 0.0000 10.0244
#
#
#
# Elastic Compliance Matrix: (Units=1/GPa)
#
#
# Indices 1 2 3 4 5 6 
#
# 1 0.012186 -0.000678 -0.010243 0.000000 0.000000 0.000000
# 2 -0.000678 0.031651 -0.009936 0.000000 0.000000 0.000000
# 3 -0.010243 -0.009936 0.032139 0.000000 0.000000 0.000000
# 4 0.000000 0.000000 0.000000 -0.291952 0.000000 0.000000
# 5 0.000000 0.000000 0.000000 0.000000 -0.045062 0.000000
# 6 0.000000 0.000000 0.000000 0.000000 0.000000 0.099756
#
#
# Mechanical properties :
#
#
# Convention : Reuss Voigt Hill
#
# Bulk Modulus (GPa) = 29.18768 39.66435 34.42602
# Shear Modulus (GPa) = -46.23384 5.58629 -20.32377
#
# Velocity S-wave (km/s) = -5.18694 1.80299 -3.43901
# Velocity P-wave (km/s) = 4.34599 5.23601 2.06497
#
# Compressibility (1/GPa) = 0.03426103
#
# Stress axis : x y z
#
# Youngs Moduli (GPa) = 82.05936 31.59421 31.11517
#
# Poissons Ratio (x) = 0.02144 0.31872
# Poissons Ratio (y) = 0.05568 0.30915
# Poissons Ratio (z) = 0.84056 0.31391
#
# Static dielectric constant tensor:
#      x y z
#    x 1.492650 0.000000 0.000000 
#    y 0.000000 1.601940 0.000000 
#    z 0.000000 0.000000 1.573340 
# 
# From -- ./inp_files/10206.got.cif
#   From: 2010.05.17/outbox.cif.g08.bks.cpg/sg65_6_cif.got.tgz:10206.got - 2010.06.03 17:01:31.
