data_PCOD9483513
_publ_section_title
;
Structure prediction by ZEFSAII (Michael W. Deem and Ramdas Pophale) SiO2 
 PCOD9483513
Probable space group: C M M M
;
_chemical_formula_sum "Si O2"
_cell_formula_units_Z 82
_cell_length_a 14.502759
_cell_length_b 11.427449
_cell_length_c 21.310706
_cell_angle_alpha 90.000000
_cell_angle_beta 90.000000
_cell_angle_gamma 90.000000
_cell_volume 3531.813478
_symmetry_space_group_name_H-M "C M M M"
_symmetry_group_IT_number 65
_symmetry_cell_setting 'orthorhombic'
loop_
_space_group_symop_operation_xyz
x,y,z
-x,-y,z
x,-y,-z
-x,y,-z
-x,-y,-z
x,y,-z
-x,y,z
x,-y,z
1/2+x,1/2+y,z
1/2-x,1/2-y,z
1/2+x,1/2-y,-z
1/2-x,1/2+y,-z
1/2-x,1/2-y,-z
1/2+x,1/2+y,-z
1/2-x,1/2+y,z
1/2+x,1/2-y,z
loop_
_atom_site_type_symbol
_atom_site_label
_atom_site_fract_x
_atom_site_fract_y
_atom_site_fract_z
Si Si1 0.351980 0.500000 0.367722
Si Si2 0.111617 0.631644 0.249277
Si Si3 0.646944 0.000000 0.574207
Si Si4 0.611279 0.500000 0.778236
Si Si5 0.602384 0.244447 0.000000
Si Si6 0.612464 0.722054 0.137164
Si Si7 0.144315 0.744331 0.377495
Si Si8 0.500000 0.000000 0.000000
O O1 0.247889 0.500000 0.393806
O O2 0.350711 0.500000 0.292039
O O3 0.394176 0.625272 0.388159
O O4 0.140047 0.500000 0.264164
O O5 0.141145 0.667962 0.179661
O O6 0.144263 0.719566 0.302897
O O7 0.000000 0.636055 0.250878
O O8 0.603121 0.875641 0.594689
O O9 0.655253 0.000000 0.500000
O O10 0.500000 0.500000 0.770470
O O11 0.635809 0.388326 0.820047
O O12 0.646525 0.278667 0.933887
O O13 0.578604 0.105756 0.000000
O O14 0.500000 0.303519 0.000000
O O15 0.500000 0.727979 0.132915
O O16 0.250000 0.750000 0.400502
#
# Coordination Sequence:
#
# PCOD9483513 Si02
#       8
#     8  16   8   8   8  16  16   2
#     4  10  20  32  53  81 109 137 178 222 267 317
#     4  10  19  30  51  79 110 143 181 227 279 331
#     4  10  22  40  60  81 109 138 173 220 273 329
#     4  10  18  29  46  71 106 143 176 216 269 326
#     4   8  16  25  38  62  94 137 178 224 268 318
#     4   9  17  27  42  67 101 141 178 219 274 322
#     4  10  20  35  55  81 111 140 180 220 269 325
#     4   8  16  24  40  50 100 132 188 228 268 316
#
# _framework density 23.217535000000002
#
# number of rings (size 3 to 8) (size 9 to 14) (size 15 to 20)
#    0.293    2.146    2.927    0.000    1.366    3.902 
#    0.000    1.951    0.000    1.463    0.000    6.146 
#    0.000    0.000    0.000    0.000    0.000    0.000 
#
# Total GULP energy -228491.231734 kJ/mol
# GULP energy per Si atom -5572.956872 kJ/mol
# Density = 2.316469 g / cm^3
# Si number density = 23.217535 Si / 1000 Ang^3
#
#
#
# Elastic Constant Matrix: (Units=GPa)
#
#
# Indices 1 2 3 4 5 6 
#
# 1 86.1753 17.4755 15.9120 0.0000 0.0000 0.0000
# 2 17.4755 194.5858 47.7639 0.0000 0.0000 0.0000
# 3 15.9120 47.7639 145.0078 0.0000 0.0000 0.0000
# 4 0.0000 0.0000 0.0000 12.8369 0.0000 0.0000
# 5 0.0000 0.0000 0.0000 0.0000 12.2869 0.0000
# 6 0.0000 0.0000 0.0000 0.0000 0.0000 0.0810
#
#
#
# Elastic Compliance Matrix: (Units=1/GPa)
#
#
# Indices 1 2 3 4 5 6 
#
# 1 0.011963 -0.000818 -0.001043 0.000000 0.000000 0.000000
# 2 -0.000818 0.005647 -0.001770 0.000000 0.000000 0.000000
# 3 -0.001043 -0.001770 0.007594 0.000000 0.000000 0.000000
# 4 0.000000 0.000000 0.000000 0.077901 0.000000 0.000000
# 5 0.000000 0.000000 0.000000 0.000000 0.081388 0.000000
# 6 0.000000 0.000000 0.000000 0.000000 0.000000 12.341078
#
#
# Mechanical properties :
#
#
# Convention : Reuss Voigt Hill
#
# Bulk Modulus (GPa) = 55.74080 65.34131 60.54106
# Shear Modulus (GPa) = 0.39876 28.01546 14.20711
#
# Velocity S-wave (km/s) = 0.41488 3.47746 2.47637
# Velocity P-wave (km/s) = 4.92846 6.65791 5.85737
#
# Compressibility (1/GPa) = 0.01794018
#
# Stress axis : x y z
#
# Youngs Moduli (GPa) = 83.59232 177.08013 131.68690
#
# Poissons Ratio (x) = 0.14491 0.13737
# Poissons Ratio (y) = 0.06840 0.23313
# Poissons Ratio (z) = 0.08720 0.31349
#
# Static dielectric constant tensor:
#      x y z
#    x 2.023690 0.000000 0.000000 
#    y 0.000000 1.908580 0.000000 
#    z 0.000000 0.000000 1.835070 
# 
# From -- ./inp_files/63590.got.cif
#   From: 2010.05.17/outbox.cif.g08.bks.cpg/sg65_32_cif.got.tgz:63590.got - 2010.06.03 17:01:31.
