data_PCOD9483386
_publ_section_title
;
Structure prediction by ZEFSAII (Michael W. Deem and Ramdas Pophale) SiO2 
 PCOD9483386
Probable space group: C M M M
;
_chemical_formula_sum "Si O2"
_cell_formula_units_Z 80
_cell_length_a 26.922382
_cell_length_b 15.141923
_cell_length_c 9.492377
_cell_angle_alpha 90.000000
_cell_angle_beta 90.000000
_cell_angle_gamma 90.000000
_cell_volume 3869.630468
_symmetry_space_group_name_H-M "C M M M"
_symmetry_group_IT_number 65
_symmetry_cell_setting 'orthorhombic'
loop_
_space_group_symop_operation_xyz
x,y,z
-x,-y,z
x,-y,-z
-x,y,-z
-x,-y,-z
x,y,-z
-x,y,z
x,-y,z
1/2+x,1/2+y,z
1/2-x,1/2-y,z
1/2+x,1/2-y,-z
1/2-x,1/2+y,-z
1/2-x,1/2-y,-z
1/2+x,1/2+y,-z
1/2-x,1/2+y,z
1/2+x,1/2-y,z
loop_
_atom_site_type_symbol
_atom_site_label
_atom_site_fract_x
_atom_site_fract_y
_atom_site_fract_z
Si Si1 0.297426 0.606019 0.842557
Si Si2 0.595998 0.144306 0.662410
Si Si3 0.500000 0.156719 0.169308
Si Si4 0.206434 0.604855 0.341580
Si Si5 0.107220 0.856496 0.657992
Si Si6 0.000000 0.842801 0.669113
O O1 0.291778 0.500000 0.851744
O O2 0.250462 0.640712 0.754429
O O3 0.348984 0.622478 0.763585
O O4 0.298358 0.642703 0.000000
O O5 0.588989 0.113550 0.500000
O O6 0.550107 0.117756 0.760821
O O7 0.650453 0.115933 0.713337
O O8 0.599103 0.250780 0.657303
O O9 0.500000 0.258111 0.227550
O O10 0.500000 0.152296 0.000000
O O11 0.207791 0.643374 0.500000
O O12 0.214715 0.500000 0.353544
O O13 0.121564 0.884611 0.500000
O O14 0.052097 0.892036 0.691458
O O15 0.000000 0.816472 0.500000
#
# Coordination Sequence:
#
# PCOD9483386 Si02
#       6
#    16  16   8  16  16   8
#     4  10  21  35  49  68  98 132 161 196 245 293
#     4   9  18  33  52  74 100 127 159 202 245 282
#     4  10  18  28  47  74 101 131 163 193 235 290
#     4   9  18  34  55  74  93 125 167 204 240 285
#     4   9  17  31  52  74  96 125 161 199 238 285
#     4   8  16  32  51  72  99 129 159 197 245 284
#
# _framework density 20.673808999999999
#
# number of rings (size 3 to 8) (size 9 to 14) (size 15 to 20)
#    0.000    2.800    0.000    2.700    0.000    6.000 
#    0.000    5.000    0.000    6.000    0.000    0.000 
#    0.000    0.000    0.000    0.000    0.000    0.000 
#
# Total GULP energy -223050.491824 kJ/mol
# GULP energy per Si atom -5576.262296 kJ/mol
# Density = 2.062675 g / cm^3
# Si number density = 20.673809 Si / 1000 Ang^3
#
#
#
# Elastic Constant Matrix: (Units=GPa)
#
#
# Indices 1 2 3 4 5 6 
#
# 1 225.0667 0.3403 130.6594 0.0000 0.0000 0.0000
# 2 0.3403 29.0630 1.7933 0.0000 0.0000 0.0000
# 3 130.6594 1.7933 134.0092 0.0000 0.0000 0.0000
# 4 0.0000 0.0000 0.0000 10.2356 0.0000 0.0000
# 5 0.0000 0.0000 0.0000 0.0000 0.3359 0.0000
# 6 0.0000 0.0000 0.0000 0.0000 0.0000 29.9977
#
#
#
# Elastic Compliance Matrix: (Units=1/GPa)
#
#
# Indices 1 2 3 4 5 6 
#
# 1 0.010245 0.000497 -0.009996 0.000000 0.000000 0.000000
# 2 0.000497 0.034461 -0.000946 0.000000 0.000000 0.000000
# 3 -0.009996 -0.000946 0.017221 0.000000 0.000000 0.000000
# 4 0.000000 0.000000 0.000000 0.097698 0.000000 0.000000
# 5 0.000000 0.000000 0.000000 0.000000 2.976711 0.000000
# 6 0.000000 0.000000 0.000000 0.000000 0.000000 0.033336
#
#
# Mechanical properties :
#
#
# Convention : Reuss Voigt Hill
#
# Bulk Modulus (GPa) = 24.36796 72.63611 48.50204
# Shear Modulus (GPa) = 1.56043 25.13691 13.34867
#
# Velocity S-wave (km/s) = 0.86973 3.49073 2.54378
# Velocity P-wave (km/s) = 3.58065 7.17339 5.66915
#
# Compressibility (1/GPa) = 0.04103750
#
# Stress axis : x y z
#
# Youngs Moduli (GPa) = 97.60497 29.01870 58.06898
#
# Poissons Ratio (x) = -0.01442 0.58045
# Poissons Ratio (y) = -0.04849 0.05491
# Poissons Ratio (z) = 0.97565 0.02744
#
# Static dielectric constant tensor:
#      x y z
#    x 1.761790 0.000000 0.000000 
#    y 0.000000 1.782940 0.000000 
#    z 0.000000 0.000000 1.720680 
# 
# From -- ./inp_files/9738.got.cif
#   From: 2010.05.17/outbox.cif.g08.bks.cpg/sg65_5_cif.got.tgz:9738.got - 2010.06.03 17:01:31.
