data_PCOD9483962
_publ_section_title
;
Structure prediction by ZEFSAII (Michael W. Deem and Ramdas Pophale) SiO2 
 PCOD9483962
Probable space group: C M M M
;
_chemical_formula_sum "Si O2"
_cell_formula_units_Z 104
_cell_length_a 29.718221
_cell_length_b 19.590402
_cell_length_c 8.064086
_cell_angle_alpha 90.000000
_cell_angle_beta 90.000000
_cell_angle_gamma 90.000000
_cell_volume 4694.845519
_symmetry_space_group_name_H-M "C M M M"
_symmetry_group_IT_number 65
_symmetry_cell_setting 'orthorhombic'
loop_
_space_group_symop_operation_xyz
x,y,z
-x,-y,z
x,-y,-z
-x,y,-z
-x,-y,-z
x,y,-z
-x,y,z
x,-y,z
1/2+x,1/2+y,z
1/2-x,1/2-y,z
1/2+x,1/2-y,-z
1/2-x,1/2+y,-z
1/2-x,1/2-y,-z
1/2+x,1/2+y,-z
1/2-x,1/2+y,z
1/2+x,1/2-y,z
loop_
_atom_site_type_symbol
_atom_site_label
_atom_site_fract_x
_atom_site_fract_y
_atom_site_fract_z
Si Si1 0.777955 0.818824 0.699246
Si Si2 0.797049 0.577360 0.297571
Si Si3 0.948909 0.500000 0.702491
Si Si4 0.450705 0.746289 0.190997
Si Si5 0.050060 0.902530 0.690915
Si Si6 0.650370 0.575329 0.194775
Si Si7 0.107630 0.368246 0.299447
O O1 0.779096 0.811710 0.500000
O O2 0.750000 0.750000 0.756541
O O3 0.745916 0.880675 0.754325
O O4 0.826565 0.853488 0.742650
O O5 0.797235 0.575681 0.500000
O O6 0.797917 0.500000 0.238551
O O7 0.841771 0.616906 0.246920
O O8 0.948925 0.500000 0.500000
O O9 0.922560 0.432411 0.753887
O O10 0.000000 0.500000 0.760053
O O11 0.500000 0.779591 0.216681
O O12 0.448727 0.679500 0.300925
O O13 0.412353 0.799506 0.229313
O O14 0.448126 0.723722 0.000000
O O15 0.051853 0.924178 0.500000
O O16 0.096432 0.923826 0.776487
O O17 0.000000 0.921624 0.758133
O O18 0.666316 0.500000 0.264200
O O19 0.659169 0.574430 0.000000
O O20 0.106355 0.364877 0.500000
#
# Coordination Sequence:
#
# PCOD9483962 Si02
#       7
#    16  16   8  16  16  16  16
#     4  10  22  39  63  95 126 161 211 269 322 371
#     4   9  17  32  54  81 114 152 196 253 314 368
#     4   9  16  26  43  71 105 141 193 255 304 355
#     4  10  21  36  53  78 116 158 197 243 306 374
#     4  10  22  41  67  97 126 160 207 260 312 371
#     4  11  25  44  66  95 134 176 213 254 315 386
#     4  10  18  30  51  77 105 145 199 253 308 366
#
# _framework density 22.151952999999999
#
# number of rings (size 3 to 8) (size 9 to 14) (size 15 to 20)
#    0.000    2.077    0.769    2.308    2.154    4.923 
#    0.000    2.692    0.000    2.308    0.000    0.000 
#    0.000    0.000    0.000    0.000    0.000    0.000 
#
# Total GULP energy -290004.289533 kJ/mol
# GULP energy per Si atom -5577.005568 kJ/mol
# Density = 2.210153 g / cm^3
# Si number density = 22.151953 Si / 1000 Ang^3
#
#
#
# Elastic Constant Matrix: (Units=GPa)
#
#
# Indices 1 2 3 4 5 6 
#
# 1 115.9037 39.1691 7.9911 0.0000 0.0000 0.0000
# 2 39.1691 120.5963 16.3038 0.0000 0.0000 0.0000
# 3 7.9911 16.3038 30.1281 0.0000 0.0000 0.0000
# 4 0.0000 0.0000 0.0000 8.6014 0.0000 0.0000
# 5 0.0000 0.0000 0.0000 0.0000 8.8360 0.0000
# 6 0.0000 0.0000 0.0000 0.0000 0.0000 27.6696
#
#
#
# Elastic Compliance Matrix: (Units=1/GPa)
#
#
# Indices 1 2 3 4 5 6 
#
# 1 0.009716 -0.003029 -0.000938 0.000000 0.000000 0.000000
# 2 -0.003029 0.009891 -0.004549 0.000000 0.000000 0.000000
# 3 -0.000938 -0.004549 0.035902 0.000000 0.000000 0.000000
# 4 0.000000 0.000000 0.000000 0.116261 0.000000 0.000000
# 5 0.000000 0.000000 0.000000 0.000000 0.113173 0.000000
# 6 0.000000 0.000000 0.000000 0.000000 0.000000 0.036141
#
#
# Mechanical properties :
#
#
# Convention : Reuss Voigt Hill
#
# Bulk Modulus (GPa) = 25.98940 43.72846 34.85893
# Shear Modulus (GPa) = 14.24740 22.56568 18.40654
#
# Velocity S-wave (km/s) = 2.53882 3.19513 2.88570
# Velocity P-wave (km/s) = 4.51132 5.77883 5.18396
#
# Compressibility (1/GPa) = 0.03847722
#
# Stress axis : x y z
#
# Youngs Moduli (GPa) = 102.92155 101.10279 27.85349
#
# Poissons Ratio (x) = 0.30624 0.02613
# Poissons Ratio (y) = 0.31174 0.12671
# Poissons Ratio (z) = 0.09654 0.45993
#
# Static dielectric constant tensor:
#      x y z
#    x 2.176070 0.000000 0.000000 
#    y 0.000000 1.862550 0.000000 
#    z 0.000000 0.000000 1.797520 
# 
# From -- ./inp_files/16458.got.cif
#   From: 2010.05.17/outbox.cif.g08.bks.cpg/sg65_9_cif.got.tgz:16458.got - 2010.06.03 17:01:31.
