data_PCOD9483884
_publ_section_title
;
Structure prediction by ZEFSAII (Michael W. Deem and Ramdas Pophale) SiO2 
 PCOD9483884
Probable space group: C M M M
;
_chemical_formula_sum "Si O2"
_cell_formula_units_Z 104
_cell_length_a 22.441778
_cell_length_b 13.789447
_cell_length_c 18.641500
_cell_angle_alpha 90.000000
_cell_angle_beta 90.000000
_cell_angle_gamma 90.000000
_cell_volume 5768.793153
_symmetry_space_group_name_H-M "C M M M"
_symmetry_group_IT_number 65
_symmetry_cell_setting 'orthorhombic'
loop_
_space_group_symop_operation_xyz
x,y,z
-x,-y,z
x,-y,-z
-x,y,-z
-x,-y,-z
x,y,-z
-x,y,z
x,-y,z
1/2+x,1/2+y,z
1/2-x,1/2-y,z
1/2+x,1/2-y,-z
1/2-x,1/2+y,-z
1/2-x,1/2-y,-z
1/2+x,1/2+y,-z
1/2-x,1/2+y,z
1/2+x,1/2-y,z
loop_
_atom_site_type_symbol
_atom_site_label
_atom_site_fract_x
_atom_site_fract_y
_atom_site_fract_z
Si Si1 0.376583 0.314620 0.662766
Si Si2 0.070009 0.000000 0.414119
Si Si3 0.158185 0.188959 0.918497
Si Si4 0.755082 0.107349 0.282509
Si Si5 0.431912 0.613814 0.798941
Si Si6 0.712408 0.886275 0.125602
Si Si7 0.805140 0.672907 0.420067
O O1 0.395454 0.406694 0.615468
O O2 0.312241 0.327566 0.701294
O O3 0.421473 0.318497 0.729312
O O4 0.364416 0.227130 0.608172
O O5 0.070965 0.000000 0.500000
O O6 0.000000 0.000000 0.390983
O O7 0.112993 0.145577 0.860891
O O8 0.222330 0.137671 0.906351
O O9 0.169060 0.304011 0.905405
O O10 0.138845 0.172558 0.000000
O O11 0.719171 0.132684 0.211099
O O12 0.715642 0.107289 0.354042
O O13 0.779398 0.000000 0.269008
O O14 0.500000 0.621612 0.822799
O O15 0.421352 0.500000 0.779111
O O16 0.697606 0.000000 0.114006
O O17 0.812192 0.631444 0.500000
O O18 0.750000 0.750000 0.425631
#
# Coordination Sequence:
#
# PCOD9483884 Si02
#       7
#    16   8  16  16  16  16  16
#     4  11  18  33  50  69  99 139 177 214 255 308
#     4  11  22  32  46  70  99 133 177 223 257 294
#     4  11  23  36  55  82 111 143 176 219 272 329
#     4  10  18  30  50  74 101 137 173 212 256 309
#     4  11  22  36  56  80 107 144 187 227 268 318
#     4  10  20  35  56  83 111 141 178 219 269 328
#     4   9  19  30  44  70 103 139 175 213 260 310
#
# _framework density 18.028034000000002
#
# number of rings (size 3 to 8) (size 9 to 14) (size 15 to 20)
#    0.000    1.615    3.077    3.231    4.308    3.385 
#    0.000    0.769    0.000    0.462    0.000    1.077 
#    0.000    1.846    0.000   12.462    0.000    0.000 
#
# Total GULP energy -289938.506126 kJ/mol
# GULP energy per Si atom -5575.740502 kJ/mol
# Density = 1.798700 g / cm^3
# Si number density = 18.028034 Si / 1000 Ang^3
#
#
#
# Elastic Constant Matrix: (Units=GPa)
#
#
# Indices 1 2 3 4 5 6 
#
# 1 57.3061 11.3002 10.4904 0.0000 0.0000 0.0000
# 2 11.3002 51.5144 2.0141 0.0000 0.0000 0.0000
# 3 10.4904 2.0141 100.5652 0.0000 0.0000 0.0000
# 4 0.0000 0.0000 0.0000 12.6404 0.0000 0.0000
# 5 0.0000 0.0000 0.0000 0.0000 3.4299 0.0000
# 6 0.0000 0.0000 0.0000 0.0000 0.0000 18.8164
#
#
#
# Elastic Compliance Matrix: (Units=1/GPa)
#
#
# Indices 1 2 3 4 5 6 
#
# 1 0.018580 -0.004003 -0.001858 0.000000 0.000000 0.000000
# 2 -0.004003 0.020290 0.000011 0.000000 0.000000 0.000000
# 3 -0.001858 0.000011 0.010137 0.000000 0.000000 0.000000
# 4 0.000000 0.000000 0.000000 0.079112 0.000000 0.000000
# 5 0.000000 0.000000 0.000000 0.000000 0.291554 0.000000
# 6 0.000000 0.000000 0.000000 0.000000 0.000000 0.053145
#
#
# Mechanical properties :
#
#
# Convention : Reuss Voigt Hill
#
# Bulk Modulus (GPa) = 26.80445 28.55502 27.67974
# Shear Modulus (GPa) = 10.06131 19.34940 14.70536
#
# Velocity S-wave (km/s) = 2.36496 3.27967 2.85913
# Velocity P-wave (km/s) = 4.72841 5.49684 5.12704
#
# Compressibility (1/GPa) = 0.03730723
#
# Stress axis : x y z
#
# Youngs Moduli (GPa) = 53.82243 49.28611 98.64472
#
# Poissons Ratio (x) = 0.19729 0.18328
# Poissons Ratio (y) = 0.21545 -0.00111
# Poissons Ratio (z) = 0.10000 -0.00055
#
# Static dielectric constant tensor:
#      x y z
#    x 1.604960 0.000000 0.000000 
#    y 0.000000 1.669340 0.000000 
#    z 0.000000 0.000000 1.655730 
# 
# From -- ./inp_files/56836.got.cif
#   From: 2010.05.17/outbox.cif.g08.bks.cpg/sg65_29_cif.got.tgz:56836.got - 2010.06.03 17:01:31.
