data_PCOD9483604
_publ_section_title
;
Structure prediction by ZEFSAII (Michael W. Deem and Ramdas Pophale) SiO2 
 PCOD9483604
Probable space group: C M M M
;
_chemical_formula_sum "Si O2"
_cell_formula_units_Z 88
_cell_length_a 24.345661
_cell_length_b 7.548624
_cell_length_c 23.683433
_cell_angle_alpha 90.000000
_cell_angle_beta 90.000000
_cell_angle_gamma 90.000000
_cell_volume 4352.452289
_symmetry_space_group_name_H-M "C M M M"
_symmetry_group_IT_number 65
_symmetry_cell_setting 'orthorhombic'
loop_
_space_group_symop_operation_xyz
x,y,z
-x,-y,z
x,-y,-z
-x,y,-z
-x,-y,-z
x,y,-z
-x,y,z
x,-y,z
1/2+x,1/2+y,z
1/2-x,1/2-y,z
1/2+x,1/2-y,-z
1/2-x,1/2+y,-z
1/2-x,1/2-y,-z
1/2+x,1/2+y,-z
1/2-x,1/2+y,z
1/2+x,1/2-y,z
loop_
_atom_site_type_symbol
_atom_site_label
_atom_site_fract_x
_atom_site_fract_y
_atom_site_fract_z
Si Si1 0.888450 0.211834 0.321924
Si Si2 0.314120 0.712273 0.777386
Si Si3 0.937918 0.712123 0.436508
Si Si4 0.185654 0.212129 0.000000
Si Si5 0.000000 0.215540 0.867532
Si Si6 0.621596 0.717263 0.889335
Si Si7 0.000000 0.783639 0.263517
O O1 0.839139 0.277960 0.282202
O O2 0.893972 0.247257 0.388247
O O3 0.945173 0.278615 0.294306
O O4 0.888492 0.000000 0.316724
O O5 0.319744 0.500000 0.777782
O O6 0.250000 0.750000 0.784055
O O7 0.350060 0.776018 0.830759
O O8 0.925244 0.775806 0.500000
O O9 0.941271 0.500000 0.438969
O O10 0.000000 0.777466 0.421546
O O11 0.250000 0.250000 0.000000
O O12 0.156499 0.277543 0.943087
O O13 0.179006 0.000000 0.000000
O O14 0.058047 0.273237 0.893093
O O15 0.000000 0.266642 0.801757
O O16 0.000000 0.000000 0.869653
O O17 0.621968 0.500000 0.888537
O O18 0.000000 0.000000 0.264998
#
# Coordination Sequence:
#
# PCOD9483604 Si02
#       7
#    16  16  16   8   8  16   8
#     4  10  18  29  49  73  95 124 163 201 238 284
#     4  10  20  33  49  71  97 127 164 204 244 288
#     4   9  18  31  46  69 103 135 157 184 233 293
#     4  10  20  33  49  71  97 130 171 206 238 284
#     4   9  14  25  46  71 101 128 150 195 256 296
#     4   9  17  29  47  72 100 127 159 201 248 294
#     4   9  14  24  43  70  98 123 150 189 246 294
#
# _framework density 20.218485999999999
#
# number of rings (size 3 to 8) (size 9 to 14) (size 15 to 20)
#    0.000    2.545    2.727    1.091    0.000    1.455 
#    0.000    2.727    0.000    0.545    0.000    2.545 
#    0.000    0.000    0.000    0.000    0.000    0.000 
#
# Total GULP energy -245474.762085 kJ/mol
# GULP energy per Si atom -5578.971866 kJ/mol
# Density = 2.017247 g / cm^3
# Si number density = 20.218486 Si / 1000 Ang^3
#
#
#
# Elastic Constant Matrix: (Units=GPa)
#
#
# Indices 1 2 3 4 5 6 
#
# 1 157.3943 1.1651 90.2310 0.0000 0.0000 0.0000
# 2 1.1651 47.0836 5.9490 0.0000 0.0000 0.0000
# 3 90.2310 5.9490 160.3865 0.0000 0.0000 0.0000
# 4 0.0000 0.0000 0.0000 737.8595 0.0000 0.0000
# 5 0.0000 0.0000 0.0000 0.0000 23.1776 0.0000
# 6 0.0000 0.0000 0.0000 0.0000 0.0000 16.4024
#
#
#
# Elastic Compliance Matrix: (Units=1/GPa)
#
#
# Indices 1 2 3 4 5 6 
#
# 1 0.009387 0.000437 -0.005297 0.000000 0.000000 0.000000
# 2 0.000437 0.021359 -0.001038 0.000000 0.000000 0.000000
# 3 -0.005297 -0.001038 0.009254 0.000000 0.000000 0.000000
# 4 0.000000 0.000000 0.000000 0.001355 0.000000 0.000000
# 5 0.000000 0.000000 0.000000 0.000000 0.043145 0.000000
# 6 0.000000 0.000000 0.000000 0.000000 0.000000 0.060967
#
#
# Mechanical properties :
#
#
# Convention : Reuss Voigt Hill
#
# Bulk Modulus (GPa) = 35.45700 62.17272 48.81486
# Shear Modulus (GPa) = 30.00042 173.32254 101.66148
#
# Velocity S-wave (km/s) = 3.85621 9.26881 7.09863
# Velocity P-wave (km/s) = 6.11572 12.05674 9.55948
#
# Compressibility (1/GPa) = 0.02820317
#
# Stress axis : x y z
#
# Youngs Moduli (GPa) = 106.53013 46.81832 108.06637
#
# Poissons Ratio (x) = -0.02046 0.57245
# Poissons Ratio (y) = -0.04656 0.11218
# Poissons Ratio (z) = 0.56431 0.04860
#
# Static dielectric constant tensor:
#      x y z
#    x 1.698760 0.000000 0.000000 
#    y 0.000000 1.784890 0.000000 
#    z 0.000000 0.000000 1.729500 
# 
# From -- ./inp_files/65237.got.cif
#   From: 2010.05.17/outbox.cif.g08.bks.cpg/sg65_33_cif.got.tgz:65237.got - 2010.06.03 17:01:31.
