data_PCOD9483544
_publ_section_title
;
Structure prediction by ZEFSAII (Michael W. Deem and Ramdas Pophale) SiO2 
 PCOD9483544
Probable space group: C M M M
;
_chemical_formula_sum "Si O2"
_cell_formula_units_Z 112
_cell_length_a 14.648651
_cell_length_b 30.011604
_cell_length_c 14.727628
_cell_angle_alpha 90.000000
_cell_angle_beta 90.000000
_cell_angle_gamma 90.000000
_cell_volume 6474.699924
_symmetry_space_group_name_H-M "C M M M"
_symmetry_group_IT_number 65
_symmetry_cell_setting 'orthorhombic'
loop_
_space_group_symop_operation_xyz
x,y,z
-x,-y,z
x,-y,-z
-x,y,-z
-x,-y,-z
x,y,-z
-x,y,z
x,-y,z
1/2+x,1/2+y,z
1/2-x,1/2-y,z
1/2+x,1/2-y,-z
1/2-x,1/2+y,-z
1/2-x,1/2-y,-z
1/2+x,1/2+y,-z
1/2-x,1/2+y,z
1/2+x,1/2-y,z
loop_
_atom_site_type_symbol
_atom_site_label
_atom_site_fract_x
_atom_site_fract_y
_atom_site_fract_z
Si Si1 0.109213 0.695053 0.213362
Si Si2 0.355981 0.762067 0.398770
Si Si3 0.606855 0.892005 0.106398
Si Si4 0.611171 0.627849 0.790493
Si Si5 0.218568 0.948459 0.892517
Si Si6 0.604649 0.661095 0.399179
Si Si7 0.611478 0.281808 0.104181
O O1 0.128273 0.703067 0.319156
O O2 0.139570 0.648986 0.168705
O O3 0.143620 0.738326 0.158781
O O4 0.000000 0.694860 0.202238
O O5 0.385473 0.775986 0.500000
O O6 0.250000 0.750000 0.401738
O O7 0.399342 0.713891 0.377209
O O8 0.500000 0.902248 0.125015
O O9 0.676648 0.932477 0.119275
O O10 0.611878 0.878307 0.000000
O O11 0.500000 0.625090 0.790864
O O12 0.654981 0.584849 0.836267
O O13 0.644643 0.635856 0.687129
O O14 0.636741 0.672319 0.846556
O O15 0.207083 0.000000 0.867415
O O16 0.197516 0.943714 0.000000
O O17 0.647290 0.656666 0.500000
O O18 0.500000 0.645923 0.406087
O O19 0.500000 0.280616 0.104023
O O20 0.641982 0.281099 0.000000
#
# Coordination Sequence:
#
# PCOD9483544 Si02
#       7
#    16  16  16  16  16  16  16
#     4  10  18  29  47  71  99 133 166 202 248 293
#     4  10  20  30  42  66 101 140 176 209 244 285
#     4   9  19  35  54  76 101 131 169 213 258 302
#     4  10  19  32  51  76 104 136 170 203 248 303
#     4  10  22  38  55  76 100 129 168 213 260 308
#     4   9  17  31  50  70  96 134 176 211 244 289
#     4   9  16  26  42  67 100 135 166 194 229 284
#
# _framework density 17.298099000000001
#
# number of rings (size 3 to 8) (size 9 to 14) (size 15 to 20)
#    0.000    2.429    1.429    1.286    2.000    4.000 
#    0.000    2.143    0.000    3.857    0.000    2.000 
#    0.000    0.000    0.000    4.429    0.000    0.286 
#
# Total GULP energy -312333.855681 kJ/mol
# GULP energy per Si atom -5577.390280 kJ/mol
# Density = 1.725873 g / cm^3
# Si number density = 17.298099 Si / 1000 Ang^3
#
#
#
# Elastic Constant Matrix: (Units=GPa)
#
#
# Indices 1 2 3 4 5 6 
#
# 1 34.1301 0.9153 2.7722 0.0000 0.0000 0.0000
# 2 0.9153 62.6286 34.9315 0.0000 0.0000 0.0000
# 3 2.7722 34.9315 91.5363 0.0000 0.0000 0.0000
# 4 0.0000 0.0000 0.0000 7.6987 0.0000 0.0000
# 5 0.0000 0.0000 0.0000 0.0000 15.4264 0.0000
# 6 0.0000 0.0000 0.0000 0.0000 0.0000 21.7835
#
#
#
# Elastic Compliance Matrix: (Units=1/GPa)
#
#
# Indices 1 2 3 4 5 6 
#
# 1 0.029372 0.000085 -0.000922 0.000000 0.000000 0.000000
# 2 0.000085 0.020285 -0.007744 0.000000 0.000000 0.000000
# 3 -0.000922 -0.007744 0.013908 0.000000 0.000000 0.000000
# 4 0.000000 0.000000 0.000000 0.129891 0.000000 0.000000
# 5 0.000000 0.000000 0.000000 0.000000 0.064824 0.000000
# 6 0.000000 0.000000 0.000000 0.000000 0.000000 0.045906
#
#
# Mechanical properties :
#
#
# Convention : Reuss Voigt Hill
#
# Bulk Modulus (GPa) = 21.55002 29.50366 25.52684
# Shear Modulus (GPa) = 14.84493 18.96014 16.90253
#
# Velocity S-wave (km/s) = 2.93265 3.31430 3.12930
# Velocity P-wave (km/s) = 4.89411 5.63376 5.27691
#
# Compressibility (1/GPa) = 0.04640366
#
# Stress axis : x y z
#
# Youngs Moduli (GPa) = 34.04572 49.29768 71.90310
#
# Poissons Ratio (x) = -0.00419 0.06629
# Poissons Ratio (y) = -0.00289 0.55679
# Poissons Ratio (z) = 0.03139 0.38174
#
# Static dielectric constant tensor:
#      x y z
#    x 1.611320 0.000000 0.000000 
#    y 0.000000 1.560700 0.000000 
#    z 0.000000 0.000000 1.621630 
# 
# From -- ./inp_files/41051.got.cif
#   From: 2010.05.17/outbox.cif.g08.bks.cpg/sg65_21_cif.got.tgz:41051.got - 2010.06.03 17:01:31.
