data_PCOD9483649
_publ_section_title
;
Structure prediction by ZEFSAII (Michael W. Deem and Ramdas Pophale) SiO2 
 PCOD9483649
Probable space group: C M M M
;
_chemical_formula_sum "Si O2"
_cell_formula_units_Z 112
_cell_length_a 16.146029
_cell_length_b 15.454130
_cell_length_c 21.824402
_cell_angle_alpha 90.000000
_cell_angle_beta 90.000000
_cell_angle_gamma 90.000000
_cell_volume 5445.686575
_symmetry_space_group_name_H-M "C M M M"
_symmetry_group_IT_number 65
_symmetry_cell_setting 'orthorhombic'
loop_
_space_group_symop_operation_xyz
x,y,z
-x,-y,z
x,-y,-z
-x,y,-z
-x,-y,-z
x,y,-z
-x,y,z
x,-y,z
1/2+x,1/2+y,z
1/2-x,1/2-y,z
1/2+x,1/2-y,-z
1/2-x,1/2+y,-z
1/2-x,1/2-y,-z
1/2+x,1/2+y,-z
1/2-x,1/2+y,z
1/2+x,1/2-y,z
loop_
_atom_site_type_symbol
_atom_site_label
_atom_site_fract_x
_atom_site_fract_y
_atom_site_fract_z
Si Si1 0.223069 0.904989 0.566210
Si Si2 0.088200 0.784024 0.393886
Si Si3 0.407486 0.134713 0.213884
Si Si4 0.378776 0.905251 0.356032
Si Si5 0.232648 0.852305 0.168210
Si Si6 0.590761 0.664646 0.747998
Si Si7 0.907088 0.895817 0.071196
O O1 0.267997 0.902300 0.500000
O O2 0.161927 0.825297 0.569324
O O3 0.283427 0.900928 0.623833
O O4 0.181119 0.000000 0.568939
O O5 0.087527 0.680804 0.387700
O O6 0.097655 0.819201 0.324266
O O7 0.000000 0.813578 0.418306
O O8 0.500000 0.107824 0.192846
O O9 0.394049 0.102418 0.283598
O O10 0.325634 0.109561 0.175031
O O11 0.410260 0.239326 0.221603
O O12 0.408206 0.000000 0.376465
O O13 0.250000 0.750000 0.172074
O O14 0.171804 0.879856 0.224044
O O15 0.172717 0.867943 0.110214
O O16 0.500000 0.624055 0.760072
O O17 0.000000 0.865781 0.091975
O O18 0.908891 0.000000 0.073566
O O19 0.898509 0.870012 0.000000
#
# Coordination Sequence:
#
# PCOD9483649 Si02
#       7
#    16  16  16  16  16  16  16
#     4  10  22  39  57  76  99 133 179 225 268 320
#     4  10  20  34  54  79 108 139 168 208 268 330
#     4   9  18  31  48  75 111 145 172 206 260 324
#     4  10  20  35  56  79 104 138 180 221 261 311
#     4  10  18  29  52  81 108 139 179 225 269 312
#     4   8  15  29  48  74 108 140 171 211 263 321
#     4   9  19  36  55  75 104 143 183 223 269 319
#
# _framework density 20.566735999999999
#
# number of rings (size 3 to 8) (size 9 to 14) (size 15 to 20)
#    0.000    2.571    0.000    3.429    0.000    6.571 
#    0.000    1.429    0.000    2.571    0.000   10.000 
#    0.000    0.000    0.000    0.000    0.000    0.000 
#
# Total GULP energy -311831.845062 kJ/mol
# GULP energy per Si atom -5568.425805 kJ/mol
# Density = 2.051993 g / cm^3
# Si number density = 20.566736 Si / 1000 Ang^3
#
#
#
# Elastic Constant Matrix: (Units=GPa)
#
#
# Indices 1 2 3 4 5 6 
#
# 1 185.8566 33.3023 54.7701 0.0000 0.0000 0.0000
# 2 33.3023 37.2442 6.3486 0.0000 0.0000 0.0000
# 3 54.7701 6.3486 55.8105 0.0000 0.0000 0.0000
# 4 0.0000 0.0000 0.0000 -0.2669 0.0000 0.0000
# 5 0.0000 0.0000 0.0000 0.0000 -4.2820 0.0000
# 6 0.0000 0.0000 0.0000 0.0000 0.0000 12.9951
#
#
#
# Elastic Compliance Matrix: (Units=1/GPa)
#
#
# Indices 1 2 3 4 5 6 
#
# 1 0.008925 -0.006616 -0.008006 0.000000 0.000000 0.000000
# 2 -0.006616 0.032285 0.002820 0.000000 0.000000 0.000000
# 3 -0.008006 0.002820 0.025454 0.000000 0.000000 0.000000
# 4 0.000000 0.000000 0.000000 -3.747355 0.000000 0.000000
# 5 0.000000 0.000000 0.000000 0.000000 -0.233536 0.000000
# 6 0.000000 0.000000 0.000000 0.000000 0.000000 0.076952
#
#
# Mechanical properties :
#
#
# Convention : Reuss Voigt Hill
#
# Bulk Modulus (GPa) = 23.22349 51.97256 37.59803
# Shear Modulus (GPa) = -1.31603 13.98860 6.33629
#
# Velocity S-wave (km/s) = -0.80079 2.61081 1.75714
# Velocity P-wave (km/s) = 3.23439 5.86630 4.73681
#
# Compressibility (1/GPa) = 0.04305986
#
# Stress axis : x y z
#
# Youngs Moduli (GPa) = 112.04036 30.97434 39.28639
#
# Poissons Ratio (x) = 0.20492 0.31454
# Poissons Ratio (y) = 0.74125 -0.11079
# Poissons Ratio (z) = 0.89704 -0.08735
#
# Static dielectric constant tensor:
#      x y z
#    x 1.800970 0.000000 0.000000 
#    y 0.000000 1.750270 0.000000 
#    z 0.000000 0.000000 1.718870 
# 
# From -- ./inp_files/69999.got.cif
#   From: 2010.05.17/outbox.cif.g08.bks.cpg/sg65_35_cif.got.tgz:69999.got - 2010.06.03 17:01:31.
