data_PCOD9483132
_publ_section_title
;
Structure prediction by ZEFSAII (Michael W. Deem and Ramdas Pophale) SiO2 
 PCOD9483132
Probable space group: C M M M
;
_chemical_formula_sum "Si O2"
_cell_formula_units_Z 80
_cell_length_a 19.682459
_cell_length_b 26.431588
_cell_length_c 10.610012
_cell_angle_alpha 90.000000
_cell_angle_beta 90.000000
_cell_angle_gamma 90.000000
_cell_volume 5519.738289
_symmetry_space_group_name_H-M "C M M M"
_symmetry_group_IT_number 65
_symmetry_cell_setting 'orthorhombic'
loop_
_space_group_symop_operation_xyz
x,y,z
-x,-y,z
x,-y,-z
-x,y,-z
-x,-y,-z
x,y,-z
-x,y,z
x,-y,z
1/2+x,1/2+y,z
1/2-x,1/2-y,z
1/2+x,1/2-y,-z
1/2-x,1/2+y,-z
1/2-x,1/2-y,-z
1/2+x,1/2+y,-z
1/2-x,1/2+y,z
1/2+x,1/2-y,z
loop_
_atom_site_type_symbol
_atom_site_label
_atom_site_fract_x
_atom_site_fract_y
_atom_site_fract_z
Si Si1 0.576610 0.059040 0.151953
Si Si2 0.424729 0.767631 0.252782
Si Si3 0.732572 0.688116 0.000000
Si Si4 0.360874 0.732376 0.500000
Si Si5 0.317219 0.857583 0.768069
Si Si6 0.232582 0.665820 0.500000
Si Si7 0.575578 0.298643 0.000000
O O1 0.500000 0.075062 0.193094
O O2 0.638089 0.093386 0.199540
O O3 0.584829 0.000000 0.186111
O O4 0.576971 0.062272 0.000000
O O5 0.500000 0.788579 0.271872
O O6 0.404508 0.734367 0.373342
O O7 0.371333 0.812197 0.240511
O O8 0.423899 0.735613 0.125198
O O9 0.750000 0.750000 0.000000
O O10 0.765920 0.661557 0.877130
O O11 0.651391 0.677902 0.000000
O O12 0.308854 0.686401 0.500000
O O13 0.315504 0.783927 0.500000
O O14 0.282916 0.862158 0.630881
O O15 0.500000 0.324946 0.000000
#
# Coordination Sequence:
#
# PCOD9483132 Si02
#       7
#    16  16   8   8  16   8   8
#     4   9  18  33  51  72  97 124 159 206 253 289
#     4  10  18  27  41  61  88 120 159 194 226 272
#     4  12  20  30  47  69  92 124 166 202 233 286
#     4   9  17  30  40  56  83 127 155 192 230 276
#     4  11  19  31  47  69  91 123 163 201 237 286
#     4   9  20  28  43  59  90 118 156 197 242 275
#     4  10  20  30  40  62  91 119 152 196 235 265
#
# _framework density 14.493441000000001
#
# number of rings (size 3 to 8) (size 9 to 14) (size 15 to 20)
#    0.000    2.000    3.000    2.700    2.800    0.000 
#    0.000    2.000    0.000    1.200    0.000    0.000 
#    0.000    1.600    0.000    0.000    0.000   17.800 
#
# Total GULP energy -222690.194786 kJ/mol
# GULP energy per Si atom -5567.254870 kJ/mol
# Density = 1.446045 g / cm^3
# Si number density = 14.493441 Si / 1000 Ang^3
#
#
#
# Elastic Constant Matrix: (Units=GPa)
#
#
# Indices 1 2 3 4 5 6 
#
# 1 113.9107 32.2401 46.3767 0.0000 0.0000 0.0000
# 2 32.2401 47.3829 30.6959 0.0000 0.0000 0.0000
# 3 46.3767 30.6959 111.9398 0.0000 0.0000 0.0000
# 4 0.0000 0.0000 0.0000 -817.0296 0.0000 0.0000
# 5 0.0000 0.0000 0.0000 0.0000 25.4722 0.0000
# 6 0.0000 0.0000 0.0000 0.0000 0.0000 26.1288
#
#
#
# Elastic Compliance Matrix: (Units=1/GPa)
#
#
# Indices 1 2 3 4 5 6 
#
# 1 0.011776 -0.005900 -0.003261 0.000000 0.000000 0.000000
# 2 -0.005900 0.028620 -0.005404 0.000000 0.000000 0.000000
# 3 -0.003261 -0.005404 0.011766 0.000000 0.000000 0.000000
# 4 0.000000 0.000000 0.000000 -0.001224 0.000000 0.000000
# 5 0.000000 0.000000 0.000000 0.000000 0.039259 0.000000
# 6 0.000000 0.000000 0.000000 0.000000 0.000000 0.038272
#
#
# Mechanical properties :
#
#
# Convention : Reuss Voigt Hill
#
# Bulk Modulus (GPa) = 43.41653 54.65098 49.03375
# Shear Modulus (GPa) = 30.25234 -142.15767 -55.95266
#
# Velocity S-wave (km/s) = 4.57367 -9.91449 -6.22007
# Velocity P-wave (km/s) = 7.61001 9.65782 4.20483
#
# Compressibility (1/GPa) = 0.02303270
#
# Stress axis : x y z
#
# Youngs Moduli (GPa) = 84.91539 34.94068 84.98939
#
# Poissons Ratio (x) = 0.20616 0.27715
# Poissons Ratio (y) = 0.50103 0.45925
# Poissons Ratio (z) = 0.27691 0.18881
#
# Static dielectric constant tensor:
#      x y z
#    x 1.509210 0.000000 0.000000 
#    y 0.000000 1.452210 0.000000 
#    z 0.000000 0.000000 1.498080 
# 
# From -- ./inp_files/27328.got.cif
#   From: 2010.05.17/outbox.cif.g08.bks.cpg/sg65_14_cif.got.tgz:27328.got - 2010.06.03 17:01:31.
