data_PCOD9483881
_publ_section_title
;
Structure prediction by ZEFSAII (Michael W. Deem and Ramdas Pophale) SiO2 
 PCOD9483881
Probable space group: C M M M
;
_chemical_formula_sum "Si O2"
_cell_formula_units_Z 80
_cell_length_a 28.744771
_cell_length_b 20.628861
_cell_length_c 7.903132
_cell_angle_alpha 90.000000
_cell_angle_beta 90.000000
_cell_angle_gamma 90.000000
_cell_volume 4686.335083
_symmetry_space_group_name_H-M "C M M M"
_symmetry_group_IT_number 65
_symmetry_cell_setting 'orthorhombic'
loop_
_space_group_symop_operation_xyz
x,y,z
-x,-y,z
x,-y,-z
-x,y,-z
-x,-y,-z
x,y,-z
-x,y,z
x,-y,z
1/2+x,1/2+y,z
1/2-x,1/2-y,z
1/2+x,1/2-y,-z
1/2-x,1/2+y,-z
1/2-x,1/2-y,-z
1/2+x,1/2+y,-z
1/2-x,1/2+y,z
1/2+x,1/2-y,z
loop_
_atom_site_type_symbol
_atom_site_label
_atom_site_fract_x
_atom_site_fract_y
_atom_site_fract_z
Si Si1 0.714470 0.304912 0.301843
Si Si2 0.226753 0.427348 0.204181
Si Si3 0.878736 0.608398 0.803399
Si Si4 0.447044 0.262908 0.500000
Si Si5 0.946342 0.604912 0.500000
Si Si6 0.384304 0.735206 0.186557
O O1 0.705605 0.291381 0.500000
O O2 0.750000 0.250000 0.237123
O O3 0.740282 0.372930 0.280974
O O4 0.665470 0.298463 0.209662
O O5 0.240031 0.500000 0.254138
O O6 0.172532 0.415760 0.247169
O O7 0.229500 0.421874 0.000000
O O8 0.917398 0.586368 0.668369
O O9 0.876745 0.686960 0.798746
O O10 0.887933 0.589564 0.000000
O O11 0.500000 0.285011 0.500000
O O12 0.447442 0.183925 0.500000
O O13 0.419151 0.284085 0.665617
O O14 0.000000 0.582798 0.500000
O O15 0.403256 0.722295 0.000000
#
# Coordination Sequence:
#
# PCOD9483881 Si02
#       6
#    16  16  16   8   8  16
#     4  11  21  31  51  77 105 138 173 213 256 305
#     4  10  21  35  50  72 103 138 174 213 256 304
#     4   9  18  31  49  70  96 131 170 211 256 305
#     4   9  18  32  46  70 105 131 163 213 263 307
#     4   9  18  30  48  70  94 124 165 218 268 309
#     4  10  18  30  50  74 100 133 173 210 252 304
#
# _framework density 17.070910000000001
#
# number of rings (size 3 to 8) (size 9 to 14) (size 15 to 20)
#    0.000    2.200    3.000    0.600    1.400    2.000 
#    0.000    4.000    0.000    1.200    0.000    2.800 
#    0.000    1.600    0.000    4.200    0.000    0.200 
#
# Total GULP energy -223242.933913 kJ/mol
# GULP energy per Si atom -5581.073348 kJ/mol
# Density = 1.703206 g / cm^3
# Si number density = 17.070910 Si / 1000 Ang^3
#
#
#
# Elastic Constant Matrix: (Units=GPa)
#
#
# Indices 1 2 3 4 5 6 
#
# 1 106.5206 30.8037 56.1111 0.0000 0.0000 0.0000
# 2 30.8037 51.2590 20.6069 0.0000 0.0000 0.0000
# 3 56.1111 20.6069 95.1750 0.0000 0.0000 0.0000
# 4 0.0000 0.0000 0.0000 -1.7171 0.0000 0.0000
# 5 0.0000 0.0000 0.0000 0.0000 9.0387 0.0000
# 6 0.0000 0.0000 0.0000 0.0000 0.0000 4.7374
#
#
#
# Elastic Compliance Matrix: (Units=1/GPa)
#
#
# Indices 1 2 3 4 5 6 
#
# 1 0.015151 -0.006040 -0.007625 0.000000 0.000000 0.000000
# 2 -0.006040 0.023776 -0.001587 0.000000 0.000000 0.000000
# 3 -0.007625 -0.001587 0.015346 0.000000 0.000000 0.000000
# 4 0.000000 0.000000 0.000000 -0.582362 0.000000 0.000000
# 5 0.000000 0.000000 0.000000 0.000000 0.110635 0.000000
# 6 0.000000 0.000000 0.000000 0.000000 0.000000 0.211088
#
#
# Mechanical properties :
#
#
# Convention : Reuss Voigt Hill
#
# Bulk Modulus (GPa) = 42.06985 51.99980 47.03482
# Shear Modulus (GPa) = -29.77246 12.10731 -8.83257
#
# Velocity S-wave (km/s) = -4.18071 2.66604 -2.27712
# Velocity P-wave (km/s) = 1.18035 6.32489 4.54958
#
# Compressibility (1/GPa) = 0.02376999
#
# Stress axis : x y z
#
# Youngs Moduli (GPa) = 66.00359 42.05867 65.16462
#
# Poissons Ratio (x) = 0.25401 0.49685
# Poissons Ratio (y) = 0.39863 0.10344
# Poissons Ratio (z) = 0.50325 0.06676
#
# Static dielectric constant tensor:
#      x y z
#    x 1.550080 0.000000 0.000000 
#    y 0.000000 1.558270 0.000000 
#    z 0.000000 0.000000 1.607530 
# 
# From -- ./inp_files/11572.got.cif
#   From: 2010.05.17/outbox.cif.g08.bks.cpg/sg65_6_cif.got.tgz:11572.got - 2010.06.03 17:01:31.
