data_PCOD9483510
_publ_section_title
;
Structure prediction by ZEFSAII (Michael W. Deem and Ramdas Pophale) SiO2 
 PCOD9483510
Probable space group: C M M M
;
_chemical_formula_sum "Si O2"
_cell_formula_units_Z 88
_cell_length_a 27.804378
_cell_length_b 8.805004
_cell_length_c 22.068071
_cell_angle_alpha 90.000000
_cell_angle_beta 90.000000
_cell_angle_gamma 90.000000
_cell_volume 5402.653492
_symmetry_space_group_name_H-M "C M M M"
_symmetry_group_IT_number 65
_symmetry_cell_setting 'orthorhombic'
loop_
_space_group_symop_operation_xyz
x,y,z
-x,-y,z
x,-y,-z
-x,y,-z
-x,-y,-z
x,y,-z
-x,y,z
x,-y,z
1/2+x,1/2+y,z
1/2-x,1/2-y,z
1/2+x,1/2-y,-z
1/2-x,1/2+y,-z
1/2-x,1/2-y,-z
1/2+x,1/2+y,-z
1/2-x,1/2+y,z
1/2+x,1/2-y,z
loop_
_atom_site_type_symbol
_atom_site_label
_atom_site_fract_x
_atom_site_fract_y
_atom_site_fract_z
Si Si1 0.098240 0.683246 0.931191
Si Si2 0.198739 0.318254 0.873370
Si Si3 0.196507 0.817673 0.500000
Si Si4 0.353237 0.817844 0.749815
Si Si5 0.803947 0.817336 0.367173
Si Si6 0.445184 0.681462 0.812116
O O1 0.094189 0.500000 0.924419
O O2 0.153839 0.723578 0.916212
O O3 0.066303 0.761869 0.880121
O O4 0.085952 0.723415 0.000000
O O5 0.202684 0.500000 0.874526
O O6 0.250000 0.250000 0.889671
O O7 0.182401 0.272915 0.805288
O O8 0.250000 0.750000 0.500000
O O9 0.175776 0.774767 0.565792
O O10 0.199760 0.000000 0.500000
O O11 0.335098 0.747552 0.687466
O O12 0.405602 0.759525 0.769589
O O13 0.353249 0.000000 0.746492
O O14 0.750000 0.750000 0.362495
O O15 0.801346 0.000000 0.362970
O O16 0.500000 0.720344 0.796157
O O17 0.439459 0.500000 0.809293
#
# Coordination Sequence:
#
# PCOD9483510 Si02
#       6
#    16  16   8  16  16  16
#     4   9  19  35  51  68  93 124 157 191 230 283
#     4   9  18  30  44  64  91 122 155 190 226 268
#     4   8  16  28  42  64  97 136 171 200 230 269
#     4  10  20  33  49  70  95 125 161 198 238 286
#     4  10  18  29  46  70 102 137 170 201 234 273
#     4  10  21  36  53  73  95 117 147 194 247 294
#
# _framework density 16.288292999999999
#
# number of rings (size 3 to 8) (size 9 to 14) (size 15 to 20)
#    0.000    2.545    0.000    3.273    0.000    8.364 
#    0.000    1.818    0.000    0.000    0.000    0.636 
#    0.000    5.091    0.000    0.000    0.000    0.000 
#
# Total GULP energy -245295.654183 kJ/mol
# GULP energy per Si atom -5574.901231 kJ/mol
# Density = 1.625122 g / cm^3
# Si number density = 16.288293 Si / 1000 Ang^3
#
#
#
# Elastic Constant Matrix: (Units=GPa)
#
#
# Indices 1 2 3 4 5 6 
#
# 1 60.9381 20.1663 21.5650 0.0000 0.0000 0.0000
# 2 20.1663 31.8559 28.6409 0.0000 0.0000 0.0000
# 3 21.5650 28.6409 110.9759 0.0000 0.0000 0.0000
# 4 0.0000 0.0000 0.0000 23.8691 0.0000 0.0000
# 5 0.0000 0.0000 0.0000 0.0000 9.0739 0.0000
# 6 0.0000 0.0000 0.0000 0.0000 0.0000 25.7621
#
#
#
# Elastic Compliance Matrix: (Units=1/GPa)
#
#
# Indices 1 2 3 4 5 6 
#
# 1 0.020819 -0.012425 -0.000839 0.000000 0.000000 0.000000
# 2 -0.012425 0.048292 -0.010049 0.000000 0.000000 0.000000
# 3 -0.000839 -0.010049 0.011767 0.000000 0.000000 0.000000
# 4 0.000000 0.000000 0.000000 0.041895 0.000000 0.000000
# 5 0.000000 0.000000 0.000000 0.000000 0.110206 0.000000
# 6 0.000000 0.000000 0.000000 0.000000 0.000000 0.038817
#
#
# Mechanical properties :
#
#
# Convention : Reuss Voigt Hill
#
# Bulk Modulus (GPa) = 29.19498 38.27936 33.73717
# Shear Modulus (GPa) = 15.15892 20.63420 17.89656
#
# Velocity S-wave (km/s) = 3.05399 3.56309 3.31832
# Velocity P-wave (km/s) = 5.51349 6.36236 5.95308
#
# Compressibility (1/GPa) = 0.03425246
#
# Stress axis : x y z
#
# Youngs Moduli (GPa) = 48.03356 20.70749 84.98072
#
# Poissons Ratio (x) = 0.25729 0.07129
# Poissons Ratio (y) = 0.59682 0.85395
# Poissons Ratio (z) = 0.04029 0.20808
#
# Static dielectric constant tensor:
#      x y z
#    x 1.523450 0.000000 0.000000 
#    y 0.000000 1.546700 0.000000 
#    z 0.000000 0.000000 1.564470 
# 
# From -- ./inp_files/65762.got.cif
#   From: 2010.05.17/outbox.cif.g08.bks.cpg/sg65_33_cif.got.tgz:65762.got - 2010.06.03 17:01:31.
