data_PCOD9483860
_publ_section_title
;
Structure prediction by ZEFSAII (Michael W. Deem and Ramdas Pophale) SiO2 
 PCOD9483860
Probable space group: C M M M
;
_chemical_formula_sum "Si O2"
_cell_formula_units_Z 120
_cell_length_a 18.585542
_cell_length_b 15.046903
_cell_length_c 23.085364
_cell_angle_alpha 90.000000
_cell_angle_beta 90.000000
_cell_angle_gamma 90.000000
_cell_volume 6455.933953
_symmetry_space_group_name_H-M "C M M M"
_symmetry_group_IT_number 65
_symmetry_cell_setting 'orthorhombic'
loop_
_space_group_symop_operation_xyz
x,y,z
-x,-y,z
x,-y,-z
-x,y,-z
-x,-y,-z
x,y,-z
-x,y,z
x,-y,z
1/2+x,1/2+y,z
1/2-x,1/2-y,z
1/2+x,1/2-y,-z
1/2-x,1/2+y,-z
1/2-x,1/2-y,-z
1/2+x,1/2+y,-z
1/2-x,1/2+y,z
1/2+x,1/2-y,z
loop_
_atom_site_type_symbol
_atom_site_label
_atom_site_fract_x
_atom_site_fract_y
_atom_site_fract_z
Si Si1 0.690709 0.820018 0.262942
Si Si2 0.085544 0.898140 0.000000
Si Si3 0.206093 0.602312 0.854499
Si Si4 0.868779 0.109103 0.126327
Si Si5 0.693609 0.398328 0.660712
Si Si6 0.418684 0.391826 0.567462
Si Si7 0.419964 0.108885 0.933051
Si Si8 0.582956 0.329454 0.249735
O O1 0.750000 0.750000 0.239386
O O2 0.687377 0.892675 0.213174
O O3 0.731506 0.853245 0.320389
O O4 0.616287 0.767025 0.266030
O O5 0.107846 0.860574 0.062326
O O6 0.000000 0.901157 0.000000
O O7 0.114468 0.000000 0.000000
O O8 0.209825 0.500000 0.872711
O O9 0.285769 0.635857 0.866011
O O10 0.142134 0.644075 0.891578
O O11 0.909571 0.149994 0.181508
O O12 0.876747 0.000000 0.129797
O O13 0.709488 0.500000 0.647425
O O14 0.645509 0.358955 0.608614
O O15 0.638635 0.392610 0.715452
O O16 0.407970 0.369326 0.500000
O O17 0.500000 0.363497 0.584459
O O18 0.418461 0.500000 0.571571
O O19 0.500000 0.139112 0.916270
O O20 0.421200 0.000000 0.930544
O O21 0.407129 0.132366 0.000000
O O22 0.500000 0.340249 0.266906
#
# Coordination Sequence:
#
# PCOD9483860 Si02
#       8
#    16   8  16  16  16  16  16  16
#     4  10  20  34  47  65  99 132 163 202 249 298
#     4   9  18  30  44  67  99 125 150 199 262 320
#     4  10  18  30  50  70  88 116 156 203 249 297
#     4  10  19  31  50  75  97 123 163 208 259 316
#     4  10  18  31  53  79 104 134 172 211 248 293
#     4   8  14  25  44  76 116 146 167 203 257 307
#     4   8  15  27  44  67  89 109 143 194 246 296
#     4  11  22  34  51  72  99 135 170 210 256 305
#
# _framework density 18.587551000000001
#
# number of rings (size 3 to 8) (size 9 to 14) (size 15 to 20)
#    0.000    2.467    2.667    2.400    0.933    2.667 
#    0.000    0.000    1.467    6.000    0.000    0.000 
#    0.000    0.000    0.000    3.333    0.000    0.000 
#
# Total GULP energy -334169.995839 kJ/mol
# GULP energy per Si atom -5569.499931 kJ/mol
# Density = 1.854524 g / cm^3
# Si number density = 18.587551 Si / 1000 Ang^3
#
#
#
# Elastic Constant Matrix: (Units=GPa)
#
#
# Indices 1 2 3 4 5 6 
#
# 1 64.2424 16.6468 25.7707 0.0000 0.0000 0.0000
# 2 16.6468 24.3394 10.6771 0.0000 0.0000 0.0000
# 3 25.7707 10.6771 91.6438 0.0000 0.0000 0.0000
# 4 0.0000 0.0000 0.0000 8.4946 0.0000 0.0000
# 5 0.0000 0.0000 0.0000 0.0000 33.5027 0.0000
# 6 0.0000 0.0000 0.0000 0.0000 0.0000 14.5562
#
#
#
# Elastic Compliance Matrix: (Units=1/GPa)
#
#
# Indices 1 2 3 4 5 6 
#
# 1 0.020435 -0.012073 -0.004340 0.000000 0.000000 0.000000
# 2 -0.012073 0.050431 -0.002481 0.000000 0.000000 0.000000
# 3 -0.004340 -0.002481 0.012421 0.000000 0.000000 0.000000
# 4 0.000000 0.000000 0.000000 0.117722 0.000000 0.000000
# 5 0.000000 0.000000 0.000000 0.000000 0.029848 0.000000
# 6 0.000000 0.000000 0.000000 0.000000 0.000000 0.068699
#
#
# Mechanical properties :
#
#
# Convention : Reuss Voigt Hill
#
# Bulk Modulus (GPa) = 21.97765 31.82387 26.90076
# Shear Modulus (GPa) = 14.18393 19.78609 16.98501
#
# Velocity S-wave (km/s) = 2.76540 3.26618 3.02617
# Velocity P-wave (km/s) = 4.69533 5.60198 5.16857
#
# Compressibility (1/GPa) = 0.04550078
#
# Stress axis : x y z
#
# Youngs Moduli (GPa) = 48.93473 19.82908 80.50729
#
# Poissons Ratio (x) = 0.23939 0.34940
# Poissons Ratio (y) = 0.59078 0.19971
# Poissons Ratio (z) = 0.21237 0.04919
#
# Static dielectric constant tensor:
#      x y z
#    x 1.646050 0.000000 0.000000 
#    y 0.000000 1.719770 0.000000 
#    z 0.000000 0.000000 1.658070 
# 
# From -- ./inp_files/64005.got.cif
#   From: 2010.05.17/outbox.cif.g08.bks.cpg/sg65_33_cif.got.tgz:64005.got - 2010.06.03 17:01:31.
