data_PCOD9483702
_publ_section_title
;
Structure prediction by ZEFSAII (Michael W. Deem and Ramdas Pophale) SiO2 
 PCOD9483702
Probable space group: C M M M
;
_chemical_formula_sum "Si O2"
_cell_formula_units_Z 72
_cell_length_a 26.400002
_cell_length_b 7.471237
_cell_length_c 20.782481
_cell_angle_alpha 90.000000
_cell_angle_beta 90.000000
_cell_angle_gamma 90.000000
_cell_volume 4099.150513
_symmetry_space_group_name_H-M "C M M M"
_symmetry_group_IT_number 65
_symmetry_cell_setting 'orthorhombic'
loop_
_space_group_symop_operation_xyz
x,y,z
-x,-y,z
x,-y,-z
-x,y,-z
-x,-y,-z
x,y,-z
-x,y,z
x,-y,z
1/2+x,1/2+y,z
1/2-x,1/2-y,z
1/2+x,1/2-y,-z
1/2-x,1/2+y,-z
1/2-x,1/2-y,-z
1/2+x,1/2+y,-z
1/2-x,1/2+y,z
1/2+x,1/2-y,z
loop_
_atom_site_type_symbol
_atom_site_label
_atom_site_fract_x
_atom_site_fract_y
_atom_site_fract_z
Si Si1 0.307281 0.714495 0.573250
Si Si2 0.100035 0.211507 0.343505
Si Si3 0.939505 0.216050 0.069239
Si Si4 0.559254 0.718946 0.790669
Si Si5 0.500000 0.785875 0.426245
O O1 0.312358 0.783673 0.500000
O O2 0.313268 0.500000 0.569870
O O3 0.250000 0.750000 0.595268
O O4 0.351274 0.785656 0.619274
O O5 0.088391 0.283657 0.272380
O O6 0.050117 0.230148 0.387561
O O7 0.108896 0.000000 0.334961
O O8 0.920914 0.278415 0.139153
O O9 0.000000 0.251201 0.069697
O O10 0.933961 0.000000 0.068675
O O11 0.919607 0.282366 0.000000
O O12 0.500000 0.769238 0.784504
O O13 0.559948 0.500000 0.790664
O O14 0.500000 0.718992 0.500000
O O15 0.500000 0.000000 0.428448
#
# Coordination Sequence:
#
# PCOD9483702 Si02
#       5
#    16  16  16  16   8
#     4   9  18  31  46  62  78 100 132 170 212 251
#     4  10  18  30  47  64  82 107 139 172 204 245
#     4   7   9  13  23  43  74 107 131 152 185 228
#     4   8  12  19  33  54  79 106 133 160 193 231
#     4  11  23  33  41  59  86 113 138 166 203 245
#
# _framework density 17.564613999999999
#
# number of rings (size 3 to 8) (size 9 to 14) (size 15 to 20)
#    0.000    3.222    1.111    3.000    0.000    2.667 
#    0.000    2.222    0.000    0.000    0.000    0.000 
#    0.000    2.667    0.000    0.667    0.000    1.333 
#
# Total GULP energy -200491.456286 kJ/mol
# GULP energy per Si atom -5569.207119 kJ/mol
# Density = 1.752464 g / cm^3
# Si number density = 17.564614 Si / 1000 Ang^3
#
#
#
# Elastic Constant Matrix: (Units=GPa)
#
#
# Indices 1 2 3 4 5 6 
#
# 1 98.3108 -2.6139 84.3734 0.0000 0.0000 0.0000
# 2 -2.6139 48.7879 3.0604 0.0000 0.0000 0.0000
# 3 84.3734 3.0604 202.2990 0.0000 0.0000 0.0000
# 4 0.0000 0.0000 0.0000 -16.4402 0.0000 0.0000
# 5 0.0000 0.0000 0.0000 0.0000 18.1011 0.0000
# 6 0.0000 0.0000 0.0000 0.0000 0.0000 6.7709
#
#
#
# Elastic Compliance Matrix: (Units=1/GPa)
#
#
# Indices 1 2 3 4 5 6 
#
# 1 0.015921 0.001271 -0.006659 0.000000 0.000000 0.000000
# 2 0.001271 0.020618 -0.000842 0.000000 0.000000 0.000000
# 3 -0.006659 -0.000842 0.007733 0.000000 0.000000 0.000000
# 4 0.000000 0.000000 0.000000 -0.060827 0.000000 0.000000
# 5 0.000000 0.000000 0.000000 0.000000 0.055245 0.000000
# 6 0.000000 0.000000 0.000000 0.000000 0.000000 0.147691
#
#
# Mechanical properties :
#
#
# Convention : Reuss Voigt Hill
#
# Bulk Modulus (GPa) = 31.43578 57.67087 44.55332
# Shear Modulus (GPa) = 23.87246 19.32489 21.59867
#
# Velocity S-wave (km/s) = 3.69063 3.32055 3.51047
# Velocity P-wave (km/s) = 6.00808 6.89973 6.46928
#
# Compressibility (1/GPa) = 0.03181089
#
# Stress axis : x y z
#
# Youngs Moduli (GPa) = 62.81048 48.50188 129.30976
#
# Poissons Ratio (x) = -0.06163 0.86113
# Poissons Ratio (y) = -0.07981 0.10887
# Poissons Ratio (z) = 0.41828 0.04083
#
# Static dielectric constant tensor:
#      x y z
#    x 1.561710 0.000000 0.000000 
#    y 0.000000 1.670600 0.000000 
#    z 0.000000 0.000000 1.666260 
# 
# From -- ./inp_files/59529.got.cif
#   From: 2010.05.17/outbox.cif.g08.bks.cpg/sg65_30_cif.got.tgz:59529.got - 2010.06.03 17:01:31.
