data_PCOD9483773
_publ_section_title
;
Structure prediction by ZEFSAII (Michael W. Deem and Ramdas Pophale) SiO2 
 PCOD9483773
Probable space group: C M M M
;
_chemical_formula_sum "Si O2"
_cell_formula_units_Z 104
_cell_length_a 23.616270
_cell_length_b 23.859122
_cell_length_c 8.243958
_cell_angle_alpha 90.000000
_cell_angle_beta 90.000000
_cell_angle_gamma 90.000000
_cell_volume 4645.169157
_symmetry_space_group_name_H-M "C M M M"
_symmetry_group_IT_number 65
_symmetry_cell_setting 'orthorhombic'
loop_
_space_group_symop_operation_xyz
x,y,z
-x,-y,z
x,-y,-z
-x,y,-z
-x,-y,-z
x,y,-z
-x,y,z
x,-y,z
1/2+x,1/2+y,z
1/2-x,1/2-y,z
1/2+x,1/2-y,-z
1/2-x,1/2+y,-z
1/2-x,1/2-y,-z
1/2+x,1/2+y,-z
1/2-x,1/2+y,z
1/2+x,1/2-y,z
loop_
_atom_site_type_symbol
_atom_site_label
_atom_site_fract_x
_atom_site_fract_y
_atom_site_fract_z
Si Si1 0.103055 0.620920 0.691875
Si Si2 0.083560 0.739367 0.185441
Si Si3 0.229265 0.500000 0.189774
Si Si4 0.193211 0.215039 0.316417
Si Si5 0.564833 0.366706 0.813599
Si Si6 0.069454 0.065956 0.500000
Si Si7 0.592180 0.000000 0.186591
Si Si8 0.766448 0.618807 0.692425
O O1 0.108030 0.617628 0.500000
O O2 0.072060 0.679275 0.733703
O O3 0.076054 0.561441 0.745091
O O4 0.168677 0.625278 0.756440
O O5 0.150093 0.750768 0.208812
O O6 0.062488 0.800956 0.239097
O O7 0.066848 0.733566 0.000000
O O8 0.160646 0.500000 0.204269
O O9 0.249736 0.555353 0.276546
O O10 0.243030 0.500000 0.000000
O O11 0.169154 0.208751 0.500000
O O12 0.250000 0.250000 0.331869
O O13 0.216550 0.157812 0.241385
O O14 0.500000 0.386006 0.828239
O O15 0.589989 0.402650 0.664771
O O16 0.588607 0.369225 0.000000
O O17 0.000000 0.070045 0.500000
O O18 0.083829 0.000000 0.500000
O O19 0.576230 0.000000 0.000000
O O20 0.768504 0.631609 0.500000
#
# Coordination Sequence:
#
# PCOD9483773 Si02
#       8
#    16  16   8  16  16   8   8  16
#     4  10  18  30  48  70  97 134 175 216 260 309
#     4  11  22  33  51  78 105 140 177 218 273 324
#     4   9  17  27  43  63  85 118 161 210 257 293
#     4  10  19  33  49  69  97 132 172 215 259 311
#     4   9  20  38  58  85 119 147 179 227 279 334
#     4   9  18  34  62  94 115 141 181 223 278 338
#     4   9  17  29  43  67 100 128 167 222 264 306
#     4   9  17  30  46  63  88 125 166 205 252 304
#
# _framework density 22.388850999999999
#
# number of rings (size 3 to 8) (size 9 to 14) (size 15 to 20)
#    0.000    2.385    1.538    1.385    2.154    3.692 
#    0.000    1.538    1.692    0.000    0.000    0.538 
#    0.000    4.308    0.000    0.000    0.000    0.000 
#
# Total GULP energy -289709.202675 kJ/mol
# GULP energy per Si atom -5571.330821 kJ/mol
# Density = 2.233789 g / cm^3
# Si number density = 22.388851 Si / 1000 Ang^3
#
#
#
# Elastic Constant Matrix: (Units=GPa)
#
#
# Indices 1 2 3 4 5 6 
#
# 1 37.8074 12.6551 13.7064 0.0000 0.0000 0.0000
# 2 12.6551 193.0292 67.7930 0.0000 0.0000 0.0000
# 3 13.7064 67.7930 71.4890 0.0000 0.0000 0.0000
# 4 0.0000 0.0000 0.0000 28.4472 0.0000 0.0000
# 5 0.0000 0.0000 0.0000 0.0000 2.1155 0.0000
# 6 0.0000 0.0000 0.0000 0.0000 0.0000 20.1410
#
#
#
# Elastic Compliance Matrix: (Units=1/GPa)
#
#
# Indices 1 2 3 4 5 6 
#
# 1 0.028426 0.000076 -0.005522 0.000000 0.000000 0.000000
# 2 0.000076 0.007768 -0.007381 0.000000 0.000000 0.000000
# 3 -0.005522 -0.007381 0.022046 0.000000 0.000000 0.000000
# 4 0.000000 0.000000 0.000000 0.035153 0.000000 0.000000
# 5 0.000000 0.000000 0.000000 0.000000 0.472691 0.000000
# 6 0.000000 0.000000 0.000000 0.000000 0.000000 0.049650
#
#
# Mechanical properties :
#
#
# Convention : Reuss Voigt Hill
#
# Bulk Modulus (GPa) = 30.68769 54.51496 42.60133
# Shear Modulus (GPa) = 7.66577 24.01881 15.84229
#
# Velocity S-wave (km/s) = 1.85239 3.27892 2.66296
# Velocity P-wave (km/s) = 4.27920 6.22391 5.34082
#
# Compressibility (1/GPa) = 0.03258635
#
# Stress axis : x y z
#
# Youngs Moduli (GPa) = 35.17862 128.73766 45.35983
#
# Poissons Ratio (x) = -0.00974 0.25047
# Poissons Ratio (y) = -0.00266 0.33479
# Poissons Ratio (z) = 0.19425 0.95017
#
# Static dielectric constant tensor:
#      x y z
#    x 1.887550 0.000000 0.000000 
#    y 0.000000 1.773190 0.000000 
#    z 0.000000 0.000000 1.810860 
# 
# From -- ./inp_files/16825.got.cif
#   From: 2010.05.17/outbox.cif.g08.bks.cpg/sg65_9_cif.got.tgz:16825.got - 2010.06.03 17:01:31.
