data_PCOD9483731
_publ_section_title
;
Structure prediction by ZEFSAII (Michael W. Deem and Ramdas Pophale) SiO2 
 PCOD9483731
Probable space group: C M M M
;
_chemical_formula_sum "Si O2"
_cell_formula_units_Z 88
_cell_length_a 29.372880
_cell_length_b 8.180989
_cell_length_c 22.035840
_cell_angle_alpha 90.000000
_cell_angle_beta 90.000000
_cell_angle_gamma 90.000000
_cell_volume 5295.194904
_symmetry_space_group_name_H-M "C M M M"
_symmetry_group_IT_number 65
_symmetry_cell_setting 'orthorhombic'
loop_
_space_group_symop_operation_xyz
x,y,z
-x,-y,z
x,-y,-z
-x,y,-z
-x,-y,-z
x,y,-z
-x,y,z
x,-y,z
1/2+x,1/2+y,z
1/2-x,1/2-y,z
1/2+x,1/2-y,-z
1/2-x,1/2+y,-z
1/2-x,1/2-y,-z
1/2+x,1/2+y,-z
1/2-x,1/2+y,z
1/2+x,1/2-y,z
loop_
_atom_site_type_symbol
_atom_site_label
_atom_site_fract_x
_atom_site_fract_y
_atom_site_fract_z
Si Si1 0.553440 0.698877 0.432958
Si Si2 0.301972 0.306251 0.369091
Si Si3 0.444885 0.805987 0.934737
Si Si4 0.052467 0.697554 0.802575
Si Si5 0.802793 0.305910 0.500000
Si Si6 0.391893 0.697947 0.685759
O O1 0.569411 0.754927 0.500000
O O2 0.500000 0.741214 0.427252
O O3 0.556019 0.500000 0.433325
O O4 0.580691 0.756090 0.374064
O O5 0.300494 0.500000 0.366318
O O6 0.250000 0.250000 0.361563
O O7 0.320399 0.260522 0.436238
O O8 0.339644 0.245444 0.321745
O O9 0.500000 0.794405 0.933935
O O10 0.430585 0.741102 0.868786
O O11 0.434182 0.000000 0.935751
O O12 0.429376 0.736228 0.000000
O O13 0.051386 0.500000 0.805629
O O14 0.083505 0.747884 0.746720
O O15 0.000000 0.752648 0.793147
O O16 0.805001 0.500000 0.500000
O O17 0.750000 0.250000 0.500000
O O18 0.392278 0.500000 0.684625
#
# Coordination Sequence:
#
# PCOD9483731 Si02
#       6
#    16  16  16  16   8  16
#     4   8  14  25  41  59  77 101 138 179 210 238
#     4  10  20  33  48  65  85 110 142 182 227 273
#     4   7  10  19  37  60  85 115 150 180 204 238
#     4   9  17  28  43  65  93 122 149 180 216 251
#     4  10  18  30  48  66  83 104 131 170 224 275
#     4  10  20  30  45  64  84 114 148 182 220 264
#
# _framework density 16.618839999999999
#
# number of rings (size 3 to 8) (size 9 to 14) (size 15 to 20)
#    0.000    3.091    0.000    5.182    1.273    2.545 
#    0.000    0.000    0.000    0.545    0.000    5.091 
#    0.000    0.727    0.000    1.636    0.000    2.545 
#
# Total GULP energy -244950.793262 kJ/mol
# GULP energy per Si atom -5567.063483 kJ/mol
# Density = 1.658102 g / cm^3
# Si number density = 16.618840 Si / 1000 Ang^3
#
#
#
# Elastic Constant Matrix: (Units=GPa)
#
#
# Indices 1 2 3 4 5 6 
#
# 1 74.2291 13.4004 76.6756 0.0000 0.0000 0.0000
# 2 13.4004 13.5010 11.8484 0.0000 0.0000 0.0000
# 3 76.6756 11.8484 172.2860 0.0000 0.0000 0.0000
# 4 0.0000 0.0000 0.0000 6.9148 0.0000 0.0000
# 5 0.0000 0.0000 0.0000 0.0000 12.5166 0.0000
# 6 0.0000 0.0000 0.0000 0.0000 0.0000 11.6944
#
#
#
# Elastic Compliance Matrix: (Units=1/GPa)
#
#
# Indices 1 2 3 4 5 6 
#
# 1 0.028655 -0.018357 -0.011490 0.000000 0.000000 0.000000
# 2 -0.018357 0.090586 0.001940 0.000000 0.000000 0.000000
# 3 -0.011490 0.001940 0.010785 0.000000 0.000000 0.000000
# 4 0.000000 0.000000 0.000000 0.144618 0.000000 0.000000
# 5 0.000000 0.000000 0.000000 0.000000 0.079894 0.000000
# 6 0.000000 0.000000 0.000000 0.000000 0.000000 0.085511
#
#
# Mechanical properties :
#
#
# Convention : Reuss Voigt Hill
#
# Bulk Modulus (GPa) = 13.47517 51.54052 32.50784
# Shear Modulus (GPa) = 9.60430 16.76462 13.18446
#
# Velocity S-wave (km/s) = 2.40660 3.17956 2.81969
# Velocity P-wave (km/s) = 3.98099 6.67534 5.49583
#
# Compressibility (1/GPa) = 0.07421059
#
# Stress axis : x y z
#
# Youngs Moduli (GPa) = 34.89813 11.03921 92.72468
#
# Poissons Ratio (x) = 0.20265 1.06544
# Poissons Ratio (y) = 0.64064 -0.17990
# Poissons Ratio (z) = 0.40099 -0.02142
#
# Static dielectric constant tensor:
#      x y z
#    x 1.563000 0.000000 0.000000 
#    y 0.000000 1.590170 0.000000 
#    z 0.000000 0.000000 1.609260 
# 
# From -- ./inp_files/66243.got.cif
#   From: 2010.05.17/outbox.cif.g08.bks.cpg/sg65_34_cif.got.tgz:66243.got - 2010.06.03 17:01:31.
