data_PCOD9483434
_publ_section_title
;
Structure prediction by ZEFSAII (Michael W. Deem and Ramdas Pophale) SiO2 
 PCOD9483434
Probable space group: C M M M
;
_chemical_formula_sum "Si O2"
_cell_formula_units_Z 96
_cell_length_a 26.316164
_cell_length_b 8.916796
_cell_length_c 25.779053
_cell_angle_alpha 90.000000
_cell_angle_beta 90.000000
_cell_angle_gamma 90.000000
_cell_volume 6049.206004
_symmetry_space_group_name_H-M "C M M M"
_symmetry_group_IT_number 65
_symmetry_cell_setting 'orthorhombic'
loop_
_space_group_symop_operation_xyz
x,y,z
-x,-y,z
x,-y,-z
-x,y,-z
-x,-y,-z
x,y,-z
-x,y,z
x,-y,z
1/2+x,1/2+y,z
1/2-x,1/2-y,z
1/2+x,1/2-y,-z
1/2-x,1/2+y,-z
1/2-x,1/2-y,-z
1/2+x,1/2+y,-z
1/2-x,1/2+y,z
1/2+x,1/2-y,z
loop_
_atom_site_type_symbol
_atom_site_label
_atom_site_fract_x
_atom_site_fract_y
_atom_site_fract_z
Si Si1 0.693579 0.680359 0.000000
Si Si2 0.000000 0.817189 0.560359
Si Si3 0.804477 0.680375 0.671238
Si Si4 0.153751 0.675246 0.784134
Si Si5 0.558749 0.670334 0.746634
Si Si6 0.305951 0.320707 0.887680
Si Si7 0.594762 0.675146 0.628838
O O1 0.750000 0.750000 0.000000
O O2 0.670098 0.721527 0.944019
O O3 0.698311 0.500000 0.000000
O O4 0.947764 0.767414 0.588491
O O5 0.000000 0.777407 0.500000
O O6 0.000000 0.000000 0.564903
O O7 0.802616 0.500000 0.669026
O O8 0.750000 0.750000 0.656881
O O9 0.817097 0.724944 0.731352
O O10 0.851897 0.739121 0.636777
O O11 0.163935 0.500000 0.791048
O O12 0.095175 0.709571 0.772356
O O13 0.168011 0.761034 0.836093
O O14 0.500000 0.691050 0.758676
O O15 0.574015 0.500000 0.761923
O O16 0.567380 0.679929 0.684892
O O17 0.302674 0.500000 0.885150
O O18 0.250000 0.250000 0.887458
O O19 0.605859 0.500000 0.617112
#
# Coordination Sequence:
#
# PCOD9483434 Si02
#       7
#     8   8  16  16  16  16  16
#     4   8  16  28  42  60  81 110 147 184 224 267
#     4   9  16  28  51  81 105 125 155 194 235 278
#     4  10  20  32  46  67  95 128 162 195 233 280
#     4  10  20  30  42  65  93 121 153 187 229 276
#     4   9  16  28  46  66  90 121 154 185 223 271
#     4  10  18  29  44  62  87 117 149 186 225 268
#     4   9  16  29  49  72  98 127 157 191 230 276
#
# _framework density 15.869852
#
# number of rings (size 3 to 8) (size 9 to 14) (size 15 to 20)
#    0.000    2.583    0.833    2.000    0.000    4.333 
#    0.000    0.417    0.000    1.500    0.000    0.583 
#    0.000    4.667    0.000    0.000    0.000    0.000 
#
# Total GULP energy -267230.883152 kJ/mol
# GULP energy per Si atom -5567.310066 kJ/mol
# Density = 1.583373 g / cm^3
# Si number density = 15.869852 Si / 1000 Ang^3
#
#
#
# Elastic Constant Matrix: (Units=GPa)
#
#
# Indices 1 2 3 4 5 6 
#
# 1 91.0599 29.3232 48.4182 0.0000 0.0000 0.0000
# 2 29.3232 34.2132 31.3786 0.0000 0.0000 0.0000
# 3 48.4182 31.3786 98.1119 0.0000 0.0000 0.0000
# 4 0.0000 0.0000 0.0000 14.4278 0.0000 0.0000
# 5 0.0000 0.0000 0.0000 0.0000 10.6636 0.0000
# 6 0.0000 0.0000 0.0000 0.0000 0.0000 23.4874
#
#
#
# Elastic Compliance Matrix: (Units=1/GPa)
#
#
# Indices 1 2 3 4 5 6 
#
# 1 0.016879 -0.009661 -0.005240 0.000000 0.000000 0.000000
# 2 -0.009661 0.046890 -0.010229 0.000000 0.000000 0.000000
# 3 -0.005240 -0.010229 0.016050 0.000000 0.000000 0.000000
# 4 0.000000 0.000000 0.000000 0.069311 0.000000 0.000000
# 5 0.000000 0.000000 0.000000 0.000000 0.093777 0.000000
# 6 0.000000 0.000000 0.000000 0.000000 0.000000 0.042576
#
#
# Mechanical properties :
#
#
# Convention : Reuss Voigt Hill
#
# Bulk Modulus (GPa) = 33.83021 49.06945 41.44983
# Shear Modulus (GPa) = 14.46779 17.33340 15.90060
#
# Velocity S-wave (km/s) = 3.02263 3.30846 3.16877
# Velocity P-wave (km/s) = 5.79183 6.75142 6.28995
#
# Compressibility (1/GPa) = 0.02955938
#
# Stress axis : x y z
#
# Youngs Moduli (GPa) = 59.24551 21.32654 62.30559
#
# Poissons Ratio (x) = 0.20603 0.32648
# Poissons Ratio (y) = 0.57234 0.63733
# Poissons Ratio (z) = 0.31045 0.21815
#
# Static dielectric constant tensor:
#      x y z
#    x 1.520270 0.000000 0.000000 
#    y 0.000000 1.543740 0.000000 
#    z 0.000000 0.000000 1.552390 
# 
# From -- ./inp_files/71766.got.cif
#   From: 2010.05.17/outbox.cif.g08.bks.cpg/sg65_36_cif.got.tgz:71766.got - 2010.06.03 17:01:31.
