data_PCOD9483529
_publ_section_title
;
Structure prediction by ZEFSAII (Michael W. Deem and Ramdas Pophale) SiO2 
 PCOD9483529
Probable space group: C M M M
;
_chemical_formula_sum "Si O2"
_cell_formula_units_Z 64
_cell_length_a 8.200457
_cell_length_b 19.584915
_cell_length_c 21.513980
_cell_angle_alpha 90.000000
_cell_angle_beta 90.000000
_cell_angle_gamma 90.000000
_cell_volume 3455.258208
_symmetry_space_group_name_H-M "C M M M"
_symmetry_group_IT_number 65
_symmetry_cell_setting 'orthorhombic'
loop_
_space_group_symop_operation_xyz
x,y,z
-x,-y,z
x,-y,-z
-x,y,-z
-x,-y,-z
x,y,-z
-x,y,z
x,-y,z
1/2+x,1/2+y,z
1/2-x,1/2-y,z
1/2+x,1/2-y,-z
1/2-x,1/2+y,-z
1/2-x,1/2-y,-z
1/2+x,1/2+y,-z
1/2-x,1/2+y,z
1/2+x,1/2-y,z
loop_
_atom_site_type_symbol
_atom_site_label
_atom_site_fract_x
_atom_site_fract_y
_atom_site_fract_z
Si Si1 0.302675 0.828281 0.500000
Si Si2 0.194571 0.671475 0.867124
Si Si3 0.801007 0.578654 0.754349
Si Si4 0.301084 0.921273 0.385902
Si Si5 0.192961 0.829046 0.000000
O O1 0.500000 0.830233 0.500000
O O2 0.250000 0.750000 0.500000
O O3 0.245604 0.869463 0.438920
O O4 0.250000 0.750000 0.862623
O O5 0.257844 0.627784 0.808989
O O6 0.245876 0.642234 0.934394
O O7 0.000000 0.671140 0.865386
O O8 0.753756 0.500000 0.765354
O O9 0.749571 0.597492 0.684226
O O10 0.000000 0.580494 0.754707
O O11 0.500000 0.920991 0.386431
O O12 0.252382 0.000000 0.398319
O O13 0.250000 0.750000 0.000000
O O14 0.000000 0.830183 0.000000
#
# Coordination Sequence:
#
# PCOD9483529 Si02
#       5
#     8  16  16  16   8
#     4  10  19  29  45  71  99 124 150 188 234 272
#     4  10  18  29  47  69  92 118 150 188 229 273
#     4   8  15  28  46  68  92 118 152 194 231 263
#     4   8  14  27  47  68  89 118 159 197 224 259
#     4  10  18  30  47  66  91 121 153 187 223 268
#
# _framework density 18.522493999999998
#
# number of rings (size 3 to 8) (size 9 to 14) (size 15 to 20)
#    0.000    3.000    0.000    5.250    0.000    2.500 
#    0.000    0.625    0.000    9.750    0.000    7.000 
#    0.000    0.000    0.000    0.000    0.000    0.000 
#
# Total GULP energy -178318.980491 kJ/mol
# GULP energy per Si atom -5572.468140 kJ/mol
# Density = 1.848034 g / cm^3
# Si number density = 18.522494 Si / 1000 Ang^3
#
#
#
# Elastic Constant Matrix: (Units=GPa)
#
#
# Indices 1 2 3 4 5 6 
#
# 1 27.5273 9.4567 18.7659 0.0000 0.0000 0.0000
# 2 9.4567 95.6529 118.1616 0.0000 0.0000 0.0000
# 3 18.7659 118.1616 218.0716 0.0000 0.0000 0.0000
# 4 0.0000 0.0000 0.0000 33.4653 0.0000 0.0000
# 5 0.0000 0.0000 0.0000 0.0000 9.3141 0.0000
# 6 0.0000 0.0000 0.0000 0.0000 0.0000 17.3204
#
#
#
# Elastic Compliance Matrix: (Units=1/GPa)
#
#
# Indices 1 2 3 4 5 6 
#
# 1 0.038615 0.000869 -0.003794 0.000000 0.000000 0.000000
# 2 0.000869 0.031638 -0.017218 0.000000 0.000000 0.000000
# 3 -0.003794 -0.017218 0.014241 0.000000 0.000000 0.000000
# 4 0.000000 0.000000 0.000000 0.029882 0.000000 0.000000
# 5 0.000000 0.000000 0.000000 0.000000 0.107364 0.000000
# 6 0.000000 0.000000 0.000000 0.000000 0.000000 0.057735
#
#
# Mechanical properties :
#
#
# Convention : Reuss Voigt Hill
#
# Bulk Modulus (GPa) = 22.61959 70.44668 46.53314
# Shear Modulus (GPa) = 14.94781 25.01113 19.97947
#
# Velocity S-wave (km/s) = 2.84387 3.67864 3.28786
# Velocity P-wave (km/s) = 4.79812 7.49392 6.29209
#
# Compressibility (1/GPa) = 0.04420946
#
# Stress axis : x y z
#
# Youngs Moduli (GPa) = 25.89639 31.60781 70.21763
#
# Poissons Ratio (x) = -0.02746 0.26639
# Poissons Ratio (y) = -0.02250 1.20898
# Poissons Ratio (z) = 0.09824 0.54421
#
# Static dielectric constant tensor:
#      x y z
#    x 1.741980 0.000000 0.000000 
#    y 0.000000 1.612140 0.000000 
#    z 0.000000 0.000000 1.674580 
# 
# From -- ./inp_files/58827.got.cif
#   From: 2010.05.17/outbox.cif.g08.bks.cpg/sg65_30_cif.got.tgz:58827.got - 2010.06.03 17:01:31.
