data_PCOD9483997
_publ_section_title
;
Structure prediction by ZEFSAII (Michael W. Deem and Ramdas Pophale) SiO2 
 PCOD9483997
Probable space group: C M M M
;
_chemical_formula_sum "Si O2"
_cell_formula_units_Z 64
_cell_length_a 30.903930
_cell_length_b 8.477888
_cell_length_c 11.148010
_cell_angle_alpha 90.000000
_cell_angle_beta 90.000000
_cell_angle_gamma 90.000000
_cell_volume 2920.779259
_symmetry_space_group_name_H-M "C M M M"
_symmetry_group_IT_number 65
_symmetry_cell_setting 'orthorhombic'
loop_
_space_group_symop_operation_xyz
x,y,z
-x,-y,z
x,-y,-z
-x,y,-z
-x,-y,-z
x,y,-z
-x,y,z
x,-y,z
1/2+x,1/2+y,z
1/2-x,1/2-y,z
1/2+x,1/2-y,-z
1/2-x,1/2+y,-z
1/2-x,1/2-y,-z
1/2+x,1/2+y,-z
1/2-x,1/2+y,z
1/2+x,1/2-y,z
loop_
_atom_site_type_symbol
_atom_site_label
_atom_site_fract_x
_atom_site_fract_y
_atom_site_fract_z
Si Si1 0.549603 0.827534 0.268158
Si Si2 0.162060 0.181822 0.000000
Si Si3 0.574013 0.174276 0.000000
Si Si4 0.299356 0.690004 0.750720
Si Si5 0.050774 0.000000 0.642550
Si Si6 0.200237 0.312525 0.500000
O O1 0.500000 0.829605 0.313989
O O2 0.570513 0.665100 0.312854
O O3 0.568905 0.000000 0.299421
O O4 0.548572 0.817157 0.123827
O O5 0.110765 0.195775 0.000000
O O6 0.178549 0.249147 0.873489
O O7 0.176322 0.000000 0.000000
O O8 0.595526 0.000000 0.000000
O O9 0.300190 0.500000 0.746506
O O10 0.250000 0.750000 0.756028
O O11 0.319004 0.751905 0.625542
O O12 0.050970 0.000000 0.500000
O O13 0.000000 0.000000 0.684286
O O14 0.201038 0.500000 0.500000
O O15 0.250000 0.250000 0.500000
#
# Coordination Sequence:
#
# PCOD9483997 Si02
#       6
#    16   8   8  16   8   8
#     4   9  18  33  54  81 109 138 177 225 270 317
#     4  10  23  36  52  77 108 141 173 218 271 319
#     4  10  21  35  54  77 104 137 174 216 268 321
#     4  10  19  34  54  79 106 136 174 216 264 315
#     4   9  18  31  51  81 109 140 181 221 267 321
#     4  10  18  30  52  80 104 134 171 214 261 308
#
# _framework density 21.911961999999999
#
# number of rings (size 3 to 8) (size 9 to 14) (size 15 to 20)
#    0.000    2.375    0.000    4.125    1.750    4.000 
#    0.000    4.375    2.750    0.000    0.000    0.000 
#    0.000    0.000    0.000    0.000    0.000    0.000 
#
# Total GULP energy -178403.522374 kJ/mol
# GULP energy per Si atom -5575.110074 kJ/mol
# Density = 2.186209 g / cm^3
# Si number density = 21.911962 Si / 1000 Ang^3
#
#
#
# Elastic Constant Matrix: (Units=GPa)
#
#
# Indices 1 2 3 4 5 6 
#
# 1 27.0640 3.1555 18.6129 0.0000 0.0000 0.0000
# 2 3.1555 174.7174 64.0481 0.0000 0.0000 0.0000
# 3 18.6129 64.0481 137.9091 0.0000 0.0000 0.0000
# 4 0.0000 0.0000 0.0000 17.5005 0.0000 0.0000
# 5 0.0000 0.0000 0.0000 0.0000 -10.6566 0.0000
# 6 0.0000 0.0000 0.0000 0.0000 0.0000 9.6840
#
#
#
# Elastic Compliance Matrix: (Units=1/GPa)
#
#
# Indices 1 2 3 4 5 6 
#
# 1 0.041078 0.001555 -0.006266 0.000000 0.000000 0.000000
# 2 0.001555 0.006957 -0.003441 0.000000 0.000000 0.000000
# 3 -0.006266 -0.003441 0.009695 0.000000 0.000000 0.000000
# 4 0.000000 0.000000 0.000000 0.057141 0.000000 0.000000
# 5 0.000000 0.000000 0.000000 0.000000 -0.093839 0.000000
# 6 0.000000 0.000000 0.000000 0.000000 0.000000 0.103263
#
#
# Mechanical properties :
#
#
# Convention : Reuss Voigt Hill
#
# Bulk Modulus (GPa) = 24.13969 56.81373 40.47671
# Shear Modulus (GPa) = 32.38192 20.23051 26.30622
#
# Velocity S-wave (km/s) = 3.84841 3.04182 3.46864
# Velocity P-wave (km/s) = 5.54866 6.19043 5.87831
#
# Compressibility (1/GPa) = 0.04142556
#
# Stress axis : x y z
#
# Youngs Moduli (GPa) = 24.34411 143.74491 103.14737
#
# Poissons Ratio (x) = -0.22356 0.64636
# Poissons Ratio (y) = -0.03786 0.35491
# Poissons Ratio (z) = 0.15255 0.49460
#
# Static dielectric constant tensor:
#      x y z
#    x 1.835730 0.000000 0.000000 
#    y 0.000000 1.841960 0.000000 
#    z 0.000000 0.000000 1.819370 
# 
# From -- ./inp_files/33281.got.cif
#   From: 2010.05.17/outbox.cif.g08.bks.cpg/sg65_17_cif.got.tgz:33281.got - 2010.06.03 17:01:31.
