data_PCOD9483581
_publ_section_title
;
Structure prediction by ZEFSAII (Michael W. Deem and Ramdas Pophale) SiO2 
 PCOD9483581
Probable space group: C M M M
;
_chemical_formula_sum "Si O2"
_cell_formula_units_Z 96
_cell_length_a 7.619260
_cell_length_b 26.432422
_cell_length_c 24.379355
_cell_angle_alpha 90.000000
_cell_angle_beta 90.000000
_cell_angle_gamma 90.000000
_cell_volume 4909.892284
_symmetry_space_group_name_H-M "C M M M"
_symmetry_group_IT_number 65
_symmetry_cell_setting 'orthorhombic'
loop_
_space_group_symop_operation_xyz
x,y,z
-x,-y,z
x,-y,-z
-x,y,-z
-x,-y,-z
x,y,-z
-x,y,z
x,-y,z
1/2+x,1/2+y,z
1/2-x,1/2-y,z
1/2+x,1/2-y,-z
1/2-x,1/2+y,-z
1/2-x,1/2-y,-z
1/2+x,1/2+y,-z
1/2-x,1/2+y,z
1/2+x,1/2-y,z
loop_
_atom_site_type_symbol
_atom_site_label
_atom_site_fract_x
_atom_site_fract_y
_atom_site_fract_z
Si Si1 0.207532 0.092841 0.438445
Si Si2 0.292347 0.000000 0.236922
Si Si3 0.784583 0.600499 0.824866
Si Si4 0.208627 0.307422 0.373555
Si Si5 0.213779 0.441236 0.938747
Si Si6 0.287204 0.500000 0.364916
Si Si7 0.289472 0.807352 0.248817
O O1 0.281438 0.089581 0.500000
O O2 0.227624 0.148468 0.413137
O O3 0.000000 0.082898 0.442612
O O4 0.276476 0.049889 0.397215
O O5 0.224927 0.051191 0.209064
O O6 0.500000 0.000000 0.225570
O O7 0.267371 0.000000 0.301842
O O8 0.728698 0.592695 0.887745
O O9 0.724369 0.650601 0.793410
O O10 0.000000 0.601266 0.824743
O O11 0.250000 0.250000 0.390965
O O12 0.278467 0.314408 0.311226
O O13 0.000000 0.312046 0.371342
O O14 0.263902 0.500000 0.929218
O O15 0.000000 0.440646 0.939036
O O16 0.271962 0.426606 0.000000
O O17 0.500000 0.500000 0.364626
O O18 0.500000 0.812524 0.251662
O O19 0.250000 0.750000 0.232079
#
# Coordination Sequence:
#
# PCOD9483581 Si02
#       7
#    16   8  16  16  16   8  16
#     4  10  21  37  55  73  95 127 163 196 234 283
#     4  10  18  29  48  73  98 122 149 190 244 290
#     4   9  15  25  42  66  95 124 153 190 236 282
#     4  10  20  35  54  76  99 124 157 199 245 291
#     4   8  12  19  34  60  94 126 153 185 230 279
#     4  10  21  36  52  71  99 131 161 194 234 284
#     4   9  18  31  47  67  92 123 157 189 229 278
#
# _framework density 19.552364000000001
#
# number of rings (size 3 to 8) (size 9 to 14) (size 15 to 20)
#    0.000    2.667    0.833    2.250    0.000    4.333 
#    0.000    0.833    0.000    2.000    0.000    0.000 
#    0.000    2.667    0.000    0.000    0.000    0.000 
#
# Total GULP energy -267839.344510 kJ/mol
# GULP energy per Si atom -5579.986344 kJ/mol
# Density = 1.950786 g / cm^3
# Si number density = 19.552364 Si / 1000 Ang^3
#
#
#
# Elastic Constant Matrix: (Units=GPa)
#
#
# Indices 1 2 3 4 5 6 
#
# 1 35.5351 -11.8057 -9.7369 0.0000 0.0000 0.0000
# 2 -11.8057 91.7624 64.5899 0.0000 0.0000 0.0000
# 3 -9.7369 64.5899 127.1789 0.0000 0.0000 0.0000
# 4 0.0000 0.0000 0.0000 21.5378 0.0000 0.0000
# 5 0.0000 0.0000 0.0000 0.0000 17.5775 0.0000
# 6 0.0000 0.0000 0.0000 0.0000 0.0000 11.6323
#
#
#
# Elastic Compliance Matrix: (Units=1/GPa)
#
#
# Indices 1 2 3 4 5 6 
#
# 1 0.029419 0.003423 0.000514 0.000000 0.000000 0.000000
# 2 0.003423 0.017359 -0.008554 0.000000 0.000000 0.000000
# 3 0.000514 -0.008554 0.012247 0.000000 0.000000 0.000000
# 4 0.000000 0.000000 0.000000 0.046430 0.000000 0.000000
# 5 0.000000 0.000000 0.000000 0.000000 0.056891 0.000000
# 6 0.000000 0.000000 0.000000 0.000000 0.000000 0.085968
#
#
# Mechanical properties :
#
#
# Convention : Reuss Voigt Hill
#
# Bulk Modulus (GPa) = 20.08389 37.84122 28.96256
# Shear Modulus (GPa) = 18.23854 24.24478 21.24166
#
# Velocity S-wave (km/s) = 3.05750 3.52517 3.29963
# Velocity P-wave (km/s) = 4.77059 5.99708 5.41865
#
# Compressibility (1/GPa) = 0.04979115
#
# Stress axis : x y z
#
# Youngs Moduli (GPa) = 33.99128 57.60631 81.65526
#
# Poissons Ratio (x) = -0.19721 -0.04195
# Poissons Ratio (y) = -0.11636 0.69849
# Poissons Ratio (z) = -0.01746 0.49277
#
# Static dielectric constant tensor:
#      x y z
#    x 1.738260 0.000000 0.000000 
#    y 0.000000 1.610840 0.000000 
#    z 0.000000 0.000000 1.685360 
# 
# From -- ./inp_files/68094.got.cif
#   From: 2010.05.17/outbox.cif.g08.bks.cpg/sg65_35_cif.got.tgz:68094.got - 2010.06.03 17:01:31.
