data_PCOD9483672
_publ_section_title
;
Structure prediction by ZEFSAII (Michael W. Deem and Ramdas Pophale) SiO2 
 PCOD9483672
Probable space group: C M M M
;
_chemical_formula_sum "Si O2"
_cell_formula_units_Z 104
_cell_length_a 9.258143
_cell_length_b 29.217555
_cell_length_c 29.303550
_cell_angle_alpha 90.000000
_cell_angle_beta 90.000000
_cell_angle_gamma 90.000000
_cell_volume 7926.619133
_symmetry_space_group_name_H-M "C M M M"
_symmetry_group_IT_number 65
_symmetry_cell_setting 'orthorhombic'
loop_
_space_group_symop_operation_xyz
x,y,z
-x,-y,z
x,-y,-z
-x,y,-z
-x,-y,-z
x,y,-z
-x,y,z
x,-y,z
1/2+x,1/2+y,z
1/2-x,1/2-y,z
1/2+x,1/2-y,-z
1/2-x,1/2+y,-z
1/2-x,1/2-y,-z
1/2+x,1/2+y,-z
1/2-x,1/2+y,z
1/2+x,1/2-y,z
loop_
_atom_site_type_symbol
_atom_site_label
_atom_site_fract_x
_atom_site_fract_y
_atom_site_fract_z
Si Si1 0.172237 0.945453 0.174904
Si Si2 0.165855 0.444412 0.731838
Si Si3 0.833564 0.055848 0.358859
Si Si4 0.831664 0.444391 0.550845
Si Si5 0.675368 0.052267 0.000000
Si Si6 0.825268 0.605597 0.907979
Si Si7 0.672791 0.796911 0.946474
O O1 0.242925 0.932281 0.223369
O O2 0.246788 0.917001 0.134759
O O3 0.000000 0.938773 0.175833
O O4 0.199250 0.000000 0.167857
O O5 0.163654 0.500000 0.730411
O O6 0.241899 0.429194 0.685072
O O7 0.000000 0.428911 0.734920
O O8 0.763022 0.071211 0.406500
O O9 0.000000 0.069751 0.355061
O O10 0.830890 0.000000 0.359018
O O11 0.784849 0.429604 0.500000
O O12 0.826624 0.500000 0.550865
O O13 0.000000 0.431987 0.557057
O O14 0.717383 0.078437 0.045980
O O15 0.500000 0.051794 0.000000
O O16 0.726476 0.000000 0.000000
O O17 0.788765 0.658694 0.916904
O O18 0.000000 0.601942 0.902959
O O19 0.500000 0.791150 0.944090
O O20 0.750000 0.750000 0.932924
O O21 0.708205 0.806040 0.000000
#
# Coordination Sequence:
#
# PCOD9483672 Si02
#       7
#    16  16  16  16   8  16  16
#     4  10  20  31  41  56  79 102 124 154 191 228
#     4   9  16  26  39  51  63  85 118 150 180 218
#     4   9  15  21  30  44  61  80 104 139 182 223
#     4   8  13  20  28  38  54  77 105 137 174 218
#     4   9  16  26  42  61  79 101 129 157 180 209
#     4  10  18  30  46  63  80 101 130 157 182 219
#     4   9  17  30  47  66  85 102 124 154 185 220
#
# _framework density 13.120348
#
# number of rings (size 3 to 8) (size 9 to 14) (size 15 to 20)
#    0.000    2.846    0.769    2.308    0.000    6.154 
#    0.000    1.923    0.000    1.385    0.000    0.000 
#    0.000    0.000    0.000    0.000    0.000    0.000 
#
# Total GULP energy -289547.084334 kJ/mol
# GULP energy per Si atom -5568.213160 kJ/mol
# Density = 1.309049 g / cm^3
# Si number density = 13.120348 Si / 1000 Ang^3
#
#
#
# Elastic Constant Matrix: (Units=GPa)
#
#
# Indices 1 2 3 4 5 6 
#
# 1 71.0429 32.5889 65.7612 0.0000 0.0000 0.0000
# 2 32.5889 50.3344 40.3992 0.0000 0.0000 0.0000
# 3 65.7612 40.3992 130.6045 0.0000 0.0000 0.0000
# 4 0.0000 0.0000 0.0000 1.0295 0.0000 0.0000
# 5 0.0000 0.0000 0.0000 0.0000 16.5268 0.0000
# 6 0.0000 0.0000 0.0000 0.0000 0.0000 12.8419
#
#
#
# Elastic Compliance Matrix: (Units=1/GPa)
#
#
# Indices 1 2 3 4 5 6 
#
# 1 0.029440 -0.009529 -0.011876 0.000000 0.000000 0.000000
# 2 -0.009529 0.029513 -0.004331 0.000000 0.000000 0.000000
# 3 -0.011876 -0.004331 0.014976 0.000000 0.000000 0.000000
# 4 0.000000 0.000000 0.000000 0.971300 0.000000 0.000000
# 5 0.000000 0.000000 0.000000 0.000000 0.060508 0.000000
# 6 0.000000 0.000000 0.000000 0.000000 0.000000 0.077870
#
#
# Mechanical properties :
#
#
# Convention : Reuss Voigt Hill
#
# Bulk Modulus (GPa) = 44.52960 58.83115 51.68038
# Shear Modulus (GPa) = 4.02393 13.62849 8.82621
#
# Velocity S-wave (km/s) = 1.75317 3.22643 2.59648
# Velocity P-wave (km/s) = 6.17342 7.66921 6.96161
#
# Compressibility (1/GPa) = 0.02245697
#
# Stress axis : x y z
#
# Youngs Moduli (GPa) = 33.96697 33.88344 66.77300
#
# Poissons Ratio (x) = 0.32288 0.79300
# Poissons Ratio (y) = 0.32368 0.28919
# Poissons Ratio (z) = 0.40339 0.14675
#
# Static dielectric constant tensor:
#      x y z
#    x 1.437630 0.000000 0.000000 
#    y 0.000000 1.394890 0.000000 
#    z 0.000000 0.000000 1.430270 
# 
# From -- ./inp_files/74053.got.cif
#   From: 2010.05.17/outbox.cif.g08.bks.cpg/sg65_38_cif.got.tgz:74053.got - 2010.06.03 17:01:31.
