data_PCOD9483265
_publ_section_title
;
Structure prediction by ZEFSAII (Michael W. Deem and Ramdas Pophale) SiO2 
 PCOD9483265
Probable space group: C M M M
;
_chemical_formula_sum "Si O2"
_cell_formula_units_Z 88
_cell_length_a 28.552180
_cell_length_b 7.515745
_cell_length_c 24.999124
_cell_angle_alpha 90.000000
_cell_angle_beta 90.000000
_cell_angle_gamma 90.000000
_cell_volume 5364.584620
_symmetry_space_group_name_H-M "C M M M"
_symmetry_group_IT_number 65
_symmetry_cell_setting 'orthorhombic'
loop_
_space_group_symop_operation_xyz
x,y,z
-x,-y,z
x,-y,-z
-x,y,-z
-x,-y,-z
x,y,-z
-x,y,z
x,-y,z
1/2+x,1/2+y,z
1/2-x,1/2-y,z
1/2+x,1/2-y,-z
1/2-x,1/2+y,-z
1/2-x,1/2-y,-z
1/2+x,1/2+y,-z
1/2-x,1/2+y,z
1/2+x,1/2-y,z
loop_
_atom_site_type_symbol
_atom_site_label
_atom_site_fract_x
_atom_site_fract_y
_atom_site_fract_z
Si Si1 0.194881 0.213557 0.559897
Si Si2 0.443444 0.700699 0.142680
Si Si3 0.945407 0.286347 0.440093
Si Si4 0.374829 0.699181 0.352327
Si Si5 0.053962 0.782279 0.735293
Si Si6 0.557262 0.000000 0.938533
O O1 0.180768 0.279663 0.500000
O O2 0.250000 0.250000 0.565128
O O3 0.166739 0.283238 0.611805
O O4 0.187623 0.000000 0.559538
O O5 0.500000 0.692504 0.138673
O O6 0.425311 0.500000 0.137322
O O7 0.435441 0.766048 0.203249
O O8 0.427227 0.829868 0.095899
O O9 0.931824 0.234950 0.500000
O O10 0.939333 0.500000 0.434966
O O11 0.915187 0.190045 0.396754
O O12 0.000000 0.248513 0.433220
O O13 0.359644 0.500000 0.335685
O O14 0.404012 0.781258 0.303020
O O15 0.000000 0.726041 0.721781
O O16 0.053309 0.000000 0.732606
O O17 0.500000 0.000000 0.938911
O O18 0.572493 0.000000 0.000000
#
# Coordination Sequence:
#
# PCOD9483265 Si02
#       6
#    16  16  16  16  16   8
#     4   9  18  31  45  60  77  98 126 165 212 258
#     4   8  14  25  38  52  76 109 139 171 211 246
#     4   9  18  30  39  51  77 106 126 151 195 246
#     4  10  18  28  44  63  77  93 129 173 203 243
#     4   8  14  25  40  57  79 105 129 160 203 245
#     4   9  16  24  36  56  78 104 145 187 211 231
#
# _framework density 16.403880000000001
#
# number of rings (size 3 to 8) (size 9 to 14) (size 15 to 20)
#    0.000    3.182    0.000    2.727    0.000    3.273 
#    1.636    4.545    0.000    0.000    0.000    0.000 
#    0.000    0.000    0.000    0.000    0.000    0.909 
#
# Total GULP energy -244942.377398 kJ/mol
# GULP energy per Si atom -5566.872214 kJ/mol
# Density = 1.636654 g / cm^3
# Si number density = 16.403880 Si / 1000 Ang^3
#
#
#
# Elastic Constant Matrix: (Units=GPa)
#
#
# Indices 1 2 3 4 5 6 
#
# 1 50.2174 12.8709 55.8302 0.0000 0.0000 0.0000
# 2 12.8709 45.7803 23.8363 0.0000 0.0000 0.0000
# 3 55.8302 23.8363 97.3063 0.0000 0.0000 0.0000
# 4 0.0000 0.0000 0.0000 15.5738 0.0000 0.0000
# 5 0.0000 0.0000 0.0000 0.0000 18.2772 0.0000
# 6 0.0000 0.0000 0.0000 0.0000 0.0000 8.9134
#
#
#
# Elastic Compliance Matrix: (Units=1/GPa)
#
#
# Indices 1 2 3 4 5 6 
#
# 1 0.055041 0.001110 -0.031852 0.000000 0.000000 0.000000
# 2 0.001110 0.025059 -0.006775 0.000000 0.000000 0.000000
# 3 -0.031852 -0.006775 0.030212 0.000000 0.000000 0.000000
# 4 0.000000 0.000000 0.000000 0.064210 0.000000 0.000000
# 5 0.000000 0.000000 0.000000 0.000000 0.054713 0.000000
# 6 0.000000 0.000000 0.000000 0.000000 0.000000 0.112191
#
#
# Mechanical properties :
#
#
# Convention : Reuss Voigt Hill
#
# Bulk Modulus (GPa) = 28.34706 42.04209 35.19457
# Shear Modulus (GPa) = 11.67621 15.27066 13.47344
#
# Velocity S-wave (km/s) = 2.67084 3.05440 2.86904
# Velocity P-wave (km/s) = 5.17971 6.17448 5.69884
#
# Compressibility (1/GPa) = 0.03527703
#
# Stress axis : x y z
#
# Youngs Moduli (GPa) = 18.16812 39.90569 33.09936
#
# Poissons Ratio (x) = -0.04429 1.05429
# Poissons Ratio (y) = -0.02016 0.22426
# Poissons Ratio (z) = 0.57870 0.27037
#
# Static dielectric constant tensor:
#      x y z
#    x 1.544560 0.000000 0.000000 
#    y 0.000000 1.624320 0.000000 
#    z 0.000000 0.000000 1.567900 
# 
# From -- ./inp_files/68410.got.cif
#   From: 2010.05.17/outbox.cif.g08.bks.cpg/sg65_35_cif.got.tgz:68410.got - 2010.06.03 17:01:31.
