data_PCOD9483156
_publ_section_title
;
Structure prediction by ZEFSAII (Michael W. Deem and Ramdas Pophale) SiO2 
 PCOD9483156
Probable space group: C M M M
;
_chemical_formula_sum "Si O2"
_cell_formula_units_Z 96
_cell_length_a 27.909887
_cell_length_b 8.790863
_cell_length_c 24.854091
_cell_angle_alpha 90.000000
_cell_angle_beta 90.000000
_cell_angle_gamma 90.000000
_cell_volume 6098.000760
_symmetry_space_group_name_H-M "C M M M"
_symmetry_group_IT_number 65
_symmetry_cell_setting 'orthorhombic'
loop_
_space_group_symop_operation_xyz
x,y,z
-x,-y,z
x,-y,-z
-x,y,-z
-x,-y,-z
x,y,-z
-x,y,z
x,-y,z
1/2+x,1/2+y,z
1/2-x,1/2-y,z
1/2+x,1/2-y,-z
1/2-x,1/2+y,-z
1/2-x,1/2-y,-z
1/2+x,1/2+y,-z
1/2-x,1/2+y,z
1/2+x,1/2-y,z
loop_
_atom_site_type_symbol
_atom_site_label
_atom_site_fract_x
_atom_site_fract_y
_atom_site_fract_z
Si Si1 0.598843 0.683617 0.939282
Si Si2 0.698861 0.317792 0.887793
Si Si3 0.696155 0.817683 0.558928
Si Si4 0.696391 0.682771 0.331184
Si Si5 0.146030 0.183352 0.779449
Si Si6 0.445872 0.182004 0.833406
O O1 0.595091 0.500000 0.934640
O O2 0.654240 0.723812 0.926028
O O3 0.567053 0.757943 0.892992
O O4 0.586229 0.727531 0.000000
O O5 0.702825 0.500000 0.888373
O O6 0.750000 0.250000 0.902261
O O7 0.682248 0.270218 0.827596
O O8 0.674412 0.782396 0.500000
O O9 0.750000 0.750000 0.557498
O O10 0.674734 0.746182 0.612983
O O11 0.698700 0.000000 0.564227
O O12 0.699509 0.500000 0.333914
O O13 0.750000 0.750000 0.325673
O O14 0.666280 0.726957 0.278597
O O15 0.094572 0.251019 0.794283
O O16 0.142710 0.000000 0.781586
O O17 0.500000 0.227795 0.819239
O O18 0.442846 0.000000 0.833073
#
# Coordination Sequence:
#
# PCOD9483156 Si02
#       6
#    16  16  16  16  16  16
#     4   9  19  35  51  67  89 117 148 178 210 258
#     4   9  17  29  44  63  88 116 146 178 211 250
#     4   9  16  25  37  55  83 121 161 194 223 256
#     4  10  18  27  42  65  92 122 156 190 223 258
#     4   9  19  33  47  65  89 117 149 182 216 263
#     4  10  21  35  51  71  91 110 136 177 227 270
#
# _framework density 15.742864000000001
#
# number of rings (size 3 to 8) (size 9 to 14) (size 15 to 20)
#    0.000    2.667    0.000    4.000    0.000    7.333 
#    0.000    1.667    0.000    0.000    0.000    0.000 
#    0.000    0.667    0.000    7.333    0.000    5.333 
#
# Total GULP energy -267481.036933 kJ/mol
# GULP energy per Si atom -5572.521603 kJ/mol
# Density = 1.570703 g / cm^3
# Si number density = 15.742864 Si / 1000 Ang^3
#
#
#
# Elastic Constant Matrix: (Units=GPa)
#
#
# Indices 1 2 3 4 5 6 
#
# 1 60.5283 14.8200 20.7133 0.0000 0.0000 0.0000
# 2 14.8200 26.1606 26.9413 0.0000 0.0000 0.0000
# 3 20.7133 26.9413 114.8534 0.0000 0.0000 0.0000
# 4 0.0000 0.0000 0.0000 19.8414 0.0000 0.0000
# 5 0.0000 0.0000 0.0000 0.0000 9.7414 0.0000
# 6 0.0000 0.0000 0.0000 0.0000 0.0000 23.0065
#
#
#
# Elastic Compliance Matrix: (Units=1/GPa)
#
#
# Indices 1 2 3 4 5 6 
#
# 1 0.019308 -0.009694 -0.001208 0.000000 0.000000 0.000000
# 2 -0.009694 0.055268 -0.011216 0.000000 0.000000 0.000000
# 3 -0.001208 -0.011216 0.011556 0.000000 0.000000 0.000000
# 4 0.000000 0.000000 0.000000 0.050400 0.000000 0.000000
# 5 0.000000 0.000000 0.000000 0.000000 0.102655 0.000000
# 6 0.000000 0.000000 0.000000 0.000000 0.000000 0.043466
#
#
# Mechanical properties :
#
#
# Convention : Reuss Voigt Hill
#
# Bulk Modulus (GPa) = 23.86898 36.27686 30.07292
# Shear Modulus (GPa) = 14.66907 19.78903 17.22905
#
# Velocity S-wave (km/s) = 3.05584 3.54929 3.31177
# Velocity P-wave (km/s) = 5.25790 6.31585 5.81100
#
# Compressibility (1/GPa) = 0.04189539
#
# Stress axis : x y z
#
# Youngs Moduli (GPa) = 51.79166 18.09376 86.53806
#
# Poissons Ratio (x) = 0.17540 0.10456
# Poissons Ratio (y) = 0.50206 0.97061
# Poissons Ratio (z) = 0.06258 0.20294
#
# Static dielectric constant tensor:
#      x y z
#    x 1.500350 0.000000 0.000000 
#    y 0.000000 1.530590 0.000000 
#    z 0.000000 0.000000 1.557600 
# 
# From -- ./inp_files/71683.got.cif
#   From: 2010.05.17/outbox.cif.g08.bks.cpg/sg65_36_cif.got.tgz:71683.got - 2010.06.03 17:01:31.
