data_PCOD9483122
_publ_section_title
;
Structure prediction by ZEFSAII (Michael W. Deem and Ramdas Pophale) SiO2 
 PCOD9483122
Probable space group: C M M M
;
_chemical_formula_sum "Si O2"
_cell_formula_units_Z 88
_cell_length_a 19.935929
_cell_length_b 13.442882
_cell_length_c 17.520443
_cell_angle_alpha 90.000000
_cell_angle_beta 90.000000
_cell_angle_gamma 90.000000
_cell_volume 4695.414619
_symmetry_space_group_name_H-M "C M M M"
_symmetry_group_IT_number 65
_symmetry_cell_setting 'orthorhombic'
loop_
_space_group_symop_operation_xyz
x,y,z
-x,-y,z
x,-y,-z
-x,y,-z
-x,-y,-z
x,y,-z
-x,y,z
x,-y,z
1/2+x,1/2+y,z
1/2-x,1/2-y,z
1/2+x,1/2-y,-z
1/2-x,1/2+y,-z
1/2-x,1/2-y,-z
1/2+x,1/2+y,-z
1/2-x,1/2+y,z
1/2+x,1/2-y,z
loop_
_atom_site_type_symbol
_atom_site_label
_atom_site_fract_x
_atom_site_fract_y
_atom_site_fract_z
Si Si1 0.581969 0.000000 0.410866
Si Si2 0.892763 0.817409 0.084711
Si Si3 0.420904 0.608850 0.251633
Si Si4 0.752788 0.388051 0.086094
Si Si5 0.896441 0.610102 0.857623
Si Si6 0.422400 0.818315 0.310095
O O1 0.606459 0.898981 0.369092
O O2 0.500000 0.000000 0.403468
O O3 0.598232 0.000000 0.500000
O O4 0.916409 0.873909 0.160213
O O5 0.811387 0.818230 0.092295
O O6 0.918055 0.704491 0.092976
O O7 0.908614 0.856720 0.000000
O O8 0.500000 0.606062 0.269498
O O9 0.391599 0.500000 0.270291
O O10 0.392725 0.707765 0.293702
O O11 0.723861 0.500000 0.091479
O O12 0.815083 0.384391 0.142492
O O13 0.781026 0.378194 0.000000
O O14 0.914784 0.500000 0.884988
O O15 0.921354 0.628597 0.772372
O O16 0.500000 0.802597 0.332652
#
# Coordination Sequence:
#
# PCOD9483122 Si02
#       6
#     8  16  16  16  16  16
#     4   9  16  28  50  76  97 117 139 165 207 266
#     4  10  19  29  41  58  83 116 154 199 240 265
#     4   9  18  31  46  63  85 119 156 188 224 265
#     4   9  17  28  41  57  79 111 149 192 238 270
#     4  10  18  27  41  59  82 114 147 184 223 276
#     4   9  17  30  47  67  92 118 142 174 218 265
#
# _framework density 18.741689000000001
#
# number of rings (size 3 to 8) (size 9 to 14) (size 15 to 20)
#    0.000    2.636    0.909    1.636    0.000    4.000 
#    0.000    0.909    0.000    2.182    0.000   14.000 
#    0.000   11.636    0.000    0.000    0.000    0.000 
#
# Total GULP energy -244964.349975 kJ/mol
# GULP energy per Si atom -5567.371590 kJ/mol
# Density = 1.869903 g / cm^3
# Si number density = 18.741689 Si / 1000 Ang^3
#
#
#
# Elastic Constant Matrix: (Units=GPa)
#
#
# Indices 1 2 3 4 5 6 
#
# 1 30.7508 5.8197 3.1309 0.0000 0.0000 0.0000
# 2 5.8197 162.0556 43.8857 0.0000 0.0000 0.0000
# 3 3.1309 43.8857 76.6662 0.0000 0.0000 0.0000
# 4 0.0000 0.0000 0.0000 18.8561 0.0000 0.0000
# 5 0.0000 0.0000 0.0000 0.0000 -269.9582 0.0000
# 6 0.0000 0.0000 0.0000 0.0000 0.0000 12.2893
#
#
#
# Elastic Compliance Matrix: (Units=1/GPa)
#
#
# Indices 1 2 3 4 5 6 
#
# 1 0.032782 -0.000964 -0.000787 0.000000 0.000000 0.000000
# 2 -0.000964 0.007331 -0.004157 0.000000 0.000000 0.000000
# 3 -0.000787 -0.004157 0.015455 0.000000 0.000000 0.000000
# 4 0.000000 0.000000 0.000000 0.053033 0.000000 0.000000
# 5 0.000000 0.000000 0.000000 0.000000 -0.003704 0.000000
# 6 0.000000 0.000000 0.000000 0.000000 0.000000 0.081372
#
#
# Mechanical properties :
#
#
# Convention : Reuss Voigt Hill
#
# Bulk Modulus (GPa) = 22.85597 41.68280 32.26938
# Shear Modulus (GPa) = 23.51064 -33.32014 -4.90475
#
# Velocity S-wave (km/s) = 3.54567 -4.22104 -1.61948
# Velocity P-wave (km/s) = 5.38369 1.21133 3.70923
#
# Compressibility (1/GPa) = 0.04375225
#
# Stress axis : x y z
#
# Youngs Moduli (GPa) = 30.50445 136.40464 64.70251
#
# Poissons Ratio (x) = 0.13152 0.05091
# Poissons Ratio (y) = 0.02941 0.26898
# Poissons Ratio (z) = 0.02400 0.56705
#
# Static dielectric constant tensor:
#      x y z
#    x 1.672950 0.000000 0.000000 
#    y 0.000000 1.767740 0.000000 
#    z 0.000000 0.000000 1.603000 
# 
# From -- ./inp_files/45558.got.cif
#   From: 2010.05.17/outbox.cif.g08.bks.cpg/sg65_23_cif.got.tgz:45558.got - 2010.06.03 17:01:31.
