data_PCOD9483711
_publ_section_title
;
Structure prediction by ZEFSAII (Michael W. Deem and Ramdas Pophale) SiO2 
 PCOD9483711
Probable space group: C M M M
;
_chemical_formula_sum "Si O2"
_cell_formula_units_Z 72
_cell_length_a 8.938720
_cell_length_b 26.122302
_cell_length_c 20.436718
_cell_angle_alpha 90.000000
_cell_angle_beta 90.000000
_cell_angle_gamma 90.000000
_cell_volume 4771.972495
_symmetry_space_group_name_H-M "C M M M"
_symmetry_group_IT_number 65
_symmetry_cell_setting 'orthorhombic'
loop_
_space_group_symop_operation_xyz
x,y,z
-x,-y,z
x,-y,-z
-x,y,-z
-x,-y,-z
x,y,-z
-x,y,z
x,-y,z
1/2+x,1/2+y,z
1/2-x,1/2-y,z
1/2+x,1/2-y,-z
1/2-x,1/2+y,-z
1/2-x,1/2-y,-z
1/2+x,1/2+y,-z
1/2-x,1/2+y,z
1/2+x,1/2-y,z
loop_
_atom_site_type_symbol
_atom_site_label
_atom_site_fract_x
_atom_site_fract_y
_atom_site_fract_z
Si Si1 0.681899 0.500000 0.425057
Si Si2 0.681246 0.398425 0.345467
Si Si3 0.321173 0.805332 0.423661
Si Si4 0.323022 0.061824 0.928477
Si Si5 0.679800 0.559821 0.206082
O O1 0.500000 0.500000 0.425679
O O2 0.733955 0.500000 0.500000
O O3 0.726434 0.448790 0.386785
O O4 0.500000 0.394549 0.348322
O O5 0.753354 0.348786 0.377594
O O6 0.724970 0.408712 0.270218
O O7 0.286307 0.817539 0.500000
O O8 0.500000 0.802797 0.416957
O O9 0.250000 0.750000 0.409533
O O10 0.500000 0.072063 0.924326
O O11 0.243250 0.079789 0.862649
O O12 0.304807 0.000000 0.928965
O O13 0.268758 0.080315 0.000000
O O14 0.500000 0.560016 0.203036
O O15 0.725764 0.500000 0.214692
#
# Coordination Sequence:
#
# PCOD9483711 Si02
#       5
#     8  16  16  16  16
#     4   9  16  26  43  65  88 119 154 182 215 265
#     4  10  18  30  47  68  93 121 153 187 224 271
#     4  10  21  36  52  69  88 113 149 193 238 279
#     4   8  14  24  37  54  79 114 154 189 220 259
#     4   9  16  26  40  61  90 120 151 185 220 262
#
# _framework density 15.088101
#
# number of rings (size 3 to 8) (size 9 to 14) (size 15 to 20)
#    0.000    2.778    1.111    2.000    0.000    3.556 
#    0.000    2.778    0.000    2.000    0.000    0.000 
#    0.000    0.889    0.000    2.889    0.000    4.222 
#
# Total GULP energy -200524.770911 kJ/mol
# GULP energy per Si atom -5570.132525 kJ/mol
# Density = 1.505376 g / cm^3
# Si number density = 15.088101 Si / 1000 Ang^3
#
#
#
# Elastic Constant Matrix: (Units=GPa)
#
#
# Indices 1 2 3 4 5 6 
#
# 1 22.4337 29.0122 47.0464 0.0000 0.0000 0.0000
# 2 29.0122 78.3241 74.7422 0.0000 0.0000 0.0000
# 3 47.0464 74.7422 175.5406 0.0000 0.0000 0.0000
# 4 0.0000 0.0000 0.0000 14.1379 0.0000 0.0000
# 5 0.0000 0.0000 0.0000 0.0000 25.3904 0.0000
# 6 0.0000 0.0000 0.0000 0.0000 0.0000 19.3352
#
#
#
# Elastic Compliance Matrix: (Units=1/GPa)
#
#
# Indices 1 2 3 4 5 6 
#
# 1 0.123603 -0.023872 -0.022963 0.000000 0.000000 0.000000
# 2 -0.023872 0.026116 -0.004722 0.000000 0.000000 0.000000
# 3 -0.022963 -0.004722 0.013861 0.000000 0.000000 0.000000
# 4 0.000000 0.000000 0.000000 0.070732 0.000000 0.000000
# 5 0.000000 0.000000 0.000000 0.000000 0.039385 0.000000
# 6 0.000000 0.000000 0.000000 0.000000 0.000000 0.051719
#
#
# Mechanical properties :
#
#
# Convention : Reuss Voigt Hill
#
# Bulk Modulus (GPa) = 16.53766 64.21111 40.37439
# Shear Modulus (GPa) = 11.14370 20.13922 15.64146
#
# Velocity S-wave (km/s) = 2.72062 3.65742 3.22324
# Velocity P-wave (km/s) = 4.56657 7.77724 6.37727
#
# Compressibility (1/GPa) = 0.06046804
#
# Stress axis : x y z
#
# Youngs Moduli (GPa) = 8.09041 38.29114 72.14331
#
# Poissons Ratio (x) = 0.91408 1.65659
# Poissons Ratio (y) = 0.19313 0.34064
# Poissons Ratio (z) = 0.18578 0.18080
#
# Static dielectric constant tensor:
#      x y z
#    x 1.506980 0.000000 0.000000 
#    y 0.000000 1.466250 0.000000 
#    z 0.000000 0.000000 1.524510 
# 
# From -- ./inp_files/49470.got.cif
#   From: 2010.05.17/outbox.cif.g08.bks.cpg/sg65_25_cif.got.tgz:49470.got - 2010.06.03 17:01:31.
