data_PCOD9483923
_publ_section_title
;
Structure prediction by ZEFSAII (Michael W. Deem and Ramdas Pophale) SiO2 
 PCOD9483923
Probable space group: C M M M
;
_chemical_formula_sum "Si O2"
_cell_formula_units_Z 104
_cell_length_a 22.534447
_cell_length_b 14.021680
_cell_length_c 14.871680
_cell_angle_alpha 90.000000
_cell_angle_beta 90.000000
_cell_angle_gamma 90.000000
_cell_volume 4699.016698
_symmetry_space_group_name_H-M "C M M M"
_symmetry_group_IT_number 65
_symmetry_cell_setting 'orthorhombic'
loop_
_space_group_symop_operation_xyz
x,y,z
-x,-y,z
x,-y,-z
-x,y,-z
-x,-y,-z
x,y,-z
-x,y,z
x,-y,z
1/2+x,1/2+y,z
1/2-x,1/2-y,z
1/2+x,1/2-y,-z
1/2-x,1/2+y,-z
1/2-x,1/2-y,-z
1/2+x,1/2+y,-z
1/2-x,1/2+y,z
1/2+x,1/2-y,z
loop_
_atom_site_type_symbol
_atom_site_label
_atom_site_fract_x
_atom_site_fract_y
_atom_site_fract_z
Si Si1 0.178628 0.887249 0.701969
Si Si2 0.433143 0.383574 0.602507
Si Si3 0.431696 0.228110 0.899440
Si Si4 0.790846 0.617134 0.399233
Si Si5 0.500000 0.884144 0.599289
Si Si6 0.803346 0.171602 0.901381
Si Si7 0.893873 0.385682 0.727332
O O1 0.113381 0.850138 0.677188
O O2 0.225020 0.852005 0.627736
O O3 0.201074 0.875270 0.803471
O O4 0.175356 0.000000 0.687552
O O5 0.415719 0.358068 0.500000
O O6 0.500000 0.350359 0.619911
O O7 0.435221 0.500000 0.604104
O O8 0.500000 0.266181 0.885141
O O9 0.372813 0.294839 0.900395
O O10 0.415454 0.155435 0.821113
O O11 0.432565 0.185210 0.000000
O O12 0.808415 0.647056 0.500000
O O13 0.793217 0.500000 0.400484
O O14 0.831883 0.646713 0.315459
O O15 0.500000 0.845171 0.500000
O O16 0.441908 0.858418 0.653051
O O17 0.500000 0.000000 0.594377
O O18 0.750000 0.250000 0.901118
O O19 0.795990 0.122535 0.000000
O O20 0.892103 0.500000 0.735163
#
# Coordination Sequence:
#
# PCOD9483923 Si02
#       7
#    16  16  16  16   8  16  16
#     4  10  19  32  55  84 105 129 172 223 266 303
#     4   8  14  26  47  77 110 139 168 207 258 314
#     4  10  21  37  56  77 103 140 183 222 267 322
#     4   9  17  29  48  77 110 139 170 210 255 309
#     4   9  16  26  43  69 101 137 173 208 250 300
#     4  10  22  40  58  76 103 141 178 211 263 333
#     4  10  18  30  50  78 107 138 178 222 260 295
#
# _framework density 22.132289
#
# number of rings (size 3 to 8) (size 9 to 14) (size 15 to 20)
#    0.000    2.538    0.769    2.308    0.000    4.923 
#    0.000    0.769    0.000   15.692    0.000    4.308 
#    0.000    0.000    0.000    0.000    0.000    0.000 
#
# Total GULP energy -289954.986361 kJ/mol
# GULP energy per Si atom -5576.057430 kJ/mol
# Density = 2.208191 g / cm^3
# Si number density = 22.132289 Si / 1000 Ang^3
#
#
#
# Elastic Constant Matrix: (Units=GPa)
#
#
# Indices 1 2 3 4 5 6 
#
# 1 116.3243 8.0814 25.8421 0.0000 0.0000 0.0000
# 2 8.0814 42.0446 3.4911 0.0000 0.0000 0.0000
# 3 25.8421 3.4911 113.0222 0.0000 0.0000 0.0000
# 4 0.0000 0.0000 0.0000 28.9148 0.0000 0.0000
# 5 0.0000 0.0000 0.0000 0.0000 37.7074 0.0000
# 6 0.0000 0.0000 0.0000 0.0000 0.0000 21.4703
#
#
#
# Elastic Compliance Matrix: (Units=1/GPa)
#
#
# Indices 1 2 3 4 5 6 
#
# 1 0.009162 -0.001591 -0.002046 0.000000 0.000000 0.000000
# 2 -0.001591 0.024122 -0.000381 0.000000 0.000000 0.000000
# 3 -0.002046 -0.000381 0.009327 0.000000 0.000000 0.000000
# 4 0.000000 0.000000 0.000000 0.034584 0.000000 0.000000
# 5 0.000000 0.000000 0.000000 0.000000 0.026520 0.000000
# 6 0.000000 0.000000 0.000000 0.000000 0.000000 0.046576
#
#
# Mechanical properties :
#
#
# Convention : Reuss Voigt Hill
#
# Bulk Modulus (GPa) = 28.92290 38.46893 33.69591
# Shear Modulus (GPa) = 29.43738 33.21692 31.32715
#
# Velocity S-wave (km/s) = 3.65096 3.87826 3.76633
# Velocity P-wave (km/s) = 5.55601 6.12157 5.84564
#
# Compressibility (1/GPa) = 0.03457468
#
# Stress axis : x y z
#
# Youngs Moduli (GPa) = 109.15070 41.45634 107.21188
#
# Poissons Ratio (x) = 0.06596 0.21932
# Poissons Ratio (y) = 0.17367 0.04088
# Poissons Ratio (z) = 0.22328 0.01581
#
# Static dielectric constant tensor:
#      x y z
#    x 1.856400 0.000000 0.000000 
#    y 0.000000 1.866680 0.000000 
#    z 0.000000 0.000000 1.794840 
# 
# From -- ./inp_files/44445.got.cif
#   From: 2010.05.17/outbox.cif.g08.bks.cpg/sg65_23_cif.got.tgz:44445.got - 2010.06.03 17:01:31.
