data_PCOD9483813
_publ_section_title
;
Structure prediction by ZEFSAII (Michael W. Deem and Ramdas Pophale) SiO2 
 PCOD9483813
Probable space group: C M M M
;
_chemical_formula_sum "Si O2"
_cell_formula_units_Z 80
_cell_length_a 19.046113
_cell_length_b 8.694154
_cell_length_c 26.781774
_cell_angle_alpha 90.000000
_cell_angle_beta 90.000000
_cell_angle_gamma 90.000000
_cell_volume 4434.789659
_symmetry_space_group_name_H-M "C M M M"
_symmetry_group_IT_number 65
_symmetry_cell_setting 'orthorhombic'
loop_
_space_group_symop_operation_xyz
x,y,z
-x,-y,z
x,-y,-z
-x,y,-z
-x,-y,-z
x,y,-z
-x,y,z
x,-y,z
1/2+x,1/2+y,z
1/2-x,1/2-y,z
1/2+x,1/2-y,-z
1/2-x,1/2+y,-z
1/2-x,1/2-y,-z
1/2+x,1/2+y,-z
1/2-x,1/2+y,z
1/2+x,1/2-y,z
loop_
_atom_site_type_symbol
_atom_site_label
_atom_site_fract_x
_atom_site_fract_y
_atom_site_fract_z
Si Si1 0.417900 0.815547 0.299559
Si Si2 0.416628 0.682271 0.806944
Si Si3 0.170521 0.183698 0.000000
Si Si4 0.328753 0.815128 0.603180
Si Si5 0.171411 0.317276 0.103019
Si Si6 0.670362 0.683837 0.500000
O O1 0.500000 0.778328 0.307551
O O2 0.394529 0.734837 0.248479
O O3 0.373293 0.772865 0.348079
O O4 0.412378 0.000000 0.292861
O O5 0.500000 0.714790 0.811191
O O6 0.405942 0.500000 0.812687
O O7 0.374388 0.770211 0.849540
O O8 0.250000 0.250000 0.000000
O O9 0.139893 0.245901 0.948077
O O10 0.171919 0.000000 0.000000
O O11 0.250000 0.750000 0.608613
O O12 0.360310 0.746791 0.551870
O O13 0.325854 0.000000 0.598901
O O14 0.176084 0.500000 0.097645
O O15 0.250000 0.250000 0.109259
O O16 0.672040 0.500000 0.500000
O O17 0.750000 0.750000 0.500000
#
# Coordination Sequence:
#
# PCOD9483813 Si02
#       6
#    16  16   8  16  16   8
#     4   9  19  36  55  74  99 135 175 212 254 305
#     4  10  21  37  56  78 106 140 176 216 264 314
#     4  10  18  32  53  78 109 140 173 213 261 313
#     4  10  19  32  52  76 102 131 166 209 253 301
#     4  11  21  35  56  81 109 140 177 218 260 309
#     4  10  18  30  49  72 101 133 165 203 249 302
#
# _framework density 18.039187999999999
#
# number of rings (size 3 to 8) (size 9 to 14) (size 15 to 20)
#    0.000    2.000    0.000    7.200    0.000    3.600 
#    0.000    3.000    0.000    6.000    0.000    0.000 
#    0.000    0.000    0.000    0.000    0.000    0.000 
#
# Total GULP energy -223247.541177 kJ/mol
# GULP energy per Si atom -5581.188529 kJ/mol
# Density = 1.799813 g / cm^3
# Si number density = 18.039188 Si / 1000 Ang^3
#
#
#
# Elastic Constant Matrix: (Units=GPa)
#
#
# Indices 1 2 3 4 5 6 
#
# 1 32.4669 36.1521 53.8202 0.0000 0.0000 0.0000
# 2 36.1521 123.9349 85.6622 0.0000 0.0000 0.0000
# 3 53.8202 85.6622 184.3340 0.0000 0.0000 0.0000
# 4 0.0000 0.0000 0.0000 36.4308 0.0000 0.0000
# 5 0.0000 0.0000 0.0000 0.0000 -209.5518 0.0000
# 6 0.0000 0.0000 0.0000 0.0000 0.0000 21.4523
#
#
#
# Elastic Compliance Matrix: (Units=1/GPa)
#
#
# Indices 1 2 3 4 5 6 
#
# 1 0.065456 -0.008669 -0.015083 0.000000 0.000000 0.000000
# 2 -0.008669 0.013035 -0.003526 0.000000 0.000000 0.000000
# 3 -0.015083 -0.003526 0.011467 0.000000 0.000000 0.000000
# 4 0.000000 0.000000 0.000000 0.027449 0.000000 0.000000
# 5 0.000000 0.000000 0.000000 0.000000 -0.004772 0.000000
# 6 0.000000 0.000000 0.000000 0.000000 0.000000 0.046615
#
#
# Mechanical properties :
#
#
# Convention : Reuss Voigt Hill
#
# Bulk Modulus (GPa) = 28.24664 76.88944 52.56804
# Shear Modulus (GPa) = 22.16243 -19.32699 1.41772
#
# Velocity S-wave (km/s) = 3.50890 -3.27676 0.88748
# Velocity P-wave (km/s) = 5.66648 5.32915 5.50040
#
# Compressibility (1/GPa) = 0.03540243
#
# Stress axis : x y z
#
# Youngs Moduli (GPa) = 15.27747 76.71741 87.20309
#
# Poissons Ratio (x) = 0.66503 1.31527
# Poissons Ratio (y) = 0.13243 0.30752
# Poissons Ratio (z) = 0.23043 0.27054
#
# Static dielectric constant tensor:
#      x y z
#    x 1.601180 0.000000 0.000000 
#    y 0.000000 1.609440 0.000000 
#    z 0.000000 0.000000 1.642340 
# 
# From -- ./inp_files/70777.got.cif
#   From: 2010.05.17/outbox.cif.g08.bks.cpg/sg65_36_cif.got.tgz:70777.got - 2010.06.03 17:01:31.
