data_PCOD9483859
_publ_section_title
;
Structure prediction by ZEFSAII (Michael W. Deem and Ramdas Pophale) SiO2 
 PCOD9483859
Probable space group: C M M M
;
_chemical_formula_sum "Si O2"
_cell_formula_units_Z 80
_cell_length_a 8.789029
_cell_length_b 28.709490
_cell_length_c 19.046641
_cell_angle_alpha 90.000000
_cell_angle_beta 90.000000
_cell_angle_gamma 90.000000
_cell_volume 4806.011119
_symmetry_space_group_name_H-M "C M M M"
_symmetry_group_IT_number 65
_symmetry_cell_setting 'orthorhombic'
loop_
_space_group_symop_operation_xyz
x,y,z
-x,-y,z
x,-y,-z
-x,y,-z
-x,-y,-z
x,y,-z
-x,y,z
x,-y,z
1/2+x,1/2+y,z
1/2-x,1/2-y,z
1/2+x,1/2-y,-z
1/2-x,1/2+y,-z
1/2-x,1/2-y,-z
1/2+x,1/2+y,-z
1/2-x,1/2+y,z
1/2+x,1/2-y,z
loop_
_atom_site_type_symbol
_atom_site_label
_atom_site_fract_x
_atom_site_fract_y
_atom_site_fract_z
Si Si1 0.184195 0.945859 0.653199
Si Si2 0.681869 0.697620 0.000000
Si Si3 0.318511 0.801190 0.144566
Si Si4 0.319289 0.443945 0.921059
Si Si5 0.819411 0.605847 0.785688
Si Si6 0.823369 0.056626 0.500000
O O1 0.241883 0.915627 0.717486
O O2 0.241592 0.929901 0.575965
O O3 0.000000 0.944958 0.651495
O O4 0.228971 0.000000 0.663592
O O5 0.750000 0.750000 0.000000
O O6 0.745382 0.678493 0.072848
O O7 0.500000 0.697766 0.000000
O O8 0.500000 0.796845 0.134625
O O9 0.250000 0.750000 0.157563
O O10 0.286500 0.839318 0.203768
O O11 0.500000 0.433789 0.916465
O O12 0.302095 0.500000 0.916204
O O13 0.236590 0.420292 0.855952
O O14 0.268366 0.429997 0.000000
O O15 0.000000 0.600137 0.780257
O O16 0.000000 0.071619 0.500000
O O17 0.823967 0.000000 0.500000
#
# Coordination Sequence:
#
# PCOD9483859 Si02
#       6
#    16   8  16  16  16   8
#     4   9  17  31  52  76 102 132 165 197 230 278
#     4  10  18  30  50  70  87 112 149 196 248 295
#     4  10  21  36  50  67  93 123 159 203 249 295
#     4   9  19  35  51  67  90 124 168 208 236 274
#     4  11  23  33  46  71 101 128 158 199 247 293
#     4   7  12  26  49  75 100 127 160 197 232 269
#
# _framework density 16.645820000000001
#
# number of rings (size 3 to 8) (size 9 to 14) (size 15 to 20)
#    0.000    2.500    0.000    5.700    1.400    6.800 
#    0.000    1.500    0.000    1.800    0.000    0.700 
#    0.000    0.000    0.000    0.000    0.000    0.000 
#
# Total GULP energy -223005.387031 kJ/mol
# GULP energy per Si atom -5575.134676 kJ/mol
# Density = 1.660793 g / cm^3
# Si number density = 16.645820 Si / 1000 Ang^3
#
#
#
# Elastic Constant Matrix: (Units=GPa)
#
#
# Indices 1 2 3 4 5 6 
#
# 1 47.2291 36.6899 43.1063 0.0000 0.0000 0.0000
# 2 36.6899 67.4307 67.3521 0.0000 0.0000 0.0000
# 3 43.1063 67.3521 154.0737 0.0000 0.0000 0.0000
# 4 0.0000 0.0000 0.0000 17.8253 0.0000 0.0000
# 5 0.0000 0.0000 0.0000 0.0000 6.5052 0.0000
# 6 0.0000 0.0000 0.0000 0.0000 0.0000 21.5370
#
#
#
# Elastic Compliance Matrix: (Units=1/GPa)
#
#
# Indices 1 2 3 4 5 6 
#
# 1 0.037334 -0.017539 -0.002778 0.000000 0.000000 0.000000
# 2 -0.017539 0.034564 -0.010202 0.000000 0.000000 0.000000
# 3 -0.002778 -0.010202 0.011727 0.000000 0.000000 0.000000
# 4 0.000000 0.000000 0.000000 0.056100 0.000000 0.000000
# 5 0.000000 0.000000 0.000000 0.000000 0.153723 0.000000
# 6 0.000000 0.000000 0.000000 0.000000 0.000000 0.046432
#
#
# Mechanical properties :
#
#
# Convention : Reuss Voigt Hill
#
# Bulk Modulus (GPa) = 44.27440 62.55892 53.41666
# Shear Modulus (GPa) = 12.24146 17.27918 14.76032
#
# Velocity S-wave (km/s) = 2.71478 3.22537 2.98103
# Velocity P-wave (km/s) = 6.04006 7.17876 6.63389
#
# Compressibility (1/GPa) = 0.02258641
#
# Stress axis : x y z
#
# Youngs Moduli (GPa) = 26.78498 28.93222 85.26990
#
# Poissons Ratio (x) = 0.50745 0.23690
# Poissons Ratio (y) = 0.46979 0.86993
# Poissons Ratio (z) = 0.07441 0.29517
#
# Static dielectric constant tensor:
#      x y z
#    x 1.558160 0.000000 0.000000 
#    y 0.000000 1.770410 0.000000 
#    z 0.000000 0.000000 1.580570 
# 
# From -- ./inp_files/50248.got.cif
#   From: 2010.05.17/outbox.cif.g08.bks.cpg/sg65_26_cif.got.tgz:50248.got - 2010.06.03 17:01:31.
