data_PCOD9483898
_publ_section_title
;
Structure prediction by ZEFSAII (Michael W. Deem and Ramdas Pophale) SiO2 
 PCOD9483898
Probable space group: C M M M
;
_chemical_formula_sum "Si O2"
_cell_formula_units_Z 88
_cell_length_a 28.854994
_cell_length_b 19.412470
_cell_length_c 7.554881
_cell_angle_alpha 90.000000
_cell_angle_beta 90.000000
_cell_angle_gamma 90.000000
_cell_volume 4231.841702
_symmetry_space_group_name_H-M "C M M M"
_symmetry_group_IT_number 65
_symmetry_cell_setting 'orthorhombic'
loop_
_space_group_symop_operation_xyz
x,y,z
-x,-y,z
x,-y,-z
-x,y,-z
-x,-y,-z
x,y,-z
-x,y,z
x,-y,z
1/2+x,1/2+y,z
1/2-x,1/2-y,z
1/2+x,1/2-y,-z
1/2-x,1/2+y,-z
1/2-x,1/2-y,-z
1/2+x,1/2+y,-z
1/2-x,1/2+y,z
1/2+x,1/2-y,z
loop_
_atom_site_type_symbol
_atom_site_label
_atom_site_fract_x
_atom_site_fract_y
_atom_site_fract_z
Si Si1 0.000000 0.080144 0.283534
Si Si2 0.713639 0.916147 0.295249
Si Si3 0.387425 0.078413 0.713958
Si Si4 0.093348 0.847963 0.293995
Si Si5 0.685524 0.419634 0.716877
Si Si6 0.447744 0.207615 0.791333
O O1 0.953185 0.116978 0.218958
O O2 0.000000 0.084993 0.500000
O O3 0.000000 0.000000 0.237287
O O4 0.713300 0.892870 0.500000
O O5 0.663441 0.897743 0.218519
O O6 0.763563 0.896032 0.218797
O O7 0.713995 0.000000 0.296312
O O8 0.384431 0.076166 0.500000
O O9 0.426618 0.132516 0.761598
O O10 0.396241 0.000000 0.774122
O O11 0.094501 0.868602 0.500000
O O12 0.141911 0.875231 0.220408
O O13 0.085386 0.766559 0.284430
O O14 0.687808 0.417378 0.500000
O O15 0.678543 0.500000 0.763705
O O16 0.500000 0.213914 0.718508
O O17 0.449864 0.219916 0.000000
#
# Coordination Sequence:
#
# PCOD9483898 Si02
#       6
#     8  16  16  16  16  16
#     4   9  16  26  45  75 104 127 162 213 255 282
#     4   7  11  23  45  75 107 130 151 191 247 299
#     4   9  18  34  58  83 101 121 157 205 252 301
#     4  10  18  30  50  75 102 134 170 208 247 288
#     4   8  13  23  45  78 109 133 161 201 248 293
#     4  11  24  39  52  67  96 137 172 205 251 303
#
# _framework density 20.794729
#
# number of rings (size 3 to 8) (size 9 to 14) (size 15 to 20)
#    0.000    3.000    0.909    3.273    0.000    4.000 
#    0.000    2.727    0.000    9.273    0.000    2.545 
#    0.000    0.000    0.000    0.000    0.000    0.000 
#
# Total GULP energy -245271.814279 kJ/mol
# GULP energy per Si atom -5574.359415 kJ/mol
# Density = 2.074740 g / cm^3
# Si number density = 20.794729 Si / 1000 Ang^3
#
#
#
# Elastic Constant Matrix: (Units=GPa)
#
#
# Indices 1 2 3 4 5 6 
#
# 1 86.0559 27.8991 -0.6301 0.0000 0.0000 0.0000
# 2 27.8991 61.2403 -11.1303 0.0000 0.0000 0.0000
# 3 -0.6301 -11.1303 48.7417 0.0000 0.0000 0.0000
# 4 0.0000 0.0000 0.0000 178.3083 0.0000 0.0000
# 5 0.0000 0.0000 0.0000 0.0000 -75.7056 0.0000
# 6 0.0000 0.0000 0.0000 0.0000 0.0000 -5.9624
#
#
#
# Elastic Compliance Matrix: (Units=1/GPa)
#
#
# Indices 1 2 3 4 5 6 
#
# 1 0.013713 -0.006484 -0.001303 0.000000 0.000000 0.000000
# 2 -0.006484 0.020102 0.004507 0.000000 0.000000 0.000000
# 3 -0.001303 0.004507 0.021529 0.000000 0.000000 0.000000
# 4 0.000000 0.000000 0.000000 0.005608 0.000000 0.000000
# 5 0.000000 0.000000 0.000000 0.000000 -0.013209 0.000000
# 6 0.000000 0.000000 0.000000 0.000000 0.000000 -0.167717
#
#
# Mechanical properties :
#
#
# Convention : Reuss Voigt Hill
#
# Bulk Modulus (GPa) = 20.49947 25.36838 22.93392
# Shear Modulus (GPa) = -51.46590 31.32133 -10.07228
#
# Velocity S-wave (km/s) = -4.98028 3.88521 -2.20322
# Velocity P-wave (km/s) = 4.81576 5.68791 2.14019
#
# Compressibility (1/GPa) = 0.04878175
#
# Stress axis : x y z
#
# Youngs Moduli (GPa) = 72.92394 49.74612 46.44999
#
# Poissons Ratio (x) = 0.32256 0.06054
# Poissons Ratio (y) = 0.47284 -0.20933
# Poissons Ratio (z) = 0.09505 -0.22418
#
# Static dielectric constant tensor:
#      x y z
#    x 1.785070 0.000000 0.000000 
#    y 0.000000 1.702610 0.000000 
#    z 0.000000 0.000000 1.825940 
# 
# From -- ./inp_files/18292.got.cif
#   From: 2010.05.17/outbox.cif.g08.bks.cpg/sg65_10_cif.got.tgz:18292.got - 2010.06.03 17:01:31.
