data_PCOD9483521
_publ_section_title
;
Structure prediction by ZEFSAII (Michael W. Deem and Ramdas Pophale) SiO2 
 PCOD9483521
Probable space group: C M M M
;
_chemical_formula_sum "Si O2"
_cell_formula_units_Z 112
_cell_length_a 29.628994
_cell_length_b 26.779694
_cell_length_c 7.536571
_cell_angle_alpha 90.000000
_cell_angle_beta 90.000000
_cell_angle_gamma 90.000000
_cell_volume 5979.932904
_symmetry_space_group_name_H-M "C M M M"
_symmetry_group_IT_number 65
_symmetry_cell_setting 'orthorhombic'
loop_
_space_group_symop_operation_xyz
x,y,z
-x,-y,z
x,-y,-z
-x,y,-z
-x,-y,-z
x,y,-z
-x,y,z
x,-y,z
1/2+x,1/2+y,z
1/2-x,1/2-y,z
1/2+x,1/2-y,-z
1/2-x,1/2+y,-z
1/2-x,1/2-y,-z
1/2+x,1/2+y,-z
1/2-x,1/2+y,z
1/2+x,1/2-y,z
loop_
_atom_site_type_symbol
_atom_site_label
_atom_site_fract_x
_atom_site_fract_y
_atom_site_fract_z
Si Si1 0.799428 0.556278 0.714651
Si Si2 0.305447 0.444304 0.210762
Si Si3 0.550432 0.806669 0.716749
Si Si4 0.142265 0.351815 0.289931
Si Si5 0.302060 0.248095 0.785254
Si Si6 0.050099 0.808843 0.713847
Si Si7 0.853766 0.846641 0.209312
O O1 0.800929 0.556419 0.500000
O O2 0.810755 0.500000 0.774587
O O3 0.747637 0.566528 0.765551
O O4 0.832197 0.599668 0.782350
O O5 0.314160 0.500000 0.284380
O O6 0.334047 0.398124 0.284380
O O7 0.314270 0.447026 0.000000
O O8 0.551069 0.806820 0.500000
O O9 0.500000 0.822331 0.771004
O O10 0.592528 0.838988 0.781287
O O11 0.556970 0.748820 0.770977
O O12 0.136753 0.360296 0.500000
O O13 0.173091 0.302720 0.268441
O O14 0.250000 0.250000 0.726670
O O15 0.329456 0.296676 0.719423
O O16 0.302182 0.248719 0.000000
O O17 0.049787 0.808644 0.500000
O O18 0.092722 0.840864 0.771103
O O19 0.000000 0.824675 0.773569
O O20 0.843196 0.847001 0.000000
#
# Coordination Sequence:
#
# PCOD9483521 Si02
#       7
#    16  16  16  16  16  16  16
#     4   9  18  31  46  67  93 119 152 194 232 262
#     4   9  18  33  51  68  88 120 160 191 219 267
#     4   8  14  26  44  65  88 115 149 185 219 260
#     4  10  18  29  47  67  88 119 154 186 222 267
#     4  10  20  31  42  62  95 125 144 174 225 276
#     4   9  17  30  48  68  91 120 153 187 223 271
#     4  10  19  30  46  69  94 119 147 187 233 269
#
# _framework density 18.729306000000001
#
# number of rings (size 3 to 8) (size 9 to 14) (size 15 to 20)
#    0.000    2.714    1.429    1.714    0.000    2.857 
#    0.000    0.000    0.000    1.286    0.000    6.000 
#    0.000    0.000    0.000    4.857    0.000    5.143 
#
# Total GULP energy -312361.103676 kJ/mol
# GULP energy per Si atom -5577.876851 kJ/mol
# Density = 1.868668 g / cm^3
# Si number density = 18.729306 Si / 1000 Ang^3
#
#
#
# Elastic Constant Matrix: (Units=GPa)
#
#
# Indices 1 2 3 4 5 6 
#
# 1 145.8070 104.4897 -10.7796 0.0000 0.0000 0.0000
# 2 104.4897 149.6771 0.7947 0.0000 0.0000 0.0000
# 3 -10.7796 0.7947 43.0820 0.0000 0.0000 0.0000
# 4 0.0000 0.0000 0.0000 6.3510 0.0000 0.0000
# 5 0.0000 0.0000 0.0000 0.0000 19.4749 0.0000
# 6 0.0000 0.0000 0.0000 0.0000 0.0000 21.5688
#
#
#
# Elastic Compliance Matrix: (Units=1/GPa)
#
#
# Indices 1 2 3 4 5 6 
#
# 1 0.014310 -0.010010 0.003765 0.000000 0.000000 0.000000
# 2 -0.010010 0.013684 -0.002757 0.000000 0.000000 0.000000
# 3 0.003765 -0.002757 0.024204 0.000000 0.000000 0.000000
# 4 0.000000 0.000000 0.000000 0.157455 0.000000 0.000000
# 5 0.000000 0.000000 0.000000 0.000000 0.051348 0.000000
# 6 0.000000 0.000000 0.000000 0.000000 0.000000 0.046363
#
#
# Mechanical properties :
#
#
# Convention : Reuss Voigt Hill
#
# Bulk Modulus (GPa) = 29.24420 58.61952 43.93186
# Shear Modulus (GPa) = 14.84709 25.74972 20.29841
#
# Velocity S-wave (km/s) = 2.81858 3.71190 3.29565
# Velocity P-wave (km/s) = 5.12256 7.05246 6.16351
#
# Compressibility (1/GPa) = 0.03419482
#
# Stress axis : x y z
#
# Youngs Moduli (GPa) = 69.88052 73.08016 41.31467
#
# Poissons Ratio (x) = 0.73153 -0.15556
# Poissons Ratio (y) = 0.69950 0.11390
# Poissons Ratio (z) = -0.26311 0.20148
#
# Static dielectric constant tensor:
#      x y z
#    x 1.638150 0.000000 0.000000 
#    y 0.000000 1.647770 0.000000 
#    z 0.000000 0.000000 1.875970 
# 
# From -- ./inp_files/31238.got.cif
#   From: 2010.05.17/outbox.cif.g08.bks.cpg/sg65_16_cif.got.tgz:31238.got - 2010.06.03 17:01:31.
