data_PCOD9483653
_publ_section_title
;
Structure prediction by ZEFSAII (Michael W. Deem and Ramdas Pophale) SiO2 
 PCOD9483653
Probable space group: C M M M
;
_chemical_formula_sum "Si O2"
_cell_formula_units_Z 68
_cell_length_a 15.086675
_cell_length_b 23.105236
_cell_length_c 9.683621
_cell_angle_alpha 90.000000
_cell_angle_beta 90.000000
_cell_angle_gamma 90.000000
_cell_volume 3375.528096
_symmetry_space_group_name_H-M "C M M M"
_symmetry_group_IT_number 65
_symmetry_cell_setting 'orthorhombic'
loop_
_space_group_symop_operation_xyz
x,y,z
-x,-y,z
x,-y,-z
-x,y,-z
-x,-y,-z
x,y,-z
-x,y,z
x,-y,z
1/2+x,1/2+y,z
1/2-x,1/2-y,z
1/2+x,1/2-y,-z
1/2-x,1/2+y,-z
1/2-x,1/2-y,-z
1/2+x,1/2+y,-z
1/2-x,1/2+y,z
1/2+x,1/2-y,z
loop_
_atom_site_type_symbol
_atom_site_label
_atom_site_fract_x
_atom_site_fract_y
_atom_site_fract_z
Si Si1 0.105526 0.173692 0.345061
Si Si2 0.857517 0.410969 0.839040
Si Si3 0.650291 0.434741 0.840749
Si Si4 0.107744 0.279154 0.158727
Si Si5 0.000000 0.500000 0.261664
O O1 0.142618 0.170853 0.500000
O O2 0.118247 0.114515 0.261762
O O3 0.140301 0.227937 0.256829
O O4 0.000000 0.182710 0.355571
O O5 0.757109 0.432601 0.834856
O O6 0.860404 0.343261 0.802420
O O7 0.922668 0.449584 0.749370
O O8 0.888283 0.416493 0.000000
O O9 0.620558 0.500000 0.807440
O O10 0.624392 0.421965 0.000000
O O11 0.000000 0.280709 0.161725
O O12 0.134171 0.267691 0.000000
#
# Coordination Sequence:
#
# PCOD9483653 Si02
#       5
#    16  16  16  16   4
#     4  10  22  40  59  77 102 143 191 235 280 329
#     4  10  18  29  52  87 122 150 178 218 267 323
#     4  10  21  36  55  84 117 144 176 224 279 330
#     4   9  17  31  54  84 113 144 183 226 270 317
#     4  12  17  28  56  92 127 154 179 214 265 324
#
# _framework density 20.144997
#
# number of rings (size 3 to 8) (size 9 to 14) (size 15 to 20)
#    0.000    2.118    2.353    1.765    0.000    3.294 
#    0.000    8.235    0.000    0.000    0.000    3.294 
#    0.000    0.000    0.000    0.000    0.000    0.000 
#
# Total GULP energy -189353.007114 kJ/mol
# GULP energy per Si atom -5569.206092 kJ/mol
# Density = 2.009915 g / cm^3
# Si number density = 20.144997 Si / 1000 Ang^3
#
#
#
# Elastic Constant Matrix: (Units=GPa)
#
#
# Indices 1 2 3 4 5 6 
#
# 1 25.1343 2.4288 6.2556 0.0000 0.0000 0.0000
# 2 2.4288 188.0564 102.0827 0.0000 0.0000 0.0000
# 3 6.2556 102.0827 91.3501 0.0000 0.0000 0.0000
# 4 0.0000 0.0000 0.0000 -9.7758 0.0000 0.0000
# 5 0.0000 0.0000 0.0000 0.0000 8.2200 0.0000
# 6 0.0000 0.0000 0.0000 0.0000 0.0000 78.5438
#
#
#
# Elastic Compliance Matrix: (Units=1/GPa)
#
#
# Indices 1 2 3 4 5 6 
#
# 1 0.040942 0.002525 -0.005625 0.000000 0.000000 0.000000
# 2 0.002525 0.013673 -0.015452 0.000000 0.000000 0.000000
# 3 -0.005625 -0.015452 0.028600 0.000000 0.000000 0.000000
# 4 0.000000 0.000000 0.000000 -0.102294 0.000000 0.000000
# 5 0.000000 0.000000 0.000000 0.000000 0.121654 0.000000
# 6 0.000000 0.000000 0.000000 0.000000 0.000000 0.012732
#
#
# Mechanical properties :
#
#
# Convention : Reuss Voigt Hill
#
# Bulk Modulus (GPa) = 21.68728 58.45275 40.07001
# Shear Modulus (GPa) = 29.80057 28.31586 29.05822
#
# Velocity S-wave (km/s) = 3.85034 3.75320 3.80208
# Velocity P-wave (km/s) = 5.52773 6.91817 6.26166
#
# Compressibility (1/GPa) = 0.04610998
#
# Stress axis : x y z
#
# Youngs Moduli (GPa) = 24.42459 73.13790 34.96553
#
# Poissons Ratio (x) = -0.18464 0.19668
# Poissons Ratio (y) = -0.06166 0.54029
# Poissons Ratio (z) = 0.13739 1.13013
#
# Static dielectric constant tensor:
#      x y z
#    x 1.729540 0.000000 0.000000 
#    y 0.000000 1.694050 0.000000 
#    z 0.000000 0.000000 1.717320 
# 
# From -- ./inp_files/8930.got.cif
#   From: 2010.05.17/outbox.cif.g08.bks.cpg/sg65_5_cif.got.tgz:8930.got - 2010.06.03 17:01:31.
