data_PCOD9483885
_publ_section_title
;
Structure prediction by ZEFSAII (Michael W. Deem and Ramdas Pophale) SiO2 
 PCOD9483885
Probable space group: C M M M
;
_chemical_formula_sum "Si O2"
_cell_formula_units_Z 64
_cell_length_a 8.512367
_cell_length_b 28.744743
_cell_length_c 13.529196
_cell_angle_alpha 90.000000
_cell_angle_beta 90.000000
_cell_angle_gamma 90.000000
_cell_volume 3310.402170
_symmetry_space_group_name_H-M "C M M M"
_symmetry_group_IT_number 65
_symmetry_cell_setting 'orthorhombic'
loop_
_space_group_symop_operation_xyz
x,y,z
-x,-y,z
x,-y,-z
-x,y,-z
-x,-y,-z
x,y,-z
-x,y,z
x,-y,z
1/2+x,1/2+y,z
1/2-x,1/2-y,z
1/2+x,1/2-y,-z
1/2-x,1/2+y,-z
1/2-x,1/2-y,-z
1/2+x,1/2+y,-z
1/2-x,1/2+y,z
1/2+x,1/2-y,z
loop_
_atom_site_type_symbol
_atom_site_label
_atom_site_fract_x
_atom_site_fract_y
_atom_site_fract_z
Si Si1 0.311919 0.697743 0.709539
Si Si2 0.807469 0.946134 0.000000
Si Si3 0.811228 0.893771 0.803429
Si Si4 0.687430 0.196913 0.500000
Si Si5 0.312584 0.055684 0.609624
O O1 0.500000 0.700097 0.704865
O O2 0.250000 0.750000 0.724785
O O3 0.261232 0.659948 0.790557
O O4 0.250664 0.678529 0.603847
O O5 0.753100 0.919776 0.901211
O O6 0.000000 0.945737 0.000000
O O7 0.759108 0.000000 0.000000
O O8 0.763903 0.920575 0.703954
O O9 0.000000 0.893599 0.808662
O O10 0.500000 0.195712 0.500000
O O11 0.750000 0.250000 0.500000
O O12 0.256836 0.070998 0.500000
O O13 0.500000 0.064138 0.613034
O O14 0.288512 0.000000 0.615318
#
# Coordination Sequence:
#
# PCOD9483885 Si02
#       5
#    16   8  16   8  16
#     4  10  20  34  51  76 110 144 182 225 269 319
#     4   9  18  36  60  83 107 137 177 227 282 329
#     4  10  21  35  56  82 107 139 184 231 271 320
#     4  10  18  30  50  74 103 142 181 218 264 315
#     4   9  19  35  53  77 111 145 175 214 271 335
#
# _framework density 19.332998
#
# number of rings (size 3 to 8) (size 9 to 14) (size 15 to 20)
#    0.000    2.375    0.000    4.875    1.750    4.000 
#    0.000    2.500    0.000    2.250    0.000    0.000 
#    0.000    0.000    0.000    0.000    0.000    0.000 
#
# Total GULP energy -178556.745076 kJ/mol
# GULP energy per Si atom -5579.898284 kJ/mol
# Density = 1.928900 g / cm^3
# Si number density = 19.332998 Si / 1000 Ang^3
#
#
#
# Elastic Constant Matrix: (Units=GPa)
#
#
# Indices 1 2 3 4 5 6 
#
# 1 27.8137 26.4020 17.0820 0.0000 0.0000 0.0000
# 2 26.4020 123.7463 99.8104 0.0000 0.0000 0.0000
# 3 17.0820 99.8104 161.4137 0.0000 0.0000 0.0000
# 4 0.0000 0.0000 0.0000 37.3529 0.0000 0.0000
# 5 0.0000 0.0000 0.0000 0.0000 19.7063 0.0000
# 6 0.0000 0.0000 0.0000 0.0000 0.0000 20.1228
#
#
#
# Elastic Compliance Matrix: (Units=1/GPa)
#
#
# Indices 1 2 3 4 5 6 
#
# 1 0.045535 -0.011628 0.002371 0.000000 0.000000 0.000000
# 2 -0.011628 0.019091 -0.010574 0.000000 0.000000 0.000000
# 3 0.002371 -0.010574 0.012483 0.000000 0.000000 0.000000
# 4 0.000000 0.000000 0.000000 0.026772 0.000000 0.000000
# 5 0.000000 0.000000 0.000000 0.000000 0.050745 0.000000
# 6 0.000000 0.000000 0.000000 0.000000 0.000000 0.049695
#
#
# Mechanical properties :
#
#
# Convention : Reuss Voigt Hill
#
# Bulk Modulus (GPa) = 26.70448 66.61806 46.66127
# Shear Modulus (GPa) = 19.49591 26.74835 23.12213
#
# Velocity S-wave (km/s) = 3.17902 3.72366 3.46206
# Velocity P-wave (km/s) = 5.22664 7.28152 6.33791
#
# Compressibility (1/GPa) = 0.03744690
#
# Stress axis : x y z
#
# Youngs Moduli (GPa) = 21.96129 52.38124 80.10908
#
# Poissons Ratio (x) = 0.60907 -0.18995
# Poissons Ratio (y) = 0.25536 0.84710
# Poissons Ratio (z) = -0.05207 0.55390
#
# Static dielectric constant tensor:
#      x y z
#    x 1.675970 0.000000 0.000000 
#    y 0.000000 1.698950 0.000000 
#    z 0.000000 0.000000 1.676670 
# 
# From -- ./inp_files/36841.got.cif
#   From: 2010.05.17/outbox.cif.g08.bks.cpg/sg65_19_cif.got.tgz:36841.got - 2010.06.03 17:01:31.
