data_PCOD9483357
_publ_section_title
;
Structure prediction by ZEFSAII (Michael W. Deem and Ramdas Pophale) SiO2 
 PCOD9483357
Probable space group: C M M M
;
_chemical_formula_sum "Si O2"
_cell_formula_units_Z 120
_cell_length_a 7.891306
_cell_length_b 30.292932
_cell_length_c 25.663017
_cell_angle_alpha 90.000000
_cell_angle_beta 90.000000
_cell_angle_gamma 90.000000
_cell_volume 6134.764643
_symmetry_space_group_name_H-M "C M M M"
_symmetry_group_IT_number 65
_symmetry_cell_setting 'orthorhombic'
loop_
_space_group_symop_operation_xyz
x,y,z
-x,-y,z
x,-y,-z
-x,y,-z
-x,-y,-z
x,y,-z
-x,y,z
x,-y,z
1/2+x,1/2+y,z
1/2-x,1/2-y,z
1/2+x,1/2-y,-z
1/2-x,1/2+y,-z
1/2-x,1/2-y,-z
1/2+x,1/2+y,-z
1/2-x,1/2+y,z
1/2+x,1/2-y,z
loop_
_atom_site_type_symbol
_atom_site_label
_atom_site_fract_x
_atom_site_fract_y
_atom_site_fract_z
Si Si1 0.293018 0.050964 0.058608
Si Si2 0.201777 0.201066 0.811574
Si Si3 0.704267 0.050871 0.253634
Si Si4 0.204101 0.799199 0.693066
Si Si5 0.299411 0.451184 0.372880
Si Si6 0.796415 0.141591 0.599791
Si Si7 0.200140 0.698639 0.500000
Si Si8 0.797628 0.607279 0.155973
O O1 0.500000 0.052079 0.058564
O O2 0.231910 0.082346 0.104797
O O3 0.245110 0.000000 0.068295
O O4 0.238410 0.063180 0.000000
O O5 0.250000 0.250000 0.830131
O O6 0.269569 0.195984 0.752095
O O7 0.263507 0.159205 0.843686
O O8 0.000000 0.199054 0.809355
O O9 0.500000 0.054615 0.258101
O O10 0.778375 0.058103 0.311089
O O11 0.766968 0.084369 0.209290
O O12 0.741773 0.000000 0.238282
O O13 0.250000 0.750000 0.674861
O O14 0.269572 0.834774 0.652126
O O15 0.000000 0.802349 0.694844
O O16 0.500000 0.453961 0.383800
O O17 0.225365 0.500000 0.383044
O O18 0.230267 0.408554 0.403048
O O19 0.762203 0.172527 0.550829
O O20 0.000000 0.138568 0.604999
O O21 0.250000 0.750000 0.500000
O O22 0.000000 0.696902 0.500000
O O23 0.000000 0.600596 0.156789
#
# Coordination Sequence:
#
# PCOD9483357 Si02
#       8
#    16  16  16  16  16  16   8  16
#     4   8  14  26  46  72 100 130 166 207 247 289
#     4  10  20  34  50  71 100 131 164 203 248 297
#     4   9  17  28  44  71 107 141 169 200 241 291
#     4   9  18  31  49  72  97 126 159 196 239 290
#     4   9  18  33  53  76 103 136 172 207 242 284
#     4  10  20  36  56  77 102 132 166 203 243 288
#     4  12  26  42  59  80 103 127 158 199 249 298
#     4  10  18  28  46  72 100 131 168 208 250 295
#
# _framework density 19.560652999999999
#
# number of rings (size 3 to 8) (size 9 to 14) (size 15 to 20)
#    0.000    2.533    0.000    3.000    0.000    5.867 
#    0.000    0.333    0.000    4.000    0.000    0.933 
#    0.000    0.000    0.000    0.000    0.000    0.000 
#
# Total GULP energy -334773.920396 kJ/mol
# GULP energy per Si atom -5579.565340 kJ/mol
# Density = 1.951613 g / cm^3
# Si number density = 19.560653 Si / 1000 Ang^3
#
#
#
# Elastic Constant Matrix: (Units=GPa)
#
#
# Indices 1 2 3 4 5 6 
#
# 1 17.1733 -2.1055 -5.5984 0.0000 0.0000 0.0000
# 2 -2.1055 160.6701 67.8183 0.0000 0.0000 0.0000
# 3 -5.5984 67.8183 51.4440 0.0000 0.0000 0.0000
# 4 0.0000 0.0000 0.0000 27.7514 0.0000 0.0000
# 5 0.0000 0.0000 0.0000 0.0000 -12.4412 0.0000
# 6 0.0000 0.0000 0.0000 0.0000 0.0000 17.8139
#
#
#
# Elastic Compliance Matrix: (Units=1/GPa)
#
#
# Indices 1 2 3 4 5 6 
#
# 1 0.061829 -0.004576 0.012762 0.000000 0.000000 0.000000
# 2 -0.004576 0.014371 -0.019443 0.000000 0.000000 0.000000
# 3 0.012762 -0.019443 0.046459 0.000000 0.000000 0.000000
# 4 0.000000 0.000000 0.000000 0.036034 0.000000 0.000000
# 5 0.000000 0.000000 0.000000 0.000000 -0.080378 0.000000
# 6 0.000000 0.000000 0.000000 0.000000 0.000000 0.056136
#
#
# Mechanical properties :
#
#
# Convention : Reuss Voigt Hill
#
# Bulk Modulus (GPa) = 9.98572 38.83515 24.41044
# Shear Modulus (GPa) = 26.26780 17.90302 22.08541
#
# Velocity S-wave (km/s) = 3.66852 3.02860 3.36381
# Velocity P-wave (km/s) = 4.80210 5.66804 5.25295
#
# Compressibility (1/GPa) = 0.10014302
#
# Stress axis : x y z
#
# Youngs Moduli (GPa) = 16.17366 69.58586 21.52445
#
# Poissons Ratio (x) = 0.31845 -0.27468
# Poissons Ratio (y) = 0.07402 0.41850
# Poissons Ratio (z) = -0.20640 1.35295
#
# Static dielectric constant tensor:
#      x y z
#    x 1.704910 0.000000 0.000000 
#    y 0.000000 1.693350 0.000000 
#    z 0.000000 0.000000 1.422840 
# 
# From -- ./inp_files/73940.got.cif
#   From: 2010.05.17/outbox.cif.g08.bks.cpg/sg65_37_cif.got.tgz:73940.got - 2010.06.03 17:01:31.
