data_PCOD9483424
_publ_section_title
;
Structure prediction by ZEFSAII (Michael W. Deem and Ramdas Pophale) SiO2 
 PCOD9483424
Probable space group: C M M M
;
_chemical_formula_sum "Si O2"
_cell_formula_units_Z 72
_cell_length_a 33.222541
_cell_length_b 10.588531
_cell_length_c 13.907515
_cell_angle_alpha 90.000000
_cell_angle_beta 90.000000
_cell_angle_gamma 90.000000
_cell_volume 4892.356494
_symmetry_space_group_name_H-M "C M M M"
_symmetry_group_IT_number 65
_symmetry_cell_setting 'orthorhombic'
loop_
_space_group_symop_operation_xyz
x,y,z
-x,-y,z
x,-y,-z
-x,y,-z
-x,-y,-z
x,y,-z
-x,y,z
x,-y,z
1/2+x,1/2+y,z
1/2-x,1/2-y,z
1/2+x,1/2-y,-z
1/2-x,1/2+y,-z
1/2-x,1/2-y,-z
1/2+x,1/2+y,-z
1/2-x,1/2+y,z
1/2+x,1/2-y,z
loop_
_atom_site_type_symbol
_atom_site_label
_atom_site_fract_x
_atom_site_fract_y
_atom_site_fract_z
Si Si1 0.131776 0.500000 0.616228
Si Si2 0.860307 0.000000 0.615267
Si Si3 0.801261 0.500000 0.772718
Si Si4 0.701207 0.748695 0.890160
Si Si5 0.086450 0.242627 0.383559
Si Si6 0.000000 0.851792 0.382698
Si Si7 0.704441 0.500000 0.229639
O O1 0.137885 0.500000 0.500000
O O2 0.173443 0.500000 0.674643
O O3 0.106493 0.624929 0.643492
O O4 0.885591 0.875770 0.643219
O O5 0.855607 0.000000 0.500000
O O6 0.818137 0.000000 0.669329
O O7 0.811240 0.625033 0.834246
O O8 0.752847 0.500000 0.757739
O O9 0.750000 0.750000 0.894889
O O10 0.691595 0.623369 0.830394
O O11 0.686382 0.745438 0.000000
O O12 0.084841 0.242719 0.500000
O O13 0.040943 0.216134 0.350116
O O14 0.000000 0.850111 0.500000
O O15 0.000000 0.000000 0.355604
#
# Coordination Sequence:
#
# PCOD9483424 Si02
#       7
#     8   8   8  16  16   8   8
#     4  10  20  31  41  60  93 127 154 182 214 249
#     4  10  18  29  43  62  89 123 158 184 210 249
#     4  10  19  31  45  62  87 123 157 181 217 265
#     4   9  17  30  47  65  83 106 143 191 239 277
#     4   9  17  28  43  61  84 116 150 184 221 259
#     4   9  14  25  45  65  81 105 148 188 221 268
#     4  10  19  29  45  66  87 117 155 191 221 253
#
# _framework density 14.716832999999999
#
# number of rings (size 3 to 8) (size 9 to 14) (size 15 to 20)
#    0.000    2.556    1.111    2.000    0.000    3.556 
#    0.000    2.222    0.000    8.000    0.000    0.000 
#    0.000    0.000    0.000   70.000    0.000    7.778 
#
# Total GULP energy -200495.597798 kJ/mol
# GULP energy per Si atom -5569.322161 kJ/mol
# Density = 1.468334 g / cm^3
# Si number density = 14.716833 Si / 1000 Ang^3
#
#
#
# Elastic Constant Matrix: (Units=GPa)
#
#
# Indices 1 2 3 4 5 6 
#
# 1 78.3438 51.3740 40.1150 0.0000 0.0000 0.0000
# 2 51.3740 149.2400 41.5962 0.0000 0.0000 0.0000
# 3 40.1150 41.5962 55.0654 0.0000 0.0000 0.0000
# 4 0.0000 0.0000 0.0000 7.0625 0.0000 0.0000
# 5 0.0000 0.0000 0.0000 0.0000 0.7777 0.0000
# 6 0.0000 0.0000 0.0000 0.0000 0.0000 7.9404
#
#
#
# Elastic Compliance Matrix: (Units=1/GPa)
#
#
# Indices 1 2 3 4 5 6 
#
# 1 0.022050 -0.003944 -0.013084 0.000000 0.000000 0.000000
# 2 -0.003944 0.009193 -0.004071 0.000000 0.000000 0.000000
# 3 -0.013084 -0.004071 0.030768 0.000000 0.000000 0.000000
# 4 0.000000 0.000000 0.000000 0.141594 0.000000 0.000000
# 5 0.000000 0.000000 0.000000 0.000000 1.285885 0.000000
# 6 0.000000 0.000000 0.000000 0.000000 0.000000 0.125939
#
#
# Mechanical properties :
#
#
# Convention : Reuss Voigt Hill
#
# Bulk Modulus (GPa) = 50.47488 60.97995 55.72741
# Shear Modulus (GPa) = 3.00439 13.12704 8.06572
#
# Velocity S-wave (km/s) = 1.43035 2.98983 2.34361
# Velocity P-wave (km/s) = 6.09095 7.31056 6.72845
#
# Compressibility (1/GPa) = 0.01981184
#
# Stress axis : x y z
#
# Youngs Moduli (GPa) = 45.35170 108.77933 32.50165
#
# Poissons Ratio (x) = 0.42897 0.42526
# Poissons Ratio (y) = 0.17885 0.13233
# Poissons Ratio (z) = 0.59340 0.44289
#
# Static dielectric constant tensor:
#      x y z
#    x 1.476650 0.000000 0.000000 
#    y 0.000000 1.498900 0.000000 
#    z 0.000000 0.000000 1.464450 
# 
# From -- ./inp_files/46617.got.cif
#   From: 2010.05.17/outbox.cif.g08.bks.cpg/sg65_24_cif.got.tgz:46617.got - 2010.06.03 17:01:31.
