data_PCOD9483010
_publ_section_title
;
Structure prediction by ZEFSAII (Michael W. Deem and Ramdas Pophale) SiO2 
 PCOD9483010
Probable space group: C M M M
;
_chemical_formula_sum "Si O2"
_cell_formula_units_Z 72
_cell_length_a 8.237693
_cell_length_b 21.486296
_cell_length_c 23.150257
_cell_angle_alpha 90.000000
_cell_angle_beta 90.000000
_cell_angle_gamma 90.000000
_cell_volume 4097.537848
_symmetry_space_group_name_H-M "C M M M"
_symmetry_group_IT_number 65
_symmetry_cell_setting 'orthorhombic'
loop_
_space_group_symop_operation_xyz
x,y,z
-x,-y,z
x,-y,-z
-x,y,-z
-x,-y,-z
x,y,-z
-x,y,z
x,-y,z
1/2+x,1/2+y,z
1/2-x,1/2-y,z
1/2+x,1/2-y,-z
1/2-x,1/2+y,-z
1/2-x,1/2-y,-z
1/2+x,1/2+y,-z
1/2-x,1/2+y,z
1/2+x,1/2-y,z
loop_
_atom_site_type_symbol
_atom_site_label
_atom_site_fract_x
_atom_site_fract_y
_atom_site_fract_z
Si Si1 0.250000 0.750000 0.867354
Si Si2 0.816342 0.357966 0.779206
Si Si3 0.000000 0.926277 0.170368
Si Si4 0.500000 0.664325 0.932060
Si Si5 0.193755 0.680899 0.351686
Si Si6 0.301823 0.069984 0.433050
O O1 0.173415 0.700118 0.823206
O O2 0.353140 0.706649 0.909409
O O3 0.665502 0.400054 0.800249
O O4 0.771907 0.333666 0.715359
O O5 0.000000 0.386176 0.776851
O O6 0.000000 0.898404 0.105547
O O7 0.000000 0.000000 0.171673
O O8 0.500000 0.654306 0.000000
O O9 0.250000 0.750000 0.367197
O O10 0.258107 0.625336 0.392173
O O11 0.000000 0.680498 0.357396
O O12 0.255664 0.079518 0.500000
O O13 0.500000 0.070185 0.431323
O O14 0.250805 0.000000 0.415422
#
# Coordination Sequence:
#
# PCOD9483010 Si02
#       6
#     8  16   8   8  16  16
#     4  10  17  32  54  82 113 140 180 220 286 328
#     4  10  20  35  57  82 114 149 178 229 281 332
#     4  10  24  39  56  82 111 151 191 221 275 331
#     4  10  20  33  56  82 109 143 183 231 269 323
#     4  10  20  30  52  81 107 139 176 223 282 333
#     4   8  15  30  49  70 100 139 184 227 266 320
#
# _framework density 17.571529000000002
#
# number of rings (size 3 to 8) (size 9 to 14) (size 15 to 20)
#    0.000    2.444    2.222    1.000    1.556    2.000 
#    0.000    2.222    0.000    0.000    0.000    4.667 
#    0.000    0.000    0.000    0.000    0.000    0.000 
#
# Total GULP energy -200416.792648 kJ/mol
# GULP energy per Si atom -5567.133129 kJ/mol
# Density = 1.753154 g / cm^3
# Si number density = 17.571529 Si / 1000 Ang^3
#
#
#
# Elastic Constant Matrix: (Units=GPa)
#
#
# Indices 1 2 3 4 5 6 
#
# 1 53.9517 47.5485 25.5554 0.0000 0.0000 0.0000
# 2 47.5485 161.1352 82.5953 0.0000 0.0000 0.0000
# 3 25.5554 82.5953 117.6816 0.0000 0.0000 0.0000
# 4 0.0000 0.0000 0.0000 10.8729 0.0000 0.0000
# 5 0.0000 0.0000 0.0000 0.0000 19.8794 0.0000
# 6 0.0000 0.0000 0.0000 0.0000 0.0000 110.3383
#
#
#
# Elastic Compliance Matrix: (Units=1/GPa)
#
#
# Indices 1 2 3 4 5 6 
#
# 1 0.025061 -0.007194 -0.000393 0.000000 0.000000 0.000000
# 2 -0.007194 0.011758 -0.006690 0.000000 0.000000 0.000000
# 3 -0.000393 -0.006690 0.013279 0.000000 0.000000 0.000000
# 4 0.000000 0.000000 0.000000 0.091972 0.000000 0.000000
# 5 0.000000 0.000000 0.000000 0.000000 0.050303 0.000000
# 6 0.000000 0.000000 0.000000 0.000000 0.000000 0.009063
#
#
# Mechanical properties :
#
#
# Convention : Reuss Voigt Hill
#
# Bulk Modulus (GPa) = 46.41810 71.57409 58.99609
# Shear Modulus (GPa) = 21.08179 40.02275 30.55227
#
# Velocity S-wave (km/s) = 3.46753 4.77771 4.17434
# Velocity P-wave (km/s) = 6.51964 8.44137 7.54196
#
# Compressibility (1/GPa) = 0.02154332
#
# Stress axis : x y z
#
# Youngs Moduli (GPa) = 39.90233 85.04856 75.30951
#
# Poissons Ratio (x) = 0.61180 0.02963
# Poissons Ratio (y) = 0.28704 0.50384
# Poissons Ratio (z) = 0.01570 0.56900
#
# Static dielectric constant tensor:
#      x y z
#    x 1.648930 0.000000 0.000000 
#    y 0.000000 1.580670 0.000000 
#    z 0.000000 0.000000 1.577640 
# 
# From -- ./inp_files/64422.got.cif
#   From: 2010.05.17/outbox.cif.g08.bks.cpg/sg65_33_cif.got.tgz:64422.got - 2010.06.03 17:01:31.
