data_PCOD9483531
_publ_section_title
;
Structure prediction by ZEFSAII (Michael W. Deem and Ramdas Pophale) SiO2 
 PCOD9483531
Probable space group: C M M M
;
_chemical_formula_sum "Si O2"
_cell_formula_units_Z 80
_cell_length_a 19.089099
_cell_length_b 8.402551
_cell_length_c 27.384949
_cell_angle_alpha 90.000000
_cell_angle_beta 90.000000
_cell_angle_gamma 90.000000
_cell_volume 4392.467167
_symmetry_space_group_name_H-M "C M M M"
_symmetry_group_IT_number 65
_symmetry_cell_setting 'orthorhombic'
loop_
_space_group_symop_operation_xyz
x,y,z
-x,-y,z
x,-y,-z
-x,y,-z
-x,-y,-z
x,y,-z
-x,y,z
x,-y,z
1/2+x,1/2+y,z
1/2-x,1/2-y,z
1/2+x,1/2-y,-z
1/2-x,1/2+y,-z
1/2-x,1/2-y,-z
1/2+x,1/2+y,-z
1/2-x,1/2+y,z
1/2+x,1/2-y,z
loop_
_atom_site_type_symbol
_atom_site_label
_atom_site_fract_x
_atom_site_fract_y
_atom_site_fract_z
Si Si1 0.830489 0.189023 0.500000
Si Si2 0.581240 0.805109 0.304060
Si Si3 0.329825 0.190726 0.397079
Si Si4 0.585253 0.815136 0.802016
Si Si5 0.918659 0.693134 0.908737
Si Si6 0.170720 0.810947 0.000000
O O1 0.750000 0.250000 0.500000
O O2 0.860728 0.250635 0.551176
O O3 0.830134 0.000000 0.500000
O O4 0.500000 0.759620 0.310339
O O5 0.626956 0.753603 0.349984
O O6 0.606646 0.746871 0.250592
O O7 0.582769 0.000000 0.302527
O O8 0.250000 0.250000 0.393364
O O9 0.329410 0.000000 0.397891
O O10 0.500000 0.815224 0.801487
O O11 0.604839 0.746935 0.854888
O O12 0.607692 0.000000 0.802289
O O13 0.917831 0.500000 0.907461
O O14 0.870270 0.750523 0.952250
O O15 0.000000 0.740440 0.916649
O O16 0.250000 0.750000 0.000000
O O17 0.170788 0.000000 0.000000
#
# Coordination Sequence:
#
# PCOD9483531 Si02
#       6
#     8  16  16  16  16   8
#     4  10  18  30  47  64  87 119 157 197 233 276
#     4   8  14  26  46  72  98 124 156 192 228 269
#     4  10  18  29  47  69  93 120 153 194 235 277
#     4   7  11  23  46  74  99 123 154 191 229 271
#     4   9  17  32  56  81 102 127 162 201 239 286
#     4  12  25  38  51  69  99 135 167 204 249 294
#
# _framework density 18.212999
#
# number of rings (size 3 to 8) (size 9 to 14) (size 15 to 20)
#    0.000    3.000    0.000    6.300    0.000    1.600 
#    0.000    1.500    0.000   10.200    0.000    5.600 
#    0.000    0.000    0.000    0.000    0.000    0.000 
#
# Total GULP energy -222736.523992 kJ/mol
# GULP energy per Si atom -5568.413100 kJ/mol
# Density = 1.817155 g / cm^3
# Si number density = 18.212999 Si / 1000 Ang^3
#
#
#
# Elastic Constant Matrix: (Units=GPa)
#
#
# Indices 1 2 3 4 5 6 
#
# 1 59.8163 14.8371 82.2667 0.0000 0.0000 0.0000
# 2 14.8371 37.8611 32.5012 0.0000 0.0000 0.0000
# 3 82.2667 32.5012 244.7782 0.0000 0.0000 0.0000
# 4 0.0000 0.0000 0.0000 10.4825 0.0000 0.0000
# 5 0.0000 0.0000 0.0000 0.0000 106.1036 0.0000
# 6 0.0000 0.0000 0.0000 0.0000 0.0000 15.2177
#
#
#
# Elastic Compliance Matrix: (Units=1/GPa)
#
#
# Indices 1 2 3 4 5 6 
#
# 1 0.031535 -0.003679 -0.010110 0.000000 0.000000 0.000000
# 2 -0.003679 0.030239 -0.002779 0.000000 0.000000 0.000000
# 3 -0.010110 -0.002779 0.007852 0.000000 0.000000 0.000000
# 4 0.000000 0.000000 0.000000 0.095397 0.000000 0.000000
# 5 0.000000 0.000000 0.000000 0.000000 0.009425 0.000000
# 6 0.000000 0.000000 0.000000 0.000000 0.000000 0.065713
#
#
# Mechanical properties :
#
#
# Convention : Reuss Voigt Hill
#
# Bulk Modulus (GPa) = 27.40413 66.85173 47.12793
# Shear Modulus (GPa) = 17.51557 40.55080 29.03318
#
# Velocity S-wave (km/s) = 3.10450 4.72367 3.99694
# Velocity P-wave (km/s) = 5.28486 8.15696 6.87262
#
# Compressibility (1/GPa) = 0.03649085
#
# Stress axis : x y z
#
# Youngs Moduli (GPa) = 31.71096 33.06941 127.35480
#
# Poissons Ratio (x) = 0.12167 1.28755
# Poissons Ratio (y) = 0.11667 0.35387
# Poissons Ratio (z) = 0.32060 0.09189
#
# Static dielectric constant tensor:
#      x y z
#    x 1.601370 0.000000 0.000000 
#    y 0.000000 1.779550 0.000000 
#    z 0.000000 0.000000 1.689100 
# 
# From -- ./inp_files/75283.got.cif
#   From: 2010.05.17/outbox.cif.g08.bks.cpg/sg65_38_cif.got.tgz:75283.got - 2010.06.03 17:01:31.
