data_PCOD9483913
_publ_section_title
;
Structure prediction by ZEFSAII (Michael W. Deem and Ramdas Pophale) SiO2 
 PCOD9483913
Probable space group: C M M M
;
_chemical_formula_sum "Si O2"
_cell_formula_units_Z 88
_cell_length_a 7.491121
_cell_length_b 27.400190
_cell_length_c 20.539064
_cell_angle_alpha 90.000000
_cell_angle_beta 90.000000
_cell_angle_gamma 90.000000
_cell_volume 4215.810048
_symmetry_space_group_name_H-M "C M M M"
_symmetry_group_IT_number 65
_symmetry_cell_setting 'orthorhombic'
loop_
_space_group_symop_operation_xyz
x,y,z
-x,-y,z
x,-y,-z
-x,y,-z
-x,-y,-z
x,y,-z
-x,y,z
x,-y,z
1/2+x,1/2+y,z
1/2-x,1/2-y,z
1/2+x,1/2-y,-z
1/2-x,1/2+y,-z
1/2-x,1/2-y,-z
1/2+x,1/2+y,-z
1/2-x,1/2+y,z
1/2+x,1/2-y,z
loop_
_atom_site_type_symbol
_atom_site_label
_atom_site_fract_x
_atom_site_fract_y
_atom_site_fract_z
Si Si1 0.219282 0.943533 0.227337
Si Si2 0.214317 0.192922 0.000000
Si Si3 0.712731 0.557632 0.500000
Si Si4 0.798355 0.124727 0.113697
Si Si5 0.707279 0.596741 0.634815
Si Si6 0.287994 0.943101 0.000000
Si Si7 0.288178 0.806454 0.574187
O O1 0.281972 0.901501 0.177061
O O2 0.278778 0.926597 0.299211
O O3 0.000000 0.943080 0.224424
O O4 0.272516 0.000000 0.213674
O O5 0.250000 0.250000 0.000000
O O6 0.281663 0.167091 0.933154
O O7 0.000000 0.184284 0.000000
O O8 0.729780 0.500000 0.500000
O O9 0.500000 0.569879 0.500000
O O10 0.789088 0.577979 0.567190
O O11 0.799700 0.080325 0.062802
O O12 0.000000 0.140494 0.131041
O O13 0.500000 0.581497 0.634691
O O14 0.715701 0.655119 0.626373
O O15 0.500000 0.931695 0.000000
O O16 0.266087 0.000000 0.000000
O O17 0.218979 0.816079 0.500000
O O18 0.500000 0.812563 0.572539
O O19 0.250000 0.750000 0.588935
#
# Coordination Sequence:
#
# PCOD9483913 Si02
#       7
#    16   8   8  16  16   8  16
#     4   9  17  30  51  78 106 138 175 212 250 298
#     4   9  18  32  52  76  99 128 166 208 255 300
#     4   9  16  26  44  71 100 131 170 213 254 301
#     4   9  18  33  52  74 100 133 174 212 248 300
#     4  10  18  30  50  76 105 135 171 215 261 310
#     4  10  19  29  45  73 104 130 162 206 254 303
#     4  10  20  34  53  74  97 126 166 215 268 321
#
# _framework density 20.873805999999998
#
# number of rings (size 3 to 8) (size 9 to 14) (size 15 to 20)
#    0.000    2.545    0.909    2.455    0.000    5.818 
#    0.000    1.818    0.000    6.000    0.000    0.000 
#    0.000    0.000    0.000    0.000    0.000    0.000 
#
# Total GULP energy -245222.241286 kJ/mol
# GULP energy per Si atom -5573.232757 kJ/mol
# Density = 2.082630 g / cm^3
# Si number density = 20.873806 Si / 1000 Ang^3
#
#
#
# Elastic Constant Matrix: (Units=GPa)
#
#
# Indices 1 2 3 4 5 6 
#
# 1 58.5842 3.2134 1.9214 0.0000 0.0000 0.0000
# 2 3.2134 118.4760 70.7057 0.0000 0.0000 0.0000
# 3 1.9214 70.7057 149.1393 0.0000 0.0000 0.0000
# 4 0.0000 0.0000 0.0000 10.0043 0.0000 0.0000
# 5 0.0000 0.0000 0.0000 0.0000 -7.8774 0.0000
# 6 0.0000 0.0000 0.0000 0.0000 0.0000 15.5430
#
#
#
# Elastic Compliance Matrix: (Units=1/GPa)
#
#
# Indices 1 2 3 4 5 6 
#
# 1 0.017095 -0.000463 -0.000001 0.000000 0.000000 0.000000
# 2 -0.000463 0.011783 -0.005580 0.000000 0.000000 0.000000
# 3 -0.000001 -0.005580 0.009351 0.000000 0.000000 0.000000
# 4 0.000000 0.000000 0.000000 0.099957 0.000000 0.000000
# 5 0.000000 0.000000 0.000000 0.000000 -0.126945 0.000000
# 6 0.000000 0.000000 0.000000 0.000000 0.000000 0.064338
#
#
# Mechanical properties :
#
#
# Convention : Reuss Voigt Hill
#
# Bulk Modulus (GPa) = 38.25493 53.09782 45.67638
# Shear Modulus (GPa) = 51.87767 20.22459 36.05113
#
# Velocity S-wave (km/s) = 4.99069 3.11609 4.16035
# Velocity P-wave (km/s) = 7.18163 6.19996 6.70877
#
# Compressibility (1/GPa) = 0.02614042
#
# Stress axis : x y z
#
# Youngs Moduli (GPa) = 58.49707 84.86451 106.94261
#
# Poissons Ratio (x) = 0.03932 0.00006
# Poissons Ratio (y) = 0.02710 0.59679
# Poissons Ratio (z) = 0.00003 0.47359
#
# Static dielectric constant tensor:
#      x y z
#    x 1.804650 0.000000 0.000000 
#    y 0.000000 1.738740 0.000000 
#    z 0.000000 0.000000 1.770400 
# 
# From -- ./inp_files/60738.got.cif
#   From: 2010.05.17/outbox.cif.g08.bks.cpg/sg65_31_cif.got.tgz:60738.got - 2010.06.03 17:01:31.
