data_PCOD9483519
_publ_section_title
;
Structure prediction by ZEFSAII (Michael W. Deem and Ramdas Pophale) SiO2 
 PCOD9483519
Probable space group: C M M M
;
_chemical_formula_sum "Si O2"
_cell_formula_units_Z 80
_cell_length_a 24.431814
_cell_length_b 26.382883
_cell_length_c 8.877934
_cell_angle_alpha 90.000000
_cell_angle_beta 90.000000
_cell_angle_gamma 90.000000
_cell_volume 5722.553704
_symmetry_space_group_name_H-M "C M M M"
_symmetry_group_IT_number 65
_symmetry_cell_setting 'orthorhombic'
loop_
_space_group_symop_operation_xyz
x,y,z
-x,-y,z
x,-y,-z
-x,y,-z
-x,-y,-z
x,y,-z
-x,y,z
x,-y,z
1/2+x,1/2+y,z
1/2-x,1/2-y,z
1/2+x,1/2-y,-z
1/2-x,1/2+y,-z
1/2-x,1/2-y,-z
1/2+x,1/2+y,-z
1/2-x,1/2+y,z
1/2+x,1/2-y,z
loop_
_atom_site_type_symbol
_atom_site_label
_atom_site_fract_x
_atom_site_fract_y
_atom_site_fract_z
Si Si1 0.379540 0.758443 0.818476
Si Si2 0.889181 0.559508 0.179230
Si Si3 0.500000 0.215241 0.819762
Si Si4 0.000000 0.603522 0.320036
Si Si5 0.719033 0.304567 0.173937
Si Si6 0.182130 0.644937 0.678849
O O1 0.443750 0.755731 0.784857
O O2 0.342024 0.710435 0.775011
O O3 0.355041 0.808634 0.741139
O O4 0.372763 0.764358 0.000000
O O5 0.880310 0.500000 0.205888
O O6 0.841494 0.594298 0.246918
O O7 0.945936 0.576945 0.254731
O O8 0.893081 0.568215 0.000000
O O9 0.500000 0.161677 0.735019
O O10 0.500000 0.204822 0.000000
O O11 0.000000 0.601246 0.500000
O O12 0.750000 0.250000 0.177004
O O13 0.756053 0.341835 0.271337
O O14 0.718431 0.321642 0.000000
O O15 0.177483 0.642637 0.500000
#
# Coordination Sequence:
#
# PCOD9483519 Si02
#       6
#    16  16   8   8  16  16
#     4   9  17  29  45  63  84 113 146 176 208 255
#     4  11  23  37  50  61  78 111 150 184 221 264
#     4  10  18  29  47  64  86 119 149 177 212 253
#     4  12  23  33  46  65  86 110 142 185 229 257
#     4   8  15  28  44  61  82 109 141 173 208 255
#     4  11  20  29  44  64  85 107 137 181 225 259
#
# _framework density 13.979772000000001
#
# number of rings (size 3 to 8) (size 9 to 14) (size 15 to 20)
#    0.000    2.000    2.000    4.800    0.000    6.400 
#    0.000    0.000    0.000    0.000    0.000    0.000 
#    0.000    0.000    0.000    0.900    0.000   20.600 
#
# Total GULP energy -223067.557955 kJ/mol
# GULP energy per Si atom -5576.688949 kJ/mol
# Density = 1.394795 g / cm^3
# Si number density = 13.979772 Si / 1000 Ang^3
#
#
#
# Elastic Constant Matrix: (Units=GPa)
#
#
# Indices 1 2 3 4 5 6 
#
# 1 123.5301 60.2595 52.9747 0.0000 0.0000 0.0000
# 2 60.2595 58.6697 41.1220 0.0000 0.0000 0.0000
# 3 52.9747 41.1220 61.7813 0.0000 0.0000 0.0000
# 4 0.0000 0.0000 0.0000 -16.5338 0.0000 0.0000
# 5 0.0000 0.0000 0.0000 0.0000 3.4811 0.0000
# 6 0.0000 0.0000 0.0000 0.0000 0.0000 9.3350
#
#
#
# Elastic Compliance Matrix: (Units=1/GPa)
#
#
# Indices 1 2 3 4 5 6 
#
# 1 0.017200 -0.013738 -0.005604 0.000000 0.000000 0.000000
# 2 -0.013738 0.042923 -0.016790 0.000000 0.000000 0.000000
# 3 -0.005604 -0.016790 0.032167 0.000000 0.000000 0.000000
# 4 0.000000 0.000000 0.000000 -0.060482 0.000000 0.000000
# 5 0.000000 0.000000 0.000000 0.000000 0.287264 0.000000
# 6 0.000000 0.000000 0.000000 0.000000 0.000000 0.107124
#
#
# Mechanical properties :
#
#
# Convention : Reuss Voigt Hill
#
# Bulk Modulus (GPa) = 49.93607 61.41036 55.67322
# Shear Modulus (GPa) = 9.89832 5.23146 7.56489
#
# Velocity S-wave (km/s) = 2.66380 1.93657 2.32875
# Velocity P-wave (km/s) = 6.72747 7.00170 6.86595
#
# Compressibility (1/GPa) = 0.02002560
#
# Stress axis : x y z
#
# Youngs Moduli (GPa) = 58.13906 23.29729 31.08785
#
# Poissons Ratio (x) = 0.32007 0.17422
# Poissons Ratio (y) = 0.79873 0.52197
# Poissons Ratio (z) = 0.32581 0.39116
#
# Static dielectric constant tensor:
#      x y z
#    x 1.490580 0.000000 0.000000 
#    y 0.000000 1.430230 0.000000 
#    z 0.000000 0.000000 1.464190 
# 
# From -- ./inp_files/14224.got.cif
#   From: 2010.05.17/outbox.cif.g08.bks.cpg/sg65_8_cif.got.tgz:14224.got - 2010.06.03 17:01:31.
