data_PCOD9483676
_publ_section_title
;
Structure prediction by ZEFSAII (Michael W. Deem and Ramdas Pophale) SiO2 
 PCOD9483676
Probable space group: C M M M
;
_chemical_formula_sum "Si O2"
_cell_formula_units_Z 64
_cell_length_a 7.611817
_cell_length_b 40.772195
_cell_length_c 10.666434
_cell_angle_alpha 90.000000
_cell_angle_beta 90.000000
_cell_angle_gamma 90.000000
_cell_volume 3310.332987
_symmetry_space_group_name_H-M "C M M M"
_symmetry_group_IT_number 65
_symmetry_cell_setting 'orthorhombic'
loop_
_space_group_symop_operation_xyz
x,y,z
-x,-y,z
x,-y,-z
-x,y,-z
-x,-y,-z
x,y,-z
-x,y,z
x,-y,z
1/2+x,1/2+y,z
1/2-x,1/2-y,z
1/2+x,1/2-y,-z
1/2-x,1/2+y,-z
1/2-x,1/2-y,-z
1/2+x,1/2+y,-z
1/2-x,1/2+y,z
1/2+x,1/2-y,z
loop_
_atom_site_type_symbol
_atom_site_label
_atom_site_fract_x
_atom_site_fract_y
_atom_site_fract_z
Si Si1 0.211161 0.035260 0.145791
Si Si2 0.291067 0.892998 0.144084
Si Si3 0.284531 0.825167 0.750253
Si Si4 0.710037 0.211786 0.000000
Si Si5 0.288862 0.788686 0.500000
O O1 0.261626 0.070632 0.198304
O O2 0.000000 0.034581 0.145073
O O3 0.271463 0.000000 0.199339
O O4 0.270842 0.035916 0.000000
O O5 0.500000 0.888798 0.133358
O O6 0.227411 0.862737 0.227754
O O7 0.220319 0.891354 0.000000
O O8 0.500000 0.824685 0.747085
O O9 0.223753 0.807072 0.624810
O O10 0.225864 0.805404 0.873519
O O11 0.750000 0.250000 0.000000
O O12 0.500000 0.207501 0.000000
O O13 0.500000 0.791550 0.500000
O O14 0.250000 0.750000 0.500000
#
# Coordination Sequence:
#
# PCOD9483676 Si02
#       5
#    16  16  16   8   8
#     4   8  14  24  37  57  89 122 144 169 213 260
#     4   9  15  25  42  62  84 112 146 180 213 253
#     4   9  17  30  47  65  87 116 145 179 223 264
#     4  10  18  30  46  64  87 112 141 177 220 265
#     4  10  20  34  50  66  87 116 149 183 222 267
#
# _framework density 19.333403000000001
#
# number of rings (size 3 to 8) (size 9 to 14) (size 15 to 20)
#    0.000    3.000    1.250    1.500    0.000    0.500 
#    0.000    5.000    0.000    0.000    0.000    0.875 
#    0.000    7.000    0.000    0.000    0.000    0.000 
#
# Total GULP energy -178256.955493 kJ/mol
# GULP energy per Si atom -5570.529859 kJ/mol
# Density = 1.928940 g / cm^3
# Si number density = 19.333403 Si / 1000 Ang^3
#
#
#
# Elastic Constant Matrix: (Units=GPa)
#
#
# Indices 1 2 3 4 5 6 
#
# 1 35.3525 1.5623 8.1965 0.0000 0.0000 0.0000
# 2 1.5623 242.3059 92.6792 0.0000 0.0000 0.0000
# 3 8.1965 92.6792 116.9896 0.0000 0.0000 0.0000
# 4 0.0000 0.0000 0.0000 21.0036 0.0000 0.0000
# 5 0.0000 0.0000 0.0000 0.0000 -1.5793 0.0000
# 6 0.0000 0.0000 0.0000 0.0000 0.0000 24.7161
#
#
#
# Elastic Compliance Matrix: (Units=1/GPa)
#
#
# Indices 1 2 3 4 5 6 
#
# 1 0.028873 0.000843 -0.002691 0.000000 0.000000 0.000000
# 2 0.000843 0.005946 -0.004769 0.000000 0.000000 0.000000
# 3 -0.002691 -0.004769 0.012515 0.000000 0.000000 0.000000
# 4 0.000000 0.000000 0.000000 0.047611 0.000000 0.000000
# 5 0.000000 0.000000 0.000000 0.000000 -0.633209 0.000000
# 6 0.000000 0.000000 0.000000 0.000000 0.000000 0.040459
#
#
# Mechanical properties :
#
#
# Convention : Reuss Voigt Hill
#
# Bulk Modulus (GPa) = 29.32602 66.61376 47.96989
# Shear Modulus (GPa) = -10.56625 28.30876 8.87125
#
# Velocity S-wave (km/s) = -2.34033 3.83069 2.14442
# Velocity P-wave (km/s) = 2.81045 7.35498 5.56751
#
# Compressibility (1/GPa) = 0.03409941
#
# Stress axis : x y z
#
# Youngs Moduli (GPa) = 34.63424 168.18639 79.90710
#
# Poissons Ratio (x) = -0.14178 0.21501
# Poissons Ratio (y) = -0.02920 0.38110
# Poissons Ratio (z) = 0.09319 0.80213
#
# Static dielectric constant tensor:
#      x y z
#    x 1.725930 0.000000 0.000000 
#    y 0.000000 1.725770 0.000000 
#    z 0.000000 0.000000 1.653180 
# 
# From -- ./inp_files/4933.got.cif
#   From: 2010.05.17/outbox.cif.g08.bks.cpg/sg65_3_cif.got.tgz:4933.got - 2010.06.03 17:01:31.
