data_PCOD9483960
_publ_section_title
;
Structure prediction by ZEFSAII (Michael W. Deem and Ramdas Pophale) SiO2 
 PCOD9483960
Probable space group: C M M M
;
_chemical_formula_sum "Si O2"
_cell_formula_units_Z 120
_cell_length_a 8.699080
_cell_length_b 29.313124
_cell_length_c 27.442423
_cell_angle_alpha 90.000000
_cell_angle_beta 90.000000
_cell_angle_gamma 90.000000
_cell_volume 6997.741321
_symmetry_space_group_name_H-M "C M M M"
_symmetry_group_IT_number 65
_symmetry_cell_setting 'orthorhombic'
loop_
_space_group_symop_operation_xyz
x,y,z
-x,-y,z
x,-y,-z
-x,y,-z
-x,-y,-z
x,y,-z
-x,y,z
x,-y,z
1/2+x,1/2+y,z
1/2-x,1/2-y,z
1/2+x,1/2-y,-z
1/2-x,1/2+y,-z
1/2-x,1/2-y,-z
1/2+x,1/2+y,-z
1/2-x,1/2+y,z
1/2+x,1/2-y,z
loop_
_atom_site_type_symbol
_atom_site_label
_atom_site_fract_x
_atom_site_fract_y
_atom_site_fract_z
Si Si1 0.314032 0.890772 0.095257
Si Si2 0.671610 0.447367 0.441942
Si Si3 0.187389 0.447594 0.000000
Si Si4 0.183338 0.947768 0.296170
Si Si5 0.323094 0.881042 0.624442
Si Si6 0.683803 0.298971 0.056851
Si Si7 0.313700 0.199005 0.444540
Si Si8 0.184355 0.447346 0.810834
O O1 0.500000 0.889375 0.094672
O O2 0.264233 0.920985 0.048668
O O3 0.249597 0.840387 0.087916
O O4 0.265752 0.914510 0.145516
O O5 0.675834 0.445648 0.500000
O O6 0.500000 0.431466 0.426211
O O7 0.684977 0.500000 0.427083
O O8 0.803092 0.417323 0.419069
O O9 0.238774 0.500000 0.000000
O O10 0.000000 0.448023 0.000000
O O11 0.242703 0.907640 0.331259
O O12 0.237527 0.938861 0.241012
O O13 0.000000 0.948568 0.298575
O O14 0.237904 0.000000 0.308737
O O15 0.500000 0.873516 0.637530
O O16 0.261349 0.834809 0.598799
O O17 0.500000 0.298134 0.059112
O O18 0.750000 0.250000 0.071696
O O19 0.729740 0.306358 0.000000
O O20 0.268690 0.183866 0.500000
O O21 0.500000 0.199678 0.443491
O O22 0.250000 0.250000 0.438115
O O23 0.215137 0.500000 0.824861
O O24 0.000000 0.442882 0.804846
#
# Coordination Sequence:
#
# PCOD9483960 Si02
#       8
#    16  16   8  16  16  16  16  16
#     4  10  18  30  51  77 105 136 171 211 256 307
#     4   9  18  31  45  65  97 134 167 197 234 288
#     4   9  16  26  44  73 106 137 168 201 242 299
#     4  10  21  36  53  74 101 135 175 215 255 303
#     4  11  21  32  50  75 101 128 163 210 257 299
#     4  10  20  33  50  72 101 135 173 213 254 301
#     4   9  19  35  53  75 103 133 166 204 248 301
#     4   9  18  33  53  77 104 136 174 213 253 300
#
# _framework density 17.148392000000001
#
# number of rings (size 3 to 8) (size 9 to 14) (size 15 to 20)
#    0.000    2.333    0.667    2.800    0.000    7.200 
#    0.000    2.000    0.000    2.400    0.000    3.733 
#    0.000    0.000    0.000    0.000    0.000    0.000 
#
# Total GULP energy -334514.783103 kJ/mol
# GULP energy per Si atom -5575.246385 kJ/mol
# Density = 1.710936 g / cm^3
# Si number density = 17.148392 Si / 1000 Ang^3
#
#
#
# Elastic Constant Matrix: (Units=GPa)
#
#
# Indices 1 2 3 4 5 6 
#
# 1 18.8246 28.9360 29.0879 0.0000 0.0000 0.0000
# 2 28.9360 127.1676 80.4117 0.0000 0.0000 0.0000
# 3 29.0879 80.4117 118.5899 0.0000 0.0000 0.0000
# 4 0.0000 0.0000 0.0000 33.6716 0.0000 0.0000
# 5 0.0000 0.0000 0.0000 0.0000 18.2925 0.0000
# 6 0.0000 0.0000 0.0000 0.0000 0.0000 24.7496
#
#
#
# Elastic Compliance Matrix: (Units=1/GPa)
#
#
# Indices 1 2 3 4 5 6 
#
# 1 0.095043 -0.012053 -0.015139 0.000000 0.000000 0.000000
# 2 -0.012053 0.015295 -0.007414 0.000000 0.000000 0.000000
# 3 -0.015139 -0.007414 0.017173 0.000000 0.000000 0.000000
# 4 0.000000 0.000000 0.000000 0.029699 0.000000 0.000000
# 5 0.000000 0.000000 0.000000 0.000000 0.054667 0.000000
# 6 0.000000 0.000000 0.000000 0.000000 0.000000 0.040405
#
#
# Mechanical properties :
#
#
# Convention : Reuss Voigt Hill
#
# Bulk Modulus (GPa) = 17.15361 60.16149 38.65755
# Shear Modulus (GPa) = 14.66591 23.75250 19.20921
#
# Velocity S-wave (km/s) = 2.92761 3.72575 3.35053
# Velocity P-wave (km/s) = 4.63170 7.32580 6.12862
#
# Compressibility (1/GPa) = 0.05829677
#
# Stress axis : x y z
#
# Youngs Moduli (GPa) = 10.52159 65.38297 58.23044
#
# Poissons Ratio (x) = 0.78808 0.88157
# Poissons Ratio (y) = 0.12682 0.43173
# Poissons Ratio (z) = 0.15929 0.48477
#
# Static dielectric constant tensor:
#      x y z
#    x 1.597220 0.000000 0.000000 
#    y 0.000000 1.572800 0.000000 
#    z 0.000000 0.000000 1.580820 
# 
# From -- ./inp_files/73884.got.cif
#   From: 2010.05.17/outbox.cif.g08.bks.cpg/sg65_37_cif.got.tgz:73884.got - 2010.06.03 17:01:31.
