data_PCOD9483082
_publ_section_title
;
Structure prediction by ZEFSAII (Michael W. Deem and Ramdas Pophale) SiO2 
 PCOD9483082
Probable space group: C M M M
;
_chemical_formula_sum "Si O2"
_cell_formula_units_Z 96
_cell_length_a 14.599244
_cell_length_b 28.421284
_cell_length_c 12.104783
_cell_angle_alpha 90.000000
_cell_angle_beta 90.000000
_cell_angle_gamma 90.000000
_cell_volume 5022.628652
_symmetry_space_group_name_H-M "C M M M"
_symmetry_group_IT_number 65
_symmetry_cell_setting 'orthorhombic'
loop_
_space_group_symop_operation_xyz
x,y,z
-x,-y,z
x,-y,-z
-x,y,-z
-x,-y,-z
x,y,-z
-x,y,z
x,-y,z
1/2+x,1/2+y,z
1/2-x,1/2-y,z
1/2+x,1/2-y,-z
1/2-x,1/2+y,-z
1/2-x,1/2-y,-z
1/2+x,1/2+y,-z
1/2-x,1/2+y,z
1/2+x,1/2-y,z
loop_
_atom_site_type_symbol
_atom_site_label
_atom_site_fract_x
_atom_site_fract_y
_atom_site_fract_z
Si Si1 0.609571 0.380156 0.000000
Si Si2 0.870883 0.171241 0.624411
Si Si3 0.397110 0.420109 0.763999
Si Si4 0.148023 0.229070 0.000000
Si Si5 0.346872 0.848107 0.374168
Si Si6 0.860823 0.740349 0.762166
Si Si7 0.280095 0.948063 0.631230
O O1 0.631049 0.409404 0.889937
O O2 0.651455 0.327802 0.000000
O O3 0.500000 0.372526 0.000000
O O4 0.902644 0.164757 0.500000
O O5 0.903166 0.130608 0.705338
O O6 0.760753 0.165674 0.620598
O O7 0.894706 0.221449 0.674299
O O8 0.500000 0.441200 0.760579
O O9 0.315079 0.445049 0.698538
O O10 0.250000 0.250000 0.000000
O O11 0.105984 0.247284 0.114914
O O12 0.383376 0.842881 0.500000
O O13 0.383633 0.811200 0.284616
O O14 0.343924 0.903202 0.341531
O O15 0.750000 0.750000 0.765304
O O16 0.259063 0.942837 0.500000
O O17 0.320680 0.000000 0.648044
#
# Coordination Sequence:
#
# PCOD9483082 Si02
#       7
#     8  16  16   8  16  16  16
#     4  10  20  34  45  57  84 120 147 173 215 264
#     4   9  15  23  37  56  78  99 126 163 207 254
#     4  10  19  30  43  56  76 108 145 181 217 255
#     4  10  18  26  42  64  82 105 141 181 205 238
#     4   8  14  24  38  56  78 103 125 158 212 264
#     4   9  15  23  36  57  81 100 124 163 206 250
#     4   9  18  31  45  60  78 102 139 187 231 263
#
# _framework density 19.113496999999999
#
# number of rings (size 3 to 8) (size 9 to 14) (size 15 to 20)
#    0.000    2.833    1.667    2.000    2.333    3.667 
#    0.000    1.250    0.000    1.500    0.000    0.000 
#    0.000    0.000    0.000    0.000    0.000    4.167 
#
# Total GULP energy -267439.368328 kJ/mol
# GULP energy per Si atom -5571.653507 kJ/mol
# Density = 1.906999 g / cm^3
# Si number density = 19.113497 Si / 1000 Ang^3
#
#
#
# Elastic Constant Matrix: (Units=GPa)
#
#
# Indices 1 2 3 4 5 6 
#
# 1 29.6940 -10.2740 -8.1706 0.0000 0.0000 0.0000
# 2 -10.2740 125.1377 32.0718 0.0000 0.0000 0.0000
# 3 -8.1706 32.0718 107.0639 0.0000 0.0000 0.0000
# 4 0.0000 0.0000 0.0000 13.1312 0.0000 0.0000
# 5 0.0000 0.0000 0.0000 0.0000 98.1535 0.0000
# 6 0.0000 0.0000 0.0000 0.0000 0.0000 -6.6092
#
#
#
# Elastic Compliance Matrix: (Units=1/GPa)
#
#
# Indices 1 2 3 4 5 6 
#
# 1 0.035038 0.002374 0.001963 0.000000 0.000000 0.000000
# 2 0.002374 0.008817 -0.002460 0.000000 0.000000 0.000000
# 3 0.001963 -0.002460 0.010227 0.000000 0.000000 0.000000
# 4 0.000000 0.000000 0.000000 0.076155 0.000000 0.000000
# 5 0.000000 0.000000 0.000000 0.000000 0.010188 0.000000
# 6 0.000000 0.000000 0.000000 0.000000 0.000000 -0.151304
#
#
# Mechanical properties :
#
#
# Convention : Reuss Voigt Hill
#
# Bulk Modulus (GPa) = 17.29061 32.12777 24.70919
# Shear Modulus (GPa) = 1076.21723 37.48631 556.85177
#
# Velocity S-wave (km/s) = 23.75477 4.43340 17.08719
# Velocity P-wave (km/s) = 27.59441 6.56142 20.05621
#
# Compressibility (1/GPa) = 0.05783487
#
# Stress axis : x y z
#
# Youngs Moduli (GPa) = 28.54026 113.42329 97.78137
#
# Poissons Ratio (x) = -0.26922 -0.19194
# Poissons Ratio (y) = -0.06774 0.24053
# Poissons Ratio (z) = -0.05602 0.27901
#
# Static dielectric constant tensor:
#      x y z
#    x 1.775140 0.000000 0.000000 
#    y 0.000000 1.678040 0.000000 
#    z 0.000000 0.000000 1.671890 
# 
# From -- ./inp_files/29534.got.cif
#   From: 2010.05.17/outbox.cif.g08.bks.cpg/sg65_15_cif.got.tgz:29534.got - 2010.06.03 17:01:31.
