data_PCOD9483006
_publ_section_title
;
Structure prediction by ZEFSAII (Michael W. Deem and Ramdas Pophale) SiO2 
 PCOD9483006
Probable space group: C M M M
;
_chemical_formula_sum "Si O2"
_cell_formula_units_Z 104
_cell_length_a 24.165363
_cell_length_b 8.008545
_cell_length_c 30.841901
_cell_angle_alpha 90.000000
_cell_angle_beta 90.000000
_cell_angle_gamma 90.000000
_cell_volume 5968.814504
_symmetry_space_group_name_H-M "C M M M"
_symmetry_group_IT_number 65
_symmetry_cell_setting 'orthorhombic'
loop_
_space_group_symop_operation_xyz
x,y,z
-x,-y,z
x,-y,-z
-x,y,-z
-x,-y,-z
x,y,-z
-x,y,z
x,-y,z
1/2+x,1/2+y,z
1/2-x,1/2-y,z
1/2+x,1/2-y,-z
1/2-x,1/2+y,-z
1/2-x,1/2-y,-z
1/2+x,1/2+y,-z
1/2-x,1/2+y,z
1/2+x,1/2-y,z
loop_
_atom_site_type_symbol
_atom_site_label
_atom_site_fract_x
_atom_site_fract_y
_atom_site_fract_z
Si Si1 0.000000 0.193900 0.671312
Si Si2 0.886649 0.305161 0.287564
Si Si3 0.122543 0.703044 0.452963
Si Si4 0.067586 0.000000 0.050093
Si Si5 0.000000 0.297997 0.426270
Si Si6 0.432767 0.816517 0.893992
Si Si7 0.436122 0.304169 0.200117
Si Si8 0.813786 0.298096 0.366682
O O1 0.945364 0.282316 0.688644
O O2 0.000000 0.209094 0.619872
O O3 0.000000 0.000000 0.685591
O O4 0.875250 0.500000 0.280423
O O5 0.896306 0.223864 0.240816
O O6 0.842208 0.236524 0.322082
O O7 0.143997 0.760743 0.500000
O O8 0.126259 0.500000 0.452600
O O9 0.057488 0.743967 0.449351
O O10 0.154245 0.762585 0.409932
O O11 0.086072 0.164948 0.075863
O O12 0.000000 0.000000 0.050673
O O13 0.084582 0.000000 0.000000
O O14 0.000000 0.500000 0.419545
O O15 0.500000 0.812781 0.894842
O O16 0.418301 0.788039 0.843631
O O17 0.414772 0.000000 0.908590
O O18 0.500000 0.252420 0.211215
O O19 0.438245 0.500000 0.189793
O O20 0.818968 0.500000 0.366213
O O21 0.750000 0.250000 0.368755
#
# Coordination Sequence:
#
# PCOD9483006 Si02
#       8
#     8  16  16   8   8  16  16  16
#     4  12  22  31  47  75 102 126 148 189 245 294
#     4  11  21  34  51  72  95 124 161 198 241 298
#     4   9  17  31  54  80  99 121 155 192 236 289
#     4   9  16  26  38  54  82 122 170 222 257 291
#     4  10  17  32  54  76 102 126 150 186 233 291
#     4   9  16  26  39  57  84 121 162 209 258 300
#     4  10  18  28  44  69  97 123 153 197 253 304
#     4  10  22  38  54  72  95 125 162 204 239 283
#
# _framework density 17.423895999999999
#
# number of rings (size 3 to 8) (size 9 to 14) (size 15 to 20)
#    0.000    2.077    3.077    1.846    0.000    3.385 
#    0.000    1.538    0.000    1.846    0.000    0.000 
#    0.000    0.000    0.000    0.000    0.000    0.769 
#
# Total GULP energy -289987.295355 kJ/mol
# GULP energy per Si atom -5576.678757 kJ/mol
# Density = 1.738424 g / cm^3
# Si number density = 17.423896 Si / 1000 Ang^3
#
#
#
# Elastic Constant Matrix: (Units=GPa)
#
#
# Indices 1 2 3 4 5 6 
#
# 1 65.2698 5.8410 32.1173 0.0000 0.0000 0.0000
# 2 5.8410 60.2427 41.8517 0.0000 0.0000 0.0000
# 3 32.1173 41.8517 128.7775 0.0000 0.0000 0.0000
# 4 0.0000 0.0000 0.0000 18.3420 0.0000 0.0000
# 5 0.0000 0.0000 0.0000 0.0000 62.1197 0.0000
# 6 0.0000 0.0000 0.0000 0.0000 0.0000 12.5076
#
#
#
# Elastic Compliance Matrix: (Units=1/GPa)
#
#
# Indices 1 2 3 4 5 6 
#
# 1 0.017604 0.001735 -0.004954 0.000000 0.000000 0.000000
# 2 0.001735 0.021611 -0.007456 0.000000 0.000000 0.000000
# 3 -0.004954 -0.007456 0.011424 0.000000 0.000000 0.000000
# 4 0.000000 0.000000 0.000000 0.054520 0.000000 0.000000
# 5 0.000000 0.000000 0.000000 0.000000 0.016098 0.000000
# 6 0.000000 0.000000 0.000000 0.000000 0.000000 0.079951
#
#
# Mechanical properties :
#
#
# Convention : Reuss Voigt Hill
#
# Bulk Modulus (GPa) = 34.14357 45.99001 40.06679
# Shear Modulus (GPa) = 21.52190 30.22586 25.87388
#
# Velocity S-wave (km/s) = 3.51835 4.16953 3.85771
# Velocity P-wave (km/s) = 6.01194 7.04501 6.54887
#
# Compressibility (1/GPa) = 0.02928809
#
# Stress axis : x y z
#
# Youngs Moduli (GPa) = 56.80662 46.27219 87.53398
#
# Poissons Ratio (x) = -0.08028 0.43366
# Poissons Ratio (y) = -0.09856 0.65267
# Poissons Ratio (z) = 0.28143 0.34502
#
# Static dielectric constant tensor:
#      x y z
#    x 1.556770 0.000000 0.000000 
#    y 0.000000 1.626700 0.000000 
#    z 0.000000 0.000000 1.605360 
# 
# From -- ./inp_files/78423.got.cif
#   From: 2010.05.17/outbox.cif.g08.bks.cpg/sg65_40_cif.got.tgz:78423.got - 2010.06.03 17:01:31.
