data_PCOD9483002
_publ_section_title
;
Structure prediction by ZEFSAII (Michael W. Deem and Ramdas Pophale) SiO2 
 PCOD9483002
Probable space group: C M M M
;
_chemical_formula_sum "Si O2"
_cell_formula_units_Z 76
_cell_length_a 10.955694
_cell_length_b 21.996825
_cell_length_c 17.132076
_cell_angle_alpha 90.000000
_cell_angle_beta 90.000000
_cell_angle_gamma 90.000000
_cell_volume 4128.667282
_symmetry_space_group_name_H-M "C M M M"
_symmetry_group_IT_number 65
_symmetry_cell_setting 'orthorhombic'
loop_
_space_group_symop_operation_xyz
x,y,z
-x,-y,z
x,-y,-z
-x,y,-z
-x,-y,-z
x,y,-z
-x,y,z
x,-y,z
1/2+x,1/2+y,z
1/2-x,1/2-y,z
1/2+x,1/2-y,-z
1/2-x,1/2+y,-z
1/2-x,1/2-y,-z
1/2+x,1/2+y,-z
1/2-x,1/2+y,z
1/2+x,1/2-y,z
loop_
_atom_site_type_symbol
_atom_site_label
_atom_site_fract_x
_atom_site_fract_y
_atom_site_fract_z
Si Si1 0.000000 0.136343 0.662076
Si Si2 0.500000 0.679128 0.169139
Si Si3 0.131320 0.290692 0.500000
Si Si4 0.769605 0.500000 0.589782
Si Si5 0.775823 0.633038 0.639844
Si Si6 0.500000 0.812514 0.092737
Si Si7 0.500000 0.500000 0.645522
Si Si8 0.735896 0.823752 0.183506
O O1 0.130446 0.142847 0.620025
O O2 0.000000 0.064899 0.690338
O O3 0.000000 0.182075 0.735712
O O4 0.500000 0.742862 0.124085
O O5 0.633208 0.650674 0.154419
O O6 0.250000 0.250000 0.500000
O O7 0.144731 0.331005 0.577627
O O8 0.000000 0.259144 0.500000
O O9 0.809227 0.500000 0.500000
O O10 0.806480 0.562113 0.631384
O O11 0.621812 0.500000 0.594291
O O12 0.789377 0.655311 0.728259
O O13 0.623131 0.840107 0.128703
O O14 0.500000 0.813772 0.000000
O O15 0.750000 0.750000 0.184559
#
# Coordination Sequence:
#
# PCOD9483002 Si02
#       8
#     8   8   8   8  16   8   4  16
#     4   8  16  30  54  78 107 144 189 226 270 317
#     4   8  16  30  48  76 102 140 167 215 264 314
#     4  12  28  41  55  78 108 147 198 234 282 331
#     4  10  17  32  52  80 110 146 187 239 279 322
#     4  10  20  36  56  79 111 149 188 234 279 322
#     4  10  20  32  52  78 106 135 169 216 280 346
#     4   8  15  24  48  80 107 142 188 228 271 314
#     4   9  18  33  52  74 108 142 180 219 269 325
#
# _framework density 18.407876999999999
#
# number of rings (size 3 to 8) (size 9 to 14) (size 15 to 20)
#    0.000    2.526    1.053    0.789    2.947    3.789 
#    3.789    1.053    0.000    0.000    0.000    1.842 
#    0.000   11.789    0.000    1.895    0.000    0.000 
#
# Total GULP energy -211628.255016 kJ/mol
# GULP energy per Si atom -5569.164606 kJ/mol
# Density = 1.836598 g / cm^3
# Si number density = 18.407877 Si / 1000 Ang^3
#
#
#
# Elastic Constant Matrix: (Units=GPa)
#
#
# Indices 1 2 3 4 5 6 
#
# 1 132.3738 23.4927 59.3339 0.0000 0.0000 0.0000
# 2 23.4927 44.9107 24.3206 0.0000 0.0000 0.0000
# 3 59.3339 24.3206 88.8103 0.0000 0.0000 0.0000
# 4 0.0000 0.0000 0.0000 -6.7819 0.0000 0.0000
# 5 0.0000 0.0000 0.0000 0.0000 20.7476 0.0000
# 6 0.0000 0.0000 0.0000 0.0000 0.0000 10.9968
#
#
#
# Elastic Compliance Matrix: (Units=1/GPa)
#
#
# Indices 1 2 3 4 5 6 
#
# 1 0.010946 -0.002073 -0.006745 0.000000 0.000000 0.000000
# 2 -0.002073 0.026536 -0.005882 0.000000 0.000000 0.000000
# 3 -0.006745 -0.005882 0.017377 0.000000 0.000000 0.000000
# 4 0.000000 0.000000 0.000000 -0.147452 0.000000 0.000000
# 5 0.000000 0.000000 0.000000 0.000000 0.048198 0.000000
# 6 0.000000 0.000000 0.000000 0.000000 0.000000 0.090935
#
#
# Mechanical properties :
#
#
# Convention : Reuss Voigt Hill
#
# Bulk Modulus (GPa) = 39.27911 53.37658 46.32784
# Shear Modulus (GPa) = 59.22300 15.58901 37.40601
#
# Velocity S-wave (km/s) = 5.67825 2.91325 4.51273
# Velocity P-wave (km/s) = 8.02337 6.35418 7.23706
#
# Compressibility (1/GPa) = 0.02545883
#
# Stress axis : x y z
#
# Youngs Moduli (GPa) = 91.36113 37.68459 57.54720
#
# Poissons Ratio (x) = 0.07812 0.38816
# Poissons Ratio (y) = 0.18939 0.33849
# Poissons Ratio (z) = 0.61623 0.22166
#
# Static dielectric constant tensor:
#      x y z
#    x 1.718570 0.000000 0.000000 
#    y 0.000000 1.644120 0.000000 
#    z 0.000000 0.000000 1.594770 
# 
# From -- ./inp_files/38377.got.cif
#   From: 2010.05.17/outbox.cif.g08.bks.cpg/sg65_20_cif.got.tgz:38377.got - 2010.06.03 17:01:31.
