data_PCOD9483725
_publ_section_title
;
Structure prediction by ZEFSAII (Michael W. Deem and Ramdas Pophale) SiO2 
 PCOD9483725
Probable space group: C M M M
;
_chemical_formula_sum "Si O2"
_cell_formula_units_Z 96
_cell_length_a 29.277460
_cell_length_b 13.673018
_cell_length_c 14.868258
_cell_angle_alpha 90.000000
_cell_angle_beta 90.000000
_cell_angle_gamma 90.000000
_cell_volume 5951.930761
_symmetry_space_group_name_H-M "C M M M"
_symmetry_group_IT_number 65
_symmetry_cell_setting 'orthorhombic'
loop_
_space_group_symop_operation_xyz
x,y,z
-x,-y,z
x,-y,-z
-x,y,-z
-x,-y,-z
x,y,-z
-x,y,z
x,-y,z
1/2+x,1/2+y,z
1/2-x,1/2-y,z
1/2+x,1/2-y,-z
1/2-x,1/2+y,-z
1/2-x,1/2-y,-z
1/2+x,1/2+y,-z
1/2-x,1/2+y,z
1/2+x,1/2-y,z
loop_
_atom_site_type_symbol
_atom_site_label
_atom_site_fract_x
_atom_site_fract_y
_atom_site_fract_z
Si Si1 0.221865 0.117937 0.303756
Si Si2 0.447839 0.618036 0.304479
Si Si3 0.809924 0.383167 0.187912
Si Si4 0.192132 0.119177 0.500000
Si Si5 0.413849 0.381622 0.500000
Si Si6 0.364346 0.700898 0.192846
Si Si7 0.762836 0.382369 0.000000
Si Si8 0.656494 0.618582 0.000000
O O1 0.270865 0.142452 0.260944
O O2 0.215040 0.150753 0.406615
O O3 0.179874 0.153847 0.242569
O O4 0.219272 0.000000 0.302462
O O5 0.500000 0.640809 0.279874
O O6 0.442009 0.500000 0.298898
O O7 0.438331 0.647515 0.407981
O O8 0.409787 0.667769 0.243240
O O9 0.817824 0.500000 0.190543
O O10 0.854247 0.316444 0.198614
O O11 0.788230 0.355201 0.091403
O O12 0.139032 0.149926 0.500000
O O13 0.192695 0.000000 0.500000
O O14 0.413590 0.500000 0.500000
O O15 0.364590 0.661939 0.090921
O O16 0.710151 0.352702 0.000000
O O17 0.761966 0.500000 0.000000
O O18 0.653343 0.500000 0.000000
#
# Coordination Sequence:
#
# PCOD9483725 Si02
#       8
#    16  16  16   8   8  16   8   8
#     4  10  18  30  47  71 102 133 162 197 243 298
#     4  10  20  34  53  77 102 126 158 203 254 307
#     4  10  21  34  48  70 100 134 173 212 244 278
#     4   9  16  27  46  70 102 135 164 196 238 298
#     4   9  15  28  50  76 101 127 157 199 252 295
#     4  12  21  32  51  72  99 135 171 202 245 295
#     4   9  17  31  49  70  98 129 165 207 241 273
#     4  11  21  31  49  77 106 135 164 199 242 297
#
# _framework density 16.12922
#
# number of rings (size 3 to 8) (size 9 to 14) (size 15 to 20)
#    0.000    1.833    3.333    2.750    0.000    1.667 
#    0.000    2.917    0.000    2.000    0.000    0.000 
#    0.000    4.667    0.000    0.000    0.000    0.000 
#
# Total GULP energy -267910.926604 kJ/mol
# GULP energy per Si atom -5581.477638 kJ/mol
# Density = 1.609251 g / cm^3
# Si number density = 16.129220 Si / 1000 Ang^3
#
#
#
# Elastic Constant Matrix: (Units=GPa)
#
#
# Indices 1 2 3 4 5 6 
#
# 1 109.3057 48.0777 59.3270 0.0000 0.0000 0.0000
# 2 48.0777 69.4467 32.1060 0.0000 0.0000 0.0000
# 3 59.3270 32.1060 129.0867 0.0000 0.0000 0.0000
# 4 0.0000 0.0000 0.0000 6.1164 0.0000 0.0000
# 5 0.0000 0.0000 0.0000 0.0000 4.8172 0.0000
# 6 0.0000 0.0000 0.0000 0.0000 0.0000 23.8804
#
#
#
# Elastic Compliance Matrix: (Units=1/GPa)
#
#
# Indices 1 2 3 4 5 6 
#
# 1 0.015631 -0.008475 -0.005076 0.000000 0.000000 0.000000
# 2 -0.008475 0.020865 -0.001295 0.000000 0.000000 0.000000
# 3 -0.005076 -0.001295 0.010402 0.000000 0.000000 0.000000
# 4 0.000000 0.000000 0.000000 0.163494 0.000000 0.000000
# 5 0.000000 0.000000 0.000000 0.000000 0.207589 0.000000
# 6 0.000000 0.000000 0.000000 0.000000 0.000000 0.041875
#
#
# Mechanical properties :
#
#
# Convention : Reuss Voigt Hill
#
# Bulk Modulus (GPa) = 58.11568 65.20671 61.66120
# Shear Modulus (GPa) = 10.09523 18.18469 14.13996
#
# Velocity S-wave (km/s) = 2.50451 3.36138 2.96407
# Velocity P-wave (km/s) = 6.66880 7.45524 7.07296
#
# Compressibility (1/GPa) = 0.01720706
#
# Stress axis : x y z
#
# Youngs Moduli (GPa) = 63.97362 47.92695 96.13808
#
# Poissons Ratio (x) = 0.40617 0.48802
# Poissons Ratio (y) = 0.54216 0.12446
# Poissons Ratio (z) = 0.32475 0.06204
#
# Static dielectric constant tensor:
#      x y z
#    x 1.507640 0.000000 0.000000 
#    y 0.000000 1.566520 0.000000 
#    z 0.000000 0.000000 1.551780 
# 
# From -- ./inp_files/46996.got.cif
#   From: 2010.05.17/outbox.cif.g08.bks.cpg/sg65_24_cif.got.tgz:46996.got - 2010.06.03 17:01:31.
