data_PCOD9483734
_publ_section_title
;
Structure prediction by ZEFSAII (Michael W. Deem and Ramdas Pophale) SiO2 
 PCOD9483734
Probable space group: C M M M
;
_chemical_formula_sum "Si O2"
_cell_formula_units_Z 64
_cell_length_a 8.958361
_cell_length_b 36.638114
_cell_length_c 12.986523
_cell_angle_alpha 90.000000
_cell_angle_beta 90.000000
_cell_angle_gamma 90.000000
_cell_volume 4262.403484
_symmetry_space_group_name_H-M "C M M M"
_symmetry_group_IT_number 65
_symmetry_cell_setting 'orthorhombic'
loop_
_space_group_symop_operation_xyz
x,y,z
-x,-y,z
x,-y,-z
-x,y,-z
-x,-y,-z
x,y,-z
-x,y,z
x,-y,z
1/2+x,1/2+y,z
1/2-x,1/2-y,z
1/2+x,1/2-y,-z
1/2-x,1/2+y,-z
1/2-x,1/2-y,-z
1/2+x,1/2+y,-z
1/2-x,1/2+y,z
1/2+x,1/2-y,z
loop_
_atom_site_type_symbol
_atom_site_label
_atom_site_fract_x
_atom_site_fract_y
_atom_site_fract_z
Si Si1 0.180071 0.209146 0.500000
Si Si2 0.821072 0.650341 0.118466
Si Si3 0.319888 0.209768 0.289792
Si Si4 0.827758 0.500000 0.874475
Si Si5 0.828360 0.074606 0.125254
O O1 0.250000 0.250000 0.500000
O O2 0.245873 0.193570 0.393822
O O3 0.000000 0.210062 0.500000
O O4 0.784984 0.683572 0.194013
O O5 0.751670 0.612131 0.155128
O O6 0.000000 0.646332 0.117738
O O7 0.772707 0.657124 0.000000
O O8 0.500000 0.212694 0.301874
O O9 0.250000 0.250000 0.273858
O O10 0.749550 0.537303 0.839635
O O11 0.000000 0.500000 0.844644
O O12 0.821553 0.500000 0.000000
O O13 0.000000 0.075007 0.157026
O O14 0.823438 0.073968 0.000000
#
# Coordination Sequence:
#
# PCOD9483734 Si02
#       5
#     8  16  16   8  16
#     4  10  18  30  48  66  84 105 136 179 224 264
#     4   9  18  31  44  60  86 119 149 176 211 257
#     4  10  19  31  47  65  86 112 144 181 219 259
#     4   9  15  23  37  55  77 108 143 176 211 253
#     4   9  16  25  38  57  81 109 142 179 214 249
#
# _framework density 15.015002000000001
#
# number of rings (size 3 to 8) (size 9 to 14) (size 15 to 20)
#    0.000    2.625    0.000    4.500    0.000    7.000 
#    0.000    0.000    0.000    0.000    0.000    0.000 
#    0.000    1.000    0.000   10.500    0.000    8.000 
#
# Total GULP energy -178189.515302 kJ/mol
# GULP energy per Si atom -5568.422353 kJ/mol
# Density = 1.498083 g / cm^3
# Si number density = 15.015002 Si / 1000 Ang^3
#
#
#
# Elastic Constant Matrix: (Units=GPa)
#
#
# Indices 1 2 3 4 5 6 
#
# 1 77.0246 57.0649 41.8879 0.0000 0.0000 0.0000
# 2 57.0649 116.9256 56.4808 0.0000 0.0000 0.0000
# 3 41.8879 56.4808 68.2133 0.0000 0.0000 0.0000
# 4 0.0000 0.0000 0.0000 -0.3816 0.0000 0.0000
# 5 0.0000 0.0000 0.0000 0.0000 15.6785 0.0000
# 6 0.0000 0.0000 0.0000 0.0000 0.0000 27.1359
#
#
#
# Elastic Compliance Matrix: (Units=1/GPa)
#
#
# Indices 1 2 3 4 5 6 
#
# 1 0.022644 -0.007224 -0.007924 0.000000 0.000000 0.000000
# 2 -0.007224 0.016558 -0.009274 0.000000 0.000000 0.000000
# 3 -0.007924 -0.009274 0.027205 0.000000 0.000000 0.000000
# 4 0.000000 0.000000 0.000000 -2.620330 0.000000 0.000000
# 5 0.000000 0.000000 0.000000 0.000000 0.063781 0.000000
# 6 0.000000 0.000000 0.000000 0.000000 0.000000 0.036852
#
#
# Mechanical properties :
#
#
# Convention : Reuss Voigt Hill
#
# Bulk Modulus (GPa) = 56.93691 63.67008 60.30349
# Shear Modulus (GPa) = -2.08455 15.60189 6.75867
#
# Velocity S-wave (km/s) = -1.17955 3.22698 2.12392
# Velocity P-wave (km/s) = 6.01226 7.50872 6.80177
#
# Compressibility (1/GPa) = 0.01756330
#
# Stress axis : x y z
#
# Youngs Moduli (GPa) = 44.16244 60.39500 36.75861
#
# Poissons Ratio (x) = 0.43627 0.29126
# Poissons Ratio (y) = 0.31901 0.34090
# Poissons Ratio (z) = 0.34993 0.56010
#
# Static dielectric constant tensor:
#      x y z
#    x 1.506110 0.000000 0.000000 
#    y 0.000000 1.489240 0.000000 
#    z 0.000000 0.000000 1.506430 
# 
# From -- ./inp_files/36843.got.cif
#   From: 2010.05.17/outbox.cif.g08.bks.cpg/sg65_19_cif.got.tgz:36843.got - 2010.06.03 17:01:31.
