data_PCOD9483036
_publ_section_title
;
Structure prediction by ZEFSAII (Michael W. Deem and Ramdas Pophale) SiO2 
 PCOD9483036
Probable space group: C M M M
;
_chemical_formula_sum "Si O2"
_cell_formula_units_Z 100
_cell_length_a 7.786333
_cell_length_b 22.445442
_cell_length_c 26.323210
_cell_angle_alpha 90.000000
_cell_angle_beta 90.000000
_cell_angle_gamma 90.000000
_cell_volume 4600.446493
_symmetry_space_group_name_H-M "C M M M"
_symmetry_group_IT_number 65
_symmetry_cell_setting 'orthorhombic'
loop_
_space_group_symop_operation_xyz
x,y,z
-x,-y,z
x,-y,-z
-x,y,-z
-x,-y,-z
x,y,-z
-x,y,z
x,-y,z
1/2+x,1/2+y,z
1/2-x,1/2-y,z
1/2+x,1/2-y,-z
1/2-x,1/2+y,-z
1/2-x,1/2-y,-z
1/2+x,1/2+y,-z
1/2-x,1/2+y,z
1/2+x,1/2-y,z
loop_
_atom_site_type_symbol
_atom_site_label
_atom_site_fract_x
_atom_site_fract_y
_atom_site_fract_z
Si Si1 0.194477 0.933074 0.084336
Si Si2 0.194378 0.682036 0.855872
Si Si3 0.000000 0.575049 0.000000
Si Si4 0.709538 0.384942 0.557599
Si Si5 0.200703 0.130536 0.753919
Si Si6 0.792239 0.000000 0.376120
Si Si7 0.794581 0.816550 0.650876
Si Si8 0.300366 0.000000 0.257725
O O1 0.207457 0.874338 0.119771
O O2 0.347418 0.927499 0.043794
O O3 0.000000 0.932047 0.062870
O O4 0.214237 0.000000 0.108147
O O5 0.250000 0.750000 0.867253
O O6 0.206496 0.670193 0.795691
O O7 0.000000 0.676664 0.873734
O O8 0.773684 0.384199 0.500000
O O9 0.500000 0.384398 0.554441
O O10 0.755756 0.443278 0.589960
O O11 0.769581 0.332300 0.594671
O O12 0.267704 0.142316 0.696904
O O13 0.219928 0.060516 0.763322
O O14 0.000000 0.146724 0.755928
O O15 0.721905 0.000000 0.319151
O O16 0.000000 0.000000 0.370336
O O17 0.750000 0.750000 0.664750
O O18 0.000000 0.824379 0.648905
O O19 0.500000 0.000000 0.245084
#
# Coordination Sequence:
#
# PCOD9483036 Si02
#       8
#    16  16   4  16  16   8  16   8
#     4  11  24  44  75 112 150 196 248 300 357 414
#     4  12  26  46  71 102 146 188 235 290 348 416
#     4  12  23  46  78 114 154 200 247 306 353 414
#     4   9  17  31  54  82 108 143 193 247 306 375
#     4  11  23  42  65  91 123 168 217 270 333 399
#     4  10  17  34  58  82 110 146 188 249 307 379
#     4  10  21  36  56  81 112 151 202 254 310 382
#     4  12  24  37  59  93 126 158 203 265 330 403
#
# _framework density 21.737020999999999
#
# number of rings (size 3 to 8) (size 9 to 14) (size 15 to 20)
#    0.000    1.280    2.400    4.320    1.120    4.480 
#    0.000    0.400    0.000    1.920    0.000    0.000 
#    0.000    0.000    0.000    0.000    0.000    0.000 
#
# Total GULP energy -278625.980737 kJ/mol
# GULP energy per Si atom -5572.519615 kJ/mol
# Density = 2.168755 g / cm^3
# Si number density = 21.737021 Si / 1000 Ang^3
#
#
#
# Elastic Constant Matrix: (Units=GPa)
#
#
# Indices 1 2 3 4 5 6 
#
# 1 93.1246 13.7426 21.9358 0.0000 0.0000 0.0000
# 2 13.7426 133.3646 35.6181 0.0000 0.0000 0.0000
# 3 21.9358 35.6181 72.8721 0.0000 0.0000 0.0000
# 4 0.0000 0.0000 0.0000 37.7961 0.0000 0.0000
# 5 0.0000 0.0000 0.0000 0.0000 22.9080 0.0000
# 6 0.0000 0.0000 0.0000 0.0000 0.0000 12.2330
#
#
#
# Elastic Compliance Matrix: (Units=1/GPa)
#
#
# Indices 1 2 3 4 5 6 
#
# 1 0.011568 -0.000301 -0.003335 0.000000 0.000000 0.000000
# 2 -0.000301 0.008632 -0.004128 0.000000 0.000000 0.000000
# 3 -0.003335 -0.004128 0.016744 0.000000 0.000000 0.000000
# 4 0.000000 0.000000 0.000000 0.026458 0.000000 0.000000
# 5 0.000000 0.000000 0.000000 0.000000 0.043653 0.000000
# 6 0.000000 0.000000 0.000000 0.000000 0.000000 0.081746
#
#
# Mechanical properties :
#
#
# Convention : Reuss Voigt Hill
#
# Bulk Modulus (GPa) = 46.69573 49.10604 47.90088
# Shear Modulus (GPa) = 23.64414 29.79175 26.71795
#
# Velocity S-wave (km/s) = 3.30166 3.70611 3.50972
# Velocity P-wave (km/s) = 6.00528 6.39951 6.20553
#
# Compressibility (1/GPa) = 0.02141523
#
# Stress axis : x y z
#
# Youngs Moduli (GPa) = 86.44278 115.84984 59.72151
#
# Poissons Ratio (x) = 0.03492 0.19917
# Poissons Ratio (y) = 0.02605 0.24655
# Poissons Ratio (z) = 0.28828 0.47827
#
# Static dielectric constant tensor:
#      x y z
#    x 1.798320 0.000000 0.000000 
#    y 0.000000 1.806040 0.000000 
#    z 0.000000 0.000000 1.784530 
# 
# From -- ./inp_files/73409.got.cif
#   From: 2010.05.17/outbox.cif.g08.bks.cpg/sg65_37_cif.got.tgz:73409.got - 2010.06.03 17:01:31.
