data_PCOD9483720
_publ_section_title
;
Structure prediction by ZEFSAII (Michael W. Deem and Ramdas Pophale) SiO2 
 PCOD9483720
Probable space group: C M M M
;
_chemical_formula_sum "Si O2"
_cell_formula_units_Z 120
_cell_length_a 32.024061
_cell_length_b 7.358632
_cell_length_c 21.428850
_cell_angle_alpha 90.000000
_cell_angle_beta 90.000000
_cell_angle_gamma 90.000000
_cell_volume 5049.778790
_symmetry_space_group_name_H-M "C M M M"
_symmetry_group_IT_number 65
_symmetry_cell_setting 'orthorhombic'
loop_
_space_group_symop_operation_xyz
x,y,z
-x,-y,z
x,-y,-z
-x,y,-z
-x,-y,-z
x,y,-z
-x,y,z
x,-y,z
1/2+x,1/2+y,z
1/2-x,1/2-y,z
1/2+x,1/2-y,-z
1/2-x,1/2+y,-z
1/2-x,1/2-y,-z
1/2+x,1/2+y,-z
1/2-x,1/2+y,z
1/2+x,1/2-y,z
loop_
_atom_site_type_symbol
_atom_site_label
_atom_site_fract_x
_atom_site_fract_y
_atom_site_fract_z
Si Si1 0.046428 0.221570 0.614963
Si Si2 0.950370 0.707103 0.869016
Si Si3 0.548631 0.222799 0.000000
Si Si4 0.636322 0.721295 0.568677
Si Si5 0.171285 0.777396 0.796041
Si Si6 0.795893 0.784070 0.668413
Si Si7 0.415802 0.297564 0.257297
Si Si8 0.299841 0.283113 0.931203
O O1 0.088022 0.276464 0.578053
O O2 0.057398 0.279349 0.686138
O O3 0.000000 0.284253 0.596574
O O4 0.044593 0.000000 0.612083
O O5 0.935855 0.500000 0.860868
O O6 0.941997 0.807618 0.805601
O O7 0.000000 0.701145 0.878070
O O8 0.932069 0.780610 0.934138
O O9 0.500000 0.281977 0.000000
O O10 0.548455 0.000000 0.000000
O O11 0.650937 0.777236 0.500000
O O12 0.636660 0.500000 0.570183
O O13 0.666764 0.784721 0.624146
O O14 0.202169 0.719678 0.740382
O O15 0.127167 0.715499 0.767240
O O16 0.180249 0.713752 0.866387
O O17 0.170961 0.000000 0.799952
O O18 0.750000 0.750000 0.641873
O O19 0.801641 0.000000 0.671393
O O20 0.404125 0.500000 0.279699
O O21 0.306376 0.500000 0.932141
O O22 0.250000 0.250000 0.926944
O O23 0.313650 0.213539 0.000000
#
# Coordination Sequence:
#
# PCOD9483720 Si02
#       8
#    16  16   8  16  16  16  16  16
#     4   9  16  27  46  71  98 131 169 205 246 297
#     4   9  17  30  47  66  89 121 161 201 244 293
#     4   7  12  26  45  59  79 117 158 193 236 293
#     4   9  17  30  48  71 102 136 168 206 249 294
#     4   9  17  31  49  68  96 131 162 195 243 300
#     4  10  19  33  53  76 102 133 168 203 246 298
#     4  10  18  30  47  69  97 127 159 201 249 295
#     4   9  17  30  48  68  90 120 159 200 243 293
#
# _framework density 23.763417
#
# number of rings (size 3 to 8) (size 9 to 14) (size 15 to 20)
#    0.000    2.867    1.333    1.600    0.000    1.333 
#    1.200    3.000    0.000    1.200    0.000    0.000 
#    0.000    0.000    0.000    4.000    0.000    4.000 
#
# Total GULP energy -334556.093014 kJ/mol
# GULP energy per Si atom -5575.934884 kJ/mol
# Density = 2.370933 g / cm^3
# Si number density = 23.763417 Si / 1000 Ang^3
#
#
#
# Elastic Constant Matrix: (Units=GPa)
#
#
# Indices 1 2 3 4 5 6 
#
# 1 108.1780 -1.6201 40.4885 0.0000 0.0000 0.0000
# 2 -1.6201 84.9086 7.1372 0.0000 0.0000 0.0000
# 3 40.4885 7.1372 153.5979 0.0000 0.0000 0.0000
# 4 0.0000 0.0000 0.0000 -19.2338 0.0000 0.0000
# 5 0.0000 0.0000 0.0000 0.0000 27.0400 0.0000
# 6 0.0000 0.0000 0.0000 0.0000 0.0000 2.3681
#
#
#
# Elastic Compliance Matrix: (Units=1/GPa)
#
#
# Indices 1 2 3 4 5 6 
#
# 1 0.010271 0.000425 -0.002727 0.000000 0.000000 0.000000
# 2 0.000425 0.011841 -0.000662 0.000000 0.000000 0.000000
# 3 -0.002727 -0.000662 0.007260 0.000000 0.000000 0.000000
# 4 0.000000 0.000000 0.000000 -0.051992 0.000000 0.000000
# 5 0.000000 0.000000 0.000000 0.000000 0.036982 0.000000
# 6 0.000000 0.000000 0.000000 0.000000 0.000000 0.422272
#
#
# Mechanical properties :
#
#
# Convention : Reuss Voigt Hill
#
# Bulk Modulus (GPa) = 42.65513 48.74395 45.69954
# Shear Modulus (GPa) = 11.10177 22.08013 16.59095
#
# Velocity S-wave (km/s) = 2.16378 3.05153 2.64516
# Velocity P-wave (km/s) = 4.92255 5.74217 5.34808
#
# Compressibility (1/GPa) = 0.02344384
#
# Stress axis : x y z
#
# Youngs Moduli (GPa) = 97.36026 84.45117 137.73765
#
# Poissons Ratio (x) = -0.03591 0.37564
# Poissons Ratio (y) = -0.04140 0.09123
# Poissons Ratio (z) = 0.26552 0.05593
#
# Static dielectric constant tensor:
#      x y z
#    x 1.930210 0.000000 0.000000 
#    y 0.000000 2.115690 0.000000 
#    z 0.000000 0.000000 1.927160 
# 
# From -- ./inp_files/66098.got.cif
#   From: 2010.05.17/outbox.cif.g08.bks.cpg/sg65_34_cif.got.tgz:66098.got - 2010.06.03 17:01:31.
