data_PCOD9483594
_publ_section_title
;
Structure prediction by ZEFSAII (Michael W. Deem and Ramdas Pophale) SiO2 
 PCOD9483594
Probable space group: C M M M
;
_chemical_formula_sum "Si O2"
_cell_formula_units_Z 88
_cell_length_a 15.453486
_cell_length_b 15.783488
_cell_length_c 17.655277
_cell_angle_alpha 90.000000
_cell_angle_beta 90.000000
_cell_angle_gamma 90.000000
_cell_volume 4306.297039
_symmetry_space_group_name_H-M "C M M M"
_symmetry_group_IT_number 65
_symmetry_cell_setting 'orthorhombic'
loop_
_space_group_symop_operation_xyz
x,y,z
-x,-y,z
x,-y,-z
-x,y,-z
-x,-y,-z
x,y,-z
-x,y,z
x,-y,z
1/2+x,1/2+y,z
1/2-x,1/2-y,z
1/2+x,1/2-y,-z
1/2-x,1/2+y,-z
1/2-x,1/2-y,-z
1/2+x,1/2+y,-z
1/2-x,1/2+y,z
1/2+x,1/2-y,z
loop_
_atom_site_type_symbol
_atom_site_label
_atom_site_fract_x
_atom_site_fract_y
_atom_site_fract_z
Si Si1 0.224583 0.348140 0.634664
Si Si2 0.093324 0.130740 0.675536
Si Si3 0.742059 0.000000 0.086008
Si Si4 0.333588 0.187884 0.913779
Si Si5 0.401492 0.899014 0.500000
Si Si6 0.094676 0.314309 0.248015
Si Si7 0.406962 0.500000 0.809797
O O1 0.250000 0.250000 0.624327
O O2 0.318754 0.391404 0.631691
O O3 0.154359 0.372420 0.572569
O O4 0.177241 0.362160 0.715876
O O5 0.094193 0.228283 0.702528
O O6 0.095542 0.079113 0.753322
O O7 0.000000 0.113652 0.637930
O O8 0.690618 0.911750 0.095139
O O9 0.824528 0.000000 0.138644
O O10 0.773660 0.000000 0.000000
O O11 0.250000 0.250000 0.908726
O O12 0.391104 0.206745 0.840124
O O13 0.368596 0.198886 0.000000
O O14 0.500000 0.864317 0.500000
O O15 0.407443 0.000000 0.500000
O O16 0.000000 0.355660 0.257790
O O17 0.500000 0.500000 0.850484
#
# Coordination Sequence:
#
# PCOD9483594 Si02
#       7
#    16  16   8  16   8  16   8
#     4  10  20  38  62  84 111 151 193 233 286 344
#     4   9  19  33  55  85 113 141 183 234 282 343
#     4  10  20  33  49  72 103 143 191 239 288 344
#     4  10  20  35  54  77 109 150 193 240 294 347
#     4  11  25  42  59  87 123 153 190 239 290 342
#     4  10  19  34  56  82 110 147 194 237 281 339
#     4  10  18  29  48  76 108 139 173 225 289 343
#
# _framework density 20.435189999999999
#
# number of rings (size 3 to 8) (size 9 to 14) (size 15 to 20)
#    0.000    2.091    0.000    4.636    1.273    1.273 
#    1.636    0.909    0.000    8.727    0.000    0.000 
#    0.000    0.000    0.000    0.000    0.000    0.000 
#
# Total GULP energy -245157.629155 kJ/mol
# GULP energy per Si atom -5571.764299 kJ/mol
# Density = 2.038868 g / cm^3
# Si number density = 20.435190 Si / 1000 Ang^3
#
#
#
# Elastic Constant Matrix: (Units=GPa)
#
#
# Indices 1 2 3 4 5 6 
#
# 1 166.9022 11.7264 55.4163 0.0000 0.0000 0.0000
# 2 11.7264 45.0985 -3.9103 0.0000 0.0000 0.0000
# 3 55.4163 -3.9103 82.1817 0.0000 0.0000 0.0000
# 4 0.0000 0.0000 0.0000 12.9637 0.0000 0.0000
# 5 0.0000 0.0000 0.0000 0.0000 36.6226 0.0000
# 6 0.0000 0.0000 0.0000 0.0000 0.0000 34.8586
#
#
#
# Elastic Compliance Matrix: (Units=1/GPa)
#
#
# Indices 1 2 3 4 5 6 
#
# 1 0.008004 -0.002560 -0.005519 0.000000 0.000000 0.000000
# 2 -0.002560 0.023084 0.002824 0.000000 0.000000 0.000000
# 3 -0.005519 0.002824 0.016024 0.000000 0.000000 0.000000
# 4 0.000000 0.000000 0.000000 0.077139 0.000000 0.000000
# 5 0.000000 0.000000 0.000000 0.000000 0.027306 0.000000
# 6 0.000000 0.000000 0.000000 0.000000 0.000000 0.028687
#
#
# Mechanical properties :
#
#
# Convention : Reuss Voigt Hill
#
# Bulk Modulus (GPa) = 27.31965 46.73857 37.02911
# Shear Modulus (GPa) = 24.63626 32.28564 28.46095
#
# Velocity S-wave (km/s) = 3.47591 3.97911 3.73599
# Velocity P-wave (km/s) = 5.43206 6.63569 6.06381
#
# Compressibility (1/GPa) = 0.03660369
#
# Stress axis : x y z
#
# Youngs Moduli (GPa) = 124.94075 43.31978 62.40640
#
# Poissons Ratio (x) = 0.11088 0.34441
# Poissons Ratio (y) = 0.31980 -0.17626
# Poissons Ratio (z) = 0.68953 -0.12235
#
# Static dielectric constant tensor:
#      x y z
#    x 1.801900 0.000000 0.000000 
#    y 0.000000 1.763350 0.000000 
#    z 0.000000 0.000000 1.723480 
# 
# From -- ./inp_files/53071.got.cif
#   From: 2010.05.17/outbox.cif.g08.bks.cpg/sg65_27_cif.got.tgz:53071.got - 2010.06.03 17:01:31.
