data_PCOD9483313
_publ_section_title
;
Structure prediction by ZEFSAII (Michael W. Deem and Ramdas Pophale) SiO2 
 PCOD9483313
Probable space group: C M M M
;
_chemical_formula_sum "Si O2"
_cell_formula_units_Z 88
_cell_length_a 14.822594
_cell_length_b 8.124876
_cell_length_c 33.216771
_cell_angle_alpha 90.000000
_cell_angle_beta 90.000000
_cell_angle_gamma 90.000000
_cell_volume 4000.353471
_symmetry_space_group_name_H-M "C M M M"
_symmetry_group_IT_number 65
_symmetry_cell_setting 'orthorhombic'
loop_
_space_group_symop_operation_xyz
x,y,z
-x,-y,z
x,-y,-z
-x,y,-z
-x,-y,-z
x,y,-z
-x,y,z
x,-y,z
1/2+x,1/2+y,z
1/2-x,1/2-y,z
1/2+x,1/2-y,-z
1/2-x,1/2+y,-z
1/2-x,1/2-y,-z
1/2+x,1/2+y,-z
1/2-x,1/2+y,z
1/2+x,1/2-y,z
loop_
_atom_site_type_symbol
_atom_site_label
_atom_site_fract_x
_atom_site_fract_y
_atom_site_fract_z
Si Si1 0.105060 0.812695 0.175118
Si Si2 0.854888 0.693038 0.000000
Si Si3 0.646112 0.305023 0.914824
Si Si4 0.889199 0.500000 0.682168
Si Si5 0.104918 0.812687 0.366889
Si Si6 0.610792 0.000000 0.224236
Si Si7 0.145708 0.197920 0.456765
O O1 0.108124 0.755050 0.128471
O O2 0.143732 0.666266 0.202217
O O3 0.000000 0.827183 0.186284
O O4 0.143424 0.000000 0.178060
O O5 0.750000 0.750000 0.000000
O O6 0.894567 0.747685 0.042767
O O7 0.854713 0.500000 0.000000
O O8 0.640814 0.500000 0.915734
O O9 0.750000 0.250000 0.914457
O O10 0.856217 0.666307 0.660170
O O11 0.865041 0.500000 0.728966
O O12 0.000000 0.500000 0.679483
O O13 0.107396 0.754295 0.413516
O O14 0.000000 0.827438 0.355518
O O15 0.143381 0.000000 0.364114
O O16 0.500000 0.000000 0.221573
O O17 0.108620 0.259008 0.500000
O O18 0.250000 0.250000 0.455957
O O19 0.137787 0.000000 0.457612
#
# Coordination Sequence:
#
# PCOD9483313 Si02
#       7
#    16   8  16   8  16   8  16
#     4   9  19  34  52  76 101 129 166 204 247 297
#     4  10  18  28  45  68  99 129 166 204 234 288
#     4  10  19  31  50  73  98 131 164 203 245 290
#     4   9  18  32  51  78 100 126 164 202 254 304
#     4   9  18  32  50  74 102 130 163 207 250 292
#     4   9  18  32  54  76 100 128 159 207 251 298
#     4   9  18  31  48  72  99 133 172 205 242 291
#
# _framework density 21.998056999999999
#
# number of rings (size 3 to 8) (size 9 to 14) (size 15 to 20)
#    0.000    2.727    0.000    2.455    3.818    1.091 
#    0.000    5.909    0.000    5.455    0.000    0.000 
#    0.000    0.000    0.000    0.000    0.000    0.000 
#
# Total GULP energy -245270.564699 kJ/mol
# GULP energy per Si atom -5574.331016 kJ/mol
# Density = 2.194799 g / cm^3
# Si number density = 21.998057 Si / 1000 Ang^3
#
#
#
# Elastic Constant Matrix: (Units=GPa)
#
#
# Indices 1 2 3 4 5 6 
#
# 1 40.4030 8.3895 0.8264 0.0000 0.0000 0.0000
# 2 8.3895 119.4779 124.6399 0.0000 0.0000 0.0000
# 3 0.8264 124.6399 196.0973 0.0000 0.0000 0.0000
# 4 0.0000 0.0000 0.0000 40.9862 0.0000 0.0000
# 5 0.0000 0.0000 0.0000 0.0000 18.6021 0.0000
# 6 0.0000 0.0000 0.0000 0.0000 0.0000 10.5453
#
#
#
# Elastic Compliance Matrix: (Units=1/GPa)
#
#
# Indices 1 2 3 4 5 6 
#
# 1 0.025731 -0.005027 0.003087 0.000000 0.000000 0.000000
# 2 -0.005027 0.025823 -0.016392 0.000000 0.000000 0.000000
# 3 0.003087 -0.016392 0.015505 0.000000 0.000000 0.000000
# 4 0.000000 0.000000 0.000000 0.024398 0.000000 0.000000
# 5 0.000000 0.000000 0.000000 0.000000 0.053757 0.000000
# 6 0.000000 0.000000 0.000000 0.000000 0.000000 0.094829
#
#
# Mechanical properties :
#
#
# Convention : Reuss Voigt Hill
#
# Bulk Modulus (GPa) = 32.89987 69.29887 51.09937
# Shear Modulus (GPa) = 17.43136 28.83489 23.13312
#
# Velocity S-wave (km/s) = 2.81802 3.62441 3.24635
# Velocity P-wave (km/s) = 5.05733 7.00613 6.10993
#
# Compressibility (1/GPa) = 0.03039526
#
# Stress axis : x y z
#
# Youngs Moduli (GPa) = 38.86322 38.72557 64.49459
#
# Poissons Ratio (x) = 0.19466 -0.19906
# Poissons Ratio (y) = 0.19535 1.05718
# Poissons Ratio (z) = -0.11995 0.63478
#
# Static dielectric constant tensor:
#      x y z
#    x 1.831920 0.000000 0.000000 
#    y 0.000000 1.798830 0.000000 
#    z 0.000000 0.000000 1.844170 
# 
# From -- ./inp_files/77988.got.cif
#   From: 2010.05.17/outbox.cif.g08.bks.cpg/sg65_39_cif.got.tgz:77988.got - 2010.06.03 17:01:31.
