data_PCOD9483752
_publ_section_title
;
Structure prediction by ZEFSAII (Michael W. Deem and Ramdas Pophale) SiO2 
 PCOD9483752
Probable space group: C M M M
;
_chemical_formula_sum "Si O2"
_cell_formula_units_Z 104
_cell_length_a 25.803179
_cell_length_b 9.347752
_cell_length_c 30.844710
_cell_angle_alpha 90.000000
_cell_angle_beta 90.000000
_cell_angle_gamma 90.000000
_cell_volume 7439.797046
_symmetry_space_group_name_H-M "C M M M"
_symmetry_group_IT_number 65
_symmetry_cell_setting 'orthorhombic'
loop_
_space_group_symop_operation_xyz
x,y,z
-x,-y,z
x,-y,-z
-x,y,-z
-x,-y,-z
x,y,-z
-x,y,z
x,-y,z
1/2+x,1/2+y,z
1/2-x,1/2-y,z
1/2+x,1/2-y,-z
1/2-x,1/2+y,-z
1/2-x,1/2-y,-z
1/2+x,1/2+y,-z
1/2-x,1/2+y,z
1/2+x,1/2-y,z
loop_
_atom_site_type_symbol
_atom_site_label
_atom_site_fract_x
_atom_site_fract_y
_atom_site_fract_z
Si Si1 0.937017 0.166544 0.548341
Si Si2 0.061359 0.330351 0.194626
Si Si3 0.000000 0.673602 0.049474
Si Si4 0.104112 0.672392 0.899412
Si Si5 0.936920 0.164463 0.718817
Si Si6 0.195467 0.170041 0.948964
Si Si7 0.436758 0.835269 0.366694
O O1 0.920379 0.212793 0.500000
O O2 0.919350 0.260973 0.588709
O O3 0.000000 0.171195 0.548407
O O4 0.922833 0.000000 0.554318
O O5 0.065488 0.500000 0.203569
O O6 0.093043 0.298300 0.151140
O O7 0.078207 0.242515 0.236738
O O8 0.000000 0.301886 0.186348
O O9 0.947982 0.714718 0.074620
O O10 0.000000 0.500000 0.048830
O O11 0.000000 0.724778 0.000000
O O12 0.111185 0.500000 0.904356
O O13 0.151969 0.757065 0.919427
O O14 0.919956 0.248580 0.675847
O O15 0.000000 0.165986 0.718303
O O16 0.920225 0.000000 0.717807
O O17 0.250000 0.250000 0.941948
O O18 0.200087 0.000000 0.940966
O O19 0.181820 0.189301 0.000000
O O20 0.500000 0.832635 0.366874
O O21 0.420835 0.000000 0.364444
#
# Coordination Sequence:
#
# PCOD9483752 Si02
#       7
#    16  16   8  16  16  16  16
#     4   8  13  20  28  37  51  72  98 132 177 227
#     4   9  16  27  41  58  81 105 131 159 191 233
#     4   9  16  26  43  67  91 115 141 163 190 237
#     4  10  18  30  48  69  90 114 140 168 201 241
#     4   9  16  24  34  47  64  89 120 151 186 227
#     4  10  21  36  52  69  88 111 140 173 207 242
#     4   9  15  21  29  41  56  76 105 142 183 225
#
# _framework density 13.978876
#
# number of rings (size 3 to 8) (size 9 to 14) (size 15 to 20)
#    0.000    2.846    0.769    2.308    0.000    6.154 
#    0.000    1.923    0.000    1.385    0.000    0.000 
#    0.000    0.000    0.000    0.000    0.000    0.000 
#
# Total GULP energy -289573.613183 kJ/mol
# GULP energy per Si atom -5568.723330 kJ/mol
# Density = 1.394706 g / cm^3
# Si number density = 13.978876 Si / 1000 Ang^3
#
#
#
# Elastic Constant Matrix: (Units=GPa)
#
#
# Indices 1 2 3 4 5 6 
#
# 1 38.9364 34.9323 42.2606 0.0000 0.0000 0.0000
# 2 34.9323 94.3561 92.1902 0.0000 0.0000 0.0000
# 3 42.2606 92.1902 152.2702 0.0000 0.0000 0.0000
# 4 0.0000 0.0000 0.0000 27.3068 0.0000 0.0000
# 5 0.0000 0.0000 0.0000 0.0000 6.1706 0.0000
# 6 0.0000 0.0000 0.0000 0.0000 0.0000 13.7234
#
#
#
# Elastic Compliance Matrix: (Units=1/GPa)
#
#
# Indices 1 2 3 4 5 6 
#
# 1 0.040094 -0.009723 -0.005241 0.000000 0.000000 0.000000
# 2 -0.009723 0.028304 -0.014438 0.000000 0.000000 0.000000
# 3 -0.005241 -0.014438 0.016763 0.000000 0.000000 0.000000
# 4 0.000000 0.000000 0.000000 0.036621 0.000000 0.000000
# 5 0.000000 0.000000 0.000000 0.000000 0.162058 0.000000
# 6 0.000000 0.000000 0.000000 0.000000 0.000000 0.072868
#
#
# Mechanical properties :
#
#
# Convention : Reuss Voigt Hill
#
# Bulk Modulus (GPa) = 37.93920 69.36988 53.65454
# Shear Modulus (GPa) = 11.78414 17.18549 14.48481
#
# Velocity S-wave (km/s) = 2.90659 3.51007 3.22249
# Velocity P-wave (km/s) = 6.20191 8.13388 7.23269
#
# Compressibility (1/GPa) = 0.02635796
#
# Stress axis : x y z
#
# Youngs Moduli (GPa) = 24.94110 35.33012 59.65424
#
# Poissons Ratio (x) = 0.34351 0.31265
# Poissons Ratio (y) = 0.24250 0.86130
# Poissons Ratio (z) = 0.13072 0.51010
#
# Static dielectric constant tensor:
#      x y z
#    x 1.419960 0.000000 0.000000 
#    y 0.000000 1.466410 0.000000 
#    z 0.000000 0.000000 1.467710 
# 
# From -- ./inp_files/78472.got.cif
#   From: 2010.05.17/outbox.cif.g08.bks.cpg/sg65_40_cif.got.tgz:78472.got - 2010.06.03 17:01:31.
