data_PCOD9483251
_publ_section_title
;
Structure prediction by ZEFSAII (Michael W. Deem and Ramdas Pophale) SiO2 
 PCOD9483251
Probable space group: C M M M
;
_chemical_formula_sum "Si O2"
_cell_formula_units_Z 96
_cell_length_a 28.034345
_cell_length_b 8.534316
_cell_length_c 25.135030
_cell_angle_alpha 90.000000
_cell_angle_beta 90.000000
_cell_angle_gamma 90.000000
_cell_volume 6013.655439
_symmetry_space_group_name_H-M "C M M M"
_symmetry_group_IT_number 65
_symmetry_cell_setting 'orthorhombic'
loop_
_space_group_symop_operation_xyz
x,y,z
-x,-y,z
x,-y,-z
-x,y,-z
-x,-y,-z
x,y,-z
-x,y,z
x,-y,z
1/2+x,1/2+y,z
1/2-x,1/2-y,z
1/2+x,1/2-y,-z
1/2-x,1/2+y,-z
1/2-x,1/2-y,-z
1/2+x,1/2+y,-z
1/2-x,1/2+y,z
1/2+x,1/2-y,z
loop_
_atom_site_type_symbol
_atom_site_label
_atom_site_fract_x
_atom_site_fract_y
_atom_site_fract_z
Si Si1 0.946124 0.810203 0.667912
Si Si2 0.695666 0.311559 0.173823
Si Si3 0.304363 0.689145 0.942844
Si Si4 0.801898 0.187478 0.616350
Si Si5 0.601955 0.690638 0.559112
Si Si6 0.352164 0.186230 0.720803
O O1 0.932330 0.761888 0.607501
O O2 0.905196 0.742872 0.705654
O O3 0.000000 0.762944 0.680846
O O4 0.943335 0.000000 0.669947
O O5 0.696673 0.500000 0.176452
O O6 0.750000 0.250000 0.178710
O O7 0.676435 0.262789 0.115105
O O8 0.664991 0.246860 0.222266
O O9 0.303750 0.500000 0.942872
O O10 0.250000 0.750000 0.943086
O O11 0.325931 0.740016 0.000000
O O12 0.750000 0.250000 0.601981
O O13 0.844411 0.236380 0.576498
O O14 0.817724 0.246542 0.674604
O O15 0.800851 0.000000 0.617404
O O16 0.589936 0.746899 0.500000
O O17 0.600790 0.500000 0.557961
O O18 0.349741 0.000000 0.719177
#
# Coordination Sequence:
#
# PCOD9483251 Si02
#       6
#    16  16  16  16  16  16
#     4   9  18  33  52  71  90 112 138 173 220 269
#     4  10  18  28  43  64  92 123 155 188 220 256
#     4   8  14  24  38  57  83 117 153 185 216 250
#     4  10  19  31  46  64  88 118 150 182 218 258
#     4   8  15  28  46  69  93 114 139 172 210 258
#     4  11  21  32  46  64  88 116 149 186 221 261
#
# _framework density 15.963668
#
# number of rings (size 3 to 8) (size 9 to 14) (size 15 to 20)
#    0.000    2.667    0.000    4.000    0.000    1.667 
#    0.000    1.667    0.000   12.000    0.000    4.667 
#    0.000    0.667    0.000    7.667    0.000    2.167 
#
# Total GULP energy -267390.585836 kJ/mol
# GULP energy per Si atom -5570.637205 kJ/mol
# Density = 1.592733 g / cm^3
# Si number density = 15.963668 Si / 1000 Ang^3
#
#
#
# Elastic Constant Matrix: (Units=GPa)
#
#
# Indices 1 2 3 4 5 6 
#
# 1 61.6053 14.8757 24.0071 0.0000 0.0000 0.0000
# 2 14.8757 36.6662 14.9432 0.0000 0.0000 0.0000
# 3 24.0071 14.9432 121.4822 0.0000 0.0000 0.0000
# 4 0.0000 0.0000 0.0000 9.5640 0.0000 0.0000
# 5 0.0000 0.0000 0.0000 0.0000 7.8257 0.0000
# 6 0.0000 0.0000 0.0000 0.0000 0.0000 19.5047
#
#
#
# Elastic Compliance Matrix: (Units=1/GPa)
#
#
# Indices 1 2 3 4 5 6 
#
# 1 0.018947 -0.006486 -0.002946 0.000000 0.000000 0.000000
# 2 -0.006486 0.030933 -0.002523 0.000000 0.000000 0.000000
# 3 -0.002946 -0.002523 0.009124 0.000000 0.000000 0.000000
# 4 0.000000 0.000000 0.000000 0.104559 0.000000 0.000000
# 5 0.000000 0.000000 0.000000 0.000000 0.127784 0.000000
# 6 0.000000 0.000000 0.000000 0.000000 0.000000 0.051270
#
#
# Mechanical properties :
#
#
# Convention : Reuss Voigt Hill
#
# Bulk Modulus (GPa) = 28.49601 36.37840 32.43721
# Shear Modulus (GPa) = 13.21962 18.44071 15.83017
#
# Velocity S-wave (km/s) = 2.88081 3.40246 3.15244
# Velocity P-wave (km/s) = 5.38096 6.18655 5.79776
#
# Compressibility (1/GPa) = 0.03509264
#
# Stress axis : x y z
#
# Youngs Moduli (GPa) = 52.77961 32.32811 109.59748
#
# Poissons Ratio (x) = 0.20968 0.32292
# Poissons Ratio (y) = 0.34233 0.27654
# Poissons Ratio (z) = 0.15551 0.08157
#
# Static dielectric constant tensor:
#      x y z
#    x 1.508910 0.000000 0.000000 
#    y 0.000000 1.541810 0.000000 
#    z 0.000000 0.000000 1.570220 
# 
# From -- ./inp_files/71418.got.cif
#   From: 2010.05.17/outbox.cif.g08.bks.cpg/sg65_36_cif.got.tgz:71418.got - 2010.06.03 17:01:31.
