data_PCOD9483143
_publ_section_title
;
Structure prediction by ZEFSAII (Michael W. Deem and Ramdas Pophale) SiO2 
 PCOD9483143
Probable space group: C M M M
;
_chemical_formula_sum "Si O2"
_cell_formula_units_Z 104
_cell_length_a 8.267426
_cell_length_b 28.125589
_cell_length_c 28.661618
_cell_angle_alpha 90.000000
_cell_angle_beta 90.000000
_cell_angle_gamma 90.000000
_cell_volume 6664.577858
_symmetry_space_group_name_H-M "C M M M"
_symmetry_group_IT_number 65
_symmetry_cell_setting 'orthorhombic'
loop_
_space_group_symop_operation_xyz
x,y,z
-x,-y,z
x,-y,-z
-x,y,-z
-x,-y,-z
x,y,-z
-x,y,z
x,-y,z
1/2+x,1/2+y,z
1/2-x,1/2-y,z
1/2+x,1/2-y,-z
1/2-x,1/2+y,-z
1/2-x,1/2-y,-z
1/2+x,1/2+y,-z
1/2-x,1/2+y,z
1/2+x,1/2-y,z
loop_
_atom_site_type_symbol
_atom_site_label
_atom_site_fract_x
_atom_site_fract_y
_atom_site_fract_z
Si Si1 0.195451 0.946416 0.901193
Si Si2 0.692104 0.302569 0.854912
Si Si3 0.191240 0.555408 0.289183
Si Si4 0.804429 0.897123 0.195261
Si Si5 0.500000 0.057933 0.554153
Si Si6 0.319143 0.442180 0.389463
Si Si7 0.192738 0.648861 0.051942
O O1 0.500000 0.942521 0.700482
O O2 0.238017 0.931813 0.848022
O O3 0.263234 0.905219 0.934135
O O4 0.248993 0.000000 0.911808
O O5 0.500000 0.303487 0.852432
O O6 0.750000 0.250000 0.843554
O O7 0.751610 0.344746 0.820953
O O8 0.740107 0.317777 0.907279
O O9 0.500000 0.555257 0.095639
O O10 0.232722 0.500000 0.279902
O O11 0.231896 0.585326 0.243532
O O12 0.285791 0.570830 0.335595
O O13 0.000000 0.897329 0.199167
O O14 0.500000 0.071743 0.500000
O O15 0.665440 0.073639 0.579787
O O16 0.500000 0.000000 0.556071
O O17 0.500000 0.426851 0.404066
O O18 0.317709 0.500000 0.391045
O O19 0.000000 0.653579 0.052036
O O20 0.254493 0.659760 0.000000
#
# Coordination Sequence:
#
# PCOD9483143 Si02
#       7
#    16  16  16  16   8  16  16
#     4   9  18  32  48  66  91 120 148 180 218 261
#     4  10  21  37  55  71  89 112 140 179 221 268
#     4  10  18  27  41  63  91 120 152 191 228 266
#     4   9  18  31  46  66  88 112 144 178 216 269
#     4   9  16  26  38  54  80 112 156 208 241 275
#     4   9  16  26  39  55  80 115 153 197 243 278
#     4  10  21  35  50  69  91 114 143 178 217 263
#
# _framework density 15.604889
#
# number of rings (size 3 to 8) (size 9 to 14) (size 15 to 20)
#    0.000    2.538    0.769    2.769    0.000    7.077 
#    0.000    3.077    0.000    0.000    0.000    0.000 
#    0.000    0.000    0.000    0.000    0.000    0.769 
#
# Total GULP energy -289887.191212 kJ/mol
# GULP energy per Si atom -5574.753677 kJ/mol
# Density = 1.556937 g / cm^3
# Si number density = 15.604889 Si / 1000 Ang^3
#
#
#
# Elastic Constant Matrix: (Units=GPa)
#
#
# Indices 1 2 3 4 5 6 
#
# 1 60.3975 12.3459 37.1277 0.0000 0.0000 0.0000
# 2 12.3459 52.0332 14.8762 0.0000 0.0000 0.0000
# 3 37.1277 14.8762 90.2947 0.0000 0.0000 0.0000
# 4 0.0000 0.0000 0.0000 8.4477 0.0000 0.0000
# 5 0.0000 0.0000 0.0000 0.0000 16.8178 0.0000
# 6 0.0000 0.0000 0.0000 0.0000 0.0000 19.7880
#
#
#
# Elastic Compliance Matrix: (Units=1/GPa)
#
#
# Indices 1 2 3 4 5 6 
#
# 1 0.022549 -0.002833 -0.008805 0.000000 0.000000 0.000000
# 2 -0.002833 0.020524 -0.002217 0.000000 0.000000 0.000000
# 3 -0.008805 -0.002217 0.015060 0.000000 0.000000 0.000000
# 4 0.000000 0.000000 0.000000 0.118376 0.000000 0.000000
# 5 0.000000 0.000000 0.000000 0.000000 0.059461 0.000000
# 6 0.000000 0.000000 0.000000 0.000000 0.000000 0.050536
#
#
# Mechanical properties :
#
#
# Convention : Reuss Voigt Hill
#
# Bulk Modulus (GPa) = 32.86793 36.82500 34.84646
# Shear Modulus (GPa) = 15.41517 18.23575 16.82546
#
# Velocity S-wave (km/s) = 3.14641 3.42218 3.28718
# Velocity P-wave (km/s) = 5.85731 6.26615 6.06518
#
# Compressibility (1/GPa) = 0.03042480
#
# Stress axis : x y z
#
# Youngs Moduli (GPa) = 44.34865 48.72262 66.39900
#
# Poissons Ratio (x) = 0.13802 0.58464
# Poissons Ratio (y) = 0.12563 0.14718
# Poissons Ratio (z) = 0.39049 0.10800
#
# Static dielectric constant tensor:
#      x y z
#    x 1.550540 0.000000 0.000000 
#    y 0.000000 1.505140 0.000000 
#    z 0.000000 0.000000 1.514300 
# 
# From -- ./inp_files/73757.got.cif
#   From: 2010.05.17/outbox.cif.g08.bks.cpg/sg65_37_cif.got.tgz:73757.got - 2010.06.03 17:01:31.
