data_PCOD9483218
_publ_section_title
;
Structure prediction by ZEFSAII (Michael W. Deem and Ramdas Pophale) SiO2 
 PCOD9483218
Probable space group: C M M M
;
_chemical_formula_sum "Si O2"
_cell_formula_units_Z 104
_cell_length_a 28.446678
_cell_length_b 8.498102
_cell_length_c 27.586848
_cell_angle_alpha 90.000000
_cell_angle_beta 90.000000
_cell_angle_gamma 90.000000
_cell_volume 6668.921084
_symmetry_space_group_name_H-M "C M M M"
_symmetry_group_IT_number 65
_symmetry_cell_setting 'orthorhombic'
loop_
_space_group_symop_operation_xyz
x,y,z
-x,-y,z
x,-y,-z
-x,y,-z
-x,-y,-z
x,y,-z
-x,y,z
x,-y,z
1/2+x,1/2+y,z
1/2-x,1/2-y,z
1/2+x,1/2-y,-z
1/2-x,1/2+y,-z
1/2-x,1/2-y,-z
1/2+x,1/2+y,-z
1/2-x,1/2+y,z
1/2+x,1/2-y,z
loop_
_atom_site_type_symbol
_atom_site_label
_atom_site_fract_x
_atom_site_fract_y
_atom_site_fract_z
Si Si1 0.554055 0.310334 0.945264
Si Si2 0.803452 0.189677 0.500000
Si Si3 0.696437 0.311356 0.393942
Si Si4 0.301832 0.189576 0.798198
Si Si5 0.605632 0.810315 0.852041
Si Si6 0.552971 0.808132 0.754447
Si Si7 0.854277 0.690011 0.299486
O O1 0.500000 0.259464 0.936025
O O2 0.554376 0.500000 0.944821
O O3 0.587527 0.250391 0.903116
O O4 0.566781 0.259374 0.000000
O O5 0.750000 0.250000 0.500000
O O6 0.822306 0.240289 0.447315
O O7 0.803771 0.000000 0.500000
O O8 0.698235 0.500000 0.392947
O O9 0.750000 0.250000 0.388288
O O10 0.664638 0.252787 0.350031
O O11 0.250000 0.250000 0.808287
O O12 0.342102 0.240789 0.836030
O O13 0.319950 0.239073 0.744755
O O14 0.301254 0.000000 0.798357
O O15 0.571065 0.761263 0.807978
O O16 0.605285 0.000000 0.852911
O O17 0.500000 0.753436 0.745054
O O18 0.593250 0.759445 0.716434
O O19 0.552554 0.000000 0.754026
O O20 0.853847 0.500000 0.300929
#
# Coordination Sequence:
#
# PCOD9483218 Si02
#       7
#    16   8  16  16  16  16  16
#     4   9  18  31  45  64  91 117 138 165 207 256
#     4   8  16  28  40  56  79 108 139 171 208 249
#     4  10  18  28  42  60  84 112 141 173 209 248
#     4   9  18  30  43  62  88 115 142 173 207 245
#     4   9  17  29  46  67  87 109 142 178 207 241
#     4   8  14  26  44  64  87 114 140 168 206 250
#     4   9  17  28  42  63  88 112 140 172 207 247
#
# _framework density 15.594727000000001
#
# number of rings (size 3 to 8) (size 9 to 14) (size 15 to 20)
#    0.000    3.077    0.000    3.692    0.000    4.308 
#    0.000    3.077    0.000    1.846    0.000    0.538 
#    0.000    4.308    0.000    0.000    0.000    0.000 
#
# Total GULP energy -289541.575563 kJ/mol
# GULP energy per Si atom -5568.107222 kJ/mol
# Density = 1.555923 g / cm^3
# Si number density = 15.594727 Si / 1000 Ang^3
#
#
#
# Elastic Constant Matrix: (Units=GPa)
#
#
# Indices 1 2 3 4 5 6 
#
# 1 124.6042 18.8305 88.2141 0.0000 0.0000 0.0000
# 2 18.8305 8.5525 23.7420 0.0000 0.0000 0.0000
# 3 88.2141 23.7420 162.7645 0.0000 0.0000 0.0000
# 4 0.0000 0.0000 0.0000 23.5353 0.0000 0.0000
# 5 0.0000 0.0000 0.0000 0.0000 22.8044 0.0000
# 6 0.0000 0.0000 0.0000 0.0000 0.0000 18.4264
#
#
#
# Elastic Compliance Matrix: (Units=1/GPa)
#
#
# Indices 1 2 3 4 5 6 
#
# 1 0.014325 -0.016784 -0.005316 0.000000 0.000000 0.000000
# 2 -0.016784 0.216156 -0.022434 0.000000 0.000000 0.000000
# 3 -0.005316 -0.022434 0.012297 0.000000 0.000000 0.000000
# 4 0.000000 0.000000 0.000000 0.042489 0.000000 0.000000
# 5 0.000000 0.000000 0.000000 0.000000 0.043851 0.000000
# 6 0.000000 0.000000 0.000000 0.000000 0.000000 0.054270
#
#
# Mechanical properties :
#
#
# Convention : Reuss Voigt Hill
#
# Bulk Modulus (GPa) = 6.50569 61.94384 34.22476
# Shear Modulus (GPa) = 9.54760 23.96219 16.75489
#
# Velocity S-wave (km/s) = 2.47702 3.92415 3.28135
# Velocity P-wave (km/s) = 3.51591 7.76783 6.02913
#
# Compressibility (1/GPa) = 0.15371163
#
# Stress axis : x y z
#
# Youngs Moduli (GPa) = 69.80797 4.62629 81.32030
#
# Poissons Ratio (x) = 0.07765 0.43226
# Poissons Ratio (y) = 1.17166 1.82430
# Poissons Ratio (z) = 0.37107 0.10378
#
# Static dielectric constant tensor:
#      x y z
#    x 1.508090 0.000000 0.000000 
#    y 0.000000 1.542420 0.000000 
#    z 0.000000 0.000000 1.528500 
# 
# From -- ./inp_files/76032.got.cif
#   From: 2010.05.17/outbox.cif.g08.bks.cpg/sg65_39_cif.got.tgz:76032.got - 2010.06.03 17:01:31.
