data_PCOD9483660
_publ_section_title
;
Structure prediction by ZEFSAII (Michael W. Deem and Ramdas Pophale) SiO2 
 PCOD9483660
Probable space group: C M M M
;
_chemical_formula_sum "Si O2"
_cell_formula_units_Z 92
_cell_length_a 29.715359
_cell_length_b 23.195038
_cell_length_c 7.470424
_cell_angle_alpha 90.000000
_cell_angle_beta 90.000000
_cell_angle_gamma 90.000000
_cell_volume 5148.981384
_symmetry_space_group_name_H-M "C M M M"
_symmetry_group_IT_number 65
_symmetry_cell_setting 'orthorhombic'
loop_
_space_group_symop_operation_xyz
x,y,z
-x,-y,z
x,-y,-z
-x,y,-z
-x,-y,-z
x,y,-z
-x,y,z
x,-y,z
1/2+x,1/2+y,z
1/2-x,1/2-y,z
1/2+x,1/2-y,-z
1/2-x,1/2+y,-z
1/2-x,1/2-y,-z
1/2+x,1/2+y,-z
1/2-x,1/2+y,z
1/2+x,1/2-y,z
loop_
_atom_site_type_symbol
_atom_site_label
_atom_site_fract_x
_atom_site_fract_y
_atom_site_fract_z
Si Si1 0.449215 0.373207 0.209501
Si Si2 0.640954 0.326110 0.783338
Si Si3 0.166072 0.500000 0.000000
Si Si4 0.199177 0.063991 0.217189
Si Si5 0.303189 0.090881 0.709444
Si Si6 0.204802 0.278756 0.289354
Si Si7 0.947754 0.000000 0.713514
O O1 0.500000 0.371404 0.287215
O O2 0.410162 0.332795 0.283586
O O3 0.430169 0.438682 0.222347
O O4 0.453662 0.360310 0.000000
O O5 0.669894 0.381568 0.721505
O O6 0.665308 0.267319 0.732319
O O7 0.640141 0.328711 0.000000
O O8 0.170018 0.450093 0.842328
O O9 0.250600 0.072397 0.277353
O O10 0.183121 0.000000 0.273230
O O11 0.199498 0.064481 0.000000
O O12 0.316800 0.086694 0.500000
O O13 0.305288 0.157156 0.775511
O O14 0.213471 0.287441 0.500000
O O15 0.250000 0.250000 0.210998
O O16 0.946449 0.000000 0.500000
O O17 0.000000 0.000000 0.774522
#
# Coordination Sequence:
#
# PCOD9483660 Si02
#       7
#    16  16   4  16  16  16   8
#     4   9  18  33  49  68  93 125 165 211 258 304
#     4  10  21  31  50  72  93 131 172 211 255 302
#     4  12  22  36  52  74 100 136 164 214 256 300
#     4  10  18  30  44  66  96 129 172 217 258 298
#     4  11  21  34  53  74  98 133 173 210 255 306
#     4  10  21  35  50  70  98 130 166 209 252 300
#     4   9  17  29  46  67  89 119 162 210 264 310
#
# _framework density 17.867612000000001
#
# number of rings (size 3 to 8) (size 9 to 14) (size 15 to 20)
#    0.000    2.000    3.478    0.522    2.435    2.087 
#    0.000    0.000    0.000    0.000    0.000    0.000 
#    0.000    0.000    0.000    1.565    0.000    7.739 
#
# Total GULP energy -256136.949536 kJ/mol
# GULP energy per Si atom -5568.194555 kJ/mol
# Density = 1.782694 g / cm^3
# Si number density = 17.867612 Si / 1000 Ang^3
#
#
#
# Elastic Constant Matrix: (Units=GPa)
#
#
# Indices 1 2 3 4 5 6 
#
# 1 44.3339 31.4406 -7.1090 0.0000 0.0000 0.0000
# 2 31.4406 157.5897 15.5786 0.0000 0.0000 0.0000
# 3 -7.1090 15.5786 74.0248 0.0000 0.0000 0.0000
# 4 0.0000 0.0000 0.0000 20.5812 0.0000 0.0000
# 5 0.0000 0.0000 0.0000 0.0000 -182.6926 0.0000
# 6 0.0000 0.0000 0.0000 0.0000 0.0000 24.7116
#
#
#
# Elastic Compliance Matrix: (Units=1/GPa)
#
#
# Indices 1 2 3 4 5 6 
#
# 1 0.027307 -0.005828 0.003849 0.000000 0.000000 0.000000
# 2 -0.005828 0.007724 -0.002185 0.000000 0.000000 0.000000
# 3 0.003849 -0.002185 0.014339 0.000000 0.000000 0.000000
# 4 0.000000 0.000000 0.000000 0.048588 0.000000 0.000000
# 5 0.000000 0.000000 0.000000 0.000000 -0.005474 0.000000
# 6 0.000000 0.000000 0.000000 0.000000 0.000000 0.040467
#
#
# Mechanical properties :
#
#
# Convention : Reuss Voigt Hill
#
# Bulk Modulus (GPa) = 24.36640 39.52987 31.94814
# Shear Modulus (GPa) = 32.26632 -11.74407 10.26113
#
# Velocity S-wave (km/s) = 4.25415 -2.56653 2.39903
# Velocity P-wave (km/s) = 6.14794 3.65910 5.05896
#
# Compressibility (1/GPa) = 0.04104011
#
# Stress axis : x y z
#
# Youngs Moduli (GPa) = 36.62106 129.45900 69.74209
#
# Poissons Ratio (x) = 0.75454 -0.26844
# Poissons Ratio (y) = 0.21344 0.15241
# Poissons Ratio (z) = -0.14095 0.28291
#
# Static dielectric constant tensor:
#      x y z
#    x 1.618420 0.000000 0.000000 
#    y 0.000000 1.626860 0.000000 
#    z 0.000000 0.000000 1.663190 
# 
# From -- ./inp_files/16389.got.cif
#   From: 2010.05.17/outbox.cif.g08.bks.cpg/sg65_9_cif.got.tgz:16389.got - 2010.06.03 17:01:31.
