data_PCOD9483611
_publ_section_title
;
Structure prediction by ZEFSAII (Michael W. Deem and Ramdas Pophale) SiO2 
 PCOD9483611
Probable space group: C M M M
;
_chemical_formula_sum "Si O2"
_cell_formula_units_Z 80
_cell_length_a 9.975757
_cell_length_b 23.637386
_cell_length_c 20.953527
_cell_angle_alpha 90.000000
_cell_angle_beta 90.000000
_cell_angle_gamma 90.000000
_cell_volume 4940.858824
_symmetry_space_group_name_H-M "C M M M"
_symmetry_group_IT_number 65
_symmetry_cell_setting 'orthorhombic'
loop_
_space_group_symop_operation_xyz
x,y,z
-x,-y,z
x,-y,-z
-x,y,-z
-x,-y,-z
x,y,-z
-x,y,z
x,-y,z
1/2+x,1/2+y,z
1/2-x,1/2-y,z
1/2+x,1/2-y,-z
1/2-x,1/2+y,-z
1/2-x,1/2-y,-z
1/2+x,1/2+y,-z
1/2-x,1/2+y,z
1/2+x,1/2-y,z
loop_
_atom_site_type_symbol
_atom_site_label
_atom_site_fract_x
_atom_site_fract_y
_atom_site_fract_z
Si Si1 0.846324 0.149184 0.139433
Si Si2 0.349628 0.845758 0.677052
Si Si3 0.155397 0.434310 0.787741
Si Si4 0.250000 0.750000 0.228496
Si Si5 0.343037 0.695735 0.000000
Si Si6 0.157856 0.193676 0.427181
O O1 0.748503 0.101269 0.165383
O O2 0.826290 0.206194 0.181936
O O3 0.000000 0.131318 0.146282
O O4 0.818773 0.162448 0.065536
O O5 0.500000 0.843617 0.649041
O O6 0.336989 0.901270 0.720593
O O7 0.332820 0.791486 0.724431
O O8 0.231738 0.844145 0.625306
O O9 0.192241 0.500000 0.782874
O O10 0.000000 0.430662 0.808366
O O11 0.250000 0.750000 0.000000
O O12 0.500000 0.712289 0.000000
O O13 0.164157 0.171817 0.500000
O O14 0.250000 0.250000 0.425719
O O15 0.000000 0.204113 0.412698
#
# Coordination Sequence:
#
# PCOD9483611 Si02
#       6
#    16  16  16   8   8  16
#     4  10  20  33  52  77 105 135 171 211 254 304
#     4  10  19  30  50  76 101 131 166 208 253 299
#     4   9  20  38  56  75 101 133 172 216 260 304
#     4  10  18  29  49  74 106 132 164 202 254 306
#     4  10  20  34  51  76 107 139 170 206 250 307
#     4  10  20  32  47  70 103 139 170 201 242 297
#
# _framework density 16.191517999999999
#
# number of rings (size 3 to 8) (size 9 to 14) (size 15 to 20)
#    0.000    2.200    2.000    1.200    0.000    6.400 
#    0.000    0.500    0.000    3.600    0.000    4.200 
#    0.000    0.000    0.000    0.000    0.000    0.000 
#
# Total GULP energy -222873.054079 kJ/mol
# GULP energy per Si atom -5571.826352 kJ/mol
# Density = 1.615466 g / cm^3
# Si number density = 16.191518 Si / 1000 Ang^3
#
#
#
# Elastic Constant Matrix: (Units=GPa)
#
#
# Indices 1 2 3 4 5 6 
#
# 1 125.0836 60.3723 74.5372 0.0000 0.0000 0.0000
# 2 60.3723 110.3918 43.0292 0.0000 0.0000 0.0000
# 3 74.5372 43.0292 97.3628 0.0000 0.0000 0.0000
# 4 0.0000 0.0000 0.0000 8.2474 0.0000 0.0000
# 5 0.0000 0.0000 0.0000 0.0000 29.4293 0.0000
# 6 0.0000 0.0000 0.0000 0.0000 0.0000 19.7526
#
#
#
# Elastic Compliance Matrix: (Units=1/GPa)
#
#
# Indices 1 2 3 4 5 6 
#
# 1 0.016726 -0.005021 -0.010586 0.000000 0.000000 0.000000
# 2 -0.005021 0.012451 -0.001659 0.000000 0.000000 0.000000
# 3 -0.010586 -0.001659 0.019108 0.000000 0.000000 0.000000
# 4 0.000000 0.000000 0.000000 0.121250 0.000000 0.000000
# 5 0.000000 0.000000 0.000000 0.000000 0.033980 0.000000
# 6 0.000000 0.000000 0.000000 0.000000 0.000000 0.050626
#
#
# Mechanical properties :
#
#
# Convention : Reuss Voigt Hill
#
# Bulk Modulus (GPa) = 72.70649 76.52395 74.61522
# Shear Modulus (GPa) = 17.04984 21.81251 19.43117
#
# Velocity S-wave (km/s) = 3.24853 3.67434 3.46798
# Velocity P-wave (km/s) = 7.68584 8.08489 7.88789
#
# Compressibility (1/GPa) = 0.01375393
#
# Stress axis : x y z
#
# Youngs Moduli (GPa) = 59.78615 80.31313 52.33391
#
# Poissons Ratio (x) = 0.40327 0.55400
# Poissons Ratio (y) = 0.30020 0.08681
# Poissons Ratio (z) = 0.63289 0.13322
#
# Static dielectric constant tensor:
#      x y z
#    x 1.548440 0.000000 0.000000 
#    y 0.000000 1.516810 0.000000 
#    z 0.000000 0.000000 1.553870 
# 
# From -- ./inp_files/59679.got.cif
#   From: 2010.05.17/outbox.cif.g08.bks.cpg/sg65_30_cif.got.tgz:59679.got - 2010.06.03 17:01:31.
