data_PCOD9483487
_publ_section_title
;
Structure prediction by ZEFSAII (Michael W. Deem and Ramdas Pophale) SiO2 
 PCOD9483487
Probable space group: C M M M
;
_chemical_formula_sum "Si O2"
_cell_formula_units_Z 80
_cell_length_a 26.246629
_cell_length_b 9.104681
_cell_length_c 22.800296
_cell_angle_alpha 90.000000
_cell_angle_beta 90.000000
_cell_angle_gamma 90.000000
_cell_volume 5448.522538
_symmetry_space_group_name_H-M "C M M M"
_symmetry_group_IT_number 65
_symmetry_cell_setting 'orthorhombic'
loop_
_space_group_symop_operation_xyz
x,y,z
-x,-y,z
x,-y,-z
-x,y,-z
-x,-y,-z
x,y,-z
-x,y,z
x,-y,z
1/2+x,1/2+y,z
1/2-x,1/2-y,z
1/2+x,1/2-y,-z
1/2-x,1/2+y,-z
1/2-x,1/2-y,-z
1/2+x,1/2+y,-z
1/2-x,1/2+y,z
1/2+x,1/2-y,z
loop_
_atom_site_type_symbol
_atom_site_label
_atom_site_fract_x
_atom_site_fract_y
_atom_site_fract_z
Si Si1 0.060747 0.824975 0.760080
Si Si2 0.938040 0.330768 0.118901
Si Si3 0.598159 0.822317 0.356526
Si Si4 0.196237 0.323557 0.567926
Si Si5 0.500000 0.821518 0.432986
Si Si6 0.062134 0.169799 0.000000
O O1 0.076512 0.755376 0.822256
O O2 0.090139 0.751848 0.706193
O O3 0.000000 0.794654 0.752203
O O4 0.067331 0.000000 0.761020
O O5 0.921572 0.500000 0.120821
O O6 0.000000 0.330283 0.117667
O O7 0.921167 0.251642 0.059188
O O8 0.650332 0.781260 0.389215
O O9 0.550488 0.778352 0.397660
O O10 0.596845 0.000000 0.350352
O O11 0.183867 0.285382 0.500000
O O12 0.201397 0.500000 0.570485
O O13 0.250000 0.250000 0.582832
O O14 0.500000 0.768888 0.500000
O O15 0.500000 0.000000 0.434964
O O16 0.000000 0.171984 0.000000
O O17 0.077704 0.000000 0.000000
#
# Coordination Sequence:
#
# PCOD9483487 Si02
#       6
#    16  16  16  16   8   8
#     4  10  19  29  40  57  84 115 145 177 218 265
#     4   9  16  25  38  54  75 106 146 184 215 250
#     4  10  18  29  46  65  85 111 145 180 216 262
#     4   9  18  32  49  68  87 109 141 180 222 268
#     4   9  16  26  43  65  85 106 137 178 217 253
#     4   9  15  23  35  53  77 105 140 181 222 255
#
# _framework density 14.682880000000001
#
# number of rings (size 3 to 8) (size 9 to 14) (size 15 to 20)
#    0.000    2.600    1.000    2.100    0.000    7.600 
#    0.000    0.000    0.000    2.400    0.000    0.000 
#    0.000    0.000    0.000    0.900    0.000   12.300 
#
# Total GULP energy -222928.021519 kJ/mol
# GULP energy per Si atom -5573.200538 kJ/mol
# Density = 1.464946 g / cm^3
# Si number density = 14.682880 Si / 1000 Ang^3
#
#
#
# Elastic Constant Matrix: (Units=GPa)
#
#
# Indices 1 2 3 4 5 6 
#
# 1 69.9833 37.3341 65.5935 0.0000 0.0000 0.0000
# 2 37.3341 61.3700 64.7029 0.0000 0.0000 0.0000
# 3 65.5935 64.7029 165.1982 0.0000 0.0000 0.0000
# 4 0.0000 0.0000 0.0000 20.3482 0.0000 0.0000
# 5 0.0000 0.0000 0.0000 0.0000 12.2573 0.0000
# 6 0.0000 0.0000 0.0000 0.0000 0.0000 15.5272
#
#
#
# Elastic Compliance Matrix: (Units=1/GPa)
#
#
# Indices 1 2 3 4 5 6 
#
# 1 0.024891 -0.008044 -0.006732 0.000000 0.000000 0.000000
# 2 -0.008044 0.030356 -0.008695 0.000000 0.000000 0.000000
# 3 -0.006732 -0.008695 0.012132 0.000000 0.000000 0.000000
# 4 0.000000 0.000000 0.000000 0.049144 0.000000 0.000000
# 5 0.000000 0.000000 0.000000 0.000000 0.081584 0.000000
# 6 0.000000 0.000000 0.000000 0.000000 0.000000 0.064403
#
#
# Mechanical properties :
#
#
# Convention : Reuss Voigt Hill
#
# Bulk Modulus (GPa) = 48.93603 70.20139 59.56871
# Shear Modulus (GPa) = 15.80951 18.22127 17.01539
#
# Velocity S-wave (km/s) = 3.28492 3.52659 3.40789
# Velocity P-wave (km/s) = 6.91293 8.03106 7.49288
#
# Compressibility (1/GPa) = 0.02043484
#
# Stress axis : x y z
#
# Youngs Moduli (GPa) = 40.17596 32.94268 82.42480
#
# Poissons Ratio (x) = 0.26499 0.55492
# Poissons Ratio (y) = 0.32317 0.71672
# Poissons Ratio (z) = 0.27048 0.28645
#
# Static dielectric constant tensor:
#      x y z
#    x 1.454350 0.000000 0.000000 
#    y 0.000000 1.489850 0.000000 
#    z 0.000000 0.000000 1.480150 
# 
# From -- ./inp_files/60052.got.cif
#   From: 2010.05.17/outbox.cif.g08.bks.cpg/sg65_31_cif.got.tgz:60052.got - 2010.06.03 17:01:31.
