data_PCOD9483093
_publ_section_title
;
Structure prediction by ZEFSAII (Michael W. Deem and Ramdas Pophale) SiO2 
 PCOD9483093
Probable space group: C M M M
;
_chemical_formula_sum "Si O2"
_cell_formula_units_Z 96
_cell_length_a 14.956642
_cell_length_b 33.609613
_cell_length_c 12.126112
_cell_angle_alpha 90.000000
_cell_angle_beta 90.000000
_cell_angle_gamma 90.000000
_cell_volume 6095.638249
_symmetry_space_group_name_H-M "C M M M"
_symmetry_group_IT_number 65
_symmetry_cell_setting 'orthorhombic'
loop_
_space_group_symop_operation_xyz
x,y,z
-x,-y,z
x,-y,-z
-x,y,-z
-x,-y,-z
x,y,-z
-x,y,z
x,-y,z
1/2+x,1/2+y,z
1/2-x,1/2-y,z
1/2+x,1/2-y,-z
1/2-x,1/2+y,-z
1/2-x,1/2-y,-z
1/2+x,1/2+y,-z
1/2-x,1/2+y,z
1/2+x,1/2-y,z
loop_
_atom_site_type_symbol
_atom_site_label
_atom_site_fract_x
_atom_site_fract_y
_atom_site_fract_z
Si Si1 0.103832 0.777061 0.130602
Si Si2 0.666826 0.669844 0.500000
Si Si3 0.395787 0.196740 0.732645
Si Si4 0.106674 0.261410 0.500000
Si Si5 0.390570 0.420205 0.744764
Si Si6 0.598585 0.585652 0.500000
Si Si7 0.221287 0.842821 0.251980
Si Si8 0.391973 0.500000 0.875795
O O1 0.112190 0.733223 0.181817
O O2 0.169474 0.806289 0.195066
O O3 0.000000 0.789565 0.148592
O O4 0.121347 0.777135 0.000000
O O5 0.641058 0.716171 0.500000
O O6 0.594421 0.633976 0.500000
O O7 0.713593 0.661308 0.615820
O O8 0.500000 0.184645 0.727143
O O9 0.369851 0.215400 0.612526
O O10 0.326546 0.162767 0.768823
O O11 0.000000 0.258099 0.500000
O O12 0.500000 0.412895 0.748272
O O13 0.362439 0.426560 0.617092
O O14 0.333125 0.382172 0.782920
O O15 0.368985 0.459492 0.813056
O O16 0.500000 0.568071 0.500000
O O17 0.500000 0.500000 0.880425
O O18 0.356974 0.500000 0.000000
#
# Coordination Sequence:
#
# PCOD9483093 Si02
#       8
#    16   8  16   8  16   8  16   8
#     4  10  21  34  46  63  89 121 158 199 240 282
#     4  10  18  26  45  71  96 121 159 204 242 278
#     4  10  21  33  45  65  92 127 166 202 237 276
#     4  10  18  29  46  66  93 130 167 203 245 283
#     4   9  18  31  48  71  95 120 149 182 227 279
#     4   8  15  26  41  66  96 123 150 185 222 265
#     4  11  20  31  49  69  95 124 159 198 237 279
#     4   9  18  33  51  71  98 125 145 174 221 283
#
# _framework density 15.748965999999999
#
# number of rings (size 3 to 8) (size 9 to 14) (size 15 to 20)
#    0.000    2.250    1.667    1.750    0.000    4.333 
#    0.000    3.333    0.000    0.000    0.000    0.583 
#    0.000    0.667    0.000    9.167    0.000    0.167 
#
# Total GULP energy -267227.116338 kJ/mol
# GULP energy per Si atom -5567.231590 kJ/mol
# Density = 1.571312 g / cm^3
# Si number density = 15.748966 Si / 1000 Ang^3
#
#
#
# Elastic Constant Matrix: (Units=GPa)
#
#
# Indices 1 2 3 4 5 6 
#
# 1 65.3223 55.1679 38.6732 0.0000 0.0000 0.0000
# 2 55.1679 83.7365 30.4604 0.0000 0.0000 0.0000
# 3 38.6732 30.4604 65.6886 0.0000 0.0000 0.0000
# 4 0.0000 0.0000 0.0000 0.9301 0.0000 0.0000
# 5 0.0000 0.0000 0.0000 0.0000 -16.0963 0.0000
# 6 0.0000 0.0000 0.0000 0.0000 0.0000 15.0398
#
#
#
# Elastic Compliance Matrix: (Units=1/GPa)
#
#
# Indices 1 2 3 4 5 6 
#
# 1 0.044175 -0.023629 -0.015050 0.000000 0.000000 0.000000
# 2 -0.023629 0.027004 0.001389 0.000000 0.000000 0.000000
# 3 -0.015050 0.001389 0.023440 0.000000 0.000000 0.000000
# 4 0.000000 0.000000 0.000000 1.075140 0.000000 0.000000
# 5 0.000000 0.000000 0.000000 0.000000 -0.062126 0.000000
# 6 0.000000 0.000000 0.000000 0.000000 0.000000 0.066490
#
#
# Mechanical properties :
#
#
# Convention : Reuss Voigt Hill
#
# Bulk Modulus (GPa) = 49.90361 51.48340 50.69351
# Shear Modulus (GPa) = 3.98285 6.00444 4.99365
#
# Velocity S-wave (km/s) = 1.59200 1.95470 1.78260
# Velocity P-wave (km/s) = 5.92748 6.15268 6.04113
#
# Compressibility (1/GPa) = 0.02003863
#
# Stress axis : x y z
#
# Youngs Moduli (GPa) = 22.63734 37.03120 42.66214
#
# Poissons Ratio (x) = 0.87500 0.64208
# Poissons Ratio (y) = 0.53489 -0.05926
# Poissons Ratio (z) = 0.34070 -0.05144
#
# Static dielectric constant tensor:
#      x y z
#    x 1.554870 0.000000 0.000000 
#    y 0.000000 1.513010 0.000000 
#    z 0.000000 0.000000 1.550510 
# 
# From -- ./inp_files/25512.got.cif
#   From: 2010.05.17/outbox.cif.g08.bks.cpg/sg65_13_cif.got.tgz:25512.got - 2010.06.03 17:01:31.
