data_PCOD9483266
_publ_section_title
;
Structure prediction by ZEFSAII (Michael W. Deem and Ramdas Pophale) SiO2 
 PCOD9483266
Probable space group: C M M M
;
_chemical_formula_sum "Si O2"
_cell_formula_units_Z 72
_cell_length_a 31.731192
_cell_length_b 19.836202
_cell_length_c 7.780427
_cell_angle_alpha 90.000000
_cell_angle_beta 90.000000
_cell_angle_gamma 90.000000
_cell_volume 4897.205645
_symmetry_space_group_name_H-M "C M M M"
_symmetry_group_IT_number 65
_symmetry_cell_setting 'orthorhombic'
loop_
_space_group_symop_operation_xyz
x,y,z
-x,-y,z
x,-y,-z
-x,y,-z
-x,-y,-z
x,y,-z
-x,y,z
x,-y,z
1/2+x,1/2+y,z
1/2-x,1/2-y,z
1/2+x,1/2-y,-z
1/2-x,1/2+y,-z
1/2-x,1/2-y,-z
1/2+x,1/2+y,-z
1/2-x,1/2+y,z
1/2+x,1/2-y,z
loop_
_atom_site_type_symbol
_atom_site_label
_atom_site_fract_x
_atom_site_fract_y
_atom_site_fract_z
Si Si1 0.050033 0.080897 0.000000
Si Si2 0.828662 0.000000 0.698501
Si Si3 0.731174 0.850237 0.296537
Si Si4 0.235139 0.500000 0.191442
Si Si5 0.183646 0.779402 0.709927
Si Si6 0.610090 0.627906 0.704201
O O1 0.071746 0.112717 0.168969
O O2 0.000000 0.091066 0.000000
O O3 0.058104 0.000000 0.000000
O O4 0.786116 0.000000 0.804875
O O5 0.857674 0.934976 0.722863
O O6 0.813759 0.000000 0.500000
O O7 0.733229 0.839485 0.500000
O O8 0.777654 0.827832 0.232074
O O9 0.697254 0.795393 0.232950
O O10 0.722146 0.928375 0.269080
O O11 0.218910 0.500000 0.000000
O O12 0.182759 0.781881 0.500000
O O13 0.138356 0.808162 0.760414
O O14 0.599052 0.632204 0.500000
#
# Coordination Sequence:
#
# PCOD9483266 Si02
#       6
#     8   8  16   8  16  16
#     4  11  24  36  48  69  94 119 149 188 237 283
#     4  10  18  28  44  63  82 117 159 187 225 264
#     4   9  16  29  44  59  84 116 151 190 226 262
#     4  12  22  26  36  60  93 125 155 192 224 257
#     4   8  15  28  47  65  81 109 153 195 227 260
#     4  10  19  33  51  68  87 117 157 196 230 269
#
# _framework density 14.702261
#
# number of rings (size 3 to 8) (size 9 to 14) (size 15 to 20)
#    0.000    2.333    3.333    2.333    1.556    0.444 
#    2.000    2.222    0.000    0.000    0.000    0.000 
#    0.000    0.000    0.000    2.000    0.000   16.889 
#
# Total GULP energy -200536.169378 kJ/mol
# GULP energy per Si atom -5570.449149 kJ/mol
# Density = 1.466880 g / cm^3
# Si number density = 14.702261 Si / 1000 Ang^3
#
#
#
# Elastic Constant Matrix: (Units=GPa)
#
#
# Indices 1 2 3 4 5 6 
#
# 1 81.8771 45.1231 38.8216 0.0000 0.0000 0.0000
# 2 45.1231 101.4002 20.1360 0.0000 0.0000 0.0000
# 3 38.8216 20.1360 44.6559 0.0000 0.0000 0.0000
# 4 0.0000 0.0000 0.0000 -8.2030 0.0000 0.0000
# 5 0.0000 0.0000 0.0000 0.0000 16.3555 0.0000
# 6 0.0000 0.0000 0.0000 0.0000 0.0000 19.5666
#
#
#
# Elastic Compliance Matrix: (Units=1/GPa)
#
#
# Indices 1 2 3 4 5 6 
#
# 1 0.025084 -0.007504 -0.018423 0.000000 0.000000 0.000000
# 2 -0.007504 0.013077 0.000627 0.000000 0.000000 0.000000
# 3 -0.018423 0.000627 0.038127 0.000000 0.000000 0.000000
# 4 0.000000 0.000000 0.000000 -0.121907 0.000000 0.000000
# 5 0.000000 0.000000 0.000000 0.000000 0.061141 0.000000
# 6 0.000000 0.000000 0.000000 0.000000 0.000000 0.051108
#
#
# Mechanical properties :
#
#
# Convention : Reuss Voigt Hill
#
# Bulk Modulus (GPa) = 38.92940 48.45494 43.69217
# Shear Modulus (GPa) = 39.74801 13.80066 26.77433
#
# Velocity S-wave (km/s) = 5.20519 3.06711 4.27207
# Velocity P-wave (km/s) = 7.91589 6.75069 7.35640
#
# Compressibility (1/GPa) = 0.02568753
#
# Stress axis : x y z
#
# Youngs Moduli (GPa) = 39.86567 76.47218 26.22815
#
# Poissons Ratio (x) = 0.57385 0.48321
# Poissons Ratio (y) = 0.29915 -0.01645
# Poissons Ratio (z) = 0.73446 -0.04796
#
# Static dielectric constant tensor:
#      x y z
#    x 1.458330 0.000000 0.000000 
#    y 0.000000 1.579010 0.000000 
#    z 0.000000 0.000000 1.539670 
# 
# From -- ./inp_files/16209.got.cif
#   From: 2010.05.17/outbox.cif.g08.bks.cpg/sg65_9_cif.got.tgz:16209.got - 2010.06.03 17:01:31.
