data_PCOD9483574
_publ_section_title
;
Structure prediction by ZEFSAII (Michael W. Deem and Ramdas Pophale) SiO2 
 PCOD9483574
Probable space group: C M M M
;
_chemical_formula_sum "Si O2"
_cell_formula_units_Z 104
_cell_length_a 21.468190
_cell_length_b 15.132264
_cell_length_c 19.191525
_cell_angle_alpha 90.000000
_cell_angle_beta 90.000000
_cell_angle_gamma 90.000000
_cell_volume 6234.603311
_symmetry_space_group_name_H-M "C M M M"
_symmetry_group_IT_number 65
_symmetry_cell_setting 'orthorhombic'
loop_
_space_group_symop_operation_xyz
x,y,z
-x,-y,z
x,-y,-z
-x,y,-z
-x,-y,-z
x,y,-z
-x,y,z
x,-y,z
1/2+x,1/2+y,z
1/2-x,1/2-y,z
1/2+x,1/2-y,-z
1/2-x,1/2+y,-z
1/2-x,1/2-y,-z
1/2+x,1/2+y,-z
1/2-x,1/2+y,z
1/2+x,1/2-y,z
loop_
_atom_site_type_symbol
_atom_site_label
_atom_site_fract_x
_atom_site_fract_y
_atom_site_fract_z
Si Si1 0.614179 0.228026 0.582519
Si Si2 0.834150 0.000000 0.920910
Si Si3 0.165455 0.153154 0.182349
Si Si4 0.682145 0.000000 0.080625
Si Si5 0.683299 0.852888 0.189965
Si Si6 0.296871 0.900589 0.347870
Si Si7 0.500000 0.101969 0.584651
Si Si8 0.146870 0.099527 0.663303
O O1 0.609834 0.241603 0.500000
O O2 0.676315 0.175302 0.603455
O O3 0.559710 0.160306 0.604961
O O4 0.614639 0.321799 0.621230
O O5 0.853675 0.911839 0.879614
O O6 0.758106 0.000000 0.921261
O O7 0.855698 0.000000 0.000000
O O8 0.241176 0.150500 0.184594
O O9 0.152939 0.257254 0.179257
O O10 0.139071 0.115187 0.254340
O O11 0.662604 0.082988 0.128016
O O12 0.661437 0.000000 0.000000
O O13 0.675994 0.885759 0.269653
O O14 0.221968 0.894386 0.346530
O O15 0.313564 0.000000 0.371066
O O16 0.500000 0.097584 0.500000
O O17 0.500000 0.000000 0.609637
O O18 0.127632 0.000000 0.643883
#
# Coordination Sequence:
#
# PCOD9483574 Si02
#       8
#    16   8  16   8  16  16   8  16
#     4  11  22  35  52  73  95 124 164 207 246 287
#     4   9  16  24  36  56  83 122 171 206 225 262
#     4   9  15  25  40  57  84 123 162 195 229 277
#     4   9  16  24  34  54  87 124 163 204 235 270
#     4   9  15  24  39  58  83 121 163 194 232 283
#     4  10  18  29  48  72  98 129 164 200 245 296
#     4   9  20  40  59  73  93 121 155 200 253 297
#     4  10  19  31  48  71 100 133 163 195 242 298
#
# _framework density 16.681094000000002
#
# number of rings (size 3 to 8) (size 9 to 14) (size 15 to 20)
#    0.000    2.385    3.077    0.923    0.000    3.077 
#    0.000    5.000    0.000    1.385    0.000    0.000 
#    0.000    0.000    0.000    4.154    0.000    2.000 
#
# Total GULP energy -289572.094195 kJ/mol
# GULP energy per Si atom -5568.694119 kJ/mol
# Density = 1.664313 g / cm^3
# Si number density = 16.681094 Si / 1000 Ang^3
#
#
#
# Elastic Constant Matrix: (Units=GPa)
#
#
# Indices 1 2 3 4 5 6 
#
# 1 14.2109 22.7856 13.9052 0.0000 0.0000 0.0000
# 2 22.7856 165.0386 53.8991 0.0000 0.0000 0.0000
# 3 13.9052 53.8991 80.5065 0.0000 0.0000 0.0000
# 4 0.0000 0.0000 0.0000 27.9854 0.0000 0.0000
# 5 0.0000 0.0000 0.0000 0.0000 -3.6508 0.0000
# 6 0.0000 0.0000 0.0000 0.0000 0.0000 9.9996
#
#
#
# Elastic Compliance Matrix: (Units=1/GPa)
#
#
# Indices 1 2 3 4 5 6 
#
# 1 0.096146 -0.010048 -0.009880 0.000000 0.000000 0.000000
# 2 -0.010048 0.008805 -0.004159 0.000000 0.000000 0.000000
# 3 -0.009880 -0.004159 0.016912 0.000000 0.000000 0.000000
# 4 0.000000 0.000000 0.000000 0.035733 0.000000 0.000000
# 5 0.000000 0.000000 0.000000 0.000000 -0.273910 0.000000
# 6 0.000000 0.000000 0.000000 0.000000 0.000000 0.100004
#
#
# Mechanical properties :
#
#
# Convention : Reuss Voigt Hill
#
# Bulk Modulus (GPa) = 13.57035 48.99289 31.28162
# Shear Modulus (GPa) = 88.61040 18.14457 53.37749
#
# Velocity S-wave (km/s) = 7.29627 3.30166 5.66288
# Velocity P-wave (km/s) = 8.89571 6.63089 7.84545
#
# Compressibility (1/GPa) = 0.07369005
#
# Stress axis : x y z
#
# Youngs Moduli (GPa) = 10.40085 113.57489 59.12802
#
# Poissons Ratio (x) = 1.14116 0.58416
# Poissons Ratio (y) = 0.10450 0.24593
# Poissons Ratio (z) = 0.10276 0.47240
#
# Static dielectric constant tensor:
#      x y z
#    x 1.565990 0.000000 0.000000 
#    y 0.000000 1.588640 0.000000 
#    z 0.000000 0.000000 1.555340 
# 
# From -- ./inp_files/56863.got.cif
#   From: 2010.05.17/outbox.cif.g08.bks.cpg/sg65_29_cif.got.tgz:56863.got - 2010.06.03 17:01:31.
