data_PCOD9483945
_publ_section_title
;
Structure prediction by ZEFSAII (Michael W. Deem and Ramdas Pophale) SiO2 
 PCOD9483945
Probable space group: C M M M
;
_chemical_formula_sum "Si O2"
_cell_formula_units_Z 96
_cell_length_a 7.565762
_cell_length_b 30.186055
_cell_length_c 21.206825
_cell_angle_alpha 90.000000
_cell_angle_beta 90.000000
_cell_angle_gamma 90.000000
_cell_volume 4843.225463
_symmetry_space_group_name_H-M "C M M M"
_symmetry_group_IT_number 65
_symmetry_cell_setting 'orthorhombic'
loop_
_space_group_symop_operation_xyz
x,y,z
-x,-y,z
x,-y,-z
-x,y,-z
-x,-y,-z
x,y,-z
-x,y,z
x,-y,z
1/2+x,1/2+y,z
1/2-x,1/2-y,z
1/2+x,1/2-y,-z
1/2-x,1/2+y,-z
1/2-x,1/2-y,-z
1/2+x,1/2+y,-z
1/2-x,1/2+y,z
1/2+x,1/2-y,z
loop_
_atom_site_type_symbol
_atom_site_label
_atom_site_fract_x
_atom_site_fract_y
_atom_site_fract_z
Si Si1 0.787780 0.301920 0.190871
Si Si2 0.714828 0.048848 0.882828
Si Si3 0.284762 0.048651 0.734723
Si Si4 0.709438 0.300549 0.570816
Si Si5 0.216259 0.643593 0.930503
Si Si6 0.290318 0.141781 0.690460
O O1 0.750000 0.250000 0.192493
O O2 0.723218 0.325831 0.127215
O O3 0.719518 0.327213 0.253101
O O4 0.000000 0.306571 0.190719
O O5 0.500000 0.048403 0.886250
O O6 0.760152 0.053815 0.808782
O O7 0.773136 0.092765 0.918758
O O8 0.775033 0.000000 0.904311
O O9 0.500000 0.047719 0.731970
O O10 0.220945 0.091760 0.697505
O O11 0.223099 0.000000 0.713628
O O12 0.783638 0.307141 0.500000
O O13 0.500000 0.304224 0.566760
O O14 0.750000 0.250000 0.590287
O O15 0.767300 0.334979 0.623507
O O16 0.000000 0.643651 0.929401
O O17 0.271467 0.658603 0.000000
O O18 0.500000 0.138512 0.701108
#
# Coordination Sequence:
#
# PCOD9483945 Si02
#       6
#    16  16  16  16  16  16
#     4  10  20  32  45  65  91 121 159 200 240 279
#     4   8  12  20  36  59  88 119 150 187 235 287
#     4   8  13  23  42  68  96 124 155 194 238 282
#     4  10  21  36  53  75 103 131 159 193 235 284
#     4   9  16  26  39  57  87 124 157 192 237 286
#     4  10  18  30  51  75  99 127 160 198 239 282
#
# _framework density 19.821501999999999
#
# number of rings (size 3 to 8) (size 9 to 14) (size 15 to 20)
#    0.000    2.833    1.667    2.000    0.000    3.667 
#    0.000    1.667    0.000    1.000    0.000    3.500 
#    0.000    0.667    0.000    1.500    0.000    1.667 
#
# Total GULP energy -267740.131015 kJ/mol
# GULP energy per Si atom -5577.919396 kJ/mol
# Density = 1.977639 g / cm^3
# Si number density = 19.821502 Si / 1000 Ang^3
#
#
#
# Elastic Constant Matrix: (Units=GPa)
#
#
# Indices 1 2 3 4 5 6 
#
# 1 43.2975 6.8336 4.1926 0.0000 0.0000 0.0000
# 2 6.8336 164.9473 86.4027 0.0000 0.0000 0.0000
# 3 4.1926 86.4027 103.6200 0.0000 0.0000 0.0000
# 4 0.0000 0.0000 0.0000 25.8916 0.0000 0.0000
# 5 0.0000 0.0000 0.0000 0.0000 -629.2918 0.0000
# 6 0.0000 0.0000 0.0000 0.0000 0.0000 9.4977
#
#
#
# Elastic Compliance Matrix: (Units=1/GPa)
#
#
# Indices 1 2 3 4 5 6 
#
# 1 0.023252 -0.000835 -0.000244 0.000000 0.000000 0.000000
# 2 -0.000835 0.010794 -0.008967 0.000000 0.000000 0.000000
# 3 -0.000244 -0.008967 0.017137 0.000000 0.000000 0.000000
# 4 0.000000 0.000000 0.000000 0.038623 0.000000 0.000000
# 5 0.000000 0.000000 0.000000 0.000000 -0.001589 0.000000
# 6 0.000000 0.000000 0.000000 0.000000 0.000000 0.105289
#
#
# Mechanical properties :
#
#
# Convention : Reuss Voigt Hill
#
# Bulk Modulus (GPa) = 32.16437 56.30250 44.23344
# Shear Modulus (GPa) = 22.32527 -104.48478 -41.07975
#
# Velocity S-wave (km/s) = 3.35970 -7.26824 -4.55739
# Velocity P-wave (km/s) = 5.59575 6.47842 2.30842
#
# Compressibility (1/GPa) = 0.03109030
#
# Stress axis : x y z
#
# Youngs Moduli (GPa) = 43.00794 92.64282 58.35179
#
# Poissons Ratio (x) = 0.07739 0.01425
# Poissons Ratio (y) = 0.03593 0.52323
# Poissons Ratio (z) = 0.01050 0.83071
#
# Static dielectric constant tensor:
#      x y z
#    x 1.804930 0.000000 0.000000 
#    y 0.000000 1.668870 0.000000 
#    z 0.000000 0.000000 1.692460 
# 
# From -- ./inp_files/65781.got.cif
#   From: 2010.05.17/outbox.cif.g08.bks.cpg/sg65_33_cif.got.tgz:65781.got - 2010.06.03 17:01:31.
