data_PCOD9483655
_publ_section_title
;
Structure prediction by ZEFSAII (Michael W. Deem and Ramdas Pophale) SiO2 
 PCOD9483655
Probable space group: C M M M
;
_chemical_formula_sum "Si O2"
_cell_formula_units_Z 96
_cell_length_a 29.736046
_cell_length_b 29.307847
_cell_length_c 8.686064
_cell_angle_alpha 90.000000
_cell_angle_beta 90.000000
_cell_angle_gamma 90.000000
_cell_volume 7569.900316
_symmetry_space_group_name_H-M "C M M M"
_symmetry_group_IT_number 65
_symmetry_cell_setting 'orthorhombic'
loop_
_space_group_symop_operation_xyz
x,y,z
-x,-y,z
x,-y,-z
-x,y,-z
-x,-y,-z
x,y,-z
-x,y,z
x,-y,z
1/2+x,1/2+y,z
1/2-x,1/2-y,z
1/2+x,1/2-y,-z
1/2-x,1/2+y,-z
1/2-x,1/2-y,-z
1/2+x,1/2+y,-z
1/2-x,1/2+y,z
1/2+x,1/2-y,z
loop_
_atom_site_type_symbol
_atom_site_label
_atom_site_fract_x
_atom_site_fract_y
_atom_site_fract_z
Si Si1 0.401958 0.500000 0.814873
Si Si2 0.198581 0.000000 0.316956
Si Si3 0.322360 0.264704 0.182477
Si Si4 0.867272 0.848784 0.682295
Si Si5 0.781681 0.096763 0.185674
Si Si6 0.051913 0.096018 0.185606
Si Si7 0.271912 0.819795 0.182375
O O1 0.353668 0.500000 0.734627
O O2 0.429449 0.545577 0.775494
O O3 0.394601 0.500000 0.000000
O O4 0.220139 0.045988 0.249815
O O5 0.201197 0.000000 0.500000
O O6 0.357827 0.296689 0.267391
O O7 0.310738 0.213893 0.243305
O O8 0.275056 0.292095 0.195860
O O9 0.332888 0.262758 0.000000
O O10 0.862920 0.853249 0.500000
O O11 0.828508 0.880060 0.760439
O O12 0.914901 0.867571 0.738858
O O13 0.741249 0.130115 0.241028
O O14 0.781826 0.096228 0.000000
O O15 0.000000 0.100682 0.231537
O O16 0.054507 0.100350 0.000000
O O17 0.280988 0.824055 0.000000
#
# Coordination Sequence:
#
# PCOD9483655 Si02
#       7
#     8   8  16  16  16  16  16
#     4  10  19  32  48  58  67  89 120 156 198 241
#     4  12  22  29  39  59  79  97 122 156 193 232
#     4   8  13  25  42  57  73  93 117 144 175 218
#     4  11  20  28  39  58  79  96 115 147 189 231
#     4  10  18  30  44  55  71  98 126 152 183 221
#     4  10  20  33  47  59  70  90 124 161 196 237
#     4   7  12  23  41  59  71  89 120 150 175 208
#
# _framework density 12.681805000000001
#
# number of rings (size 3 to 8) (size 9 to 14) (size 15 to 20)
#    0.000    2.500    1.667    5.000    0.000    1.333 
#    0.000    7.500    0.000    1.500    0.000    0.000 
#    0.000    0.000    0.000    0.000    0.000    0.000 
#
# Total GULP energy -267274.247094 kJ/mol
# GULP energy per Si atom -5568.213481 kJ/mol
# Density = 1.265294 g / cm^3
# Si number density = 12.681805 Si / 1000 Ang^3
#
#
#
# Elastic Constant Matrix: (Units=GPa)
#
#
# Indices 1 2 3 4 5 6 
#
# 1 45.0510 55.3599 23.1334 0.0000 0.0000 0.0000
# 2 55.3599 115.2009 34.8511 0.0000 0.0000 0.0000
# 3 23.1334 34.8511 39.7327 0.0000 0.0000 0.0000
# 4 0.0000 0.0000 0.0000 5.3309 0.0000 0.0000
# 5 0.0000 0.0000 0.0000 0.0000 -21.0787 0.0000
# 6 0.0000 0.0000 0.0000 0.0000 0.0000 10.9182
#
#
#
# Elastic Compliance Matrix: (Units=1/GPa)
#
#
# Indices 1 2 3 4 5 6 
#
# 1 0.058648 -0.024302 -0.012830 0.000000 0.000000 0.000000
# 2 -0.024302 0.021886 -0.005048 0.000000 0.000000 0.000000
# 3 -0.012830 -0.005048 0.037066 0.000000 0.000000 0.000000
# 4 0.000000 0.000000 0.000000 0.187584 0.000000 0.000000
# 5 0.000000 0.000000 0.000000 0.000000 -0.047441 0.000000
# 6 0.000000 0.000000 0.000000 0.000000 0.000000 0.091590
#
#
# Mechanical properties :
#
#
# Convention : Reuss Voigt Hill
#
# Bulk Modulus (GPa) = 30.08426 47.40816 38.74621
# Shear Modulus (GPa) = 11.24169 4.81012 8.02590
#
# Velocity S-wave (km/s) = 2.98055 1.94966 2.51842
# Velocity P-wave (km/s) = 5.96815 6.52167 6.25104
#
# Compressibility (1/GPa) = 0.03323998
#
# Stress axis : x y z
#
# Youngs Moduli (GPa) = 17.05083 45.69159 26.97897
#
# Poissons Ratio (x) = 1.11039 0.34615
# Poissons Ratio (y) = 0.41437 0.13618
# Poissons Ratio (z) = 0.21877 0.23064
#
# Static dielectric constant tensor:
#      x y z
#    x 1.390770 0.000000 0.000000 
#    y 0.000000 1.447330 0.000000 
#    z 0.000000 0.000000 1.419030 
# 
# From -- ./inp_files/19188.got.cif
#   From: 2010.05.17/outbox.cif.g08.bks.cpg/sg65_10_cif.got.tgz:19188.got - 2010.06.03 17:01:31.
