data_PCOD9483781
_publ_section_title
;
Structure prediction by ZEFSAII (Michael W. Deem and Ramdas Pophale) SiO2 
 PCOD9483781
Probable space group: C M M M
;
_chemical_formula_sum "Si O2"
_cell_formula_units_Z 80
_cell_length_a 10.762276
_cell_length_b 14.649242
_cell_length_c 23.656076
_cell_angle_alpha 90.000000
_cell_angle_beta 90.000000
_cell_angle_gamma 90.000000
_cell_volume 3729.597677
_symmetry_space_group_name_H-M "C M M M"
_symmetry_group_IT_number 65
_symmetry_cell_setting 'orthorhombic'
loop_
_space_group_symop_operation_xyz
x,y,z
-x,-y,z
x,-y,-z
-x,y,-z
-x,-y,-z
x,y,-z
-x,y,z
x,-y,z
1/2+x,1/2+y,z
1/2-x,1/2-y,z
1/2+x,1/2-y,-z
1/2-x,1/2+y,-z
1/2-x,1/2-y,-z
1/2+x,1/2+y,-z
1/2-x,1/2+y,z
1/2+x,1/2-y,z
loop_
_atom_site_type_symbol
_atom_site_label
_atom_site_fract_x
_atom_site_fract_y
_atom_site_fract_z
Si Si1 0.000000 0.138597 0.738809
Si Si2 0.000000 0.361243 0.128466
Si Si3 0.500000 0.137809 0.259205
Si Si4 0.500000 0.361154 0.130097
Si Si5 0.858294 0.609949 0.436544
Si Si6 0.250749 0.143079 0.319100
Si Si7 0.749078 0.361359 0.065287
O O1 0.000000 0.111593 0.804409
O O2 0.876384 0.106727 0.706750
O O3 0.000000 0.250516 0.738312
O O4 0.000000 0.388967 0.193780
O O5 0.875035 0.390399 0.096513
O O6 0.000000 0.250027 0.128587
O O7 0.375756 0.105453 0.290579
O O8 0.625125 0.390364 0.098175
O O9 0.825175 0.640811 0.500000
O O10 0.862745 0.500000 0.437710
O O11 0.766393 0.635275 0.386334
O O12 0.000000 0.642191 0.423919
O O13 0.250000 0.250000 0.305002
O O14 0.750000 0.250000 0.065660
O O15 0.746968 0.389743 0.000000
#
# Coordination Sequence:
#
# PCOD9483781 Si02
#       7
#     8   8   8   8  16  16  16
#     4   9  18  27  40  63  91 118 150 193 242 282
#     4   9  15  22  33  48  72 103 144 193 236 266
#     4   9  16  27  42  61  85 120 158 195 234 282
#     4   9  15  24  33  46  72 109 146 183 226 276
#     4   9  18  34  55  75  95 124 162 196 229 280
#     4  10  18  30  48  71  97 123 158 199 235 277
#     4   9  15  21  30  45  67 101 148 194 227 263
#
# _framework density 21.450035
#
# number of rings (size 3 to 8) (size 9 to 14) (size 15 to 20)
#    0.000    2.800    1.000    2.400    0.000    7.600 
#    0.000    1.000    0.000    1.200    0.000    0.000 
#    0.000    0.000    0.000    0.000    0.000   70.000 
#
# Total GULP energy -223407.500833 kJ/mol
# GULP energy per Si atom -5585.187521 kJ/mol
# Density = 2.140121 g / cm^3
# Si number density = 21.450035 Si / 1000 Ang^3
#
#
#
# Elastic Constant Matrix: (Units=GPa)
#
#
# Indices 1 2 3 4 5 6 
#
# 1 226.9477 8.5498 142.5142 0.0000 0.0000 0.0000
# 2 8.5498 70.6992 -5.4543 0.0000 0.0000 0.0000
# 3 142.5142 -5.4543 207.8822 0.0000 0.0000 0.0000
# 4 0.0000 0.0000 0.0000 639.6539 0.0000 0.0000
# 5 0.0000 0.0000 0.0000 0.0000 37.9149 0.0000
# 6 0.0000 0.0000 0.0000 0.0000 0.0000 -15.5364
#
#
#
# Elastic Compliance Matrix: (Units=1/GPa)
#
#
# Indices 1 2 3 4 5 6 
#
# 1 0.007867 -0.001370 -0.005429 0.000000 0.000000 0.000000
# 2 -0.001370 0.014412 0.001318 0.000000 0.000000 0.000000
# 3 -0.005429 0.001318 0.008567 0.000000 0.000000 0.000000
# 4 0.000000 0.000000 0.000000 0.001563 0.000000 0.000000
# 5 0.000000 0.000000 0.000000 0.000000 0.026375 0.000000
# 6 0.000000 0.000000 0.000000 0.000000 0.000000 -0.064365
#
#
# Mechanical properties :
#
#
# Convention : Reuss Voigt Hill
#
# Bulk Modulus (GPa) = 50.29701 88.52763 69.41232
# Shear Modulus (GPa) = 416.27665 156.40113 286.33889
#
# Velocity S-wave (km/s) = 13.94594 8.54824 11.56637
# Velocity P-wave (km/s) = 16.81721 11.78096 14.51912
#
# Compressibility (1/GPa) = 0.01988190
#
# Stress axis : x y z
#
# Youngs Moduli (GPa) = 127.10625 69.38768 116.72440
#
# Poissons Ratio (x) = 0.09508 0.63375
# Poissons Ratio (y) = 0.17417 -0.15379
# Poissons Ratio (z) = 0.69012 -0.09142
#
# Static dielectric constant tensor:
#      x y z
#    x 1.745140 0.000000 0.000000 
#    y 0.000000 1.843020 0.000000 
#    z 0.000000 0.000000 1.733100 
# 
# From -- ./inp_files/61426.got.cif
#   From: 2010.05.17/outbox.cif.g08.bks.cpg/sg65_31_cif.got.tgz:61426.got - 2010.06.03 17:01:31.
