data_PCOD9483892
_publ_section_title
;
Structure prediction by ZEFSAII (Michael W. Deem and Ramdas Pophale) SiO2 
 PCOD9483892
Probable space group: C M M M
;
_chemical_formula_sum "Si O2"
_cell_formula_units_Z 104
_cell_length_a 23.137635
_cell_length_b 28.027818
_cell_length_c 7.362346
_cell_angle_alpha 90.000000
_cell_angle_beta 90.000000
_cell_angle_gamma 90.000000
_cell_volume 4774.462406
_symmetry_space_group_name_H-M "C M M M"
_symmetry_group_IT_number 65
_symmetry_cell_setting 'orthorhombic'
loop_
_space_group_symop_operation_xyz
x,y,z
-x,-y,z
x,-y,-z
-x,y,-z
-x,-y,-z
x,y,-z
-x,y,z
x,-y,z
1/2+x,1/2+y,z
1/2-x,1/2-y,z
1/2+x,1/2-y,-z
1/2-x,1/2+y,-z
1/2-x,1/2-y,-z
1/2+x,1/2+y,-z
1/2-x,1/2+y,z
1/2+x,1/2-y,z
loop_
_atom_site_type_symbol
_atom_site_label
_atom_site_fract_x
_atom_site_fract_y
_atom_site_fract_z
Si Si1 0.434211 0.702709 0.212458
Si Si2 0.000000 0.443586 0.785237
Si Si3 0.256187 0.055174 0.777598
Si Si4 0.120565 0.408329 0.210450
Si Si5 0.064252 0.052930 0.779653
Si Si6 0.341437 0.370972 0.219831
Si Si7 0.434816 0.185778 0.717163
O O1 0.500000 0.691923 0.285864
O O2 0.375357 0.677102 0.281886
O O3 0.426752 0.759534 0.226395
O O4 0.437555 0.688924 0.000000
O O5 0.060181 0.425344 0.705757
O O6 0.000000 0.500000 0.773658
O O7 0.000000 0.430254 0.000000
O O8 0.320962 0.068809 0.716985
O O9 0.215920 0.100132 0.719963
O O10 0.241204 0.000000 0.724053
O O11 0.253541 0.054753 0.000000
O O12 0.113693 0.351092 0.217585
O O13 0.120145 0.423565 0.000000
O O14 0.109994 0.091029 0.727485
O O15 0.000000 0.064591 0.718987
O O16 0.079327 0.000000 0.719179
O O17 0.063616 0.052245 0.000000
O O18 0.334774 0.366643 0.000000
O O19 0.434763 0.184535 0.500000
O O20 0.500000 0.171590 0.779871
#
# Coordination Sequence:
#
# PCOD9483892 Si02
#       7
#    16   8  16  16  16  16  16
#     4   9  17  29  48  73  99 127 163 204 244 286
#     4   9  16  26  45  73  99 121 151 193 236 281
#     4   9  17  28  44  69 100 132 164 196 234 283
#     4  10  18  30  50  74  99 128 161 196 237 287
#     4   8  12  17  28  50  83 122 157 187 228 282
#     4   9  15  24  39  62  94 129 161 196 236 277
#     4  10  20  34  52  73  97 124 157 201 253 299
#
# _framework density 21.782557000000001
#
# number of rings (size 3 to 8) (size 9 to 14) (size 15 to 20)
#    0.000    2.846    0.769    2.308    0.000    6.154 
#    0.000    0.769    0.000    7.846    0.000    0.000 
#    0.000    1.846    0.000   17.385    0.000   17.538 
#
# Total GULP energy -289618.262940 kJ/mol
# GULP energy per Si atom -5569.581980 kJ/mol
# Density = 2.173298 g / cm^3
# Si number density = 21.782557 Si / 1000 Ang^3
#
#
#
# Elastic Constant Matrix: (Units=GPa)
#
#
# Indices 1 2 3 4 5 6 
#
# 1 212.9011 23.8620 10.7408 0.0000 0.0000 0.0000
# 2 23.8620 93.9289 -4.5351 0.0000 0.0000 0.0000
# 3 10.7408 -4.5351 78.4842 0.0000 0.0000 0.0000
# 4 0.0000 0.0000 0.0000 -114.8979 0.0000 0.0000
# 5 0.0000 0.0000 0.0000 0.0000 -16.0608 0.0000
# 6 0.0000 0.0000 0.0000 0.0000 0.0000 41.5619
#
#
#
# Elastic Compliance Matrix: (Units=1/GPa)
#
#
# Indices 1 2 3 4 5 6 
#
# 1 0.004877 -0.001275 -0.000741 0.000000 0.000000 0.000000
# 2 -0.001275 0.011009 0.000811 0.000000 0.000000 0.000000
# 3 -0.000741 0.000811 0.012890 0.000000 0.000000 0.000000
# 4 0.000000 0.000000 0.000000 -0.008703 0.000000 0.000000
# 5 0.000000 0.000000 0.000000 0.000000 -0.062263 0.000000
# 6 0.000000 0.000000 0.000000 0.000000 0.000000 0.024060
#
#
# Mechanical properties :
#
#
# Convention : Reuss Voigt Hill
#
# Bulk Modulus (GPa) = 37.92813 49.49439 43.71126
# Shear Modulus (GPa) = -721.42834 5.80376 -357.81229
#
# Velocity S-wave (km/s) = -18.21852 1.63407 -12.83052
# Velocity P-wave (km/s) = 20.61802 5.13143 14.12039
#
# Compressibility (1/GPa) = 0.02636566
#
# Stress axis : x y z
#
# Youngs Moduli (GPa) = 205.03196 90.83187 77.58144
#
# Poissons Ratio (x) = 0.11579 0.05750
# Poissons Ratio (y) = 0.26138 -0.06289
# Poissons Ratio (z) = 0.15196 -0.07363
#
# Static dielectric constant tensor:
#      x y z
#    x 1.815080 0.000000 0.000000 
#    y 0.000000 1.808190 0.000000 
#    z 0.000000 0.000000 1.860870 
# 
# From -- ./inp_files/12767.got.cif
#   From: 2010.05.17/outbox.cif.g08.bks.cpg/sg65_7_cif.got.tgz:12767.got - 2010.06.03 17:01:31.
