data_PCOD9483994
_publ_section_title
;
Structure prediction by ZEFSAII (Michael W. Deem and Ramdas Pophale) SiO2 
 PCOD9483994
Probable space group: C M M M
;
_chemical_formula_sum "Si O2"
_cell_formula_units_Z 104
_cell_length_a 15.277344
_cell_length_b 15.486779
_cell_length_c 21.067066
_cell_angle_alpha 90.000000
_cell_angle_beta 90.000000
_cell_angle_gamma 90.000000
_cell_volume 4984.401459
_symmetry_space_group_name_H-M "C M M M"
_symmetry_group_IT_number 65
_symmetry_cell_setting 'orthorhombic'
loop_
_space_group_symop_operation_xyz
x,y,z
-x,-y,z
x,-y,-z
-x,y,-z
-x,-y,-z
x,y,-z
-x,y,z
x,-y,z
1/2+x,1/2+y,z
1/2-x,1/2-y,z
1/2+x,1/2-y,-z
1/2-x,1/2+y,-z
1/2-x,1/2-y,-z
1/2+x,1/2+y,-z
1/2-x,1/2+y,z
1/2+x,1/2-y,z
loop_
_atom_site_type_symbol
_atom_site_label
_atom_site_fract_x
_atom_site_fract_y
_atom_site_fract_z
Si Si1 0.606731 0.776295 0.117851
Si Si2 0.392928 0.897799 0.000000
Si Si3 0.833618 0.305066 0.335692
Si Si4 0.606821 0.596301 0.828222
Si Si5 0.597474 0.368895 0.318038
Si Si6 0.105325 0.593902 0.226289
Si Si7 0.235922 0.097635 0.570997
O O1 0.500000 0.773111 0.114316
O O2 0.636824 0.677328 0.128556
O O3 0.631605 0.828658 0.180749
O O4 0.634186 0.838403 0.060039
O O5 0.500000 0.901185 0.000000
O O6 0.365446 0.000000 0.000000
O O7 0.750000 0.250000 0.312429
O O8 0.907309 0.234617 0.325834
O O9 0.852056 0.387999 0.293721
O O10 0.809792 0.335873 0.405858
O O11 0.500000 0.597797 0.830091
O O12 0.635462 0.500000 0.847885
O O13 0.628931 0.609778 0.753529
O O14 0.500000 0.404490 0.324985
O O15 0.661583 0.397444 0.374541
O O16 0.129714 0.500000 0.200443
O O17 0.000000 0.595883 0.231762
O O18 0.203802 0.117121 0.500000
O O19 0.269800 0.000000 0.570899
#
# Coordination Sequence:
#
# PCOD9483994 Si02
#       7
#    16   8  16  16  16  16  16
#     4   9  16  27  44  70 104 138 172 212 262 321
#     4   9  16  26  41  67 106 145 174 208 264 327
#     4  10  20  33  52  74 104 138 171 215 264 324
#     4   9  16  27  45  69  99 133 170 218 269 309
#     4  10  19  33  54  78 103 131 174 228 273 316
#     4  10  18  30  52  79 105 134 173 224 271 310
#     4  10  22  38  53  72 103 141 177 216 267 328
#
# _framework density 20.865092000000001
#
# number of rings (size 3 to 8) (size 9 to 14) (size 15 to 20)
#    0.000    2.385    1.538    1.846    0.000    5.846 
#    0.000    1.154    0.000    3.692    0.000    5.923 
#    0.000    0.000    0.000    0.000    0.000    0.000 
#
# Total GULP energy -289726.134349 kJ/mol
# GULP energy per Si atom -5571.656430 kJ/mol
# Density = 2.081760 g / cm^3
# Si number density = 20.865092 Si / 1000 Ang^3
#
#
#
# Elastic Constant Matrix: (Units=GPa)
#
#
# Indices 1 2 3 4 5 6 
#
# 1 26.9428 16.4867 5.3188 0.0000 0.0000 0.0000
# 2 16.4867 178.8262 57.2550 0.0000 0.0000 0.0000
# 3 5.3188 57.2550 101.5415 0.0000 0.0000 0.0000
# 4 0.0000 0.0000 0.0000 27.9751 0.0000 0.0000
# 5 0.0000 0.0000 0.0000 0.0000 21.8526 0.0000
# 6 0.0000 0.0000 0.0000 0.0000 0.0000 20.7079
#
#
#
# Elastic Compliance Matrix: (Units=1/GPa)
#
#
# Indices 1 2 3 4 5 6 
#
# 1 0.039335 -0.003620 -0.000019 0.000000 0.000000 0.000000
# 2 -0.003620 0.007157 -0.003846 0.000000 0.000000 0.000000
# 3 -0.000019 -0.003846 0.012018 0.000000 0.000000 0.000000
# 4 0.000000 0.000000 0.000000 0.035746 0.000000 0.000000
# 5 0.000000 0.000000 0.000000 0.000000 0.045761 0.000000
# 6 0.000000 0.000000 0.000000 0.000000 0.000000 0.048291
#
#
# Mechanical properties :
#
#
# Convention : Reuss Voigt Hill
#
# Bulk Modulus (GPa) = 22.96794 51.71461 37.34127
# Shear Modulus (GPa) = 22.95775 29.32378 26.14077
#
# Velocity S-wave (km/s) = 3.32067 3.75293 3.54340
# Velocity P-wave (km/s) = 5.07289 6.60442 5.88866
#
# Compressibility (1/GPa) = 0.04353895
#
# Stress axis : x y z
#
# Youngs Moduli (GPa) = 25.42283 139.72008 83.21007
#
# Poissons Ratio (x) = 0.50583 0.00158
# Poissons Ratio (y) = 0.09204 0.32002
# Poissons Ratio (z) = 0.00048 0.53736
#
# Static dielectric constant tensor:
#      x y z
#    x 1.816520 0.000000 0.000000 
#    y 0.000000 1.818420 0.000000 
#    z 0.000000 0.000000 1.744400 
# 
# From -- ./inp_files/63800.got.cif
#   From: 2010.05.17/outbox.cif.g08.bks.cpg/sg65_32_cif.got.tgz:63800.got - 2010.06.03 17:01:31.
