data_PCOD9483687
_publ_section_title
;
Structure prediction by ZEFSAII (Michael W. Deem and Ramdas Pophale) SiO2 
 PCOD9483687
Probable space group: C M M M
;
_chemical_formula_sum "Si O2"
_cell_formula_units_Z 56
_cell_length_a 7.706239
_cell_length_b 34.994942
_cell_length_c 10.663209
_cell_angle_alpha 90.000000
_cell_angle_beta 90.000000
_cell_angle_gamma 90.000000
_cell_volume 2875.647665
_symmetry_space_group_name_H-M "C M M M"
_symmetry_group_IT_number 65
_symmetry_cell_setting 'orthorhombic'
loop_
_space_group_symop_operation_xyz
x,y,z
-x,-y,z
x,-y,-z
-x,y,-z
-x,-y,-z
x,y,-z
-x,y,z
x,-y,z
1/2+x,1/2+y,z
1/2-x,1/2-y,z
1/2+x,1/2-y,-z
1/2-x,1/2+y,-z
1/2-x,1/2-y,-z
1/2+x,1/2+y,-z
1/2-x,1/2+y,z
1/2+x,1/2-y,z
loop_
_atom_site_type_symbol
_atom_site_label
_atom_site_fract_x
_atom_site_fract_y
_atom_site_fract_z
Si Si1 0.707007 0.583111 0.855555
Si Si2 0.792165 0.794388 0.000000
Si Si3 0.712827 0.662344 0.750324
Si Si4 0.791117 0.794956 0.500000
Si Si5 0.206103 0.500000 0.142652
O O1 0.500000 0.587269 0.865016
O O2 0.769073 0.618572 0.772388
O O3 0.741712 0.540860 0.802476
O O4 0.775593 0.585300 0.000000
O O5 0.750000 0.750000 0.000000
O O6 0.729324 0.814592 0.126412
O O7 0.000000 0.798899 0.000000
O O8 0.500000 0.662824 0.747394
O O9 0.772617 0.683443 0.624767
O O10 0.750000 0.750000 0.500000
O O11 0.000000 0.797837 0.500000
O O12 0.000000 0.500000 0.135352
O O13 0.280136 0.500000 0.000000
#
# Coordination Sequence:
#
# PCOD9483687 Si02
#       5
#    16   8  16   8   8
#     4   9  15  27  47  68  89 120 159 191 223 271
#     4  10  18  30  46  67  92 119 151 192 237 278
#     4   9  17  30  49  69  92 121 157 197 232 271
#     4  10  20  34  50  69  94 125 159 196 237 280
#     4   9  17  27  41  68 103 126 142 182 237 280
#
# _framework density 19.473873000000001
#
# number of rings (size 3 to 8) (size 9 to 14) (size 15 to 20)
#    0.000    2.714    1.429    1.286    0.000    1.714 
#    0.000    2.857    0.000    0.857    0.000    6.000 
#    0.000    0.000    0.000    0.000    0.000    0.000 
#
# Total GULP energy -156109.356460 kJ/mol
# GULP energy per Si atom -5575.334159 kJ/mol
# Density = 1.942955 g / cm^3
# Si number density = 19.473873 Si / 1000 Ang^3
#
#
#
# Elastic Constant Matrix: (Units=GPa)
#
#
# Indices 1 2 3 4 5 6 
#
# 1 29.4495 1.5961 9.2672 0.0000 0.0000 0.0000
# 2 1.5961 236.2340 103.9573 0.0000 0.0000 0.0000
# 3 9.2672 103.9573 140.4148 0.0000 0.0000 0.0000
# 4 0.0000 0.0000 0.0000 23.1476 0.0000 0.0000
# 5 0.0000 0.0000 0.0000 0.0000 -0.7961 0.0000
# 6 0.0000 0.0000 0.0000 0.0000 0.0000 21.6911
#
#
#
# Elastic Compliance Matrix: (Units=1/GPa)
#
#
# Indices 1 2 3 4 5 6 
#
# 1 0.034887 0.001153 -0.003156 0.000000 0.000000 0.000000
# 2 0.001153 0.006317 -0.004753 0.000000 0.000000 0.000000
# 3 -0.003156 -0.004753 0.010849 0.000000 0.000000 0.000000
# 4 0.000000 0.000000 0.000000 0.043201 0.000000 0.000000
# 5 0.000000 0.000000 0.000000 0.000000 -1.256170 0.000000
# 6 0.000000 0.000000 0.000000 0.000000 0.000000 0.046102
#
#
# Mechanical properties :
#
#
# Convention : Reuss Voigt Hill
#
# Bulk Modulus (GPa) = 25.94636 70.63772 48.29204
# Shear Modulus (GPa) = -4.59367 28.22706 11.81670
#
# Velocity S-wave (km/s) = -1.53753 3.81134 2.46600
# Velocity P-wave (km/s) = 3.19384 7.46460 5.74112
#
# Compressibility (1/GPa) = 0.03854106
#
# Stress axis : x y z
#
# Youngs Moduli (GPa) = 28.66384 158.30702 92.17540
#
# Poissons Ratio (x) = -0.18257 0.29094
# Poissons Ratio (y) = -0.03306 0.43810
# Poissons Ratio (z) = 0.09047 0.75241
#
# Static dielectric constant tensor:
#      x y z
#    x 1.721850 0.000000 0.000000 
#    y 0.000000 1.703940 0.000000 
#    z 0.000000 0.000000 1.667990 
# 
# From -- ./inp_files/20830.got.cif
#   From: 2010.05.17/outbox.cif.g08.bks.cpg/sg65_11_cif.got.tgz:20830.got - 2010.06.03 17:01:31.
