data_PCOD9483984
_publ_section_title
;
Structure prediction by ZEFSAII (Michael W. Deem and Ramdas Pophale) SiO2 
 PCOD9483984
Probable space group: C M M M
;
_chemical_formula_sum "Si O2"
_cell_formula_units_Z 60
_cell_length_a 14.699601
_cell_length_b 35.258991
_cell_length_c 7.489523
_cell_angle_alpha 90.000000
_cell_angle_beta 90.000000
_cell_angle_gamma 90.000000
_cell_volume 3881.768088
_symmetry_space_group_name_H-M "C M M M"
_symmetry_group_IT_number 65
_symmetry_cell_setting 'orthorhombic'
loop_
_space_group_symop_operation_xyz
x,y,z
-x,-y,z
x,-y,-z
-x,y,-z
-x,-y,-z
x,y,-z
-x,y,z
x,-y,z
1/2+x,1/2+y,z
1/2-x,1/2-y,z
1/2+x,1/2-y,-z
1/2-x,1/2+y,-z
1/2-x,1/2-y,-z
1/2+x,1/2+y,-z
1/2-x,1/2+y,z
1/2+x,1/2-y,z
loop_
_atom_site_type_symbol
_atom_site_label
_atom_site_fract_x
_atom_site_fract_y
_atom_site_fract_z
Si Si1 0.500000 0.293505 0.706323
Si Si2 0.000000 0.729705 0.000000
Si Si3 0.389545 0.500000 0.707538
Si Si4 0.794564 0.707441 0.000000
Si Si5 0.186877 0.161262 0.711746
Si Si6 0.105651 0.917138 0.281497
O O1 0.500000 0.282200 0.500000
O O2 0.500000 0.257328 0.830148
O O3 0.410498 0.318365 0.738400
O O4 0.903555 0.708744 0.000000
O O5 0.500000 0.500000 0.710004
O O6 0.361048 0.500000 0.500000
O O7 0.363698 0.458852 0.782041
O O8 0.750000 0.750000 0.000000
O O9 0.757733 0.684545 0.828783
O O10 0.207744 0.162264 0.500000
O O11 0.169380 0.117818 0.769109
O O12 0.103977 0.917786 0.500000
O O13 0.000000 0.910870 0.227304
#
# Coordination Sequence:
#
# PCOD9483984 Si02
#       6
#     8   4   8   8  16  16
#     4  10  18  30  52  73  94 124 155 192 231 271
#     4  12  24  40  48  68  94 114 156 206 246 286
#     4   7  10  16  32  61  95 129 157 180 215 263
#     4  12  24  36  52  69  91 121 157 201 245 283
#     4  10  19  32  50  73  97 126 162 193 226 274
#     4   8  12  21  39  65  97 129 158 186 219 266
#
# _framework density 15.456873
#
# number of rings (size 3 to 8) (size 9 to 14) (size 15 to 20)
#    0.000    2.533    4.000    1.600    0.000    1.600 
#    0.000    0.000    0.000    0.800    0.000    2.800 
#    0.000    2.133    0.000    8.533    0.000    0.000 
#
# Total GULP energy -167173.277593 kJ/mol
# GULP energy per Si atom -5572.442586 kJ/mol
# Density = 1.542169 g / cm^3
# Si number density = 15.456873 Si / 1000 Ang^3
#
#
#
# Elastic Constant Matrix: (Units=GPa)
#
#
# Indices 1 2 3 4 5 6 
#
# 1 82.7403 59.6427 41.3248 0.0000 0.0000 0.0000
# 2 59.6427 149.8505 48.7506 0.0000 0.0000 0.0000
# 3 41.3248 48.7506 51.2390 0.0000 0.0000 0.0000
# 4 0.0000 0.0000 0.0000 17.6426 0.0000 0.0000
# 5 0.0000 0.0000 0.0000 0.0000 17.9337 0.0000
# 6 0.0000 0.0000 0.0000 0.0000 0.0000 -0.3289
#
#
#
# Elastic Compliance Matrix: (Units=1/GPa)
#
#
# Indices 1 2 3 4 5 6 
#
# 1 0.022017 -0.004325 -0.013642 0.000000 0.000000 0.000000
# 2 -0.004325 0.010514 -0.006516 0.000000 0.000000 0.000000
# 3 -0.013642 -0.006516 0.036718 0.000000 0.000000 0.000000
# 4 0.000000 0.000000 0.000000 0.056681 0.000000 0.000000
# 5 0.000000 0.000000 0.000000 0.000000 0.055761 0.000000
# 6 0.000000 0.000000 0.000000 0.000000 0.000000 -3.040217
#
#
# Mechanical properties :
#
#
# Convention : Reuss Voigt Hill
#
# Bulk Modulus (GPa) = 49.29948 64.80733 57.05341
# Shear Modulus (GPa) = -1.78393 15.99027 7.10317
#
# Velocity S-wave (km/s) = -1.07547 3.21987 2.14603
# Velocity P-wave (km/s) = 5.51561 7.47277 6.56750
#
# Compressibility (1/GPa) = 0.02028419
#
# Stress axis : x y z
#
# Youngs Moduli (GPa) = 45.41880 95.10714 27.23443
#
# Poissons Ratio (x) = 0.41134 0.37154
# Poissons Ratio (y) = 0.19644 0.17745
# Poissons Ratio (z) = 0.61961 0.61969
#
# Static dielectric constant tensor:
#      x y z
#    x 1.488600 0.000000 0.000000 
#    y 0.000000 1.553050 0.000000 
#    z 0.000000 0.000000 1.408970 
# 
# From -- ./inp_files/4806.got.cif
#   From: 2010.05.17/outbox.cif.g08.bks.cpg/sg65_3_cif.got.tgz:4806.got - 2010.06.03 17:01:31.
