data_PCOD9483389
_publ_section_title
;
Structure prediction by ZEFSAII (Michael W. Deem and Ramdas Pophale) SiO2 
 PCOD9483389
Probable space group: C M M M
;
_chemical_formula_sum "Si O2"
_cell_formula_units_Z 88
_cell_length_a 21.426061
_cell_length_b 26.063695
_cell_length_c 7.473770
_cell_angle_alpha 90.000000
_cell_angle_beta 90.000000
_cell_angle_gamma 90.000000
_cell_volume 4173.669450
_symmetry_space_group_name_H-M "C M M M"
_symmetry_group_IT_number 65
_symmetry_cell_setting 'orthorhombic'
loop_
_space_group_symop_operation_xyz
x,y,z
-x,-y,z
x,-y,-z
-x,y,-z
-x,-y,-z
x,y,-z
-x,y,z
x,-y,z
1/2+x,1/2+y,z
1/2-x,1/2-y,z
1/2+x,1/2-y,-z
1/2-x,1/2+y,-z
1/2-x,1/2-y,-z
1/2+x,1/2+y,-z
1/2-x,1/2+y,z
1/2+x,1/2-y,z
loop_
_atom_site_type_symbol
_atom_site_label
_atom_site_fract_x
_atom_site_fract_y
_atom_site_fract_z
Si Si1 0.295888 0.357452 0.712647
Si Si2 0.750000 0.250000 0.250432
Si Si3 0.385540 0.771693 0.786365
Si Si4 0.432702 0.659823 0.713920
Si Si5 0.192869 0.441747 0.783986
Si Si6 0.931168 0.383606 0.782150
O O1 0.296000 0.343807 0.500000
O O2 0.269511 0.307326 0.812798
O O3 0.367453 0.365664 0.772528
O O4 0.250358 0.405159 0.735360
O O5 0.680367 0.234523 0.312936
O O6 0.424602 0.720350 0.754210
O O7 0.419138 0.824142 0.734837
O O8 0.371054 0.774572 0.000000
O O9 0.434265 0.653677 0.500000
O O10 0.500000 0.642233 0.784969
O O11 0.200293 0.500000 0.720960
O O12 0.127654 0.416924 0.720819
O O13 0.190212 0.442590 0.000000
O O14 0.000000 0.400038 0.721797
O O15 0.931339 0.385720 0.000000
#
# Coordination Sequence:
#
# PCOD9483389 Si02
#       6
#    16   8  16  16  16  16
#     4  10  20  34  55  79 104 135 173 214 258 313
#     4  10  18  30  50  78 108 136 170 210 262 312
#     4  10  18  28  47  74 106 140 173 211 252 302
#     4   9  19  34  50  73 107 141 169 204 256 315
#     4  10  21  37  55  76 103 136 176 220 266 310
#     4   9  17  30  48  72 101 133 173 216 255 297
#
# _framework density 21.084562999999999
#
# number of rings (size 3 to 8) (size 9 to 14) (size 15 to 20)
#    0.000    2.364    1.818    1.091    0.000    5.455 
#    0.000    1.818    0.000    1.091    0.000    5.091 
#    0.000    0.000    0.000    0.000    0.000    0.000 
#
# Total GULP energy -245084.652789 kJ/mol
# GULP energy per Si atom -5570.105745 kJ/mol
# Density = 2.103657 g / cm^3
# Si number density = 21.084563 Si / 1000 Ang^3
#
#
#
# Elastic Constant Matrix: (Units=GPa)
#
#
# Indices 1 2 3 4 5 6 
#
# 1 232.8199 91.6742 10.0984 0.0000 0.0000 0.0000
# 2 91.6742 124.6320 0.8782 0.0000 0.0000 0.0000
# 3 10.0984 0.8782 77.9283 0.0000 0.0000 0.0000
# 4 0.0000 0.0000 0.0000 10.6495 0.0000 0.0000
# 5 0.0000 0.0000 0.0000 0.0000 -1.0939 0.0000
# 6 0.0000 0.0000 0.0000 0.0000 0.0000 13.2203
#
#
#
# Elastic Compliance Matrix: (Units=1/GPa)
#
#
# Indices 1 2 3 4 5 6 
#
# 1 0.006089 -0.004473 -0.000739 0.000000 0.000000 0.000000
# 2 -0.004473 0.011311 0.000452 0.000000 0.000000 0.000000
# 3 -0.000739 0.000452 0.012923 0.000000 0.000000 0.000000
# 4 0.000000 0.000000 0.000000 0.093901 0.000000 0.000000
# 5 0.000000 0.000000 0.000000 0.000000 -0.914135 0.000000
# 6 0.000000 0.000000 0.000000 0.000000 0.000000 0.075641
#
#
# Mechanical properties :
#
#
# Convention : Reuss Voigt Hill
#
# Bulk Modulus (GPa) = 48.07005 71.18686 59.62845
# Shear Modulus (GPa) = -7.16521 26.73713 9.78596
#
# Velocity S-wave (km/s) = -1.84545 3.56489 2.15670
# Velocity P-wave (km/s) = 4.27870 7.12604 5.87740
#
# Compressibility (1/GPa) = 0.02080298
#
# Stress axis : x y z
#
# Youngs Moduli (GPa) = 164.24149 88.41087 77.38186
#
# Poissons Ratio (x) = 0.39549 0.05715
# Poissons Ratio (y) = 0.73470 -0.03499
# Poissons Ratio (z) = 0.12131 -0.03998
#
# Static dielectric constant tensor:
#      x y z
#    x 1.778020 0.000000 0.000000 
#    y 0.000000 1.693590 0.000000 
#    z 0.000000 0.000000 1.861400 
# 
# From -- ./inp_files/11777.got.cif
#   From: 2010.05.17/outbox.cif.g08.bks.cpg/sg65_6_cif.got.tgz:11777.got - 2010.06.03 17:01:31.
