data_PCOD9483125
_publ_section_title
;
Structure prediction by ZEFSAII (Michael W. Deem and Ramdas Pophale) SiO2 
 PCOD9483125
Probable space group: C M M M
;
_chemical_formula_sum "Si O2"
_cell_formula_units_Z 80
_cell_length_a 22.951881
_cell_length_b 7.356127
_cell_length_c 22.974604
_cell_angle_alpha 90.000000
_cell_angle_beta 90.000000
_cell_angle_gamma 90.000000
_cell_volume 3878.962102
_symmetry_space_group_name_H-M "C M M M"
_symmetry_group_IT_number 65
_symmetry_cell_setting 'orthorhombic'
loop_
_space_group_symop_operation_xyz
x,y,z
-x,-y,z
x,-y,-z
-x,y,-z
-x,-y,-z
x,y,-z
-x,y,z
x,-y,z
1/2+x,1/2+y,z
1/2-x,1/2-y,z
1/2+x,1/2-y,-z
1/2-x,1/2+y,-z
1/2-x,1/2-y,-z
1/2+x,1/2+y,-z
1/2-x,1/2+y,z
1/2+x,1/2-y,z
loop_
_atom_site_type_symbol
_atom_site_label
_atom_site_fract_x
_atom_site_fract_y
_atom_site_fract_z
Si Si1 0.000000 0.220993 0.432855
Si Si2 0.878453 0.777696 0.617421
Si Si3 0.817533 0.215379 0.500000
Si Si4 0.316509 0.716368 0.731960
Si Si5 0.065546 0.778940 0.068070
Si Si6 0.682323 0.282228 0.864298
O O1 0.943489 0.276109 0.397870
O O2 0.000000 0.282639 0.500000
O O3 0.000000 0.000000 0.435703
O O4 0.842507 0.715097 0.560979
O O5 0.856162 0.713105 0.679771
O O6 0.875099 0.000000 0.618957
O O7 0.750000 0.250000 0.500000
O O8 0.830839 0.000000 0.500000
O O9 0.325993 0.500000 0.735930
O O10 0.250000 0.750000 0.714129
O O11 0.322883 0.787341 0.797734
O O12 0.125272 0.717520 0.099934
O O13 0.000000 0.722517 0.089131
O O14 0.065519 0.000000 0.071073
O O15 0.069249 0.729255 0.000000
O O16 0.677678 0.500000 0.863524
O O17 0.750000 0.250000 0.884132
#
# Coordination Sequence:
#
# PCOD9483125 Si02
#       6
#     8  16   8  16  16  16
#     4   9  14  24  40  58  82 108 129 163 213 252
#     4   9  16  26  40  59  83 107 133 166 206 248
#     4  10  18  27  41  61  81 102 133 168 200 242
#     4   9  17  29  43  62  87 112 137 169 208 248
#     4   8  14  26  44  65  90 119 148 179 217 258
#     4   9  17  29  45  66  91 117 146 180 217 257
#
# _framework density 20.624075000000001
#
# number of rings (size 3 to 8) (size 9 to 14) (size 15 to 20)
#    0.000    3.100    1.000    1.200    0.000    0.400 
#    1.800    0.000    0.000    0.600    0.000    4.900 
#    0.000    0.000    0.000    0.000    0.000    0.000 
#
# Total GULP energy -222879.360560 kJ/mol
# GULP energy per Si atom -5571.984014 kJ/mol
# Density = 2.057713 g / cm^3
# Si number density = 20.624075 Si / 1000 Ang^3
#
#
#
# Elastic Constant Matrix: (Units=GPa)
#
#
# Indices 1 2 3 4 5 6 
#
# 1 222.6770 -2.1082 112.3505 0.0000 0.0000 0.0000
# 2 -2.1082 76.8114 4.2540 0.0000 0.0000 0.0000
# 3 112.3505 4.2540 107.4310 0.0000 0.0000 0.0000
# 4 0.0000 0.0000 0.0000 -14.5504 0.0000 0.0000
# 5 0.0000 0.0000 0.0000 0.0000 28.2197 0.0000
# 6 0.0000 0.0000 0.0000 0.0000 0.0000 14.2586
#
#
#
# Elastic Compliance Matrix: (Units=1/GPa)
#
#
# Indices 1 2 3 4 5 6 
#
# 1 0.009558 0.000818 -0.010028 0.000000 0.000000 0.000000
# 2 0.000818 0.013117 -0.001375 0.000000 0.000000 0.000000
# 3 -0.010028 -0.001375 0.019850 0.000000 0.000000 0.000000
# 4 0.000000 0.000000 0.000000 -0.068727 0.000000 0.000000
# 5 0.000000 0.000000 0.000000 0.000000 0.035436 0.000000
# 6 0.000000 0.000000 0.000000 0.000000 0.000000 0.070133
#
#
# Mechanical properties :
#
#
# Convention : Reuss Voigt Hill
#
# Bulk Modulus (GPa) = 46.82609 70.65690 58.74150
# Shear Modulus (GPa) = 46.44354 25.08048 35.76201
#
# Velocity S-wave (km/s) = 4.75058 3.49101 4.16864
# Velocity P-wave (km/s) = 7.26942 7.11220 7.19124
#
# Compressibility (1/GPa) = 0.02135562
#
# Stress axis : x y z
#
# Youngs Moduli (GPa) = 104.62074 76.23418 50.37689
#
# Poissons Ratio (x) = -0.06234 0.50520
# Poissons Ratio (y) = -0.08555 0.06925
# Poissons Ratio (z) = 1.04918 0.10479
#
# Static dielectric constant tensor:
#      x y z
#    x 1.702960 0.000000 0.000000 
#    y 0.000000 1.825450 0.000000 
#    z 0.000000 0.000000 1.717180 
# 
# From -- ./inp_files/61399.got.cif
#   From: 2010.05.17/outbox.cif.g08.bks.cpg/sg65_31_cif.got.tgz:61399.got - 2010.06.03 17:01:31.
