data_PCOD9483180
_publ_section_title
;
Structure prediction by ZEFSAII (Michael W. Deem and Ramdas Pophale) SiO2 
 PCOD9483180
Probable space group: C M M M
;
_chemical_formula_sum "Si O2"
_cell_formula_units_Z 80
_cell_length_a 18.617382
_cell_length_b 27.672523
_cell_length_c 7.499476
_cell_angle_alpha 90.000000
_cell_angle_beta 90.000000
_cell_angle_gamma 90.000000
_cell_volume 3863.654527
_symmetry_space_group_name_H-M "C M M M"
_symmetry_group_IT_number 65
_symmetry_cell_setting 'orthorhombic'
loop_
_space_group_symop_operation_xyz
x,y,z
-x,-y,z
x,-y,-z
-x,y,-z
-x,-y,-z
x,y,-z
-x,y,z
x,-y,z
1/2+x,1/2+y,z
1/2-x,1/2-y,z
1/2+x,1/2-y,-z
1/2-x,1/2+y,-z
1/2-x,1/2-y,-z
1/2+x,1/2+y,-z
1/2-x,1/2+y,z
1/2+x,1/2-y,z
loop_
_atom_site_type_symbol
_atom_site_label
_atom_site_fract_x
_atom_site_fract_y
_atom_site_fract_z
Si Si1 0.666676 0.752768 0.215383
Si Si2 0.084478 0.947378 0.783163
Si Si3 0.680317 0.857683 0.290645
Si Si4 0.154224 0.850542 0.794758
Si Si5 0.417109 0.945711 0.282520
O O1 0.750000 0.750000 0.274715
O O2 0.640966 0.805879 0.268873
O O3 0.633394 0.702208 0.280831
O O4 0.665972 0.751463 0.000000
O O5 0.123585 0.899653 0.713950
O O6 0.000000 0.944338 0.742520
O O7 0.111439 0.000000 0.720936
O O8 0.091082 0.947878 0.000000
O O9 0.692716 0.865138 0.500000
O O10 0.759156 0.853804 0.205668
O O11 0.634035 0.902548 0.221232
O O12 0.129285 0.849820 0.000000
O O13 0.416648 0.944827 0.500000
O O14 0.500000 0.938502 0.228133
O O15 0.394839 0.000000 0.228511
#
# Coordination Sequence:
#
# PCOD9483180 Si02
#       5
#    16  16  16  16  16
#     4   8  15  28  43  60  87 120 145 168 209 261
#     4   8  14  26  45  67  88 112 146 183 212 245
#     4  10  18  27  45  70  88 107 143 185 216 248
#     4   9  17  29  45  65  90 118 144 173 214 259
#     4   8  15  29  46  62  84 115 146 175 212 259
#
# _framework density 20.705784999999999
#
# number of rings (size 3 to 8) (size 9 to 14) (size 15 to 20)
#    0.000    3.400    0.000    3.000    0.000    4.400 
#    0.000    1.000    0.000    6.000    0.000    7.000 
#    0.000    0.000    0.000    0.000    0.000    0.000 
#
# Total GULP energy -222750.584364 kJ/mol
# GULP energy per Si atom -5568.764609 kJ/mol
# Density = 2.065866 g / cm^3
# Si number density = 20.705785 Si / 1000 Ang^3
#
#
#
# Elastic Constant Matrix: (Units=GPa)
#
#
# Indices 1 2 3 4 5 6 
#
# 1 22.9517 60.0343 -8.3270 0.0000 0.0000 0.0000
# 2 60.0343 239.0003 -2.1636 0.0000 0.0000 0.0000
# 3 -8.3270 -2.1636 55.9379 0.0000 0.0000 0.0000
# 4 0.0000 0.0000 0.0000 14.1726 0.0000 0.0000
# 5 0.0000 0.0000 0.0000 0.0000 0.2287 0.0000
# 6 0.0000 0.0000 0.0000 0.0000 0.0000 -127.2754
#
#
#
# Elastic Compliance Matrix: (Units=1/GPa)
#
#
# Indices 1 2 3 4 5 6 
#
# 1 0.147312 -0.036818 0.020505 0.000000 0.000000 0.000000
# 2 -0.036818 0.013387 -0.004963 0.000000 0.000000 0.000000
# 3 0.020505 -0.004963 0.020737 0.000000 0.000000 0.000000
# 4 0.000000 0.000000 0.000000 0.070558 0.000000 0.000000
# 5 0.000000 0.000000 0.000000 0.000000 4.372084 0.000000
# 6 0.000000 0.000000 0.000000 0.000000 0.000000 -0.007857
#
#
# Mechanical properties :
#
#
# Convention : Reuss Voigt Hill
#
# Bulk Modulus (GPa) = 7.20014 46.33083 26.76548
# Shear Modulus (GPa) = 1.06268 -4.68506 -1.81119
#
# Velocity S-wave (km/s) = 0.71718 -1.50585 -0.93628
# Velocity P-wave (km/s) = 2.04223 4.40465 3.43305
#
# Compressibility (1/GPa) = 0.13888614
#
# Stress axis : x y z
#
# Youngs Moduli (GPa) = 6.78829 74.69728 48.22201
#
# Poissons Ratio (x) = 2.75018 -0.98880
# Poissons Ratio (y) = 0.24993 0.23932
# Poissons Ratio (z) = -0.13919 0.37072
#
# Static dielectric constant tensor:
#      x y z
#    x 1.690470 0.000000 0.000000 
#    y 0.000000 1.809290 0.000000 
#    z 0.000000 0.000000 1.782440 
# 
# From -- ./inp_files/9638.got.cif
#   From: 2010.05.17/outbox.cif.g08.bks.cpg/sg65_5_cif.got.tgz:9638.got - 2010.06.03 17:01:31.
