data_PCOD9483645
_publ_section_title
;
Structure prediction by ZEFSAII (Michael W. Deem and Ramdas Pophale) SiO2 
 PCOD9483645
Probable space group: C M M M
;
_chemical_formula_sum "Si O2"
_cell_formula_units_Z 96
_cell_length_a 15.127128
_cell_length_b 25.367898
_cell_length_c 13.027673
_cell_angle_alpha 90.000000
_cell_angle_beta 90.000000
_cell_angle_gamma 90.000000
_cell_volume 4999.284054
_symmetry_space_group_name_H-M "C M M M"
_symmetry_group_IT_number 65
_symmetry_cell_setting 'orthorhombic'
loop_
_space_group_symop_operation_xyz
x,y,z
-x,-y,z
x,-y,-z
-x,y,-z
-x,-y,-z
x,y,-z
-x,y,z
x,-y,z
1/2+x,1/2+y,z
1/2-x,1/2-y,z
1/2+x,1/2-y,-z
1/2-x,1/2+y,-z
1/2-x,1/2-y,-z
1/2+x,1/2+y,-z
1/2-x,1/2+y,z
1/2+x,1/2-y,z
loop_
_atom_site_type_symbol
_atom_site_label
_atom_site_fract_x
_atom_site_fract_y
_atom_site_fract_z
Si Si1 0.694930 0.442348 0.838320
Si Si2 0.500000 0.646744 0.334781
Si Si3 0.000000 0.739340 0.616593
Si Si4 0.341689 0.861794 0.883863
Si Si5 0.500000 0.060634 0.124419
Si Si6 0.688792 0.396062 0.613070
Si Si7 0.312875 0.801021 0.316895
Si Si8 0.000000 0.057636 0.169233
O O1 0.734343 0.500000 0.859449
O O2 0.752104 0.395469 0.882580
O O3 0.690197 0.433107 0.714217
O O4 0.595566 0.441704 0.881690
O O5 0.500000 0.708644 0.313266
O O6 0.591966 0.631048 0.387752
O O7 0.500000 0.609958 0.235825
O O8 0.090864 0.708451 0.634659
O O9 0.000000 0.759628 0.500000
O O10 0.415468 0.903969 0.846850
O O11 0.330461 0.815510 0.802143
O O12 0.363148 0.844910 0.000000
O O13 0.500000 0.000000 0.162359
O O14 0.500000 0.057593 0.000000
O O15 0.703459 0.420147 0.500000
O O16 0.761035 0.350424 0.633902
O O17 0.250000 0.750000 0.327909
O O18 0.000000 0.000000 0.226258
#
# Coordination Sequence:
#
# PCOD9483645 Si02
#       8
#    16   8   8  16   8  16  16   8
#     4   9  18  32  52  78 107 142 178 217 268 321
#     4  10  18  29  51  78 103 138 180 219 261 313
#     4  12  23  35  56  82 108 140 180 220 266 322
#     4  10  21  37  57  80 107 138 180 230 277 327
#     4   9  17  32  57  84 105 127 161 214 277 332
#     4  10  19  32  50  76 109 141 178 220 265 322
#     4  11  23  37  54  77 107 145 182 228 276 318
#     4   8  16  32  50  72 108 143 173 214 262 315
#
# _framework density 19.202750000000002
#
# number of rings (size 3 to 8) (size 9 to 14) (size 15 to 20)
#    0.000    2.083    1.667    2.250    0.000    2.333 
#    0.000    0.417    0.000    7.750    0.000    0.000 
#    0.000   12.000    0.000    0.000    0.000    0.000 
#
# Total GULP energy -267468.037723 kJ/mol
# GULP energy per Si atom -5572.250786 kJ/mol
# Density = 1.915904 g / cm^3
# Si number density = 19.202750 Si / 1000 Ang^3
#
#
#
# Elastic Constant Matrix: (Units=GPa)
#
#
# Indices 1 2 3 4 5 6 
#
# 1 108.9309 20.4832 2.8418 0.0000 0.0000 0.0000
# 2 20.4832 44.5619 1.5793 0.0000 0.0000 0.0000
# 3 2.8418 1.5793 78.4850 0.0000 0.0000 0.0000
# 4 0.0000 0.0000 0.0000 -33.8948 0.0000 0.0000
# 5 0.0000 0.0000 0.0000 0.0000 -20.1619 0.0000
# 6 0.0000 0.0000 0.0000 0.0000 0.0000 21.5781
#
#
#
# Elastic Compliance Matrix: (Units=1/GPa)
#
#
# Indices 1 2 3 4 5 6 
#
# 1 0.010054 -0.004612 -0.000271 0.000000 0.000000 0.000000
# 2 -0.004612 0.024572 -0.000327 0.000000 0.000000 0.000000
# 3 -0.000271 -0.000327 0.012758 0.000000 0.000000 0.000000
# 4 0.000000 0.000000 0.000000 -0.029503 0.000000 0.000000
# 5 0.000000 0.000000 0.000000 0.000000 -0.049598 0.000000
# 6 0.000000 0.000000 0.000000 0.000000 0.000000 0.046343
#
#
# Mechanical properties :
#
#
# Convention : Reuss Voigt Hill
#
# Bulk Modulus (GPa) = 27.05408 31.30961 29.18185
# Shear Modulus (GPa) = 133.80187 7.30916 70.55552
#
# Velocity S-wave (km/s) = 8.35642 1.95309 6.06813
# Velocity P-wave (km/s) = 10.35498 4.62885 8.02034
#
# Compressibility (1/GPa) = 0.03696300
#
# Stress axis : x y z
#
# Youngs Moduli (GPa) = 99.45860 40.69632 78.38404
#
# Poissons Ratio (x) = 0.18769 0.02126
# Poissons Ratio (y) = 0.45870 0.02567
# Poissons Ratio (z) = 0.02698 0.01333
#
# Static dielectric constant tensor:
#      x y z
#    x 1.691500 0.000000 0.000000 
#    y 0.000000 1.638040 0.000000 
#    z 0.000000 0.000000 1.704470 
# 
# From -- ./inp_files/41024.got.cif
#   From: 2010.05.17/outbox.cif.g08.bks.cpg/sg65_21_cif.got.tgz:41024.got - 2010.06.03 17:01:31.
