data_PCOD9483209
_publ_section_title
;
Structure prediction by ZEFSAII (Michael W. Deem and Ramdas Pophale) SiO2 
 PCOD9483209
Probable space group: C M M M
;
_chemical_formula_sum "Si O2"
_cell_formula_units_Z 72
_cell_length_a 38.691727
_cell_length_b 7.345639
_cell_length_c 11.423262
_cell_angle_alpha 90.000000
_cell_angle_beta 90.000000
_cell_angle_gamma 90.000000
_cell_volume 3246.667651
_symmetry_space_group_name_H-M "C M M M"
_symmetry_group_IT_number 65
_symmetry_cell_setting 'orthorhombic'
loop_
_space_group_symop_operation_xyz
x,y,z
-x,-y,z
x,-y,-z
-x,y,-z
-x,-y,-z
x,y,-z
-x,y,z
x,-y,z
1/2+x,1/2+y,z
1/2-x,1/2-y,z
1/2+x,1/2-y,-z
1/2-x,1/2+y,-z
1/2-x,1/2-y,-z
1/2+x,1/2+y,-z
1/2-x,1/2+y,z
1/2+x,1/2-y,z
loop_
_atom_site_type_symbol
_atom_site_label
_atom_site_fract_x
_atom_site_fract_y
_atom_site_fract_z
Si Si1 0.212775 0.782171 0.129513
Si Si2 0.918934 0.222233 0.366111
Si Si3 0.209755 0.216417 0.500000
Si Si4 0.158387 0.778212 0.698412
Si Si5 0.040472 0.778929 0.868835
O O1 0.250000 0.750000 0.191860
O O2 0.176293 0.720177 0.181693
O O3 0.210336 0.000000 0.125338
O O4 0.216190 0.705446 0.000000
O O5 0.928762 0.278058 0.500000
O O6 0.879462 0.280328 0.340018
O O7 0.940795 0.280657 0.251411
O O8 0.920129 0.000000 0.367402
O O9 0.250000 0.250000 0.500000
O O10 0.188095 0.282801 0.390302
O O11 0.205926 0.000000 0.500000
O O12 0.156522 0.000000 0.697317
O O13 0.000000 0.730498 0.862059
O O14 0.042680 0.000000 0.869034
O O15 0.053123 0.721404 0.000000
#
# Coordination Sequence:
#
# PCOD9483209 Si02
#       5
#    16  16   8  16  16
#     4   9  17  28  41  57  77 101 132 170 209 250
#     4   9  15  23  35  50  70  96 128 167 208 245
#     4  10  18  28  42  58  77 103 135 171 208 244
#     4   9  16  26  38  53  73  97 127 165 206 244
#     4   8  14  23  33  47  69  97 130 167 204 244
#
# _framework density 22.176583000000001
#
# number of rings (size 3 to 8) (size 9 to 14) (size 15 to 20)
#    0.000    3.111    1.111    1.333    0.000    1.333 
#    0.000    6.667    0.000    0.000    0.000    0.000 
#    0.000    0.000    0.000    0.000    0.000    5.556 
#
# Total GULP energy -200429.359381 kJ/mol
# GULP energy per Si atom -5567.482205 kJ/mol
# Density = 2.212611 g / cm^3
# Si number density = 22.176583 Si / 1000 Ang^3
#
#
#
# Elastic Constant Matrix: (Units=GPa)
#
#
# Indices 1 2 3 4 5 6 
#
# 1 116.4509 -1.3284 97.7971 0.0000 0.0000 0.0000
# 2 -1.3284 82.9034 2.4946 0.0000 0.0000 0.0000
# 3 97.7971 2.4946 185.9541 0.0000 0.0000 0.0000
# 4 0.0000 0.0000 0.0000 -8.8546 0.0000 0.0000
# 5 0.0000 0.0000 0.0000 0.0000 24.2428 0.0000
# 6 0.0000 0.0000 0.0000 0.0000 0.0000 4.9847
#
#
#
# Elastic Compliance Matrix: (Units=1/GPa)
#
#
# Indices 1 2 3 4 5 6 
#
# 1 0.015400 0.000491 -0.008106 0.000000 0.000000 0.000000
# 2 0.000491 0.012083 -0.000420 0.000000 0.000000 0.000000
# 3 -0.008106 -0.000420 0.009646 0.000000 0.000000 0.000000
# 4 0.000000 0.000000 0.000000 -0.112936 0.000000 0.000000
# 5 0.000000 0.000000 0.000000 0.000000 0.041249 0.000000
# 6 0.000000 0.000000 0.000000 0.000000 0.000000 0.200616
#
#
# Mechanical properties :
#
#
# Convention : Reuss Voigt Hill
#
# Bulk Modulus (GPa) = 47.48637 64.80388 56.14513
# Shear Modulus (GPa) = 26.43417 23.16424 24.79920
#
# Velocity S-wave (km/s) = 3.45626 3.23543 3.34767
# Velocity P-wave (km/s) = 6.11449 6.57591 6.34939
#
# Compressibility (1/GPa) = 0.02105867
#
# Stress axis : x y z
#
# Youngs Moduli (GPa) = 64.93330 82.76267 103.66553
#
# Poissons Ratio (x) = -0.04061 0.84031
# Poissons Ratio (y) = -0.03186 0.04356
# Poissons Ratio (z) = 0.52635 0.03477
#
# Static dielectric constant tensor:
#      x y z
#    x 1.770680 0.000000 0.000000 
#    y 0.000000 1.817980 0.000000 
#    z 0.000000 0.000000 1.969130 
# 
# From -- ./inp_files/33426.got.cif
#   From: 2010.05.17/outbox.cif.g08.bks.cpg/sg65_17_cif.got.tgz:33426.got - 2010.06.03 17:01:31.
