data_PCOD9483528
_publ_section_title
;
Structure prediction by ZEFSAII (Michael W. Deem and Ramdas Pophale) SiO2 
 PCOD9483528
Probable space group: C M M M
;
_chemical_formula_sum "Si O2"
_cell_formula_units_Z 88
_cell_length_a 25.123962
_cell_length_b 23.824574
_cell_length_c 7.544169
_cell_angle_alpha 90.000000
_cell_angle_beta 90.000000
_cell_angle_gamma 90.000000
_cell_volume 4515.695825
_symmetry_space_group_name_H-M "C M M M"
_symmetry_group_IT_number 65
_symmetry_cell_setting 'orthorhombic'
loop_
_space_group_symop_operation_xyz
x,y,z
-x,-y,z
x,-y,-z
-x,y,-z
-x,-y,-z
x,y,-z
-x,y,z
x,-y,z
1/2+x,1/2+y,z
1/2-x,1/2-y,z
1/2+x,1/2-y,-z
1/2-x,1/2+y,-z
1/2-x,1/2-y,-z
1/2+x,1/2+y,-z
1/2-x,1/2+y,z
1/2+x,1/2-y,z
loop_
_atom_site_type_symbol
_atom_site_label
_atom_site_fract_x
_atom_site_fract_y
_atom_site_fract_z
Si Si1 0.561074 0.220617 0.213862
Si Si2 0.438077 0.000000 0.782956
Si Si3 0.439698 0.652236 0.289300
Si Si4 0.621690 0.111794 0.209953
Si Si5 0.647404 0.564590 0.283393
Si Si6 0.267315 0.936095 0.286687
O O1 0.500000 0.212637 0.274565
O O2 0.577881 0.283425 0.263962
O O3 0.597623 0.169851 0.280249
O O4 0.560595 0.219122 0.000000
O O5 0.408132 0.056175 0.720201
O O6 0.500000 0.000000 0.732575
O O7 0.436305 0.000000 0.000000
O O8 0.443075 0.642621 0.500000
O O9 0.500000 0.646702 0.217111
O O10 0.397120 0.607732 0.219146
O O11 0.684469 0.103664 0.234348
O O12 0.611146 0.112141 0.000000
O O13 0.647307 0.565744 0.500000
O O14 0.636847 0.500000 0.232088
O O15 0.707727 0.579216 0.227289
O O16 0.266305 0.937702 0.500000
O O17 0.278657 0.000000 0.224370
#
# Coordination Sequence:
#
# PCOD9483528 Si02
#       6
#    16   8  16  16  16  16
#     4   9  18  32  48  66  92 126 157 185 228 282
#     4   9  16  26  43  67  91 113 146 195 238 268
#     4   9  17  30  50  74  95 117 150 191 231 271
#     4  10  18  29  47  69  90 118 158 198 230 265
#     4   8  15  29  49  72  96 121 150 185 228 279
#     4   9  17  30  47  66  92 125 154 184 230 281
#
# _framework density 19.487583000000001
#
# number of rings (size 3 to 8) (size 9 to 14) (size 15 to 20)
#    0.000    3.000    0.909    1.636    0.000    3.273 
#    0.000    3.636    0.000    9.273    0.000    2.545 
#    0.000    0.000    0.000    0.000    0.000    0.000 
#
# Total GULP energy -245381.412203 kJ/mol
# GULP energy per Si atom -5576.850277 kJ/mol
# Density = 1.944323 g / cm^3
# Si number density = 19.487583 Si / 1000 Ang^3
#
#
#
# Elastic Constant Matrix: (Units=GPa)
#
#
# Indices 1 2 3 4 5 6 
#
# 1 147.4176 129.4433 -0.4706 0.0000 0.0000 0.0000
# 2 129.4433 162.5071 -0.4204 0.0000 0.0000 0.0000
# 3 -0.4706 -0.4204 43.6740 0.0000 0.0000 0.0000
# 4 0.0000 0.0000 0.0000 18.5946 0.0000 0.0000
# 5 0.0000 0.0000 0.0000 0.0000 15.2031 0.0000
# 6 0.0000 0.0000 0.0000 0.0000 0.0000 33.7888
#
#
#
# Elastic Compliance Matrix: (Units=1/GPa)
#
#
# Indices 1 2 3 4 5 6 
#
# 1 0.022568 -0.017976 0.000070 0.000000 0.000000 0.000000
# 2 -0.017976 0.020472 0.000003 0.000000 0.000000 0.000000
# 3 0.000070 0.000003 0.022898 0.000000 0.000000 0.000000
# 4 0.000000 0.000000 0.000000 0.053779 0.000000 0.000000
# 5 0.000000 0.000000 0.000000 0.000000 0.065776 0.000000
# 6 0.000000 0.000000 0.000000 0.000000 0.000000 0.029596
#
#
# Mechanical properties :
#
#
# Convention : Reuss Voigt Hill
#
# Bulk Modulus (GPa) = 33.18649 67.85594 50.52122
# Shear Modulus (GPa) = 19.16161 28.52038 23.84099
#
# Velocity S-wave (km/s) = 3.13912 3.82974 3.50150
# Velocity P-wave (km/s) = 5.49593 7.37913 6.50603
#
# Compressibility (1/GPa) = 0.03013274
#
# Stress axis : x y z
#
# Youngs Moduli (GPa) = 44.31048 48.84649 43.67250
#
# Poissons Ratio (x) = 0.87807 -0.00306
# Poissons Ratio (y) = 0.79653 -0.00015
# Poissons Ratio (z) = -0.00311 -0.00016
#
# Static dielectric constant tensor:
#      x y z
#    x 1.676360 0.000000 0.000000 
#    y 0.000000 1.660010 0.000000 
#    z 0.000000 0.000000 1.752820 
# 
# From -- ./inp_files/30551.got.cif
#   From: 2010.05.17/outbox.cif.g08.bks.cpg/sg65_16_cif.got.tgz:30551.got - 2010.06.03 17:01:31.
