data_PCOD9483256
_publ_section_title
;
Structure prediction by ZEFSAII (Michael W. Deem and Ramdas Pophale) SiO2 
 PCOD9483256
Probable space group: C M M M
;
_chemical_formula_sum "Si O2"
_cell_formula_units_Z 68
_cell_length_a 13.783860
_cell_length_b 26.995600
_cell_length_c 12.181385
_cell_angle_alpha 90.000000
_cell_angle_beta 90.000000
_cell_angle_gamma 90.000000
_cell_volume 4532.736858
_symmetry_space_group_name_H-M "C M M M"
_symmetry_group_IT_number 65
_symmetry_cell_setting 'orthorhombic'
loop_
_space_group_symop_operation_xyz
x,y,z
-x,-y,z
x,-y,-z
-x,y,-z
-x,-y,-z
x,y,-z
-x,y,z
x,-y,z
1/2+x,1/2+y,z
1/2-x,1/2-y,z
1/2+x,1/2-y,-z
1/2-x,1/2+y,-z
1/2-x,1/2-y,-z
1/2+x,1/2+y,-z
1/2-x,1/2+y,z
1/2+x,1/2-y,z
loop_
_atom_site_type_symbol
_atom_site_label
_atom_site_fract_x
_atom_site_fract_y
_atom_site_fract_z
Si Si1 0.612912 0.225673 0.368233
Si Si2 0.146477 0.000000 0.500000
Si Si3 0.614333 0.601111 0.870387
Si Si4 0.702033 0.670541 0.700829
Si Si5 0.108826 0.885764 0.500000
Si Si6 0.883729 0.000000 0.263070
O O1 0.629606 0.228950 0.500000
O O2 0.500000 0.215221 0.349704
O O3 0.642843 0.278457 0.316896
O O4 0.686616 0.185316 0.319564
O O5 0.101726 0.944893 0.500000
O O6 0.182236 0.000000 0.627324
O O7 0.500000 0.612894 0.852900
O O8 0.677576 0.643831 0.814268
O O9 0.632022 0.548998 0.808994
O O10 0.630867 0.596294 0.000000
O O11 0.664458 0.633639 0.606332
O O12 0.000000 0.864556 0.500000
O O13 0.000000 0.000000 0.295455
#
# Coordination Sequence:
#
# PCOD9483256 Si02
#       6
#    16   4  16  16   8   8
#     4  10  19  32  49  73 100 123 155 199 246 293
#     4  12  21  26  42  76 109 128 147 194 250 284
#     4  10  20  32  46  66  97 136 168 195 230 279
#     4  11  19  31  49  72  96 128 163 195 236 288
#     4  12  19  27  44  72 104 129 153 191 240 286
#     4  10  18  28  43  67 100 131 160 192 233 288
#
# _framework density 15.001974000000001
#
# number of rings (size 3 to 8) (size 9 to 14) (size 15 to 20)
#    0.000    1.412    4.706    4.235    0.000    1.412 
#    0.000    2.353    0.000    2.118    0.000    4.118 
#    0.000    1.882    0.000    0.000    0.000    0.000 
#
# Total GULP energy -189454.100644 kJ/mol
# GULP energy per Si atom -5572.179431 kJ/mol
# Density = 1.496783 g / cm^3
# Si number density = 15.001974 Si / 1000 Ang^3
#
#
#
# Elastic Constant Matrix: (Units=GPa)
#
#
# Indices 1 2 3 4 5 6 
#
# 1 92.8448 46.6195 39.5028 0.0000 0.0000 0.0000
# 2 46.6195 92.8423 44.2912 0.0000 0.0000 0.0000
# 3 39.5028 44.2912 97.8507 0.0000 0.0000 0.0000
# 4 0.0000 0.0000 0.0000 17.5613 0.0000 0.0000
# 5 0.0000 0.0000 0.0000 0.0000 18.4864 0.0000
# 6 0.0000 0.0000 0.0000 0.0000 0.0000 13.0046
#
#
#
# Elastic Compliance Matrix: (Units=1/GPa)
#
#
# Indices 1 2 3 4 5 6 
#
# 1 0.015255 -0.006023 -0.003432 0.000000 0.000000 0.000000
# 2 -0.006023 0.016115 -0.004863 0.000000 0.000000 0.000000
# 3 -0.003432 -0.004863 0.013807 0.000000 0.000000 0.000000
# 4 0.000000 0.000000 0.000000 0.056943 0.000000 0.000000
# 5 0.000000 0.000000 0.000000 0.000000 0.054094 0.000000
# 6 0.000000 0.000000 0.000000 0.000000 0.000000 0.076896
#
#
# Mechanical properties :
#
#
# Convention : Reuss Voigt Hill
#
# Bulk Modulus (GPa) = 60.45747 60.48500 60.47123
# Shear Modulus (GPa) = 18.70837 20.01873 19.36355
#
# Velocity S-wave (km/s) = 3.53521 3.65692 3.59658
# Velocity P-wave (km/s) = 7.55319 7.63127 7.59233
#
# Compressibility (1/GPa) = 0.01654055
#
# Stress axis : x y z
#
# Youngs Moduli (GPa) = 65.55129 62.05370 72.42955
#
# Poissons Ratio (x) = 0.37373 0.24861
# Poissons Ratio (y) = 0.39480 0.35222
# Poissons Ratio (z) = 0.22500 0.30176
#
# Static dielectric constant tensor:
#      x y z
#    x 1.485740 0.000000 0.000000 
#    y 0.000000 1.493590 0.000000 
#    z 0.000000 0.000000 1.516450 
# 
# From -- ./inp_files/24551.got.cif
#   From: 2010.05.17/outbox.cif.g08.bks.cpg/sg65_13_cif.got.tgz:24551.got - 2010.06.03 17:01:31.
