data_PCOD9483622
_publ_section_title
;
Structure prediction by ZEFSAII (Michael W. Deem and Ramdas Pophale) SiO2 
 PCOD9483622
Probable space group: C M M M
;
_chemical_formula_sum "Si O2"
_cell_formula_units_Z 104
_cell_length_a 9.246568
_cell_length_b 27.127488
_cell_length_c 25.231361
_cell_angle_alpha 90.000000
_cell_angle_beta 90.000000
_cell_angle_gamma 90.000000
_cell_volume 6328.937767
_symmetry_space_group_name_H-M "C M M M"
_symmetry_group_IT_number 65
_symmetry_cell_setting 'orthorhombic'
loop_
_space_group_symop_operation_xyz
x,y,z
-x,-y,z
x,-y,-z
-x,y,-z
-x,-y,-z
x,y,-z
-x,y,z
x,-y,z
1/2+x,1/2+y,z
1/2-x,1/2-y,z
1/2+x,1/2-y,-z
1/2-x,1/2+y,-z
1/2-x,1/2-y,-z
1/2+x,1/2+y,-z
1/2-x,1/2+y,z
1/2+x,1/2-y,z
loop_
_atom_site_type_symbol
_atom_site_label
_atom_site_fract_x
_atom_site_fract_y
_atom_site_fract_z
Si Si1 0.826414 0.301382 0.937558
Si Si2 0.824369 0.500000 0.939489
Si Si3 0.172491 0.398583 0.439731
Si Si4 0.162573 0.058482 0.656199
Si Si5 0.674685 0.441816 0.773897
Si Si6 0.174989 0.598601 0.875472
Si Si7 0.163294 0.796623 0.436291
O O1 0.750000 0.250000 0.921924
O O2 0.784981 0.349914 0.903924
O O3 0.000000 0.295543 0.932994
O O4 0.793677 0.310128 0.000000
O O5 0.781537 0.449559 0.910066
O O6 0.000000 0.500000 0.940239
O O7 0.773416 0.500000 0.000000
O O8 0.213025 0.414154 0.500000
O O9 0.234837 0.431539 0.393037
O O10 0.243980 0.345584 0.429433
O O11 0.000000 0.395644 0.437717
O O12 0.212781 0.075776 0.714273
O O13 0.000000 0.077845 0.645270
O O14 0.150629 0.000000 0.662571
O O15 0.500000 0.439330 0.778133
O O16 0.715179 0.500000 0.780327
O O17 0.751516 0.410000 0.818793
O O18 0.000000 0.597871 0.870719
O O19 0.151762 0.789934 0.500000
O O20 0.250000 0.750000 0.414511
O O21 0.000000 0.800633 0.415642
#
# Coordination Sequence:
#
# PCOD9483622 Si02
#       7
#    16   8  16  16  16  16  16
#     4   9  18  32  49  71 100 135 175 213 247 290
#     4   9  16  26  43  71 105 133 156 191 242 295
#     4  10  20  32  47  71 101 128 157 198 248 298
#     4   9  19  35  52  69  92 127 167 202 242 296
#     4   9  18  33  51  71  97 127 160 201 249 299
#     4  10  18  29  49  75  99 128 167 207 247 296
#     4   9  16  27  45  68  94 124 156 189 228 280
#
# _framework density 16.432458
#
# number of rings (size 3 to 8) (size 9 to 14) (size 15 to 20)
#    0.000    2.692    0.769    2.308    0.000    6.462 
#    0.000    3.077    0.000    2.769    0.000    2.154 
#    0.000    0.000    0.000    0.000    0.000    0.000 
#
# Total GULP energy -289576.936171 kJ/mol
# GULP energy per Si atom -5568.787234 kJ/mol
# Density = 1.639506 g / cm^3
# Si number density = 16.432458 Si / 1000 Ang^3
#
#
#
# Elastic Constant Matrix: (Units=GPa)
#
#
# Indices 1 2 3 4 5 6 
#
# 1 42.2644 30.0686 46.9786 0.0000 0.0000 0.0000
# 2 30.0686 87.4646 58.5204 0.0000 0.0000 0.0000
# 3 46.9786 58.5204 116.3233 0.0000 0.0000 0.0000
# 4 0.0000 0.0000 0.0000 20.4723 0.0000 0.0000
# 5 0.0000 0.0000 0.0000 0.0000 19.9782 0.0000
# 6 0.0000 0.0000 0.0000 0.0000 0.0000 -0.1361
#
#
#
# Elastic Compliance Matrix: (Units=1/GPa)
#
#
# Indices 1 2 3 4 5 6 
#
# 1 0.044291 -0.004911 -0.015417 0.000000 0.000000 0.000000
# 2 -0.004911 0.017779 -0.006961 0.000000 0.000000 0.000000
# 3 -0.015417 -0.006961 0.018325 0.000000 0.000000 0.000000
# 4 0.000000 0.000000 0.000000 0.048847 0.000000 0.000000
# 5 0.000000 0.000000 0.000000 0.000000 0.050055 0.000000
# 6 0.000000 0.000000 0.000000 0.000000 0.000000 -7.347451
#
#
# Mechanical properties :
#
#
# Convention : Reuss Voigt Hill
#
# Bulk Modulus (GPa) = 38.73411 57.46529 48.09970
# Shear Modulus (GPa) = -0.70373 15.42852 7.36239
#
# Velocity S-wave (km/s) = -0.65512 3.06748 2.11899
# Velocity P-wave (km/s) = 4.80111 6.89873 5.94319
#
# Compressibility (1/GPa) = 0.02581704
#
# Stress axis : x y z
#
# Youngs Moduli (GPa) = 22.57797 56.24641 54.57100
#
# Poissons Ratio (x) = 0.27625 0.84130
# Poissons Ratio (y) = 0.11089 0.37985
# Poissons Ratio (z) = 0.34808 0.39152
#
# Static dielectric constant tensor:
#      x y z
#    x 1.552440 0.000000 0.000000 
#    y 0.000000 1.556520 0.000000 
#    z 0.000000 0.000000 1.555220 
# 
# From -- ./inp_files/68474.got.cif
#   From: 2010.05.17/outbox.cif.g08.bks.cpg/sg65_35_cif.got.tgz:68474.got - 2010.06.03 17:01:31.
