data_PCOD9483013
_publ_section_title
;
Structure prediction by ZEFSAII (Michael W. Deem and Ramdas Pophale) SiO2 
 PCOD9483013
Probable space group: C M M M
;
_chemical_formula_sum "Si O2"
_cell_formula_units_Z 82
_cell_length_a 24.566695
_cell_length_b 7.665793
_cell_length_c 21.197236
_cell_angle_alpha 90.000000
_cell_angle_beta 90.000000
_cell_angle_gamma 90.000000
_cell_volume 3991.931284
_symmetry_space_group_name_H-M "C M M M"
_symmetry_group_IT_number 65
_symmetry_cell_setting 'orthorhombic'
loop_
_space_group_symop_operation_xyz
x,y,z
-x,-y,z
x,-y,-z
-x,y,-z
-x,-y,-z
x,y,-z
-x,y,z
x,-y,z
1/2+x,1/2+y,z
1/2-x,1/2-y,z
1/2+x,1/2-y,-z
1/2-x,1/2+y,-z
1/2-x,1/2-y,-z
1/2+x,1/2+y,-z
1/2-x,1/2+y,z
1/2+x,1/2-y,z
loop_
_atom_site_type_symbol
_atom_site_label
_atom_site_fract_x
_atom_site_fract_y
_atom_site_fract_z
Si Si1 0.000000 0.000000 0.000000
Si Si2 0.813455 0.290793 0.741538
Si Si3 0.000000 0.306791 0.156845
Si Si4 0.395303 0.207207 0.363978
Si Si5 0.600134 0.211984 0.000000
Si Si6 0.936536 0.207444 0.500000
Si Si7 0.000000 0.188730 0.288754
Si Si8 0.119529 0.711366 0.136695
O O1 0.951771 0.157306 0.000000
O O2 0.818145 0.500000 0.742616
O O3 0.750000 0.250000 0.742326
O O4 0.843620 0.231005 0.677184
O O5 0.844320 0.224257 0.804748
O O6 0.057342 0.221285 0.141231
O O7 0.000000 0.321960 0.232116
O O8 0.000000 0.000000 0.257738
O O9 0.402724 0.241492 0.437890
O O10 0.447608 0.290881 0.331409
O O11 0.399300 0.000000 0.355458
O O12 0.634279 0.244787 0.935819
O O13 0.585986 0.000000 0.000000
O O14 0.000000 0.276198 0.500000
O O15 0.941397 0.000000 0.500000
O O16 0.000000 0.500000 0.127145
O O17 0.116858 0.500000 0.144502
#
# Coordination Sequence:
#
# PCOD9483013 Si02
#       8
#     2  16   8  16   8   8   8  16
#     4  12  22  36  56  94 132 164 218 234 316 392
#     4  10  22  41  63  88 114 153 208 261 305 356
#     4  10  17  32  55  81 114 152 195 238 291 368
#     4  11  22  39  61  84 117 160 201 234 287 362
#     4  10  21  39  58  83 129 173 205 254 309 373
#     4  11  23  37  58  93 131 152 185 235 290 350
#     4  12  22  32  51  88 124 152 188 242 305 349
#     4   9  18  36  61  84 115 161 204 241 304 370
#
# _framework density 20.541436000000001
#
# number of rings (size 3 to 8) (size 9 to 14) (size 15 to 20)
#    0.000    1.659    2.927    2.488    0.000    3.512 
#    5.268    0.976    0.000    0.000    0.000    0.000 
#    0.000    0.000    0.000    0.000    0.000    0.000 
#
# Total GULP energy -228364.926837 kJ/mol
# GULP energy per Si atom -5569.876264 kJ/mol
# Density = 2.049468 g / cm^3
# Si number density = 20.541436 Si / 1000 Ang^3
#
#
#
# Elastic Constant Matrix: (Units=GPa)
#
#
# Indices 1 2 3 4 5 6 
#
# 1 141.2954 6.6057 89.4531 0.0000 0.0000 0.0000
# 2 6.6057 77.9853 12.8023 0.0000 0.0000 0.0000
# 3 89.4531 12.8023 189.5675 0.0000 0.0000 0.0000
# 4 0.0000 0.0000 0.0000 3.6382 0.0000 0.0000
# 5 0.0000 0.0000 0.0000 0.0000 3.0590 0.0000
# 6 0.0000 0.0000 0.0000 0.0000 0.0000 25.3486
#
#
#
# Elastic Compliance Matrix: (Units=1/GPa)
#
#
# Indices 1 2 3 4 5 6 
#
# 1 0.010093 -0.000074 -0.004758 0.000000 0.000000 0.000000
# 2 -0.000074 0.012967 -0.000841 0.000000 0.000000 0.000000
# 3 -0.004758 -0.000841 0.007577 0.000000 0.000000 0.000000
# 4 0.000000 0.000000 0.000000 0.274861 0.000000 0.000000
# 5 0.000000 0.000000 0.000000 0.000000 0.326906 0.000000
# 6 0.000000 0.000000 0.000000 0.000000 0.000000 0.039450
#
#
# Mechanical properties :
#
#
# Convention : Reuss Voigt Hill
#
# Bulk Modulus (GPa) = 51.83414 69.61891 60.72653
# Shear Modulus (GPa) = 7.25027 26.40831 16.82929
#
# Velocity S-wave (km/s) = 1.88076 3.58943 2.86542
# Velocity P-wave (km/s) = 5.47769 7.15152 6.36982
#
# Compressibility (1/GPa) = 0.01929231
#
# Stress axis : x y z
#
# Youngs Moduli (GPa) = 99.08018 77.11753 131.97881
#
# Poissons Ratio (x) = 0.00570 0.62790
# Poissons Ratio (y) = 0.00732 0.11098
# Poissons Ratio (z) = 0.47139 0.06485
#
# Static dielectric constant tensor:
#      x y z
#    x 1.722850 0.000000 0.000000 
#    y 0.000000 1.810730 0.000000 
#    z 0.000000 0.000000 1.805600 
# 
# From -- ./inp_files/65139.got.cif
#   From: 2010.05.17/outbox.cif.g08.bks.cpg/sg65_33_cif.got.tgz:65139.got - 2010.06.03 17:01:31.
