data_PCOD9483198
_publ_section_title
;
Structure prediction by ZEFSAII (Michael W. Deem and Ramdas Pophale) SiO2 
 PCOD9483198
Probable space group: C M M M
;
_chemical_formula_sum "Si O2"
_cell_formula_units_Z 104
_cell_length_a 7.315109
_cell_length_b 28.160987
_cell_length_c 28.010995
_cell_angle_alpha 90.000000
_cell_angle_beta 90.000000
_cell_angle_gamma 90.000000
_cell_volume 5770.284282
_symmetry_space_group_name_H-M "C M M M"
_symmetry_group_IT_number 65
_symmetry_cell_setting 'orthorhombic'
loop_
_space_group_symop_operation_xyz
x,y,z
-x,-y,z
x,-y,-z
-x,y,-z
-x,-y,-z
x,y,-z
-x,y,z
x,-y,z
1/2+x,1/2+y,z
1/2-x,1/2-y,z
1/2+x,1/2-y,-z
1/2-x,1/2+y,-z
1/2-x,1/2-y,-z
1/2+x,1/2+y,-z
1/2-x,1/2+y,z
1/2+x,1/2-y,z
loop_
_atom_site_type_symbol
_atom_site_label
_atom_site_fract_x
_atom_site_fract_y
_atom_site_fract_z
Si Si1 0.277035 0.555409 0.344596
Si Si2 0.276847 0.649142 0.901030
Si Si3 0.722802 0.602546 0.247153
Si Si4 0.782834 0.195735 0.196369
Si Si5 0.277755 0.446696 0.148847
Si Si6 0.281834 0.693630 0.000000
Si Si7 0.720640 0.556573 0.448610
O O1 0.500000 0.556198 0.344807
O O2 0.225211 0.500000 0.340073
O O3 0.214865 0.583919 0.298267
O O4 0.216788 0.574135 0.396721
O O5 0.500000 0.649653 0.901845
O O6 0.216724 0.682370 0.856838
O O7 0.221810 0.595544 0.886854
O O8 0.212831 0.669174 0.951527
O O9 0.500000 0.601792 0.248438
O O10 0.783458 0.655512 0.232870
O O11 0.775342 0.569163 0.202464
O O12 0.750000 0.250000 0.208957
O O13 0.000000 0.189410 0.194456
O O14 0.500000 0.447021 0.148268
O O15 0.216293 0.500000 0.137826
O O16 0.250000 0.750000 0.000000
O O17 0.500000 0.686991 0.000000
O O18 0.786552 0.575553 0.500000
O O19 0.500000 0.561176 0.449000
O O20 0.759047 0.500000 0.448372
#
# Coordination Sequence:
#
# PCOD9483198 Si02
#       7
#    16  16  16  16  16   8  16
#     4   8  11  14  22  37  58  83 108 133 162 195
#     4   8  15  25  36  52  72  92 112 137 168 199
#     4   8  13  19  28  44  64  85 109 137 165 194
#     4   9  16  26  38  51  69  90 111 137 170 202
#     4   8  12  19  31  46  67  92 111 128 159 202
#     4  10  18  28  41  55  73  93 114 142 173 202
#     4   7   9  12  17  27  47  77 109 134 155 185
#
# _framework density 18.023375999999999
#
# number of rings (size 3 to 8) (size 9 to 14) (size 15 to 20)
#    0.000    3.846    0.000    4.154    0.000    1.846 
#    0.000    0.385    0.000    2.308    0.000    0.000 
#    0.000   22.154    0.000    0.462    0.000    1.077 
#
# Total GULP energy -289607.055535 kJ/mol
# GULP energy per Si atom -5569.366453 kJ/mol
# Density = 1.798235 g / cm^3
# Si number density = 18.023376 Si / 1000 Ang^3
#
#
#
# Elastic Constant Matrix: (Units=GPa)
#
#
# Indices 1 2 3 4 5 6 
#
# 1 69.7784 -0.2981 7.7624 0.0000 0.0000 0.0000
# 2 -0.2981 121.2180 87.1867 0.0000 0.0000 0.0000
# 3 7.7624 87.1867 200.3230 0.0000 0.0000 0.0000
# 4 0.0000 0.0000 0.0000 19.2200 0.0000 0.0000
# 5 0.0000 0.0000 0.0000 0.0000 -20.3474 0.0000
# 6 0.0000 0.0000 0.0000 0.0000 0.0000 -4.8863
#
#
#
# Elastic Compliance Matrix: (Units=1/GPa)
#
#
# Indices 1 2 3 4 5 6 
#
# 1 0.014427 0.000637 -0.000836 0.000000 0.000000 0.000000
# 2 0.000637 0.012037 -0.005264 0.000000 0.000000 0.000000
# 3 -0.000836 -0.005264 0.007315 0.000000 0.000000 0.000000
# 4 0.000000 0.000000 0.000000 0.052029 0.000000 0.000000
# 5 0.000000 0.000000 0.000000 0.000000 -0.049146 0.000000
# 6 0.000000 0.000000 0.000000 0.000000 0.000000 -0.204653
#
#
# Mechanical properties :
#
#
# Convention : Reuss Voigt Hill
#
# Bulk Modulus (GPa) = 43.75730 64.51350 54.13540
# Shear Modulus (GPa) = -33.45658 18.57514 -7.44072
#
# Velocity S-wave (km/s) = -4.31314 3.21380 -2.03404
# Velocity P-wave (km/s) = 0.68808 7.04581 4.95832
#
# Compressibility (1/GPa) = 0.02285333
#
# Stress axis : x y z
#
# Youngs Moduli (GPa) = 69.31529 83.07706 136.70151
#
# Poissons Ratio (x) = -0.05292 0.11432
# Poissons Ratio (y) = -0.04415 0.71954
# Poissons Ratio (z) = 0.05797 0.43728
#
# Static dielectric constant tensor:
#      x y z
#    x 1.760450 0.000000 0.000000 
#    y 0.000000 1.596620 0.000000 
#    z 0.000000 0.000000 1.639910 
# 
# From -- ./inp_files/76244.got.cif
#   From: 2010.05.17/outbox.cif.g08.bks.cpg/sg65_39_cif.got.tgz:76244.got - 2010.06.03 17:01:31.
