data_PCOD9483567
_publ_section_title
;
Structure prediction by ZEFSAII (Michael W. Deem and Ramdas Pophale) SiO2 
 PCOD9483567
Probable space group: C M M M
;
_chemical_formula_sum "Si O2"
_cell_formula_units_Z 72
_cell_length_a 21.874968
_cell_length_b 15.451558
_cell_length_c 10.105283
_cell_angle_alpha 90.000000
_cell_angle_beta 90.000000
_cell_angle_gamma 90.000000
_cell_volume 3415.609268
_symmetry_space_group_name_H-M "C M M M"
_symmetry_group_IT_number 65
_symmetry_cell_setting 'orthorhombic'
loop_
_space_group_symop_operation_xyz
x,y,z
-x,-y,z
x,-y,-z
-x,y,-z
-x,-y,-z
x,y,-z
-x,y,z
x,-y,z
1/2+x,1/2+y,z
1/2-x,1/2-y,z
1/2+x,1/2-y,-z
1/2-x,1/2+y,-z
1/2-x,1/2-y,-z
1/2+x,1/2+y,-z
1/2-x,1/2+y,z
1/2+x,1/2-y,z
loop_
_atom_site_type_symbol
_atom_site_label
_atom_site_fract_x
_atom_site_fract_y
_atom_site_fract_z
Si Si1 0.288631 0.162102 0.000000
Si Si2 0.397812 0.396785 0.500000
Si Si3 0.662499 0.101843 0.726704
Si Si4 0.432893 0.394253 0.216311
Si Si5 0.755660 0.853334 0.500000
Si Si6 0.342263 0.400513 0.000000
Si Si7 0.429773 0.893989 0.500000
O O1 0.250000 0.250000 0.000000
O O2 0.326443 0.149125 0.134382
O O3 0.230270 0.098570 0.000000
O O4 0.408795 0.500000 0.500000
O O5 0.425655 0.361523 0.365227
O O6 0.325579 0.381074 0.500000
O O7 0.721385 0.112078 0.630794
O O8 0.607307 0.133010 0.631737
O O9 0.653805 0.000000 0.755137
O O10 0.500000 0.371721 0.162743
O O11 0.430822 0.500000 0.223044
O O12 0.376190 0.362703 0.128273
O O13 0.750000 0.750000 0.500000
O O14 0.361510 0.500000 0.000000
O O15 0.500000 0.867218 0.500000
O O16 0.427485 0.000000 0.500000
#
# Coordination Sequence:
#
# PCOD9483567 Si02
#       7
#     8   8  16  16   8   8   8
#     4  12  24  37  54  82 118 151 185 234 289 338
#     4  10  18  29  48  72 100 134 174 218 265 320
#     4  10  20  36  59  84 113 147 188 235 282 343
#     4   9  17  29  47  72  98 127 170 221 262 303
#     4  11  21  34  53  79 112 147 186 235 291 343
#     4  10  19  32  52  72  97 136 178 214 256 320
#     4   8  16  34  62  91 113 140 184 239 295 348
#
# _framework density 21.079695999999998
#
# number of rings (size 3 to 8) (size 9 to 14) (size 15 to 20)
#    0.000    2.111    0.000    5.333    0.000    4.444 
#    0.000    0.556    0.000   16.000    0.000    0.000 
#    0.000    0.000    0.000    0.000    0.000    0.222 
#
# Total GULP energy -200933.231703 kJ/mol
# GULP energy per Si atom -5581.478658 kJ/mol
# Density = 2.103172 g / cm^3
# Si number density = 21.079696 Si / 1000 Ang^3
#
#
#
# Elastic Constant Matrix: (Units=GPa)
#
#
# Indices 1 2 3 4 5 6 
#
# 1 123.1246 -5.8794 66.2468 0.0000 0.0000 0.0000
# 2 -5.8794 51.1549 25.9002 0.0000 0.0000 0.0000
# 3 66.2468 25.9002 183.1503 0.0000 0.0000 0.0000
# 4 0.0000 0.0000 0.0000 -5.3789 0.0000 0.0000
# 5 0.0000 0.0000 0.0000 0.0000 -4.3613 0.0000
# 6 0.0000 0.0000 0.0000 0.0000 0.0000 4.3250
#
#
#
# Elastic Compliance Matrix: (Units=1/GPa)
#
#
# Indices 1 2 3 4 5 6 
#
# 1 0.010608 0.003406 -0.004319 0.000000 0.000000 0.000000
# 2 0.003406 0.022150 -0.004364 0.000000 0.000000 0.000000
# 3 -0.004319 -0.004364 0.007639 0.000000 0.000000 0.000000
# 4 0.000000 0.000000 0.000000 -0.185912 0.000000 0.000000
# 5 0.000000 0.000000 0.000000 0.000000 -0.229290 0.000000
# 6 0.000000 0.000000 0.000000 0.000000 0.000000 0.231214
#
#
# Mechanical properties :
#
#
# Convention : Reuss Voigt Hill
#
# Bulk Modulus (GPa) = 33.50888 58.88500 46.19694
# Shear Modulus (GPa) = -40.62080 16.99444 -11.81318
#
# Velocity S-wave (km/s) = -4.39454 2.84245 -2.36986
# Velocity P-wave (km/s) = 3.13344 6.22638 3.80456
#
# Compressibility (1/GPa) = 0.02984284
#
# Stress axis : x y z
#
# Youngs Moduli (GPa) = 94.26722 45.14766 130.90276
#
# Poissons Ratio (x) = -0.15376 0.56533
# Poissons Ratio (y) = -0.32106 0.57128
# Poissons Ratio (z) = 0.40711 0.19703
#
# Static dielectric constant tensor:
#      x y z
#    x 1.752340 0.000000 0.000000 
#    y 0.000000 1.518140 0.000000 
#    z 0.000000 0.000000 1.775800 
# 
# From -- ./inp_files/13677.got.cif
#   From: 2010.05.17/outbox.cif.g08.bks.cpg/sg65_7_cif.got.tgz:13677.got - 2010.06.03 17:01:31.
