data_PCOD9483337
_publ_section_title
;
Structure prediction by ZEFSAII (Michael W. Deem and Ramdas Pophale) SiO2 
 PCOD9483337
Probable space group: C M M M
;
_chemical_formula_sum "Si O2"
_cell_formula_units_Z 64
_cell_length_a 7.333456
_cell_length_b 28.757837
_cell_length_c 14.570620
_cell_angle_alpha 90.000000
_cell_angle_beta 90.000000
_cell_angle_gamma 90.000000
_cell_volume 3072.861176
_symmetry_space_group_name_H-M "C M M M"
_symmetry_group_IT_number 65
_symmetry_cell_setting 'orthorhombic'
loop_
_space_group_symop_operation_xyz
x,y,z
-x,-y,z
x,-y,-z
-x,y,-z
-x,-y,-z
x,y,-z
-x,y,z
x,-y,z
1/2+x,1/2+y,z
1/2-x,1/2-y,z
1/2+x,1/2-y,-z
1/2-x,1/2+y,-z
1/2-x,1/2-y,-z
1/2+x,1/2+y,-z
1/2-x,1/2+y,z
1/2+x,1/2-y,z
loop_
_atom_site_type_symbol
_atom_site_label
_atom_site_fract_x
_atom_site_fract_y
_atom_site_fract_z
Si Si1 0.282132 0.304982 0.602433
Si Si2 0.721945 0.448137 0.107396
Si Si3 0.796593 0.873667 0.752975
Si Si4 0.719933 0.053569 0.603038
O O1 0.213556 0.318965 0.500000
O O2 0.500000 0.313104 0.601628
O O3 0.250000 0.250000 0.610929
O O4 0.210602 0.332408 0.691804
O O5 0.500000 0.447731 0.114236
O O6 0.780312 0.500000 0.140778
O O7 0.787983 0.402941 0.163070
O O8 0.768379 0.445151 0.000000
O O9 0.807364 0.913911 0.676967
O O10 0.000000 0.858276 0.782055
O O11 0.771670 0.067015 0.500000
O O12 0.500000 0.057121 0.610132
O O13 0.768850 0.000000 0.616604
#
# Coordination Sequence:
#
# PCOD9483337 Si02
#       4
#    16  16  16  16
#     4   9  18  31  45  63  87 113 144 183 225 269
#     4   8  14  25  42  66  94 119 143 175 218 266
#     4  10  18  28  46  69  88 110 147 192 227 254
#     4   9  18  30  41  58  89 124 150 172 208 264
#
# _framework density 20.827494000000002
#
# number of rings (size 3 to 8) (size 9 to 14) (size 15 to 20)
#    0.000    3.000    0.000    3.000    0.000    4.000 
#    0.000    3.750    0.000    1.500    0.000    3.500 
#    0.000    0.000    0.000    0.000    0.000    0.000 
#
# Total GULP energy -178384.523721 kJ/mol
# GULP energy per Si atom -5574.516366 kJ/mol
# Density = 2.078009 g / cm^3
# Si number density = 20.827494 Si / 1000 Ang^3
#
#
#
# Elastic Constant Matrix: (Units=GPa)
#
#
# Indices 1 2 3 4 5 6 
#
# 1 78.6340 -0.9811 0.7413 0.0000 0.0000 0.0000
# 2 -0.9811 106.2524 63.5266 0.0000 0.0000 0.0000
# 3 0.7413 63.5266 92.4189 0.0000 0.0000 0.0000
# 4 0.0000 0.0000 0.0000 45.7210 0.0000 0.0000
# 5 0.0000 0.0000 0.0000 0.0000 32.3783 0.0000
# 6 0.0000 0.0000 0.0000 0.0000 0.0000 11.1270
#
#
#
# Elastic Compliance Matrix: (Units=1/GPa)
#
#
# Indices 1 2 3 4 5 6 
#
# 1 0.012724 0.000303 -0.000310 0.000000 0.000000 0.000000
# 2 0.000303 0.015985 -0.010990 0.000000 0.000000 0.000000
# 3 -0.000310 -0.010990 0.018377 0.000000 0.000000 0.000000
# 4 0.000000 0.000000 0.000000 0.021872 0.000000 0.000000
# 5 0.000000 0.000000 0.000000 0.000000 0.030885 0.000000
# 6 0.000000 0.000000 0.000000 0.000000 0.000000 0.089871
#
#
# Mechanical properties :
#
#
# Convention : Reuss Voigt Hill
#
# Bulk Modulus (GPa) = 39.85475 44.87544 42.36510
# Shear Modulus (GPa) = 22.71969 32.11316 27.41642
#
# Velocity S-wave (km/s) = 3.30639 3.93092 3.63210
# Velocity P-wave (km/s) = 5.80977 6.49583 6.16236
#
# Compressibility (1/GPa) = 0.02509111
#
# Stress axis : x y z
#
# Youngs Moduli (GPa) = 78.59253 62.55754 54.41504
#
# Poissons Ratio (x) = -0.01896 0.01689
# Poissons Ratio (y) = -0.02382 0.59804
# Poissons Ratio (z) = 0.02439 0.68753
#
# Static dielectric constant tensor:
#      x y z
#    x 1.496110 0.000000 0.000000 
#    y 0.000000 1.753780 0.000000 
#    z 0.000000 0.000000 1.767170 
# 
# From -- ./inp_files/22186.got.cif
#   From: 2010.05.17/outbox.cif.g08.bks.cpg/sg65_12_cif.got.tgz:22186.got - 2010.06.03 17:01:31.
