data_PCOD9483391
_publ_section_title
;
Structure prediction by ZEFSAII (Michael W. Deem and Ramdas Pophale) SiO2 
 PCOD9483391
Probable space group: C M M M
;
_chemical_formula_sum "Si O2"
_cell_formula_units_Z 80
_cell_length_a 27.008359
_cell_length_b 9.433962
_cell_length_c 15.154132
_cell_angle_alpha 90.000000
_cell_angle_beta 90.000000
_cell_angle_gamma 90.000000
_cell_volume 3861.209679
_symmetry_space_group_name_H-M "C M M M"
_symmetry_group_IT_number 65
_symmetry_cell_setting 'orthorhombic'
loop_
_space_group_symop_operation_xyz
x,y,z
-x,-y,z
x,-y,-z
-x,y,-z
-x,-y,-z
x,y,-z
-x,y,z
x,-y,z
1/2+x,1/2+y,z
1/2-x,1/2-y,z
1/2+x,1/2-y,-z
1/2-x,1/2+y,-z
1/2-x,1/2-y,-z
1/2+x,1/2+y,-z
1/2-x,1/2+y,z
1/2+x,1/2-y,z
loop_
_atom_site_type_symbol
_atom_site_label
_atom_site_fract_x
_atom_site_fract_y
_atom_site_fract_z
Si Si1 0.203441 0.159264 0.605937
Si Si2 0.595999 0.836491 0.144578
Si Si3 0.392838 0.840657 0.643477
Si Si4 0.204874 0.341099 0.104948
Si Si5 0.000000 0.830063 0.156624
Si Si6 0.500000 0.170469 0.656376
O O1 0.208689 0.150901 0.500000
O O2 0.250000 0.250000 0.639421
O O3 0.151355 0.235267 0.623225
O O4 0.204006 0.000000 0.642054
O O5 0.598947 0.841899 0.250915
O O6 0.649800 0.781113 0.116422
O O7 0.549846 0.739894 0.117608
O O8 0.589984 0.000000 0.113411
O O9 0.447810 0.806026 0.607895
O O10 0.378991 0.000000 0.615105
O O11 0.204473 0.500000 0.143435
O O12 0.250000 0.250000 0.141545
O O13 0.212741 0.353243 0.000000
O O14 0.000000 0.772458 0.258102
O O15 0.000000 0.000000 0.152070
O O16 0.500000 0.000000 0.681616
#
# Coordination Sequence:
#
# PCOD9483391 Si02
#       6
#    16  16  16  16   8   8
#     4  10  21  36  52  70  95 128 163 200 243 288
#     4   9  18  33  51  72 100 131 162 197 239 289
#     4   9  17  31  52  75  98 126 160 198 238 283
#     4   9  18  33  52  72  96 129 165 200 242 290
#     4  10  18  28  47  74  99 127 163 201 243 284
#     4   8  16  32  51  72 101 133 159 189 237 290
#
# _framework density 20.718895
#
# number of rings (size 3 to 8) (size 9 to 14) (size 15 to 20)
#    0.000    2.800    0.000    2.700    0.000    6.000 
#    0.000    3.000    0.000    6.000    0.000    0.000 
#    0.000    0.000    0.000    0.000    0.000    0.000 
#
# Total GULP energy -223042.009641 kJ/mol
# GULP energy per Si atom -5576.050241 kJ/mol
# Density = 2.067174 g / cm^3
# Si number density = 20.718895 Si / 1000 Ang^3
#
#
#
# Elastic Constant Matrix: (Units=GPa)
#
#
# Indices 1 2 3 4 5 6 
#
# 1 231.3235 126.7947 0.6582 0.0000 0.0000 0.0000
# 2 126.7947 137.4616 1.4341 0.0000 0.0000 0.0000
# 3 0.6582 1.4341 28.6971 0.0000 0.0000 0.0000
# 4 0.0000 0.0000 0.0000 8.2312 0.0000 0.0000
# 5 0.0000 0.0000 0.0000 0.0000 28.9377 0.0000
# 6 0.0000 0.0000 0.0000 0.0000 0.0000 37.3015
#
#
#
# Elastic Compliance Matrix: (Units=1/GPa)
#
#
# Indices 1 2 3 4 5 6 
#
# 1 0.008745 -0.008068 0.000203 0.000000 0.000000 0.000000
# 2 -0.008068 0.014723 -0.000551 0.000000 0.000000 0.000000
# 3 0.000203 -0.000551 0.034870 0.000000 0.000000 0.000000
# 4 0.000000 0.000000 0.000000 0.121489 0.000000 0.000000
# 5 0.000000 0.000000 0.000000 0.000000 0.034557 0.000000
# 6 0.000000 0.000000 0.000000 0.000000 0.000000 0.026809
#
#
# Mechanical properties :
#
#
# Convention : Reuss Voigt Hill
#
# Bulk Modulus (GPa) = 24.09384 72.80622 48.45003
# Shear Modulus (GPa) = 18.39188 32.80045 25.59616
#
# Velocity S-wave (km/s) = 2.98264 3.98316 3.51864
# Velocity P-wave (km/s) = 4.84930 7.50802 6.32005
#
# Compressibility (1/GPa) = 0.04150438
#
# Stress axis : x y z
#
# Youngs Moduli (GPa) = 114.35262 67.92184 28.67826
#
# Poissons Ratio (x) = 0.54802 -0.00581
# Poissons Ratio (y) = 0.92264 0.01579
# Poissons Ratio (z) = -0.02317 0.03741
#
# Static dielectric constant tensor:
#      x y z
#    x 1.768220 0.000000 0.000000 
#    y 0.000000 1.730110 0.000000 
#    z 0.000000 0.000000 1.783470 
# 
# From -- ./inp_files/57274.got.cif
#   From: 2010.05.17/outbox.cif.g08.bks.cpg/sg65_29_cif.got.tgz:57274.got - 2010.06.03 17:01:31.
