data_PCOD9483607
_publ_section_title
;
Structure prediction by ZEFSAII (Michael W. Deem and Ramdas Pophale) SiO2 
 PCOD9483607
Probable space group: C M M M
;
_chemical_formula_sum "Si O2"
_cell_formula_units_Z 88
_cell_length_a 8.698365
_cell_length_b 18.560334
_cell_length_c 29.662315
_cell_angle_alpha 90.000000
_cell_angle_beta 90.000000
_cell_angle_gamma 90.000000
_cell_volume 4788.819383
_symmetry_space_group_name_H-M "C M M M"
_symmetry_group_IT_number 65
_symmetry_cell_setting 'orthorhombic'
loop_
_space_group_symop_operation_xyz
x,y,z
-x,-y,z
x,-y,-z
-x,y,-z
-x,-y,-z
x,y,-z
-x,y,z
x,-y,z
1/2+x,1/2+y,z
1/2-x,1/2-y,z
1/2+x,1/2-y,-z
1/2-x,1/2+y,-z
1/2-x,1/2-y,-z
1/2+x,1/2+y,-z
1/2-x,1/2+y,z
1/2+x,1/2-y,z
loop_
_atom_site_type_symbol
_atom_site_label
_atom_site_fract_x
_atom_site_fract_y
_atom_site_fract_z
Si Si1 0.187294 0.582516 0.268893
Si Si2 0.815658 0.831547 0.549234
Si Si3 0.684679 0.168923 0.642067
Si Si4 0.822322 0.412455 0.000000
Si Si5 0.684534 0.169806 0.180155
Si Si6 0.183537 0.915092 0.904664
O O1 0.240056 0.500000 0.267599
O O2 0.233614 0.622716 0.314700
O O3 0.236283 0.625937 0.224547
O O4 0.000000 0.581750 0.268666
O O5 0.777541 0.864124 0.500000
O O6 0.750000 0.750000 0.548224
O O7 0.745196 0.863453 0.594801
O O8 0.000000 0.828661 0.553179
O O9 0.500000 0.172670 0.640543
O O10 0.750000 0.250000 0.646476
O O11 0.741340 0.389736 0.953732
O O12 0.816294 0.500000 0.000000
O O13 0.000000 0.390531 0.000000
O O14 0.500000 0.172324 0.180140
O O15 0.750000 0.250000 0.181603
O O16 0.741239 0.129248 0.135545
O O17 0.000000 0.908994 0.902638
O O18 0.224230 0.000000 0.899903
#
# Coordination Sequence:
#
# PCOD9483607 Si02
#       6
#    16  16  16   8  16  16
#     4   9  19  35  54  76 101 132 171 213 257 307
#     4   9  16  26  42  66  97 130 164 203 246 295
#     4  10  18  29  49  74 101 131 164 207 254 301
#     4   9  17  31  54  83 112 145 184 219 257 309
#     4  11  22  37  57  79 107 141 177 218 265 317
#     4  10  20  35  56  83 114 145 180 222 264 307
#
# _framework density 18.376138000000001
#
# number of rings (size 3 to 8) (size 9 to 14) (size 15 to 20)
#    0.000    2.273    0.000    4.636    0.000    4.000 
#    0.000    3.182    0.000    7.091    0.000    3.818 
#    0.000    0.000    0.000    0.000    0.000    0.000 
#
# Total GULP energy -245474.522378 kJ/mol
# GULP energy per Si atom -5578.966418 kJ/mol
# Density = 1.833431 g / cm^3
# Si number density = 18.376138 Si / 1000 Ang^3
#
#
#
# Elastic Constant Matrix: (Units=GPa)
#
#
# Indices 1 2 3 4 5 6 
#
# 1 59.0518 36.2329 57.9767 0.0000 0.0000 0.0000
# 2 36.2329 91.1510 90.0374 0.0000 0.0000 0.0000
# 3 57.9767 90.0374 228.9635 0.0000 0.0000 0.0000
# 4 0.0000 0.0000 0.0000 14.9550 0.0000 0.0000
# 5 0.0000 0.0000 0.0000 0.0000 24.1879 0.0000
# 6 0.0000 0.0000 0.0000 0.0000 0.0000 16.0635
#
#
#
# Elastic Compliance Matrix: (Units=1/GPa)
#
#
# Indices 1 2 3 4 5 6 
#
# 1 0.024311 -0.005859 -0.003852 0.000000 0.000000 0.000000
# 2 -0.005859 0.019351 -0.006126 0.000000 0.000000 0.000000
# 3 -0.003852 -0.006126 0.007752 0.000000 0.000000 0.000000
# 4 0.000000 0.000000 0.000000 0.066867 0.000000 0.000000
# 5 0.000000 0.000000 0.000000 0.000000 0.041343 0.000000
# 6 0.000000 0.000000 0.000000 0.000000 0.000000 0.062253
#
#
# Mechanical properties :
#
#
# Convention : Reuss Voigt Hill
#
# Bulk Modulus (GPa) = 50.65813 83.07337 66.86575
# Shear Modulus (GPa) = 19.22115 24.03592 21.62853
#
# Velocity S-wave (km/s) = 3.23768 3.62055 3.43445
# Velocity P-wave (km/s) = 6.45011 7.92358 7.22451
#
# Compressibility (1/GPa) = 0.01974017
#
# Stress axis : x y z
#
# Youngs Moduli (GPa) = 41.13375 51.67739 129.00145
#
# Poissons Ratio (x) = 0.30277 0.49691
# Poissons Ratio (y) = 0.24099 0.79026
# Poissons Ratio (z) = 0.15845 0.31657
#
# Static dielectric constant tensor:
#      x y z
#    x 4.037430 0.000000 0.000000 
#    y 0.000000 1.609330 0.000000 
#    z 0.000000 0.000000 1.651460 
# 
# From -- ./inp_files/76451.got.cif
#   From: 2010.05.17/outbox.cif.g08.bks.cpg/sg65_39_cif.got.tgz:76451.got - 2010.06.03 17:01:31.
