data_PCOD9483893
_publ_section_title
;
Structure prediction by ZEFSAII (Michael W. Deem and Ramdas Pophale) SiO2 
 PCOD9483893
Probable space group: C M M M
;
_chemical_formula_sum "Si O2"
_cell_formula_units_Z 104
_cell_length_a 8.928770
_cell_length_b 29.990020
_cell_length_c 23.768340
_cell_angle_alpha 90.000000
_cell_angle_beta 90.000000
_cell_angle_gamma 90.000000
_cell_volume 6364.543258
_symmetry_space_group_name_H-M "C M M M"
_symmetry_group_IT_number 65
_symmetry_cell_setting 'orthorhombic'
loop_
_space_group_symop_operation_xyz
x,y,z
-x,-y,z
x,-y,-z
-x,y,-z
-x,-y,-z
x,y,-z
-x,y,z
x,-y,z
1/2+x,1/2+y,z
1/2-x,1/2-y,z
1/2+x,1/2-y,-z
1/2-x,1/2+y,-z
1/2-x,1/2-y,-z
1/2+x,1/2+y,-z
1/2-x,1/2+y,z
1/2+x,1/2-y,z
loop_
_atom_site_type_symbol
_atom_site_label
_atom_site_fract_x
_atom_site_fract_y
_atom_site_fract_z
Si Si1 0.179496 0.052210 0.332584
Si Si2 0.180417 0.448204 0.213833
Si Si3 0.681450 0.888852 0.107228
Si Si4 0.680471 0.612206 0.564048
Si Si5 0.317940 0.948629 0.000000
Si Si6 0.669903 0.794482 0.568186
Si Si7 0.178990 0.202309 0.933116
O O1 0.254712 0.065941 0.274065
O O2 0.231284 0.078540 0.387716
O O3 0.000000 0.057682 0.327600
O O4 0.211208 0.000000 0.340304
O O5 0.226775 0.500000 0.202938
O O6 0.225242 0.414842 0.164041
O O7 0.000000 0.448171 0.216261
O O8 0.500000 0.884643 0.106227
O O9 0.726191 0.920714 0.055043
O O10 0.752488 0.840220 0.098785
O O11 0.731717 0.601944 0.500000
O O12 0.500000 0.611922 0.562948
O O13 0.737516 0.661179 0.579869
O O14 0.500000 0.950349 0.000000
O O15 0.265431 0.000000 0.000000
O O16 0.664347 0.791177 0.500000
O O17 0.500000 0.797868 0.588581
O O18 0.750000 0.750000 0.589304
O O19 0.250000 0.250000 0.916577
O O20 0.000000 0.203859 0.926113
O O21 0.211548 0.196194 0.000000
#
# Coordination Sequence:
#
# PCOD9483893 Si02
#       7
#    16  16  16  16   8  16  16
#     4   9  18  32  49  69  94 127 165 201 240 286
#     4   9  18  32  50  72  97 128 166 202 236 283
#     4  10  18  30  50  74  99 128 163 201 242 283
#     4   9  17  29  46  69  96 124 157 199 244 289
#     4   9  16  26  44  71 100 127 156 193 234 277
#     4   9  16  26  42  65  93 123 153 185 226 279
#     4  10  20  33  50  72 100 131 165 202 243 291
#
# _framework density 16.340527999999999
#
# number of rings (size 3 to 8) (size 9 to 14) (size 15 to 20)
#    0.000    2.692    0.769    1.385    0.000    5.846 
#    0.000    1.538    0.000    2.769    0.000   10.769 
#    0.000    0.000    0.000    0.000    0.000    0.000 
#
# Total GULP energy -289740.783670 kJ/mol
# GULP energy per Si atom -5571.938147 kJ/mol
# Density = 1.630334 g / cm^3
# Si number density = 16.340528 Si / 1000 Ang^3
#
#
#
# Elastic Constant Matrix: (Units=GPa)
#
#
# Indices 1 2 3 4 5 6 
#
# 1 17.6910 32.1600 31.7723 0.0000 0.0000 0.0000
# 2 32.1600 129.7586 89.2095 0.0000 0.0000 0.0000
# 3 31.7723 89.2095 122.3579 0.0000 0.0000 0.0000
# 4 0.0000 0.0000 0.0000 9.3377 0.0000 0.0000
# 5 0.0000 0.0000 0.0000 0.0000 21.5691 0.0000
# 6 0.0000 0.0000 0.0000 0.0000 0.0000 25.4083
#
#
#
# Elastic Compliance Matrix: (Units=1/GPa)
#
#
# Indices 1 2 3 4 5 6 
#
# 1 0.122093 -0.016970 -0.019331 0.000000 0.000000 0.000000
# 2 -0.016970 0.017811 -0.008579 0.000000 0.000000 0.000000
# 3 -0.019331 -0.008579 0.019447 0.000000 0.000000 0.000000
# 4 0.000000 0.000000 0.000000 0.107093 0.000000 0.000000
# 5 0.000000 0.000000 0.000000 0.000000 0.046363 0.000000
# 6 0.000000 0.000000 0.000000 0.000000 0.000000 0.039357
#
#
# Mechanical properties :
#
#
# Convention : Reuss Voigt Hill
#
# Bulk Modulus (GPa) = 14.36970 64.01009 39.18989
# Shear Modulus (GPa) = 10.74992 19.04073 14.89533
#
# Velocity S-wave (km/s) = 2.56768 3.41727 3.02248
# Velocity P-wave (km/s) = 4.19567 7.40459 6.01796
#
# Compressibility (1/GPa) = 0.06959089
#
# Stress axis : x y z
#
# Youngs Moduli (GPa) = 8.19050 56.14645 51.42166
#
# Poissons Ratio (x) = 0.95281 0.99402
# Poissons Ratio (y) = 0.13899 0.44114
# Poissons Ratio (z) = 0.15833 0.48167
#
# Static dielectric constant tensor:
#      x y z
#    x 1.554270 0.000000 0.000000 
#    y 0.000000 1.535250 0.000000 
#    z 0.000000 0.000000 1.538440 
# 
# From -- ./inp_files/66390.got.cif
#   From: 2010.05.17/outbox.cif.g08.bks.cpg/sg65_34_cif.got.tgz:66390.got - 2010.06.03 17:01:31.
