data_PCOD9483967
_publ_section_title
;
Structure prediction by ZEFSAII (Michael W. Deem and Ramdas Pophale) SiO2 
 PCOD9483967
Probable space group: C M M M
;
_chemical_formula_sum "Si O2"
_cell_formula_units_Z 72
_cell_length_a 34.508595
_cell_length_b 7.658111
_cell_length_c 13.119847
_cell_angle_alpha 90.000000
_cell_angle_beta 90.000000
_cell_angle_gamma 90.000000
_cell_volume 3467.190507
_symmetry_space_group_name_H-M "C M M M"
_symmetry_group_IT_number 65
_symmetry_cell_setting 'orthorhombic'
loop_
_space_group_symop_operation_xyz
x,y,z
-x,-y,z
x,-y,-z
-x,y,-z
-x,-y,-z
x,y,-z
-x,y,z
x,-y,z
1/2+x,1/2+y,z
1/2-x,1/2-y,z
1/2+x,1/2-y,-z
1/2-x,1/2+y,-z
1/2-x,1/2-y,-z
1/2+x,1/2+y,-z
1/2-x,1/2+y,z
1/2+x,1/2-y,z
loop_
_atom_site_type_symbol
_atom_site_label
_atom_site_fract_x
_atom_site_fract_y
_atom_site_fract_z
Si Si1 0.394483 0.205304 0.164849
Si Si2 0.044067 0.713250 0.000000
Si Si3 0.808276 0.797241 0.110159
Si Si4 0.791382 0.790476 0.329912
Si Si5 0.376593 0.711276 0.389620
O O1 0.431001 0.266389 0.098970
O O2 0.354730 0.292750 0.126946
O O3 0.397459 0.230765 0.286232
O O4 0.389408 0.000000 0.144485
O O5 0.042611 0.500000 0.000000
O O6 0.000000 0.776023 0.000000
O O7 0.791786 0.717468 0.213993
O O8 0.796378 0.000000 0.107355
O O9 0.798827 0.717930 0.000000
O O10 0.750000 0.750000 0.377986
O O11 0.831473 0.730882 0.380120
O O12 0.794473 0.000000 0.325249
O O13 0.391807 0.769122 0.500000
O O14 0.376963 0.500000 0.388381
#
# Coordination Sequence:
#
# PCOD9483967 Si02
#       5
#    16   8  16  16  16
#     4  10  18  30  51  78 103 127 163 205 240 283
#     4   9  18  32  51  79 114 141 154 181 240 299
#     4   9  17  30  47  64  91 132 169 200 244 298
#     4   9  18  30  43  64  92 125 163 205 253 299
#     4   9  19  36  54  70  94 132 171 206 252 301
#
# _framework density 20.766092
#
# number of rings (size 3 to 8) (size 9 to 14) (size 15 to 20)
#    0.000    2.778    1.111    2.000    0.000    4.889 
#    0.000    0.000    0.000    6.000    0.000    4.667 
#    0.000    0.000    0.000    0.000    0.000    0.000 
#
# Total GULP energy -200796.053329 kJ/mol
# GULP energy per Si atom -5577.668148 kJ/mol
# Density = 2.071883 g / cm^3
# Si number density = 20.766092 Si / 1000 Ang^3
#
#
#
# Elastic Constant Matrix: (Units=GPa)
#
#
# Indices 1 2 3 4 5 6 
#
# 1 110.9508 -5.8890 43.2273 0.0000 0.0000 0.0000
# 2 -5.8890 44.0063 1.9026 0.0000 0.0000 0.0000
# 3 43.2273 1.9026 159.3854 0.0000 0.0000 0.0000
# 4 0.0000 0.0000 0.0000 10.1618 0.0000 0.0000
# 5 0.0000 0.0000 0.0000 0.0000 41.3569 0.0000
# 6 0.0000 0.0000 0.0000 0.0000 0.0000 14.6168
#
#
#
# Elastic Compliance Matrix: (Units=1/GPa)
#
#
# Indices 1 2 3 4 5 6 
#
# 1 0.010174 0.001481 -0.002777 0.000000 0.000000 0.000000
# 2 0.001481 0.022952 -0.000676 0.000000 0.000000 0.000000
# 3 -0.002777 -0.000676 0.007035 0.000000 0.000000 0.000000
# 4 0.000000 0.000000 0.000000 0.098408 0.000000 0.000000
# 5 0.000000 0.000000 0.000000 0.000000 0.024180 0.000000
# 6 0.000000 0.000000 0.000000 0.000000 0.000000 0.068414
#
#
# Mechanical properties :
#
#
# Convention : Reuss Voigt Hill
#
# Bulk Modulus (GPa) = 27.61055 43.64714 35.62884
# Shear Modulus (GPa) = 20.22839 31.56721 25.89780
#
# Velocity S-wave (km/s) = 3.12445 3.90312 3.53529
# Velocity P-wave (km/s) = 5.13236 6.43246 5.81883
#
# Compressibility (1/GPa) = 0.03621804
#
# Stress axis : x y z
#
# Youngs Moduli (GPa) = 98.29434 43.57011 142.14060
#
# Poissons Ratio (x) = -0.06455 0.39471
# Poissons Ratio (y) = -0.14562 0.09605
# Poissons Ratio (z) = 0.27295 0.02944
#
# Static dielectric constant tensor:
#      x y z
#    x 1.711830 0.000000 0.000000 
#    y 0.000000 1.914880 0.000000 
#    z 0.000000 0.000000 1.803500 
# 
# From -- ./inp_files/46501.got.cif
#   From: 2010.05.17/outbox.cif.g08.bks.cpg/sg65_24_cif.got.tgz:46501.got - 2010.06.03 17:01:31.
