data_PCOD9483027
_publ_section_title
;
Structure prediction by ZEFSAII (Michael W. Deem and Ramdas Pophale) SiO2 
 PCOD9483027
Probable space group: C M M M
;
_chemical_formula_sum "Si O2"
_cell_formula_units_Z 88
_cell_length_a 7.623689
_cell_length_b 24.491320
_cell_length_c 21.851958
_cell_angle_alpha 90.000000
_cell_angle_beta 90.000000
_cell_angle_gamma 90.000000
_cell_volume 4080.071007
_symmetry_space_group_name_H-M "C M M M"
_symmetry_group_IT_number 65
_symmetry_cell_setting 'orthorhombic'
loop_
_space_group_symop_operation_xyz
x,y,z
-x,-y,z
x,-y,-z
-x,y,-z
-x,-y,-z
x,y,-z
-x,y,z
x,-y,z
1/2+x,1/2+y,z
1/2-x,1/2-y,z
1/2+x,1/2-y,-z
1/2-x,1/2+y,-z
1/2-x,1/2-y,-z
1/2+x,1/2+y,-z
1/2-x,1/2+y,z
1/2+x,1/2-y,z
loop_
_atom_site_type_symbol
_atom_site_label
_atom_site_fract_x
_atom_site_fract_y
_atom_site_fract_z
Si Si1 0.295370 0.000000 0.250559
Si Si2 0.288024 0.381394 0.801193
Si Si3 0.702109 0.500000 0.609416
Si Si4 0.701533 0.621720 0.931478
Si Si5 0.284874 0.381983 0.568599
Si Si6 0.789620 0.813621 0.684481
Si Si7 0.304444 0.000000 0.927665
O O1 0.251941 0.944717 0.214028
O O2 0.204250 0.000000 0.316821
O O3 0.500000 0.000000 0.263866
O O4 0.500000 0.377240 0.804233
O O5 0.218801 0.359342 0.866862
O O6 0.223137 0.345960 0.743986
O O7 0.500000 0.500000 0.588720
O O8 0.777004 0.556779 0.584921
O O9 0.500000 0.640120 0.934898
O O10 0.705025 0.556445 0.918782
O O11 0.778828 0.631090 0.000000
O O12 0.231720 0.366830 0.500000
O O13 0.500000 0.382282 0.569913
O O14 0.224997 0.341515 0.622002
O O15 0.750000 0.750000 0.687095
O O16 0.000000 0.820298 0.684904
O O17 0.500000 0.000000 0.898459
O O18 0.331207 0.000000 0.000000
#
# Coordination Sequence:
#
# PCOD9483027 Si02
#       7
#     8  16   8  16  16  16   8
#     4  12  23  32  50  81 112 140 175 218 261 306
#     4  10  20  36  55  75 103 141 178 213 260 318
#     4  10  17  33  57  80 110 143 175 211 254 309
#     4   9  17  29  47  70  95 126 168 214 255 301
#     4   9  17  31  56  86 109 135 174 213 252 306
#     4  10  21  37  56  77 103 137 178 222 264 307
#     4   9  16  25  38  61  98 137 164 191 240 304
#
# _framework density 21.568252000000001
#
# number of rings (size 3 to 8) (size 9 to 14) (size 15 to 20)
#    0.000    2.273    1.818    1.909    0.000    6.182 
#    0.000    0.000    0.000    2.727    0.000    0.000 
#    0.000    0.000    0.000    0.000    0.000    0.000 
#
# Total GULP energy -245358.602983 kJ/mol
# GULP energy per Si atom -5576.331886 kJ/mol
# Density = 2.151916 g / cm^3
# Si number density = 21.568252 Si / 1000 Ang^3
#
#
#
# Elastic Constant Matrix: (Units=GPa)
#
#
# Indices 1 2 3 4 5 6 
#
# 1 51.6748 -3.0197 3.5897 0.0000 0.0000 0.0000
# 2 -3.0197 108.4166 86.9671 0.0000 0.0000 0.0000
# 3 3.5897 86.9671 238.1513 0.0000 0.0000 0.0000
# 4 0.0000 0.0000 0.0000 -2.7438 0.0000 0.0000
# 5 0.0000 0.0000 0.0000 0.0000 -4.6761 0.0000
# 6 0.0000 0.0000 0.0000 0.0000 0.0000 11.1099
#
#
#
# Elastic Compliance Matrix: (Units=1/GPa)
#
#
# Indices 1 2 3 4 5 6 
#
# 1 0.019464 0.001100 -0.000695 0.000000 0.000000 0.000000
# 2 0.001100 0.013107 -0.004803 0.000000 0.000000 0.000000
# 3 -0.000695 -0.004803 0.005963 0.000000 0.000000 0.000000
# 4 0.000000 0.000000 0.000000 -0.364456 0.000000 0.000000
# 5 0.000000 0.000000 0.000000 0.000000 -0.213851 0.000000
# 6 0.000000 0.000000 0.000000 0.000000 0.000000 0.090010
#
#
# Mechanical properties :
#
#
# Convention : Reuss Voigt Hill
#
# Bulk Modulus (GPa) = 33.62682 63.70189 48.66436
# Shear Modulus (GPa) = -11.59948 21.45168 4.92610
#
# Velocity S-wave (km/s) = -2.32158 3.15714 1.51292
# Velocity P-wave (km/s) = 2.90490 6.54899 5.06595
#
# Compressibility (1/GPa) = 0.02973816
#
# Stress axis : x y z
#
# Youngs Moduli (GPa) = 51.37602 76.29499 167.68944
#
# Poissons Ratio (x) = -0.08389 0.11653
# Poissons Ratio (y) = -0.05649 0.80540
# Poissons Ratio (z) = 0.03570 0.36644
#
# Static dielectric constant tensor:
#      x y z
#    x 1.835420 0.000000 0.000000 
#    y 0.000000 1.737560 0.000000 
#    z 0.000000 0.000000 1.847880 
# 
# From -- ./inp_files/59882.got.cif
#   From: 2010.05.17/outbox.cif.g08.bks.cpg/sg65_30_cif.got.tgz:59882.got - 2010.06.03 17:01:31.
