data_PCOD9483808
_publ_section_title
;
Structure prediction by ZEFSAII (Michael W. Deem and Ramdas Pophale) SiO2 
 PCOD9483808
Probable space group: C M M M
;
_chemical_formula_sum "Si O2"
_cell_formula_units_Z 100
_cell_length_a 7.511056
_cell_length_b 29.899603
_cell_length_c 23.117311
_cell_angle_alpha 90.000000
_cell_angle_beta 90.000000
_cell_angle_gamma 90.000000
_cell_volume 5191.630050
_symmetry_space_group_name_H-M "C M M M"
_symmetry_group_IT_number 65
_symmetry_cell_setting 'orthorhombic'
loop_
_space_group_symop_operation_xyz
x,y,z
-x,-y,z
x,-y,-z
-x,y,-z
-x,-y,-z
x,y,-z
-x,y,z
x,-y,z
1/2+x,1/2+y,z
1/2-x,1/2-y,z
1/2+x,1/2-y,-z
1/2-x,1/2+y,-z
1/2-x,1/2-y,-z
1/2+x,1/2+y,-z
1/2-x,1/2+y,z
1/2+x,1/2-y,z
loop_
_atom_site_type_symbol
_atom_site_label
_atom_site_fract_x
_atom_site_fract_y
_atom_site_fract_z
Si Si1 0.500000 0.560293 0.500000
Si Si2 0.218419 0.103317 0.063463
Si Si3 0.708496 0.888440 0.288033
Si Si4 0.212532 0.700058 0.229728
Si Si5 0.799285 0.199525 0.094826
Si Si6 0.715555 0.448980 0.177399
Si Si7 0.286884 0.051856 0.395451
O O1 0.657294 0.558175 0.449676
O O2 0.286950 0.154292 0.071216
O O3 0.276573 0.074022 0.117919
O O4 0.000000 0.103371 0.065708
O O5 0.268877 0.086488 0.000000
O O6 0.500000 0.881305 0.299209
O O7 0.782385 0.839906 0.269884
O O8 0.727929 0.919700 0.232042
O O9 0.773145 0.914808 0.344265
O O10 0.250000 0.750000 0.251777
O O11 0.288204 0.696761 0.164720
O O12 0.000000 0.695324 0.223245
O O13 0.750000 0.250000 0.078604
O O14 0.000000 0.195729 0.075334
O O15 0.500000 0.449089 0.177015
O O16 0.776574 0.500000 0.182127
O O17 0.500000 0.058789 0.408159
O O18 0.270872 0.000000 0.376065
#
# Coordination Sequence:
#
# PCOD9483808 Si02
#       7
#     4  16  16  16  16  16  16
#     4  12  23  38  60  90 124 164 200 232 274 332
#     4   9  18  32  48  69  99 135 176 225 280 334
#     4  10  21  36  55  80 113 146 180 222 278 332
#     4  10  19  32  52  78 108 139 173 220 277 330
#     4  10  18  30  49  71  98 133 169 217 276 334
#     4  10  20  33  52  76 101 135 180 231 279 326
#     4  10  21  37  57  85 123 161 196 235 278 329
#
# _framework density 19.261773999999999
#
# number of rings (size 3 to 8) (size 9 to 14) (size 15 to 20)
#    0.000    2.080    1.600    3.360    1.120    2.880 
#    0.000    1.600    0.000    3.840    0.000    1.680 
#    0.000    0.000    0.000    0.000    0.000    0.000 
#
# Total GULP energy -278402.311043 kJ/mol
# GULP energy per Si atom -5568.046221 kJ/mol
# Density = 1.921793 g / cm^3
# Si number density = 19.261774 Si / 1000 Ang^3
#
#
#
# Elastic Constant Matrix: (Units=GPa)
#
#
# Indices 1 2 3 4 5 6 
#
# 1 57.7810 1.7326 6.9859 0.0000 0.0000 0.0000
# 2 1.7326 119.3822 63.8956 0.0000 0.0000 0.0000
# 3 6.9859 63.8956 121.6766 0.0000 0.0000 0.0000
# 4 0.0000 0.0000 0.0000 -68.0004 0.0000 0.0000
# 5 0.0000 0.0000 0.0000 0.0000 -79.4704 0.0000
# 6 0.0000 0.0000 0.0000 0.0000 0.0000 -15.4102
#
#
#
# Elastic Compliance Matrix: (Units=1/GPa)
#
#
# Indices 1 2 3 4 5 6 
#
# 1 0.017441 0.000393 -0.001208 0.000000 0.000000 0.000000
# 2 0.000393 0.011660 -0.006146 0.000000 0.000000 0.000000
# 3 -0.001208 -0.006146 0.011515 0.000000 0.000000 0.000000
# 4 0.000000 0.000000 0.000000 -0.014706 0.000000 0.000000
# 5 0.000000 0.000000 0.000000 0.000000 -0.012583 0.000000
# 6 0.000000 0.000000 0.000000 0.000000 0.000000 -0.064892
#
#
# Mechanical properties :
#
#
# Convention : Reuss Voigt Hill
#
# Bulk Modulus (GPa) = 37.45907 49.34090 43.39999
# Shear Modulus (GPa) = -173.93537 -17.49448 -95.71493
#
# Velocity S-wave (km/s) = -9.51298 -3.01699 -7.05688
# Velocity P-wave (km/s) = 10.05847 3.67904 6.61958
#
# Compressibility (1/GPa) = 0.02669580
#
# Stress axis : x y z
#
# Youngs Moduli (GPa) = 57.33629 85.76362 86.84296
#
# Poissons Ratio (x) = -0.03374 0.10490
# Poissons Ratio (y) = -0.02256 0.53370
# Poissons Ratio (z) = 0.06926 0.52706
#
# Static dielectric constant tensor:
#      x y z
#    x 1.707690 0.000000 0.000000 
#    y 0.000000 1.711610 0.000000 
#    z 0.000000 0.000000 1.637480 
# 
# From -- ./inp_files/60875.got.cif
#   From: 2010.05.17/outbox.cif.g08.bks.cpg/sg65_31_cif.got.tgz:60875.got - 2010.06.03 17:01:31.
