data_PCOD9483933
_publ_section_title
;
Structure prediction by ZEFSAII (Michael W. Deem and Ramdas Pophale) SiO2 
 PCOD9483933
Probable space group: C M M M
;
_chemical_formula_sum "Si O2"
_cell_formula_units_Z 72
_cell_length_a 8.720125
_cell_length_b 19.510337
_cell_length_c 25.051860
_cell_angle_alpha 90.000000
_cell_angle_beta 90.000000
_cell_angle_gamma 90.000000
_cell_volume 4262.137511
_symmetry_space_group_name_H-M "C M M M"
_symmetry_group_IT_number 65
_symmetry_cell_setting 'orthorhombic'
loop_
_space_group_symop_operation_xyz
x,y,z
-x,-y,z
x,-y,-z
-x,y,-z
-x,-y,-z
x,y,-z
-x,y,z
x,-y,z
1/2+x,1/2+y,z
1/2-x,1/2-y,z
1/2+x,1/2-y,-z
1/2-x,1/2+y,-z
1/2-x,1/2-y,-z
1/2+x,1/2+y,-z
1/2-x,1/2+y,z
1/2+x,1/2-y,z
loop_
_atom_site_type_symbol
_atom_site_label
_atom_site_fract_x
_atom_site_fract_y
_atom_site_fract_z
Si Si1 0.814864 0.674973 0.560996
Si Si2 0.187313 0.421631 0.342651
Si Si3 0.326606 0.319934 0.133605
Si Si4 0.000000 0.080638 0.063555
Si Si5 0.816730 0.674717 0.246118
O O1 0.769265 0.658178 0.500000
O O2 0.750000 0.750000 0.574056
O O3 0.764554 0.619603 0.604520
O O4 0.000000 0.678390 0.562462
O O5 0.239750 0.500000 0.342318
O O6 0.236185 0.379692 0.290255
O O7 0.000000 0.422503 0.342660
O O8 0.500000 0.301143 0.151467
O O9 0.250000 0.250000 0.112728
O O10 0.356218 0.379231 0.090349
O O11 0.236875 0.343110 0.186208
O O12 0.000000 0.000000 0.076401
O O13 0.000000 0.088596 0.000000
O O14 0.750000 0.750000 0.257996
O O15 0.000000 0.677659 0.248083
#
# Coordination Sequence:
#
# PCOD9483933 Si02
#       5
#    16  16  16   8  16
#     4   9  17  30  49  69  89 118 156 200 245 291
#     4   9  18  30  44  68  97 125 160 199 243 293
#     4   9  18  32  54  78 103 131 171 211 247 294
#     4   9  20  36  54  78 109 141 168 204 257 304
#     4  10  18  30  51  72  99 131 162 204 248 291
#
# _framework density 16.892931999999998
#
# number of rings (size 3 to 8) (size 9 to 14) (size 15 to 20)
#    0.667    2.111    0.000    3.333    0.000    1.778 
#    0.000    3.333    0.000    5.333    0.000    9.333 
#    0.000    0.000    0.000    0.000    0.000    0.000 
#
# Total GULP energy -200411.108408 kJ/mol
# GULP energy per Si atom -5566.975234 kJ/mol
# Density = 1.685448 g / cm^3
# Si number density = 16.892932 Si / 1000 Ang^3
#
#
#
# Elastic Constant Matrix: (Units=GPa)
#
#
# Indices 1 2 3 4 5 6 
#
# 1 36.5207 24.0608 21.2412 0.0000 0.0000 0.0000
# 2 24.0608 159.8917 117.8955 0.0000 0.0000 0.0000
# 3 21.2412 117.8955 120.2024 0.0000 0.0000 0.0000
# 4 0.0000 0.0000 0.0000 3.0411 0.0000 0.0000
# 5 0.0000 0.0000 0.0000 0.0000 13.9195 0.0000
# 6 0.0000 0.0000 0.0000 0.0000 0.0000 18.9951
#
#
#
# Elastic Compliance Matrix: (Units=1/GPa)
#
#
# Indices 1 2 3 4 5 6 
#
# 1 0.030739 -0.002241 -0.003234 0.000000 0.000000 0.000000
# 2 -0.002241 0.022758 -0.021925 0.000000 0.000000 0.000000
# 3 -0.003234 -0.021925 0.030395 0.000000 0.000000 0.000000
# 4 0.000000 0.000000 0.000000 0.328828 0.000000 0.000000
# 5 0.000000 0.000000 0.000000 0.000000 0.071841 0.000000
# 6 0.000000 0.000000 0.000000 0.000000 0.000000 0.052645
#
#
# Mechanical properties :
#
#
# Convention : Reuss Voigt Hill
#
# Bulk Modulus (GPa) = 34.37378 71.44553 52.90966
# Shear Modulus (GPa) = 8.30974 17.41896 12.86435
#
# Velocity S-wave (km/s) = 2.22030 3.21462 2.76256
# Velocity P-wave (km/s) = 5.19280 7.49422 6.44704
#
# Compressibility (1/GPa) = 0.02909194
#
# Stress axis : x y z
#
# Youngs Moduli (GPa) = 32.53180 43.94100 32.90030
#
# Poissons Ratio (x) = 0.09849 0.10638
# Poissons Ratio (y) = 0.07292 0.72134
# Poissons Ratio (z) = 0.10519 0.96340
#
# Static dielectric constant tensor:
#      x y z
#    x 1.487310 0.000000 0.000000 
#    y 0.000000 1.555590 0.000000 
#    z 0.000000 0.000000 1.569490 
# 
# From -- ./inp_files/67211.got.cif
#   From: 2010.05.17/outbox.cif.g08.bks.cpg/sg65_34_cif.got.tgz:67211.got - 2010.06.03 17:01:31.
