data_PCOD9483385
_publ_section_title
;
Structure prediction by ZEFSAII (Michael W. Deem and Ramdas Pophale) SiO2 
 PCOD9483385
Probable space group: C M M M
;
_chemical_formula_sum "Si O2"
_cell_formula_units_Z 80
_cell_length_a 25.640826
_cell_length_b 8.891373
_cell_length_c 20.691931
_cell_angle_alpha 90.000000
_cell_angle_beta 90.000000
_cell_angle_gamma 90.000000
_cell_volume 4717.390876
_symmetry_space_group_name_H-M "C M M M"
_symmetry_group_IT_number 65
_symmetry_cell_setting 'orthorhombic'
loop_
_space_group_symop_operation_xyz
x,y,z
-x,-y,z
x,-y,-z
-x,y,-z
-x,-y,-z
x,y,-z
-x,y,z
x,-y,z
1/2+x,1/2+y,z
1/2-x,1/2-y,z
1/2+x,1/2-y,-z
1/2-x,1/2+y,-z
1/2-x,1/2-y,-z
1/2+x,1/2+y,-z
1/2-x,1/2+y,z
1/2+x,1/2-y,z
loop_
_atom_site_type_symbol
_atom_site_label
_atom_site_fract_x
_atom_site_fract_y
_atom_site_fract_z
Si Si1 0.607847 0.819188 0.745780
Si Si2 0.000000 0.679835 0.889601
Si Si3 0.192524 0.821374 0.000000
Si Si4 0.807618 0.318403 0.358502
Si Si5 0.500000 0.322372 0.251592
Si Si6 0.807766 0.680796 0.500000
Si Si7 0.384081 0.820648 0.897814
O O1 0.654675 0.770801 0.699347
O O2 0.553570 0.747828 0.722859
O O3 0.617561 0.782476 0.821393
O O4 0.602907 0.000000 0.742874
O O5 0.056205 0.709436 0.921173
O O6 0.000000 0.500000 0.873568
O O7 0.000000 0.773607 0.823735
O O8 0.250000 0.750000 0.000000
O O9 0.158779 0.765926 0.061335
O O10 0.197049 0.000000 0.000000
O O11 0.803366 0.500000 0.356159
O O12 0.750000 0.250000 0.352204
O O13 0.830106 0.276340 0.429759
O O14 0.500000 0.500000 0.258392
O O15 0.804275 0.500000 0.500000
O O16 0.750000 0.750000 0.500000
O O17 0.375271 0.000000 0.904679
#
# Coordination Sequence:
#
# PCOD9483385 Si02
#       7
#    16   8   8  16   8   8  16
#     4   9  18  33  52  73  99 131 163 196 239 290
#     4   8  16  33  57  80 102 127 153 188 240 295
#     4  12  26  41  54  69  95 132 168 202 243 290
#     4   9  17  29  47  72 100 129 161 198 241 288
#     4  10  18  28  47  74 101 128 161 202 243 282
#     4   8  14  26  44  67  96 127 159 196 238 284
#     4   9  18  35  56  76  98 126 161 198 239 289
#
# _framework density 16.958525999999999
#
# number of rings (size 3 to 8) (size 9 to 14) (size 15 to 20)
#    0.000    2.800    0.000    3.000    0.000    5.200 
#    0.000    4.000    0.000    0.600    0.000    4.200 
#    0.000    0.000    0.000    0.000    0.000    0.000 
#
# Total GULP energy -222747.233632 kJ/mol
# GULP energy per Si atom -5568.680841 kJ/mol
# Density = 1.691993 g / cm^3
# Si number density = 16.958526 Si / 1000 Ang^3
#
#
#
# Elastic Constant Matrix: (Units=GPa)
#
#
# Indices 1 2 3 4 5 6 
#
# 1 144.3506 50.6337 77.3296 0.0000 0.0000 0.0000
# 2 50.6337 33.2329 33.5693 0.0000 0.0000 0.0000
# 3 77.3296 33.5693 108.5806 0.0000 0.0000 0.0000
# 4 0.0000 0.0000 0.0000 16.3739 0.0000 0.0000
# 5 0.0000 0.0000 0.0000 0.0000 -30.1551 0.0000
# 6 0.0000 0.0000 0.0000 0.0000 0.0000 26.2412
#
#
#
# Elastic Compliance Matrix: (Units=1/GPa)
#
#
# Indices 1 2 3 4 5 6 
#
# 1 0.017234 -0.020154 -0.006043 0.000000 0.000000 0.000000
# 2 -0.020154 0.067323 -0.006461 0.000000 0.000000 0.000000
# 3 -0.006043 -0.006461 0.015511 0.000000 0.000000 0.000000
# 4 0.000000 0.000000 0.000000 0.061073 0.000000 0.000000
# 5 0.000000 0.000000 0.000000 0.000000 -0.033162 0.000000
# 6 0.000000 0.000000 0.000000 0.000000 0.000000 0.038108
#
#
# Mechanical properties :
#
#
# Convention : Reuss Voigt Hill
#
# Bulk Modulus (GPa) = 28.77436 67.69213 48.23324
# Shear Modulus (GPa) = 20.57721 10.80078 15.68900
#
# Velocity S-wave (km/s) = 3.48715 2.52641 3.04491
# Velocity P-wave (km/s) = 5.76350 6.96515 6.39262
#
# Compressibility (1/GPa) = 0.03475317
#
# Stress axis : x y z
#
# Youngs Moduli (GPa) = 58.02383 14.85371 64.47041
#
# Poissons Ratio (x) = 0.29936 0.38960
# Poissons Ratio (y) = 1.16941 0.41652
# Poissons Ratio (z) = 0.35065 0.09596
#
# Static dielectric constant tensor:
#      x y z
#    x 1.565720 0.000000 0.000000 
#    y 0.000000 1.561080 0.000000 
#    z 0.000000 0.000000 1.611310 
# 
# From -- ./inp_files/65103.got.cif
#   From: 2010.05.17/outbox.cif.g08.bks.cpg/sg65_33_cif.got.tgz:65103.got - 2010.06.03 17:01:31.
