data_PCOD9483499
_publ_section_title
;
Structure prediction by ZEFSAII (Michael W. Deem and Ramdas Pophale) SiO2 
 PCOD9483499
Probable space group: C M M M
;
_chemical_formula_sum "Si O2"
_cell_formula_units_Z 104
_cell_length_a 19.976582
_cell_length_b 22.245722
_cell_length_c 13.987449
_cell_angle_alpha 90.000000
_cell_angle_beta 90.000000
_cell_angle_gamma 90.000000
_cell_volume 6215.931273
_symmetry_space_group_name_H-M "C M M M"
_symmetry_group_IT_number 65
_symmetry_cell_setting 'orthorhombic'
loop_
_space_group_symop_operation_xyz
x,y,z
-x,-y,z
x,-y,-z
-x,y,-z
-x,-y,-z
x,y,-z
-x,y,z
x,-y,z
1/2+x,1/2+y,z
1/2-x,1/2-y,z
1/2+x,1/2-y,-z
1/2-x,1/2+y,-z
1/2-x,1/2-y,-z
1/2+x,1/2+y,-z
1/2-x,1/2+y,z
1/2+x,1/2-y,z
loop_
_atom_site_type_symbol
_atom_site_label
_atom_site_fract_x
_atom_site_fract_y
_atom_site_fract_z
Si Si1 0.574425 0.138858 0.884884
Si Si2 0.076548 0.000000 0.115853
Si Si3 0.079207 0.231528 0.790858
Si Si4 0.579105 0.935336 0.383831
Si Si5 0.581581 0.197190 0.609476
Si Si6 0.704500 0.068455 0.116399
Si Si7 0.344392 0.378723 0.115703
O O1 0.500000 0.120641 0.851567
O O2 0.585950 0.206918 0.851180
O O3 0.633453 0.095062 0.853053
O O4 0.574146 0.138100 0.000000
O O5 0.115360 0.939360 0.142661
O O6 0.000000 0.000000 0.149893
O O7 0.075330 0.000000 0.000000
O O8 0.100035 0.251325 0.684130
O O9 0.122343 0.178433 0.835038
O O10 0.000000 0.215472 0.791915
O O11 0.583176 0.934933 0.500000
O O12 0.500000 0.936257 0.360876
O O13 0.605066 0.869170 0.356417
O O14 0.607787 0.000000 0.351100
O O15 0.602385 0.207455 0.500000
O O16 0.500000 0.194673 0.610135
O O17 0.767271 0.109871 0.143171
O O18 0.714578 0.000000 0.148369
O O19 0.704606 0.067159 0.000000
O O20 0.348286 0.372072 0.000000
#
# Coordination Sequence:
#
# PCOD9483499 Si02
#       7
#    16   8  16  16  16  16  16
#     4   9  18  31  46  67  96 126 154 186 226 276
#     4   9  16  26  42  66  94 122 150 188 242 289
#     4  10  19  29  42  65  97 129 160 194 236 286
#     4   7   9  15  30  51  73 100 137 182 232 278
#     4   8  14  25  40  59  87 122 158 198 241 282
#     4   9  17  31  49  67  91 124 162 201 235 273
#     4  10  18  29  46  68  94 124 158 197 240 286
#
# _framework density 16.731202
#
# number of rings (size 3 to 8) (size 9 to 14) (size 15 to 20)
#    0.000    3.154    0.769    2.308    0.000    2.462 
#    0.000    4.615    0.000    2.769    0.000    2.692 
#    0.000    4.308    0.000    0.000    0.000    0.000 
#
# Total GULP energy -289592.319648 kJ/mol
# GULP energy per Si atom -5569.083070 kJ/mol
# Density = 1.669312 g / cm^3
# Si number density = 16.731202 Si / 1000 Ang^3
#
#
#
# Elastic Constant Matrix: (Units=GPa)
#
#
# Indices 1 2 3 4 5 6 
#
# 1 88.9297 63.9663 22.3803 0.0000 0.0000 0.0000
# 2 63.9663 117.9070 38.7398 0.0000 0.0000 0.0000
# 3 22.3803 38.7398 57.5120 0.0000 0.0000 0.0000
# 4 0.0000 0.0000 0.0000 13.9629 0.0000 0.0000
# 5 0.0000 0.0000 0.0000 0.0000 5.9171 0.0000
# 6 0.0000 0.0000 0.0000 0.0000 0.0000 41.0032
#
#
#
# Elastic Compliance Matrix: (Units=1/GPa)
#
#
# Indices 1 2 3 4 5 6 
#
# 1 0.018455 -0.009828 -0.000562 0.000000 0.000000 0.000000
# 2 -0.009828 0.016125 -0.007037 0.000000 0.000000 0.000000
# 3 -0.000562 -0.007037 0.022347 0.000000 0.000000 0.000000
# 4 0.000000 0.000000 0.000000 0.071618 0.000000 0.000000
# 5 0.000000 0.000000 0.000000 0.000000 0.169001 0.000000
# 6 0.000000 0.000000 0.000000 0.000000 0.000000 0.024388
#
#
# Mechanical properties :
#
#
# Convention : Reuss Voigt Hill
#
# Bulk Modulus (GPa) = 45.30388 57.16904 51.23646
# Shear Modulus (GPa) = 13.73076 21.46080 17.59578
#
# Velocity S-wave (km/s) = 2.86784 3.58534 3.24647
# Velocity P-wave (km/s) = 6.17270 7.16818 6.68899
#
# Compressibility (1/GPa) = 0.02207316
#
# Stress axis : x y z
#
# Youngs Moduli (GPa) = 54.18552 62.01505 44.74925
#
# Poissons Ratio (x) = 0.60946 0.02514
# Poissons Ratio (y) = 0.53251 0.31492
# Poissons Ratio (z) = 0.03044 0.43643
#
# Static dielectric constant tensor:
#      x y z
#    x 1.563420 0.000000 0.000000 
#    y 0.000000 1.565180 0.000000 
#    z 0.000000 0.000000 1.589680 
# 
# From -- ./inp_files/44403.got.cif
#   From: 2010.05.17/outbox.cif.g08.bks.cpg/sg65_23_cif.got.tgz:44403.got - 2010.06.03 17:01:31.
