data_PCOD9483575
_publ_section_title
;
Structure prediction by ZEFSAII (Michael W. Deem and Ramdas Pophale) SiO2 
 PCOD9483575
Probable space group: C M M M
;
_chemical_formula_sum "Si O2"
_cell_formula_units_Z 96
_cell_length_a 28.275393
_cell_length_b 17.400759
_cell_length_c 12.026596
_cell_angle_alpha 90.000000
_cell_angle_beta 90.000000
_cell_angle_gamma 90.000000
_cell_volume 5917.245176
_symmetry_space_group_name_H-M "C M M M"
_symmetry_group_IT_number 65
_symmetry_cell_setting 'orthorhombic'
loop_
_space_group_symop_operation_xyz
x,y,z
-x,-y,z
x,-y,-z
-x,y,-z
-x,-y,-z
x,y,-z
-x,y,z
x,-y,z
1/2+x,1/2+y,z
1/2-x,1/2-y,z
1/2+x,1/2-y,-z
1/2-x,1/2+y,-z
1/2-x,1/2-y,-z
1/2+x,1/2+y,-z
1/2-x,1/2+y,z
1/2+x,1/2-y,z
loop_
_atom_site_type_symbol
_atom_site_label
_atom_site_fract_x
_atom_site_fract_y
_atom_site_fract_z
Si Si1 0.552729 0.274650 0.631539
Si Si2 0.187394 0.127688 0.369962
Si Si3 0.150883 0.699127 0.370539
Si Si4 0.257900 0.593641 0.000000
Si Si5 0.633084 0.593214 0.000000
Si Si6 0.094075 0.087681 0.762193
Si Si7 0.782452 0.590718 0.762922
O O1 0.557744 0.293065 0.500000
O O2 0.500000 0.243768 0.649884
O O3 0.596358 0.218346 0.657344
O O4 0.560550 0.352213 0.700884
O O5 0.186772 0.107051 0.500000
O O6 0.178461 0.219429 0.361995
O O7 0.143652 0.090012 0.305011
O O8 0.236155 0.104473 0.312989
O O9 0.153800 0.674610 0.500000
O O10 0.175211 0.638586 0.290344
O O11 0.231614 0.616837 0.887238
O O12 0.259547 0.500000 0.000000
O O13 0.312503 0.620553 0.000000
O O14 0.606408 0.614531 0.887075
O O15 0.635243 0.500000 0.000000
O O16 0.076494 0.000000 0.764323
O O17 0.792750 0.500000 0.765431
#
# Coordination Sequence:
#
# PCOD9483575 Si02
#       7
#    16  16  16   8   8  16  16
#     4   9  19  36  55  71  92 126 160 197 252 302
#     4  10  19  30  45  68 102 136 159 187 235 289
#     4   9  19  34  49  69  99 128 157 196 242 293
#     4   9  18  32  46  66  99 137 167 193 230 276
#     4   9  16  30  46  64  98 140 168 192 232 277
#     4  10  18  29  48  72  98 129 166 202 233 275
#     4  11  20  31  49  71  97 129 165 201 234 275
#
# _framework density 16.223765
#
# number of rings (size 3 to 8) (size 9 to 14) (size 15 to 20)
#    0.000    2.333    1.667    3.000    0.000    5.000 
#    0.000    6.250    0.000    2.000    0.000    2.333 
#    0.000    2.000    0.000    0.000    0.000    0.000 
#
# Total GULP energy -267735.158215 kJ/mol
# GULP energy per Si atom -5577.815796 kJ/mol
# Density = 1.618684 g / cm^3
# Si number density = 16.223765 Si / 1000 Ang^3
#
#
#
# Elastic Constant Matrix: (Units=GPa)
#
#
# Indices 1 2 3 4 5 6 
#
# 1 59.0656 17.0981 17.2061 0.0000 0.0000 0.0000
# 2 17.0981 29.1606 14.0967 0.0000 0.0000 0.0000
# 3 17.2061 14.0967 80.5326 0.0000 0.0000 0.0000
# 4 0.0000 0.0000 0.0000 28.5043 0.0000 0.0000
# 5 0.0000 0.0000 0.0000 0.0000 12.5869 0.0000
# 6 0.0000 0.0000 0.0000 0.0000 0.0000 5.7568
#
#
#
# Elastic Compliance Matrix: (Units=1/GPa)
#
#
# Indices 1 2 3 4 5 6 
#
# 1 0.020852 -0.011004 -0.002529 0.000000 0.000000 0.000000
# 2 -0.011004 0.043270 -0.005223 0.000000 0.000000 0.000000
# 3 -0.002529 -0.005223 0.013872 0.000000 0.000000 0.000000
# 4 0.000000 0.000000 0.000000 0.035082 0.000000 0.000000
# 5 0.000000 0.000000 0.000000 0.000000 0.079448 0.000000
# 6 0.000000 0.000000 0.000000 0.000000 0.000000 0.173707
#
#
# Mechanical properties :
#
#
# Convention : Reuss Voigt Hill
#
# Bulk Modulus (GPa) = 24.70236 29.50676 27.10456
# Shear Modulus (GPa) = 11.98357 17.39347 14.68852
#
# Velocity S-wave (km/s) = 2.72075 3.27784 3.01220
# Velocity P-wave (km/s) = 5.01289 5.70548 5.37036
#
# Compressibility (1/GPa) = 0.04048196
#
# Stress axis : x y z
#
# Youngs Moduli (GPa) = 47.95592 23.11070 72.08802
#
# Poissons Ratio (x) = 0.25431 0.18231
# Poissons Ratio (y) = 0.52771 0.37652
# Poissons Ratio (z) = 0.12128 0.12071
#
# Static dielectric constant tensor:
#      x y z
#    x 1.539590 0.000000 0.000000 
#    y 0.000000 1.539720 0.000000 
#    z 0.000000 0.000000 1.550750 
# 
# From -- ./inp_files/32478.got.cif
#   From: 2010.05.17/outbox.cif.g08.bks.cpg/sg65_17_cif.got.tgz:32478.got - 2010.06.03 17:01:31.
