data_PCOD9483194
_publ_section_title
;
Structure prediction by ZEFSAII (Michael W. Deem and Ramdas Pophale) SiO2 
 PCOD9483194
Probable space group: C M M M
;
_chemical_formula_sum "Si O2"
_cell_formula_units_Z 64
_cell_length_a 35.583078
_cell_length_b 7.688765
_cell_length_c 13.300097
_cell_angle_alpha 90.000000
_cell_angle_beta 90.000000
_cell_angle_gamma 90.000000
_cell_volume 3638.772537
_symmetry_space_group_name_H-M "C M M M"
_symmetry_group_IT_number 65
_symmetry_cell_setting 'orthorhombic'
loop_
_space_group_symop_operation_xyz
x,y,z
-x,-y,z
x,-y,-z
-x,y,-z
-x,-y,-z
x,y,-z
-x,y,z
x,-y,z
1/2+x,1/2+y,z
1/2-x,1/2-y,z
1/2+x,1/2-y,-z
1/2-x,1/2+y,-z
1/2-x,1/2-y,-z
1/2+x,1/2+y,-z
1/2-x,1/2+y,z
1/2+x,1/2-y,z
loop_
_atom_site_type_symbol
_atom_site_label
_atom_site_fract_x
_atom_site_fract_y
_atom_site_fract_z
Si Si1 0.081487 0.207587 0.384687
Si Si2 0.293250 0.709140 0.886720
Si Si3 0.000000 0.706341 0.385695
Si Si4 0.206074 0.791536 0.500000
Si Si5 0.160264 0.213478 0.303561
O O1 0.082777 0.276780 0.500000
O O2 0.040136 0.242364 0.340726
O O3 0.117462 0.270514 0.322949
O O4 0.085391 0.000000 0.391800
O O5 0.296618 0.500000 0.889879
O O6 0.250000 0.750000 0.860748
O O7 0.320913 0.773557 0.799904
O O8 0.300402 0.775529 0.000000
O O9 0.000000 0.500000 0.392272
O O10 0.000000 0.781584 0.500000
O O11 0.250000 0.750000 0.500000
O O12 0.185162 0.729756 0.600766
O O13 0.202243 0.000000 0.500000
O O14 0.160764 0.000000 0.302099
#
# Coordination Sequence:
#
# PCOD9483194 Si02
#       5
#    16  16   8   8  16
#     4   9  15  26  43  60  78 107 142 169 195 240
#     4   9  17  29  44  61  82 109 141 177 213 245
#     4   9  17  27  39  59  88 113 130 160 205 246
#     4  10  18  28  40  57  82 111 139 168 203 244
#     4   9  16  27  43  61  82 108 140 174 205 239
#
# _framework density 17.588346999999999
#
# number of rings (size 3 to 8) (size 9 to 14) (size 15 to 20)
#    0.000    2.875    1.250    1.125    0.000    1.500 
#    0.000    2.500    0.000    0.000    0.000    0.875 
#    0.000    7.000    0.000    0.000    0.000    0.000 
#
# Total GULP energy -178331.116581 kJ/mol
# GULP energy per Si atom -5572.847393 kJ/mol
# Density = 1.754832 g / cm^3
# Si number density = 17.588347 Si / 1000 Ang^3
#
#
#
# Elastic Constant Matrix: (Units=GPa)
#
#
# Indices 1 2 3 4 5 6 
#
# 1 197.6821 2.0294 95.3749 0.0000 0.0000 0.0000
# 2 2.0294 28.4920 6.8139 0.0000 0.0000 0.0000
# 3 95.3749 6.8139 100.9862 0.0000 0.0000 0.0000
# 4 0.0000 0.0000 0.0000 0.7570 0.0000 0.0000
# 5 0.0000 0.0000 0.0000 0.0000 10.9654 0.0000
# 6 0.0000 0.0000 0.0000 0.0000 0.0000 18.3862
#
#
#
# Elastic Compliance Matrix: (Units=1/GPa)
#
#
# Indices 1 2 3 4 5 6 
#
# 1 0.009353 0.001470 -0.008933 0.000000 0.000000 0.000000
# 2 0.001470 0.035904 -0.003811 0.000000 0.000000 0.000000
# 3 -0.008933 -0.003811 0.018596 0.000000 0.000000 0.000000
# 4 0.000000 0.000000 0.000000 1.321047 0.000000 0.000000
# 5 0.000000 0.000000 0.000000 0.000000 0.091196 0.000000
# 6 0.000000 0.000000 0.000000 0.000000 0.000000 0.054389
#
#
# Mechanical properties :
#
#
# Convention : Reuss Voigt Hill
#
# Bulk Modulus (GPa) = 24.20951 59.51074 41.86012
# Shear Modulus (GPa) = 3.19122 20.88453 12.03787
#
# Velocity S-wave (km/s) = 1.34845 3.44962 2.61899
# Velocity P-wave (km/s) = 4.02726 7.05516 5.74431
#
# Compressibility (1/GPa) = 0.04130608
#
# Stress axis : x y z
#
# Youngs Moduli (GPa) = 106.91427 27.85188 53.77532
#
# Poissons Ratio (x) = -0.04094 0.48036
# Poissons Ratio (y) = -0.15717 0.20494
# Poissons Ratio (z) = 0.95504 0.10614
#
# Static dielectric constant tensor:
#      x y z
#    x 1.615120 0.000000 0.000000 
#    y 0.000000 1.651750 0.000000 
#    z 0.000000 0.000000 1.593090 
# 
# From -- ./inp_files/46393.got.cif
#   From: 2010.05.17/outbox.cif.g08.bks.cpg/sg65_24_cif.got.tgz:46393.got - 2010.06.03 17:01:31.
