data_PCOD9483827
_publ_section_title
;
Structure prediction by ZEFSAII (Michael W. Deem and Ramdas Pophale) SiO2 
 PCOD9483827
Probable space group: C M M M
;
_chemical_formula_sum "Si O2"
_cell_formula_units_Z 88
_cell_length_a 18.625049
_cell_length_b 7.914250
_cell_length_c 30.223969
_cell_angle_alpha 90.000000
_cell_angle_beta 90.000000
_cell_angle_gamma 90.000000
_cell_volume 4455.112590
_symmetry_space_group_name_H-M "C M M M"
_symmetry_group_IT_number 65
_symmetry_cell_setting 'orthorhombic'
loop_
_space_group_symop_operation_xyz
x,y,z
-x,-y,z
x,-y,-z
-x,y,-z
-x,-y,-z
x,y,-z
-x,y,z
x,-y,z
1/2+x,1/2+y,z
1/2-x,1/2-y,z
1/2+x,1/2-y,-z
1/2-x,1/2+y,-z
1/2-x,1/2-y,-z
1/2+x,1/2+y,-z
1/2-x,1/2+y,z
1/2+x,1/2-y,z
loop_
_atom_site_type_symbol
_atom_site_label
_atom_site_fract_x
_atom_site_fract_y
_atom_site_fract_z
Si Si1 0.413303 0.297811 0.047512
Si Si2 0.666952 0.703566 0.230691
Si Si3 0.417183 0.707373 0.681896
Si Si4 0.665945 0.801289 0.500000
Si Si5 0.916183 0.793099 0.856160
Si Si6 0.833657 0.199660 0.404068
O O1 0.500000 0.277656 0.048003
O O2 0.400065 0.500000 0.046920
O O3 0.388875 0.233647 0.095501
O O4 0.387182 0.228718 0.000000
O O5 0.661235 0.500000 0.230316
O O6 0.750000 0.750000 0.232667
O O7 0.625240 0.763381 0.274400
O O8 0.629885 0.765363 0.185498
O O9 0.500000 0.758776 0.683337
O O10 0.416133 0.500000 0.681671
O O11 0.378190 0.769130 0.637300
O O12 0.750000 0.750000 0.500000
O O13 0.636430 0.741481 0.547142
O O14 0.662645 0.000000 0.500000
O O15 0.000000 0.745942 0.850853
O O16 0.914783 0.000000 0.856953
O O17 0.750000 0.250000 0.401594
O O18 0.835253 0.000000 0.400267
#
# Coordination Sequence:
#
# PCOD9483827 Si02
#       6
#    16  16  16   8  16  16
#     4   7   9  14  27  51  82 110 138 179 227 265
#     4  10  19  31  48  68  91 118 149 186 226 271
#     4   9  18  32  50  71  92 117 152 191 227 265
#     4  10  18  30  49  72  99 127 157 189 219 258
#     4   8  13  22  39  62  85 113 150 188 225 265
#     4  10  18  30  50  73  97 123 153 188 224 264
#
# _framework density 19.752587999999999
#
# number of rings (size 3 to 8) (size 9 to 14) (size 15 to 20)
#    0.000    3.091    0.000    5.182    0.000    2.182 
#    0.000    1.364    0.000    9.818    0.000    0.000 
#    0.000    0.000    0.000    4.545    0.000    3.636 
#
# Total GULP energy -245137.895864 kJ/mol
# GULP energy per Si atom -5571.315815 kJ/mol
# Density = 1.970763 g / cm^3
# Si number density = 19.752588 Si / 1000 Ang^3
#
#
#
# Elastic Constant Matrix: (Units=GPa)
#
#
# Indices 1 2 3 4 5 6 
#
# 1 93.6580 2.4142 102.0241 0.0000 0.0000 0.0000
# 2 2.4142 22.1692 12.7551 0.0000 0.0000 0.0000
# 3 102.0241 12.7551 266.0180 0.0000 0.0000 0.0000
# 4 0.0000 0.0000 0.0000 -22.4644 0.0000 0.0000
# 5 0.0000 0.0000 0.0000 0.0000 50.2726 0.0000
# 6 0.0000 0.0000 0.0000 0.0000 0.0000 14.4771
#
#
#
# Elastic Compliance Matrix: (Units=1/GPa)
#
#
# Indices 1 2 3 4 5 6 
#
# 1 0.018435 0.002119 -0.007172 0.000000 0.000000 0.000000
# 2 0.002119 0.046631 -0.003048 0.000000 0.000000 0.000000
# 3 -0.007172 -0.003048 0.006656 0.000000 0.000000 0.000000
# 4 0.000000 0.000000 0.000000 -0.044515 0.000000 0.000000
# 5 0.000000 0.000000 0.000000 0.000000 0.019892 0.000000
# 6 0.000000 0.000000 0.000000 0.000000 0.000000 0.069075
#
#
# Mechanical properties :
#
#
# Convention : Reuss Voigt Hill
#
# Bulk Modulus (GPa) = 18.01192 68.47021 43.24107
# Shear Modulus (GPa) = 33.13835 26.10051 29.61943
#
# Velocity S-wave (km/s) = 4.10038 3.63901 3.87657
# Velocity P-wave (km/s) = 5.61748 7.23849 6.47888
#
# Compressibility (1/GPa) = 0.05551879
#
# Stress axis : x y z
#
# Youngs Moduli (GPa) = 54.24468 21.44499 150.24312
#
# Poissons Ratio (x) = -0.04544 1.07752
# Poissons Ratio (y) = -0.11493 0.45801
# Poissons Ratio (z) = 0.38903 0.06537
#
# Static dielectric constant tensor:
#      x y z
#    x 1.657890 0.000000 0.000000 
#    y 0.000000 1.714540 0.000000 
#    z 0.000000 0.000000 1.822070 
# 
# From -- ./inp_files/75365.got.cif
#   From: 2010.05.17/outbox.cif.g08.bks.cpg/sg65_38_cif.got.tgz:75365.got - 2010.06.03 17:01:31.
