data_PCOD9483378
_publ_section_title
;
Structure prediction by ZEFSAII (Michael W. Deem and Ramdas Pophale) SiO2 
 PCOD9483378
Probable space group: C M M M
;
_chemical_formula_sum "Si O2"
_cell_formula_units_Z 72
_cell_length_a 8.433783
_cell_length_b 15.499928
_cell_length_c 26.899451
_cell_angle_alpha 90.000000
_cell_angle_beta 90.000000
_cell_angle_gamma 90.000000
_cell_volume 3516.377720
_symmetry_space_group_name_H-M "C M M M"
_symmetry_group_IT_number 65
_symmetry_cell_setting 'orthorhombic'
loop_
_space_group_symop_operation_xyz
x,y,z
-x,-y,z
x,-y,-z
-x,y,-z
-x,-y,-z
x,y,-z
-x,y,z
x,-y,z
1/2+x,1/2+y,z
1/2-x,1/2-y,z
1/2+x,1/2-y,-z
1/2-x,1/2+y,-z
1/2-x,1/2-y,-z
1/2+x,1/2+y,-z
1/2-x,1/2+y,z
1/2+x,1/2-y,z
loop_
_atom_site_type_symbol
_atom_site_label
_atom_site_fract_x
_atom_site_fract_y
_atom_site_fract_z
Si Si1 0.310385 0.849033 0.736639
Si Si2 0.810120 0.000000 0.442922
Si Si3 0.184623 0.103247 0.947011
Si Si4 0.190271 0.348570 0.373307
Si Si5 0.690229 0.652489 0.160915
O O1 0.500000 0.849366 0.739762
O O2 0.250000 0.750000 0.735496
O O3 0.262532 0.882226 0.682130
O O4 0.246381 0.890416 0.787557
O O5 0.752044 0.914915 0.414087
O O6 0.754048 0.000000 0.500000
O O7 0.000000 0.000000 0.442808
O O8 0.254073 0.123813 0.893040
O O9 0.000000 0.132569 0.946421
O O10 0.182317 0.000000 0.949151
O O11 0.255503 0.134306 0.000000
O O12 0.250000 0.250000 0.379673
O O13 0.000000 0.346572 0.374699
O O14 0.500000 0.646655 0.160134
O O15 0.750000 0.750000 0.164499
#
# Coordination Sequence:
#
# PCOD9483378 Si02
#       5
#    16   8  16  16  16
#     4   9  17  31  52  77 107 140 175 216 268 325
#     4  11  25  43  63  91 125 159 200 247 290 339
#     4   8  15  29  46  63  88 124 167 213 257 307
#     4  10  21  39  64  90 120 160 202 243 295 350
#     4  10  18  28  47  73 100 128 165 210 264 319
#
# _framework density 20.475617
#
# number of rings (size 3 to 8) (size 9 to 14) (size 15 to 20)
#    0.000    2.556    0.000    4.333    0.000    4.444 
#    2.000    0.000    0.000    4.000    0.000    6.222 
#    0.000    0.000    0.000    0.000    0.000    0.000 
#
# Total GULP energy -200499.973987 kJ/mol
# GULP energy per Si atom -5569.443722 kJ/mol
# Density = 2.042901 g / cm^3
# Si number density = 20.475617 Si / 1000 Ang^3
#
#
#
# Elastic Constant Matrix: (Units=GPa)
#
#
# Indices 1 2 3 4 5 6 
#
# 1 42.7306 11.5246 47.1716 0.0000 0.0000 0.0000
# 2 11.5246 60.8251 68.1982 0.0000 0.0000 0.0000
# 3 47.1716 68.1982 266.0678 0.0000 0.0000 0.0000
# 4 0.0000 0.0000 0.0000 36.2826 0.0000 0.0000
# 5 0.0000 0.0000 0.0000 0.0000 22.7875 0.0000
# 6 0.0000 0.0000 0.0000 0.0000 0.0000 15.5664
#
#
#
# Elastic Compliance Matrix: (Units=1/GPa)
#
#
# Indices 1 2 3 4 5 6 
#
# 1 0.029104 0.000380 -0.005257 0.000000 0.000000 0.000000
# 2 0.000380 0.023076 -0.005982 0.000000 0.000000 0.000000
# 3 -0.005257 -0.005982 0.006224 0.000000 0.000000 0.000000
# 4 0.000000 0.000000 0.000000 0.027561 0.000000 0.000000
# 5 0.000000 0.000000 0.000000 0.000000 0.043884 0.000000
# 6 0.000000 0.000000 0.000000 0.000000 0.000000 0.064241
#
#
# Mechanical properties :
#
#
# Convention : Reuss Voigt Hill
#
# Bulk Modulus (GPa) = 27.25919 69.26805 48.26362
# Shear Modulus (GPa) = 21.92636 31.10923 26.51779
#
# Velocity S-wave (km/s) = 3.27594 3.90209 3.60264
# Velocity P-wave (km/s) = 5.25841 7.36238 6.39748
#
# Compressibility (1/GPa) = 0.03668488
#
# Stress axis : x y z
#
# Youngs Moduli (GPa) = 34.36003 43.33529 160.67171
#
# Poissons Ratio (x) = -0.01648 0.84470
# Poissons Ratio (y) = -0.01307 0.96117
# Poissons Ratio (z) = 0.18064 0.25924
#
# Static dielectric constant tensor:
#      x y z
#    x 1.709200 0.000000 0.000000 
#    y 0.000000 1.702630 0.000000 
#    z 0.000000 0.000000 1.845270 
# 
# From -- ./inp_files/76368.got.cif
#   From: 2010.05.17/outbox.cif.g08.bks.cpg/sg65_39_cif.got.tgz:76368.got - 2010.06.03 17:01:31.
