data_PCOD9483341
_publ_section_title
;
Structure prediction by ZEFSAII (Michael W. Deem and Ramdas Pophale) SiO2 
 PCOD9483341
Probable space group: C M M M
;
_chemical_formula_sum "Si O2"
_cell_formula_units_Z 104
_cell_length_a 29.754401
_cell_length_b 7.986468
_cell_length_c 23.806918
_cell_angle_alpha 90.000000
_cell_angle_beta 90.000000
_cell_angle_gamma 90.000000
_cell_volume 5657.299143
_symmetry_space_group_name_H-M "C M M M"
_symmetry_group_IT_number 65
_symmetry_cell_setting 'orthorhombic'
loop_
_space_group_symop_operation_xyz
x,y,z
-x,-y,z
x,-y,-z
-x,y,-z
-x,-y,-z
x,y,-z
-x,y,z
x,-y,z
1/2+x,1/2+y,z
1/2-x,1/2-y,z
1/2+x,1/2-y,-z
1/2-x,1/2+y,-z
1/2-x,1/2-y,-z
1/2+x,1/2+y,-z
1/2-x,1/2+y,z
1/2+x,1/2-y,z
loop_
_atom_site_type_symbol
_atom_site_label
_atom_site_fract_x
_atom_site_fract_y
_atom_site_fract_z
Si Si1 0.127545 0.701918 0.852523
Si Si2 0.700157 0.701096 0.368052
Si Si3 0.297867 0.798971 0.062992
Si Si4 0.551454 0.500000 0.568366
Si Si5 0.612583 0.811961 0.432534
Si Si6 0.052237 0.704263 0.063591
Si Si7 0.699501 0.300826 0.238582
O O1 0.125253 0.500000 0.851301
O O2 0.162405 0.763538 0.899480
O O3 0.080589 0.758835 0.881335
O O4 0.154998 0.748118 0.796092
O O5 0.695717 0.500000 0.369740
O O6 0.750000 0.750000 0.387813
O O7 0.660636 0.779847 0.404459
O O8 0.696179 0.759387 0.303146
O O9 0.250000 0.750000 0.087036
O O10 0.300852 0.000000 0.060958
O O11 0.300252 0.732071 0.000000
O O12 0.500000 0.500000 0.587776
O O13 0.550664 0.500000 0.500000
O O14 0.578457 0.333942 0.585902
O O15 0.617072 0.799669 0.500000
O O16 0.596683 0.000000 0.419196
O O17 0.054164 0.500000 0.063036
O O18 0.000000 0.752879 0.068073
O O19 0.068352 0.754832 0.000000
O O20 0.699723 0.500000 0.238850
O O21 0.750000 0.250000 0.218121
#
# Coordination Sequence:
#
# PCOD9483341 Si02
#       7
#    16  16  16   8  16  16  16
#     4  10  18  28  46  69  92 122 159 202 250 297
#     4  10  20  35  54  76 106 145 185 228 279 335
#     4   9  17  27  38  56  84 115 146 182 229 286
#     4   9  18  34  56  82 116 154 190 234 282 328
#     4  10  20  34  55  85 118 151 191 237 285 340
#     4   8  14  26  46  72  98 123 157 204 256 310
#     4  10  21  35  51  72  99 132 173 213 255 308
#
# _framework density 18.383331999999999
#
# number of rings (size 3 to 8) (size 9 to 14) (size 15 to 20)
#    0.000    2.538    0.769    2.308    0.000    6.154 
#    0.000    1.538    0.000    2.769    0.000    3.231 
#    0.000    0.000    0.000    0.000    0.000    0.000 
#
# Total GULP energy -289524.745527 kJ/mol
# GULP energy per Si atom -5567.783568 kJ/mol
# Density = 1.834149 g / cm^3
# Si number density = 18.383332 Si / 1000 Ang^3
#
#
#
# Elastic Constant Matrix: (Units=GPa)
#
#
# Indices 1 2 3 4 5 6 
#
# 1 119.1083 41.7782 33.6333 0.0000 0.0000 0.0000
# 2 41.7782 63.9056 27.6688 0.0000 0.0000 0.0000
# 3 33.6333 27.6688 32.0263 0.0000 0.0000 0.0000
# 4 0.0000 0.0000 0.0000 15.9266 0.0000 0.0000
# 5 0.0000 0.0000 0.0000 0.0000 31.7783 0.0000
# 6 0.0000 0.0000 0.0000 0.0000 0.0000 17.0534
#
#
#
# Elastic Compliance Matrix: (Units=1/GPa)
#
#
# Indices 1 2 3 4 5 6 
#
# 1 0.012540 -0.003988 -0.009724 0.000000 0.000000 0.000000
# 2 -0.003988 0.026267 -0.018505 0.000000 0.000000 0.000000
# 3 -0.009724 -0.018505 0.057424 0.000000 0.000000 0.000000
# 4 0.000000 0.000000 0.000000 0.062788 0.000000 0.000000
# 5 0.000000 0.000000 0.000000 0.000000 0.031468 0.000000
# 6 0.000000 0.000000 0.000000 0.000000 0.000000 0.058639
#
#
# Mechanical properties :
#
#
# Convention : Reuss Voigt Hill
#
# Bulk Modulus (GPa) = 31.44986 46.80007 39.12497
# Shear Modulus (GPa) = 15.42443 20.41567 17.92005
#
# Velocity S-wave (km/s) = 2.89977 3.33611 3.12556
# Velocity P-wave (km/s) = 5.32508 6.35238 5.86128
#
# Compressibility (1/GPa) = 0.03179664
#
# Stress axis : x y z
#
# Youngs Moduli (GPa) = 79.74200 38.07002 17.41433
#
# Poissons Ratio (x) = 0.15183 0.16934
# Poissons Ratio (y) = 0.31802 0.32226
# Poissons Ratio (z) = 0.77543 0.70450
#
# Static dielectric constant tensor:
#      x y z
#    x 1.636530 0.000000 0.000000 
#    y 0.000000 1.657770 0.000000 
#    z 0.000000 0.000000 1.659740 
# 
# From -- ./inp_files/75996.got.cif
#   From: 2010.05.17/outbox.cif.g08.bks.cpg/sg65_38_cif.got.tgz:75996.got - 2010.06.03 17:01:31.
