data_PCOD9483091
_publ_section_title
;
Structure prediction by ZEFSAII (Michael W. Deem and Ramdas Pophale) SiO2 
 PCOD9483091
Probable space group: C M M M
;
_chemical_formula_sum "Si O2"
_cell_formula_units_Z 104
_cell_length_a 13.768152
_cell_length_b 16.394775
_cell_length_c 22.339637
_cell_angle_alpha 90.000000
_cell_angle_beta 90.000000
_cell_angle_gamma 90.000000
_cell_volume 5042.631411
_symmetry_space_group_name_H-M "C M M M"
_symmetry_group_IT_number 65
_symmetry_cell_setting 'orthorhombic'
loop_
_space_group_symop_operation_xyz
x,y,z
-x,-y,z
x,-y,-z
-x,y,-z
-x,-y,-z
x,y,-z
-x,y,z
x,-y,z
1/2+x,1/2+y,z
1/2-x,1/2-y,z
1/2+x,1/2-y,-z
1/2-x,1/2+y,-z
1/2-x,1/2-y,-z
1/2+x,1/2+y,-z
1/2-x,1/2+y,z
1/2+x,1/2-y,z
loop_
_atom_site_type_symbol
_atom_site_label
_atom_site_fract_x
_atom_site_fract_y
_atom_site_fract_z
Si Si1 0.500000 0.402132 0.066491
Si Si2 0.358069 0.585392 0.668095
Si Si3 0.695732 0.599846 0.857961
Si Si4 0.675796 0.175955 0.340089
Si Si5 0.106992 0.218952 0.237115
Si Si6 0.000000 0.118349 0.433151
Si Si7 0.390784 0.099007 0.930712
Si Si8 0.500000 0.186110 0.569613
O O1 0.500000 0.500000 0.061313
O O2 0.601135 0.385058 0.100222
O O3 0.500000 0.365570 0.000000
O O4 0.383257 0.500000 0.697437
O O5 0.243926 0.598011 0.664089
O O6 0.400260 0.658052 0.706520
O O7 0.406906 0.590048 0.603750
O O8 0.696039 0.500000 0.843748
O O9 0.676736 0.666187 0.805669
O O10 0.798167 0.620300 0.890014
O O11 0.750000 0.250000 0.358025
O O12 0.639772 0.200368 0.273167
O O13 0.593118 0.165193 0.389362
O O14 0.000000 0.230187 0.210062
O O15 0.000000 0.089047 0.500000
O O16 0.000000 0.215939 0.433580
O O17 0.500000 0.126026 0.911904
O O18 0.392539 0.000000 0.931076
O O19 0.375888 0.124764 0.000000
O O20 0.500000 0.156417 0.500000
#
# Coordination Sequence:
#
# PCOD9483091 Si02
#       8
#     8  16  16  16  16   8  16   8
#     4   9  16  24  36  66 115 156 182 225 295 367
#     4  11  22  37  59  85 118 154 186 232 296 352
#     4  10  18  26  44  75 109 149 199 246 297 351
#     4  10  20  38  57  83 111 149 191 236 281 342
#     4  11  19  34  55  79 109 151 196 239 286 343
#     4  11  21  35  60  94 123 147 184 239 292 343
#     4   8  14  26  44  65  99 151 203 246 286 339
#     4  11  20  36  62  88 113 148 196 240 276 332
#
# _framework density 20.624153
#
# number of rings (size 3 to 8) (size 9 to 14) (size 15 to 20)
#    0.000    1.923    5.385    1.615    0.000    4.000 
#    0.000    0.385    8.462    0.462    0.000    0.000 
#    0.000   22.154    8.308    1.231    0.000    0.923 
#
# Total GULP energy -289633.704489 kJ/mol
# GULP energy per Si atom -5569.878932 kJ/mol
# Density = 2.057721 g / cm^3
# Si number density = 20.624153 Si / 1000 Ang^3
#
#
#
# Elastic Constant Matrix: (Units=GPa)
#
#
# Indices 1 2 3 4 5 6 
#
# 1 184.5036 21.5752 81.6185 0.0000 0.0000 0.0000
# 2 21.5752 34.6431 14.8920 0.0000 0.0000 0.0000
# 3 81.6185 14.8920 126.4919 0.0000 0.0000 0.0000
# 4 0.0000 0.0000 0.0000 17.4665 0.0000 0.0000
# 5 0.0000 0.0000 0.0000 0.0000 25.1465 0.0000
# 6 0.0000 0.0000 0.0000 0.0000 0.0000 -23.6511
#
#
#
# Elastic Compliance Matrix: (Units=1/GPa)
#
#
# Indices 1 2 3 4 5 6 
#
# 1 0.007844 -0.002854 -0.004725 0.000000 0.000000 0.000000
# 2 -0.002854 0.031443 -0.001860 0.000000 0.000000 0.000000
# 3 -0.004725 -0.001860 0.011174 0.000000 0.000000 0.000000
# 4 0.000000 0.000000 0.000000 0.057252 0.000000 0.000000
# 5 0.000000 0.000000 0.000000 0.000000 0.039767 0.000000
# 6 0.000000 0.000000 0.000000 0.000000 0.000000 -0.042281
#
#
# Mechanical properties :
#
#
# Convention : Reuss Voigt Hill
#
# Bulk Modulus (GPa) = 31.66418 64.64557 48.15487
# Shear Modulus (GPa) = 37.14579 18.96258 28.05418
#
# Velocity S-wave (km/s) = 4.24852 3.03551 3.69217
# Velocity P-wave (km/s) = 6.28115 6.61048 6.44792
#
# Compressibility (1/GPa) = 0.03158143
#
# Stress axis : x y z
#
# Youngs Moduli (GPa) = 127.48590 31.80375 89.49607
#
# Poissons Ratio (x) = 0.09076 0.42290
# Poissons Ratio (y) = 0.36383 0.16649
# Poissons Ratio (z) = 0.60241 0.05917
#
# Static dielectric constant tensor:
#      x y z
#    x 1.793170 0.000000 0.000000 
#    y 0.000000 1.730720 0.000000 
#    z 0.000000 0.000000 1.755690 
# 
# From -- ./inp_files/62900.got.cif
#   From: 2010.05.17/outbox.cif.g08.bks.cpg/sg65_32_cif.got.tgz:62900.got - 2010.06.03 17:01:31.
