data_PCOD9483786
_publ_section_title
;
Structure prediction by ZEFSAII (Michael W. Deem and Ramdas Pophale) SiO2 
 PCOD9483786
Probable space group: C M M M
;
_chemical_formula_sum "Si O2"
_cell_formula_units_Z 104
_cell_length_a 29.476702
_cell_length_b 7.588857
_cell_length_c 24.378452
_cell_angle_alpha 90.000000
_cell_angle_beta 90.000000
_cell_angle_gamma 90.000000
_cell_volume 5453.325053
_symmetry_space_group_name_H-M "C M M M"
_symmetry_group_IT_number 65
_symmetry_cell_setting 'orthorhombic'
loop_
_space_group_symop_operation_xyz
x,y,z
-x,-y,z
x,-y,-z
-x,y,-z
-x,-y,-z
x,y,-z
-x,y,z
x,-y,z
1/2+x,1/2+y,z
1/2-x,1/2-y,z
1/2+x,1/2-y,-z
1/2-x,1/2+y,-z
1/2-x,1/2-y,-z
1/2+x,1/2+y,-z
1/2-x,1/2+y,z
1/2+x,1/2-y,z
loop_
_atom_site_type_symbol
_atom_site_label
_atom_site_fract_x
_atom_site_fract_y
_atom_site_fract_z
Si Si1 0.397902 0.293951 0.940765
Si Si2 0.300511 0.209808 0.901944
Si Si3 0.055093 0.704577 0.500000
Si Si4 0.447534 0.713646 0.168355
Si Si5 0.109082 0.707685 0.723244
Si Si6 0.447400 0.783406 0.380027
Si Si7 0.300290 0.788723 0.224088
O O1 0.410470 0.500000 0.942111
O O2 0.343687 0.282627 0.933598
O O3 0.421555 0.220762 0.886137
O O4 0.410618 0.216318 0.000000
O O5 0.250000 0.250000 0.923115
O O6 0.302927 0.277593 0.838867
O O7 0.305565 0.000000 0.901468
O O8 0.069504 0.500000 0.500000
O O9 0.068062 0.778338 0.440546
O O10 0.000000 0.706396 0.500000
O O11 0.500000 0.767723 0.167878
O O12 0.445949 0.500000 0.168668
O O13 0.422381 0.773894 0.223233
O O14 0.115281 0.500000 0.712490
O O15 0.083783 0.779358 0.669751
O O16 0.158223 0.781371 0.739984
O O17 0.500000 0.732485 0.371264
O O18 0.447270 0.000000 0.380951
O O19 0.250000 0.750000 0.245214
O O20 0.305027 0.000000 0.220708
#
# Coordination Sequence:
#
# PCOD9483786 Si02
#       7
#    16  16   8  16  16  16  16
#     4  10  21  36  52  69  90 119 155 191 228 273
#     4  10  19  33  52  73  95 119 147 184 231 281
#     4   7  10  18  32  56  92 127 155 183 219 261
#     4  10  21  35  50  69  93 121 152 188 229 272
#     4  10  18  30  48  72  96 120 152 190 232 274
#     4   8  13  21  37  63  95 127 154 184 223 265
#     4   9  18  30  46  68  92 117 147 183 225 275
#
# _framework density 19.070934000000001
#
# number of rings (size 3 to 8) (size 9 to 14) (size 15 to 20)
#    0.000    2.692    1.538    1.846    0.000    3.077 
#    0.000    1.538    0.000    0.000    0.000    3.231 
#    0.000    3.077    0.000    0.000    0.000    0.000 
#
# Total GULP energy -290024.023686 kJ/mol
# GULP energy per Si atom -5577.385071 kJ/mol
# Density = 1.902753 g / cm^3
# Si number density = 19.070934 Si / 1000 Ang^3
#
#
#
# Elastic Constant Matrix: (Units=GPa)
#
#
# Indices 1 2 3 4 5 6 
#
# 1 97.6093 -10.5909 63.0394 0.0000 0.0000 0.0000
# 2 -10.5909 41.0954 -3.8201 0.0000 0.0000 0.0000
# 3 63.0394 -3.8201 154.9695 0.0000 0.0000 0.0000
# 4 0.0000 0.0000 0.0000 7.6756 0.0000 0.0000
# 5 0.0000 0.0000 0.0000 0.0000 26.4681 0.0000
# 6 0.0000 0.0000 0.0000 0.0000 0.0000 7.8304
#
#
#
# Elastic Compliance Matrix: (Units=1/GPa)
#
#
# Indices 1 2 3 4 5 6 
#
# 1 0.014291 0.003150 -0.005736 0.000000 0.000000 0.000000
# 2 0.003150 0.025084 -0.000663 0.000000 0.000000 0.000000
# 3 -0.005736 -0.000663 0.008770 0.000000 0.000000 0.000000
# 4 0.000000 0.000000 0.000000 0.130282 0.000000 0.000000
# 5 0.000000 0.000000 0.000000 0.000000 0.037781 0.000000
# 6 0.000000 0.000000 0.000000 0.000000 0.000000 0.127707
#
#
# Mechanical properties :
#
#
# Convention : Reuss Voigt Hill
#
# Bulk Modulus (GPa) = 24.01148 43.43679 33.72414
# Shear Modulus (GPa) = 13.72513 24.73121 19.22817
#
# Velocity S-wave (km/s) = 2.68561 3.60502 3.17873
# Velocity P-wave (km/s) = 4.71536 6.33673 5.58519
#
# Compressibility (1/GPa) = 0.04164674
#
# Stress axis : x y z
#
# Youngs Moduli (GPa) = 69.97403 39.86646 114.02828
#
# Poissons Ratio (x) = -0.12557 0.65404
# Poissons Ratio (y) = -0.22041 0.07560
# Poissons Ratio (z) = 0.40135 0.02643
#
# Static dielectric constant tensor:
#      x y z
#    x 1.652150 0.000000 0.000000 
#    y 0.000000 1.715980 0.000000 
#    z 0.000000 0.000000 1.685650 
# 
# From -- ./inp_files/68491.got.cif
#   From: 2010.05.17/outbox.cif.g08.bks.cpg/sg65_35_cif.got.tgz:68491.got - 2010.06.03 17:01:31.
