data_PCOD9483810
_publ_section_title
;
Structure prediction by ZEFSAII (Michael W. Deem and Ramdas Pophale) SiO2 
 PCOD9483810
Probable space group: C M M M
;
_chemical_formula_sum "Si O2"
_cell_formula_units_Z 112
_cell_length_a 28.930294
_cell_length_b 14.885186
_cell_length_c 14.769719
_cell_angle_alpha 90.000000
_cell_angle_beta 90.000000
_cell_angle_gamma 90.000000
_cell_volume 6360.325555
_symmetry_space_group_name_H-M "C M M M"
_symmetry_group_IT_number 65
_symmetry_cell_setting 'orthorhombic'
loop_
_space_group_symop_operation_xyz
x,y,z
-x,-y,z
x,-y,-z
-x,y,-z
-x,-y,-z
x,y,-z
-x,y,z
x,-y,z
1/2+x,1/2+y,z
1/2-x,1/2-y,z
1/2+x,1/2-y,-z
1/2-x,1/2+y,-z
1/2-x,1/2-y,-z
1/2+x,1/2+y,-z
1/2-x,1/2+y,z
1/2+x,1/2-y,z
loop_
_atom_site_type_symbol
_atom_site_label
_atom_site_fract_x
_atom_site_fract_y
_atom_site_fract_z
Si Si1 0.873118 0.392820 0.892884
Si Si2 0.319227 0.603738 0.787114
Si Si3 0.552154 0.772737 0.208540
Si Si4 0.409251 0.607153 0.892969
Si Si5 0.266982 0.147638 0.101802
Si Si6 0.649573 0.394106 0.400982
Si Si7 0.448065 0.312216 0.396911
O O1 0.876694 0.500000 0.878616
O O2 0.909966 0.337724 0.834829
O O3 0.820412 0.362921 0.872840
O O4 0.880900 0.374878 0.000000
O O5 0.331576 0.500000 0.774279
O O6 0.357407 0.634245 0.860072
O O7 0.268328 0.606888 0.826862
O O8 0.326334 0.646544 0.688215
O O9 0.500000 0.804351 0.190335
O O10 0.558627 0.673812 0.163859
O O11 0.557992 0.758985 0.316292
O O12 0.417096 0.500000 0.877600
O O13 0.413902 0.622772 0.000000
O O14 0.250000 0.250000 0.097535
O O15 0.261592 0.109034 0.000000
O O16 0.661814 0.355086 0.500000
O O17 0.659781 0.500000 0.405882
O O18 0.594510 0.380608 0.388183
O O19 0.445638 0.276119 0.500000
O O20 0.500000 0.350850 0.385904
#
# Coordination Sequence:
#
# PCOD9483810 Si02
#       7
#    16  16  16  16  16  16  16
#     4  10  22  39  57  80 110 143 184 232 275 316
#     4  10  18  30  49  72 100 137 172 206 254 311
#     4  11  22  36  56  78 104 142 183 225 278 335
#     4  10  20  32  47  73 110 147 182 219 261 319
#     4  10  20  33  53  79 106 136 171 215 265 318
#     4   9  17  29  47  73 105 141 179 218 262 316
#     4   9  18  32  51  75 102 135 178 229 277 320
#
# _framework density 17.609162000000001
#
# number of rings (size 3 to 8) (size 9 to 14) (size 15 to 20)
#    0.000    2.143    1.429    2.143    0.000    4.571 
#    0.000    4.286    0.000    1.714    0.000    2.000 
#    0.000    0.000    0.000    0.000    0.000    0.000 
#
# Total GULP energy -311916.317556 kJ/mol
# GULP energy per Si atom -5569.934242 kJ/mol
# Density = 1.756908 g / cm^3
# Si number density = 17.609162 Si / 1000 Ang^3
#
#
#
# Elastic Constant Matrix: (Units=GPa)
#
#
# Indices 1 2 3 4 5 6 
#
# 1 92.9646 14.6905 57.9195 0.0000 0.0000 0.0000
# 2 14.6905 42.1772 21.5366 0.0000 0.0000 0.0000
# 3 57.9195 21.5366 114.8471 0.0000 0.0000 0.0000
# 4 0.0000 0.0000 0.0000 8.1662 0.0000 0.0000
# 5 0.0000 0.0000 0.0000 0.0000 18.7122 0.0000
# 6 0.0000 0.0000 0.0000 0.0000 0.0000 19.5813
#
#
#
# Elastic Compliance Matrix: (Units=1/GPa)
#
#
# Indices 1 2 3 4 5 6 
#
# 1 0.015780 -0.001584 -0.007661 0.000000 0.000000 0.000000
# 2 -0.001584 0.026379 -0.004148 0.000000 0.000000 0.000000
# 3 -0.007661 -0.004148 0.013349 0.000000 0.000000 0.000000
# 4 0.000000 0.000000 0.000000 0.122456 0.000000 0.000000
# 5 0.000000 0.000000 0.000000 0.000000 0.053441 0.000000
# 6 0.000000 0.000000 0.000000 0.000000 0.000000 0.051069
#
#
# Mechanical properties :
#
#
# Convention : Reuss Voigt Hill
#
# Bulk Modulus (GPa) = 34.81692 48.69803 41.75748
# Shear Modulus (GPa) = 15.68212 19.68143 17.68178
#
# Velocity S-wave (km/s) = 2.98747 3.34680 3.17223
# Velocity P-wave (km/s) = 5.63160 6.53068 6.09773
#
# Compressibility (1/GPa) = 0.02872166
#
# Stress axis : x y z
#
# Youngs Moduli (GPa) = 63.37020 37.90862 74.91361
#
# Poissons Ratio (x) = 0.06006 0.57393
# Poissons Ratio (y) = 0.10040 0.31072
# Poissons Ratio (z) = 0.48549 0.15723
#
# Static dielectric constant tensor:
#      x y z
#    x 1.595710 0.000000 0.000000 
#    y 0.000000 1.624200 0.000000 
#    z 0.000000 0.000000 1.649680 
# 
# From -- ./inp_files/41062.got.cif
#   From: 2010.05.17/outbox.cif.g08.bks.cpg/sg65_21_cif.got.tgz:41062.got - 2010.06.03 17:01:31.
