data_PCOD9483802
_publ_section_title
;
Structure prediction by ZEFSAII (Michael W. Deem and Ramdas Pophale) SiO2 
 PCOD9483802
Probable space group: C M M M
;
_chemical_formula_sum "Si O2"
_cell_formula_units_Z 88
_cell_length_a 24.131665
_cell_length_b 14.405649
_cell_length_c 16.589780
_cell_angle_alpha 90.000000
_cell_angle_beta 90.000000
_cell_angle_gamma 90.000000
_cell_volume 5767.143308
_symmetry_space_group_name_H-M "C M M M"
_symmetry_group_IT_number 65
_symmetry_cell_setting 'orthorhombic'
loop_
_space_group_symop_operation_xyz
x,y,z
-x,-y,z
x,-y,-z
-x,y,-z
-x,-y,-z
x,y,-z
-x,y,z
x,-y,z
1/2+x,1/2+y,z
1/2-x,1/2-y,z
1/2+x,1/2-y,-z
1/2-x,1/2+y,-z
1/2-x,1/2-y,-z
1/2+x,1/2+y,-z
1/2-x,1/2+y,z
1/2+x,1/2-y,z
loop_
_atom_site_type_symbol
_atom_site_label
_atom_site_fract_x
_atom_site_fract_y
_atom_site_fract_z
Si Si1 0.000000 0.104548 0.245995
Si Si2 0.000000 0.181207 0.411904
Si Si3 0.263273 0.500000 0.403938
Si Si4 0.301333 0.318823 0.698101
Si Si5 0.611995 0.202535 0.405805
Si Si6 0.370357 0.000000 0.593674
Si Si7 0.565508 0.612293 0.000000
Si Si8 0.385897 0.387359 0.828184
O O1 0.000000 0.107337 0.341504
O O2 0.942119 0.145599 0.216943
O O3 0.000000 0.000000 0.212627
O O4 0.946461 0.246067 0.404011
O O5 0.000000 0.137568 0.500000
O O6 0.279770 0.500000 0.500000
O O7 0.283875 0.590753 0.354762
O O8 0.196373 0.500000 0.402818
O O9 0.250000 0.250000 0.713713
O O10 0.344256 0.261511 0.643669
O O11 0.333275 0.348223 0.779978
O O12 0.630057 0.197304 0.500000
O O13 0.608888 0.097735 0.372537
O O14 0.388210 0.000000 0.500000
O O15 0.600310 0.638541 0.079561
O O16 0.562262 0.500000 0.000000
O O17 0.500000 0.643255 0.000000
O O18 0.381999 0.500000 0.823233
#
# Coordination Sequence:
#
# PCOD9483802 Si02
#       8
#     8   8   8  16  16   8   8  16
#     4  10  18  30  49  71 101 134 162 198 249 304
#     4  10  20  32  45  67  99 134 168 207 256 303
#     4  11  22  34  49  70  99 139 186 220 246 285
#     4  12  22  33  50  73 102 138 172 208 253 299
#     4  10  20  33  49  68  95 130 170 214 255 295
#     4   9  18  33  50  67  88 124 175 225 251 275
#     4   9  16  30  55  82 100 125 160 198 250 313
#     4  10  19  33  52  77 103 127 160 206 255 303
#
# _framework density 15.258853999999999
#
# number of rings (size 3 to 8) (size 9 to 14) (size 15 to 20)
#    0.000    1.727    5.455    0.545    0.000    1.273 
#    0.000    2.273    0.000    0.000    0.000    0.000 
#    0.000    0.000    0.000    5.273    0.000    0.000 
#
# Total GULP energy -244992.867297 kJ/mol
# GULP energy per Si atom -5568.019711 kJ/mol
# Density = 1.522412 g / cm^3
# Si number density = 15.258854 Si / 1000 Ang^3
#
#
#
# Elastic Constant Matrix: (Units=GPa)
#
#
# Indices 1 2 3 4 5 6 
#
# 1 88.3946 23.0000 50.2133 0.0000 0.0000 0.0000
# 2 23.0000 62.4798 28.5177 0.0000 0.0000 0.0000
# 3 50.2133 28.5177 112.9768 0.0000 0.0000 0.0000
# 4 0.0000 0.0000 0.0000 8.1217 0.0000 0.0000
# 5 0.0000 0.0000 0.0000 0.0000 5.1613 0.0000
# 6 0.0000 0.0000 0.0000 0.0000 0.0000 8.4192
#
#
#
# Elastic Compliance Matrix: (Units=1/GPa)
#
#
# Indices 1 2 3 4 5 6 
#
# 1 0.015589 -0.002912 -0.006194 0.000000 0.000000 0.000000
# 2 -0.002912 0.018633 -0.003409 0.000000 0.000000 0.000000
# 3 -0.006194 -0.003409 0.012465 0.000000 0.000000 0.000000
# 4 0.000000 0.000000 0.000000 0.123128 0.000000 0.000000
# 5 0.000000 0.000000 0.000000 0.000000 0.193749 0.000000
# 6 0.000000 0.000000 0.000000 0.000000 0.000000 0.118776
#
#
# Mechanical properties :
#
#
# Convention : Reuss Voigt Hill
#
# Bulk Modulus (GPa) = 46.17303 51.92368 49.04835
# Shear Modulus (GPa) = 9.71651 15.14844 12.43247
#
# Velocity S-wave (km/s) = 2.52618 3.15423 2.85752
# Velocity P-wave (km/s) = 6.23172 6.88244 6.56515
#
# Compressibility (1/GPa) = 0.02165766
#
# Stress axis : x y z
#
# Youngs Moduli (GPa) = 64.14846 53.66795 80.22617
#
# Poissons Ratio (x) = 0.15626 0.49689
# Poissons Ratio (y) = 0.18677 0.27352
# Poissons Ratio (z) = 0.39731 0.18297
#
# Static dielectric constant tensor:
#      x y z
#    x 1.508780 0.000000 0.000000 
#    y 0.000000 1.515970 0.000000 
#    z 0.000000 0.000000 1.519090 
# 
# From -- ./inp_files/45642.got.cif
#   From: 2010.05.17/outbox.cif.g08.bks.cpg/sg65_23_cif.got.tgz:45642.got - 2010.06.03 17:01:31.
