data_PCOD9483557
_publ_section_title
;
Structure prediction by ZEFSAII (Michael W. Deem and Ramdas Pophale) SiO2 
 PCOD9483557
Probable space group: C M M M
;
_chemical_formula_sum "Si O2"
_cell_formula_units_Z 104
_cell_length_a 29.048952
_cell_length_b 24.731402
_cell_length_c 9.061889
_cell_angle_alpha 90.000000
_cell_angle_beta 90.000000
_cell_angle_gamma 90.000000
_cell_volume 6510.254163
_symmetry_space_group_name_H-M "C M M M"
_symmetry_group_IT_number 65
_symmetry_cell_setting 'orthorhombic'
loop_
_space_group_symop_operation_xyz
x,y,z
-x,-y,z
x,-y,-z
-x,y,-z
-x,-y,-z
x,y,-z
-x,y,z
x,-y,z
1/2+x,1/2+y,z
1/2-x,1/2-y,z
1/2+x,1/2-y,-z
1/2-x,1/2+y,-z
1/2-x,1/2-y,-z
1/2+x,1/2+y,-z
1/2-x,1/2+y,z
1/2+x,1/2-y,z
loop_
_atom_site_type_symbol
_atom_site_label
_atom_site_fract_x
_atom_site_fract_y
_atom_site_fract_z
Si Si1 0.725152 0.065671 0.169654
Si Si2 0.446733 0.148769 0.677453
Si Si3 0.500000 0.438128 0.679463
Si Si4 0.319838 0.563250 0.322679
Si Si5 0.630422 0.937218 0.322457
Si Si6 0.089675 0.869612 0.678383
Si Si7 0.054349 0.763460 0.824108
O O1 0.772297 0.082059 0.249343
O O2 0.678376 0.081921 0.251687
O O3 0.725278 0.000000 0.173327
O O4 0.724696 0.083040 0.000000
O O5 0.444081 0.155812 0.500000
O O6 0.500000 0.135721 0.713694
O O7 0.411793 0.101263 0.719939
O O8 0.434623 0.205112 0.755429
O O9 0.500000 0.500000 0.731367
O O10 0.500000 0.439551 0.500000
O O11 0.545879 0.406201 0.723639
O O12 0.314978 0.565174 0.500000
O O13 0.328021 0.500000 0.283232
O O14 0.363438 0.599614 0.280894
O O15 0.634876 0.935894 0.500000
O O16 0.622424 0.000000 0.279924
O O17 0.088548 0.864389 0.500000
O O18 0.083330 0.811379 0.751377
O O19 0.000000 0.773662 0.791460
O O20 0.060042 0.762656 0.000000
#
# Coordination Sequence:
#
# PCOD9483557 Si02
#       7
#    16  16   8  16  16  16  16
#     4   9  17  29  46  68  95 129 164 194 228 278
#     4   9  18  32  51  74  99 127 159 193 230 278
#     4   9  16  26  43  69  97 123 154 195 242 289
#     4   9  17  29  46  70  97 124 158 200 244 287
#     4   9  17  30  50  76 103 128 153 187 233 281
#     4  10  18  29  48  70  93 124 161 202 243 286
#     4  10  20  33  48  66  92 127 167 204 237 277
#
# _framework density 15.974799000000001
#
# number of rings (size 3 to 8) (size 9 to 14) (size 15 to 20)
#    0.000    2.692    0.769    1.385    0.000    5.846 
#    0.000    1.538    0.000    2.769    0.000   10.769 
#    0.000    0.000    0.000    0.000    0.000    0.000 
#
# Total GULP energy -289826.950810 kJ/mol
# GULP energy per Si atom -5573.595208 kJ/mol
# Density = 1.593844 g / cm^3
# Si number density = 15.974799 Si / 1000 Ang^3
#
#
#
# Elastic Constant Matrix: (Units=GPa)
#
#
# Indices 1 2 3 4 5 6 
#
# 1 150.3647 90.8917 48.5004 0.0000 0.0000 0.0000
# 2 90.8917 103.5032 39.9138 0.0000 0.0000 0.0000
# 3 48.5004 39.9138 26.9787 0.0000 0.0000 0.0000
# 4 0.0000 0.0000 0.0000 11.7593 0.0000 0.0000
# 5 0.0000 0.0000 0.0000 0.0000 13.2936 0.0000
# 6 0.0000 0.0000 0.0000 0.0000 0.0000 9.7662
#
#
#
# Elastic Compliance Matrix: (Units=1/GPa)
#
#
# Indices 1 2 3 4 5 6 
#
# 1 0.018203 -0.007837 -0.021130 0.000000 0.000000 0.000000
# 2 -0.007837 0.025870 -0.024185 0.000000 0.000000 0.000000
# 3 -0.021130 -0.024185 0.110834 0.000000 0.000000 0.000000
# 4 0.000000 0.000000 0.000000 0.085039 0.000000 0.000000
# 5 0.000000 0.000000 0.000000 0.000000 0.075224 0.000000
# 6 0.000000 0.000000 0.000000 0.000000 0.000000 0.102394
#
#
# Mechanical properties :
#
#
# Convention : Reuss Voigt Hill
#
# Bulk Modulus (GPa) = 20.57500 71.05094 45.81297
# Shear Modulus (GPa) = 9.25806 13.73319 11.49562
#
# Velocity S-wave (km/s) = 2.40998 2.93521 2.68546
# Velocity P-wave (km/s) = 4.54441 7.48737 6.19324
#
# Compressibility (1/GPa) = 0.04860266
#
# Stress axis : x y z
#
# Youngs Moduli (GPa) = 54.93508 38.65503 9.02250
#
# Poissons Ratio (x) = 0.30293 0.19065
# Poissons Ratio (y) = 0.43051 0.21821
# Poissons Ratio (z) = 1.16081 0.93487
#
# Static dielectric constant tensor:
#      x y z
#    x 1.523010 0.000000 0.000000 
#    y 0.000000 1.513090 0.000000 
#    z 0.000000 0.000000 1.529370 
# 
# From -- ./inp_files/14819.got.cif
#   From: 2010.05.17/outbox.cif.g08.bks.cpg/sg65_8_cif.got.tgz:14819.got - 2010.06.03 17:01:31.
