data_PCOD9483643
_publ_section_title
;
Structure prediction by ZEFSAII (Michael W. Deem and Ramdas Pophale) SiO2 
 PCOD9483643
Probable space group: C M M M
;
_chemical_formula_sum "Si O2"
_cell_formula_units_Z 88
_cell_length_a 8.006324
_cell_length_b 24.308071
_cell_length_c 25.320257
_cell_angle_alpha 90.000000
_cell_angle_beta 90.000000
_cell_angle_gamma 90.000000
_cell_volume 4927.785176
_symmetry_space_group_name_H-M "C M M M"
_symmetry_group_IT_number 65
_symmetry_cell_setting 'orthorhombic'
loop_
_space_group_symop_operation_xyz
x,y,z
-x,-y,z
x,-y,-z
-x,y,-z
-x,-y,-z
x,y,-z
-x,y,z
x,-y,z
1/2+x,1/2+y,z
1/2-x,1/2-y,z
1/2+x,1/2-y,-z
1/2-x,1/2+y,-z
1/2-x,1/2-y,-z
1/2+x,1/2+y,-z
1/2-x,1/2+y,z
1/2+x,1/2-y,z
loop_
_atom_site_type_symbol
_atom_site_label
_atom_site_fract_x
_atom_site_fract_y
_atom_site_fract_z
Si Si1 0.698669 0.186789 0.837117
Si Si2 0.310024 0.434441 0.365820
Si Si3 0.000000 0.433415 0.439947
Si Si4 0.300683 0.111119 0.257091
Si Si5 0.306531 0.000000 0.191395
Si Si6 0.201869 0.878413 0.942526
Si Si7 0.808840 0.000000 0.922945
O O1 0.500000 0.183052 0.833704
O O2 0.750000 0.250000 0.840165
O O3 0.763466 0.157417 0.783577
O O4 0.747792 0.154854 0.890573
O O5 0.500000 0.428845 0.385548
O O6 0.285056 0.500000 0.352980
O O7 0.285796 0.398471 0.313118
O O8 0.166858 0.418652 0.407522
O O9 0.000000 0.500000 0.442416
O O10 0.000000 0.412625 0.500000
O O11 0.500000 0.118767 0.266552
O O12 0.280289 0.054030 0.225655
O O13 0.194045 0.000000 0.140192
O O14 0.500000 0.000000 0.173224
O O15 0.265996 0.941449 0.939345
O O16 0.000000 0.880452 0.941641
O O17 0.252860 0.855121 0.000000
O O18 0.000000 0.000000 0.941812
#
# Coordination Sequence:
#
# PCOD9483643 Si02
#       7
#    16  16   8  16   8  16   8
#     4  11  24  40  57  76 101 137 176 222 277 331
#     4  10  19  29  49  79 109 148 193 227 268 324
#     4   9  18  32  48  70 114 162 193 229 267 304
#     4  10  19  33  53  75 106 140 172 218 277 331
#     4  10  18  29  51  77 104 133 165 208 268 331
#     4  10  21  37  56  77 103 135 172 216 267 328
#     4  10  19  32  52  80 108 130 165 211 269 326
#
# _framework density 17.857921999999999
#
# number of rings (size 3 to 8) (size 9 to 14) (size 15 to 20)
#    0.000    1.909    3.636    0.818    0.000    4.364 
#    0.000    1.818    0.000    1.636    0.000    0.000 
#    0.000    0.727    0.364    0.000    0.000    0.000 
#
# Total GULP energy -245399.581087 kJ/mol
# GULP energy per Si atom -5577.263207 kJ/mol
# Density = 1.781728 g / cm^3
# Si number density = 17.857922 Si / 1000 Ang^3
#
#
#
# Elastic Constant Matrix: (Units=GPa)
#
#
# Indices 1 2 3 4 5 6 
#
# 1 69.4632 21.9420 61.8947 0.0000 0.0000 0.0000
# 2 21.9420 87.8874 43.2131 0.0000 0.0000 0.0000
# 3 61.8947 43.2131 143.5441 0.0000 0.0000 0.0000
# 4 0.0000 0.0000 0.0000 -22.3347 0.0000 0.0000
# 5 0.0000 0.0000 0.0000 0.0000 12.9543 0.0000
# 6 0.0000 0.0000 0.0000 0.0000 0.0000 3.8106
#
#
#
# Elastic Compliance Matrix: (Units=1/GPa)
#
#
# Indices 1 2 3 4 5 6 
#
# 1 0.023458 -0.001037 -0.009803 0.000000 0.000000 0.000000
# 2 -0.001037 0.013401 -0.003587 0.000000 0.000000 0.000000
# 3 -0.009803 -0.003587 0.012273 0.000000 0.000000 0.000000
# 4 0.000000 0.000000 0.000000 -0.044773 0.000000 0.000000
# 5 0.000000 0.000000 0.000000 0.000000 0.077195 0.000000
# 6 0.000000 0.000000 0.000000 0.000000 0.000000 0.262426
#
#
# Mechanical properties :
#
#
# Convention : Reuss Voigt Hill
#
# Bulk Modulus (GPa) = 49.31235 61.66601 55.48918
# Shear Modulus (GPa) = 13.17200 10.47570 11.82385
#
# Velocity S-wave (km/s) = 2.71882 2.42464 2.57593
# Velocity P-wave (km/s) = 6.12615 6.51498 6.32355
#
# Compressibility (1/GPa) = 0.02027890
#
# Stress axis : x y z
#
# Youngs Moduli (GPa) = 42.62864 74.62245 81.47742
#
# Poissons Ratio (x) = 0.07736 0.79872
# Poissons Ratio (y) = 0.04419 0.29228
# Poissons Ratio (z) = 0.41789 0.26769
#
# Static dielectric constant tensor:
#      x y z
#    x 1.640630 0.000000 0.000000 
#    y 0.000000 1.522870 0.000000 
#    z 0.000000 0.000000 1.608930 
# 
# From -- ./inp_files/67687.got.cif
#   From: 2010.05.17/outbox.cif.g08.bks.cpg/sg65_34_cif.got.tgz:67687.got - 2010.06.03 17:01:31.
