data_PCOD9483602
_publ_section_title
;
Structure prediction by ZEFSAII (Michael W. Deem and Ramdas Pophale) SiO2 
 PCOD9483602
Probable space group: C M M M
;
_chemical_formula_sum "Si O2"
_cell_formula_units_Z 112
_cell_length_a 24.138145
_cell_length_b 20.696016
_cell_length_c 13.519603
_cell_angle_alpha 90.000000
_cell_angle_beta 90.000000
_cell_angle_gamma 90.000000
_cell_volume 6753.899316
_symmetry_space_group_name_H-M "C M M M"
_symmetry_group_IT_number 65
_symmetry_cell_setting 'orthorhombic'
loop_
_space_group_symop_operation_xyz
x,y,z
-x,-y,z
x,-y,-z
-x,y,-z
-x,-y,-z
x,y,-z
-x,y,z
x,-y,z
1/2+x,1/2+y,z
1/2-x,1/2-y,z
1/2+x,1/2-y,-z
1/2-x,1/2+y,-z
1/2-x,1/2-y,-z
1/2+x,1/2+y,-z
1/2-x,1/2+y,z
1/2+x,1/2-y,z
loop_
_atom_site_type_symbol
_atom_site_label
_atom_site_fract_x
_atom_site_fract_y
_atom_site_fract_z
Si Si1 0.736974 0.176220 0.777498
Si Si2 0.644387 0.202768 0.382453
Si Si3 0.435871 0.865172 0.761687
Si Si4 0.061876 0.077232 0.386865
Si Si5 0.841206 0.426129 0.883456
Si Si6 0.436991 0.268108 0.116239
Si Si7 0.860651 0.836037 0.731490
O O1 0.750000 0.250000 0.813815
O O2 0.699525 0.182960 0.678622
O O3 0.702090 0.129246 0.848796
O O4 0.797070 0.148900 0.752469
O O5 0.649641 0.198092 0.500000
O O6 0.594712 0.158853 0.338244
O O7 0.634782 0.276348 0.346101
O O8 0.500000 0.884105 0.747846
O O9 0.396369 0.915664 0.817673
O O10 0.434646 0.801987 0.832633
O O11 0.072906 0.097331 0.500000
O O12 0.106731 0.105023 0.314301
O O13 0.000000 0.100570 0.360595
O O14 0.061343 0.000000 0.384974
O O15 0.820845 0.500000 0.868668
O O16 0.853254 0.418057 0.000000
O O17 0.500000 0.292739 0.131003
O O18 0.391844 0.311492 0.170598
O O19 0.426695 0.262591 0.000000
#
# Coordination Sequence:
#
# PCOD9483602 Si02
#       7
#    16  16  16  16  16  16  16
#     4   9  20  34  50  74 101 131 166 205 249 297
#     4   9  18  32  49  73 104 129 154 199 250 289
#     4   9  18  32  50  74 101 129 162 197 239 296
#     4   9  18  31  45  64  92 122 153 196 247 293
#     4  10  21  36  53  74 102 134 168 212 261 300
#     4   9  17  29  46  70  99 125 152 195 247 294
#     4  10  18  29  49  72  92 124 166 201 241 296
#
# _framework density 16.583013000000001
#
# number of rings (size 3 to 8) (size 9 to 14) (size 15 to 20)
#    0.000    2.714    0.000    2.571    0.000    6.571 
#    0.000    0.714    0.000    7.286    0.000    6.000 
#    0.000    0.000    0.000    0.000    0.000    0.000 
#
# Total GULP energy -311991.209429 kJ/mol
# GULP energy per Si atom -5571.271597 kJ/mol
# Density = 1.654527 g / cm^3
# Si number density = 16.583013 Si / 1000 Ang^3
#
#
#
# Elastic Constant Matrix: (Units=GPa)
#
#
# Indices 1 2 3 4 5 6 
#
# 1 90.7967 28.7985 23.7221 0.0000 0.0000 0.0000
# 2 28.7985 34.4146 19.6062 0.0000 0.0000 0.0000
# 3 23.7221 19.6062 75.7425 0.0000 0.0000 0.0000
# 4 0.0000 0.0000 0.0000 18.6602 0.0000 0.0000
# 5 0.0000 0.0000 0.0000 0.0000 17.6401 0.0000
# 6 0.0000 0.0000 0.0000 0.0000 0.0000 25.1060
#
#
#
# Elastic Compliance Matrix: (Units=1/GPa)
#
#
# Indices 1 2 3 4 5 6 
#
# 1 0.015182 -0.011724 -0.001720 0.000000 0.000000 0.000000
# 2 -0.011724 0.043138 -0.007494 0.000000 0.000000 0.000000
# 3 -0.001720 -0.007494 0.015681 0.000000 0.000000 0.000000
# 4 0.000000 0.000000 0.000000 0.053590 0.000000 0.000000
# 5 0.000000 0.000000 0.000000 0.000000 0.056689 0.000000
# 6 0.000000 0.000000 0.000000 0.000000 0.000000 0.039831
#
#
# Mechanical properties :
#
#
# Convention : Reuss Voigt Hill
#
# Bulk Modulus (GPa) = 31.12973 38.35637 34.74305
# Shear Modulus (GPa) = 18.07034 20.86973 19.47003
#
# Velocity S-wave (km/s) = 3.30463 3.55138 3.43022
# Velocity P-wave (km/s) = 5.77698 6.32428 6.05682
#
# Compressibility (1/GPa) = 0.03212363
#
# Stress axis : x y z
#
# Youngs Moduli (GPa) = 65.86901 23.18132 63.77038
#
# Poissons Ratio (x) = 0.27179 0.10968
# Poissons Ratio (y) = 0.77227 0.47793
# Poissons Ratio (z) = 0.11329 0.17373
#
# Static dielectric constant tensor:
#      x y z
#    x 1.571280 0.000000 0.000000 
#    y 0.000000 1.560150 0.000000 
#    z 0.000000 0.000000 1.534030 
# 
# From -- ./inp_files/31079.got.cif
#   From: 2010.05.17/outbox.cif.g08.bks.cpg/sg65_16_cif.got.tgz:31079.got - 2010.06.03 17:01:31.
