data_PCOD9483897
_publ_section_title
;
Structure prediction by ZEFSAII (Michael W. Deem and Ramdas Pophale) SiO2 
 PCOD9483897
Probable space group: C M M M
;
_chemical_formula_sum "Si O2"
_cell_formula_units_Z 104
_cell_length_a 21.441144
_cell_length_b 13.934742
_cell_length_c 19.620788
_cell_angle_alpha 90.000000
_cell_angle_beta 90.000000
_cell_angle_gamma 90.000000
_cell_volume 5862.236445
_symmetry_space_group_name_H-M "C M M M"
_symmetry_group_IT_number 65
_symmetry_cell_setting 'orthorhombic'
loop_
_space_group_symop_operation_xyz
x,y,z
-x,-y,z
x,-y,-z
-x,y,-z
-x,-y,-z
x,y,-z
-x,y,z
x,-y,z
1/2+x,1/2+y,z
1/2-x,1/2-y,z
1/2+x,1/2-y,-z
1/2-x,1/2+y,-z
1/2-x,1/2-y,-z
1/2+x,1/2+y,-z
1/2-x,1/2+y,z
1/2+x,1/2-y,z
loop_
_atom_site_type_symbol
_atom_site_label
_atom_site_fract_x
_atom_site_fract_y
_atom_site_fract_z
Si Si1 0.878398 0.884867 0.720531
Si Si2 0.430238 0.289663 0.143213
Si Si3 0.076181 0.611673 0.500000
Si Si4 0.574377 0.788440 0.639094
Si Si5 0.248856 0.893055 0.216560
Si Si6 0.198852 0.164247 0.924759
Si Si7 0.888812 0.613742 0.222067
O O1 0.916050 0.853684 0.788943
O O2 0.901332 0.816961 0.659812
O O3 0.806507 0.856585 0.736164
O O4 0.883068 0.000000 0.710819
O O5 0.500000 0.310888 0.117642
O O6 0.372266 0.304878 0.092115
O O7 0.427032 0.180300 0.170504
O O8 0.095494 0.500000 0.500000
O O9 0.097002 0.667089 0.431950
O O10 0.000000 0.611530 0.500000
O O11 0.500000 0.782591 0.636042
O O12 0.591484 0.859114 0.701505
O O13 0.220939 0.895023 0.140627
O O14 0.317259 0.849435 0.213815
O O15 0.261112 0.000000 0.241621
O O16 0.250000 0.250000 0.925552
O O17 0.200872 0.119727 0.000000
O O18 0.894343 0.500000 0.209159
#
# Coordination Sequence:
#
# PCOD9483897 Si02
#       7
#    16  16   8  16  16  16  16
#     4   9  18  32  51  73 102 134 168 212 257 301
#     4  10  20  31  48  75 102 130 167 213 265 311
#     4   9  18  34  51  70 103 139 172 210 246 293
#     4  10  20  31  49  76 101 132 169 202 249 307
#     4   9  18  32  51  75  97 127 169 213 256 300
#     4  10  19  33  51  68  93 133 173 209 251 305
#     4  10  18  30  50  75 102 129 164 210 254 302
#
# _framework density 17.740670000000001
#
# number of rings (size 3 to 8) (size 9 to 14) (size 15 to 20)
#    0.000    2.385    1.538    2.308    0.000    3.692 
#    0.000    0.385    0.000    3.692    0.000    8.615 
#    0.000    0.000    0.000    0.000    0.000    0.000 
#
# Total GULP energy -289511.560976 kJ/mol
# GULP energy per Si atom -5567.530019 kJ/mol
# Density = 1.770029 g / cm^3
# Si number density = 17.740670 Si / 1000 Ang^3
#
#
#
# Elastic Constant Matrix: (Units=GPa)
#
#
# Indices 1 2 3 4 5 6 
#
# 1 100.0631 14.0830 9.6420 0.0000 0.0000 0.0000
# 2 14.0830 104.2352 20.0128 0.0000 0.0000 0.0000
# 3 9.6420 20.0128 73.3419 0.0000 0.0000 0.0000
# 4 0.0000 0.0000 0.0000 14.2105 0.0000 0.0000
# 5 0.0000 0.0000 0.0000 0.0000 -40.2054 0.0000
# 6 0.0000 0.0000 0.0000 0.0000 0.0000 7.9012
#
#
#
# Elastic Compliance Matrix: (Units=1/GPa)
#
#
# Indices 1 2 3 4 5 6 
#
# 1 0.010260 -0.001190 -0.001024 0.000000 0.000000 0.000000
# 2 -0.001190 0.010262 -0.002644 0.000000 0.000000 0.000000
# 3 -0.001024 -0.002644 0.014491 0.000000 0.000000 0.000000
# 4 0.000000 0.000000 0.000000 0.070371 0.000000 0.000000
# 5 0.000000 0.000000 0.000000 0.000000 -0.024872 0.000000
# 6 0.000000 0.000000 0.000000 0.000000 0.000000 0.126564
#
#
# Mechanical properties :
#
#
# Convention : Reuss Voigt Hill
#
# Bulk Modulus (GPa) = 39.52963 40.56845 40.04904
# Shear Modulus (GPa) = 22.20029 11.97474 17.08752
#
# Velocity S-wave (km/s) = 3.54132 2.60087 3.10689
# Velocity P-wave (km/s) = 6.24913 5.65124 5.95769
#
# Compressibility (1/GPa) = 0.02529748
#
# Stress axis : x y z
#
# Youngs Moduli (GPa) = 97.46778 97.44683 69.00914
#
# Poissons Ratio (x) = 0.11592 0.07068
# Poissons Ratio (y) = 0.11594 0.18245
# Poissons Ratio (z) = 0.09983 0.25763
#
# Static dielectric constant tensor:
#      x y z
#    x 1.644580 0.000000 0.000000 
#    y 0.000000 1.627260 0.000000 
#    z 0.000000 0.000000 1.583930 
# 
# From -- ./inp_files/64688.got.cif
#   From: 2010.05.17/outbox.cif.g08.bks.cpg/sg65_33_cif.got.tgz:64688.got - 2010.06.03 17:01:31.
