data_PCOD9483495
_publ_section_title
;
Structure prediction by ZEFSAII (Michael W. Deem and Ramdas Pophale) SiO2 
 PCOD9483495
Probable space group: C M M M
;
_chemical_formula_sum "Si O2"
_cell_formula_units_Z 104
_cell_length_a 29.724402
_cell_length_b 7.847908
_cell_length_c 23.846403
_cell_angle_alpha 90.000000
_cell_angle_beta 90.000000
_cell_angle_gamma 90.000000
_cell_volume 5562.754690
_symmetry_space_group_name_H-M "C M M M"
_symmetry_group_IT_number 65
_symmetry_cell_setting 'orthorhombic'
loop_
_space_group_symop_operation_xyz
x,y,z
-x,-y,z
x,-y,-z
-x,y,-z
-x,-y,-z
x,y,-z
-x,y,z
x,-y,z
1/2+x,1/2+y,z
1/2-x,1/2-y,z
1/2+x,1/2-y,-z
1/2-x,1/2+y,-z
1/2-x,1/2-y,-z
1/2+x,1/2+y,-z
1/2-x,1/2+y,z
1/2+x,1/2-y,z
loop_
_atom_site_type_symbol
_atom_site_label
_atom_site_fract_x
_atom_site_fract_y
_atom_site_fract_z
Si Si1 0.106014 0.795855 0.109011
Si Si2 0.948256 0.292015 0.563430
Si Si3 0.700043 0.797442 0.281020
Si Si4 0.052028 0.209174 0.000000
Si Si5 0.892514 0.291149 0.669962
Si Si6 0.448474 0.206080 0.779413
Si Si7 0.300220 0.701405 0.849930
O O1 0.078685 0.761988 0.165887
O O2 0.156655 0.725974 0.117351
O O3 0.109193 0.000000 0.102063
O O4 0.078458 0.732115 0.055409
O O5 0.936968 0.237781 0.500000
O O6 0.947697 0.500000 0.563653
O O7 0.914771 0.233550 0.611967
O O8 0.000000 0.242135 0.575424
O O9 0.750000 0.750000 0.300445
O O10 0.658216 0.732148 0.317372
O O11 0.695138 0.743302 0.216113
O O12 0.697357 0.000000 0.280957
O O13 0.000000 0.263402 0.000000
O O14 0.051590 0.000000 0.000000
O O15 0.892407 0.500000 0.668939
O O16 0.923143 0.239160 0.722847
O O17 0.500000 0.265994 0.780999
O O18 0.448943 0.000000 0.778968
O O19 0.302635 0.500000 0.854701
O O20 0.250000 0.750000 0.868308
#
# Coordination Sequence:
#
# PCOD9483495 Si02
#       7
#    16  16  16   8  16  16  16
#     4  10  20  34  52  72  94 123 160 198 233 276
#     4   8  13  22  38  61  90 124 160 194 227 271
#     4  10  18  29  46  67  94 125 155 191 234 284
#     4   9  18  34  54  71  91 125 163 195 228 273
#     4   9  16  26  41  64  93 124 155 189 237 285
#     4  10  19  30  46  69  98 127 153 190 240 287
#     4  10  19  31  49  72  96 122 153 193 238 284
#
# _framework density 18.695772000000002
#
# number of rings (size 3 to 8) (size 9 to 14) (size 15 to 20)
#    0.000    2.538    1.538    3.231    0.000    3.385 
#    0.000    0.769    0.000    1.846    0.000    0.000 
#    0.000    4.923    0.000   17.077    0.000   16.000 
#
# Total GULP energy -290052.621513 kJ/mol
# GULP energy per Si atom -5577.935029 kJ/mol
# Density = 1.865322 g / cm^3
# Si number density = 18.695772 Si / 1000 Ang^3
#
#
#
# Elastic Constant Matrix: (Units=GPa)
#
#
# Indices 1 2 3 4 5 6 
#
# 1 214.0858 10.7596 111.4483 0.0000 0.0000 0.0000
# 2 10.7596 21.9813 3.1988 0.0000 0.0000 0.0000
# 3 111.4483 3.1988 138.9499 0.0000 0.0000 0.0000
# 4 0.0000 0.0000 0.0000 117.9904 0.0000 0.0000
# 5 0.0000 0.0000 0.0000 0.0000 34.4226 0.0000
# 6 0.0000 0.0000 0.0000 0.0000 0.0000 -47.5816
#
#
#
# Elastic Compliance Matrix: (Units=1/GPa)
#
#
# Indices 1 2 3 4 5 6 
#
# 1 0.008222 -0.003075 -0.006524 0.000000 0.000000 0.000000
# 2 -0.003075 0.046796 0.001389 0.000000 0.000000 0.000000
# 3 -0.006524 0.001389 0.012397 0.000000 0.000000 0.000000
# 4 0.000000 0.000000 0.000000 0.008475 0.000000 0.000000
# 5 0.000000 0.000000 0.000000 0.000000 0.029051 0.000000
# 6 0.000000 0.000000 0.000000 0.000000 0.000000 -0.021017
#
#
# Mechanical properties :
#
#
# Convention : Reuss Voigt Hill
#
# Bulk Modulus (GPa) = 19.60935 69.53673 44.57304
# Shear Modulus (GPa) = 42.61046 37.60696 40.10871
#
# Velocity S-wave (km/s) = 4.77922 4.48987 4.63680
# Velocity P-wave (km/s) = 6.40047 8.00956 7.24980
#
# Compressibility (1/GPa) = 0.05099607
#
# Stress axis : x y z
#
# Youngs Moduli (GPa) = 121.63120 21.36925 80.66324
#
# Poissons Ratio (x) = 0.06571 0.52621
# Poissons Ratio (y) = 0.37402 -0.11205
# Poissons Ratio (z) = 0.79346 -0.02968
#
# Static dielectric constant tensor:
#      x y z
#    x 1.681700 0.000000 0.000000 
#    y 0.000000 1.676950 0.000000 
#    z 0.000000 0.000000 1.618310 
# 
# From -- ./inp_files/72177.got.cif
#   From: 2010.05.17/outbox.cif.g08.bks.cpg/sg65_37_cif.got.tgz:72177.got - 2010.06.03 17:01:31.
