data_PCOD9483139
_publ_section_title
;
Structure prediction by ZEFSAII (Michael W. Deem and Ramdas Pophale) SiO2 
 PCOD9483139
Probable space group: C M M M
;
_chemical_formula_sum "Si O2"
_cell_formula_units_Z 96
_cell_length_a 8.312553
_cell_length_b 28.149229
_cell_length_c 25.174733
_cell_angle_alpha 90.000000
_cell_angle_beta 90.000000
_cell_angle_gamma 90.000000
_cell_volume 5890.685066
_symmetry_space_group_name_H-M "C M M M"
_symmetry_group_IT_number 65
_symmetry_cell_setting 'orthorhombic'
loop_
_space_group_symop_operation_xyz
x,y,z
-x,-y,z
x,-y,-z
-x,y,-z
-x,-y,-z
x,y,-z
-x,y,z
x,-y,z
1/2+x,1/2+y,z
1/2-x,1/2-y,z
1/2+x,1/2-y,-z
1/2-x,1/2+y,-z
1/2-x,1/2-y,-z
1/2+x,1/2+y,-z
1/2-x,1/2+y,z
1/2+x,1/2-y,z
loop_
_atom_site_type_symbol
_atom_site_label
_atom_site_fract_x
_atom_site_fract_y
_atom_site_fract_z
Si Si1 0.806693 0.304706 0.173260
Si Si2 0.693032 0.602837 0.558960
Si Si3 0.189887 0.302738 0.613293
Si Si4 0.194269 0.304834 0.942924
Si Si5 0.807640 0.850485 0.280859
Si Si6 0.803653 0.052971 0.334418
O O1 0.750000 0.250000 0.178114
O O2 0.753223 0.323461 0.114849
O O3 0.740418 0.334180 0.222503
O O4 0.000000 0.305165 0.175228
O O5 0.756642 0.592972 0.500000
O O6 0.500000 0.597975 0.557374
O O7 0.731685 0.656430 0.577107
O O8 0.750191 0.568759 0.606513
O O9 0.250000 0.250000 0.601261
O O10 0.233422 0.316470 0.674036
O O11 0.000000 0.304948 0.606436
O O12 0.250000 0.250000 0.943122
O O13 0.000000 0.305905 0.942932
O O14 0.249038 0.325643 0.000000
O O15 0.755696 0.904211 0.295444
O O16 0.000000 0.847771 0.286772
O O17 0.000000 0.052371 0.334637
O O18 0.748398 0.000000 0.321042
#
# Coordination Sequence:
#
# PCOD9483139 Si02
#       6
#    16  16  16  16  16  16
#     4  10  18  27  41  62  89 120 152 182 213 250
#     4   9  18  32  49  70  93 113 137 170 207 252
#     4  11  21  33  48  64  86 116 148 179 212 249
#     4   8  14  24  37  54  79 113 150 183 212 243
#     4  10  19  31  46  65  89 113 142 179 216 257
#     4   8  15  29  49  70  88 108 136 172 214 257
#
# _framework density 16.296916
#
# number of rings (size 3 to 8) (size 9 to 14) (size 15 to 20)
#    0.000    2.667    0.000    4.000    0.000    1.667 
#    0.000    1.667    0.000   12.500    0.000    4.667 
#    0.000    0.667    0.000    8.333    0.000    0.000 
#
# Total GULP energy -267385.662246 kJ/mol
# GULP energy per Si atom -5570.534630 kJ/mol
# Density = 1.625982 g / cm^3
# Si number density = 16.296916 Si / 1000 Ang^3
#
#
#
# Elastic Constant Matrix: (Units=GPa)
#
#
# Indices 1 2 3 4 5 6 
#
# 1 8.1935 -3.5746 -3.2543 0.0000 0.0000 0.0000
# 2 -3.5746 65.2895 21.9787 0.0000 0.0000 0.0000
# 3 -3.2543 21.9787 113.6564 0.0000 0.0000 0.0000
# 4 0.0000 0.0000 0.0000 12.1509 0.0000 0.0000
# 5 0.0000 0.0000 0.0000 0.0000 13.4168 0.0000
# 6 0.0000 0.0000 0.0000 0.0000 0.0000 11.3768
#
#
#
# Elastic Compliance Matrix: (Units=1/GPa)
#
#
# Indices 1 2 3 4 5 6 
#
# 1 0.125656 0.006063 0.002425 0.000000 0.000000 0.000000
# 2 0.006063 0.016675 -0.003051 0.000000 0.000000 0.000000
# 3 0.002425 -0.003051 0.009458 0.000000 0.000000 0.000000
# 4 0.000000 0.000000 0.000000 0.082298 0.000000 0.000000
# 5 0.000000 0.000000 0.000000 0.000000 0.074533 0.000000
# 6 0.000000 0.000000 0.000000 0.000000 0.000000 0.087898
#
#
# Mechanical properties :
#
#
# Convention : Reuss Voigt Hill
#
# Bulk Modulus (GPa) = 6.14764 24.15990 15.15377
# Shear Modulus (GPa) = 11.36711 18.85488 15.11099
#
# Velocity S-wave (km/s) = 2.64389 3.40510 3.04835
# Velocity P-wave (km/s) = 3.61948 5.50605 4.65925
#
# Compressibility (1/GPa) = 0.16266399
#
# Stress axis : x y z
#
# Youngs Moduli (GPa) = 7.95825 59.96842 105.73173
#
# Poissons Ratio (x) = -0.36360 -0.25644
# Poissons Ratio (y) = -0.04825 0.32259
# Poissons Ratio (z) = -0.01930 0.18297
#
# Static dielectric constant tensor:
#      x y z
#    x 1.572310 0.000000 0.000000 
#    y 0.000000 1.523700 0.000000 
#    z 0.000000 0.000000 1.588640 
# 
# From -- ./inp_files/67854.got.cif
#   From: 2010.05.17/outbox.cif.g08.bks.cpg/sg65_34_cif.got.tgz:67854.got - 2010.06.03 17:01:31.
