data_PCOD9483085
_publ_section_title
;
Structure prediction by ZEFSAII (Michael W. Deem and Ramdas Pophale) SiO2 
 PCOD9483085
Probable space group: C M M M
;
_chemical_formula_sum "Si O2"
_cell_formula_units_Z 96
_cell_length_a 23.542584
_cell_length_b 28.685837
_cell_length_c 7.464189
_cell_angle_alpha 90.000000
_cell_angle_beta 90.000000
_cell_angle_gamma 90.000000
_cell_volume 5040.855899
_symmetry_space_group_name_H-M "C M M M"
_symmetry_group_IT_number 65
_symmetry_cell_setting 'orthorhombic'
loop_
_space_group_symop_operation_xyz
x,y,z
-x,-y,z
x,-y,-z
-x,y,-z
-x,-y,-z
x,y,-z
-x,y,z
x,-y,z
1/2+x,1/2+y,z
1/2-x,1/2-y,z
1/2+x,1/2-y,-z
1/2-x,1/2+y,-z
1/2-x,1/2-y,-z
1/2+x,1/2+y,-z
1/2-x,1/2+y,z
1/2+x,1/2-y,z
loop_
_atom_site_type_symbol
_atom_site_label
_atom_site_fract_x
_atom_site_fract_y
_atom_site_fract_z
Si Si1 0.000000 0.235725 0.283326
Si Si2 0.123693 0.109647 0.214394
Si Si3 0.000000 0.875307 0.211276
Si Si4 0.117052 0.717175 0.719299
Si Si5 0.693200 0.699761 0.293636
Si Si6 0.300313 0.142226 0.280581
Si Si7 0.235358 0.052081 0.714001
O O1 0.000000 0.181155 0.230533
O O2 0.943874 0.263489 0.222559
O O3 0.000000 0.235575 0.500000
O O4 0.147395 0.158351 0.288292
O O5 0.171453 0.071309 0.256357
O O6 0.059367 0.104204 0.282260
O O7 0.121960 0.114109 0.000000
O O8 0.000000 0.885470 0.000000
O O9 0.116279 0.718382 0.500000
O O10 0.163711 0.754783 0.782892
O O11 0.140323 0.666169 0.770820
O O12 0.706141 0.710663 0.500000
O O13 0.750123 0.677078 0.218148
O O14 0.298648 0.141327 0.500000
O O15 0.279984 0.091181 0.219734
O O16 0.242824 0.050040 0.500000
O O17 0.242345 0.000000 0.786220
#
# Coordination Sequence:
#
# PCOD9483085 Si02
#       7
#     8  16   8  16  16  16  16
#     4  10  18  26  42  65  88 118 154 185 206 233
#     4  10  19  30  45  64  87 117 148 178 213 256
#     4  10  20  32  43  59  88 124 155 173 202 255
#     4   9  15  23  38  64  91 114 145 179 211 246
#     4   9  15  25  42  62  86 115 146 179 210 248
#     4   8  14  24  41  64  87 110 137 177 222 261
#     4   9  18  33  51  68  83 104 141 187 230 266
#
# _framework density 19.044384999999998
#
# number of rings (size 3 to 8) (size 9 to 14) (size 15 to 20)
#    0.000    2.833    1.667    2.000    0.000    3.000 
#    0.000    0.417    0.000   14.500    0.000    0.583 
#    0.000    4.667    0.000    0.000    0.000    8.500 
#
# Total GULP energy -267502.764566 kJ/mol
# GULP energy per Si atom -5572.974262 kJ/mol
# Density = 1.900104 g / cm^3
# Si number density = 19.044385 Si / 1000 Ang^3
#
#
#
# Elastic Constant Matrix: (Units=GPa)
#
#
# Indices 1 2 3 4 5 6 
#
# 1 28.4472 50.6425 -2.6519 0.0000 0.0000 0.0000
# 2 50.6425 128.0941 1.1276 0.0000 0.0000 0.0000
# 3 -2.6519 1.1276 59.6894 0.0000 0.0000 0.0000
# 4 0.0000 0.0000 0.0000 -35.2838 0.0000 0.0000
# 5 0.0000 0.0000 0.0000 0.0000 22.5319 0.0000
# 6 0.0000 0.0000 0.0000 0.0000 0.0000 1.8492
#
#
#
# Elastic Compliance Matrix: (Units=1/GPa)
#
#
# Indices 1 2 3 4 5 6 
#
# 1 0.120997 -0.047892 0.006280 0.000000 0.000000 0.000000
# 2 -0.047892 0.026764 -0.002633 0.000000 0.000000 0.000000
# 3 0.006280 -0.002633 0.017082 0.000000 0.000000 0.000000
# 4 0.000000 0.000000 0.000000 -0.028342 0.000000 0.000000
# 5 0.000000 0.000000 0.000000 0.000000 0.044382 0.000000
# 6 0.000000 0.000000 0.000000 0.000000 0.000000 0.540777
#
#
# Mechanical properties :
#
#
# Convention : Reuss Voigt Hill
#
# Bulk Modulus (GPa) = 13.09698 34.94081 24.01889
# Shear Modulus (GPa) = 5.98372 8.96029 7.47201
#
# Velocity S-wave (km/s) = 1.77449 2.17144 1.98292
# Velocity P-wave (km/s) = 3.33023 4.96727 4.22872
#
# Compressibility (1/GPa) = 0.07635348
#
# Stress axis : x y z
#
# Youngs Moduli (GPa) = 8.26468 37.36340 58.54064
#
# Poissons Ratio (x) = 1.78940 -0.36766
# Poissons Ratio (y) = 0.39581 0.15416
# Poissons Ratio (z) = -0.05191 0.09839
#
# Static dielectric constant tensor:
#      x y z
#    x 1.691090 0.000000 0.000000 
#    y 0.000000 1.656730 0.000000 
#    z 0.000000 0.000000 1.732990 
# 
# From -- ./inp_files/14632.got.cif
#   From: 2010.05.17/outbox.cif.g08.bks.cpg/sg65_8_cif.got.tgz:14632.got - 2010.06.03 17:01:31.
