data_PCOD9483509
_publ_section_title
;
Structure prediction by ZEFSAII (Michael W. Deem and Ramdas Pophale) SiO2 
 PCOD9483509
Probable space group: C M M M
;
_chemical_formula_sum "Si O2"
_cell_formula_units_Z 104
_cell_length_a 23.712198
_cell_length_b 18.629208
_cell_length_c 13.798586
_cell_angle_alpha 90.000000
_cell_angle_beta 90.000000
_cell_angle_gamma 90.000000
_cell_volume 6095.380048
_symmetry_space_group_name_H-M "C M M M"
_symmetry_group_IT_number 65
_symmetry_cell_setting 'orthorhombic'
loop_
_space_group_symop_operation_xyz
x,y,z
-x,-y,z
x,-y,-z
-x,y,-z
-x,-y,-z
x,y,-z
-x,y,z
x,-y,z
1/2+x,1/2+y,z
1/2-x,1/2-y,z
1/2+x,1/2-y,-z
1/2-x,1/2+y,-z
1/2-x,1/2-y,-z
1/2+x,1/2+y,-z
1/2-x,1/2+y,z
1/2+x,1/2-y,z
loop_
_atom_site_type_symbol
_atom_site_label
_atom_site_fract_x
_atom_site_fract_y
_atom_site_fract_z
Si Si1 0.372619 0.085598 0.710080
Si Si2 0.062756 0.086372 0.500000
Si Si3 0.433300 0.301950 0.211177
Si Si4 0.366052 0.413934 0.307039
Si Si5 0.744791 0.912838 0.387460
Si Si6 0.566410 0.157390 0.888341
Si Si7 0.432719 0.795357 0.604941
O O1 0.309358 0.106375 0.677076
O O2 0.393768 0.115200 0.813763
O O3 0.411584 0.125656 0.631878
O O4 0.377612 0.000000 0.707440
O O5 0.095898 0.102421 0.401976
O O6 0.000000 0.118802 0.500000
O O7 0.057739 0.000000 0.500000
O O8 0.500000 0.320745 0.215499
O O9 0.394080 0.371338 0.218216
O O10 0.425412 0.243035 0.127269
O O11 0.417035 0.256256 0.307096
O O12 0.366809 0.500000 0.292018
O O13 0.302912 0.391035 0.335867
O O14 0.741258 0.887905 0.500000
O O15 0.746217 0.000000 0.392341
O O16 0.500000 0.143839 0.863195
O O17 0.575306 0.137799 0.000000
O O18 0.410971 0.772355 0.500000
O O19 0.500000 0.795596 0.602949
#
# Coordination Sequence:
#
# PCOD9483509 Si02
#       7
#    16   8  16  16  16  16  16
#     4  10  19  31  50  73  95 123 163 204 242 293
#     4   9  16  24  38  66  99 128 160 200 241 274
#     4   9  18  31  49  72  98 130 164 200 249 305
#     4  10  18  29  46  70 102 135 169 208 241 275
#     4   9  17  30  46  67 101 142 174 198 233 281
#     4   9  19  37  57  75  97 123 153 200 265 321
#     4   9  18  30  42  62  96 132 160 191 236 289
#
# _framework density 17.062101999999999
#
# number of rings (size 3 to 8) (size 9 to 14) (size 15 to 20)
#    0.000    2.692    0.769    2.308    1.077    3.385 
#    0.000    4.615    0.000    6.923    0.000    4.308 
#    0.000    0.000    0.000    0.000    0.000    0.000 
#
# Total GULP energy -289654.832923 kJ/mol
# GULP energy per Si atom -5570.285249 kJ/mol
# Density = 1.702327 g / cm^3
# Si number density = 17.062102 Si / 1000 Ang^3
#
#
#
# Elastic Constant Matrix: (Units=GPa)
#
#
# Indices 1 2 3 4 5 6 
#
# 1 58.8553 26.8673 22.7629 0.0000 0.0000 0.0000
# 2 26.8673 54.3278 8.8156 0.0000 0.0000 0.0000
# 3 22.7629 8.8156 44.9590 0.0000 0.0000 0.0000
# 4 0.0000 0.0000 0.0000 18.3080 0.0000 0.0000
# 5 0.0000 0.0000 0.0000 0.0000 16.3943 0.0000
# 6 0.0000 0.0000 0.0000 0.0000 0.0000 12.9574
#
#
#
# Elastic Compliance Matrix: (Units=1/GPa)
#
#
# Indices 1 2 3 4 5 6 
#
# 1 0.026464 -0.011272 -0.011188 0.000000 0.000000 0.000000
# 2 -0.011272 0.023813 0.001038 0.000000 0.000000 0.000000
# 3 -0.011188 0.001038 0.027704 0.000000 0.000000 0.000000
# 4 0.000000 0.000000 0.000000 0.054621 0.000000 0.000000
# 5 0.000000 0.000000 0.000000 0.000000 0.060997 0.000000
# 6 0.000000 0.000000 0.000000 0.000000 0.000000 0.077176
#
#
# Mechanical properties :
#
#
# Convention : Reuss Voigt Hill
#
# Bulk Modulus (GPa) = 28.46156 30.55929 29.51043
# Shear Modulus (GPa) = 15.36898 16.17836 15.77367
#
# Velocity S-wave (km/s) = 3.00453 3.08263 3.04383
# Velocity P-wave (km/s) = 5.36224 5.53350 5.44855
#
# Compressibility (1/GPa) = 0.03513511
#
# Stress axis : x y z
#
# Youngs Moduli (GPa) = 37.78766 41.99426 36.09619
#
# Poissons Ratio (x) = 0.47335 0.40386
# Poissons Ratio (y) = 0.42594 -0.03746
# Poissons Ratio (z) = 0.42279 -0.04358
#
# Static dielectric constant tensor:
#      x y z
#    x 1.582780 0.000000 0.000000 
#    y 0.000000 1.616960 0.000000 
#    z 0.000000 0.000000 1.581730 
# 
# From -- ./inp_files/45911.got.cif
#   From: 2010.05.17/outbox.cif.g08.bks.cpg/sg65_23_cif.got.tgz:45911.got - 2010.06.03 17:01:31.
