data_PCOD9483497
_publ_section_title
;
Structure prediction by ZEFSAII (Michael W. Deem and Ramdas Pophale) SiO2 
 PCOD9483497
Probable space group: C M M M
;
_chemical_formula_sum "Si O2"
_cell_formula_units_Z 72
_cell_length_a 29.027226
_cell_length_b 14.186894
_cell_length_c 11.387607
_cell_angle_alpha 90.000000
_cell_angle_beta 90.000000
_cell_angle_gamma 90.000000
_cell_volume 4689.486920
_symmetry_space_group_name_H-M "C M M M"
_symmetry_group_IT_number 65
_symmetry_cell_setting 'orthorhombic'
loop_
_space_group_symop_operation_xyz
x,y,z
-x,-y,z
x,-y,-z
-x,y,-z
-x,-y,-z
x,y,-z
-x,y,z
x,-y,z
1/2+x,1/2+y,z
1/2-x,1/2-y,z
1/2+x,1/2-y,-z
1/2-x,1/2+y,-z
1/2-x,1/2-y,-z
1/2+x,1/2+y,-z
1/2-x,1/2+y,z
1/2+x,1/2-y,z
loop_
_atom_site_type_symbol
_atom_site_label
_atom_site_fract_x
_atom_site_fract_y
_atom_site_fract_z
Si Si1 0.402367 0.385327 0.745473
Si Si2 0.815801 0.786143 0.361947
Si Si3 0.000000 0.114183 0.364894
Si Si4 0.727915 0.105907 0.740072
Si Si5 0.369290 0.388579 0.000000
Si Si6 0.740877 0.639757 0.000000
O O1 0.397643 0.500000 0.738339
O O2 0.363854 0.335947 0.666195
O O3 0.453287 0.359204 0.702185
O O4 0.391381 0.353834 0.878835
O O5 0.810210 0.769722 0.500000
O O6 0.775426 0.855835 0.317009
O O7 0.808411 0.687015 0.294451
O O8 0.000000 0.147418 0.500000
O O9 0.000000 0.000000 0.368565
O O10 0.716988 0.000000 0.699642
O O11 0.737217 0.103350 0.879528
O O12 0.377812 0.500000 0.000000
O O13 0.314137 0.375811 0.000000
O O14 0.750000 0.750000 0.000000
#
# Coordination Sequence:
#
# PCOD9483497 Si02
#       6
#    16  16   8  16   8   8
#     4  10  19  32  50  71  97 127 162 205 250 298
#     4  11  22  33  47  69  96 132 170 200 241 290
#     4   9  18  31  47  69  96 127 161 198 245 300
#     4  11  21  33  49  70  97 129 164 203 242 286
#     4  10  18  29  46  68  92 124 160 194 243 292
#     4  12  18  32  51  70  98 128 164 205 242 289
#
# _framework density 15.353491999999999
#
# number of rings (size 3 to 8) (size 9 to 14) (size 15 to 20)
#    0.000    1.444    4.444    3.667    0.000    4.444 
#    0.000    2.222    0.000    0.000    0.000    0.778 
#    0.000    2.667    0.000    6.556    0.000    1.000 
#
# Total GULP energy -200771.017302 kJ/mol
# GULP energy per Si atom -5576.972703 kJ/mol
# Density = 1.531855 g / cm^3
# Si number density = 15.353492 Si / 1000 Ang^3
#
#
#
# Elastic Constant Matrix: (Units=GPa)
#
#
# Indices 1 2 3 4 5 6 
#
# 1 81.3968 22.8755 35.6636 0.0000 0.0000 0.0000
# 2 22.8755 79.6773 20.1561 0.0000 0.0000 0.0000
# 3 35.6636 20.1561 124.6065 0.0000 0.0000 0.0000
# 4 0.0000 0.0000 0.0000 7.2640 0.0000 0.0000
# 5 0.0000 0.0000 0.0000 0.0000 6.6743 0.0000
# 6 0.0000 0.0000 0.0000 0.0000 0.0000 111.5842
#
#
#
# Elastic Compliance Matrix: (Units=1/GPa)
#
#
# Indices 1 2 3 4 5 6 
#
# 1 0.014846 -0.003323 -0.003711 0.000000 0.000000 0.000000
# 2 -0.003323 0.013830 -0.001286 0.000000 0.000000 0.000000
# 3 -0.003711 -0.001286 0.009296 0.000000 0.000000 0.000000
# 4 0.000000 0.000000 0.000000 0.137666 0.000000 0.000000
# 5 0.000000 0.000000 0.000000 0.000000 0.149828 0.000000
# 6 0.000000 0.000000 0.000000 0.000000 0.000000 0.008962
#
#
# Mechanical properties :
#
#
# Convention : Reuss Voigt Hill
#
# Bulk Modulus (GPa) = 46.88263 49.23010 48.05637
# Shear Modulus (GPa) = 13.95955 38.90353 26.43154
#
# Velocity S-wave (km/s) = 3.01858 5.03920 4.15364
# Velocity P-wave (km/s) = 6.53842 8.12355 7.37370
#
# Compressibility (1/GPa) = 0.02132986
#
# Stress axis : x y z
#
# Youngs Moduli (GPa) = 67.36005 72.30624 107.57884
#
# Poissons Ratio (x) = 0.24030 0.39927
# Poissons Ratio (y) = 0.22386 0.13834
# Poissons Ratio (z) = 0.25000 0.09298
#
# Static dielectric constant tensor:
#      x y z
#    x 1.485740 0.000000 0.000000 
#    y 0.000000 1.512300 0.000000 
#    z 0.000000 0.000000 1.549340 
# 
# From -- ./inp_files/30336.got.cif
#   From: 2010.05.17/outbox.cif.g08.bks.cpg/sg65_16_cif.got.tgz:30336.got - 2010.06.03 17:01:31.
