data_PCOD9483368
_publ_section_title
;
Structure prediction by ZEFSAII (Michael W. Deem and Ramdas Pophale) SiO2 
 PCOD9483368
Probable space group: C M M M
;
_chemical_formula_sum "Si O2"
_cell_formula_units_Z 96
_cell_length_a 25.907015
_cell_length_b 21.842484
_cell_length_c 7.384161
_cell_angle_alpha 90.000000
_cell_angle_beta 90.000000
_cell_angle_gamma 90.000000
_cell_volume 4178.501477
_symmetry_space_group_name_H-M "C M M M"
_symmetry_group_IT_number 65
_symmetry_cell_setting 'orthorhombic'
loop_
_space_group_symop_operation_xyz
x,y,z
-x,-y,z
x,-y,-z
-x,y,-z
-x,-y,-z
x,y,-z
-x,y,z
x,-y,z
1/2+x,1/2+y,z
1/2-x,1/2-y,z
1/2+x,1/2-y,-z
1/2-x,1/2+y,-z
1/2-x,1/2-y,-z
1/2+x,1/2+y,-z
1/2-x,1/2+y,z
1/2+x,1/2-y,z
loop_
_atom_site_type_symbol
_atom_site_label
_atom_site_fract_x
_atom_site_fract_y
_atom_site_fract_z
Si Si1 0.556673 0.907437 0.209610
Si Si2 0.671535 0.068237 0.778857
Si Si3 0.247536 0.678155 0.778998
Si Si4 0.361454 0.337050 0.786530
Si Si5 0.443592 0.429986 0.779059
Si Si6 0.443372 0.764338 0.716521
O O1 0.500000 0.924311 0.287452
O O2 0.611813 0.928530 0.284462
O O3 0.559419 0.833672 0.215952
O O4 0.555749 0.926921 0.000000
O O5 0.704411 0.128343 0.720370
O O6 0.692099 0.000000 0.730505
O O7 0.670897 0.070747 0.000000
O O8 0.250000 0.750000 0.725064
O O9 0.304029 0.657317 0.716382
O O10 0.244133 0.679027 0.000000
O O11 0.399533 0.387031 0.708062
O O12 0.392954 0.273707 0.770482
O O13 0.356226 0.348273 0.000000
O O14 0.500000 0.409138 0.720136
O O15 0.436668 0.500000 0.727175
O O16 0.443304 0.428079 0.000000
O O17 0.443958 0.765795 0.500000
O O18 0.500000 0.739349 0.777616
#
# Coordination Sequence:
#
# PCOD9483368 Si02
#       6
#    16  16  16  16  16  16
#     4   9  17  30  50  74  98 127 163 199 238 291
#     4   9  17  29  47  74 106 133 160 204 256 296
#     4   9  17  28  43  66  97 130 161 196 241 289
#     4  10  18  28  47  70  91 123 166 204 239 290
#     4   8  14  24  38  60  89 114 140 184 237 280
#     4  10  20  32  47  70 100 129 158 200 253 301
#
# _framework density 22.974743
#
# number of rings (size 3 to 8) (size 9 to 14) (size 15 to 20)
#    0.000    2.833    0.000    2.500    0.000    5.333 
#    0.000    5.000    0.000    5.500    0.000    4.667 
#    0.000    0.000    0.000    0.000    0.000    0.000 
#
# Total GULP energy -267716.395663 kJ/mol
# GULP energy per Si atom -5577.424910 kJ/mol
# Density = 2.292245 g / cm^3
# Si number density = 22.974743 Si / 1000 Ang^3
#
#
#
# Elastic Constant Matrix: (Units=GPa)
#
#
# Indices 1 2 3 4 5 6 
#
# 1 185.1316 98.6097 11.4637 0.0000 0.0000 0.0000
# 2 98.6097 146.8660 -3.5891 0.0000 0.0000 0.0000
# 3 11.4637 -3.5891 82.6939 0.0000 0.0000 0.0000
# 4 0.0000 0.0000 0.0000 5.5190 0.0000 0.0000
# 5 0.0000 0.0000 0.0000 0.0000 -2.3706 0.0000
# 6 0.0000 0.0000 0.0000 0.0000 0.0000 42.6505
#
#
#
# Elastic Compliance Matrix: (Units=1/GPa)
#
#
# Indices 1 2 3 4 5 6 
#
# 1 0.008577 -0.005794 -0.001440 0.000000 0.000000 0.000000
# 2 -0.005794 0.010730 0.001269 0.000000 0.000000 0.000000
# 3 -0.001440 0.001269 0.012348 0.000000 0.000000 0.000000
# 4 0.000000 0.000000 0.000000 0.181192 0.000000 0.000000
# 5 0.000000 0.000000 0.000000 0.000000 -0.421837 0.000000
# 6 0.000000 0.000000 0.000000 0.000000 0.000000 0.023446
#
#
# Mechanical properties :
#
#
# Convention : Reuss Voigt Hill
#
# Bulk Modulus (GPa) = 50.70071 69.74001 60.22036
# Shear Modulus (GPa) = -29.93329 29.70692 -0.11318
#
# Velocity S-wave (km/s) = -3.61346 3.59977 -0.22220
# Velocity P-wave (km/s) = 2.16945 6.90643 5.11885
#
# Compressibility (1/GPa) = 0.01972359
#
# Stress axis : x y z
#
# Youngs Moduli (GPa) = 116.59231 93.19528 80.98770
#
# Poissons Ratio (x) = 0.53997 0.11666
# Poissons Ratio (y) = 0.67553 -0.10277
# Poissons Ratio (z) = 0.16795 -0.11826
#
# Static dielectric constant tensor:
#      x y z
#    x 2.044020 0.000000 0.000000 
#    y 0.000000 1.855910 0.000000 
#    z 0.000000 0.000000 1.853510 
# 
# From -- ./inp_files/16678.got.cif
#   From: 2010.05.17/outbox.cif.g08.bks.cpg/sg65_9_cif.got.tgz:16678.got - 2010.06.03 17:01:31.
