data_PCOD9483186
_publ_section_title
;
Structure prediction by ZEFSAII (Michael W. Deem and Ramdas Pophale) SiO2 
 PCOD9483186
Probable space group: C M M M
;
_chemical_formula_sum "Si O2"
_cell_formula_units_Z 72
_cell_length_a 7.456577
_cell_length_b 28.229742
_cell_length_c 16.681326
_cell_angle_alpha 90.000000
_cell_angle_beta 90.000000
_cell_angle_gamma 90.000000
_cell_volume 3511.373164
_symmetry_space_group_name_H-M "C M M M"
_symmetry_group_IT_number 65
_symmetry_cell_setting 'orthorhombic'
loop_
_space_group_symop_operation_xyz
x,y,z
-x,-y,z
x,-y,-z
-x,y,-z
-x,-y,-z
x,y,-z
-x,y,z
x,-y,z
1/2+x,1/2+y,z
1/2-x,1/2-y,z
1/2+x,1/2-y,-z
1/2-x,1/2+y,-z
1/2-x,1/2-y,-z
1/2+x,1/2+y,-z
1/2-x,1/2+y,z
1/2+x,1/2-y,z
loop_
_atom_site_type_symbol
_atom_site_label
_atom_site_fract_x
_atom_site_fract_y
_atom_site_fract_z
Si Si1 0.207872 0.897421 0.249371
Si Si2 0.286984 0.805559 0.325848
Si Si3 0.781597 0.055388 0.088562
Si Si4 0.214037 0.693486 0.500000
Si Si5 0.782387 0.056011 0.587723
O O1 0.215944 0.841034 0.259344
O O2 0.284308 0.916110 0.165880
O O3 0.286182 0.918961 0.331814
O O4 0.000000 0.912579 0.249271
O O5 0.500000 0.810752 0.327881
O O6 0.250000 0.750000 0.314604
O O7 0.213831 0.821949 0.413533
O O8 0.000000 0.058145 0.087280
O O9 0.735941 0.000000 0.098010
O O10 0.720611 0.071104 0.000000
O O11 0.250000 0.750000 0.500000
O O12 0.000000 0.686199 0.500000
O O13 0.719081 0.073871 0.500000
O O14 0.000000 0.060050 0.586699
O O15 0.741258 0.000000 0.592205
#
# Coordination Sequence:
#
# PCOD9483186 Si02
#       5
#    16  16  16   8  16
#     4  10  18  27  46  73  96 123 159 198 238 281
#     4  10  20  34  49  67  93 125 160 200 241 283
#     4   8  14  26  46  73 102 128 157 196 238 279
#     4   8  16  30  46  62  83 116 155 193 232 273
#     4   8  14  24  38  61  94 126 155 188 224 267
#
# _framework density 20.504798000000001
#
# number of rings (size 3 to 8) (size 9 to 14) (size 15 to 20)
#    0.000    3.111    0.000    2.667    1.556    3.556 
#    0.000    0.000    0.000    4.000    0.000    3.111 
#    0.000    0.000    0.000    0.000    0.000    0.000 
#
# Total GULP energy -200780.819814 kJ/mol
# GULP energy per Si atom -5577.244995 kJ/mol
# Density = 2.045813 g / cm^3
# Si number density = 20.504798 Si / 1000 Ang^3
#
#
#
# Elastic Constant Matrix: (Units=GPa)
#
#
# Indices 1 2 3 4 5 6 
#
# 1 67.4329 -5.4170 9.7921 0.0000 0.0000 0.0000
# 2 -5.4170 79.6708 94.9788 0.0000 0.0000 0.0000
# 3 9.7921 94.9788 215.0761 0.0000 0.0000 0.0000
# 4 0.0000 0.0000 0.0000 34.5904 0.0000 0.0000
# 5 0.0000 0.0000 0.0000 0.0000 -2.6652 0.0000
# 6 0.0000 0.0000 0.0000 0.0000 0.0000 1.0696
#
#
#
# Elastic Compliance Matrix: (Units=1/GPa)
#
#
# Indices 1 2 3 4 5 6 
#
# 1 0.015511 0.004005 -0.002475 0.000000 0.000000 0.000000
# 2 0.004005 0.027540 -0.012344 0.000000 0.000000 0.000000
# 3 -0.002475 -0.012344 0.010213 0.000000 0.000000 0.000000
# 4 0.000000 0.000000 0.000000 0.028910 0.000000 0.000000
# 5 0.000000 0.000000 0.000000 0.000000 -0.375205 0.000000
# 6 0.000000 0.000000 0.000000 0.000000 0.000000 0.934972
#
#
# Mechanical properties :
#
#
# Convention : Reuss Voigt Hill
#
# Bulk Modulus (GPa) = 31.60963 62.32082 46.96523
# Shear Modulus (GPa) = 7.41714 24.12067 15.76890
#
# Velocity S-wave (km/s) = 1.90398 3.43351 2.77616
# Velocity P-wave (km/s) = 4.50363 6.79543 5.76457
#
# Compressibility (1/GPa) = 0.03163593
#
# Stress axis : x y z
#
# Youngs Moduli (GPa) = 64.47187 36.31107 97.91061
#
# Poissons Ratio (x) = -0.14542 0.24230
# Poissons Ratio (y) = -0.25820 1.20862
# Poissons Ratio (z) = 0.15955 0.44823
#
# Static dielectric constant tensor:
#      x y z
#    x 1.794590 0.000000 0.000000 
#    y 0.000000 1.718210 0.000000 
#    z 0.000000 0.000000 1.765230 
# 
# From -- ./inp_files/36958.got.cif
#   From: 2010.05.17/outbox.cif.g08.bks.cpg/sg65_19_cif.got.tgz:36958.got - 2010.06.03 17:01:31.
