data_PCOD9483756
_publ_section_title
;
Structure prediction by ZEFSAII (Michael W. Deem and Ramdas Pophale) SiO2 
 PCOD9483756
Probable space group: C M M M
;
_chemical_formula_sum "Si O2"
_cell_formula_units_Z 104
_cell_length_a 29.015382
_cell_length_b 24.831740
_cell_length_c 8.983299
_cell_angle_alpha 90.000000
_cell_angle_beta 90.000000
_cell_angle_gamma 90.000000
_cell_volume 6472.488685
_symmetry_space_group_name_H-M "C M M M"
_symmetry_group_IT_number 65
_symmetry_cell_setting 'orthorhombic'
loop_
_space_group_symop_operation_xyz
x,y,z
-x,-y,z
x,-y,-z
-x,y,-z
-x,-y,-z
x,y,-z
-x,y,z
x,-y,z
1/2+x,1/2+y,z
1/2-x,1/2-y,z
1/2+x,1/2-y,-z
1/2-x,1/2+y,-z
1/2-x,1/2-y,-z
1/2+x,1/2+y,-z
1/2-x,1/2+y,z
1/2+x,1/2-y,z
loop_
_atom_site_type_symbol
_atom_site_label
_atom_site_fract_x
_atom_site_fract_y
_atom_site_fract_z
Si Si1 0.630964 0.437232 0.820581
Si Si2 0.054093 0.739368 0.321839
Si Si3 0.000000 0.438236 0.681060
Si Si4 0.092289 0.625278 0.319771
Si Si5 0.947066 0.146587 0.820533
Si Si6 0.773383 0.065358 0.671084
Si Si7 0.822427 0.563537 0.822055
O O1 0.623181 0.500000 0.780184
O O2 0.588624 0.399514 0.774055
O O3 0.679037 0.418362 0.749215
O O4 0.635056 0.435038 0.000000
O O5 0.057754 0.745917 0.500000
O O6 0.083896 0.687526 0.278174
O O7 0.066306 0.795152 0.243205
O O8 0.000000 0.727803 0.289390
O O9 0.046378 0.407479 0.726131
O O10 0.000000 0.500000 0.731690
O O11 0.000000 0.438250 0.500000
O O12 0.095609 0.622421 0.500000
O O13 0.136730 0.598207 0.248129
O O14 0.000000 0.135542 0.773672
O O15 0.946583 0.148905 0.000000
O O16 0.771741 0.083176 0.500000
O O17 0.727101 0.081082 0.757495
O O18 0.773784 0.000000 0.672612
O O19 0.829106 0.500000 0.783810
O O20 0.822293 0.567919 0.000000
#
# Coordination Sequence:
#
# PCOD9483756 Si02
#       7
#    16  16   8  16  16  16  16
#     4   9  17  30  49  73 101 130 157 190 234 280
#     4   9  17  31  49  68  92 124 165 206 240 277
#     4   9  16  26  43  67  93 121 154 195 240 284
#     4  10  18  30  48  69  92 123 164 204 241 283
#     4   9  18  31  48  72 100 130 163 194 228 278
#     4   9  17  30  49  71  94 123 160 197 233 282
#     4  10  20  32  46  68  98 128 158 195 242 291
#
# _framework density 16.068007999999999
#
# number of rings (size 3 to 8) (size 9 to 14) (size 15 to 20)
#    0.000    2.692    0.769    1.385    0.000    4.923 
#    0.000    1.923    0.000    2.308    0.000   10.769 
#    0.000    0.000    0.000    0.000    0.000    0.000 
#
# Total GULP energy -289820.080123 kJ/mol
# GULP energy per Si atom -5573.463079 kJ/mol
# Density = 1.603144 g / cm^3
# Si number density = 16.068008 Si / 1000 Ang^3
#
#
#
# Elastic Constant Matrix: (Units=GPa)
#
#
# Indices 1 2 3 4 5 6 
#
# 1 150.2027 90.7163 45.2039 0.0000 0.0000 0.0000
# 2 90.7163 101.5428 37.4250 0.0000 0.0000 0.0000
# 3 45.2039 37.4250 29.4566 0.0000 0.0000 0.0000
# 4 0.0000 0.0000 0.0000 22.7730 0.0000 0.0000
# 5 0.0000 0.0000 0.0000 0.0000 26.5639 0.0000
# 6 0.0000 0.0000 0.0000 0.0000 0.0000 7.8047
#
#
#
# Elastic Compliance Matrix: (Units=1/GPa)
#
#
# Indices 1 2 3 4 5 6 
#
# 1 0.016580 -0.010220 -0.012458 0.000000 0.000000 0.000000
# 2 -0.010220 0.024821 -0.015851 0.000000 0.000000 0.000000
# 3 -0.012458 -0.015851 0.073205 0.000000 0.000000 0.000000
# 4 0.000000 0.000000 0.000000 0.043912 0.000000 0.000000
# 5 0.000000 0.000000 0.000000 0.000000 0.037645 0.000000
# 6 0.000000 0.000000 0.000000 0.000000 0.000000 0.128127
#
#
# Mechanical properties :
#
#
# Convention : Reuss Voigt Hill
#
# Bulk Modulus (GPa) = 26.63336 69.76582 48.19959
# Shear Modulus (GPa) = 12.08127 18.61880 15.35004
#
# Velocity S-wave (km/s) = 2.74502 3.40773 3.09417
# Velocity P-wave (km/s) = 5.16316 7.68094 6.54428
#
# Compressibility (1/GPa) = 0.03754690
#
# Stress axis : x y z
#
# Youngs Moduli (GPa) = 60.31530 40.28866 13.66025
#
# Poissons Ratio (x) = 0.41176 0.17018
# Poissons Ratio (y) = 0.61644 0.21653
# Poissons Ratio (z) = 0.75139 0.63862
#
# Static dielectric constant tensor:
#      x y z
#    x 1.523000 0.000000 0.000000 
#    y 0.000000 1.522850 0.000000 
#    z 0.000000 0.000000 1.541280 
# 
# From -- ./inp_files/14818.got.cif
#   From: 2010.05.17/outbox.cif.g08.bks.cpg/sg65_8_cif.got.tgz:14818.got - 2010.06.03 17:01:31.
