data_PCOD9483072
_publ_section_title
;
Structure prediction by ZEFSAII (Michael W. Deem and Ramdas Pophale) SiO2 
 PCOD9483072
Probable space group: C M M M
;
_chemical_formula_sum "Si O2"
_cell_formula_units_Z 104
_cell_length_a 28.239550
_cell_length_b 8.328132
_cell_length_c 27.749898
_cell_angle_alpha 90.000000
_cell_angle_beta 90.000000
_cell_angle_gamma 90.000000
_cell_volume 6526.295937
_symmetry_space_group_name_H-M "C M M M"
_symmetry_group_IT_number 65
_symmetry_cell_setting 'orthorhombic'
loop_
_space_group_symop_operation_xyz
x,y,z
-x,-y,z
x,-y,-z
-x,y,-z
-x,-y,-z
x,y,-z
-x,y,z
x,-y,z
1/2+x,1/2+y,z
1/2-x,1/2-y,z
1/2+x,1/2-y,-z
1/2-x,1/2+y,-z
1/2-x,1/2-y,-z
1/2+x,1/2+y,-z
1/2-x,1/2+y,z
1/2+x,1/2-y,z
loop_
_atom_site_type_symbol
_atom_site_label
_atom_site_fract_x
_atom_site_fract_y
_atom_site_fract_z
Si Si1 0.195731 0.307857 0.343142
Si Si2 0.945768 0.691452 0.000000
Si Si3 0.647709 0.306324 0.753599
Si Si4 0.052899 0.804155 0.803422
Si Si5 0.695341 0.194074 0.551799
Si Si6 0.102391 0.193782 0.902365
Si Si7 0.802564 0.193540 0.148223
O O1 0.196235 0.500000 0.343074
O O2 0.250000 0.250000 0.338162
O O3 0.166033 0.250013 0.297688
O O4 0.176786 0.252098 0.395848
O O5 0.918159 0.745422 0.952286
O O6 0.948049 0.500000 0.000000
O O7 0.000000 0.754835 0.000000
O O8 0.648150 0.500000 0.754024
O O9 0.594618 0.252758 0.767437
O O10 0.681431 0.253099 0.798000
O O11 0.069286 0.757626 0.857256
O O12 0.000000 0.747672 0.792604
O O13 0.052457 0.000000 0.802669
O O14 0.674637 0.248722 0.500000
O O15 0.750000 0.250000 0.551678
O O16 0.694169 0.000000 0.551689
O O17 0.155724 0.246170 0.888200
O O18 0.102520 0.000000 0.903693
O O19 0.750000 0.250000 0.136604
O O20 0.802885 0.000000 0.148389
#
# Coordination Sequence:
#
# PCOD9483072 Si02
#       7
#    16   8  16  16  16  16  16
#     4  10  18  26  38  57  82 112 144 175 208 246
#     4  11  23  35  48  71  98 115 132 167 216 261
#     4   9  17  28  42  63  89 112 138 173 209 248
#     4   8  14  27  48  69  86 108 140 174 206 244
#     4   8  14  24  36  50  71 102 139 175 208 242
#     4   9  18  33  52  71  88 111 146 177 201 241
#     4   9  18  31  47  67  89 115 146 176 205 241
#
# _framework density 15.935532
#
# number of rings (size 3 to 8) (size 9 to 14) (size 15 to 20)
#    0.000    3.000    0.000    3.462    0.000    4.308 
#    0.000    2.692    0.000    1.385    0.000    0.000 
#    0.000    0.615    0.000    7.692    0.000    0.000 
#
# Total GULP energy -289504.780383 kJ/mol
# GULP energy per Si atom -5567.399623 kJ/mol
# Density = 1.589926 g / cm^3
# Si number density = 15.935532 Si / 1000 Ang^3
#
#
#
# Elastic Constant Matrix: (Units=GPa)
#
#
# Indices 1 2 3 4 5 6 
#
# 1 116.4897 14.5200 77.7415 0.0000 0.0000 0.0000
# 2 14.5200 9.9006 18.3644 0.0000 0.0000 0.0000
# 3 77.7415 18.3644 167.7084 0.0000 0.0000 0.0000
# 4 0.0000 0.0000 0.0000 14.8148 0.0000 0.0000
# 5 0.0000 0.0000 0.0000 0.0000 15.5004 0.0000
# 6 0.0000 0.0000 0.0000 0.0000 0.0000 15.6308
#
#
#
# Elastic Compliance Matrix: (Units=1/GPa)
#
#
# Indices 1 2 3 4 5 6 
#
# 1 0.013179 -0.010034 -0.005010 0.000000 0.000000 0.000000
# 2 -0.010034 0.134389 -0.010064 0.000000 0.000000 0.000000
# 3 -0.005010 -0.010064 0.009387 0.000000 0.000000 0.000000
# 4 0.000000 0.000000 0.000000 0.067500 0.000000 0.000000
# 5 0.000000 0.000000 0.000000 0.000000 0.064515 0.000000
# 6 0.000000 0.000000 0.000000 0.000000 0.000000 0.063976
#
#
# Mechanical properties :
#
#
# Convention : Reuss Voigt Hill
#
# Bulk Modulus (GPa) = 9.36883 57.26116 33.31500
# Shear Modulus (GPa) = 11.39619 21.42072 16.40845
#
# Velocity S-wave (km/s) = 2.67712 3.67033 3.21234
# Velocity P-wave (km/s) = 3.93038 7.34661 5.89155
#
# Compressibility (1/GPa) = 0.10673689
#
# Stress axis : x y z
#
# Youngs Moduli (GPa) = 75.87867 7.44109 106.52638
#
# Poissons Ratio (x) = 0.07467 0.53373
# Poissons Ratio (y) = 0.76140 1.07212
# Poissons Ratio (z) = 0.38018 0.07489
#
# Static dielectric constant tensor:
#      x y z
#    x 1.547620 0.000000 0.000000 
#    y 0.000000 1.565070 0.000000 
#    z 0.000000 0.000000 1.557500 
# 
# From -- ./inp_files/76057.got.cif
#   From: 2010.05.17/outbox.cif.g08.bks.cpg/sg65_39_cif.got.tgz:76057.got - 2010.06.03 17:01:31.
