data_PCOD9483185
_publ_section_title
;
Structure prediction by ZEFSAII (Michael W. Deem and Ramdas Pophale) SiO2 
 PCOD9483185
Probable space group: C M M M
;
_chemical_formula_sum "Si O2"
_cell_formula_units_Z 88
_cell_length_a 16.482633
_cell_length_b 16.839470
_cell_length_c 16.087593
_cell_angle_alpha 90.000000
_cell_angle_beta 90.000000
_cell_angle_gamma 90.000000
_cell_volume 4465.253071
_symmetry_space_group_name_H-M "C M M M"
_symmetry_group_IT_number 65
_symmetry_cell_setting 'orthorhombic'
loop_
_space_group_symop_operation_xyz
x,y,z
-x,-y,z
x,-y,-z
-x,y,-z
-x,-y,-z
x,y,-z
-x,y,z
x,-y,z
1/2+x,1/2+y,z
1/2-x,1/2-y,z
1/2+x,1/2-y,-z
1/2-x,1/2+y,-z
1/2-x,1/2-y,-z
1/2+x,1/2+y,-z
1/2-x,1/2+y,z
1/2+x,1/2-y,z
loop_
_atom_site_type_symbol
_atom_site_label
_atom_site_fract_x
_atom_site_fract_y
_atom_site_fract_z
Si Si1 0.095469 0.000000 0.902217
Si Si2 0.172406 0.408044 0.000000
Si Si3 0.695897 0.353023 0.132094
Si Si4 0.909381 0.660164 0.402030
Si Si5 0.251812 0.659525 0.319276
Si Si6 0.912081 0.147112 0.401892
Si Si7 0.095452 0.752642 0.000000
O O1 0.130854 0.922766 0.859910
O O2 0.000000 0.000000 0.901810
O O3 0.121868 0.000000 0.000000
O O4 0.230760 0.387757 0.922485
O O5 0.102259 0.342266 0.000000
O O6 0.148571 0.500000 0.000000
O O7 0.731089 0.333832 0.221698
O O8 0.647293 0.286321 0.078894
O O9 0.893706 0.645305 0.500000
O O10 0.835808 0.627324 0.346513
O O11 0.913382 0.756446 0.392025
O O12 0.000000 0.630249 0.381549
O O13 0.250000 0.750000 0.353517
O O14 0.330440 0.617814 0.358469
O O15 0.907596 0.130989 0.500000
O O16 0.000000 0.117841 0.370587
O O17 0.000000 0.778159 0.000000
#
# Coordination Sequence:
#
# PCOD9483185 Si02
#       7
#     8   8  16  16  16  16   8
#     4  11  20  36  62  84 105 140 185 235 294 347
#     4  11  21  40  60  78 110 154 185 224 282 344
#     4  11  20  37  55  83 111 144 186 237 291 338
#     4   8  14  26  44  68 102 142 183 228 279 335
#     4  10  18  27  45  75 108 143 182 229 281 339
#     4   8  14  24  38  61  99 143 179 216 270 335
#     4  11  23  37  59  85 113 146 191 238 279 340
#
# _framework density 19.707730000000002
#
# number of rings (size 3 to 8) (size 9 to 14) (size 15 to 20)
#    0.000    2.273    2.727    4.364    0.000    3.818 
#    0.000    4.545    0.000    0.000    0.000    2.545 
#    0.000    5.818    0.000    0.000    0.000    0.000 
#
# Total GULP energy -245141.745951 kJ/mol
# GULP energy per Si atom -5571.403317 kJ/mol
# Density = 1.966287 g / cm^3
# Si number density = 19.707730 Si / 1000 Ang^3
#
#
#
# Elastic Constant Matrix: (Units=GPa)
#
#
# Indices 1 2 3 4 5 6 
#
# 1 169.6222 21.0154 85.8112 0.0000 0.0000 0.0000
# 2 21.0154 64.1223 5.9518 0.0000 0.0000 0.0000
# 3 85.8112 5.9518 68.0184 0.0000 0.0000 0.0000
# 4 0.0000 0.0000 0.0000 5.1687 0.0000 0.0000
# 5 0.0000 0.0000 0.0000 0.0000 20.1998 0.0000
# 6 0.0000 0.0000 0.0000 0.0000 0.0000 22.2527
#
#
#
# Elastic Compliance Matrix: (Units=1/GPa)
#
#
# Indices 1 2 3 4 5 6 
#
# 1 0.017095 -0.003630 -0.021250 0.000000 0.000000 0.000000
# 2 -0.003630 0.016494 0.003137 0.000000 0.000000 0.000000
# 3 -0.021250 0.003137 0.041236 0.000000 0.000000 0.000000
# 4 0.000000 0.000000 0.000000 0.193472 0.000000 0.000000
# 5 0.000000 0.000000 0.000000 0.000000 0.049506 0.000000
# 6 0.000000 0.000000 0.000000 0.000000 0.000000 0.044938
#
#
# Mechanical properties :
#
#
# Convention : Reuss Voigt Hill
#
# Bulk Modulus (GPa) = 31.90966 58.59108 45.25037
# Shear Modulus (GPa) = 11.99980 22.12320 17.06150
#
# Velocity S-wave (km/s) = 2.47024 3.35410 2.94551
# Velocity P-wave (km/s) = 4.93586 6.69287 5.88036
#
# Compressibility (1/GPa) = 0.03133847
#
# Stress axis : x y z
#
# Youngs Moduli (GPa) = 58.49564 60.62863 24.25091
#
# Poissons Ratio (x) = 0.22011 0.51532
# Poissons Ratio (y) = 0.21236 -0.07607
# Poissons Ratio (z) = 1.24301 -0.19018
#
# Static dielectric constant tensor:
#      x y z
#    x 1.729250 0.000000 0.000000 
#    y 0.000000 1.715730 0.000000 
#    z 0.000000 0.000000 1.695700 
# 
# From -- ./inp_files/53075.got.cif
#   From: 2010.05.17/outbox.cif.g08.bks.cpg/sg65_27_cif.got.tgz:53075.got - 2010.06.03 17:01:31.
