data_PCOD9483965
_publ_section_title
;
Structure prediction by ZEFSAII (Michael W. Deem and Ramdas Pophale) SiO2 
 PCOD9483965
Probable space group: C M M M
;
_chemical_formula_sum "Si O2"
_cell_formula_units_Z 96
_cell_length_a 24.095004
_cell_length_b 8.704250
_cell_length_c 26.172214
_cell_angle_alpha 90.000000
_cell_angle_beta 90.000000
_cell_angle_gamma 90.000000
_cell_volume 5489.070662
_symmetry_space_group_name_H-M "C M M M"
_symmetry_group_IT_number 65
_symmetry_cell_setting 'orthorhombic'
loop_
_space_group_symop_operation_xyz
x,y,z
-x,-y,z
x,-y,-z
-x,y,-z
-x,-y,-z
x,y,-z
-x,y,z
x,-y,z
1/2+x,1/2+y,z
1/2-x,1/2-y,z
1/2+x,1/2-y,-z
1/2-x,1/2+y,-z
1/2-x,1/2-y,-z
1/2+x,1/2+y,-z
1/2-x,1/2+y,z
1/2+x,1/2-y,z
loop_
_atom_site_type_symbol
_atom_site_label
_atom_site_fract_x
_atom_site_fract_y
_atom_site_fract_z
Si Si1 0.000000 0.178944 0.173374
Si Si2 0.381179 0.815583 0.844450
Si Si3 0.500000 0.825059 0.280073
Si Si4 0.435796 0.187327 0.557818
Si Si5 0.188350 0.685224 0.057023
Si Si6 0.616083 0.180874 0.339625
Si Si7 0.188103 0.817263 0.250882
O O1 0.055987 0.257914 0.154198
O O2 0.000000 0.205370 0.234418
O O3 0.000000 0.000000 0.161122
O O4 0.349847 0.765856 0.896057
O O5 0.349646 0.749263 0.794982
O O6 0.380032 0.000000 0.840792
O O7 0.444575 0.809682 0.313199
O O8 0.500000 0.000000 0.258408
O O9 0.420993 0.232997 0.500000
O O10 0.500000 0.234442 0.567293
O O11 0.394733 0.238022 0.602715
O O12 0.436081 0.000000 0.559581
O O13 0.190996 0.500000 0.058017
O O14 0.250000 0.750000 0.064103
O O15 0.169054 0.731500 0.000000
O O16 0.659401 0.268710 0.304172
O O17 0.631503 0.000000 0.340562
O O18 0.250000 0.750000 0.247199
O O19 0.190115 0.000000 0.246539
#
# Coordination Sequence:
#
# PCOD9483965 Si02
#       7
#     8  16   8  16  16  16  16
#     4  12  24  36  53  80 113 148 185 222 264 321
#     4  11  22  38  59  82 112 146 179 220 269 323
#     4  10  18  30  51  77 109 146 181 213 262 321
#     4   8  13  23  44  77 111 140 173 213 258 313
#     4   9  19  36  59  85 110 140 180 224 270 318
#     4  10  18  31  53  80 110 144 178 218 266 321
#     4  12  25  39  55  78 107 140 180 226 272 323
#
# _framework density 17.4893
#
# number of rings (size 3 to 8) (size 9 to 14) (size 15 to 20)
#    0.000    1.833    2.500    3.750    0.000    2.667 
#    0.000    0.417    0.000    3.500    0.000    1.167 
#    0.000    0.000    0.000    0.000    0.000    0.000 
#
# Total GULP energy -267902.796512 kJ/mol
# GULP energy per Si atom -5581.308261 kJ/mol
# Density = 1.744949 g / cm^3
# Si number density = 17.489300 Si / 1000 Ang^3
#
#
#
# Elastic Constant Matrix: (Units=GPa)
#
#
# Indices 1 2 3 4 5 6 
#
# 1 114.7104 38.4428 72.2350 0.0000 0.0000 0.0000
# 2 38.4428 63.2377 39.3129 0.0000 0.0000 0.0000
# 3 72.2350 39.3129 151.2566 0.0000 0.0000 0.0000
# 4 0.0000 0.0000 0.0000 7.9734 0.0000 0.0000
# 5 0.0000 0.0000 0.0000 0.0000 14.2633 0.0000
# 6 0.0000 0.0000 0.0000 0.0000 0.0000 19.6487
#
#
#
# Elastic Compliance Matrix: (Units=1/GPa)
#
#
# Indices 1 2 3 4 5 6 
#
# 1 0.013714 -0.005087 -0.005227 0.000000 0.000000 0.000000
# 2 -0.005087 0.020748 -0.002963 0.000000 0.000000 0.000000
# 3 -0.005227 -0.002963 0.009878 0.000000 0.000000 0.000000
# 4 0.000000 0.000000 0.000000 0.125417 0.000000 0.000000
# 5 0.000000 0.000000 0.000000 0.000000 0.070110 0.000000
# 6 0.000000 0.000000 0.000000 0.000000 0.000000 0.050894
#
#
# Mechanical properties :
#
#
# Convention : Reuss Voigt Hill
#
# Bulk Modulus (GPa) = 56.22796 69.90956 63.06876
# Shear Modulus (GPa) = 15.46816 20.32468 17.89642
#
# Velocity S-wave (km/s) = 2.97717 3.41269 3.20234
# Velocity P-wave (km/s) = 6.63610 7.45574 7.05783
#
# Compressibility (1/GPa) = 0.01778475
#
# Stress axis : x y z
#
# Youngs Moduli (GPa) = 72.91722 48.19733 101.23802
#
# Poissons Ratio (x) = 0.24520 0.52919
# Poissons Ratio (y) = 0.37096 0.29997
# Poissons Ratio (z) = 0.38115 0.14281
#
# Static dielectric constant tensor:
#      x y z
#    x 1.569700 0.000000 0.000000 
#    y 0.000000 1.589340 0.000000 
#    z 0.000000 0.000000 1.616180 
# 
# From -- ./inp_files/75732.got.cif
#   From: 2010.05.17/outbox.cif.g08.bks.cpg/sg65_38_cif.got.tgz:75732.got - 2010.06.03 17:01:31.
