data_PCOD9483498
_publ_section_title
;
Structure prediction by ZEFSAII (Michael W. Deem and Ramdas Pophale) SiO2 
 PCOD9483498
Probable space group: C M M M
;
_chemical_formula_sum "Si O2"
_cell_formula_units_Z 72
_cell_length_a 14.196852
_cell_length_b 30.685538
_cell_length_c 7.304778
_cell_angle_alpha 90.000000
_cell_angle_beta 90.000000
_cell_angle_gamma 90.000000
_cell_volume 3182.239182
_symmetry_space_group_name_H-M "C M M M"
_symmetry_group_IT_number 65
_symmetry_cell_setting 'orthorhombic'
loop_
_space_group_symop_operation_xyz
x,y,z
-x,-y,z
x,-y,-z
-x,y,-z
-x,-y,-z
x,y,-z
-x,y,z
x,-y,z
1/2+x,1/2+y,z
1/2-x,1/2-y,z
1/2+x,1/2-y,-z
1/2-x,1/2+y,-z
1/2-x,1/2-y,-z
1/2+x,1/2+y,-z
1/2-x,1/2+y,z
1/2+x,1/2-y,z
loop_
_atom_site_type_symbol
_atom_site_label
_atom_site_fract_x
_atom_site_fract_y
_atom_site_fract_z
Si Si1 0.390006 0.500000 0.777872
Si Si2 0.893919 0.550430 0.279140
Si Si3 0.301042 0.411415 0.790368
Si Si4 0.604881 0.772603 0.777432
Si Si5 0.202425 0.183844 0.776478
O O1 0.500000 0.500000 0.738801
O O2 0.343466 0.455488 0.708137
O O3 0.377120 0.500000 0.000000
O O4 0.891771 0.551150 0.500000
O O5 0.876094 0.500000 0.222947
O O6 0.811366 0.581172 0.210652
O O7 0.000000 0.562076 0.221661
O O8 0.323557 0.364232 0.710772
O O9 0.335037 0.410067 0.000000
O O10 0.500000 0.784144 0.715600
O O11 0.691456 0.803118 0.719807
O O12 0.634119 0.723388 0.723820
O O13 0.604438 0.773424 0.000000
O O14 0.202695 0.182874 0.000000
#
# Coordination Sequence:
#
# PCOD9483498 Si02
#       5
#     8  16  16  16  16
#     4   9  18  30  42  61  92 124 151 183 224 265
#     4   9  18  32  48  65  88 120 153 184 223 271
#     4  10  18  29  46  68  93 120 152 190 227 261
#     4   8  13  23  37  54  82 116 144 176 221 267
#     4   8  15  24  36  59  86 111 144 182 219 262
#
# _framework density 22.625578000000001
#
# number of rings (size 3 to 8) (size 9 to 14) (size 15 to 20)
#    0.000    3.222    1.111    2.000    0.000    2.222 
#    0.000    7.778    0.000    1.333    0.000    3.111 
#    0.000    1.778    0.000    0.000    0.000    0.000 
#
# Total GULP energy -200965.556760 kJ/mol
# GULP energy per Si atom -5582.376577 kJ/mol
# Density = 2.257408 g / cm^3
# Si number density = 22.625578 Si / 1000 Ang^3
#
#
#
# Elastic Constant Matrix: (Units=GPa)
#
#
# Indices 1 2 3 4 5 6 
#
# 1 53.8577 10.9122 -3.3978 0.0000 0.0000 0.0000
# 2 10.9122 132.7648 7.1144 0.0000 0.0000 0.0000
# 3 -3.3978 7.1144 94.3301 0.0000 0.0000 0.0000
# 4 0.0000 0.0000 0.0000 -45.5241 0.0000 0.0000
# 5 0.0000 0.0000 0.0000 0.0000 49.9108 0.0000
# 6 0.0000 0.0000 0.0000 0.0000 0.0000 5.3920
#
#
#
# Elastic Compliance Matrix: (Units=1/GPa)
#
#
# Indices 1 2 3 4 5 6 
#
# 1 0.018942 -0.001600 0.000803 0.000000 0.000000 0.000000
# 2 -0.001600 0.007698 -0.000638 0.000000 0.000000 0.000000
# 3 0.000803 -0.000638 0.010678 0.000000 0.000000 0.000000
# 4 0.000000 0.000000 0.000000 -0.021966 0.000000 0.000000
# 5 0.000000 0.000000 0.000000 0.000000 0.020036 0.000000
# 6 0.000000 0.000000 0.000000 0.000000 0.000000 0.185459
#
#
# Mechanical properties :
#
#
# Convention : Reuss Voigt Hill
#
# Bulk Modulus (GPa) = 29.02933 34.46778 31.74855
# Shear Modulus (GPa) = 21.25858 19.71066 20.48462
#
# Velocity S-wave (km/s) = 3.06859 2.95476 3.01221
# Velocity P-wave (km/s) = 5.04114 5.18728 5.11473
#
# Compressibility (1/GPa) = 0.03444792
#
# Stress axis : x y z
#
# Youngs Moduli (GPa) = 52.79199 129.90696 93.64939
#
# Poissons Ratio (x) = 0.20784 -0.07520
# Poissons Ratio (y) = 0.08446 0.05977
# Poissons Ratio (z) = -0.04239 0.08291
#
# Static dielectric constant tensor:
#      x y z
#    x 1.793660 0.000000 0.000000 
#    y 0.000000 1.825420 0.000000 
#    z 0.000000 0.000000 1.856950 
# 
# From -- ./inp_files/7654.got.cif
#   From: 2010.05.17/outbox.cif.g08.bks.cpg/sg65_4_cif.got.tgz:7654.got - 2010.06.03 17:01:31.
