data_PCOD9483869
_publ_section_title
;
Structure prediction by ZEFSAII (Michael W. Deem and Ramdas Pophale) SiO2 
 PCOD9483869
Probable space group: C M M M
;
_chemical_formula_sum "Si O2"
_cell_formula_units_Z 104
_cell_length_a 29.316368
_cell_length_b 7.622881
_cell_length_c 23.968738
_cell_angle_alpha 90.000000
_cell_angle_beta 90.000000
_cell_angle_gamma 90.000000
_cell_volume 5356.418150
_symmetry_space_group_name_H-M "C M M M"
_symmetry_group_IT_number 65
_symmetry_cell_setting 'orthorhombic'
loop_
_space_group_symop_operation_xyz
x,y,z
-x,-y,z
x,-y,-z
-x,y,-z
-x,-y,-z
x,y,-z
-x,y,z
x,-y,z
1/2+x,1/2+y,z
1/2-x,1/2-y,z
1/2+x,1/2-y,-z
1/2-x,1/2+y,-z
1/2-x,1/2-y,-z
1/2+x,1/2+y,-z
1/2-x,1/2+y,z
1/2+x,1/2-y,z
loop_
_atom_site_type_symbol
_atom_site_label
_atom_site_fract_x
_atom_site_fract_y
_atom_site_fract_z
Si Si1 0.851037 0.292456 0.888253
Si Si2 0.196538 0.709375 0.224399
Si Si3 0.803482 0.288720 0.000000
Si Si4 0.949023 0.785616 0.275529
Si Si5 0.359308 0.294172 0.333638
Si Si6 0.050743 0.211569 0.853513
Si Si7 0.697328 0.288784 0.562871
O O1 0.841400 0.500000 0.887184
O O2 0.829773 0.221202 0.830514
O O3 0.827195 0.220223 0.943645
O O4 0.905407 0.269109 0.887925
O O5 0.190763 0.500000 0.226898
O O6 0.250000 0.750000 0.220344
O O7 0.174581 0.781420 0.280980
O O8 0.750000 0.250000 0.000000
O O9 0.809108 0.500000 0.000000
O O10 0.907771 0.720089 0.313419
O O11 0.942442 0.731505 0.210983
O O12 0.000000 0.733412 0.292923
O O13 0.947844 0.000000 0.275222
O O14 0.367064 0.500000 0.344799
O O15 0.335574 0.219095 0.388758
O O16 0.000000 0.270383 0.871330
O O17 0.050373 0.000000 0.853659
O O18 0.688261 0.223203 0.500000
O O19 0.693155 0.500000 0.561605
O O20 0.750000 0.250000 0.576612
#
# Coordination Sequence:
#
# PCOD9483869 Si02
#       7
#    16  16   8  16  16  16  16
#     4  10  21  36  53  74 100 130 163 204 247 293
#     4  11  22  33  47  71 100 126 156 199 247 292
#     4  10  22  40  57  74  97 131 174 207 243 296
#     4   8  14  26  46  72  98 125 158 193 235 289
#     4  10  18  30  50  72  96 128 161 199 245 288
#     4   9  17  31  53  78 102 129 163 201 241 293
#     4   9  18  31  46  66  93 127 166 202 238 284
#
# _framework density 19.415960999999999
#
# number of rings (size 3 to 8) (size 9 to 14) (size 15 to 20)
#    0.000    2.462    1.538    2.308    0.000    3.385 
#    0.000    0.385    0.000    3.231    0.000    3.231 
#    0.000    0.000    0.000    5.231    0.000    5.538 
#
# Total GULP energy -290170.369358 kJ/mol
# GULP energy per Si atom -5580.199411 kJ/mol
# Density = 1.937177 g / cm^3
# Si number density = 19.415961 Si / 1000 Ang^3
#
#
#
# Elastic Constant Matrix: (Units=GPa)
#
#
# Indices 1 2 3 4 5 6 
#
# 1 162.1599 -13.9660 85.1065 0.0000 0.0000 0.0000
# 2 -13.9660 37.2309 -1.9474 0.0000 0.0000 0.0000
# 3 85.1065 -1.9474 116.5107 0.0000 0.0000 0.0000
# 4 0.0000 0.0000 0.0000 12.8992 0.0000 0.0000
# 5 0.0000 0.0000 0.0000 0.0000 29.8569 0.0000
# 6 0.0000 0.0000 0.0000 0.0000 0.0000 14.0674
#
#
#
# Elastic Compliance Matrix: (Units=1/GPa)
#
#
# Indices 1 2 3 4 5 6 
#
# 1 0.010442 0.003521 -0.007569 0.000000 0.000000 0.000000
# 2 0.003521 0.028070 -0.002103 0.000000 0.000000 0.000000
# 3 -0.007569 -0.002103 0.014077 0.000000 0.000000 0.000000
# 4 0.000000 0.000000 0.000000 0.077524 0.000000 0.000000
# 5 0.000000 0.000000 0.000000 0.000000 0.033493 0.000000
# 6 0.000000 0.000000 0.000000 0.000000 0.000000 0.071086
#
#
# Mechanical properties :
#
#
# Convention : Reuss Voigt Hill
#
# Bulk Modulus (GPa) = 24.82127 50.47641 37.64884
# Shear Modulus (GPa) = 19.19949 27.81191 23.50570
#
# Velocity S-wave (km/s) = 3.14801 3.78885 3.48320
# Velocity P-wave (km/s) = 5.10147 6.72267 5.96738
#
# Compressibility (1/GPa) = 0.04028802
#
# Stress axis : x y z
#
# Youngs Moduli (GPa) = 95.76324 35.62483 71.04010
#
# Poissons Ratio (x) = -0.12544 0.53770
# Poissons Ratio (y) = -0.33720 0.14939
# Poissons Ratio (z) = 0.72482 0.07492
#
# Static dielectric constant tensor:
#      x y z
#    x 1.671660 0.000000 0.000000 
#    y 0.000000 1.749580 0.000000 
#    z 0.000000 0.000000 1.677990 
# 
# From -- ./inp_files/71852.got.cif
#   From: 2010.05.17/outbox.cif.g08.bks.cpg/sg65_36_cif.got.tgz:71852.got - 2010.06.03 17:01:31.
