data_PCOD9483981
_publ_section_title
;
Structure prediction by ZEFSAII (Michael W. Deem and Ramdas Pophale) SiO2 
 PCOD9483981
Probable space group: C M M M
;
_chemical_formula_sum "Si O2"
_cell_formula_units_Z 88
_cell_length_a 9.354321
_cell_length_b 29.053584
_cell_length_c 19.775389
_cell_angle_alpha 90.000000
_cell_angle_beta 90.000000
_cell_angle_gamma 90.000000
_cell_volume 5374.487016
_symmetry_space_group_name_H-M "C M M M"
_symmetry_group_IT_number 65
_symmetry_cell_setting 'orthorhombic'
loop_
_space_group_symop_operation_xyz
x,y,z
-x,-y,z
x,-y,-z
-x,y,-z
-x,-y,-z
x,y,-z
-x,y,z
x,-y,z
1/2+x,1/2+y,z
1/2-x,1/2-y,z
1/2+x,1/2-y,-z
1/2-x,1/2+y,-z
1/2-x,1/2-y,-z
1/2+x,1/2+y,-z
1/2-x,1/2+y,z
1/2+x,1/2-y,z
loop_
_atom_site_type_symbol
_atom_site_label
_atom_site_fract_x
_atom_site_fract_y
_atom_site_fract_z
Si Si1 0.162232 0.884744 0.677191
Si Si2 0.830810 0.296689 0.700415
Si Si3 0.669138 0.203956 0.862045
Si Si4 0.328116 0.446863 0.804625
Si Si5 0.828201 0.605697 0.078308
Si Si6 0.500000 0.553952 0.580451
O O1 0.263825 0.841663 0.665901
O O2 0.211812 0.914615 0.741316
O O3 0.000000 0.867020 0.692871
O O4 0.133468 0.919547 0.615055
O O5 0.750000 0.250000 0.680139
O O6 0.806399 0.302650 0.781514
O O7 0.000000 0.292892 0.689283
O O8 0.500000 0.210392 0.872040
O O9 0.750000 0.250000 0.883634
O O10 0.713137 0.157769 0.900725
O O11 0.500000 0.443787 0.812027
O O12 0.292326 0.500000 0.791223
O O13 0.250952 0.428567 0.871269
O O14 0.000000 0.602039 0.087304
O O15 0.795003 0.597172 0.000000
O O16 0.500000 0.500000 0.599287
O O17 0.500000 0.557956 0.500000
#
# Coordination Sequence:
#
# PCOD9483981 Si02
#       6
#    16  16  16  16  16   8
#     4   9  18  31  54  83 109 138 176 218 262 314
#     4  10  18  30  51  80 112 141 180 225 269 316
#     4   9  18  31  47  69  97 128 167 213 261 311
#     4  10  20  34  52  73  99 129 170 221 267 313
#     4  10  21  36  50  67  97 135 175 219 269 322
#     4   9  18  34  60  90 117 145 179 217 263 323
#
# _framework density 16.373654999999999
#
# number of rings (size 3 to 8) (size 9 to 14) (size 15 to 20)
#    0.545    1.909    1.818    1.091    0.000    2.909 
#    0.000    1.818    0.000    2.727    0.000    1.273 
#    0.000    0.000    0.000    0.000    0.000    0.000 
#
# Total GULP energy -245147.000904 kJ/mol
# GULP energy per Si atom -5571.522748 kJ/mol
# Density = 1.633639 g / cm^3
# Si number density = 16.373655 Si / 1000 Ang^3
#
#
#
# Elastic Constant Matrix: (Units=GPa)
#
#
# Indices 1 2 3 4 5 6 
#
# 1 33.3482 51.1643 23.9687 0.0000 0.0000 0.0000
# 2 51.1643 132.6264 47.0399 0.0000 0.0000 0.0000
# 3 23.9687 47.0399 58.7441 0.0000 0.0000 0.0000
# 4 0.0000 0.0000 0.0000 22.9728 0.0000 0.0000
# 5 0.0000 0.0000 0.0000 0.0000 13.3617 0.0000
# 6 0.0000 0.0000 0.0000 0.0000 0.0000 32.1581
#
#
#
# Elastic Compliance Matrix: (Units=1/GPa)
#
#
# Indices 1 2 3 4 5 6 
#
# 1 0.078099 -0.026294 -0.010810 0.000000 0.000000 0.000000
# 2 -0.026294 0.019384 -0.004793 0.000000 0.000000 0.000000
# 3 -0.010810 -0.004793 0.025272 0.000000 0.000000 0.000000
# 4 0.000000 0.000000 0.000000 0.043530 0.000000 0.000000
# 5 0.000000 0.000000 0.000000 0.000000 0.074841 0.000000
# 6 0.000000 0.000000 0.000000 0.000000 0.000000 0.031096
#
#
# Mechanical properties :
#
#
# Convention : Reuss Voigt Hill
#
# Bulk Modulus (GPa) = 25.66822 52.11827 38.89325
# Shear Modulus (GPa) = 13.55002 20.53490 17.04246
#
# Velocity S-wave (km/s) = 2.87984 3.54523 3.22972
# Velocity P-wave (km/s) = 5.17383 6.97552 6.14111
#
# Compressibility (1/GPa) = 0.03895868
#
# Stress axis : x y z
#
# Youngs Moduli (GPa) = 12.80434 51.58947 39.56976
#
# Poissons Ratio (x) = 1.35652 0.42776
# Poissons Ratio (y) = 0.33668 0.18966
# Poissons Ratio (z) = 0.13842 0.24727
#
# Static dielectric constant tensor:
#      x y z
#    x 1.544450 0.000000 0.000000 
#    y 0.000000 1.548090 0.000000 
#    z 0.000000 0.000000 1.533940 
# 
# From -- ./inp_files/60727.got.cif
#   From: 2010.05.17/outbox.cif.g08.bks.cpg/sg65_31_cif.got.tgz:60727.got - 2010.06.03 17:01:31.
