data_PCOD9483737
_publ_section_title
;
Structure prediction by ZEFSAII (Michael W. Deem and Ramdas Pophale) SiO2 
 PCOD9483737
Probable space group: C M M M
;
_chemical_formula_sum "Si O2"
_cell_formula_units_Z 72
_cell_length_a 34.741780
_cell_length_b 8.785864
_cell_length_c 15.962015
_cell_angle_alpha 90.000000
_cell_angle_beta 90.000000
_cell_angle_gamma 90.000000
_cell_volume 4872.190457
_symmetry_space_group_name_H-M "C M M M"
_symmetry_group_IT_number 65
_symmetry_cell_setting 'orthorhombic'
loop_
_space_group_symop_operation_xyz
x,y,z
-x,-y,z
x,-y,-z
-x,y,-z
-x,-y,-z
x,y,-z
-x,y,z
x,-y,z
1/2+x,1/2+y,z
1/2-x,1/2-y,z
1/2+x,1/2-y,-z
1/2-x,1/2+y,-z
1/2-x,1/2-y,-z
1/2+x,1/2+y,-z
1/2-x,1/2+y,z
1/2+x,1/2-y,z
loop_
_atom_site_type_symbol
_atom_site_label
_atom_site_fract_x
_atom_site_fract_y
_atom_site_fract_z
Si Si1 0.580869 0.318155 0.097946
Si Si2 0.793350 0.182480 0.500000
Si Si3 0.000000 0.324307 0.101654
Si Si4 0.206946 0.683171 0.326873
Si Si5 0.707435 0.816406 0.000000
Si Si6 0.158231 0.316906 0.162251
O O1 0.580369 0.500000 0.099682
O O2 0.539601 0.255765 0.127518
O O3 0.616416 0.255185 0.150761
O O4 0.586332 0.269913 0.000000
O O5 0.750000 0.250000 0.500000
O O6 0.809666 0.246632 0.412943
O O7 0.792556 0.000000 0.500000
O O8 0.000000 0.500000 0.127101
O O9 0.000000 0.317935 0.000000
O O10 0.209814 0.500000 0.334508
O O11 0.250000 0.750000 0.314226
O O12 0.180400 0.721683 0.247635
O O13 0.750000 0.750000 0.000000
O O14 0.684182 0.768830 0.917172
O O15 0.709750 0.000000 0.000000
O O16 0.154442 0.500000 0.158888
#
# Coordination Sequence:
#
# PCOD9483737 Si02
#       6
#    16   8   8  16   8  16
#     4  10  19  30  45  66  90 117 151 191 228 265
#     4  10  18  30  48  66  86 113 144 187 236 282
#     4   9  17  29  47  65  85 116 149 184 227 275
#     4  10  19  31  47  67  89 117 152 192 233 275
#     4  10  20  32  44  59  84 119 158 192 221 260
#     4  10  20  32  46  63  89 122 155 189 226 269
#
# _framework density 14.777748000000001
#
# number of rings (size 3 to 8) (size 9 to 14) (size 15 to 20)
#    0.000    2.111    1.111    4.667    0.000    4.889 
#    0.000    0.000    0.000    0.000    0.000    0.000 
#    0.000    0.889    0.000    9.333    0.000    4.444 
#
# Total GULP energy -200780.034469 kJ/mol
# GULP energy per Si atom -5577.223180 kJ/mol
# Density = 1.474411 g / cm^3
# Si number density = 14.777748 Si / 1000 Ang^3
#
#
#
# Elastic Constant Matrix: (Units=GPa)
#
#
# Indices 1 2 3 4 5 6 
#
# 1 124.9983 44.2477 62.7128 0.0000 0.0000 0.0000
# 2 44.2477 54.9583 47.5378 0.0000 0.0000 0.0000
# 3 62.7128 47.5378 118.5947 0.0000 0.0000 0.0000
# 4 0.0000 0.0000 0.0000 16.4932 0.0000 0.0000
# 5 0.0000 0.0000 0.0000 0.0000 6.6134 0.0000
# 6 0.0000 0.0000 0.0000 0.0000 0.0000 28.5875
#
#
#
# Elastic Compliance Matrix: (Units=1/GPa)
#
#
# Indices 1 2 3 4 5 6 
#
# 1 0.012245 -0.006518 -0.003863 0.000000 0.000000 0.000000
# 2 -0.006518 0.031322 -0.009109 0.000000 0.000000 0.000000
# 3 -0.003863 -0.009109 0.014126 0.000000 0.000000 0.000000
# 4 0.000000 0.000000 0.000000 0.060631 0.000000 0.000000
# 5 0.000000 0.000000 0.000000 0.000000 0.151207 0.000000
# 6 0.000000 0.000000 0.000000 0.000000 0.000000 0.034980
#
#
# Mechanical properties :
#
#
# Convention : Reuss Voigt Hill
#
# Bulk Modulus (GPa) = 53.43329 67.50533 60.46931
# Shear Modulus (GPa) = 14.29685 19.94236 17.11961
#
# Velocity S-wave (km/s) = 3.11377 3.67752 3.40733
# Velocity P-wave (km/s) = 7.01170 7.98823 7.51584
#
# Compressibility (1/GPa) = 0.01871492
#
# Stress axis : x y z
#
# Youngs Moduli (GPa) = 81.66451 31.92670 70.79241
#
# Poissons Ratio (x) = 0.20809 0.27345
# Poissons Ratio (y) = 0.53226 0.64482
# Poissons Ratio (z) = 0.31545 0.29081
#
# Static dielectric constant tensor:
#      x y z
#    x 1.466400 0.000000 0.000000 
#    y 0.000000 1.497360 0.000000 
#    z 0.000000 0.000000 1.501570 
# 
# From -- ./inp_files/47491.got.cif
#   From: 2010.05.17/outbox.cif.g08.bks.cpg/sg65_24_cif.got.tgz:47491.got - 2010.06.03 17:01:31.
