data_PCOD9483969
_publ_section_title
;
Structure prediction by ZEFSAII (Michael W. Deem and Ramdas Pophale) SiO2 
 PCOD9483969
Probable space group: C M M M
;
_chemical_formula_sum "Si O2"
_cell_formula_units_Z 88
_cell_length_a 18.555921
_cell_length_b 8.714751
_cell_length_c 30.077344
_cell_angle_alpha 90.000000
_cell_angle_beta 90.000000
_cell_angle_gamma 90.000000
_cell_volume 4863.814249
_symmetry_space_group_name_H-M "C M M M"
_symmetry_group_IT_number 65
_symmetry_cell_setting 'orthorhombic'
loop_
_space_group_symop_operation_xyz
x,y,z
-x,-y,z
x,-y,-z
-x,y,-z
-x,-y,-z
x,y,-z
-x,y,z
x,-y,z
1/2+x,1/2+y,z
1/2-x,1/2-y,z
1/2+x,1/2-y,-z
1/2-x,1/2+y,-z
1/2-x,1/2-y,-z
1/2+x,1/2+y,-z
1/2-x,1/2+y,z
1/2+x,1/2-y,z
loop_
_atom_site_type_symbol
_atom_site_label
_atom_site_fract_x
_atom_site_fract_y
_atom_site_fract_z
Si Si1 0.668394 0.183634 0.951471
Si Si2 0.668298 0.683576 0.500000
Si Si3 0.669209 0.316383 0.236427
Si Si4 0.331369 0.316488 0.861645
Si Si5 0.916946 0.684968 0.680651
Si Si6 0.669137 0.184579 0.591795
O O1 0.750000 0.250000 0.952380
O O2 0.633761 0.249390 0.906456
O O3 0.672302 0.000000 0.948087
O O4 0.636013 0.222901 0.000000
O O5 0.670011 0.500000 0.500000
O O6 0.750000 0.750000 0.500000
O O7 0.636899 0.746968 0.453862
O O8 0.673649 0.500000 0.238867
O O9 0.750000 0.250000 0.240015
O O10 0.638657 0.276388 0.187181
O O11 0.622076 0.253514 0.276519
O O12 0.328195 0.500000 0.865560
O O13 0.250000 0.250000 0.860559
O O14 0.914103 0.500000 0.683725
O O15 0.876107 0.727683 0.635250
O O16 0.000000 0.732869 0.678934
O O17 0.750000 0.250000 0.596885
O O18 0.672528 0.000000 0.588069
#
# Coordination Sequence:
#
# PCOD9483969 Si02
#       6
#    16   8  16  16  16  16
#     4   9  15  21  31  50  78 113 150 186 229 281
#     4  10  18  30  51  78 105 131 163 201 241 284
#     4  10  20  33  51  74  98 128 166 208 251 295
#     4   9  16  25  38  58  84 115 153 193 235 283
#     4  10  22  38  54  74 101 133 168 206 250 299
#     4  10  19  33  54  78 104 132 165 203 242 287
#
# _framework density 18.092797000000001
#
# number of rings (size 3 to 8) (size 9 to 14) (size 15 to 20)
#    0.000    2.364    0.000    5.727    0.000    6.545 
#    0.000    0.455    0.000    2.727    0.000    0.000 
#    0.000    0.727    0.000    8.000    0.000    8.909 
#
# Total GULP energy -245207.814210 kJ/mol
# GULP energy per Si atom -5572.904868 kJ/mol
# Density = 1.805162 g / cm^3
# Si number density = 18.092797 Si / 1000 Ang^3
#
#
#
# Elastic Constant Matrix: (Units=GPa)
#
#
# Indices 1 2 3 4 5 6 
#
# 1 46.9123 20.7993 63.0006 0.0000 0.0000 0.0000
# 2 20.7993 66.1004 69.4825 0.0000 0.0000 0.0000
# 3 63.0006 69.4825 243.8448 0.0000 0.0000 0.0000
# 4 0.0000 0.0000 0.0000 41.9082 0.0000 0.0000
# 5 0.0000 0.0000 0.0000 0.0000 -3.4509 0.0000
# 6 0.0000 0.0000 0.0000 0.0000 0.0000 12.7615
#
#
#
# Elastic Compliance Matrix: (Units=1/GPa)
#
#
# Indices 1 2 3 4 5 6 
#
# 1 0.032830 -0.002019 -0.007907 0.000000 0.000000 0.000000
# 2 -0.002019 0.021722 -0.005668 0.000000 0.000000 0.000000
# 3 -0.007907 -0.005668 0.007759 0.000000 0.000000 0.000000
# 4 0.000000 0.000000 0.000000 0.023862 0.000000 0.000000
# 5 0.000000 0.000000 0.000000 0.000000 -0.289783 0.000000
# 6 0.000000 0.000000 0.000000 0.000000 0.000000 0.078361
#
#
# Mechanical properties :
#
#
# Convention : Reuss Voigt Hill
#
# Bulk Modulus (GPa) = 32.13044 73.71358 52.92201
# Shear Modulus (GPa) = -59.74479 23.81544 -17.96468
#
# Velocity S-wave (km/s) = -5.75265 3.63201 -3.15448
# Velocity P-wave (km/s) = 5.13096 7.64324 4.00577
#
# Compressibility (1/GPa) = 0.03112313
#
# Stress axis : x y z
#
# Youngs Moduli (GPa) = 30.46009 46.03700 128.88578
#
# Poissons Ratio (x) = 0.09295 1.01906
# Poissons Ratio (y) = 0.06150 0.73051
# Poissons Ratio (z) = 0.24084 0.26093
#
# Static dielectric constant tensor:
#      x y z
#    x 1.573280 0.000000 0.000000 
#    y 0.000000 1.610460 0.000000 
#    z 0.000000 0.000000 1.695360 
# 
# From -- ./inp_files/77899.got.cif
#   From: 2010.05.17/outbox.cif.g08.bks.cpg/sg65_39_cif.got.tgz:77899.got - 2010.06.03 17:01:31.
