data_PCOD9483447
_publ_section_title
;
Structure prediction by ZEFSAII (Michael W. Deem and Ramdas Pophale) SiO2 
 PCOD9483447
Probable space group: C M M M
;
_chemical_formula_sum "Si O2"
_cell_formula_units_Z 120
_cell_length_a 29.587304
_cell_length_b 14.543731
_cell_length_c 15.343596
_cell_angle_alpha 90.000000
_cell_angle_beta 90.000000
_cell_angle_gamma 90.000000
_cell_volume 6602.499579
_symmetry_space_group_name_H-M "C M M M"
_symmetry_group_IT_number 65
_symmetry_cell_setting 'orthorhombic'
loop_
_space_group_symop_operation_xyz
x,y,z
-x,-y,z
x,-y,-z
-x,y,-z
-x,-y,-z
x,y,-z
-x,y,z
x,-y,z
1/2+x,1/2+y,z
1/2-x,1/2-y,z
1/2+x,1/2-y,-z
1/2-x,1/2+y,-z
1/2-x,1/2-y,-z
1/2+x,1/2+y,-z
1/2-x,1/2+y,z
1/2+x,1/2-y,z
loop_
_atom_site_type_symbol
_atom_site_label
_atom_site_fract_x
_atom_site_fract_y
_atom_site_fract_z
Si Si1 0.788490 0.109262 0.228477
Si Si2 0.947815 0.732880 0.160738
Si Si3 0.801060 0.785426 0.406612
Si Si4 0.184173 0.604830 0.822437
Si Si5 0.853803 0.398386 0.629588
Si Si6 0.946062 0.399852 0.000000
Si Si7 0.049275 0.603699 0.327219
Si Si8 0.855662 0.211506 0.897270
O O1 0.804844 0.155839 0.318656
O O2 0.735568 0.129394 0.207086
O O3 0.819654 0.147035 0.151156
O O4 0.791786 0.000000 0.236689
O O5 0.947097 0.679792 0.252195
O O6 0.904957 0.799245 0.148560
O O7 0.000000 0.766216 0.147192
O O8 0.937002 0.658214 0.085834
O O9 0.809875 0.833398 0.500000
O O10 0.750000 0.750000 0.406740
O O11 0.829959 0.692243 0.403628
O O12 0.184347 0.500000 0.857919
O O13 0.154767 0.603395 0.733832
O O14 0.163619 0.684892 0.881582
O O15 0.837339 0.500000 0.600730
O O16 0.907061 0.391156 0.612992
O O17 0.924356 0.500000 0.000000
O O18 0.000000 0.410505 0.000000
O O19 0.050742 0.500000 0.287491
O O20 0.000000 0.612963 0.369502
O O21 0.859366 0.193687 0.000000
#
# Coordination Sequence:
#
# PCOD9483447 Si02
#       8
#    16  16  16  16  16   8  16  16
#     4  11  23  41  59  75 106 143 184 236 284 323
#     4  10  18  29  44  69 104 138 174 223 278 326
#     4  11  21  35  58  87 114 140 176 220 273 334
#     4  10  20  35  54  77 109 149 180 215 265 321
#     4  10  18  32  53  79 116 151 177 209 258 319
#     4   9  16  24  36  60  98 137 167 203 258 320
#     4   9  16  26  45  72 104 146 188 217 246 300
#     4  12  23  36  55  79 106 145 191 233 273 321
#
# _framework density 18.174934
#
# number of rings (size 3 to 8) (size 9 to 14) (size 15 to 20)
#    0.000    1.667    4.667    0.800    0.000    4.267 
#    0.000    2.667    0.000    0.800    0.000    2.800 
#    0.000    0.000    0.000    5.600    0.000    0.133 
#
# Total GULP energy -334455.579950 kJ/mol
# GULP energy per Si atom -5574.259666 kJ/mol
# Density = 1.813357 g / cm^3
# Si number density = 18.174934 Si / 1000 Ang^3
#
#
#
# Elastic Constant Matrix: (Units=GPa)
#
#
# Indices 1 2 3 4 5 6 
#
# 1 138.5467 40.9996 22.8856 0.0000 0.0000 0.0000
# 2 40.9996 50.4210 21.0518 0.0000 0.0000 0.0000
# 3 22.8856 21.0518 57.7670 0.0000 0.0000 0.0000
# 4 0.0000 0.0000 0.0000 2.2796 0.0000 0.0000
# 5 0.0000 0.0000 0.0000 0.0000 27.8022 0.0000
# 6 0.0000 0.0000 0.0000 0.0000 0.0000 20.9677
#
#
#
# Elastic Compliance Matrix: (Units=1/GPa)
#
#
# Indices 1 2 3 4 5 6 
#
# 1 0.009567 -0.007309 -0.001127 0.000000 0.000000 0.000000
# 2 -0.007309 0.028976 -0.007664 0.000000 0.000000 0.000000
# 3 -0.001127 -0.007664 0.020550 0.000000 0.000000 0.000000
# 4 0.000000 0.000000 0.000000 0.438670 0.000000 0.000000
# 5 0.000000 0.000000 0.000000 0.000000 0.035968 0.000000
# 6 0.000000 0.000000 0.000000 0.000000 0.000000 0.047692
#
#
# Mechanical properties :
#
#
# Convention : Reuss Voigt Hill
#
# Bulk Modulus (GPa) = 37.18285 46.28985 41.73635
# Shear Modulus (GPa) = 8.03100 20.99642 14.51371
#
# Velocity S-wave (km/s) = 2.10436 3.40257 2.82894
# Velocity P-wave (km/s) = 5.13879 6.40008 5.80380
#
# Compressibility (1/GPa) = 0.02689412
#
# Stress axis : x y z
#
# Youngs Moduli (GPa) = 104.52892 34.51124 48.66126
#
# Poissons Ratio (x) = 0.25224 0.05482
# Poissons Ratio (y) = 0.76398 0.37295
# Poissons Ratio (z) = 0.11776 0.26450
#
# Static dielectric constant tensor:
#      x y z
#    x 1.664160 0.000000 0.000000 
#    y 0.000000 1.636290 0.000000 
#    z 0.000000 0.000000 1.631110 
# 
# From -- ./inp_files/48103.got.cif
#   From: 2010.05.17/outbox.cif.g08.bks.cpg/sg65_25_cif.got.tgz:48103.got - 2010.06.03 17:01:31.
