data_PCOD9483298
_publ_section_title
;
Structure prediction by ZEFSAII (Michael W. Deem and Ramdas Pophale) SiO2 
 PCOD9483298
Probable space group: C M M M
;
_chemical_formula_sum "Si O2"
_cell_formula_units_Z 128
_cell_length_a 22.569900
_cell_length_b 27.490974
_cell_length_c 12.852306
_cell_angle_alpha 90.000000
_cell_angle_beta 90.000000
_cell_angle_gamma 90.000000
_cell_volume 7974.451463
_symmetry_space_group_name_H-M "C M M M"
_symmetry_group_IT_number 65
_symmetry_cell_setting 'orthorhombic'
loop_
_space_group_symop_operation_xyz
x,y,z
-x,-y,z
x,-y,-z
-x,y,-z
-x,-y,-z
x,y,-z
-x,y,z
x,-y,z
1/2+x,1/2+y,z
1/2-x,1/2-y,z
1/2+x,1/2-y,-z
1/2-x,1/2+y,-z
1/2-x,1/2-y,-z
1/2+x,1/2+y,-z
1/2-x,1/2+y,z
1/2+x,1/2-y,z
loop_
_atom_site_type_symbol
_atom_site_label
_atom_site_fract_x
_atom_site_fract_y
_atom_site_fract_z
Si Si1 0.385486 0.204723 0.269049
Si Si2 0.567112 0.123777 0.880750
Si Si3 0.932138 0.800025 0.375941
Si Si4 0.803968 0.057679 0.118742
Si Si5 0.796735 0.630096 0.623029
Si Si6 0.671683 0.057453 0.199177
Si Si7 0.685606 0.726560 0.115639
Si Si8 0.171690 0.139481 0.730990
O O1 0.424224 0.165641 0.205777
O O2 0.418562 0.244827 0.338632
O O3 0.336235 0.175218 0.335062
O O4 0.353644 0.236444 0.180830
O O5 0.500000 0.104628 0.873078
O O6 0.617150 0.083805 0.857154
O O7 0.575293 0.141809 0.000000
O O8 0.925562 0.802463 0.500000
O O9 0.885441 0.836936 0.323449
O O10 0.000000 0.811932 0.348092
O O11 0.733394 0.065590 0.137393
O O12 0.835889 0.088520 0.208843
O O13 0.814689 0.000000 0.129643
O O14 0.818959 0.072029 0.000000
O O15 0.803689 0.624621 0.500000
O O16 0.818894 0.583778 0.689751
O O17 0.727673 0.637096 0.653174
O O18 0.662346 0.000000 0.208704
O O19 0.750000 0.750000 0.109685
O O20 0.689764 0.676648 0.177767
O O21 0.661989 0.718928 0.000000
#
# Coordination Sequence:
#
# PCOD9483298 Si02
#       8
#    16  16  16  16  16  16  16  16
#     4  10  19  33  48  70  99 130 163 207 239 287
#     4  10  20  32  48  70  97 132 169 203 240 283
#     4  10  21  35  52  71  95 132 170 202 238 282
#     4   9  17  31  53  78 102 127 155 192 244 301
#     4  10  19  31  49  72  95 125 159 203 255 294
#     4   9  19  33  48  70  98 127 161 203 248 293
#     4  10  18  28  44  70 101 132 160 189 236 294
#     4  10  19  32  49  75 103 128 160 203 243 289
#
# _framework density 16.051261
#
# number of rings (size 3 to 8) (size 9 to 14) (size 15 to 20)
#    0.000    2.250    1.250    2.250    0.000    1.250 
#    0.000    2.500    0.000   12.375    0.000    5.250 
#    0.000    0.000    0.000    0.000    0.000    0.000 
#
# Total GULP energy -356716.475294 kJ/mol
# GULP energy per Si atom -5573.694926 kJ/mol
# Density = 1.601473 g / cm^3
# Si number density = 16.051261 Si / 1000 Ang^3
#
#
#
# Elastic Constant Matrix: (Units=GPa)
#
#
# Indices 1 2 3 4 5 6 
#
# 1 77.5686 36.2470 34.3649 0.0000 0.0000 0.0000
# 2 36.2470 69.4794 28.3917 0.0000 0.0000 0.0000
# 3 34.3649 28.3917 103.1079 0.0000 0.0000 0.0000
# 4 0.0000 0.0000 0.0000 17.0994 0.0000 0.0000
# 5 0.0000 0.0000 0.0000 0.0000 17.7326 0.0000
# 6 0.0000 0.0000 0.0000 0.0000 0.0000 14.6082
#
#
#
# Elastic Compliance Matrix: (Units=1/GPa)
#
#
# Indices 1 2 3 4 5 6 
#
# 1 0.018355 -0.007973 -0.003922 0.000000 0.000000 0.000000
# 2 -0.007973 0.019681 -0.002762 0.000000 0.000000 0.000000
# 3 -0.003922 -0.002762 0.011766 0.000000 0.000000 0.000000
# 4 0.000000 0.000000 0.000000 0.058482 0.000000 0.000000
# 5 0.000000 0.000000 0.000000 0.000000 0.056393 0.000000
# 6 0.000000 0.000000 0.000000 0.000000 0.000000 0.068455
#
#
# Mechanical properties :
#
#
# Convention : Reuss Voigt Hill
#
# Bulk Modulus (GPa) = 48.80899 49.79591 49.30245
# Shear Modulus (GPa) = 18.56833 19.96486 19.26659
#
# Velocity S-wave (km/s) = 3.40489 3.53061 3.46832
# Velocity P-wave (km/s) = 6.77731 6.90729 6.84261
#
# Compressibility (1/GPa) = 0.02048803
#
# Stress axis : x y z
#
# Youngs Moduli (GPa) = 54.48066 50.81079 84.98827
#
# Poissons Ratio (x) = 0.40512 0.33334
# Poissons Ratio (y) = 0.43438 0.23473
# Poissons Ratio (z) = 0.21368 0.14034
#
# Static dielectric constant tensor:
#      x y z
#    x 1.484280 0.000000 0.000000 
#    y 0.000000 1.544330 0.000000 
#    z 0.000000 0.000000 1.531320 
# 
# From -- ./inp_files/31296.got.cif
#   From: 2010.05.17/outbox.cif.g08.bks.cpg/sg65_16_cif.got.tgz:31296.got - 2010.06.03 17:01:31.
