data_PCOD9483216
_publ_section_title
;
Structure prediction by ZEFSAII (Michael W. Deem and Ramdas Pophale) SiO2 
 PCOD9483216
Probable space group: C M M M
;
_chemical_formula_sum "Si O2"
_cell_formula_units_Z 104
_cell_length_a 28.533886
_cell_length_b 22.902024
_cell_length_c 7.244292
_cell_angle_alpha 90.000000
_cell_angle_beta 90.000000
_cell_angle_gamma 90.000000
_cell_volume 4734.027044
_symmetry_space_group_name_H-M "C M M M"
_symmetry_group_IT_number 65
_symmetry_cell_setting 'orthorhombic'
loop_
_space_group_symop_operation_xyz
x,y,z
-x,-y,z
x,-y,-z
-x,y,-z
-x,-y,-z
x,y,-z
-x,y,z
x,-y,z
1/2+x,1/2+y,z
1/2-x,1/2-y,z
1/2+x,1/2-y,-z
1/2-x,1/2+y,-z
1/2-x,1/2-y,-z
1/2+x,1/2+y,-z
1/2-x,1/2+y,z
1/2+x,1/2-y,z
loop_
_atom_site_type_symbol
_atom_site_label
_atom_site_fract_x
_atom_site_fract_y
_atom_site_fract_z
Si Si1 0.302666 0.433160 0.774987
Si Si2 0.445635 0.435882 0.277747
Si Si3 0.194874 0.433487 0.223881
Si Si4 0.053673 0.500000 0.775400
Si Si5 0.554179 0.759642 0.225439
Si Si6 0.101476 0.379986 0.775545
Si Si7 0.375342 0.661915 0.795702
O O1 0.315816 0.500000 0.717894
O O2 0.248547 0.423701 0.721118
O O3 0.334306 0.378570 0.711191
O O4 0.305562 0.433187 0.000000
O O5 0.441961 0.431650 0.500000
O O6 0.500000 0.431001 0.230791
O O7 0.428895 0.500000 0.222802
O O8 0.416063 0.385866 0.190139
O O9 0.181823 0.500000 0.278492
O O10 0.155773 0.386962 0.282043
O O11 0.194858 0.433504 0.000000
O O12 0.077772 0.440315 0.716650
O O13 0.000000 0.500000 0.720584
O O14 0.055841 0.500000 0.000000
O O15 0.500000 0.747497 0.282805
O O16 0.571587 0.823972 0.280970
O O17 0.595496 0.715639 0.288557
O O18 0.553690 0.756195 0.000000
O O19 0.101157 0.378345 0.000000
O O20 0.358908 0.680976 0.000000
#
# Coordination Sequence:
#
# PCOD9483216 Si02
#       7
#    16  16  16   8  16  16  16
#     4   8  14  23  36  54  75  98 130 174 212 240
#     4   9  18  31  45  62  84 108 137 179 225 255
#     4   8  12  20  33  49  70  98 131 168 213 257
#     4   9  14  18  28  46  66  94 139 181 204 243
#     4   9  17  26  34  48  75 108 139 174 211 244
#     4   9  14  21  32  47  69 101 138 172 210 253
#     4  10  18  28  42  60  83 115 148 169 198 250
#
# _framework density 21.968610000000002
#
# number of rings (size 3 to 8) (size 9 to 14) (size 15 to 20)
#    0.000    3.154    0.769    2.769    0.000    3.692 
#    0.000    1.538    0.000    4.615    0.000    0.000 
#    0.000    2.462    0.000    1.154    0.000    8.538 
#
# Total GULP energy -289967.879471 kJ/mol
# GULP energy per Si atom -5576.305374 kJ/mol
# Density = 2.191861 g / cm^3
# Si number density = 21.968610 Si / 1000 Ang^3
#
#
#
# Elastic Constant Matrix: (Units=GPa)
#
#
# Indices 1 2 3 4 5 6 
#
# 1 142.6843 69.8278 1.6160 0.0000 0.0000 0.0000
# 2 69.8278 113.3519 1.0967 0.0000 0.0000 0.0000
# 3 1.6160 1.0967 95.8710 0.0000 0.0000 0.0000
# 4 0.0000 0.0000 0.0000 -9.8939 0.0000 0.0000
# 5 0.0000 0.0000 0.0000 0.0000 90.0015 0.0000
# 6 0.0000 0.0000 0.0000 0.0000 0.0000 49.2944
#
#
#
# Elastic Compliance Matrix: (Units=1/GPa)
#
#
# Indices 1 2 3 4 5 6 
#
# 1 0.010034 -0.006180 -0.000098 0.000000 0.000000 0.000000
# 2 -0.006180 0.012630 -0.000040 0.000000 0.000000 0.000000
# 3 -0.000098 -0.000040 0.010433 0.000000 0.000000 0.000000
# 4 0.000000 0.000000 0.000000 -0.101072 0.000000 0.000000
# 5 0.000000 0.000000 0.000000 0.000000 0.011111 0.000000
# 6 0.000000 0.000000 0.000000 0.000000 0.000000 0.020286
#
#
# Mechanical properties :
#
#
# Convention : Reuss Voigt Hill
#
# Bulk Modulus (GPa) = 48.87938 55.22089 52.05014
# Shear Modulus (GPa) = -292.04928 44.50486 -123.77221
#
# Velocity S-wave (km/s) = -11.54244 4.50581 -7.51417
# Velocity P-wave (km/s) = 12.46352 7.22915 7.17909
#
# Compressibility (1/GPa) = 0.02045852
#
# Stress axis : x y z
#
# Youngs Moduli (GPa) = 99.65928 79.17811 95.85155
#
# Poissons Ratio (x) = 0.48935 0.00944
# Poissons Ratio (y) = 0.61593 0.00386
# Poissons Ratio (z) = 0.00981 0.00319
#
# Static dielectric constant tensor:
#      x y z
#    x 1.800470 0.000000 0.000000 
#    y 0.000000 1.781660 0.000000 
#    z 0.000000 0.000000 1.927850 
# 
# From -- ./inp_files/18855.got.cif
#   From: 2010.05.17/outbox.cif.g08.bks.cpg/sg65_10_cif.got.tgz:18855.got - 2010.06.03 17:01:31.
