data_PCOD9483703
_publ_section_title
;
Structure prediction by ZEFSAII (Michael W. Deem and Ramdas Pophale) SiO2 
 PCOD9483703
Probable space group: C M M M
;
_chemical_formula_sum "Si O2"
_cell_formula_units_Z 64
_cell_length_a 8.282941
_cell_length_b 14.614045
_cell_length_c 23.260828
_cell_angle_alpha 90.000000
_cell_angle_beta 90.000000
_cell_angle_gamma 90.000000
_cell_volume 2815.659786
_symmetry_space_group_name_H-M "C M M M"
_symmetry_group_IT_number 65
_symmetry_cell_setting 'orthorhombic'
loop_
_space_group_symop_operation_xyz
x,y,z
-x,-y,z
x,-y,-z
-x,y,-z
-x,-y,-z
x,y,-z
-x,y,z
x,-y,z
1/2+x,1/2+y,z
1/2-x,1/2-y,z
1/2+x,1/2-y,-z
1/2-x,1/2+y,-z
1/2-x,1/2-y,-z
1/2+x,1/2+y,-z
1/2-x,1/2+y,z
1/2+x,1/2-y,z
loop_
_atom_site_type_symbol
_atom_site_label
_atom_site_fract_x
_atom_site_fract_y
_atom_site_fract_z
Si Si1 0.822398 0.612019 0.133614
Si Si2 0.500000 0.388018 0.066303
Si Si3 0.817096 0.892379 0.748143
Si Si4 0.690741 0.144102 0.500000
Si Si5 0.307227 0.354254 0.379380
O O1 0.825051 0.500000 0.131233
O O2 0.664804 0.641162 0.098002
O O3 0.792007 0.641568 0.199720
O O4 0.000000 0.642827 0.113829
O O5 0.500000 0.500000 0.068051
O O6 0.500000 0.359891 0.000000
O O7 0.750315 0.885683 0.683469
O O8 0.000000 0.852742 0.749863
O O9 0.834259 0.000000 0.759351
O O10 0.500000 0.144179 0.500000
O O11 0.750000 0.250000 0.500000
O O12 0.748668 0.103378 0.560602
O O13 0.500000 0.362394 0.379193
O O14 0.250000 0.250000 0.381661
#
# Coordination Sequence:
#
# PCOD9483703 Si02
#       5
#    16   8  16   8  16
#     4   9  16  26  42  63  89 124 160 194 237 286
#     4   9  16  26  40  60  92 127 159 197 234 281
#     4   9  17  31  49  67  91 126 162 195 237 288
#     4  10  18  30  47  64  89 121 155 191 239 290
#     4  10  19  31  49  70  93 121 154 198 241 287
#
# _framework density 22.73002
#
# number of rings (size 3 to 8) (size 9 to 14) (size 15 to 20)
#    0.000    2.625    1.250    3.375    0.000    2.500 
#    0.000    3.125    0.000    3.750    0.000    0.000 
#    0.000    1.000    0.500    0.000    0.000    0.000 
#
# Total GULP energy -178516.419934 kJ/mol
# GULP energy per Si atom -5578.638123 kJ/mol
# Density = 2.267829 g / cm^3
# Si number density = 22.730020 Si / 1000 Ang^3
#
#
#
# Elastic Constant Matrix: (Units=GPa)
#
#
# Indices 1 2 3 4 5 6 
#
# 1 165.4248 7.2878 111.9143 0.0000 0.0000 0.0000
# 2 7.2878 48.0748 -0.4007 0.0000 0.0000 0.0000
# 3 111.9143 -0.4007 193.6118 0.0000 0.0000 0.0000
# 4 0.0000 0.0000 0.0000 17.1296 0.0000 0.0000
# 5 0.0000 0.0000 0.0000 0.0000 10.8022 0.0000
# 6 0.0000 0.0000 0.0000 0.0000 0.0000 7.0844
#
#
#
# Elastic Compliance Matrix: (Units=1/GPa)
#
#
# Indices 1 2 3 4 5 6 
#
# 1 0.010044 -0.001571 -0.005809 0.000000 0.000000 0.000000
# 2 -0.001571 0.021047 0.000952 0.000000 0.000000 0.000000
# 3 -0.005809 0.000952 0.008525 0.000000 0.000000 0.000000
# 4 0.000000 0.000000 0.000000 0.058378 0.000000 0.000000
# 5 0.000000 0.000000 0.000000 0.000000 0.092574 0.000000
# 6 0.000000 0.000000 0.000000 0.000000 0.000000 0.141155
#
#
# Mechanical properties :
#
#
# Convention : Reuss Voigt Hill
#
# Bulk Modulus (GPa) = 37.37057 71.63490 54.50274
# Shear Modulus (GPa) = 14.14427 26.22391 20.18409
#
# Velocity S-wave (km/s) = 2.49725 3.40032 2.98315
# Velocity P-wave (km/s) = 4.97913 6.85567 5.99132
#
# Compressibility (1/GPa) = 0.02675902
#
# Stress axis : x y z
#
# Youngs Moduli (GPa) = 99.55833 47.51267 117.30363
#
# Poissons Ratio (x) = 0.07465 0.68144
# Poissons Ratio (y) = 0.15641 -0.11164
# Poissons Ratio (z) = 0.57836 -0.04522
#
# Static dielectric constant tensor:
#      x y z
#    x 1.766800 0.000000 0.000000 
#    y 0.000000 1.892410 0.000000 
#    z 0.000000 0.000000 1.875690 
# 
# From -- ./inp_files/59479.got.cif
#   From: 2010.05.17/outbox.cif.g08.bks.cpg/sg65_30_cif.got.tgz:59479.got - 2010.06.03 17:01:31.
