data_PCOD9483748
_publ_section_title
;
Structure prediction by ZEFSAII (Michael W. Deem and Ramdas Pophale) SiO2 
 PCOD9483748
Probable space group: C M M M
;
_chemical_formula_sum "Si O2"
_cell_formula_units_Z 96
_cell_length_a 28.832643
_cell_length_b 22.628403
_cell_length_c 7.931728
_cell_angle_alpha 90.000000
_cell_angle_beta 90.000000
_cell_angle_gamma 90.000000
_cell_volume 5174.950167
_symmetry_space_group_name_H-M "C M M M"
_symmetry_group_IT_number 65
_symmetry_cell_setting 'orthorhombic'
loop_
_space_group_symop_operation_xyz
x,y,z
-x,-y,z
x,-y,-z
-x,y,-z
-x,-y,-z
x,y,-z
-x,y,z
x,-y,z
1/2+x,1/2+y,z
1/2-x,1/2-y,z
1/2+x,1/2-y,-z
1/2-x,1/2+y,-z
1/2-x,1/2-y,-z
1/2+x,1/2+y,-z
1/2-x,1/2+y,z
1/2+x,1/2-y,z
loop_
_atom_site_type_symbol
_atom_site_label
_atom_site_fract_x
_atom_site_fract_y
_atom_site_fract_z
Si Si1 0.806032 0.800796 0.695291
Si Si2 0.775378 0.378737 0.699942
Si Si3 0.447481 0.742537 0.793895
Si Si4 0.360832 0.187770 0.806258
Si Si5 0.121792 0.000000 0.298490
Si Si6 0.729697 0.500000 0.293323
Si Si7 0.890090 0.871899 0.800207
O O1 0.801175 0.781725 0.500000
O O2 0.757832 0.825878 0.764308
O O3 0.830244 0.747597 0.792409
O O4 0.842503 0.854775 0.706023
O O5 0.766984 0.379023 0.500000
O O6 0.828780 0.362779 0.728240
O O7 0.756642 0.441220 0.764828
O O8 0.500000 0.751018 0.736611
O O9 0.410339 0.791443 0.733178
O O10 0.427587 0.677663 0.748790
O O11 0.447215 0.744782 0.000000
O O12 0.367904 0.172112 0.000000
O O13 0.175860 0.000000 0.239772
O O14 0.098501 0.060460 0.236958
O O15 0.121974 0.000000 0.500000
O O16 0.729830 0.500000 0.500000
O O17 0.882151 0.864976 0.000000
#
# Coordination Sequence:
#
# PCOD9483748 Si02
#       7
#    16  16  16  16   8   8  16
#     4  10  18  30  48  68  95 133 166 191 231 291
#     4  10  19  32  48  67  95 131 167 192 225 284
#     4   8  16  33  53  70  92 123 157 197 250 306
#     4  10  20  31  47  73  99 121 155 203 247 285
#     4  11  19  33  50  66  95 137 175 198 231 289
#     4   9  18  33  49  66  91 134 176 193 213 275
#     4  10  19  30  48  74  97 122 164 213 249 277
#
# _framework density 18.550902000000001
#
# number of rings (size 3 to 8) (size 9 to 14) (size 15 to 20)
#    0.000    2.333    1.667    3.250    0.000    3.333 
#    0.000    0.833    0.000   20.500    0.000    0.583 
#    0.000    4.667    0.000    0.000    0.000    0.000 
#
# Total GULP energy -267696.288846 kJ/mol
# GULP energy per Si atom -5577.006018 kJ/mol
# Density = 1.850868 g / cm^3
# Si number density = 18.550902 Si / 1000 Ang^3
#
#
#
# Elastic Constant Matrix: (Units=GPa)
#
#
# Indices 1 2 3 4 5 6 
#
# 1 125.1014 25.6797 3.9931 0.0000 0.0000 0.0000
# 2 25.6797 34.9164 -0.8767 0.0000 0.0000 0.0000
# 3 3.9931 -0.8767 24.3316 0.0000 0.0000 0.0000
# 4 0.0000 0.0000 0.0000 20.5069 0.0000 0.0000
# 5 0.0000 0.0000 0.0000 0.0000 17.3836 0.0000
# 6 0.0000 0.0000 0.0000 0.0000 0.0000 18.2810
#
#
#
# Elastic Compliance Matrix: (Units=1/GPa)
#
#
# Indices 1 2 3 4 5 6 
#
# 1 0.009494 -0.007028 -0.001811 0.000000 0.000000 0.000000
# 2 -0.007028 0.033868 0.002374 0.000000 0.000000 0.000000
# 3 -0.001811 0.002374 0.041482 0.000000 0.000000 0.000000
# 4 0.000000 0.000000 0.000000 0.048764 0.000000 0.000000
# 5 0.000000 0.000000 0.000000 0.000000 0.057526 0.000000
# 6 0.000000 0.000000 0.000000 0.000000 0.000000 0.054702
#
#
# Mechanical properties :
#
#
# Convention : Reuss Voigt Hill
#
# Bulk Modulus (GPa) = 13.90577 26.88240 20.39409
# Shear Modulus (GPa) = 17.68427 21.60450 19.64439
#
# Velocity S-wave (km/s) = 3.09088 3.41634 3.25767
# Velocity P-wave (km/s) = 4.50004 5.48493 5.01671
#
# Compressibility (1/GPa) = 0.07191261
#
# Stress axis : x y z
#
# Youngs Moduli (GPa) = 105.33006 29.52617 24.10711
#
# Poissons Ratio (x) = 0.20751 0.04366
# Poissons Ratio (y) = 0.74025 -0.05722
# Poissons Ratio (z) = 0.19078 -0.07008
#
# Static dielectric constant tensor:
#      x y z
#    x 1.655140 0.000000 0.000000 
#    y 0.000000 1.660790 0.000000 
#    z 0.000000 0.000000 1.661990 
# 
# From -- ./inp_files/16698.got.cif
#   From: 2010.05.17/outbox.cif.g08.bks.cpg/sg65_9_cif.got.tgz:16698.got - 2010.06.03 17:01:31.
