data_PCOD9483041
_publ_section_title
;
Structure prediction by ZEFSAII (Michael W. Deem and Ramdas Pophale) SiO2 
 PCOD9483041
Probable space group: C M M M
;
_chemical_formula_sum "Si O2"
_cell_formula_units_Z 112
_cell_length_a 14.399776
_cell_length_b 21.582795
_cell_length_c 16.542584
_cell_angle_alpha 90.000000
_cell_angle_beta 90.000000
_cell_angle_gamma 90.000000
_cell_volume 5141.226893
_symmetry_space_group_name_H-M "C M M M"
_symmetry_group_IT_number 65
_symmetry_cell_setting 'orthorhombic'
loop_
_space_group_symop_operation_xyz
x,y,z
-x,-y,z
x,-y,-z
-x,y,-z
-x,-y,-z
x,y,-z
-x,y,z
x,-y,z
1/2+x,1/2+y,z
1/2-x,1/2-y,z
1/2+x,1/2-y,-z
1/2-x,1/2+y,-z
1/2-x,1/2-y,-z
1/2+x,1/2+y,-z
1/2-x,1/2+y,z
1/2+x,1/2-y,z
loop_
_atom_site_type_symbol
_atom_site_label
_atom_site_fract_x
_atom_site_fract_y
_atom_site_fract_z
Si Si1 0.101479 0.864800 0.662315
Si Si2 0.269310 0.069065 0.589318
Si Si3 0.607356 0.095102 0.742121
Si Si4 0.859635 0.737470 0.915135
Si Si5 0.861228 0.742392 0.741739
Si Si6 0.893017 0.075053 0.840709
Si Si7 0.803367 0.597619 0.090483
O O1 0.186648 0.883727 0.607017
O O2 0.102148 0.791282 0.678055
O O3 0.117185 0.897727 0.749900
O O4 0.000000 0.884243 0.632604
O O5 0.310006 0.079479 0.500000
O O6 0.342426 0.072185 0.661650
O O7 0.228068 0.000000 0.590883
O O8 0.500000 0.078214 0.745642
O O9 0.615620 0.170280 0.734601
O O10 0.657690 0.072009 0.824409
O O11 0.750000 0.750000 0.916129
O O12 0.896092 0.762244 0.830983
O O13 0.858829 0.662850 0.912793
O O14 0.898742 0.759731 0.000000
O O15 0.750000 0.750000 0.741321
O O16 0.807927 0.102276 0.893756
O O17 0.000000 0.087598 0.867016
O O18 0.881769 0.000000 0.839782
O O19 0.815886 0.570295 0.000000
#
# Coordination Sequence:
#
# PCOD9483041 Si02
#       7
#    16  16  16  16  16  16  16
#     4  11  21  37  63  96 130 165 207 256 316 384
#     4  11  25  46  71  96 123 161 211 265 323 382
#     4  11  23  41  66  97 130 167 212 264 322 377
#     4   8  14  25  47  78 113 157 206 253 299 350
#     4  10  17  34  61  90 128 172 210 253 313 379
#     4  10  20  34  55  84 120 166 217 264 313 372
#     4  10  20  35  56  85 124 168 213 261 313 371
#
# _framework density 21.784682
#
# number of rings (size 3 to 8) (size 9 to 14) (size 15 to 20)
#    0.000    1.857    2.857    2.571    0.000    2.571 
#    0.000    3.571    0.000    3.857    0.000    6.000 
#    0.000    0.000    0.000    0.000    0.000    0.000 
#
# Total GULP energy -312420.610164 kJ/mol
# GULP energy per Si atom -5578.939467 kJ/mol
# Density = 2.173510 g / cm^3
# Si number density = 21.784682 Si / 1000 Ang^3
#
#
#
# Elastic Constant Matrix: (Units=GPa)
#
#
# Indices 1 2 3 4 5 6 
#
# 1 131.2087 0.8401 49.0465 0.0000 0.0000 0.0000
# 2 0.8401 76.1162 22.1452 0.0000 0.0000 0.0000
# 3 49.0465 22.1452 141.4467 0.0000 0.0000 0.0000
# 4 0.0000 0.0000 0.0000 -33.0793 0.0000 0.0000
# 5 0.0000 0.0000 0.0000 0.0000 -3.9451 0.0000
# 6 0.0000 0.0000 0.0000 0.0000 0.0000 -6.0596
#
#
#
# Elastic Compliance Matrix: (Units=1/GPa)
#
#
# Indices 1 2 3 4 5 6 
#
# 1 0.008806 0.000829 -0.003183 0.000000 0.000000 0.000000
# 2 0.000829 0.013843 -0.002455 0.000000 0.000000 0.000000
# 3 -0.003183 -0.002455 0.008558 0.000000 0.000000 0.000000
# 4 0.000000 0.000000 0.000000 -0.030230 0.000000 0.000000
# 5 0.000000 0.000000 0.000000 0.000000 -0.253477 0.000000
# 6 0.000000 0.000000 0.000000 0.000000 0.000000 -0.165026
#
#
# Mechanical properties :
#
#
# Convention : Reuss Voigt Hill
#
# Bulk Modulus (GPa) = 46.32045 54.75947 50.53996
# Shear Modulus (GPa) = -12.47778 9.83251 -1.32264
#
# Velocity S-wave (km/s) = -2.39587 2.12680 -0.78004
# Velocity P-wave (km/s) = 3.69532 5.58769 4.73697
#
# Compressibility (1/GPa) = 0.02158874
#
# Stress axis : x y z
#
# Youngs Moduli (GPa) = 113.55816 72.23960 116.85095
#
# Poissons Ratio (x) = -0.05988 0.37197
# Poissons Ratio (y) = -0.09413 0.28683
# Poissons Ratio (z) = 0.36149 0.17733
#
# Static dielectric constant tensor:
#      x y z
#    x 1.797170 0.000000 0.000000 
#    y 0.000000 1.848740 0.000000 
#    z 0.000000 0.000000 1.803750 
# 
# From -- ./inp_files/40851.got.cif
#   From: 2010.05.17/outbox.cif.g08.bks.cpg/sg65_21_cif.got.tgz:40851.got - 2010.06.03 17:01:31.
