data_PCOD9483248
_publ_section_title
;
Structure prediction by ZEFSAII (Michael W. Deem and Ramdas Pophale) SiO2 
 PCOD9483248
Probable space group: C M M M
;
_chemical_formula_sum "Si O2"
_cell_formula_units_Z 80
_cell_length_a 28.166439
_cell_length_b 7.705313
_cell_length_c 19.258754
_cell_angle_alpha 90.000000
_cell_angle_beta 90.000000
_cell_angle_gamma 90.000000
_cell_volume 4179.751042
_symmetry_space_group_name_H-M "C M M M"
_symmetry_group_IT_number 65
_symmetry_cell_setting 'orthorhombic'
loop_
_space_group_symop_operation_xyz
x,y,z
-x,-y,z
x,-y,-z
-x,y,-z
-x,-y,-z
x,y,-z
-x,y,z
x,-y,z
1/2+x,1/2+y,z
1/2-x,1/2-y,z
1/2+x,1/2-y,-z
1/2-x,1/2+y,-z
1/2-x,1/2-y,-z
1/2+x,1/2+y,-z
1/2-x,1/2+y,z
1/2+x,1/2-y,z
loop_
_atom_site_type_symbol
_atom_site_label
_atom_site_fract_x
_atom_site_fract_y
_atom_site_fract_z
Si Si1 0.196323 0.792025 0.713329
Si Si2 0.053024 0.211950 0.213327
Si Si3 0.149783 0.212184 0.143955
Si Si4 0.805632 0.791131 0.000000
Si Si5 0.946706 0.705200 0.500000
Si Si6 0.601386 0.291888 0.644950
O O1 0.250000 0.750000 0.694500
O O2 0.182479 0.731288 0.791077
O O3 0.154689 0.728257 0.662098
O O4 0.192954 0.000000 0.714906
O O5 0.095943 0.264681 0.162718
O O6 0.068046 0.267450 0.291216
O O7 0.000000 0.271026 0.195938
O O8 0.052535 0.000000 0.212936
O O9 0.150465 0.000000 0.143222
O O10 0.169635 0.273578 0.070496
O O11 0.750000 0.750000 0.000000
O O12 0.810336 0.000000 0.000000
O O13 0.951355 0.500000 0.500000
O O14 0.918833 0.750767 0.430075
O O15 0.000000 0.782530 0.500000
O O16 0.602423 0.500000 0.649896
#
# Coordination Sequence:
#
# PCOD9483248 Si02
#       6
#    16  16  16   8   8  16
#     4   9  17  30  48  69  92 119 154 193 228 264
#     4   8  13  24  44  67  89 115 149 188 225 261
#     4   8  15  26  40  63  93 120 149 186 225 266
#     4  10  18  28  43  63  91 123 150 182 225 268
#     4  11  23  35  48  71 100 121 140 179 232 275
#     4   9  18  32  50  70  90 118 157 190 218 266
#
# _framework density 19.139897000000001
#
# number of rings (size 3 to 8) (size 9 to 14) (size 15 to 20)
#    0.000    3.100    0.000    3.900    0.000    2.400 
#    0.000    1.000    0.000    4.200    0.000    0.000 
#    0.000    0.800    0.000    0.000    0.000    0.800 
#
# Total GULP energy -222992.939728 kJ/mol
# GULP energy per Si atom -5574.823493 kJ/mol
# Density = 1.909633 g / cm^3
# Si number density = 19.139897 Si / 1000 Ang^3
#
#
#
# Elastic Constant Matrix: (Units=GPa)
#
#
# Indices 1 2 3 4 5 6 
#
# 1 189.7726 3.7254 105.0115 0.0000 0.0000 0.0000
# 2 3.7254 28.5838 5.2883 0.0000 0.0000 0.0000
# 3 105.0115 5.2883 162.6634 0.0000 0.0000 0.0000
# 4 0.0000 0.0000 0.0000 -9.8853 0.0000 0.0000
# 5 0.0000 0.0000 0.0000 0.0000 19.4943 0.0000
# 6 0.0000 0.0000 0.0000 0.0000 0.0000 15.9980
#
#
#
# Elastic Compliance Matrix: (Units=1/GPa)
#
#
# Indices 1 2 3 4 5 6 
#
# 1 0.008198 -0.000090 -0.005290 0.000000 0.000000 0.000000
# 2 -0.000090 0.035198 -0.001086 0.000000 0.000000 0.000000
# 3 -0.005290 -0.001086 0.009598 0.000000 0.000000 0.000000
# 4 0.000000 0.000000 0.000000 -0.101160 0.000000 0.000000
# 5 0.000000 0.000000 0.000000 0.000000 0.051297 0.000000
# 6 0.000000 0.000000 0.000000 0.000000 0.000000 0.062508
#
#
# Mechanical properties :
#
#
# Convention : Reuss Voigt Hill
#
# Bulk Modulus (GPa) = 24.96127 67.67446 46.31787
# Shear Modulus (GPa) = 54.39276 22.92103 38.65689
#
# Velocity S-wave (km/s) = 5.33669 3.46432 4.49899
# Velocity P-wave (km/s) = 7.14447 7.17193 7.15821
#
# Compressibility (1/GPa) = 0.04006207
#
# Stress axis : x y z
#
# Youngs Moduli (GPa) = 121.97634 28.41104 104.18965
#
# Poissons Ratio (x) = 0.00255 0.55113
# Poissons Ratio (y) = 0.01096 0.11318
# Poissons Ratio (z) = 0.64522 0.03086
#
# Static dielectric constant tensor:
#      x y z
#    x 1.682250 0.000000 0.000000 
#    y 0.000000 1.725820 0.000000 
#    z 0.000000 0.000000 1.661380 
# 
# From -- ./inp_files/50168.got.cif
#   From: 2010.05.17/outbox.cif.g08.bks.cpg/sg65_26_cif.got.tgz:50168.got - 2010.06.03 17:01:31.
