data_PCOD9483822
_publ_section_title
;
Structure prediction by ZEFSAII (Michael W. Deem and Ramdas Pophale) SiO2 
 PCOD9483822
Probable space group: C M M M
;
_chemical_formula_sum "Si O2"
_cell_formula_units_Z 64
_cell_length_a 18.849280
_cell_length_b 8.248409
_cell_length_c 21.893595
_cell_angle_alpha 90.000000
_cell_angle_beta 90.000000
_cell_angle_gamma 90.000000
_cell_volume 3403.941073
_symmetry_space_group_name_H-M "C M M M"
_symmetry_group_IT_number 65
_symmetry_cell_setting 'orthorhombic'
loop_
_space_group_symop_operation_xyz
x,y,z
-x,-y,z
x,-y,-z
-x,y,-z
-x,-y,-z
x,y,-z
-x,y,z
x,-y,z
1/2+x,1/2+y,z
1/2-x,1/2-y,z
1/2+x,1/2-y,-z
1/2-x,1/2+y,-z
1/2-x,1/2-y,-z
1/2+x,1/2+y,-z
1/2-x,1/2+y,z
1/2+x,1/2-y,z
loop_
_atom_site_type_symbol
_atom_site_label
_atom_site_fract_x
_atom_site_fract_y
_atom_site_fract_z
Si Si1 0.832014 0.695561 0.000000
Si Si2 0.831597 0.306477 0.369781
Si Si3 0.668049 0.691915 0.500000
Si Si4 0.081677 0.301472 0.251564
Si Si5 0.331760 0.196215 0.866846
O O1 0.750000 0.750000 0.000000
O O2 0.859945 0.750622 0.066215
O O3 0.835424 0.500000 0.000000
O O4 0.831068 0.500000 0.368957
O O5 0.750000 0.250000 0.364457
O O6 0.861798 0.252953 0.435578
O O7 0.876826 0.247168 0.312170
O O8 0.667252 0.500000 0.500000
O O9 0.750000 0.750000 0.500000
O O10 0.082641 0.500000 0.251605
O O11 0.122165 0.247224 0.190422
O O12 0.000000 0.250631 0.252002
O O13 0.250000 0.250000 0.860453
O O14 0.332555 0.000000 0.866485
#
# Coordination Sequence:
#
# PCOD9483822 Si02
#       5
#     8  16   8  16  16
#     4   8  14  24  41  67  93 117 147 186 230 270
#     4  10  18  30  50  72  93 118 151 189 227 270
#     4  10  18  30  49  72  97 119 145 185 229 272
#     4   9  18  31  46  66  93 124 156 190 227 268
#     4   9  16  28  47  69  93 120 153 191 229 271
#
# _framework density 18.801734
#
# number of rings (size 3 to 8) (size 9 to 14) (size 15 to 20)
#    0.000    2.750    0.000    4.125    0.000    0.000 
#    0.000    2.500    0.000   14.250    0.000    0.000 
#    0.000   10.000    0.000    0.000    0.000    0.000 
#
# Total GULP energy -178300.618416 kJ/mol
# GULP energy per Si atom -5571.894326 kJ/mol
# Density = 1.875894 g / cm^3
# Si number density = 18.801734 Si / 1000 Ang^3
#
#
#
# Elastic Constant Matrix: (Units=GPa)
#
#
# Indices 1 2 3 4 5 6 
#
# 1 80.6093 7.7496 93.1196 0.0000 0.0000 0.0000
# 2 7.7496 28.5938 23.4184 0.0000 0.0000 0.0000
# 3 93.1196 23.4184 254.1593 0.0000 0.0000 0.0000
# 4 0.0000 0.0000 0.0000 9.2738 0.0000 0.0000
# 5 0.0000 0.0000 0.0000 0.0000 0.7714 0.0000
# 6 0.0000 0.0000 0.0000 0.0000 0.0000 13.1619
#
#
#
# Elastic Compliance Matrix: (Units=1/GPa)
#
#
# Indices 1 2 3 4 5 6 
#
# 1 0.021521 0.000676 -0.007947 0.000000 0.000000 0.000000
# 2 0.000676 0.037848 -0.003735 0.000000 0.000000 0.000000
# 3 -0.007947 -0.003735 0.007190 0.000000 0.000000 0.000000
# 4 0.000000 0.000000 0.000000 0.107831 0.000000 0.000000
# 5 0.000000 0.000000 0.000000 0.000000 1.296286 0.000000
# 6 0.000000 0.000000 0.000000 0.000000 0.000000 0.075977
#
#
# Mechanical properties :
#
#
# Convention : Reuss Voigt Hill
#
# Bulk Modulus (GPa) = 22.44798 67.99309 45.22053
# Shear Modulus (GPa) = 3.15753 20.57974 11.86863
#
# Velocity S-wave (km/s) = 1.29732 3.31201 2.51520
# Velocity P-wave (km/s) = 3.76952 7.13215 5.70425
#
# Compressibility (1/GPa) = 0.04454745
#
# Stress axis : x y z
#
# Youngs Moduli (GPa) = 46.46578 26.42120 139.07336
#
# Poissons Ratio (x) = -0.01786 1.10526
# Poissons Ratio (y) = -0.03141 0.51945
# Poissons Ratio (z) = 0.36928 0.09869
#
# Static dielectric constant tensor:
#      x y z
#    x 1.601800 0.000000 0.000000 
#    y 0.000000 1.648160 0.000000 
#    z 0.000000 0.000000 1.714160 
# 
# From -- ./inp_files/64244.got.cif
#   From: 2010.05.17/outbox.cif.g08.bks.cpg/sg65_33_cif.got.tgz:64244.got - 2010.06.03 17:01:31.
