data_PCOD9483263
_publ_section_title
;
Structure prediction by ZEFSAII (Michael W. Deem and Ramdas Pophale) SiO2 
 PCOD9483263
Probable space group: C M M M
;
_chemical_formula_sum "Si O2"
_cell_formula_units_Z 88
_cell_length_a 17.982766
_cell_length_b 31.364963
_cell_length_c 11.932335
_cell_angle_alpha 90.000000
_cell_angle_beta 90.000000
_cell_angle_gamma 90.000000
_cell_volume 6730.180475
_symmetry_space_group_name_H-M "C M M M"
_symmetry_group_IT_number 65
_symmetry_cell_setting 'orthorhombic'
loop_
_space_group_symop_operation_xyz
x,y,z
-x,-y,z
x,-y,-z
-x,y,-z
-x,-y,-z
x,y,-z
-x,y,z
x,-y,z
1/2+x,1/2+y,z
1/2-x,1/2-y,z
1/2+x,1/2-y,-z
1/2-x,1/2+y,-z
1/2-x,1/2-y,-z
1/2+x,1/2+y,-z
1/2-x,1/2+y,z
1/2+x,1/2-y,z
loop_
_atom_site_type_symbol
_atom_site_label
_atom_site_fract_x
_atom_site_fract_y
_atom_site_fract_z
Si Si1 0.084774 0.854220 0.000000
Si Si2 0.199633 0.293160 0.628516
Si Si3 0.654921 0.662876 0.634995
Si Si4 0.590815 0.500000 0.131045
Si Si5 0.833371 0.230801 0.000000
Si Si6 0.586664 0.409908 0.225992
Si Si7 0.411985 0.255698 0.235212
O O1 0.151235 0.820146 0.000000
O O2 0.089465 0.882952 0.889519
O O3 0.000000 0.834487 0.000000
O O4 0.178945 0.300022 0.500000
O O5 0.250000 0.250000 0.633943
O O6 0.258361 0.328963 0.664090
O O7 0.127435 0.282892 0.699357
O O8 0.646751 0.667578 0.500000
O O9 0.628409 0.617582 0.680699
O O10 0.609305 0.700346 0.698959
O O11 0.500000 0.500000 0.128896
O O12 0.614234 0.457098 0.194989
O O13 0.613877 0.500000 0.000000
O O14 0.750000 0.250000 0.000000
O O15 0.874890 0.244309 0.886780
O O16 0.500000 0.412992 0.258756
O O17 0.500000 0.252487 0.229117
#
# Coordination Sequence:
#
# PCOD9483263 Si02
#       7
#     8  16  16   8   8  16  16
#     4  10  18  29  44  62  79 104 145 184 204 234
#     4   8  16  30  43  56  77 106 140 173 205 244
#     4  10  19  30  43  59  81 110 143 175 208 246
#     4   9  16  28  43  61  81 105 133 171 222 256
#     4  12  22  30  41  59  86 113 140 174 213 249
#     4  10  18  28  44  62  82 104 138 179 213 248
#     4  11  20  29  42  60  82 107 141 180 212 243
#
# _framework density 13.075430000000001
#
# number of rings (size 3 to 8) (size 9 to 14) (size 15 to 20)
#    0.000    2.091    2.727    4.636    0.000    2.545 
#    0.000    0.455    0.000    1.636    0.000    0.000 
#    0.000    0.000    0.000    0.818    0.000    9.909 
#
# Total GULP energy -245057.137302 kJ/mol
# GULP energy per Si atom -5569.480393 kJ/mol
# Density = 1.304567 g / cm^3
# Si number density = 13.075430 Si / 1000 Ang^3
#
#
#
# Elastic Constant Matrix: (Units=GPa)
#
#
# Indices 1 2 3 4 5 6 
#
# 1 92.0496 45.9964 49.6882 0.0000 0.0000 0.0000
# 2 45.9964 77.7477 31.8595 0.0000 0.0000 0.0000
# 3 49.6882 31.8595 71.6557 0.0000 0.0000 0.0000
# 4 0.0000 0.0000 0.0000 15.2749 0.0000 0.0000
# 5 0.0000 0.0000 0.0000 0.0000 -0.6781 0.0000
# 6 0.0000 0.0000 0.0000 0.0000 0.0000 14.8949
#
#
#
# Elastic Compliance Matrix: (Units=1/GPa)
#
#
# Indices 1 2 3 4 5 6 
#
# 1 0.020573 -0.007735 -0.010827 0.000000 0.000000 0.000000
# 2 -0.007735 0.018635 -0.002922 0.000000 0.000000 0.000000
# 3 -0.010827 -0.002922 0.022763 0.000000 0.000000 0.000000
# 4 0.000000 0.000000 0.000000 0.065467 0.000000 0.000000
# 5 0.000000 0.000000 0.000000 0.000000 -1.474656 0.000000
# 6 0.000000 0.000000 0.000000 0.000000 0.000000 0.067137
#
#
# Mechanical properties :
#
#
# Convention : Reuss Voigt Hill
#
# Bulk Modulus (GPa) = 52.62206 55.17126 53.89666
# Shear Modulus (GPa) = -4.06247 13.49226 4.71489
#
# Velocity S-wave (km/s) = -1.76457 3.21577 1.90099
# Velocity P-wave (km/s) = 6.01505 7.48829 6.79173
#
# Compressibility (1/GPa) = 0.01900344
#
# Stress axis : x y z
#
# Youngs Moduli (GPa) = 48.60752 53.66108 43.93151
#
# Poissons Ratio (x) = 0.41504 0.47565
# Poissons Ratio (y) = 0.37596 0.12838
# Poissons Ratio (z) = 0.52627 0.15682
#
# Static dielectric constant tensor:
#      x y z
#    x 1.422770 0.000000 0.000000 
#    y 0.000000 1.432020 0.000000 
#    z 0.000000 0.000000 1.454080 
# 
# From -- ./inp_files/27665.got.cif
#   From: 2010.05.17/outbox.cif.g08.bks.cpg/sg65_14_cif.got.tgz:27665.got - 2010.06.03 17:01:31.
