data_PCOD9483692
_publ_section_title
;
Structure prediction by ZEFSAII (Michael W. Deem and Ramdas Pophale) SiO2 
 PCOD9483692
Probable space group: C M M M
;
_chemical_formula_sum "Si O2"
_cell_formula_units_Z 88
_cell_length_a 27.925726
_cell_length_b 8.664652
_cell_length_c 21.954326
_cell_angle_alpha 90.000000
_cell_angle_beta 90.000000
_cell_angle_gamma 90.000000
_cell_volume 5312.215761
_symmetry_space_group_name_H-M "C M M M"
_symmetry_group_IT_number 65
_symmetry_cell_setting 'orthorhombic'
loop_
_space_group_symop_operation_xyz
x,y,z
-x,-y,z
x,-y,-z
-x,y,-z
-x,-y,-z
x,y,-z
-x,y,z
x,-y,z
1/2+x,1/2+y,z
1/2-x,1/2-y,z
1/2+x,1/2-y,-z
1/2-x,1/2+y,-z
1/2-x,1/2-y,-z
1/2+x,1/2+y,-z
1/2-x,1/2+y,z
1/2+x,1/2-y,z
loop_
_atom_site_type_symbol
_atom_site_label
_atom_site_fract_x
_atom_site_fract_y
_atom_site_fract_z
Si Si1 0.197564 0.815566 0.128301
Si Si2 0.554658 0.186659 0.192041
Si Si3 0.695756 0.315626 0.500000
Si Si4 0.853225 0.815626 0.255004
Si Si5 0.395662 0.186072 0.067588
Si Si6 0.196123 0.316210 0.626376
O O1 0.250000 0.750000 0.116260
O O2 0.180454 0.774620 0.197055
O O3 0.156925 0.748100 0.084211
O O4 0.197981 0.000000 0.123413
O O5 0.500000 0.230477 0.204653
O O6 0.593793 0.261626 0.236095
O O7 0.569695 0.232220 0.123062
O O8 0.558418 0.000000 0.196121
O O9 0.696612 0.500000 0.500000
O O10 0.750000 0.250000 0.500000
O O11 0.675162 0.252831 0.436550
O O12 0.834230 0.734357 0.315391
O O13 0.851646 0.000000 0.262686
O O14 0.394071 0.000000 0.067760
O O15 0.410306 0.237197 0.000000
O O16 0.199040 0.500000 0.621410
O O17 0.250000 0.250000 0.633974
#
# Coordination Sequence:
#
# PCOD9483692 Si02
#       6
#    16  16   8  16  16  16
#     4  10  20  32  47  66  91 123 158 196 236 281
#     4   9  18  33  52  73  96 121 152 195 246 295
#     4  10  18  30  46  68 101 138 173 204 234 272
#     4  10  20  33  49  71  96 125 162 201 242 287
#     4   9  18  32  49  69  93 121 154 192 235 287
#     4  11  20  31  48  72 103 137 170 202 238 279
#
# _framework density 16.565593
#
# number of rings (size 3 to 8) (size 9 to 14) (size 15 to 20)
#    0.000    2.182    0.000    5.182    0.000    5.091 
#    0.000    1.818    0.000    0.000    0.000    5.727 
#    0.000    5.091    0.000    0.000    0.000    0.000 
#
# Total GULP energy -245515.231778 kJ/mol
# GULP energy per Si atom -5579.891631 kJ/mol
# Density = 1.652789 g / cm^3
# Si number density = 16.565593 Si / 1000 Ang^3
#
#
#
# Elastic Constant Matrix: (Units=GPa)
#
#
# Indices 1 2 3 4 5 6 
#
# 1 69.1574 18.2323 23.2711 0.0000 0.0000 0.0000
# 2 18.2323 67.5254 39.1801 0.0000 0.0000 0.0000
# 3 23.2711 39.1801 112.1368 0.0000 0.0000 0.0000
# 4 0.0000 0.0000 0.0000 22.5272 0.0000 0.0000
# 5 0.0000 0.0000 0.0000 0.0000 10.6602 0.0000
# 6 0.0000 0.0000 0.0000 0.0000 0.0000 22.1520
#
#
#
# Elastic Compliance Matrix: (Units=1/GPa)
#
#
# Indices 1 2 3 4 5 6 
#
# 1 0.016017 -0.003005 -0.002274 0.000000 0.000000 0.000000
# 2 -0.003005 0.019139 -0.006063 0.000000 0.000000 0.000000
# 3 -0.002274 -0.006063 0.011508 0.000000 0.000000 0.000000
# 4 0.000000 0.000000 0.000000 0.044391 0.000000 0.000000
# 5 0.000000 0.000000 0.000000 0.000000 0.093807 0.000000
# 6 0.000000 0.000000 0.000000 0.000000 0.000000 0.045143
#
#
# Mechanical properties :
#
#
# Convention : Reuss Voigt Hill
#
# Bulk Modulus (GPa) = 41.70329 45.57628 43.63978
# Shear Modulus (GPa) = 19.18043 22.27697 20.72870
#
# Velocity S-wave (km/s) = 3.40641 3.67109 3.54122
# Velocity P-wave (km/s) = 6.37972 6.74845 6.56667
#
# Compressibility (1/GPa) = 0.02397892
#
# Stress axis : x y z
#
# Youngs Moduli (GPa) = 62.43269 52.24987 86.89565
#
# Poissons Ratio (x) = 0.15703 0.19759
# Poissons Ratio (y) = 0.18763 0.52688
# Poissons Ratio (z) = 0.14197 0.31681
#
# Static dielectric constant tensor:
#      x y z
#    x 1.527920 0.000000 0.000000 
#    y 0.000000 1.560520 0.000000 
#    z 0.000000 0.000000 1.578310 
# 
# From -- ./inp_files/65768.got.cif
#   From: 2010.05.17/outbox.cif.g08.bks.cpg/sg65_33_cif.got.tgz:65768.got - 2010.06.03 17:01:31.
