data_PCOD9483351
_publ_section_title
;
Structure prediction by ZEFSAII (Michael W. Deem and Ramdas Pophale) SiO2 
 PCOD9483351
Probable space group: C M M M
;
_chemical_formula_sum "Si O2"
_cell_formula_units_Z 112
_cell_length_a 17.593195
_cell_length_b 21.035206
_cell_length_c 18.198707
_cell_angle_alpha 90.000000
_cell_angle_beta 90.000000
_cell_angle_gamma 90.000000
_cell_volume 6734.913446
_symmetry_space_group_name_H-M "C M M M"
_symmetry_group_IT_number 65
_symmetry_cell_setting 'orthorhombic'
loop_
_space_group_symop_operation_xyz
x,y,z
-x,-y,z
x,-y,-z
-x,y,-z
-x,-y,-z
x,y,-z
-x,y,z
x,-y,z
1/2+x,1/2+y,z
1/2-x,1/2-y,z
1/2+x,1/2-y,-z
1/2-x,1/2+y,-z
1/2-x,1/2-y,-z
1/2+x,1/2+y,-z
1/2-x,1/2+y,z
1/2+x,1/2-y,z
loop_
_atom_site_type_symbol
_atom_site_label
_atom_site_fract_x
_atom_site_fract_y
_atom_site_fract_z
Si Si1 0.288599 0.148403 0.280161
Si Si2 0.089193 0.302899 0.087098
Si Si3 0.798189 0.815955 0.417196
Si Si4 0.670760 0.428102 0.913805
Si Si5 0.084881 0.753195 0.318808
Si Si6 0.339929 0.928719 0.150295
Si Si7 0.647593 0.690042 0.818480
O O1 0.242835 0.140136 0.356308
O O2 0.358155 0.195483 0.298539
O O3 0.318727 0.088431 0.234637
O O4 0.227838 0.180975 0.224294
O O5 0.108179 0.371973 0.120233
O O6 0.140366 0.250062 0.127358
O O7 0.000000 0.288234 0.099460
O O8 0.103479 0.303043 0.000000
O O9 0.800888 0.840813 0.500000
O O10 0.750000 0.750000 0.417902
O O11 0.878851 0.793348 0.385134
O O12 0.644927 0.500000 0.896922
O O13 0.760855 0.426034 0.895149
O O14 0.633925 0.373519 0.864755
O O15 0.659555 0.416047 0.000000
O O16 0.088773 0.797181 0.246765
O O17 0.000000 0.731329 0.333656
O O18 0.371053 0.000000 0.143565
#
# Coordination Sequence:
#
# PCOD9483351 Si02
#       7
#    16  16  16  16  16  16  16
#     4   9  18  31  50  72  98 130 170 204 252 293
#     4  11  23  34  47  70  98 131 171 215 264 308
#     4   8  15  28  47  73 102 128 154 193 244 292
#     4   9  18  31  48  70  92 118 159 212 263 304
#     4  10  18  28  46  71 100 132 163 199 240 292
#     4  10  20  33  48  67  95 130 169 211 253 304
#     4  10  18  31  50  70  95 129 169 213 255 300
#
# _framework density 16.629760999999998
#
# number of rings (size 3 to 8) (size 9 to 14) (size 15 to 20)
#    0.000    2.429    1.429    2.571    2.000    1.429 
#    0.000    2.857    0.000    2.143    0.000    5.000 
#    0.000    0.000    0.000   19.571    0.000    0.714 
#
# Total GULP energy -311959.919439 kJ/mol
# GULP energy per Si atom -5570.712847 kJ/mol
# Density = 1.659191 g / cm^3
# Si number density = 16.629761 Si / 1000 Ang^3
#
#
#
# Elastic Constant Matrix: (Units=GPa)
#
#
# Indices 1 2 3 4 5 6 
#
# 1 63.4734 18.5641 24.3546 0.0000 0.0000 0.0000
# 2 18.5641 72.8168 46.3993 0.0000 0.0000 0.0000
# 3 24.3546 46.3993 115.9911 0.0000 0.0000 0.0000
# 4 0.0000 0.0000 0.0000 17.6554 0.0000 0.0000
# 5 0.0000 0.0000 0.0000 0.0000 9.0941 0.0000
# 6 0.0000 0.0000 0.0000 0.0000 0.0000 5.9169
#
#
#
# Elastic Compliance Matrix: (Units=1/GPa)
#
#
# Indices 1 2 3 4 5 6 
#
# 1 0.017567 -0.002856 -0.002546 0.000000 0.000000 0.000000
# 2 -0.002856 0.018896 -0.006959 0.000000 0.000000 0.000000
# 3 -0.002546 -0.006959 0.011940 0.000000 0.000000 0.000000
# 4 0.000000 0.000000 0.000000 0.056640 0.000000 0.000000
# 5 0.000000 0.000000 0.000000 0.000000 0.109961 0.000000
# 6 0.000000 0.000000 0.000000 0.000000 0.000000 0.169006
#
#
# Mechanical properties :
#
#
# Convention : Reuss Voigt Hill
#
# Bulk Modulus (GPa) = 42.23007 47.87969 45.05488
# Shear Modulus (GPa) = 12.00120 17.39751 14.69936
#
# Velocity S-wave (km/s) = 2.68931 3.23796 2.97630
# Velocity P-wave (km/s) = 5.92390 6.54471 6.24203
#
# Compressibility (1/GPa) = 0.02367981
#
# Stress axis : x y z
#
# Youngs Moduli (GPa) = 56.92531 52.92246 83.75433
#
# Poissons Ratio (x) = 0.15116 0.21323
# Poissons Ratio (y) = 0.16259 0.58284
# Poissons Ratio (z) = 0.14493 0.36829
#
# Static dielectric constant tensor:
#      x y z
#    x 1.574600 0.000000 0.000000 
#    y 0.000000 1.559550 0.000000 
#    z 0.000000 0.000000 1.577590 
# 
# From -- ./inp_files/54854.got.cif
#   From: 2010.05.17/outbox.cif.g08.bks.cpg/sg65_28_cif.got.tgz:54854.got - 2010.06.03 17:01:31.
