data_PCOD9483665
_publ_section_title
;
Structure prediction by ZEFSAII (Michael W. Deem and Ramdas Pophale) SiO2 
 PCOD9483665
Probable space group: C M M M
;
_chemical_formula_sum "Si O2"
_cell_formula_units_Z 104
_cell_length_a 18.561844
_cell_length_b 19.881517
_cell_length_c 16.845530
_cell_angle_alpha 90.000000
_cell_angle_beta 90.000000
_cell_angle_gamma 90.000000
_cell_volume 6216.634249
_symmetry_space_group_name_H-M "C M M M"
_symmetry_group_IT_number 65
_symmetry_cell_setting 'orthorhombic'
loop_
_space_group_symop_operation_xyz
x,y,z
-x,-y,z
x,-y,-z
-x,y,-z
-x,-y,-z
x,y,-z
-x,y,z
x,-y,z
1/2+x,1/2+y,z
1/2-x,1/2-y,z
1/2+x,1/2-y,-z
1/2-x,1/2+y,-z
1/2-x,1/2-y,-z
1/2+x,1/2+y,-z
1/2-x,1/2+y,z
1/2+x,1/2-y,z
loop_
_atom_site_type_symbol
_atom_site_label
_atom_site_fract_x
_atom_site_fract_y
_atom_site_fract_z
Si Si1 0.680452 0.576377 0.090966
Si Si2 0.714341 0.921448 0.239631
Si Si3 0.414882 0.318654 0.175573
Si Si4 0.416746 0.247965 0.589166
Si Si5 0.417458 0.500000 0.594642
Si Si6 0.655487 0.631158 0.663888
Si Si7 0.416052 0.824880 0.244086
O O1 0.649399 0.500000 0.101793
O O2 0.743401 0.582363 0.155878
O O3 0.625753 0.636877 0.110327
O O4 0.704971 0.581004 0.000000
O O5 0.764428 0.881960 0.303227
O O6 0.638007 0.885678 0.231446
O O7 0.709292 0.000000 0.261661
O O8 0.500000 0.321285 0.163649
O O9 0.392802 0.352942 0.258692
O O10 0.395000 0.240210 0.190221
O O11 0.407952 0.220327 0.500000
O O12 0.500000 0.274849 0.593732
O O13 0.359597 0.306895 0.605511
O O14 0.410269 0.197917 0.663464
O O15 0.500000 0.500000 0.624070
O O16 0.419426 0.500000 0.500000
O O17 0.375306 0.435353 0.624768
O O18 0.500000 0.839950 0.228637
#
# Coordination Sequence:
#
# PCOD9483665 Si02
#       7
#    16  16  16  16   8  16  16
#     4   9  19  34  52  77 107 141 174 201 243 303
#     4  10  20  36  55  73 100 132 168 220 268 310
#     4   9  18  31  49  74 104 136 170 211 247 291
#     4   9  17  31  51  74 102 135 171 211 251 297
#     4  11  20  28  42  66 100 140 172 199 236 288
#     4  10  18  30  45  70 100 134 170 205 245 299
#     4   9  19  36  56  76  97 127 174 222 265 314
#
# _framework density 16.729309000000001
#
# number of rings (size 3 to 8) (size 9 to 14) (size 15 to 20)
#    0.000    2.538    0.769    2.769    1.077    7.692 
#    0.000    4.615    0.000    1.385    0.000    4.308 
#    0.000    0.000    0.000    0.000    0.000    0.000 
#
# Total GULP energy -289630.935736 kJ/mol
# GULP energy per Si atom -5569.825687 kJ/mol
# Density = 1.669123 g / cm^3
# Si number density = 16.729309 Si / 1000 Ang^3
#
#
#
# Elastic Constant Matrix: (Units=GPa)
#
#
# Indices 1 2 3 4 5 6 
#
# 1 69.1362 43.9419 16.1791 0.0000 0.0000 0.0000
# 2 43.9419 53.7323 12.9803 0.0000 0.0000 0.0000
# 3 16.1791 12.9803 44.2635 0.0000 0.0000 0.0000
# 4 0.0000 0.0000 0.0000 3.5287 0.0000 0.0000
# 5 0.0000 0.0000 0.0000 0.0000 9.6513 0.0000
# 6 0.0000 0.0000 0.0000 0.0000 0.0000 47.2382
#
#
#
# Elastic Compliance Matrix: (Units=1/GPa)
#
#
# Indices 1 2 3 4 5 6 
#
# 1 0.030818 -0.024196 -0.004169 0.000000 0.000000 0.000000
# 2 -0.024196 0.039026 -0.002600 0.000000 0.000000 0.000000
# 3 -0.004169 -0.002600 0.024878 0.000000 0.000000 0.000000
# 4 0.000000 0.000000 0.000000 0.283392 0.000000 0.000000
# 5 0.000000 0.000000 0.000000 0.000000 0.103613 0.000000
# 6 0.000000 0.000000 0.000000 0.000000 0.000000 0.021169
#
#
# Mechanical properties :
#
#
# Convention : Reuss Voigt Hill
#
# Bulk Modulus (GPa) = 30.49522 34.81494 32.65508
# Shear Modulus (GPa) = 8.68419 18.35237 13.51828
#
# Velocity S-wave (km/s) = 2.28085 3.31572 2.84572
# Velocity P-wave (km/s) = 5.02041 5.95941 5.50995
#
# Compressibility (1/GPa) = 0.03279202
#
# Stress axis : x y z
#
# Youngs Moduli (GPa) = 32.44818 25.62383 40.19539
#
# Poissons Ratio (x) = 0.61999 0.16758
# Poissons Ratio (y) = 0.78511 0.10452
# Poissons Ratio (z) = 0.13528 0.06663
#
# Static dielectric constant tensor:
#      x y z
#    x 1.557690 0.000000 0.000000 
#    y 0.000000 1.562760 0.000000 
#    z 0.000000 0.000000 1.569340 
# 
# From -- ./inp_files/54583.got.cif
#   From: 2010.05.17/outbox.cif.g08.bks.cpg/sg65_28_cif.got.tgz:54583.got - 2010.06.03 17:01:31.
