data_PCOD9483272
_publ_section_title
;
Structure prediction by ZEFSAII (Michael W. Deem and Ramdas Pophale) SiO2 
 PCOD9483272
Probable space group: C M M M
;
_chemical_formula_sum "Si O2"
_cell_formula_units_Z 72
_cell_length_a 9.247751
_cell_length_b 37.194909
_cell_length_c 14.621065
_cell_angle_alpha 90.000000
_cell_angle_beta 90.000000
_cell_angle_gamma 90.000000
_cell_volume 5029.196863
_symmetry_space_group_name_H-M "C M M M"
_symmetry_group_IT_number 65
_symmetry_cell_setting 'orthorhombic'
loop_
_space_group_symop_operation_xyz
x,y,z
-x,-y,z
x,-y,-z
-x,y,-z
-x,-y,-z
x,y,-z
-x,y,z
x,-y,z
1/2+x,1/2+y,z
1/2-x,1/2-y,z
1/2+x,1/2-y,-z
1/2-x,1/2+y,-z
1/2-x,1/2-y,-z
1/2+x,1/2+y,-z
1/2-x,1/2+y,z
1/2+x,1/2-y,z
loop_
_atom_site_type_symbol
_atom_site_label
_atom_site_fract_x
_atom_site_fract_y
_atom_site_fract_z
Si Si1 0.826811 0.141133 0.392496
Si Si2 0.824096 0.000000 0.395211
Si Si3 0.673368 0.957646 0.895170
Si Si4 0.325586 0.570090 0.279731
Si Si5 0.166344 0.714287 0.388719
O O1 0.794248 0.134182 0.500000
O O2 0.786860 0.106780 0.331782
O O3 0.746452 0.177466 0.363228
O O4 0.000000 0.146425 0.386212
O O5 0.780238 0.035831 0.341270
O O6 0.773761 0.000000 0.500000
O O7 0.000000 0.000000 0.397404
O O8 0.500000 0.954277 0.885850
O O9 0.753805 0.934738 0.818818
O O10 0.709190 0.000000 0.881726
O O11 0.711369 0.948375 0.000000
O O12 0.500000 0.569014 0.271432
O O13 0.167288 0.715105 0.500000
O O14 0.250000 0.750000 0.357619
O O15 0.000000 0.714585 0.359018
#
# Coordination Sequence:
#
# PCOD9483272 Si02
#       5
#    16   8  16  16  16
#     4   9  17  28  41  60  88 119 147 176 212 254
#     4   9  16  26  40  59  84 114 147 179 210 247
#     4   9  18  32  47  61  80 108 140 178 228 275
#     4  10  18  28  44  65  85 110 146 184 217 251
#     4   9  16  26  41  60  82 111 146 181 215 251
#
# _framework density 14.316402
#
# number of rings (size 3 to 8) (size 9 to 14) (size 15 to 20)
#    0.000    2.778    1.111    2.000    0.000    6.667 
#    0.000    1.111    0.000    2.667    0.000    0.000 
#    0.000    0.889    0.000    2.889    0.000    4.222 
#
# Total GULP energy -200570.478181 kJ/mol
# GULP energy per Si atom -5571.402172 kJ/mol
# Density = 1.428382 g / cm^3
# Si number density = 14.316402 Si / 1000 Ang^3
#
#
#
# Elastic Constant Matrix: (Units=GPa)
#
#
# Indices 1 2 3 4 5 6 
#
# 1 40.0561 58.4509 37.9231 0.0000 0.0000 0.0000
# 2 58.4509 144.7271 66.0955 0.0000 0.0000 0.0000
# 3 37.9231 66.0955 88.1391 0.0000 0.0000 0.0000
# 4 0.0000 0.0000 0.0000 5.8538 0.0000 0.0000
# 5 0.0000 0.0000 0.0000 0.0000 17.7760 0.0000
# 6 0.0000 0.0000 0.0000 0.0000 0.0000 23.0634
#
#
#
# Elastic Compliance Matrix: (Units=1/GPa)
#
#
# Indices 1 2 3 4 5 6 
#
# 1 0.070059 -0.022095 -0.013575 0.000000 0.000000 0.000000
# 2 -0.022095 0.017477 -0.003599 0.000000 0.000000 0.000000
# 3 -0.013575 -0.003599 0.019885 0.000000 0.000000 0.000000
# 4 0.000000 0.000000 0.000000 0.170828 0.000000 0.000000
# 5 0.000000 0.000000 0.000000 0.000000 0.056256 0.000000
# 6 0.000000 0.000000 0.000000 0.000000 0.000000 0.043359
#
#
# Mechanical properties :
#
#
# Convention : Reuss Voigt Hill
#
# Bulk Modulus (GPa) = 34.62234 66.42903 50.52569
# Shear Modulus (GPa) = 10.72896 16.70217 13.71557
#
# Velocity S-wave (km/s) = 2.74052 3.41933 3.09857
# Velocity P-wave (km/s) = 5.85236 7.87975 6.94048
#
# Compressibility (1/GPa) = 0.02888308
#
# Stress axis : x y z
#
# Youngs Moduli (GPa) = 14.27376 57.21877 50.28838
#
# Poissons Ratio (x) = 1.26426 0.68264
# Poissons Ratio (y) = 0.31538 0.18099
# Poissons Ratio (z) = 0.19376 0.20593
#
# Static dielectric constant tensor:
#      x y z
#    x 1.478370 0.000000 0.000000 
#    y 0.000000 1.460310 0.000000 
#    z 0.000000 0.000000 1.449900 
# 
# From -- ./inp_files/36937.got.cif
#   From: 2010.05.17/outbox.cif.g08.bks.cpg/sg65_19_cif.got.tgz:36937.got - 2010.06.03 17:01:31.
