data_PCOD9483152
_publ_section_title
;
Structure prediction by ZEFSAII (Michael W. Deem and Ramdas Pophale) SiO2 
 PCOD9483152
Probable space group: C M M M
;
_chemical_formula_sum "Si O2"
_cell_formula_units_Z 80
_cell_length_a 22.032378
_cell_length_b 19.914663
_cell_length_c 7.218797
_cell_angle_alpha 90.000000
_cell_angle_beta 90.000000
_cell_angle_gamma 90.000000
_cell_volume 3167.372668
_symmetry_space_group_name_H-M "C M M M"
_symmetry_group_IT_number 65
_symmetry_cell_setting 'orthorhombic'
loop_
_space_group_symop_operation_xyz
x,y,z
-x,-y,z
x,-y,-z
-x,y,-z
-x,-y,-z
x,y,-z
-x,y,z
x,-y,z
1/2+x,1/2+y,z
1/2-x,1/2-y,z
1/2+x,1/2-y,-z
1/2-x,1/2+y,-z
1/2-x,1/2-y,-z
1/2+x,1/2+y,-z
1/2-x,1/2+y,z
1/2+x,1/2-y,z
loop_
_atom_site_type_symbol
_atom_site_label
_atom_site_fract_x
_atom_site_fract_y
_atom_site_fract_z
Si Si1 0.566065 0.218804 0.226241
Si Si2 0.600226 0.927138 0.224366
Si Si3 0.167435 0.184330 0.794367
Si Si4 0.757486 0.425268 0.775066
Si Si5 0.931006 0.076474 0.723448
O O1 0.500000 0.247203 0.282733
O O2 0.568915 0.141202 0.282688
O O3 0.627391 0.255914 0.290857
O O4 0.567827 0.222463 0.000000
O O5 0.671584 0.922456 0.271195
O O6 0.577425 0.000000 0.287123
O O7 0.596459 0.927620 0.000000
O O8 0.222324 0.141262 0.708837
O O9 0.116138 0.127091 0.806576
O O10 0.186860 0.206788 0.000000
O O11 0.734716 0.500000 0.716442
O O12 0.752548 0.424155 0.000000
O O13 0.927416 0.081210 0.500000
O O14 0.000000 0.091015 0.777580
O O15 0.917552 0.000000 0.774895
#
# Coordination Sequence:
#
# PCOD9483152 Si02
#       5
#    16  16  16  16  16
#     4   9  17  26  36  56  85 114 146 181 216 259
#     4   8  14  25  39  55  80 113 145 180 221 260
#     4  10  18  27  42  64  91 117 139 173 220 262
#     4   8  14  24  38  58  82 108 142 179 212 253
#     4   9  18  31  44  59  83 117 155 188 213 245
#
# _framework density 25.257528000000001
#
# number of rings (size 3 to 8) (size 9 to 14) (size 15 to 20)
#    0.000    3.200    0.000    3.000    0.000    3.600 
#    0.000    7.000    0.000    0.000    0.000    2.800 
#    0.000    2.400    0.000    4.200    0.000    4.000 
#
# Total GULP energy -223387.261668 kJ/mol
# GULP energy per Si atom -5584.681542 kJ/mol
# Density = 2.520004 g / cm^3
# Si number density = 25.257528 Si / 1000 Ang^3
#
#
#
# Elastic Constant Matrix: (Units=GPa)
#
#
# Indices 1 2 3 4 5 6 
#
# 1 84.1471 48.1688 -0.1959 0.0000 0.0000 0.0000
# 2 48.1688 144.7465 -0.2106 0.0000 0.0000 0.0000
# 3 -0.1959 -0.2106 120.2814 0.0000 0.0000 0.0000
# 4 0.0000 0.0000 0.0000 53.0219 0.0000 0.0000
# 5 0.0000 0.0000 0.0000 0.0000 16.2385 0.0000
# 6 0.0000 0.0000 0.0000 0.0000 0.0000 47.1213
#
#
#
# Elastic Compliance Matrix: (Units=1/GPa)
#
#
# Indices 1 2 3 4 5 6 
#
# 1 0.014681 -0.004885 0.000015 0.000000 0.000000 0.000000
# 2 -0.004885 0.008534 0.000007 0.000000 0.000000 0.000000
# 3 0.000015 0.000007 0.008314 0.000000 0.000000 0.000000
# 4 0.000000 0.000000 0.000000 0.018860 0.000000 0.000000
# 5 0.000000 0.000000 0.000000 0.000000 0.061582 0.000000
# 6 0.000000 0.000000 0.000000 0.000000 0.000000 0.021222
#
#
# Mechanical properties :
#
#
# Convention : Reuss Voigt Hill
#
# Bulk Modulus (GPa) = 45.86577 49.41107 47.63842
# Shear Modulus (GPa) = 33.29194 43.37052 38.33123
#
# Velocity S-wave (km/s) = 3.63450 4.14833 3.89989
# Velocity P-wave (km/s) = 5.98427 6.52305 6.25946
#
# Compressibility (1/GPa) = 0.02180275
#
# Stress axis : x y z
#
# Youngs Moduli (GPa) = 68.11729 117.17283 120.28086
#
# Poissons Ratio (x) = 0.57243 -0.00185
# Poissons Ratio (y) = 0.33278 -0.00084
# Poissons Ratio (z) = -0.00105 -0.00082
#
# Static dielectric constant tensor:
#      x y z
#    x 1.953560 0.000000 0.000000 
#    y 0.000000 1.988000 0.000000 
#    z 0.000000 0.000000 1.973410 
# 
# From -- ./inp_files/9648.got.cif
#   From: 2010.05.17/outbox.cif.g08.bks.cpg/sg65_5_cif.got.tgz:9648.got - 2010.06.03 17:01:31.
