data_PCOD9483979
_publ_section_title
;
Structure prediction by ZEFSAII (Michael W. Deem and Ramdas Pophale) SiO2 
 PCOD9483979
Probable space group: C M M M
;
_chemical_formula_sum "Si O2"
_cell_formula_units_Z 92
_cell_length_a 21.854879
_cell_length_b 27.492787
_cell_length_c 7.440772
_cell_angle_alpha 90.000000
_cell_angle_beta 90.000000
_cell_angle_gamma 90.000000
_cell_volume 4470.799265
_symmetry_space_group_name_H-M "C M M M"
_symmetry_group_IT_number 65
_symmetry_cell_setting 'orthorhombic'
loop_
_space_group_symop_operation_xyz
x,y,z
-x,-y,z
x,-y,-z
-x,y,-z
-x,-y,-z
x,y,-z
-x,y,z
x,-y,z
1/2+x,1/2+y,z
1/2-x,1/2-y,z
1/2+x,1/2-y,-z
1/2-x,1/2+y,-z
1/2-x,1/2-y,-z
1/2+x,1/2+y,-z
1/2-x,1/2+y,z
1/2+x,1/2-y,z
loop_
_atom_site_type_symbol
_atom_site_label
_atom_site_fract_x
_atom_site_fract_y
_atom_site_fract_z
Si Si1 0.428592 0.175993 0.716760
Si Si2 0.624232 0.073365 0.792531
Si Si3 0.420353 0.000000 0.500000
Si Si4 0.500000 0.443433 0.220023
Si Si5 0.070079 0.783851 0.283896
Si Si6 0.736289 0.444968 0.781786
Si Si7 0.620705 0.387009 0.787559
O O1 0.425131 0.174842 0.500000
O O2 0.500000 0.170611 0.766321
O O3 0.391574 0.130209 0.786206
O O4 0.409335 0.230214 0.776501
O O5 0.582801 0.042390 0.657844
O O6 0.694091 0.065164 0.727012
O O7 0.619351 0.057227 0.000000
O O8 0.500000 0.500000 0.271994
O O9 0.439158 0.415331 0.282762
O O10 0.500000 0.442181 0.000000
O O11 0.067539 0.782226 0.500000
O O12 0.110949 0.829712 0.234931
O O13 0.000000 0.792142 0.220162
O O14 0.719698 0.500000 0.729945
O O15 0.684403 0.408158 0.716111
O O16 0.737590 0.443032 0.000000
O O17 0.621436 0.397088 0.000000
#
# Coordination Sequence:
#
# PCOD9483979 Si02
#       7
#    16  16   4   8  16  16  16
#     4   9  19  38  62  85 113 150 190 237 293 344
#     4  11  22  39  63  90 118 155 195 236 285 344
#     4  12  22  40  65  88 122 155 192 240 282 348
#     4   9  16  26  45  75 109 145 189 239 294 343
#     4   9  18  34  54  77 111 151 187 234 293 347
#     4   9  18  34  54  77 110 149 191 237 288 342
#     4  10  18  30  51  79 108 143 192 244 288 338
#
# _framework density 20.577977000000001
#
# number of rings (size 3 to 8) (size 9 to 14) (size 15 to 20)
#    0.000    2.348    2.609    1.826    0.000    3.130 
#    1.565    3.478    0.000    8.348    0.000    0.000 
#    0.000    0.000    0.000    0.000    0.000    0.000 
#
# Total GULP energy -256294.433140 kJ/mol
# GULP energy per Si atom -5571.618112 kJ/mol
# Density = 2.053114 g / cm^3
# Si number density = 20.577977 Si / 1000 Ang^3
#
#
#
# Elastic Constant Matrix: (Units=GPa)
#
#
# Indices 1 2 3 4 5 6 
#
# 1 41.5782 43.3581 8.6553 0.0000 0.0000 0.0000
# 2 43.3581 156.1444 0.0066 0.0000 0.0000 0.0000
# 3 8.6553 0.0066 83.2348 0.0000 0.0000 0.0000
# 4 0.0000 0.0000 0.0000 23.4927 0.0000 0.0000
# 5 0.0000 0.0000 0.0000 0.0000 -3.4495 0.0000
# 6 0.0000 0.0000 0.0000 0.0000 0.0000 7.3170
#
#
#
# Elastic Compliance Matrix: (Units=1/GPa)
#
#
# Indices 1 2 3 4 5 6 
#
# 1 0.034918 -0.009696 -0.003630 0.000000 0.000000 0.000000
# 2 -0.009696 0.009097 0.001008 0.000000 0.000000 0.000000
# 3 -0.003630 0.001008 0.012392 0.000000 0.000000 0.000000
# 4 0.000000 0.000000 0.000000 0.042566 0.000000 0.000000
# 5 0.000000 0.000000 0.000000 0.000000 -0.289899 0.000000
# 6 0.000000 0.000000 0.000000 0.000000 0.000000 0.136668
#
#
# Mechanical properties :
#
#
# Convention : Reuss Voigt Hill
#
# Bulk Modulus (GPa) = 31.47731 42.77749 37.12740
# Shear Modulus (GPa) = -262.72059 20.73453 -120.99303
#
# Velocity S-wave (km/s) = -11.31141 3.17773 -7.67626
# Velocity P-wave (km/s) = 12.46063 5.85637 7.77722
#
# Compressibility (1/GPa) = 0.03176891
#
# Stress axis : x y z
#
# Youngs Moduli (GPa) = 28.63891 109.93137 80.69966
#
# Poissons Ratio (x) = 1.06586 0.29296
# Poissons Ratio (y) = 0.27767 -0.08131
# Poissons Ratio (z) = 0.10397 -0.11076
#
# Static dielectric constant tensor:
#      x y z
#    x 1.733800 0.000000 0.000000 
#    y 0.000000 1.715460 0.000000 
#    z 0.000000 0.000000 1.785910 
# 
# From -- ./inp_files/14428.got.cif
#   From: 2010.05.17/outbox.cif.g08.bks.cpg/sg65_8_cif.got.tgz:14428.got - 2010.06.03 17:01:31.
