data_PCOD9483106
_publ_section_title
;
Structure prediction by ZEFSAII (Michael W. Deem and Ramdas Pophale) SiO2 
 PCOD9483106
Probable space group: C M M M
;
_chemical_formula_sum "Si O2"
_cell_formula_units_Z 104
_cell_length_a 8.499940
_cell_length_b 24.722390
_cell_length_c 29.587821
_cell_angle_alpha 90.000000
_cell_angle_beta 90.000000
_cell_angle_gamma 90.000000
_cell_volume 6217.550136
_symmetry_space_group_name_H-M "C M M M"
_symmetry_group_IT_number 65
_symmetry_cell_setting 'orthorhombic'
loop_
_space_group_symop_operation_xyz
x,y,z
-x,-y,z
x,-y,-z
-x,y,-z
-x,-y,-z
x,y,-z
-x,y,z
x,-y,z
1/2+x,1/2+y,z
1/2-x,1/2-y,z
1/2+x,1/2-y,-z
1/2-x,1/2+y,-z
1/2-x,1/2-y,-z
1/2+x,1/2+y,-z
1/2-x,1/2+y,z
1/2+x,1/2-y,z
loop_
_atom_site_type_symbol
_atom_site_label
_atom_site_fract_x
_atom_site_fract_y
_atom_site_fract_z
Si Si1 0.178349 0.500000 0.945362
Si Si2 0.689695 0.188442 0.770825
Si Si3 0.309288 0.811815 0.671276
Si Si4 0.812920 0.115298 0.051691
Si Si5 0.307983 0.117597 0.586177
Si Si6 0.307928 0.000000 0.446990
Si Si7 0.688270 0.811124 0.131223
Si Si8 0.689901 0.188869 0.500000
O O1 0.264756 0.444909 0.933262
O O2 0.000000 0.500000 0.928243
O O3 0.173502 0.500000 0.000000
O O4 0.500000 0.188143 0.770731
O O5 0.750000 0.250000 0.771432
O O6 0.740114 0.167846 0.721431
O O7 0.740116 0.165163 0.819573
O O8 0.500000 0.809570 0.670079
O O9 0.250000 0.750000 0.664640
O O10 0.256428 0.852607 0.632034
O O11 0.747263 0.156361 0.088225
O O12 0.000000 0.119467 0.050374
O O13 0.753732 0.124162 0.000000
O O14 0.500000 0.116544 0.586677
O O15 0.259917 0.155384 0.544170
O O16 0.256885 0.055823 0.576967
O O17 0.500000 0.000000 0.446766
O O18 0.261457 0.000000 0.500000
O O19 0.500000 0.810406 0.130566
O O20 0.750000 0.750000 0.128667
O O21 0.500000 0.190278 0.500000
O O22 0.750000 0.250000 0.500000
#
# Coordination Sequence:
#
# PCOD9483106 Si02
#       8
#     8  16  16  16  16   8  16   8
#     4   9  17  31  51  72  93 120 156 195 233 272
#     4   8  15  27  43  62  86 115 147 184 223 268
#     4   9  16  27  43  65  90 113 141 180 227 273
#     4  10  20  33  49  70  96 125 157 194 234 278
#     4   9  16  25  40  61  86 114 145 182 219 257
#     4   9  14  24  40  59  84 115 151 186 215 250
#     4  10  19  31  47  67  92 123 157 192 233 282
#     4  10  18  27  39  61  89 114 139 172 216 262
#
# _framework density 16.726845999999998
#
# number of rings (size 3 to 8) (size 9 to 14) (size 15 to 20)
#    0.000    2.769    0.769    1.615    0.000    2.769 
#    0.000    0.000    0.000    0.923    0.000    7.000 
#    0.000    0.000    0.000    0.000    0.000    0.000 
#
# Total GULP energy -289469.684476 kJ/mol
# GULP energy per Si atom -5566.724701 kJ/mol
# Density = 1.668877 g / cm^3
# Si number density = 16.726846 Si / 1000 Ang^3
#
#
#
# Elastic Constant Matrix: (Units=GPa)
#
#
# Indices 1 2 3 4 5 6 
#
# 1 16.3101 15.5492 25.9834 0.0000 0.0000 0.0000
# 2 15.5492 116.2187 88.0099 0.0000 0.0000 0.0000
# 3 25.9834 88.0099 171.4671 0.0000 0.0000 0.0000
# 4 0.0000 0.0000 0.0000 2.4736 0.0000 0.0000
# 5 0.0000 0.0000 0.0000 0.0000 9.9815 0.0000
# 6 0.0000 0.0000 0.0000 0.0000 0.0000 21.9998
#
#
#
# Elastic Compliance Matrix: (Units=1/GPa)
#
#
# Indices 1 2 3 4 5 6 
#
# 1 0.081276 -0.002531 -0.011017 0.000000 0.000000 0.000000
# 2 -0.002531 0.014154 -0.006882 0.000000 0.000000 0.000000
# 3 -0.011017 -0.006882 0.011034 0.000000 0.000000 0.000000
# 4 0.000000 0.000000 0.000000 0.404262 0.000000 0.000000
# 5 0.000000 0.000000 0.000000 0.000000 0.100185 0.000000
# 6 0.000000 0.000000 0.000000 0.000000 0.000000 0.045455
#
#
# Mechanical properties :
#
#
# Convention : Reuss Voigt Hill
#
# Bulk Modulus (GPa) = 15.24292 62.56456 38.90374
# Shear Modulus (GPa) = 6.95321 18.52121 12.73721
#
# Velocity S-wave (km/s) = 2.04106 3.33118 2.76249
# Velocity P-wave (km/s) = 3.83239 7.23053 5.78653
#
# Compressibility (1/GPa) = 0.06560421
#
# Stress axis : x y z
#
# Youngs Moduli (GPa) = 12.30382 70.64963 90.63212
#
# Poissons Ratio (x) = 0.17882 0.99849
# Poissons Ratio (y) = 0.03114 0.62369
# Poissons Ratio (z) = 0.13555 0.48618
#
# Static dielectric constant tensor:
#      x y z
#    x 1.571660 0.000000 0.000000 
#    y 0.000000 1.528640 0.000000 
#    z 0.000000 0.000000 1.606000 
# 
# From -- ./inp_files/73621.got.cif
#   From: 2010.05.17/outbox.cif.g08.bks.cpg/sg65_37_cif.got.tgz:73621.got - 2010.06.03 17:01:31.
