data_PCOD9483128
_publ_section_title
;
Structure prediction by ZEFSAII (Michael W. Deem and Ramdas Pophale) SiO2 
 PCOD9483128
Probable space group: C M M M
;
_chemical_formula_sum "Si O2"
_cell_formula_units_Z 112
_cell_length_a 29.465667
_cell_length_b 28.642928
_cell_length_c 7.600833
_cell_angle_alpha 90.000000
_cell_angle_beta 90.000000
_cell_angle_gamma 90.000000
_cell_volume 6414.973673
_symmetry_space_group_name_H-M "C M M M"
_symmetry_group_IT_number 65
_symmetry_cell_setting 'orthorhombic'
loop_
_space_group_symop_operation_xyz
x,y,z
-x,-y,z
x,-y,-z
-x,y,-z
-x,-y,-z
x,y,-z
-x,y,z
x,-y,z
1/2+x,1/2+y,z
1/2-x,1/2-y,z
1/2+x,1/2-y,-z
1/2-x,1/2+y,-z
1/2-x,1/2-y,-z
1/2+x,1/2+y,-z
1/2-x,1/2+y,z
1/2+x,1/2-y,z
loop_
_atom_site_type_symbol
_atom_site_label
_atom_site_fract_x
_atom_site_fract_y
_atom_site_fract_z
Si Si1 0.551472 0.866315 0.715474
Si Si2 0.856526 0.214328 0.789312
Si Si3 0.308693 0.808880 0.214195
Si Si4 0.765892 0.448491 0.289022
Si Si5 0.215646 0.854576 0.210983
Si Si6 0.142496 0.596026 0.703594
Si Si7 0.949566 0.740705 0.289310
O O1 0.553044 0.866406 0.500000
O O2 0.500000 0.878658 0.766089
O O3 0.591838 0.899866 0.779050
O O4 0.559919 0.812486 0.773082
O O5 0.828254 0.259539 0.726234
O O6 0.831352 0.167727 0.723660
O O7 0.908964 0.224336 0.752079
O O8 0.852492 0.214225 0.000000
O O9 0.257240 0.820860 0.266810
O O10 0.338919 0.850972 0.287447
O O11 0.310729 0.810480 0.000000
O O12 0.770215 0.450321 0.500000
O O13 0.753066 0.500000 0.225312
O O14 0.730413 0.407026 0.255654
O O15 0.815828 0.433610 0.218325
O O16 0.214939 0.853293 0.000000
O O17 0.137891 0.581443 0.500000
O O18 0.951573 0.737651 0.500000
O O19 0.000000 0.754038 0.225900
#
# Coordination Sequence:
#
# PCOD9483128 Si02
#       7
#    16  16  16  16  16  16  16
#     4   8  13  22  37  56  77 104 140 177 207 239
#     4  10  18  27  41  61  87 115 140 172 208 242
#     4   9  16  26  39  57  84 113 138 168 205 243
#     4   9  18  31  45  62  83 105 134 177 222 257
#     4   9  18  30  43  61  84 111 142 169 204 255
#     4   9  15  25  42  59  77 106 142 175 211 252
#     4   9  17  28  41  58  83 116 150 178 203 238
#
# _framework density 17.459150999999999
#
# number of rings (size 3 to 8) (size 9 to 14) (size 15 to 20)
#    0.000    3.000    1.429    1.286    0.000    2.857 
#    0.000    0.000    0.000    5.143    0.000    3.000 
#    0.000    0.571    0.000   13.429    0.000   12.000 
#
# Total GULP energy -311895.743824 kJ/mol
# GULP energy per Si atom -5569.566854 kJ/mol
# Density = 1.741941 g / cm^3
# Si number density = 17.459151 Si / 1000 Ang^3
#
#
#
# Elastic Constant Matrix: (Units=GPa)
#
#
# Indices 1 2 3 4 5 6 
#
# 1 82.3177 56.1010 4.2190 0.0000 0.0000 0.0000
# 2 56.1010 86.8042 2.5941 0.0000 0.0000 0.0000
# 3 4.2190 2.5941 35.3740 0.0000 0.0000 0.0000
# 4 0.0000 0.0000 0.0000 9.9344 0.0000 0.0000
# 5 0.0000 0.0000 0.0000 0.0000 35.7681 0.0000
# 6 0.0000 0.0000 0.0000 0.0000 0.0000 12.9523
#
#
#
# Elastic Compliance Matrix: (Units=1/GPa)
#
#
# Indices 1 2 3 4 5 6 
#
# 1 0.021798 -0.014041 -0.001570 0.000000 0.000000 0.000000
# 2 -0.014041 0.020590 0.000165 0.000000 0.000000 0.000000
# 3 -0.001570 0.000165 0.028445 0.000000 0.000000 0.000000
# 4 0.000000 0.000000 0.000000 0.100661 0.000000 0.000000
# 5 0.000000 0.000000 0.000000 0.000000 0.027958 0.000000
# 6 0.000000 0.000000 0.000000 0.000000 0.000000 0.077206
#
#
# Mechanical properties :
#
#
# Convention : Reuss Voigt Hill
#
# Bulk Modulus (GPa) = 25.03786 36.70269 30.87027
# Shear Modulus (GPa) = 15.58304 21.16975 18.37639
#
# Velocity S-wave (km/s) = 2.99079 3.48592 3.24780
# Velocity P-wave (km/s) = 5.12819 6.10490 5.63774
#
# Compressibility (1/GPa) = 0.03993952
#
# Stress axis : x y z
#
# Youngs Moduli (GPa) = 45.87681 48.56810 35.15616
#
# Poissons Ratio (x) = 0.68193 0.05520
# Poissons Ratio (y) = 0.64414 -0.00579
# Poissons Ratio (z) = 0.07203 -0.00800
#
# Static dielectric constant tensor:
#      x y z
#    x 1.643670 0.000000 0.000000 
#    y 0.000000 1.590130 0.000000 
#    z 0.000000 0.000000 1.669650 
# 
# From -- ./inp_files/32925.got.cif
#   From: 2010.05.17/outbox.cif.g08.bks.cpg/sg65_17_cif.got.tgz:32925.got - 2010.06.03 17:01:31.
