data_PCOD9483390
_publ_section_title
;
Structure prediction by ZEFSAII (Michael W. Deem and Ramdas Pophale) SiO2 
 PCOD9483390
Probable space group: C M M M
;
_chemical_formula_sum "Si O2"
_cell_formula_units_Z 72
_cell_length_a 22.126516
_cell_length_b 11.331442
_cell_length_c 16.738295
_cell_angle_alpha 90.000000
_cell_angle_beta 90.000000
_cell_angle_gamma 90.000000
_cell_volume 4196.714583
_symmetry_space_group_name_H-M "C M M M"
_symmetry_group_IT_number 65
_symmetry_cell_setting 'orthorhombic'
loop_
_space_group_symop_operation_xyz
x,y,z
-x,-y,z
x,-y,-z
-x,y,-z
-x,-y,-z
x,y,-z
-x,y,z
x,-y,z
1/2+x,1/2+y,z
1/2-x,1/2-y,z
1/2+x,1/2-y,-z
1/2-x,1/2+y,-z
1/2-x,1/2-y,-z
1/2+x,1/2+y,-z
1/2-x,1/2+y,z
1/2+x,1/2-y,z
loop_
_atom_site_type_symbol
_atom_site_label
_atom_site_fract_x
_atom_site_fract_y
_atom_site_fract_z
Si Si1 0.135870 0.500000 0.163128
Si Si2 0.816570 0.000000 0.595034
Si Si3 0.500000 0.193270 0.000000
Si Si4 0.323754 0.258077 0.326053
Si Si5 0.000000 0.500000 0.862389
Si Si6 0.677903 0.249312 0.860415
Si Si7 0.320740 0.000000 0.659437
Si Si8 0.388253 0.632152 0.000000
O O1 0.064266 0.500000 0.182989
O O2 0.152751 0.380538 0.117799
O O3 0.176601 0.500000 0.243633
O O4 0.842806 0.123032 0.628839
O O5 0.818603 0.000000 0.500000
O O6 0.746706 0.000000 0.624530
O O7 0.442004 0.275292 0.000000
O O8 0.500000 0.111556 0.078254
O O9 0.250000 0.250000 0.330130
O O10 0.339596 0.269429 0.232314
O O11 0.346619 0.130951 0.359649
O O12 0.750000 0.250000 0.864944
O O13 0.651262 0.342884 0.921378
O O14 0.411476 0.500000 0.000000
#
# Coordination Sequence:
#
# PCOD9483390 Si02
#       8
#     8   8   4  16   4  16   8   8
#     4  10  19  36  60  76 101 143 189 232 266 321
#     4  10  18  28  47  74 107 145 173 202 259 334
#     4  11  23  42  52  76 101 135 184 252 280 303
#     4   8  16  29  45  64  99 137 168 207 251 311
#     4  11  20  38  64  74  99 140 192 238 281 300
#     4  10  21  35  52  77 107 142 181 222 274 327
#     4   8  16  29  44  72  98 127 169 213 259 304
#     4  12  25  36  51  75 104 144 183 228 286 324
#
# _framework density 17.156278
#
# number of rings (size 3 to 8) (size 9 to 14) (size 15 to 20)
#    0.000    2.333    2.222    1.833    3.111    4.444 
#    0.000    0.000    0.000    0.000    0.000    0.389 
#    0.000    0.000    0.000   26.222    0.000    0.000 
#
# Total GULP energy -200431.176660 kJ/mol
# GULP energy per Si atom -5567.532685 kJ/mol
# Density = 1.711723 g / cm^3
# Si number density = 17.156278 Si / 1000 Ang^3
#
#
#
# Elastic Constant Matrix: (Units=GPa)
#
#
# Indices 1 2 3 4 5 6 
#
# 1 47.9119 12.5983 18.2354 0.0000 0.0000 0.0000
# 2 12.5983 158.1727 49.6921 0.0000 0.0000 0.0000
# 3 18.2354 49.6921 67.2947 0.0000 0.0000 0.0000
# 4 0.0000 0.0000 0.0000 16.7006 0.0000 0.0000
# 5 0.0000 0.0000 0.0000 0.0000 -0.4056 0.0000
# 6 0.0000 0.0000 0.0000 0.0000 0.0000 18.4651
#
#
#
# Elastic Compliance Matrix: (Units=1/GPa)
#
#
# Indices 1 2 3 4 5 6 
#
# 1 0.023275 0.000166 -0.006430 0.000000 0.000000 0.000000
# 2 0.000166 0.008233 -0.006125 0.000000 0.000000 0.000000
# 3 -0.006430 -0.006125 0.021125 0.000000 0.000000 0.000000
# 4 0.000000 0.000000 0.000000 0.059878 0.000000 0.000000
# 5 0.000000 0.000000 0.000000 0.000000 -2.465672 0.000000
# 6 0.000000 0.000000 0.000000 0.000000 0.000000 0.054156
#
#
# Mechanical properties :
#
#
# Convention : Reuss Voigt Hill
#
# Bulk Modulus (GPa) = 35.89786 48.27009 42.08398
# Shear Modulus (GPa) = -2.20756 19.80892 8.80068
#
# Velocity S-wave (km/s) = -1.13557 3.40165 2.26734
# Velocity P-wave (km/s) = 4.38749 6.60492 5.60692
#
# Compressibility (1/GPa) = 0.02785681
#
# Stress axis : x y z
#
# Youngs Moduli (GPa) = 42.96428 121.46125 47.33760
#
# Poissons Ratio (x) = -0.02018 0.30437
# Poissons Ratio (y) = -0.00714 0.28992
# Poissons Ratio (z) = 0.27625 0.74389
#
# Static dielectric constant tensor:
#      x y z
#    x 1.552070 0.000000 0.000000 
#    y 0.000000 1.651390 0.000000 
#    z 0.000000 0.000000 1.569730 
# 
# From -- ./inp_files/56599.got.cif
#   From: 2010.05.17/outbox.cif.g08.bks.cpg/sg65_29_cif.got.tgz:56599.got - 2010.06.03 17:01:31.
