data_PCOD9483848
_publ_section_title
;
Structure prediction by ZEFSAII (Michael W. Deem and Ramdas Pophale) SiO2 
 PCOD9483848
Probable space group: C M M M
;
_chemical_formula_sum "Si O2"
_cell_formula_units_Z 128
_cell_length_a 21.066730
_cell_length_b 14.673226
_cell_length_c 20.471723
_cell_angle_alpha 90.000000
_cell_angle_beta 90.000000
_cell_angle_gamma 90.000000
_cell_volume 6328.155354
_symmetry_space_group_name_H-M "C M M M"
_symmetry_group_IT_number 65
_symmetry_cell_setting 'orthorhombic'
loop_
_space_group_symop_operation_xyz
x,y,z
-x,-y,z
x,-y,-z
-x,y,-z
-x,-y,-z
x,y,-z
-x,y,z
x,-y,z
1/2+x,1/2+y,z
1/2-x,1/2-y,z
1/2+x,1/2-y,-z
1/2-x,1/2+y,-z
1/2-x,1/2-y,-z
1/2+x,1/2+y,-z
1/2-x,1/2+y,z
1/2+x,1/2-y,z
loop_
_atom_site_type_symbol
_atom_site_label
_atom_site_fract_x
_atom_site_fract_y
_atom_site_fract_z
Si Si1 0.753703 0.140779 0.705833
Si Si2 0.811367 0.892132 0.156083
Si Si3 0.393813 0.104090 0.300815
Si Si4 0.572001 0.611313 0.925607
Si Si5 0.569451 0.111213 0.841324
Si Si6 0.190021 0.388303 0.074773
Si Si7 0.426741 0.225111 0.573898
Si Si8 0.798846 0.163262 0.429241
O O1 0.750000 0.250000 0.704941
O O2 0.796704 0.118457 0.767791
O O3 0.682017 0.105520 0.711105
O O4 0.781350 0.110550 0.636241
O O5 0.877096 0.855879 0.127160
O O6 0.751293 0.857168 0.115127
O O7 0.812948 0.000000 0.143584
O O8 0.422426 0.142701 0.233543
O O9 0.411777 0.158203 0.366019
O O10 0.415075 0.000000 0.308659
O O11 0.500000 0.641667 0.913204
O O12 0.570635 0.500000 0.924367
O O13 0.590455 0.636422 0.000000
O O14 0.500000 0.136041 0.866502
O O15 0.626773 0.140256 0.887277
O O16 0.572669 0.000000 0.838268
O O17 0.190281 0.500000 0.074386
O O18 0.191497 0.358095 0.000000
O O19 0.421171 0.184439 0.500000
O O20 0.500000 0.257122 0.580071
O O21 0.370746 0.299755 0.576729
O O22 0.791543 0.117627 0.500000
O O23 0.750000 0.250000 0.430617
#
# Coordination Sequence:
#
# PCOD9483848 Si02
#       8
#    16  16  16  16  16  16  16  16
#     4  11  20  33  53  74  96 131 178 212 243 291
#     4  10  18  30  49  74 104 128 156 206 259 298
#     4  11  20  33  51  75 107 140 169 205 256 309
#     4   8  14  26  47  75 102 126 154 193 249 314
#     4   9  17  28  42  64  96 132 165 200 243 287
#     4   9  16  26  43  68  95 126 165 205 244 288
#     4  10  20  34  53  79 108 137 170 210 254 302
#     4   9  17  33  54  71  93 132 174 210 245 286
#
# _framework density 20.227063000000001
#
# number of rings (size 3 to 8) (size 9 to 14) (size 15 to 20)
#    0.000    2.375    3.750    1.500    0.000    2.750 
#    0.000    2.500    0.000    2.625    0.000    0.000 
#    0.000    0.000    0.000   15.625    0.000    0.000 
#
# Total GULP energy -357016.216741 kJ/mol
# GULP energy per Si atom -5578.378387 kJ/mol
# Density = 2.018103 g / cm^3
# Si number density = 20.227063 Si / 1000 Ang^3
#
#
#
# Elastic Constant Matrix: (Units=GPa)
#
#
# Indices 1 2 3 4 5 6 
#
# 1 139.1045 0.1720 77.1154 0.0000 0.0000 0.0000
# 2 0.1720 37.9301 0.1155 0.0000 0.0000 0.0000
# 3 77.1154 0.1155 159.2843 0.0000 0.0000 0.0000
# 4 0.0000 0.0000 0.0000 94.2274 0.0000 0.0000
# 5 0.0000 0.0000 0.0000 0.0000 34.2475 0.0000
# 6 0.0000 0.0000 0.0000 0.0000 0.0000 2.9912
#
#
#
# Elastic Compliance Matrix: (Units=1/GPa)
#
#
# Indices 1 2 3 4 5 6 
#
# 1 0.009826 -0.000030 -0.004757 0.000000 0.000000 0.000000
# 2 -0.000030 0.026364 -0.000005 0.000000 0.000000 0.000000
# 3 -0.004757 -0.000005 0.008581 0.000000 0.000000 0.000000
# 4 0.000000 0.000000 0.000000 0.010613 0.000000 0.000000
# 5 0.000000 0.000000 0.000000 0.000000 0.029199 0.000000
# 6 0.000000 0.000000 0.000000 0.000000 0.000000 0.334318
#
#
# Mechanical properties :
#
#
# Convention : Reuss Voigt Hill
#
# Bulk Modulus (GPa) = 28.41865 54.56942 41.49403
# Shear Modulus (GPa) = 11.35811 43.55429 27.45620
#
# Velocity S-wave (km/s) = 2.37223 4.64537 3.68829
# Velocity P-wave (km/s) = 4.64582 7.47058 6.22066
#
# Compressibility (1/GPa) = 0.03518817
#
# Stress axis : x y z
#
# Youngs Moduli (GPa) = 101.76968 37.92988 116.53379
#
# Poissons Ratio (x) = 0.00114 0.55437
# Poissons Ratio (y) = 0.00306 0.00053
# Poissons Ratio (z) = 0.48413 0.00017
#
# Static dielectric constant tensor:
#      x y z
#    x 1.739230 0.000000 0.000000 
#    y 0.000000 1.752250 0.000000 
#    z 0.000000 0.000000 1.726460 
# 
# From -- ./inp_files/64849.got.cif
#   From: 2010.05.17/outbox.cif.g08.bks.cpg/sg65_33_cif.got.tgz:64849.got - 2010.06.03 17:01:31.
