data_PCOD9483210
_publ_section_title
;
Structure prediction by ZEFSAII (Michael W. Deem and Ramdas Pophale) SiO2 
 PCOD9483210
Probable space group: C M M M
;
_chemical_formula_sum "Si O2"
_cell_formula_units_Z 56
_cell_length_a 35.000894
_cell_length_b 7.322691
_cell_length_c 10.719643
_cell_angle_alpha 90.000000
_cell_angle_beta 90.000000
_cell_angle_gamma 90.000000
_cell_volume 2747.452342
_symmetry_space_group_name_H-M "C M M M"
_symmetry_group_IT_number 65
_symmetry_cell_setting 'orthorhombic'
loop_
_space_group_symop_operation_xyz
x,y,z
-x,-y,z
x,-y,-z
-x,y,-z
-x,-y,-z
x,y,-z
-x,y,z
x,-y,z
1/2+x,1/2+y,z
1/2-x,1/2-y,z
1/2+x,1/2-y,-z
1/2-x,1/2+y,-z
1/2-x,1/2-y,-z
1/2+x,1/2+y,-z
1/2-x,1/2+y,z
1/2+x,1/2-y,z
loop_
_atom_site_type_symbol
_atom_site_label
_atom_site_fract_x
_atom_site_fract_y
_atom_site_fract_z
Si Si1 0.704629 0.217972 0.500000
Si Si2 0.336854 0.776732 0.249587
Si Si3 0.794889 0.717115 0.000000
Si Si4 0.083427 0.277145 0.145267
Si Si5 0.500000 0.212325 0.151550
O O1 0.750000 0.250000 0.500000
O O2 0.683987 0.286135 0.374826
O O3 0.699734 0.000000 0.500000
O O4 0.380847 0.722227 0.229336
O O5 0.336215 0.000000 0.250890
O O6 0.314045 0.714694 0.126801
O O7 0.750000 0.750000 0.000000
O O8 0.801529 0.500000 0.000000
O O9 0.082284 0.500000 0.144471
O O10 0.041456 0.212251 0.187536
O O11 0.089823 0.224304 0.000000
O O12 0.500000 0.000000 0.189916
O O13 0.500000 0.216723 0.000000
#
# Coordination Sequence:
#
# PCOD9483210 Si02
#       5
#     8  16   8  16   8
#     4  10  20  32  44  59  79 107 139 168 202 242
#     4   9  16  26  40  56  77 104 134 165 198 238
#     4  10  18  28  42  59  77 101 131 166 204 236
#     4   8  11  18  32  52  76 102 132 161 189 229
#     4   7  10  14  26  49  75 101 128 157 187 223
#
# _framework density 20.382518999999998
#
# number of rings (size 3 to 8) (size 9 to 14) (size 15 to 20)
#    0.000    3.286    1.429    2.571    0.000    0.000 
#    0.000    0.000    0.000    0.857    0.000    6.000 
#    0.000    0.000    0.000    7.714    0.000    8.571 
#
# Total GULP energy -156140.655474 kJ/mol
# GULP energy per Si atom -5576.451981 kJ/mol
# Density = 2.033613 g / cm^3
# Si number density = 20.382519 Si / 1000 Ang^3
#
#
#
# Elastic Constant Matrix: (Units=GPa)
#
#
# Indices 1 2 3 4 5 6 
#
# 1 248.4060 3.0500 117.0620 0.0000 0.0000 0.0000
# 2 3.0500 79.8720 11.2157 0.0000 0.0000 0.0000
# 3 117.0620 11.2157 152.7697 0.0000 0.0000 0.0000
# 4 0.0000 0.0000 0.0000 -16.1232 0.0000 0.0000
# 5 0.0000 0.0000 0.0000 0.0000 30.5720 0.0000
# 6 0.0000 0.0000 0.0000 0.0000 0.0000 3.7459
#
#
#
# Elastic Compliance Matrix: (Units=1/GPa)
#
#
# Indices 1 2 3 4 5 6 
#
# 1 0.006316 0.000443 -0.004873 0.000000 0.000000 0.000000
# 2 0.000443 0.012682 -0.001270 0.000000 0.000000 0.000000
# 3 -0.004873 -0.001270 0.010373 0.000000 0.000000 0.000000
# 4 0.000000 0.000000 0.000000 -0.062022 0.000000 0.000000
# 5 0.000000 0.000000 0.000000 0.000000 0.032710 0.000000
# 6 0.000000 0.000000 0.000000 0.000000 0.000000 0.266960
#
#
# Mechanical properties :
#
#
# Convention : Reuss Voigt Hill
#
# Bulk Modulus (GPa) = 55.64646 82.63368 69.14007
# Shear Modulus (GPa) = 17.58033 26.95361 22.26697
#
# Velocity S-wave (km/s) = 2.94006 3.64041 3.30882
# Velocity P-wave (km/s) = 6.23583 7.63542 6.97084
#
# Compressibility (1/GPa) = 0.01797060
#
# Stress axis : x y z
#
# Youngs Moduli (GPa) = 158.31674 78.85492 96.40624
#
# Poissons Ratio (x) = -0.03493 0.46975
# Poissons Ratio (y) = -0.07014 0.12248
# Poissons Ratio (z) = 0.77141 0.10018
#
# Static dielectric constant tensor:
#      x y z
#    x 1.724140 0.000000 0.000000 
#    y 0.000000 1.929300 0.000000 
#    z 0.000000 0.000000 1.678190 
# 
# From -- ./inp_files/31881.got.cif
#   From: 2010.05.17/outbox.cif.g08.bks.cpg/sg65_16_cif.got.tgz:31881.got - 2010.06.03 17:01:31.
