data_PCOD9483663
_publ_section_title
;
Structure prediction by ZEFSAII (Michael W. Deem and Ramdas Pophale) SiO2 
 PCOD9483663
Probable space group: C M M M
;
_chemical_formula_sum "Si O2"
_cell_formula_units_Z 128
_cell_length_a 18.221812
_cell_length_b 26.283465
_cell_length_c 17.954508
_cell_angle_alpha 90.000000
_cell_angle_beta 90.000000
_cell_angle_gamma 90.000000
_cell_volume 8598.994852
_symmetry_space_group_name_H-M "C M M M"
_symmetry_group_IT_number 65
_symmetry_cell_setting 'orthorhombic'
loop_
_space_group_symop_operation_xyz
x,y,z
-x,-y,z
x,-y,-z
-x,y,-z
-x,-y,-z
x,y,-z
-x,y,z
x,-y,z
1/2+x,1/2+y,z
1/2-x,1/2-y,z
1/2+x,1/2-y,-z
1/2-x,1/2+y,-z
1/2-x,1/2-y,-z
1/2+x,1/2+y,-z
1/2-x,1/2+y,z
1/2+x,1/2-y,z
loop_
_atom_site_type_symbol
_atom_site_label
_atom_site_fract_x
_atom_site_fract_y
_atom_site_fract_z
Si Si1 0.813153 0.710725 0.792447
Si Si2 0.186824 0.610019 0.702150
Si Si3 0.084029 0.142742 0.411736
Si Si4 0.086672 0.335467 0.417413
Si Si5 0.914971 0.558349 0.821320
Si Si6 0.799746 0.939372 0.586355
Si Si7 0.837346 0.759228 0.642227
Si Si8 0.086281 0.658552 0.086315
O O1 0.750000 0.750000 0.816698
O O2 0.785325 0.658750 0.750880
O O3 0.854277 0.740988 0.726229
O O4 0.865012 0.692627 0.858764
O O5 0.126802 0.632740 0.645655
O O6 0.143581 0.572675 0.757768
O O7 0.246466 0.583574 0.649408
O O8 0.083964 0.154281 0.500000
O O9 0.121901 0.087968 0.403168
O O10 0.136085 0.184225 0.373159
O O11 0.000000 0.144996 0.385342
O O12 0.101747 0.355929 0.500000
O O13 0.118916 0.278808 0.411059
O O14 0.000000 0.334349 0.405667
O O15 0.905744 0.500000 0.845337
O O16 0.905519 0.600217 0.885894
O O17 0.000000 0.563917 0.794425
O O18 0.776451 0.927438 0.500000
O O19 0.803364 0.000000 0.592974
O O20 0.750000 0.750000 0.631876
O O21 0.000000 0.671293 0.094338
O O22 0.106689 0.663773 0.000000
#
# Coordination Sequence:
#
# PCOD9483663 Si02
#       8
#    16  16  16  16  16  16  16  16
#     4   9  18  30  45  65  87 113 140 167 204 249
#     4  10  18  30  45  62  87 112 143 183 216 251
#     4  10  20  32  45  62  85 112 144 184 226 263
#     4  10  19  28  40  60  86 116 146 176 215 259
#     4   9  17  29  46  66  87 114 144 173 209 249
#     4  10  20  32  46  62  80 109 148 187 227 263
#     4  10  19  30  45  65  88 112 142 178 212 255
#     4   9  18  31  46  66  90 113 138 168 201 241
#
# _framework density 14.885460999999999
#
# number of rings (size 3 to 8) (size 9 to 14) (size 15 to 20)
#    0.000    2.375    0.000    4.125    0.000    7.250 
#    0.000    2.500    0.000    0.375    0.000    5.250 
#    0.000    0.000    0.000    0.000    0.000    0.000 
#
# Total GULP energy -356517.137896 kJ/mol
# GULP energy per Si atom -5570.580280 kJ/mol
# Density = 1.485158 g / cm^3
# Si number density = 14.885461 Si / 1000 Ang^3
#
#
#
# Elastic Constant Matrix: (Units=GPa)
#
#
# Indices 1 2 3 4 5 6 
#
# 1 81.1190 48.2843 50.8589 0.0000 0.0000 0.0000
# 2 48.2843 84.2419 42.2834 0.0000 0.0000 0.0000
# 3 50.8589 42.2834 81.7721 0.0000 0.0000 0.0000
# 4 0.0000 0.0000 0.0000 13.3542 0.0000 0.0000
# 5 0.0000 0.0000 0.0000 0.0000 14.5634 0.0000
# 6 0.0000 0.0000 0.0000 0.0000 0.0000 21.0851
#
#
#
# Elastic Compliance Matrix: (Units=1/GPa)
#
#
# Indices 1 2 3 4 5 6 
#
# 1 0.023959 -0.008445 -0.010535 0.000000 0.000000 0.000000
# 2 -0.008445 0.019008 -0.004576 0.000000 0.000000 0.000000
# 3 -0.010535 -0.004576 0.021148 0.000000 0.000000 0.000000
# 4 0.000000 0.000000 0.000000 0.074883 0.000000 0.000000
# 5 0.000000 0.000000 0.000000 0.000000 0.068666 0.000000
# 6 0.000000 0.000000 0.000000 0.000000 0.000000 0.047427
#
#
# Mechanical properties :
#
#
# Convention : Reuss Voigt Hill
#
# Bulk Modulus (GPa) = 58.81459 58.88738 58.85098
# Shear Modulus (GPa) = 16.24062 16.84761 16.54412
#
# Velocity S-wave (km/s) = 3.30667 3.36790 3.33743
# Velocity P-wave (km/s) = 7.36043 7.40067 7.38058
#
# Compressibility (1/GPa) = 0.01700258
#
# Stress axis : x y z
#
# Youngs Moduli (GPa) = 41.73767 52.60989 47.28601
#
# Poissons Ratio (x) = 0.44427 0.49816
# Poissons Ratio (y) = 0.35246 0.21640
# Poissons Ratio (z) = 0.43971 0.24077
#
# Static dielectric constant tensor:
#      x y z
#    x 1.490240 0.000000 0.000000 
#    y 0.000000 1.502900 0.000000 
#    z 0.000000 0.000000 1.482390 
# 
# From -- ./inp_files/55139.got.cif
#   From: 2010.05.17/outbox.cif.g08.bks.cpg/sg65_28_cif.got.tgz:55139.got - 2010.06.03 17:01:31.
