data_PCOD9483115
_publ_section_title
;
Structure prediction by ZEFSAII (Michael W. Deem and Ramdas Pophale) SiO2 
 PCOD9483115
Probable space group: C M M M
;
_chemical_formula_sum "Si O2"
_cell_formula_units_Z 104
_cell_length_a 8.493593
_cell_length_b 28.173698
_cell_length_c 28.031111
_cell_angle_alpha 90.000000
_cell_angle_beta 90.000000
_cell_angle_gamma 90.000000
_cell_volume 6707.730611
_symmetry_space_group_name_H-M "C M M M"
_symmetry_group_IT_number 65
_symmetry_cell_setting 'orthorhombic'
loop_
_space_group_symop_operation_xyz
x,y,z
-x,-y,z
x,-y,-z
-x,y,-z
-x,-y,-z
x,y,-z
-x,y,z
x,-y,z
1/2+x,1/2+y,z
1/2-x,1/2-y,z
1/2+x,1/2-y,-z
1/2-x,1/2+y,-z
1/2-x,1/2-y,-z
1/2+x,1/2+y,-z
1/2-x,1/2+y,z
1/2+x,1/2-y,z
loop_
_atom_site_type_symbol
_atom_site_label
_atom_site_fract_x
_atom_site_fract_y
_atom_site_fract_z
Si Si1 0.311398 0.802599 0.397224
Si Si2 0.811136 0.804054 0.207142
Si Si3 0.190600 0.195501 0.000000
Si Si4 0.309993 0.394686 0.552999
Si Si5 0.690151 0.695773 0.897329
Si Si6 0.809530 0.946244 0.351006
Si Si7 0.688149 0.145152 0.300470
O O1 0.500000 0.802899 0.399021
O O2 0.250000 0.750000 0.406431
O O3 0.246349 0.841954 0.433465
O O4 0.260896 0.820563 0.344357
O O5 0.750000 0.750000 0.212160
O O6 0.759985 0.823071 0.154621
O O7 0.751025 0.835223 0.250774
O O8 0.000000 0.802693 0.208394
O O9 0.250000 0.250000 0.000000
O O10 0.241830 0.174538 0.051398
O O11 0.000000 0.195904 0.000000
O O12 0.255898 0.408220 0.500000
O O13 0.500000 0.395100 0.553064
O O14 0.258030 0.428769 0.596193
O O15 0.500000 0.695860 0.897400
O O16 0.750000 0.750000 0.897561
O O17 0.747881 0.907104 0.314221
O O18 0.000000 0.945274 0.350115
O O19 0.757759 0.000000 0.341772
O O20 0.500000 0.145184 0.299563
#
# Coordination Sequence:
#
# PCOD9483115 Si02
#       7
#    16  16   8  16  16  16  16
#     4  10  20  32  46  63  84 112 144 174 205 242
#     4  10  18  27  40  60  86 115 147 181 216 252
#     4   8  12  20  32  46  68 100 139 178 211 242
#     4   9  18  32  49  69  91 112 135 164 198 240
#     4   8  14  22  33  50  73 104 141 178 212 245
#     4   9  18  33  52  71  89 109 133 164 205 251
#     4  10  20  32  46  64  85 111 142 176 212 250
#
# _framework density 15.504498
#
# number of rings (size 3 to 8) (size 9 to 14) (size 15 to 20)
#    0.000    2.769    0.000    1.846    0.000    4.923 
#    0.000    1.538    0.000    0.000    0.000    4.308 
#    0.000    0.000    0.000    0.692    0.000   15.923 
#
# Total GULP energy -289538.234465 kJ/mol
# GULP energy per Si atom -5568.042970 kJ/mol
# Density = 1.546921 g / cm^3
# Si number density = 15.504498 Si / 1000 Ang^3
#
#
#
# Elastic Constant Matrix: (Units=GPa)
#
#
# Indices 1 2 3 4 5 6 
#
# 1 13.0860 11.0500 17.9027 0.0000 0.0000 0.0000
# 2 11.0500 68.1346 36.4583 0.0000 0.0000 0.0000
# 3 17.9027 36.4583 139.4991 0.0000 0.0000 0.0000
# 4 0.0000 0.0000 0.0000 10.7719 0.0000 0.0000
# 5 0.0000 0.0000 0.0000 0.0000 14.8270 0.0000
# 6 0.0000 0.0000 0.0000 0.0000 0.0000 16.6502
#
#
#
# Elastic Compliance Matrix: (Units=1/GPa)
#
#
# Indices 1 2 3 4 5 6 
#
# 1 0.099051 -0.010768 -0.009898 0.000000 0.000000 0.000000
# 2 -0.010768 0.018234 -0.003383 0.000000 0.000000 0.000000
# 3 -0.009898 -0.003383 0.009323 0.000000 0.000000 0.000000
# 4 0.000000 0.000000 0.000000 0.092834 0.000000 0.000000
# 5 0.000000 0.000000 0.000000 0.000000 0.067445 0.000000
# 6 0.000000 0.000000 0.000000 0.000000 0.000000 0.060059
#
#
# Mechanical properties :
#
#
# Convention : Reuss Voigt Hill
#
# Bulk Modulus (GPa) = 12.73730 39.06017 25.89874
# Shear Modulus (GPa) = 11.87049 18.80374 15.33712
#
# Velocity S-wave (km/s) = 2.76998 3.48630 3.14857
# Velocity P-wave (km/s) = 4.29691 6.43841 5.47342
#
# Compressibility (1/GPa) = 0.07850955
#
# Stress axis : x y z
#
# Youngs Moduli (GPa) = 10.09586 54.84382 107.26175
#
# Poissons Ratio (x) = 0.59055 1.06163
# Poissons Ratio (y) = 0.10871 0.36292
# Poissons Ratio (z) = 0.09992 0.18556
#
# Static dielectric constant tensor:
#      x y z
#    x 1.530560 0.000000 0.000000 
#    y 0.000000 1.476080 0.000000 
#    z 0.000000 0.000000 1.573350 
# 
# From -- ./inp_files/73745.got.cif
#   From: 2010.05.17/outbox.cif.g08.bks.cpg/sg65_37_cif.got.tgz:73745.got - 2010.06.03 17:01:31.
