data_PCOD9483087
_publ_section_title
;
Structure prediction by ZEFSAII (Michael W. Deem and Ramdas Pophale) SiO2 
 PCOD9483087
Probable space group: C M M M
;
_chemical_formula_sum "Si O2"
_cell_formula_units_Z 72
_cell_length_a 20.429283
_cell_length_b 18.118338
_cell_length_c 12.129024
_cell_angle_alpha 90.000000
_cell_angle_beta 90.000000
_cell_angle_gamma 90.000000
_cell_volume 4489.493398
_symmetry_space_group_name_H-M "C M M M"
_symmetry_group_IT_number 65
_symmetry_cell_setting 'orthorhombic'
loop_
_space_group_symop_operation_xyz
x,y,z
-x,-y,z
x,-y,-z
-x,y,-z
-x,-y,-z
x,y,-z
-x,y,z
x,-y,z
1/2+x,1/2+y,z
1/2-x,1/2-y,z
1/2+x,1/2-y,-z
1/2-x,1/2+y,-z
1/2-x,1/2-y,-z
1/2+x,1/2+y,-z
1/2-x,1/2+y,z
1/2+x,1/2-y,z
loop_
_atom_site_type_symbol
_atom_site_label
_atom_site_fract_x
_atom_site_fract_y
_atom_site_fract_z
Si Si1 0.670854 0.753935 0.500000
Si Si2 0.500000 0.411314 0.367426
Si Si3 0.260172 0.083393 0.740915
Si Si4 0.680263 0.918633 0.500000
Si Si5 0.822141 0.288414 0.126911
Si Si6 0.872147 0.830690 0.720180
O O1 0.750000 0.750000 0.500000
O O2 0.645781 0.838740 0.500000
O O3 0.647869 0.712464 0.609040
O O4 0.500000 0.500000 0.356536
O O5 0.500000 0.395036 0.500000
O O6 0.563038 0.375552 0.308938
O O7 0.277033 0.083392 0.611073
O O8 0.310211 0.137734 0.802749
O O9 0.186935 0.114319 0.751586
O O10 0.265119 0.000000 0.782231
O O11 0.646238 0.000000 0.500000
O O12 0.750000 0.250000 0.129846
O O13 0.871991 0.231972 0.185312
O O14 0.838698 0.302760 0.000000
#
# Coordination Sequence:
#
# PCOD9483087 Si02
#       6
#     8   8  16   8  16  16
#     4  12  16  29  49  74  98 136 173 212 266 320
#     4  11  24  36  49  77 111 146 182 213 248 296
#     4  10  18  28  47  75 107 136 162 207 267 319
#     4  10  18  26  42  75 105 128 160 197 255 323
#     4   9  18  32  51  73  96 128 173 221 266 311
#     4  11  19  33  50  70 105 142 178 215 251 304
#
# _framework density 16.037444000000001
#
# number of rings (size 3 to 8) (size 9 to 14) (size 15 to 20)
#    0.000    1.667    5.556    1.333    0.000    0.444 
#    0.000    0.556    0.000    2.667    0.000    3.889 
#    0.000    1.778    0.000    0.000    0.000    0.000 
#
# Total GULP energy -200560.026692 kJ/mol
# GULP energy per Si atom -5571.111853 kJ/mol
# Density = 1.600094 g / cm^3
# Si number density = 16.037444 Si / 1000 Ang^3
#
#
#
# Elastic Constant Matrix: (Units=GPa)
#
#
# Indices 1 2 3 4 5 6 
#
# 1 59.2256 37.6883 30.9263 0.0000 0.0000 0.0000
# 2 37.6883 140.1247 48.5757 0.0000 0.0000 0.0000
# 3 30.9263 48.5757 102.7853 0.0000 0.0000 0.0000
# 4 0.0000 0.0000 0.0000 -7.2105 0.0000 0.0000
# 5 0.0000 0.0000 0.0000 0.0000 5.4350 0.0000
# 6 0.0000 0.0000 0.0000 0.0000 0.0000 22.9705
#
#
#
# Elastic Compliance Matrix: (Units=1/GPa)
#
#
# Indices 1 2 3 4 5 6 
#
# 1 0.022038 -0.004340 -0.004580 0.000000 0.000000 0.000000
# 2 -0.004340 0.009389 -0.003132 0.000000 0.000000 0.000000
# 3 -0.004580 -0.003132 0.012587 0.000000 0.000000 0.000000
# 4 0.000000 0.000000 0.000000 -0.138686 0.000000 0.000000
# 5 0.000000 0.000000 0.000000 0.000000 0.183994 0.000000
# 6 0.000000 0.000000 0.000000 0.000000 0.000000 0.043534
#
#
# Mechanical properties :
#
#
# Convention : Reuss Voigt Hill
#
# Bulk Modulus (GPa) = 50.22166 59.61292 54.91729
# Shear Modulus (GPa) = 30.56322 16.56867 23.56595
#
# Velocity S-wave (km/s) = 4.37022 3.21771 3.83748
# Velocity P-wave (km/s) = 7.53978 7.14540 7.34524
#
# Compressibility (1/GPa) = 0.01991173
#
# Stress axis : x y z
#
# Youngs Moduli (GPa) = 45.37691 106.50412 79.44715
#
# Poissons Ratio (x) = 0.46219 0.36386
# Poissons Ratio (y) = 0.19692 0.24880
# Poissons Ratio (z) = 0.20782 0.33353
#
# Static dielectric constant tensor:
#      x y z
#    x 1.512440 0.000000 0.000000 
#    y 0.000000 1.573300 0.000000 
#    z 0.000000 0.000000 1.534440 
# 
# From -- ./inp_files/28490.got.cif
#   From: 2010.05.17/outbox.cif.g08.bks.cpg/sg65_15_cif.got.tgz:28490.got - 2010.06.03 17:01:31.
