data_PCOD9483269
_publ_section_title
;
Structure prediction by ZEFSAII (Michael W. Deem and Ramdas Pophale) SiO2 
 PCOD9483269
Probable space group: C M M M
;
_chemical_formula_sum "Si O2"
_cell_formula_units_Z 96
_cell_length_a 29.516512
_cell_length_b 26.490308
_cell_length_c 9.038014
_cell_angle_alpha 90.000000
_cell_angle_beta 90.000000
_cell_angle_gamma 90.000000
_cell_volume 7066.836649
_symmetry_space_group_name_H-M "C M M M"
_symmetry_group_IT_number 65
_symmetry_cell_setting 'orthorhombic'
loop_
_space_group_symop_operation_xyz
x,y,z
-x,-y,z
x,-y,-z
-x,y,-z
-x,-y,-z
x,y,-z
-x,y,z
x,-y,z
1/2+x,1/2+y,z
1/2-x,1/2-y,z
1/2+x,1/2-y,-z
1/2-x,1/2+y,-z
1/2-x,1/2-y,-z
1/2+x,1/2+y,-z
1/2-x,1/2+y,z
1/2+x,1/2-y,z
loop_
_atom_site_type_symbol
_atom_site_label
_atom_site_fract_x
_atom_site_fract_y
_atom_site_fract_z
Si Si1 0.141706 0.757822 0.677210
Si Si2 0.805877 0.851930 0.175944
Si Si3 0.051513 0.782346 0.824198
Si Si4 0.551589 0.596663 0.824007
Si Si5 0.724724 0.195449 0.329798
Si Si6 0.858717 0.941463 0.325047
O O1 0.143982 0.764336 0.500000
O O2 0.163758 0.806942 0.754357
O O3 0.090560 0.754930 0.733445
O O4 0.173684 0.710016 0.714777
O O5 0.754638 0.840604 0.228255
O O6 0.825459 0.903779 0.239573
O O7 0.809774 0.850387 0.000000
O O8 0.055597 0.842893 0.800065
O O9 0.000000 0.768060 0.785087
O O10 0.057716 0.774217 0.000000
O O11 0.500000 0.581833 0.785565
O O12 0.590616 0.569398 0.733651
O O13 0.557770 0.587879 0.000000
O O14 0.725700 0.177632 0.500000
O O15 0.750000 0.250000 0.327681
O O16 0.856633 0.930815 0.500000
O O17 0.847603 0.000000 0.300198
#
# Coordination Sequence:
#
# PCOD9483269 Si02
#       6
#    16  16  16  16  16  16
#     4  10  18  28  44  64  84 106 132 163 200 241
#     4  11  20  30  45  62  80 102 130 166 204 246
#     4   9  17  28  42  61  84 109 136 167 205 245
#     4   9  18  32  47  61  77 100 131 169 214 255
#     4   8  16  29  43  61  84 105 126 157 198 241
#     4  11  23  35  46  60  78 102 133 170 213 256
#
# _framework density 13.584579
#
# number of rings (size 3 to 8) (size 9 to 14) (size 15 to 20)
#    0.000    2.333    1.667    4.500    0.000    6.000 
#    0.000    3.333    0.000    0.000    0.000    0.000 
#    0.000    0.000    0.000    0.000    0.000    0.833 
#
# Total GULP energy -267610.889437 kJ/mol
# GULP energy per Si atom -5575.226863 kJ/mol
# Density = 1.355366 g / cm^3
# Si number density = 13.584579 Si / 1000 Ang^3
#
#
#
# Elastic Constant Matrix: (Units=GPa)
#
#
# Indices 1 2 3 4 5 6 
#
# 1 99.0933 45.0676 60.5034 0.0000 0.0000 0.0000
# 2 45.0676 41.0084 41.4024 0.0000 0.0000 0.0000
# 3 60.5034 41.4024 73.8055 0.0000 0.0000 0.0000
# 4 0.0000 0.0000 0.0000 5.2061 0.0000 0.0000
# 5 0.0000 0.0000 0.0000 0.0000 25.7376 0.0000
# 6 0.0000 0.0000 0.0000 0.0000 0.0000 13.6641
#
#
#
# Elastic Compliance Matrix: (Units=1/GPa)
#
#
# Indices 1 2 3 4 5 6 
#
# 1 0.023512 -0.014712 -0.011021 0.000000 0.000000 0.000000
# 2 -0.014712 0.065439 -0.024649 0.000000 0.000000 0.000000
# 3 -0.011021 -0.024649 0.036411 0.000000 0.000000 0.000000
# 4 0.000000 0.000000 0.000000 0.192081 0.000000 0.000000
# 5 0.000000 0.000000 0.000000 0.000000 0.038854 0.000000
# 6 0.000000 0.000000 0.000000 0.000000 0.000000 0.073185
#
#
# Mechanical properties :
#
#
# Convention : Reuss Voigt Hill
#
# Bulk Modulus (GPa) = 40.65371 56.42822 48.54097
# Shear Modulus (GPa) = 9.28602 13.38382 11.33492
#
# Velocity S-wave (km/s) = 2.61735 3.14223 2.89173
# Velocity P-wave (km/s) = 6.25503 7.40226 6.85269
#
# Compressibility (1/GPa) = 0.02459800
#
# Stress axis : x y z
#
# Youngs Moduli (GPa) = 42.53196 15.28150 27.46411
#
# Poissons Ratio (x) = 0.22482 0.30269
# Poissons Ratio (y) = 0.62572 0.67695
# Poissons Ratio (z) = 0.46876 0.37667
#
# Static dielectric constant tensor:
#      x y z
#    x 1.472270 0.000000 0.000000 
#    y 0.000000 1.418940 0.000000 
#    z 0.000000 0.000000 1.451150 
# 
# From -- ./inp_files/16921.got.cif
#   From: 2010.05.17/outbox.cif.g08.bks.cpg/sg65_9_cif.got.tgz:16921.got - 2010.06.03 17:01:31.
