data_PCOD9483466
_publ_section_title
;
Structure prediction by ZEFSAII (Michael W. Deem and Ramdas Pophale) SiO2 
 PCOD9483466
Probable space group: C M M M
;
_chemical_formula_sum "Si O2"
_cell_formula_units_Z 104
_cell_length_a 8.798089
_cell_length_b 28.059053
_cell_length_c 27.340843
_cell_angle_alpha 90.000000
_cell_angle_beta 90.000000
_cell_angle_gamma 90.000000
_cell_volume 6749.525793
_symmetry_space_group_name_H-M "C M M M"
_symmetry_group_IT_number 65
_symmetry_cell_setting 'orthorhombic'
loop_
_space_group_symop_operation_xyz
x,y,z
-x,-y,z
x,-y,-z
-x,y,-z
-x,-y,-z
x,y,-z
-x,y,z
x,-y,z
1/2+x,1/2+y,z
1/2-x,1/2-y,z
1/2+x,1/2-y,-z
1/2-x,1/2+y,-z
1/2-x,1/2-y,-z
1/2+x,1/2+y,-z
1/2-x,1/2+y,z
1/2+x,1/2-y,z
loop_
_atom_site_type_symbol
_atom_site_label
_atom_site_fract_x
_atom_site_fract_y
_atom_site_fract_z
Si Si1 0.683040 0.196374 0.107571
Si Si2 0.682343 0.802933 0.000000
Si Si3 0.817441 0.443871 0.444273
Si Si4 0.817407 0.856121 0.200204
Si Si5 0.182197 0.554920 0.745936
Si Si6 0.182094 0.897708 0.650448
Si Si7 0.181962 0.198699 0.701378
O O1 0.500000 0.198968 0.111244
O O2 0.750000 0.250000 0.112160
O O3 0.725274 0.176853 0.053201
O O4 0.748799 0.163793 0.150320
O O5 0.750000 0.750000 0.000000
O O6 0.500000 0.799872 0.000000
O O7 0.775112 0.430896 0.500000
O O8 0.782041 0.500000 0.437523
O O9 0.736959 0.413793 0.402505
O O10 0.000000 0.439006 0.439878
O O11 0.754917 0.907547 0.216453
O O12 0.773768 0.820356 0.244668
O O13 0.000000 0.857569 0.197738
O O14 0.221014 0.500000 0.756381
O O15 0.243356 0.569426 0.692317
O O16 0.000000 0.559843 0.746490
O O17 0.226098 0.843466 0.664159
O O18 0.000000 0.901512 0.654610
O O19 0.250000 0.250000 0.690939
O O20 0.000000 0.202335 0.700718
#
# Coordination Sequence:
#
# PCOD9483466 Si02
#       7
#    16   8  16  16  16  16  16
#     4  10  18  29  45  66  94 126 159 194 232 274
#     4   8  16  28  42  62  89 122 157 192 230 273
#     4   9  18  32  49  70  95 121 151 187 226 271
#     4  10  20  32  46  68  95 122 154 191 233 277
#     4  10  20  33  49  69  93 122 155 188 225 273
#     4  10  20  32  47  70  97 122 151 187 227 272
#     4   9  19  32  45  64  90 119 151 186 222 263
#
# _framework density 15.408488999999999
#
# number of rings (size 3 to 8) (size 9 to 14) (size 15 to 20)
#    0.000    2.462    0.000    4.154    0.000    9.231 
#    0.000    0.769    0.000    0.462    0.000    0.538 
#    0.000    4.308    0.000    0.000    0.000    0.000 
#
# Total GULP energy -289890.680551 kJ/mol
# GULP energy per Si atom -5574.820780 kJ/mol
# Density = 1.537342 g / cm^3
# Si number density = 15.408489 Si / 1000 Ang^3
#
#
#
# Elastic Constant Matrix: (Units=GPa)
#
#
# Indices 1 2 3 4 5 6 
#
# 1 43.3483 39.6751 46.0452 0.0000 0.0000 0.0000
# 2 39.6751 100.8332 71.7060 0.0000 0.0000 0.0000
# 3 46.0452 71.7060 145.8819 0.0000 0.0000 0.0000
# 4 0.0000 0.0000 0.0000 21.4207 0.0000 0.0000
# 5 0.0000 0.0000 0.0000 0.0000 24.3577 0.0000
# 6 0.0000 0.0000 0.0000 0.0000 0.0000 25.9092
#
#
#
# Elastic Compliance Matrix: (Units=1/GPa)
#
#
# Indices 1 2 3 4 5 6 
#
# 1 0.041006 -0.010655 -0.007706 0.000000 0.000000 0.000000
# 2 -0.010655 0.018015 -0.005492 0.000000 0.000000 0.000000
# 3 -0.007706 -0.005492 0.011987 0.000000 0.000000 0.000000
# 4 0.000000 0.000000 0.000000 0.046684 0.000000 0.000000
# 5 0.000000 0.000000 0.000000 0.000000 0.041055 0.000000
# 6 0.000000 0.000000 0.000000 0.000000 0.000000 0.038596
#
#
# Mechanical properties :
#
#
# Convention : Reuss Voigt Hill
#
# Bulk Modulus (GPa) = 42.91363 67.21288 55.06326
# Shear Modulus (GPa) = 19.77721 23.17998 21.47859
#
# Velocity S-wave (km/s) = 3.58652 3.88282 3.73761
# Velocity P-wave (km/s) = 6.71282 7.98856 7.37831
#
# Compressibility (1/GPa) = 0.02330262
#
# Stress axis : x y z
#
# Youngs Moduli (GPa) = 24.38662 55.50777 83.42675
#
# Poissons Ratio (x) = 0.59144 0.64285
# Poissons Ratio (y) = 0.25984 0.45819
# Poissons Ratio (z) = 0.18791 0.30486
#
# Static dielectric constant tensor:
#      x y z
#    x 1.516190 0.000000 0.000000 
#    y 0.000000 1.490930 0.000000 
#    z 0.000000 0.000000 1.518080 
# 
# From -- ./inp_files/73564.got.cif
#   From: 2010.05.17/outbox.cif.g08.bks.cpg/sg65_37_cif.got.tgz:73564.got - 2010.06.03 17:01:31.
