data_PCOD9483530
_publ_section_title
;
Structure prediction by ZEFSAII (Michael W. Deem and Ramdas Pophale) SiO2 
 PCOD9483530
Probable space group: C M M M
;
_chemical_formula_sum "Si O2"
_cell_formula_units_Z 112
_cell_length_a 18.658818
_cell_length_b 14.216246
_cell_length_c 19.701872
_cell_angle_alpha 90.000000
_cell_angle_beta 90.000000
_cell_angle_gamma 90.000000
_cell_volume 5226.085995
_symmetry_space_group_name_H-M "C M M M"
_symmetry_group_IT_number 65
_symmetry_cell_setting 'orthorhombic'
loop_
_space_group_symop_operation_xyz
x,y,z
-x,-y,z
x,-y,-z
-x,y,-z
-x,-y,-z
x,y,-z
-x,y,z
x,-y,z
1/2+x,1/2+y,z
1/2-x,1/2-y,z
1/2+x,1/2-y,-z
1/2-x,1/2+y,-z
1/2-x,1/2-y,-z
1/2+x,1/2+y,-z
1/2-x,1/2+y,z
1/2+x,1/2-y,z
loop_
_atom_site_type_symbol
_atom_site_label
_atom_site_fract_x
_atom_site_fract_y
_atom_site_fract_z
Si Si1 0.794488 0.651883 0.572388
Si Si2 0.695417 0.884523 0.922595
Si Si3 0.583033 0.885538 0.806397
Si Si4 0.415270 0.387725 0.715449
Si Si5 0.085449 0.209964 0.575267
Si Si6 0.711357 0.148252 0.281672
Si Si7 0.682489 0.396411 0.167792
O O1 0.781758 0.605140 0.500000
O O2 0.750000 0.750000 0.571212
O O3 0.875886 0.689670 0.576080
O O4 0.779213 0.605828 0.643997
O O5 0.630482 0.856854 0.872277
O O6 0.773467 0.852199 0.894158
O O7 0.698102 0.000000 0.920719
O O8 0.683652 0.856148 0.000000
O O9 0.500000 0.855028 0.807719
O O10 0.628871 0.851155 0.741516
O O11 0.582928 0.000000 0.804429
O O12 0.500000 0.373316 0.719580
O O13 0.401310 0.500000 0.712782
O O14 0.390509 0.344435 0.643374
O O15 0.378838 0.351885 0.785157
O O16 0.103303 0.167619 0.500000
O O17 0.000000 0.216530 0.578090
O O18 0.750000 0.250000 0.282039
O O19 0.753628 0.095588 0.222959
O O20 0.656820 0.500000 0.146565
#
# Coordination Sequence:
#
# PCOD9483530 Si02
#       7
#    16  16  16  16  16  16  16
#     4   9  17  28  42  60  83 112 148 192 235 270
#     4   8  14  26  47  73  95 117 149 188 230 277
#     4   9  18  32  50  73 101 130 157 192 241 289
#     4   9  16  25  39  59  82 112 150 188 226 270
#     4   9  17  28  40  56  81 111 143 182 229 273
#     4  10  18  29  47  69  92 121 159 197 232 280
#     4   9  17  30  46  64  91 123 151 185 232 284
#
# _framework density 21.430952000000001
#
# number of rings (size 3 to 8) (size 9 to 14) (size 15 to 20)
#    0.000    3.000    0.000    3.000    0.000    1.143 
#    0.000    3.571    0.000    9.857    0.000    4.000 
#    0.000    0.000    0.000    0.000    0.000    0.000 
#
# Total GULP energy -311957.646717 kJ/mol
# GULP energy per Si atom -5570.672263 kJ/mol
# Density = 2.138217 g / cm^3
# Si number density = 21.430952 Si / 1000 Ang^3
#
#
#
# Elastic Constant Matrix: (Units=GPa)
#
#
# Indices 1 2 3 4 5 6 
#
# 1 112.8863 3.6779 39.0718 0.0000 0.0000 0.0000
# 2 3.6779 54.3544 5.9486 0.0000 0.0000 0.0000
# 3 39.0718 5.9486 139.0916 0.0000 0.0000 0.0000
# 4 0.0000 0.0000 0.0000 23.0895 0.0000 0.0000
# 5 0.0000 0.0000 0.0000 0.0000 28.7078 0.0000
# 6 0.0000 0.0000 0.0000 0.0000 0.0000 15.2345
#
#
#
# Elastic Compliance Matrix: (Units=1/GPa)
#
#
# Indices 1 2 3 4 5 6 
#
# 1 0.009820 -0.000364 -0.002743 0.000000 0.000000 0.000000
# 2 -0.000364 0.018498 -0.000689 0.000000 0.000000 0.000000
# 3 -0.002743 -0.000689 0.007989 0.000000 0.000000 0.000000
# 4 0.000000 0.000000 0.000000 0.043310 0.000000 0.000000
# 5 0.000000 0.000000 0.000000 0.000000 0.034834 0.000000
# 6 0.000000 0.000000 0.000000 0.000000 0.000000 0.065640
#
#
# Mechanical properties :
#
#
# Convention : Reuss Voigt Hill
#
# Bulk Modulus (GPa) = 34.82482 44.85877 39.84180
# Shear Modulus (GPa) = 25.34801 30.58197 27.96499
#
# Velocity S-wave (km/s) = 3.44288 3.78166 3.61624
# Velocity P-wave (km/s) = 5.66477 6.32813 6.00561
#
# Compressibility (1/GPa) = 0.02871515
#
# Stress axis : x y z
#
# Youngs Moduli (GPa) = 101.83631 54.06047 125.16511
#
# Poissons Ratio (x) = 0.01969 0.34331
# Poissons Ratio (y) = 0.03710 0.08621
# Poissons Ratio (z) = 0.27932 0.03724
#
# Static dielectric constant tensor:
#      x y z
#    x 1.820960 0.000000 0.000000 
#    y 0.000000 1.829060 0.000000 
#    z 0.000000 0.000000 1.802130 
# 
# From -- ./inp_files/63938.got.cif
#   From: 2010.05.17/outbox.cif.g08.bks.cpg/sg65_32_cif.got.tgz:63938.got - 2010.06.03 17:01:31.
