data_PCOD9483239
_publ_section_title
;
Structure prediction by ZEFSAII (Michael W. Deem and Ramdas Pophale) SiO2 
 PCOD9483239
Probable space group: C M M M
;
_chemical_formula_sum "Si O2"
_cell_formula_units_Z 80
_cell_length_a 24.954170
_cell_length_b 24.648488
_cell_length_c 7.718361
_cell_angle_alpha 90.000000
_cell_angle_beta 90.000000
_cell_angle_gamma 90.000000
_cell_volume 4747.429241
_symmetry_space_group_name_H-M "C M M M"
_symmetry_group_IT_number 65
_symmetry_cell_setting 'orthorhombic'
loop_
_space_group_symop_operation_xyz
x,y,z
-x,-y,z
x,-y,-z
-x,y,-z
-x,-y,-z
x,y,-z
-x,y,z
x,-y,z
1/2+x,1/2+y,z
1/2-x,1/2-y,z
1/2+x,1/2-y,-z
1/2-x,1/2+y,-z
1/2-x,1/2-y,-z
1/2+x,1/2+y,-z
1/2-x,1/2+y,z
1/2+x,1/2-y,z
loop_
_atom_site_type_symbol
_atom_site_label
_atom_site_fract_x
_atom_site_fract_y
_atom_site_fract_z
Si Si1 0.059211 0.104350 0.793584
Si Si2 0.726576 0.330734 0.799081
Si Si3 0.671912 0.440068 0.787871
Si Si4 0.559901 0.731134 0.710056
Si Si5 0.668138 0.222539 0.698787
O O1 0.111166 0.072722 0.728708
O O2 0.067931 0.168595 0.764662
O O3 0.000000 0.090563 0.722719
O O4 0.057314 0.095081 0.000000
O O5 0.709008 0.389680 0.734549
O O6 0.695524 0.282224 0.704198
O O7 0.789437 0.317259 0.787056
O O8 0.710201 0.326212 0.000000
O O9 0.688545 0.500000 0.731186
O O10 0.671829 0.440151 0.000000
O O11 0.561535 0.731784 0.500000
O O12 0.500000 0.747229 0.765608
O O13 0.608856 0.768113 0.773093
O O14 0.663700 0.205068 0.500000
#
# Coordination Sequence:
#
# PCOD9483239 Si02
#       5
#    16  16  16  16  16
#     4   9  16  26  41  59  79 106 142 179 208 235
#     4  10  18  28  43  61  82 108 139 171 206 246
#     4   9  17  28  41  59  83 109 140 177 211 242
#     4   9  17  28  42  60  83 110 136 165 205 249
#     4  10  18  28  44  62  83 107 134 170 207 249
#
# _framework density 16.851226
#
# number of rings (size 3 to 8) (size 9 to 14) (size 15 to 20)
#    0.000    2.600    2.000    2.400    0.000    1.200 
#    0.000    2.000    0.000    5.400    0.000    2.800 
#    0.000    0.800    0.000   10.000    0.000    0.000 
#
# Total GULP energy -222943.518799 kJ/mol
# GULP energy per Si atom -5573.587970 kJ/mol
# Density = 1.681287 g / cm^3
# Si number density = 16.851226 Si / 1000 Ang^3
#
#
#
# Elastic Constant Matrix: (Units=GPa)
#
#
# Indices 1 2 3 4 5 6 
#
# 1 99.6642 57.3499 -4.3234 0.0000 0.0000 0.0000
# 2 57.3499 94.1548 -0.4137 0.0000 0.0000 0.0000
# 3 -4.3234 -0.4137 29.0000 0.0000 0.0000 0.0000
# 4 0.0000 0.0000 0.0000 32.7442 0.0000 0.0000
# 5 0.0000 0.0000 0.0000 0.0000 9.0767 0.0000
# 6 0.0000 0.0000 0.0000 0.0000 0.0000 21.3986
#
#
#
# Elastic Compliance Matrix: (Units=1/GPa)
#
#
# Indices 1 2 3 4 5 6 
#
# 1 0.015586 -0.009484 0.002188 0.000000 0.000000 0.000000
# 2 -0.009484 0.016392 -0.001180 0.000000 0.000000 0.000000
# 3 0.002188 -0.001180 0.034792 0.000000 0.000000 0.000000
# 4 0.000000 0.000000 0.000000 0.030540 0.000000 0.000000
# 5 0.000000 0.000000 0.000000 0.000000 0.110173 0.000000
# 6 0.000000 0.000000 0.000000 0.000000 0.000000 0.046732
#
#
# Mechanical properties :
#
#
# Convention : Reuss Voigt Hill
#
# Bulk Modulus (GPa) = 20.07257 36.44941 28.26099
# Shear Modulus (GPa) = 17.37486 23.99098 20.68292
#
# Velocity S-wave (km/s) = 3.21452 3.77728 3.50720
# Velocity P-wave (km/s) = 5.07100 6.37972 5.76263
#
# Compressibility (1/GPa) = 0.04981923
#
# Stress axis : x y z
#
# Youngs Moduli (GPa) = 64.16058 61.00453 28.74211
#
# Poissons Ratio (x) = 0.57855 -0.06290
# Poissons Ratio (y) = 0.60849 0.03392
# Poissons Ratio (z) = -0.14040 0.07199
#
# Static dielectric constant tensor:
#      x y z
#    x 1.615010 0.000000 0.000000 
#    y 0.000000 1.541720 0.000000 
#    z 0.000000 0.000000 1.623000 
# 
# From -- ./inp_files/18434.got.cif
#   From: 2010.05.17/outbox.cif.g08.bks.cpg/sg65_10_cif.got.tgz:18434.got - 2010.06.03 17:01:31.
