data_PCOD9483833
_publ_section_title
;
Structure prediction by ZEFSAII (Michael W. Deem and Ramdas Pophale) SiO2 
 PCOD9483833
Probable space group: C M M M
;
_chemical_formula_sum "Si O2"
_cell_formula_units_Z 88
_cell_length_a 19.477514
_cell_length_b 8.563144
_cell_length_c 29.282019
_cell_angle_alpha 90.000000
_cell_angle_beta 90.000000
_cell_angle_gamma 90.000000
_cell_volume 4883.911556
_symmetry_space_group_name_H-M "C M M M"
_symmetry_group_IT_number 65
_symmetry_cell_setting 'orthorhombic'
loop_
_space_group_symop_operation_xyz
x,y,z
-x,-y,z
x,-y,-z
-x,y,-z
-x,-y,-z
x,y,-z
-x,y,z
x,-y,z
1/2+x,1/2+y,z
1/2-x,1/2-y,z
1/2+x,1/2-y,-z
1/2-x,1/2+y,-z
1/2-x,1/2-y,-z
1/2+x,1/2+y,-z
1/2-x,1/2+y,z
1/2+x,1/2-y,z
loop_
_atom_site_type_symbol
_atom_site_label
_atom_site_fract_x
_atom_site_fract_y
_atom_site_fract_z
Si Si1 0.173876 0.186606 0.368877
Si Si2 0.826561 0.811229 0.265397
Si Si3 0.827910 0.187682 0.096033
Si Si4 0.671882 0.813637 0.000000
Si Si5 0.919989 0.688159 0.550819
Si Si6 0.578912 0.309454 0.181909
O O1 0.250000 0.250000 0.377811
O O2 0.154876 0.237369 0.317157
O O3 0.123388 0.245169 0.407842
O O4 0.175361 0.000000 0.369308
O O5 0.750000 0.750000 0.255299
O O6 0.880909 0.758748 0.227495
O O7 0.824244 0.000000 0.264329
O O8 0.750000 0.250000 0.102244
O O9 0.876301 0.236458 0.137885
O O10 0.824598 0.000000 0.094203
O O11 0.856776 0.250150 0.047752
O O12 0.750000 0.750000 0.000000
O O13 0.672149 0.000000 0.000000
O O14 0.896333 0.738410 0.500000
O O15 0.916235 0.500000 0.552060
O O16 0.000000 0.731859 0.555226
O O17 0.500000 0.256505 0.180256
O O18 0.577812 0.500000 0.182276
#
# Coordination Sequence:
#
# PCOD9483833 Si02
#       6
#    16  16  16   8  16  16
#     4  10  20  33  52  78 105 134 168 209 254 300
#     4   9  18  33  53  75 100 130 164 203 246 293
#     4  10  18  30  51  75  98 126 162 202 241 285
#     4  10  18  30  49  72  99 127 159 201 243 286
#     4   9  19  36  55  74 100 135 171 208 253 303
#     4   9  18  32  50  73 100 130 164 201 241 287
#
# _framework density 18.018345
#
# number of rings (size 3 to 8) (size 9 to 14) (size 15 to 20)
#    0.000    2.545    0.000    4.091    0.000    2.545 
#    0.000    4.091    0.000    7.636    0.000    0.000 
#    0.000    0.000    0.000    0.000    0.000    0.000 
#
# Total GULP energy -245384.345119 kJ/mol
# GULP energy per Si atom -5576.916935 kJ/mol
# Density = 1.797733 g / cm^3
# Si number density = 18.018345 Si / 1000 Ang^3
#
#
#
# Elastic Constant Matrix: (Units=GPa)
#
#
# Indices 1 2 3 4 5 6 
#
# 1 110.0370 26.8468 118.1002 0.0000 0.0000 0.0000
# 2 26.8468 37.0189 38.7253 0.0000 0.0000 0.0000
# 3 118.1002 38.7253 193.6855 0.0000 0.0000 0.0000
# 4 0.0000 0.0000 0.0000 21.0965 0.0000 0.0000
# 5 0.0000 0.0000 0.0000 0.0000 -17.7321 0.0000
# 6 0.0000 0.0000 0.0000 0.0000 0.0000 21.9624
#
#
#
# Elastic Compliance Matrix: (Units=1/GPa)
#
#
# Indices 1 2 3 4 5 6 
#
# 1 0.026548 -0.002933 -0.015601 0.000000 0.000000 0.000000
# 2 -0.002933 0.034481 -0.005106 0.000000 0.000000 0.000000
# 3 -0.015601 -0.005106 0.015697 0.000000 0.000000 0.000000
# 4 0.000000 0.000000 0.000000 0.047401 0.000000 0.000000
# 5 0.000000 0.000000 0.000000 0.000000 -0.056395 0.000000
# 6 0.000000 0.000000 0.000000 0.000000 0.000000 0.045532
#
#
# Mechanical properties :
#
#
# Convention : Reuss Voigt Hill
#
# Bulk Modulus (GPa) = 33.96015 78.67622 56.31819
# Shear Modulus (GPa) = 29.34958 15.53661 22.44310
#
# Velocity S-wave (km/s) = 4.04031 2.93962 3.53309
# Velocity P-wave (km/s) = 6.37604 7.43513 6.92586
#
# Compressibility (1/GPa) = 0.02944628
#
# Stress axis : x y z
#
# Youngs Moduli (GPa) = 37.66783 29.00114 63.70715
#
# Poissons Ratio (x) = 0.08505 0.99391
# Poissons Ratio (y) = 0.11046 0.32529
# Poissons Ratio (z) = 0.58767 0.14808
#
# Static dielectric constant tensor:
#      x y z
#    x 1.577380 0.000000 0.000000 
#    y 0.000000 1.640200 0.000000 
#    z 0.000000 0.000000 1.641010 
# 
# From -- ./inp_files/77839.got.cif
#   From: 2010.05.17/outbox.cif.g08.bks.cpg/sg65_39_cif.got.tgz:77839.got - 2010.06.03 17:01:31.
