data_PCOD9483040
_publ_section_title
;
Structure prediction by ZEFSAII (Michael W. Deem and Ramdas Pophale) SiO2 
 PCOD9483040
Probable space group: C M M M
;
_chemical_formula_sum "Si O2"
_cell_formula_units_Z 96
_cell_length_a 24.216525
_cell_length_b 7.599506
_cell_length_c 24.301002
_cell_angle_alpha 90.000000
_cell_angle_beta 90.000000
_cell_angle_gamma 90.000000
_cell_volume 4472.201539
_symmetry_space_group_name_H-M "C M M M"
_symmetry_group_IT_number 65
_symmetry_cell_setting 'orthorhombic'
loop_
_space_group_symop_operation_xyz
x,y,z
-x,-y,z
x,-y,-z
-x,y,-z
-x,-y,-z
x,y,-z
-x,y,z
x,-y,z
1/2+x,1/2+y,z
1/2-x,1/2-y,z
1/2+x,1/2-y,-z
1/2-x,1/2+y,-z
1/2-x,1/2-y,-z
1/2+x,1/2+y,-z
1/2-x,1/2+y,z
1/2+x,1/2-y,z
loop_
_atom_site_type_symbol
_atom_site_label
_atom_site_fract_x
_atom_site_fract_y
_atom_site_fract_z
Si Si1 0.500000 0.212952 0.724619
Si Si2 0.378450 0.793856 0.439756
Si Si3 0.000000 0.788877 0.063686
Si Si4 0.500000 0.704194 0.595612
Si Si5 0.185556 0.288739 0.333450
Si Si6 0.314703 0.211868 0.000000
Si Si7 0.382340 0.215694 0.771873
Si Si8 0.879355 0.707521 0.106242
O O1 0.500000 0.274288 0.661578
O O2 0.444422 0.268805 0.755362
O O3 0.500000 0.000000 0.722708
O O4 0.366442 0.716504 0.500000
O O5 0.443659 0.783173 0.427783
O O6 0.346051 0.718071 0.387372
O O7 0.363654 0.000000 0.442193
O O8 0.055838 0.727182 0.092831
O O9 0.000000 0.000000 0.063658
O O10 0.000000 0.727993 0.000000
O O11 0.500000 0.500000 0.581148
O O12 0.177886 0.500000 0.333160
O O13 0.250000 0.250000 0.335869
O O14 0.157941 0.224752 0.276863
O O15 0.250000 0.250000 0.000000
O O16 0.344724 0.281442 0.945018
O O17 0.322097 0.000000 0.000000
O O18 0.367658 0.279168 0.832926
O O19 0.381839 0.000000 0.772976
O O20 0.866787 0.500000 0.108537
#
# Coordination Sequence:
#
# PCOD9483040 Si02
#       8
#     8  16   8   8  16   8  16  16
#     4  10  17  34  60  82 108 148 185 221 270 335
#     4  10  21  39  62  83 107 147 192 225 266 334
#     4  11  22  35  55  85 119 150 177 223 288 338
#     4  12  23  34  55  88 121 146 174 226 285 330
#     4  10  21  38  58  82 111 146 188 232 274 323
#     4  10  22  37  56  81 111 146 190 234 275 324
#     4   9  18  34  60  85 108 142 187 230 271 324
#     4  10  20  37  60  85 109 146 192 230 270 329
#
# _framework density 21.465937
#
# number of rings (size 3 to 8) (size 9 to 14) (size 15 to 20)
#    0.000    1.917    2.500    1.750    0.000    5.333 
#    0.000    2.500    0.000    0.000    0.000    0.000 
#    0.000    0.000    0.000    0.000    0.000    0.000 
#
# Total GULP energy -268232.312131 kJ/mol
# GULP energy per Si atom -5588.173169 kJ/mol
# Density = 2.141708 g / cm^3
# Si number density = 21.465937 Si / 1000 Ang^3
#
#
#
# Elastic Constant Matrix: (Units=GPa)
#
#
# Indices 1 2 3 4 5 6 
#
# 1 146.9671 -14.9477 102.4220 0.0000 0.0000 0.0000
# 2 -14.9477 46.4633 7.5973 0.0000 0.0000 0.0000
# 3 102.4220 7.5973 250.4139 0.0000 0.0000 0.0000
# 4 0.0000 0.0000 0.0000 -5.1694 0.0000 0.0000
# 5 0.0000 0.0000 0.0000 0.0000-1029.8587 0.0000
# 6 0.0000 0.0000 0.0000 0.0000 0.0000 21.3247
#
#
#
# Elastic Compliance Matrix: (Units=1/GPa)
#
#
# Indices 1 2 3 4 5 6 
#
# 1 0.010202 0.003984 -0.004293 0.000000 0.000000 0.000000
# 2 0.003984 0.023185 -0.002333 0.000000 0.000000 0.000000
# 3 -0.004293 -0.002333 0.005820 0.000000 0.000000 0.000000
# 4 0.000000 0.000000 0.000000 -0.193446 0.000000 0.000000
# 5 0.000000 0.000000 0.000000 0.000000 -0.000971 0.000000
# 6 0.000000 0.000000 0.000000 0.000000 0.000000 0.046894
#
#
# Mechanical properties :
#
#
# Convention : Reuss Voigt Hill
#
# Bulk Modulus (GPa) = 29.47895 70.44305 49.96100
# Shear Modulus (GPa) = -54.51167 -179.48916 -117.00042
#
# Velocity S-wave (km/s) = -5.04476 -9.15409 -7.39077
# Velocity P-wave (km/s) = 4.49112 8.87932 7.03607
#
# Compressibility (1/GPa) = 0.03392252
#
# Stress axis : x y z
#
# Youngs Moduli (GPa) = 98.02449 43.13044 171.81495
#
# Poissons Ratio (x) = -0.17183 0.73767
# Poissons Ratio (y) = -0.39052 0.40083
# Poissons Ratio (z) = 0.42086 0.10062
#
# Static dielectric constant tensor:
#      x y z
#    x 1.714400 0.000000 0.000000 
#    y 0.000000 1.788810 0.000000 
#    z 0.000000 0.000000 1.797480 
# 
# From -- ./inp_files/71493.got.cif
#   From: 2010.05.17/outbox.cif.g08.bks.cpg/sg65_36_cif.got.tgz:71493.got - 2010.06.03 17:01:31.
