data_PCOD9483522
_publ_section_title
;
Structure prediction by ZEFSAII (Michael W. Deem and Ramdas Pophale) SiO2 
 PCOD9483522
Probable space group: C M M M
;
_chemical_formula_sum "Si O2"
_cell_formula_units_Z 88
_cell_length_a 8.440436
_cell_length_b 18.542161
_cell_length_c 30.434236
_cell_angle_alpha 90.000000
_cell_angle_beta 90.000000
_cell_angle_gamma 90.000000
_cell_volume 4763.077334
_symmetry_space_group_name_H-M "C M M M"
_symmetry_group_IT_number 65
_symmetry_cell_setting 'orthorhombic'
loop_
_space_group_symop_operation_xyz
x,y,z
-x,-y,z
x,-y,-z
-x,y,-z
-x,-y,-z
x,y,-z
-x,y,z
x,-y,z
1/2+x,1/2+y,z
1/2-x,1/2-y,z
1/2+x,1/2-y,-z
1/2-x,1/2+y,-z
1/2-x,1/2-y,-z
1/2+x,1/2+y,-z
1/2-x,1/2+y,z
1/2+x,1/2-y,z
loop_
_atom_site_type_symbol
_atom_site_label
_atom_site_fract_x
_atom_site_fract_y
_atom_site_fract_z
Si Si1 0.311696 0.332736 0.000000
Si Si2 0.308412 0.333002 0.547285
Si Si3 0.806450 0.582685 0.820880
Si Si4 0.690087 0.667034 0.357779
Si Si5 0.310418 0.832139 0.265530
Si Si6 0.689970 0.167844 0.092397
O O1 0.250000 0.250000 0.000000
O O2 0.249891 0.363834 0.953999
O O3 0.000000 0.832178 0.000000
O O4 0.256610 0.364811 0.500000
O O5 0.500000 0.332671 0.547408
O O6 0.250000 0.250000 0.547216
O O7 0.259077 0.364629 0.594698
O O8 0.755028 0.500000 0.820930
O O9 0.754469 0.623523 0.776789
O O10 0.756050 0.623541 0.865078
O O11 0.000000 0.583488 0.820743
O O12 0.500000 0.667077 0.355714
O O13 0.750000 0.750000 0.358119
O O14 0.754848 0.635794 0.312290
O O15 0.500000 0.830455 0.265631
O O16 0.250000 0.750000 0.262176
O O17 0.500000 0.169100 0.091268
O O18 0.750000 0.250000 0.096247
#
# Coordination Sequence:
#
# PCOD9483522 Si02
#       6
#     8  16  16  16  16  16
#     4  10  18  30  49  74 103 127 153 187 221 262
#     4   8  13  20  30  46  71 105 140 172 210 256
#     4   9  19  34  50  69  92 120 155 191 225 265
#     4   9  15  23  36  55  81 110 143 181 218 262
#     4  10  18  29  47  67  89 116 148 187 226 267
#     4  10  18  31  53  76  98 123 154 190 224 262
#
# _framework density 18.475449999999999
#
# number of rings (size 3 to 8) (size 9 to 14) (size 15 to 20)
#    0.000    2.727    0.000    5.182    0.000    0.727 
#    0.000    3.182    0.000   11.455    0.000    0.000 
#    0.000    0.727    0.000    9.091    0.000    4.182 
#
# Total GULP energy -244997.470317 kJ/mol
# GULP energy per Si atom -5568.124325 kJ/mol
# Density = 1.843340 g / cm^3
# Si number density = 18.475450 Si / 1000 Ang^3
#
#
#
# Elastic Constant Matrix: (Units=GPa)
#
#
# Indices 1 2 3 4 5 6 
#
# 1 47.7269 9.2328 36.8629 0.0000 0.0000 0.0000
# 2 9.2328 43.1428 62.0621 0.0000 0.0000 0.0000
# 3 36.8629 62.0621 256.7488 0.0000 0.0000 0.0000
# 4 0.0000 0.0000 0.0000 -3.4356 0.0000 0.0000
# 5 0.0000 0.0000 0.0000 0.0000 89.6147 0.0000
# 6 0.0000 0.0000 0.0000 0.0000 0.0000 8.4468
#
#
#
# Elastic Compliance Matrix: (Units=1/GPa)
#
#
# Indices 1 2 3 4 5 6 
#
# 1 0.023568 -0.000270 -0.003319 0.000000 0.000000 0.000000
# 2 -0.000270 0.035538 -0.008552 0.000000 0.000000 0.000000
# 3 -0.003319 -0.008552 0.006438 0.000000 0.000000 0.000000
# 4 0.000000 0.000000 0.000000 -0.291071 0.000000 0.000000
# 5 0.000000 0.000000 0.000000 0.000000 0.011159 0.000000
# 6 0.000000 0.000000 0.000000 0.000000 0.000000 0.118389
#
#
# Mechanical properties :
#
#
# Convention : Reuss Voigt Hill
#
# Bulk Modulus (GPa) = 24.23383 62.65935 43.44659
# Shear Modulus (GPa) = -86.29011 34.88923 -25.70044
#
# Velocity S-wave (km/s) = -6.84154 4.35030 -3.73374
# Velocity P-wave (km/s) = 7.01881 7.69558 2.23141
#
# Compressibility (1/GPa) = 0.04126464
#
# Stress axis : x y z
#
# Youngs Moduli (GPa) = 42.43064 28.13851 155.31629
#
# Poissons Ratio (x) = 0.00759 0.51543
# Poissons Ratio (y) = 0.01145 1.32822
# Poissons Ratio (z) = 0.14081 0.24063
#
# Static dielectric constant tensor:
#      x y z
#    x 1.647960 0.000000 0.000000 
#    y 0.000000 1.587700 0.000000 
#    z 0.000000 0.000000 1.725390 
# 
# From -- ./inp_files/76759.got.cif
#   From: 2010.05.17/outbox.cif.g08.bks.cpg/sg65_39_cif.got.tgz:76759.got - 2010.06.03 17:01:31.
