data_PCOD9483946
_publ_section_title
;
Structure prediction by ZEFSAII (Michael W. Deem and Ramdas Pophale) SiO2 
 PCOD9483946
Probable space group: C M M M
;
_chemical_formula_sum "Si O2"
_cell_formula_units_Z 104
_cell_length_a 9.170743
_cell_length_b 27.077634
_cell_length_c 25.446750
_cell_angle_alpha 90.000000
_cell_angle_beta 90.000000
_cell_angle_gamma 90.000000
_cell_volume 6318.988425
_symmetry_space_group_name_H-M "C M M M"
_symmetry_group_IT_number 65
_symmetry_cell_setting 'orthorhombic'
loop_
_space_group_symop_operation_xyz
x,y,z
-x,-y,z
x,-y,-z
-x,y,-z
-x,-y,-z
x,y,-z
-x,y,z
x,-y,z
1/2+x,1/2+y,z
1/2-x,1/2-y,z
1/2+x,1/2-y,-z
1/2-x,1/2+y,-z
1/2-x,1/2-y,-z
1/2+x,1/2+y,-z
1/2-x,1/2+y,z
1/2+x,1/2-y,z
loop_
_atom_site_type_symbol
_atom_site_label
_atom_site_fract_x
_atom_site_fract_y
_atom_site_fract_z
Si Si1 0.824772 0.301855 0.938207
Si Si2 0.822813 0.500000 0.940018
Si Si3 0.175841 0.399751 0.441294
Si Si4 0.334335 0.058712 0.668990
Si Si5 0.673522 0.441012 0.773950
Si Si6 0.176477 0.598400 0.876205
Si Si7 0.164070 0.796740 0.437079
O O1 0.750000 0.250000 0.922790
O O2 0.782451 0.350021 0.904250
O O3 0.000000 0.296526 0.934183
O O4 0.790293 0.310792 0.000000
O O5 0.779429 0.449586 0.910760
O O6 0.000000 0.500000 0.940678
O O7 0.771657 0.500000 0.000000
O O8 0.222899 0.416742 0.500000
O O9 0.219095 0.430216 0.389933
O O10 0.241542 0.345804 0.431933
O O11 0.000000 0.398223 0.442389
O O12 0.500000 0.078585 0.674735
O O13 0.233582 0.075184 0.716973
O O14 0.342892 0.000000 0.673434
O O15 0.500000 0.435535 0.776529
O O16 0.706727 0.500000 0.780984
O O17 0.751928 0.410570 0.819722
O O18 0.000000 0.597708 0.871760
O O19 0.150794 0.788923 0.500000
O O20 0.250000 0.750000 0.414742
O O21 0.000000 0.801859 0.416207
#
# Coordination Sequence:
#
# PCOD9483946 Si02
#       7
#    16   8  16  16  16  16  16
#     4   9  18  32  50  74 103 136 174 210 245 291
#     4   9  16  26  45  75 105 129 156 197 246 291
#     4   9  17  29  46  70  98 124 153 194 243 293
#     4   9  18  32  50  70  94 127 165 200 236 285
#     4  10  20  33  49  70  97 127 162 203 247 296
#     4  10  18  30  51  75  99 130 168 208 247 293
#     4   9  16  26  42  64  90 120 152 185 224 276
#
# _framework density 16.45833
#
# number of rings (size 3 to 8) (size 9 to 14) (size 15 to 20)
#    0.000    2.692    0.769    1.385    0.000    5.846 
#    0.000    1.538    0.000    2.769    0.000    8.615 
#    0.000    0.000    0.000    0.000    0.000    0.000 
#
# Total GULP energy -289487.156161 kJ/mol
# GULP energy per Si atom -5567.060695 kJ/mol
# Density = 1.642087 g / cm^3
# Si number density = 16.458330 Si / 1000 Ang^3
#
#
#
# Elastic Constant Matrix: (Units=GPa)
#
#
# Indices 1 2 3 4 5 6 
#
# 1 16.6855 29.9519 41.6948 0.0000 0.0000 0.0000
# 2 29.9519 81.0879 60.9214 0.0000 0.0000 0.0000
# 3 41.6948 60.9214 129.7207 0.0000 0.0000 0.0000
# 4 0.0000 0.0000 0.0000 13.1311 0.0000 0.0000
# 5 0.0000 0.0000 0.0000 0.0000 12.2188 0.0000
# 6 0.0000 0.0000 0.0000 0.0000 0.0000 15.9922
#
#
#
# Elastic Compliance Matrix: (Units=1/GPa)
#
#
# Indices 1 2 3 4 5 6 
#
# 1 0.810044 -0.160081 -0.185185 0.000000 0.000000 0.000000
# 2 -0.160081 0.050691 0.027647 0.000000 0.000000 0.000000
# 3 -0.185185 0.027647 0.054247 0.000000 0.000000 0.000000
# 4 0.000000 0.000000 0.000000 0.076155 0.000000 0.000000
# 5 0.000000 0.000000 0.000000 0.000000 0.081841 0.000000
# 6 0.000000 0.000000 0.000000 0.000000 0.000000 0.062530
#
#
# Mechanical properties :
#
#
# Convention : Reuss Voigt Hill
#
# Bulk Modulus (GPa) = 3.57469 54.73669 29.15569
# Shear Modulus (GPa) = 2.68241 14.59682 8.63961
#
# Velocity S-wave (km/s) = 1.27803 2.98131 2.29364
# Velocity P-wave (km/s) = 2.08674 6.72167 4.97671
#
# Compressibility (1/GPa) = 0.27974472
#
# Stress axis : x y z
#
# Youngs Moduli (GPa) = 1.23450 19.72728 18.43422
#
# Poissons Ratio (x) = 3.15797 3.41373
# Poissons Ratio (y) = 0.19762 -0.50965
# Poissons Ratio (z) = 0.22861 -0.54540
#
# Static dielectric constant tensor:
#      x y z
#    x 1.558700 0.000000 0.000000 
#    y 0.000000 1.544110 0.000000 
#    z 0.000000 0.000000 1.557900 
# 
# From -- ./inp_files/68475.got.cif
#   From: 2010.05.17/outbox.cif.g08.bks.cpg/sg65_35_cif.got.tgz:68475.got - 2010.06.03 17:01:31.
