data_PCOD9483516
_publ_section_title
;
Structure prediction by ZEFSAII (Michael W. Deem and Ramdas Pophale) SiO2 
 PCOD9483516
Probable space group: C M M M
;
_chemical_formula_sum "Si O2"
_cell_formula_units_Z 88
_cell_length_a 19.059949
_cell_length_b 18.727280
_cell_length_c 13.952407
_cell_angle_alpha 90.000000
_cell_angle_beta 90.000000
_cell_angle_gamma 90.000000
_cell_volume 4980.186131
_symmetry_space_group_name_H-M "C M M M"
_symmetry_group_IT_number 65
_symmetry_cell_setting 'orthorhombic'
loop_
_space_group_symop_operation_xyz
x,y,z
-x,-y,z
x,-y,-z
-x,y,-z
-x,-y,-z
x,y,-z
-x,y,z
x,-y,z
1/2+x,1/2+y,z
1/2-x,1/2-y,z
1/2+x,1/2-y,-z
1/2-x,1/2+y,-z
1/2-x,1/2-y,-z
1/2+x,1/2+y,-z
1/2-x,1/2+y,z
1/2+x,1/2-y,z
loop_
_atom_site_type_symbol
_atom_site_label
_atom_site_fract_x
_atom_site_fract_y
_atom_site_fract_z
Si Si1 0.374545 0.418796 0.255030
Si Si2 0.000000 0.085248 0.603447
Si Si3 0.194025 0.686702 0.110622
Si Si4 0.170946 0.718488 0.610752
Si Si5 0.712877 0.082282 0.714731
Si Si6 0.916066 0.225146 0.792557
O O1 0.387143 0.500000 0.220358
O O2 0.430974 0.400384 0.336415
O O3 0.296991 0.416667 0.298084
O O4 0.388266 0.354507 0.182064
O O5 0.000000 0.120188 0.500000
O O6 0.000000 0.000000 0.592826
O O7 0.250000 0.750000 0.134976
O O8 0.202687 0.620570 0.182433
O O9 0.118110 0.720652 0.132045
O O10 0.203562 0.667746 0.000000
O O11 0.150163 0.729531 0.500000
O O12 0.250000 0.750000 0.622846
O O13 0.177463 0.634724 0.637936
O O14 0.120156 0.752891 0.690710
O O15 0.689602 0.000000 0.712321
O O16 0.000000 0.227461 0.788283
#
# Coordination Sequence:
#
# PCOD9483516 Si02
#       6
#    16   8  16  16  16  16
#     4  10  18  29  46  73 109 144 176 213 254 304
#     4   9  18  28  38  62 105 151 186 211 239 285
#     4  10  20  37  58  79 105 136 174 222 272 320
#     4  10  20  35  52  75 109 147 186 225 262 303
#     4  10  19  34  56  80 106 136 176 222 270 317
#     4  11  20  34  54  78 108 144 184 217 260 318
#
# _framework density 17.670023
#
# number of rings (size 3 to 8) (size 9 to 14) (size 15 to 20)
#    0.000    1.909    4.545    1.091    0.000    2.909 
#    0.000    1.818    0.000    9.273    0.000   11.455 
#    0.000    0.000    0.000    0.000    0.000    0.000 
#
# Total GULP energy -245158.819226 kJ/mol
# GULP energy per Si atom -5571.791346 kJ/mol
# Density = 1.762981 g / cm^3
# Si number density = 17.670023 Si / 1000 Ang^3
#
#
#
# Elastic Constant Matrix: (Units=GPa)
#
#
# Indices 1 2 3 4 5 6 
#
# 1 67.9073 21.0997 -6.6275 0.0000 0.0000 0.0000
# 2 21.0997 112.0557 5.9056 0.0000 0.0000 0.0000
# 3 -6.6275 5.9056 49.2002 0.0000 0.0000 0.0000
# 4 0.0000 0.0000 0.0000 12.6138 0.0000 0.0000
# 5 0.0000 0.0000 0.0000 0.0000 11.7872 0.0000
# 6 0.0000 0.0000 0.0000 0.0000 0.0000 24.0847
#
#
#
# Elastic Compliance Matrix: (Units=1/GPa)
#
#
# Indices 1 2 3 4 5 6 
#
# 1 0.015947 -0.003136 0.002524 0.000000 0.000000 0.000000
# 2 -0.003136 0.009598 -0.001574 0.000000 0.000000 0.000000
# 3 0.002524 -0.001574 0.020854 0.000000 0.000000 0.000000
# 4 0.000000 0.000000 0.000000 0.079278 0.000000 0.000000
# 5 0.000000 0.000000 0.000000 0.000000 0.084838 0.000000
# 6 0.000000 0.000000 0.000000 0.000000 0.000000 0.041520
#
#
# Mechanical properties :
#
#
# Convention : Reuss Voigt Hill
#
# Bulk Modulus (GPa) = 23.79419 29.99095 26.89257
# Shear Modulus (GPa) = 18.49011 23.61617 21.05314
#
# Velocity S-wave (km/s) = 3.23834 3.65980 3.45550
# Velocity P-wave (km/s) = 5.24190 5.90495 5.58328
#
# Compressibility (1/GPa) = 0.04202706
#
# Stress axis : x y z
#
# Youngs Moduli (GPa) = 62.70905 104.19316 47.95202
#
# Poissons Ratio (x) = 0.32672 -0.12105
# Poissons Ratio (y) = 0.19664 0.07550
# Poissons Ratio (z) = -0.15831 0.16404
#
# Static dielectric constant tensor:
#      x y z
#    x 1.604870 0.000000 0.000000 
#    y 0.000000 1.644190 0.000000 
#    z 0.000000 0.000000 1.618370 
# 
# From -- ./inp_files/43990.got.cif
#   From: 2010.05.17/outbox.cif.g08.bks.cpg/sg65_22_cif.got.tgz:43990.got - 2010.06.03 17:01:31.
