data_PCOD9483166
_publ_section_title
;
Structure prediction by ZEFSAII (Michael W. Deem and Ramdas Pophale) SiO2 
 PCOD9483166
Probable space group: C M M M
;
_chemical_formula_sum "Si O2"
_cell_formula_units_Z 88
_cell_length_a 18.705354
_cell_length_b 19.776057
_cell_length_c 14.847278
_cell_angle_alpha 90.000000
_cell_angle_beta 90.000000
_cell_angle_gamma 90.000000
_cell_volume 5492.277564
_symmetry_space_group_name_H-M "C M M M"
_symmetry_group_IT_number 65
_symmetry_cell_setting 'orthorhombic'
loop_
_space_group_symop_operation_xyz
x,y,z
-x,-y,z
x,-y,-z
-x,y,-z
-x,-y,-z
x,y,-z
-x,y,z
x,-y,z
1/2+x,1/2+y,z
1/2-x,1/2-y,z
1/2+x,1/2-y,-z
1/2-x,1/2+y,-z
1/2-x,1/2-y,-z
1/2+x,1/2+y,-z
1/2-x,1/2+y,z
1/2+x,1/2-y,z
loop_
_atom_site_type_symbol
_atom_site_label
_atom_site_fract_x
_atom_site_fract_y
_atom_site_fract_z
Si Si1 0.585514 0.000000 0.104788
Si Si2 0.792765 0.357651 0.400300
Si Si3 0.859816 0.206066 0.399918
Si Si4 0.082328 0.230835 0.210199
Si Si5 0.787652 0.823912 0.102655
Si Si6 0.657087 0.878393 0.789312
O O1 0.614874 0.065181 0.156675
O O2 0.500000 0.000000 0.106794
O O3 0.608339 0.000000 0.000000
O O4 0.804715 0.386939 0.500000
O O5 0.826955 0.282124 0.400273
O O6 0.708214 0.343531 0.387876
O O7 0.827022 0.394627 0.315234
O O8 0.890779 0.194534 0.500000
O O9 0.909527 0.204566 0.312925
O O10 0.135621 0.187183 0.148307
O O11 0.113528 0.307501 0.207264
O O12 0.000000 0.229730 0.182116
O O13 0.750000 0.750000 0.100780
O O14 0.733675 0.867264 0.162914
O O15 0.792711 0.848236 0.000000
#
# Coordination Sequence:
#
# PCOD9483166 Si02
#       6
#     8  16  16  16  16  16
#     4  11  24  38  51  69  92 124 168 209 239 269
#     4   8  13  24  46  69  89 118 155 191 229 275
#     4   8  13  23  40  66  96 123 150 182 225 283
#     4  10  18  27  43  70 100 126 150 187 242 291
#     4   9  17  29  45  64  86 117 157 198 239 285
#     4  10  18  33  50  66  91 127 163 199 232 277
#
# _framework density 16.022496
#
# number of rings (size 3 to 8) (size 9 to 14) (size 15 to 20)
#    0.000    2.818    1.818    2.182    0.000    1.455 
#    0.000    0.455    0.000    2.182    0.000    0.636 
#    0.000    2.182    0.000    4.000    0.000    0.364 
#
# Total GULP energy -244945.140123 kJ/mol
# GULP energy per Si atom -5566.935003 kJ/mol
# Density = 1.598603 g / cm^3
# Si number density = 16.022496 Si / 1000 Ang^3
#
#
#
# Elastic Constant Matrix: (Units=GPa)
#
#
# Indices 1 2 3 4 5 6 
#
# 1 103.7166 13.5507 53.2733 0.0000 0.0000 0.0000
# 2 13.5507 20.7714 29.3827 0.0000 0.0000 0.0000
# 3 53.2733 29.3827 144.5512 0.0000 0.0000 0.0000
# 4 0.0000 0.0000 0.0000 13.2533 0.0000 0.0000
# 5 0.0000 0.0000 0.0000 0.0000 20.5184 0.0000
# 6 0.0000 0.0000 0.0000 0.0000 0.0000 15.7777
#
#
#
# Elastic Compliance Matrix: (Units=1/GPa)
#
#
# Indices 1 2 3 4 5 6 
#
# 1 0.011964 -0.002201 -0.003962 0.000000 0.000000 0.000000
# 2 -0.002201 0.067978 -0.013007 0.000000 0.000000 0.000000
# 3 -0.003962 -0.013007 0.011022 0.000000 0.000000 0.000000
# 4 0.000000 0.000000 0.000000 0.075453 0.000000 0.000000
# 5 0.000000 0.000000 0.000000 0.000000 0.048737 0.000000
# 6 0.000000 0.000000 0.000000 0.000000 0.000000 0.063381
#
#
# Mechanical properties :
#
#
# Convention : Reuss Voigt Hill
#
# Bulk Modulus (GPa) = 19.00225 51.27251 35.13738
# Shear Modulus (GPa) = 14.95150 21.43204 18.19177
#
# Velocity S-wave (km/s) = 3.05808 3.66132 3.37321
# Velocity P-wave (km/s) = 4.93504 7.06707 6.09500
#
# Compressibility (1/GPa) = 0.05262535
#
# Stress axis : x y z
#
# Youngs Moduli (GPa) = 83.58248 14.71070 90.72766
#
# Poissons Ratio (x) = 0.03237 0.35947
# Poissons Ratio (y) = 0.18393 1.18007
# Poissons Ratio (z) = 0.33116 0.19134
#
# Static dielectric constant tensor:
#      x y z
#    x 1.522020 0.000000 0.000000 
#    y 0.000000 1.514500 0.000000 
#    z 0.000000 0.000000 1.573150 
# 
# From -- ./inp_files/42512.got.cif
#   From: 2010.05.17/outbox.cif.g08.bks.cpg/sg65_22_cif.got.tgz:42512.got - 2010.06.03 17:01:31.
