data_PCOD9483757
_publ_section_title
;
Structure prediction by ZEFSAII (Michael W. Deem and Ramdas Pophale) SiO2 
 PCOD9483757
Probable space group: C M M M
;
_chemical_formula_sum "Si O2"
_cell_formula_units_Z 88
_cell_length_a 28.486797
_cell_length_b 20.085286
_cell_length_c 7.650963
_cell_angle_alpha 90.000000
_cell_angle_beta 90.000000
_cell_angle_gamma 90.000000
_cell_volume 4377.616802
_symmetry_space_group_name_H-M "C M M M"
_symmetry_group_IT_number 65
_symmetry_cell_setting 'orthorhombic'
loop_
_space_group_symop_operation_xyz
x,y,z
-x,-y,z
x,-y,-z
-x,y,-z
-x,-y,-z
x,y,-z
-x,y,z
x,-y,z
1/2+x,1/2+y,z
1/2-x,1/2-y,z
1/2+x,1/2-y,-z
1/2-x,1/2+y,-z
1/2-x,1/2-y,-z
1/2+x,1/2+y,-z
1/2-x,1/2+y,z
1/2+x,1/2-y,z
loop_
_atom_site_type_symbol
_atom_site_label
_atom_site_fract_x
_atom_site_fract_y
_atom_site_fract_z
Si Si1 0.182111 0.923949 0.209913
Si Si2 0.000000 0.923631 0.285973
Si Si3 0.112430 0.425086 0.295816
Si Si4 0.216349 0.580690 0.201079
Si Si5 0.945499 0.699302 0.714300
Si Si6 0.909670 0.159425 0.290081
O O1 0.233037 0.899035 0.276504
O O2 0.139252 0.875472 0.247316
O O3 0.172901 0.000000 0.273034
O O4 0.187118 0.928115 0.000000
O O5 0.953285 0.885467 0.227557
O O6 0.000000 0.923179 0.500000
O O7 0.000000 0.000000 0.229724
O O8 0.100456 0.430802 0.500000
O O9 0.108844 0.500000 0.219375
O O10 0.166783 0.402405 0.286131
O O11 0.078951 0.368230 0.221544
O O12 0.218829 0.500000 0.203499
O O13 0.213128 0.602771 0.000000
O O14 0.944421 0.698582 0.500000
O O15 0.917676 0.765228 0.772027
O O16 0.000000 0.704041 0.764603
O O17 0.913006 0.161230 0.500000
#
# Coordination Sequence:
#
# PCOD9483757 Si02
#       6
#    16   8  16  16  16  16
#     4   9  18  32  49  70  97 127 158 195 239 283
#     4   9  16  26  43  67  90 114 154 199 229 263
#     4   9  17  29  49  76  98 118 154 201 239 278
#     4   8  15  30  50  69  93 126 157 188 235 289
#     4   9  17  31  49  69  97 130 158 190 240 290
#     4  10  18  30  48  69  93 126 163 197 233 276
#
# _framework density 20.102260999999999
#
# number of rings (size 3 to 8) (size 9 to 14) (size 15 to 20)
#    0.000    3.000    0.909    1.636    0.000    2.182 
#    0.000    5.909    0.000    8.727    0.000    2.545 
#    0.000    0.000    0.000    0.000    0.000    0.000 
#
# Total GULP energy -245239.329932 kJ/mol
# GULP energy per Si atom -5573.621135 kJ/mol
# Density = 2.005651 g / cm^3
# Si number density = 20.102261 Si / 1000 Ang^3
#
#
#
# Elastic Constant Matrix: (Units=GPa)
#
#
# Indices 1 2 3 4 5 6 
#
# 1 96.9102 74.0076 -2.9025 0.0000 0.0000 0.0000
# 2 74.0076 129.7288 7.4697 0.0000 0.0000 0.0000
# 3 -2.9025 7.4697 33.9667 0.0000 0.0000 0.0000
# 4 0.0000 0.0000 0.0000 3.1592 0.0000 0.0000
# 5 0.0000 0.0000 0.0000 0.0000 28.1513 0.0000
# 6 0.0000 0.0000 0.0000 0.0000 0.0000 -14.7571
#
#
#
# Elastic Compliance Matrix: (Units=1/GPa)
#
#
# Indices 1 2 3 4 5 6 
#
# 1 0.018811 -0.010963 0.004018 0.000000 0.000000 0.000000
# 2 -0.010963 0.014196 -0.004059 0.000000 0.000000 0.000000
# 3 0.004018 -0.004059 0.030677 0.000000 0.000000 0.000000
# 4 0.000000 0.000000 0.000000 0.316533 0.000000 0.000000
# 5 0.000000 0.000000 0.000000 0.000000 0.035522 0.000000
# 6 0.000000 0.000000 0.000000 0.000000 0.000000 -0.067764
#
#
# Mechanical properties :
#
#
# Convention : Reuss Voigt Hill
#
# Bulk Modulus (GPa) = 23.99378 46.41726 35.20552
# Shear Modulus (GPa) = 13.02513 15.44608 14.23561
#
# Velocity S-wave (km/s) = 2.54824 2.77497 2.66401
# Velocity P-wave (km/s) = 4.54090 5.77996 5.19749
#
# Compressibility (1/GPa) = 0.04167747
#
# Stress axis : x y z
#
# Youngs Moduli (GPa) = 53.16001 70.44183 32.59824
#
# Poissons Ratio (x) = 0.77224 -0.13099
# Poissons Ratio (y) = 0.58278 0.13231
# Poissons Ratio (z) = -0.21361 0.28590
#
# Static dielectric constant tensor:
#      x y z
#    x 1.710430 0.000000 0.000000 
#    y 0.000000 1.701690 0.000000 
#    z 0.000000 0.000000 1.520590 
# 
# From -- ./inp_files/18329.got.cif
#   From: 2010.05.17/outbox.cif.g08.bks.cpg/sg65_10_cif.got.tgz:18329.got - 2010.06.03 17:01:31.
