data_PCOD9483148
_publ_section_title
;
Structure prediction by ZEFSAII (Michael W. Deem and Ramdas Pophale) SiO2 
 PCOD9483148
Probable space group: C M M M
;
_chemical_formula_sum "Si O2"
_cell_formula_units_Z 72
_cell_length_a 28.974997
_cell_length_b 7.478405
_cell_length_c 17.533354
_cell_angle_alpha 90.000000
_cell_angle_beta 90.000000
_cell_angle_gamma 90.000000
_cell_volume 3799.245713
_symmetry_space_group_name_H-M "C M M M"
_symmetry_group_IT_number 65
_symmetry_cell_setting 'orthorhombic'
loop_
_space_group_symop_operation_xyz
x,y,z
-x,-y,z
x,-y,-z
-x,y,-z
-x,-y,-z
x,y,-z
-x,y,z
x,-y,z
1/2+x,1/2+y,z
1/2-x,1/2-y,z
1/2+x,1/2-y,-z
1/2-x,1/2+y,-z
1/2-x,1/2-y,-z
1/2+x,1/2+y,-z
1/2-x,1/2+y,z
1/2+x,1/2-y,z
loop_
_atom_site_type_symbol
_atom_site_label
_atom_site_fract_x
_atom_site_fract_y
_atom_site_fract_z
Si Si1 0.374858 0.199975 0.295630
Si Si2 0.553996 0.218032 0.414960
Si Si3 0.699180 0.288170 0.587598
Si Si4 0.195557 0.287079 0.000000
Si Si5 0.805033 0.715537 0.168425
O O1 0.418118 0.283958 0.340788
O O2 0.338550 0.189354 0.364389
O O3 0.342856 0.283378 0.229250
O O4 0.388765 0.000000 0.269962
O O5 0.571063 0.275109 0.500000
O O6 0.500000 0.263987 0.410437
O O7 0.557258 0.000000 0.414118
O O8 0.698743 0.229525 0.500000
O O9 0.690628 0.500000 0.590777
O O10 0.750000 0.250000 0.619002
O O11 0.250000 0.250000 0.000000
O O12 0.181091 0.219753 0.916609
O O13 0.187329 0.500000 0.000000
O O14 0.808057 0.500000 0.170160
O O15 0.750000 0.750000 0.182376
#
# Coordination Sequence:
#
# PCOD9483148 Si02
#       5
#    16  16  16   8  16
#     4  10  18  27  42  63  82 102 133 172 210 242
#     4   8  14  25  41  60  80 102 131 169 209 245
#     4  10  20  31  41  55  79 111 141 165 194 236
#     4   8  14  26  40  54  77 107 135 161 192 234
#     4   9  17  27  40  59  82 108 135 163 197 238
#
# _framework density 18.951129000000002
#
# number of rings (size 3 to 8) (size 9 to 14) (size 15 to 20)
#    0.000    2.889    0.000    2.667    0.000    4.889 
#    0.000    0.000    0.000    0.667    0.000    3.889 
#    0.000    6.222    0.000    0.000    0.000   42.222 
#
# Total GULP energy -200412.161984 kJ/mol
# GULP energy per Si atom -5567.004500 kJ/mol
# Density = 1.890799 g / cm^3
# Si number density = 18.951129 Si / 1000 Ang^3
#
#
#
# Elastic Constant Matrix: (Units=GPa)
#
#
# Indices 1 2 3 4 5 6 
#
# 1 78.5474 -0.2800 63.1407 0.0000 0.0000 0.0000
# 2 -0.2800 58.9466 6.1125 0.0000 0.0000 0.0000
# 3 63.1407 6.1125 142.7965 0.0000 0.0000 0.0000
# 4 0.0000 0.0000 0.0000 2.4263 0.0000 0.0000
# 5 0.0000 0.0000 0.0000 0.0000 50.8696 0.0000
# 6 0.0000 0.0000 0.0000 0.0000 0.0000 4.3655
#
#
#
# Elastic Compliance Matrix: (Units=1/GPa)
#
#
# Indices 1 2 3 4 5 6 
#
# 1 0.019811 0.001007 -0.008803 0.000000 0.000000 0.000000
# 2 0.001007 0.017091 -0.001177 0.000000 0.000000 0.000000
# 3 -0.008803 -0.001177 0.010946 0.000000 0.000000 0.000000
# 4 0.000000 0.000000 0.000000 0.412156 0.000000 0.000000
# 5 0.000000 0.000000 0.000000 0.000000 0.019658 0.000000
# 6 0.000000 0.000000 0.000000 0.000000 0.000000 0.229070
#
#
# Mechanical properties :
#
#
# Convention : Reuss Voigt Hill
#
# Bulk Modulus (GPa) = 33.44217 46.47076 39.95646
# Shear Modulus (GPa) = 6.78753 25.62010 16.20381
#
# Velocity S-wave (km/s) = 1.89456 3.68081 2.92726
# Velocity P-wave (km/s) = 4.74032 6.52986 5.70569
#
# Compressibility (1/GPa) = 0.02990237
#
# Stress axis : x y z
#
# Youngs Moduli (GPa) = 50.47668 58.50922 91.35916
#
# Poissons Ratio (x) = -0.05892 0.80424
# Poissons Ratio (y) = -0.05083 0.10752
# Poissons Ratio (z) = 0.44435 0.06886
#
# Static dielectric constant tensor:
#      x y z
#    x 1.660770 0.000000 0.000000 
#    y 0.000000 1.895730 0.000000 
#    z 0.000000 0.000000 1.724930 
# 
# From -- ./inp_files/49721.got.cif
#   From: 2010.05.17/outbox.cif.g08.bks.cpg/sg65_25_cif.got.tgz:49721.got - 2010.06.03 17:01:31.
