data_PCOD9483309
_publ_section_title
;
Structure prediction by ZEFSAII (Michael W. Deem and Ramdas Pophale) SiO2 
 PCOD9483309
Probable space group: C M M M
;
_chemical_formula_sum "Si O2"
_cell_formula_units_Z 96
_cell_length_a 7.764496
_cell_length_b 28.380326
_cell_length_c 24.856526
_cell_angle_alpha 90.000000
_cell_angle_beta 90.000000
_cell_angle_gamma 90.000000
_cell_volume 5477.357416
_symmetry_space_group_name_H-M "C M M M"
_symmetry_group_IT_number 65
_symmetry_cell_setting 'orthorhombic'
loop_
_space_group_symop_operation_xyz
x,y,z
-x,-y,z
x,-y,-z
-x,y,-z
-x,-y,-z
x,y,-z
-x,y,z
x,-y,z
1/2+x,1/2+y,z
1/2-x,1/2-y,z
1/2+x,1/2-y,-z
1/2-x,1/2+y,-z
1/2-x,1/2-y,-z
1/2+x,1/2+y,-z
1/2-x,1/2+y,z
1/2+x,1/2-y,z
loop_
_atom_site_type_symbol
_atom_site_label
_atom_site_fract_x
_atom_site_fract_y
_atom_site_fract_z
Si Si1 0.792648 0.304811 0.059888
Si Si2 0.211348 0.645869 0.167507
Si Si3 0.703034 0.052408 0.222808
Si Si4 0.204858 0.696184 0.723897
Si Si5 0.290006 0.445231 0.439951
Si Si6 0.797395 0.102488 0.332175
O O1 0.750000 0.250000 0.069168
O O2 0.728912 0.335538 0.109905
O O3 0.000000 0.308955 0.058981
O O4 0.728283 0.317528 0.000000
O O5 0.271878 0.593693 0.184197
O O6 0.265365 0.680289 0.216417
O O7 0.000000 0.645751 0.167070
O O8 0.500000 0.049162 0.211171
O O9 0.719387 0.072298 0.283326
O O10 0.777964 0.000000 0.218038
O O11 0.250000 0.750000 0.712567
O O12 0.272288 0.657230 0.682248
O O13 0.000000 0.691518 0.723792
O O14 0.231665 0.431472 0.500000
O O15 0.500000 0.443524 0.440770
O O16 0.242976 0.500000 0.430941
O O17 0.229774 0.413622 0.390228
O O18 0.000000 0.092261 0.331153
#
# Coordination Sequence:
#
# PCOD9483309 Si02
#       6
#    16  16  16  16  16  16
#     4   9  16  26  41  60  82 107 136 172 212 254
#     4   8  15  27  42  61  84 111 141 172 210 254
#     4   9  17  29  44  61  85 117 147 176 213 256
#     4  10  19  31  46  64  88 116 145 177 214 257
#     4   8  14  25  42  65  91 116 141 171 209 252
#     4  10  18  28  45  68  91 114 142 177 214 254
#
# _framework density 17.526699000000001
#
# number of rings (size 3 to 8) (size 9 to 14) (size 15 to 20)
#    0.000    3.000    0.000    3.500    0.000    1.000 
#    0.000    3.333    0.000    3.000    0.000    9.333 
#    0.000    0.000    0.000   10.167    0.000   11.000 
#
# Total GULP energy -267482.670168 kJ/mol
# GULP energy per Si atom -5572.555628 kJ/mol
# Density = 1.748681 g / cm^3
# Si number density = 17.526699 Si / 1000 Ang^3
#
#
#
# Elastic Constant Matrix: (Units=GPa)
#
#
# Indices 1 2 3 4 5 6 
#
# 1 22.4561 -8.2480 0.2451 0.0000 0.0000 0.0000
# 2 -8.2480 122.1598 92.8003 0.0000 0.0000 0.0000
# 3 0.2451 92.8003 169.1928 0.0000 0.0000 0.0000
# 4 0.0000 0.0000 0.0000 31.8495 0.0000 0.0000
# 5 0.0000 0.0000 0.0000 0.0000 14.2662 0.0000
# 6 0.0000 0.0000 0.0000 0.0000 0.0000 12.2023
#
#
#
# Elastic Compliance Matrix: (Units=1/GPa)
#
#
# Indices 1 2 3 4 5 6 
#
# 1 0.046577 0.005479 -0.003073 0.000000 0.000000 0.000000
# 2 0.005479 0.014678 -0.008058 0.000000 0.000000 0.000000
# 3 -0.003073 -0.008058 0.010335 0.000000 0.000000 0.000000
# 4 0.000000 0.000000 0.000000 0.031398 0.000000 0.000000
# 5 0.000000 0.000000 0.000000 0.000000 0.070096 0.000000
# 6 0.000000 0.000000 0.000000 0.000000 0.000000 0.081952
#
#
# Mechanical properties :
#
#
# Convention : Reuss Voigt Hill
#
# Bulk Modulus (GPa) = 16.58770 53.71150 35.14960
# Shear Modulus (GPa) = 17.45599 26.93102 22.19351
#
# Velocity S-wave (km/s) = 3.15932 3.92416 3.56233
# Velocity P-wave (km/s) = 4.77422 7.15850 6.08430
#
# Compressibility (1/GPa) = 0.06028563
#
# Stress axis : x y z
#
# Youngs Moduli (GPa) = 21.46966 68.13084 96.76008
#
# Poissons Ratio (x) = -0.37329 0.29731
# Poissons Ratio (y) = -0.11763 0.77974
# Poissons Ratio (z) = 0.06597 0.54903
#
# Static dielectric constant tensor:
#      x y z
#    x 2.339140 0.000000 0.000000 
#    y 0.000000 1.565000 0.000000 
#    z 0.000000 0.000000 1.605500 
# 
# From -- ./inp_files/68012.got.cif
#   From: 2010.05.17/outbox.cif.g08.bks.cpg/sg65_35_cif.got.tgz:68012.got - 2010.06.03 17:01:31.
