data_PCOD9483609
_publ_section_title
;
Structure prediction by ZEFSAII (Michael W. Deem and Ramdas Pophale) SiO2 
 PCOD9483609
Probable space group: C M M M
;
_chemical_formula_sum "Si O2"
_cell_formula_units_Z 112
_cell_length_a 30.267775
_cell_length_b 14.507568
_cell_length_c 13.664827
_cell_angle_alpha 90.000000
_cell_angle_beta 90.000000
_cell_angle_gamma 90.000000
_cell_volume 6000.386836
_symmetry_space_group_name_H-M "C M M M"
_symmetry_group_IT_number 65
_symmetry_cell_setting 'orthorhombic'
loop_
_space_group_symop_operation_xyz
x,y,z
-x,-y,z
x,-y,-z
-x,y,-z
-x,-y,-z
x,y,-z
-x,y,z
x,-y,z
1/2+x,1/2+y,z
1/2-x,1/2-y,z
1/2+x,1/2-y,-z
1/2-x,1/2+y,-z
1/2-x,1/2-y,-z
1/2+x,1/2+y,-z
1/2-x,1/2+y,z
1/2+x,1/2-y,z
loop_
_atom_site_type_symbol
_atom_site_label
_atom_site_fract_x
_atom_site_fract_y
_atom_site_fract_z
Si Si1 0.366403 0.717509 0.382203
Si Si2 0.680025 0.105212 0.380778
Si Si3 0.094942 0.106365 0.112694
Si Si4 0.450349 0.392232 0.692505
Si Si5 0.317629 0.712431 0.118937
Si Si6 0.220384 0.892676 0.381140
Si Si7 0.729822 0.895152 0.880790
O O1 0.366138 0.714901 0.500000
O O2 0.357212 0.822438 0.350907
O O3 0.411431 0.669766 0.350123
O O4 0.322268 0.663504 0.348251
O O5 0.680863 0.105140 0.500000
O O6 0.729905 0.135118 0.350999
O O7 0.672488 0.000000 0.350299
O O8 0.055756 0.113555 0.190136
O O9 0.134676 0.173076 0.144777
O O10 0.111333 0.000000 0.117002
O O11 0.082877 0.124892 0.000000
O O12 0.500000 0.366257 0.663445
O O13 0.443273 0.500000 0.665318
O O14 0.305545 0.816843 0.147738
O O15 0.277709 0.644621 0.149120
O O16 0.316718 0.710878 0.000000
O O17 0.220557 0.885915 0.500000
O O18 0.214807 0.000000 0.356228
O O19 0.722716 0.000000 0.847853
O O20 0.729778 0.897196 0.000000
#
# Coordination Sequence:
#
# PCOD9483609 Si02
#       7
#    16  16  16  16  16  16  16
#     4  10  18  29  49  74 102 137 168 194 235 290
#     4   8  14  25  44  72 103 134 169 206 238 271
#     4   9  17  31  52  72  89 115 153 197 245 292
#     4  10  22  37  51  71  97 123 157 202 248 296
#     4   8  13  21  37  62  87 115 152 186 220 270
#     4   8  13  22  40  69 102 134 167 198 231 276
#     4   8  12  18  32  58  92 124 150 178 216 266
#
# _framework density 18.665462999999999
#
# number of rings (size 3 to 8) (size 9 to 14) (size 15 to 20)
#    0.000    3.286    0.000    3.000    0.000    4.857 
#    0.000    2.143    6.286    1.286    0.000    2.000 
#    0.000    0.000    0.000    6.857    0.000    0.286 
#
# Total GULP energy -312534.103392 kJ/mol
# GULP energy per Si atom -5580.966132 kJ/mol
# Density = 1.862298 g / cm^3
# Si number density = 18.665463 Si / 1000 Ang^3
#
#
#
# Elastic Constant Matrix: (Units=GPa)
#
#
# Indices 1 2 3 4 5 6 
#
# 1 120.3780 81.3355 18.7644 0.0000 0.0000 0.0000
# 2 81.3355 118.3734 20.4406 0.0000 0.0000 0.0000
# 3 18.7644 20.4406 58.7132 0.0000 0.0000 0.0000
# 4 0.0000 0.0000 0.0000 8.7741 0.0000 0.0000
# 5 0.0000 0.0000 0.0000 0.0000 18.4994 0.0000
# 6 0.0000 0.0000 0.0000 0.0000 0.0000 24.9586
#
#
#
# Elastic Compliance Matrix: (Units=1/GPa)
#
#
# Indices 1 2 3 4 5 6 
#
# 1 0.015604 -0.010491 -0.001334 0.000000 0.000000 0.000000
# 2 -0.010491 0.016042 -0.002232 0.000000 0.000000 0.000000
# 3 -0.001334 -0.002232 0.018235 0.000000 0.000000 0.000000
# 4 0.000000 0.000000 0.000000 0.113972 0.000000 0.000000
# 5 0.000000 0.000000 0.000000 0.000000 0.054056 0.000000
# 6 0.000000 0.000000 0.000000 0.000000 0.000000 0.040066
#
#
# Mechanical properties :
#
#
# Convention : Reuss Voigt Hill
#
# Bulk Modulus (GPa) = 45.94321 59.83840 52.89081
# Shear Modulus (GPa) = 17.04480 22.24136 19.64308
#
# Velocity S-wave (km/s) = 3.02515 3.45567 3.24755
# Velocity P-wave (km/s) = 6.07203 6.93182 6.51612
#
# Compressibility (1/GPa) = 0.02176600
#
# Stress axis : x y z
#
# Youngs Moduli (GPa) = 64.08798 62.33764 54.83821
#
# Poissons Ratio (x) = 0.65398 0.07318
# Poissons Ratio (y) = 0.67234 0.12240
# Poissons Ratio (z) = 0.08552 0.13914
#
# Static dielectric constant tensor:
#      x y z
#    x 1.592920 0.000000 0.000000 
#    y 0.000000 1.646900 0.000000 
#    z 0.000000 0.000000 1.749960 
# 
# From -- ./inp_files/47033.got.cif
#   From: 2010.05.17/outbox.cif.g08.bks.cpg/sg65_24_cif.got.tgz:47033.got - 2010.06.03 17:01:31.
