data_PCOD9483202
_publ_section_title
;
Structure prediction by ZEFSAII (Michael W. Deem and Ramdas Pophale) SiO2 
 PCOD9483202
Probable space group: C M M M
;
_chemical_formula_sum "Si O2"
_cell_formula_units_Z 104
_cell_length_a 26.322001
_cell_length_b 8.800105
_cell_length_c 28.598044
_cell_angle_alpha 90.000000
_cell_angle_beta 90.000000
_cell_angle_gamma 90.000000
_cell_volume 6624.347176
_symmetry_space_group_name_H-M "C M M M"
_symmetry_group_IT_number 65
_symmetry_cell_setting 'orthorhombic'
loop_
_space_group_symop_operation_xyz
x,y,z
-x,-y,z
x,-y,-z
-x,y,-z
-x,-y,-z
x,y,-z
-x,y,z
x,-y,z
1/2+x,1/2+y,z
1/2-x,1/2-y,z
1/2+x,1/2-y,-z
1/2-x,1/2+y,-z
1/2-x,1/2-y,-z
1/2+x,1/2+y,-z
1/2-x,1/2+y,z
1/2+x,1/2-y,z
loop_
_atom_site_type_symbol
_atom_site_label
_atom_site_fract_x
_atom_site_fract_y
_atom_site_fract_z
Si Si1 0.911136 0.323088 0.385407
Si Si2 0.306632 0.817387 0.151851
Si Si3 0.655692 0.323061 0.247537
Si Si4 0.558134 0.826497 0.277921
Si Si5 0.192990 0.683177 0.050332
Si Si6 0.695591 0.816901 0.343832
Si Si7 0.500000 0.681543 0.553785
O O1 0.908987 0.500000 0.399378
O O2 0.936318 0.316074 0.333914
O O3 0.852876 0.270151 0.376106
O O4 0.949003 0.238205 0.420150
O O5 0.250000 0.750000 0.151509
O O6 0.331791 0.749097 0.197744
O O7 0.330060 0.774856 0.100884
O O8 0.305214 0.000000 0.155433
O O9 0.669013 0.500000 0.248278
O O10 0.596348 0.293494 0.256505
O O11 0.683549 0.241114 0.291180
O O12 0.500000 0.805366 0.264494
O O13 0.574043 0.000000 0.265437
O O14 0.196485 0.500000 0.050449
O O15 0.250000 0.750000 0.050219
O O16 0.169468 0.728805 0.000000
O O17 0.750000 0.750000 0.358451
O O18 0.697016 0.000000 0.343353
O O19 0.500000 0.500000 0.554783
O O20 0.500000 0.733913 0.500000
#
# Coordination Sequence:
#
# PCOD9483202 Si02
#       7
#    16  16  16  16  16  16   8
#     4   9  18  34  54  75  98 128 161 194 235 284
#     4  10  18  28  41  57  83 117 150 187 229 269
#     4  11  21  30  42  64  93 124 158 190 225 271
#     4   9  17  32  51  69  92 119 150 188 230 275
#     4   8  14  24  38  55  74 101 140 183 226 271
#     4  10  20  34  51  72  98 128 164 200 236 280
#     4  11  23  35  51  79 109 131 157 199 242 277
#
# _framework density 15.69966
#
# number of rings (size 3 to 8) (size 9 to 14) (size 15 to 20)
#    0.000    2.385    0.769    3.923    0.000    4.615 
#    0.000    0.000    0.000    0.462    0.000    0.000 
#    0.000    0.615    0.000    7.077    0.000    2.000 
#
# Total GULP energy -289526.186841 kJ/mol
# GULP energy per Si atom -5567.811285 kJ/mol
# Density = 1.566393 g / cm^3
# Si number density = 15.699660 Si / 1000 Ang^3
#
#
#
# Elastic Constant Matrix: (Units=GPa)
#
#
# Indices 1 2 3 4 5 6 
#
# 1 83.2262 28.2272 43.4966 0.0000 0.0000 0.0000
# 2 28.2272 53.5659 37.4579 0.0000 0.0000 0.0000
# 3 43.4966 37.4579 105.0974 0.0000 0.0000 0.0000
# 4 0.0000 0.0000 0.0000 16.0050 0.0000 0.0000
# 5 0.0000 0.0000 0.0000 0.0000 12.0208 0.0000
# 6 0.0000 0.0000 0.0000 0.0000 0.0000 24.3545
#
#
#
# Elastic Compliance Matrix: (Units=1/GPa)
#
#
# Indices 1 2 3 4 5 6 
#
# 1 0.016340 -0.005170 -0.004920 0.000000 0.000000 0.000000
# 2 -0.005170 0.026502 -0.007306 0.000000 0.000000 0.000000
# 3 -0.004920 -0.007306 0.014155 0.000000 0.000000 0.000000
# 4 0.000000 0.000000 0.000000 0.062480 0.000000 0.000000
# 5 0.000000 0.000000 0.000000 0.000000 0.083189 0.000000
# 6 0.000000 0.000000 0.000000 0.000000 0.000000 0.041060
#
#
# Mechanical properties :
#
#
# Convention : Reuss Voigt Hill
#
# Bulk Modulus (GPa) = 45.03436 51.13922 48.08679
# Shear Modulus (GPa) = 17.48734 19.32325 18.40529
#
# Velocity S-wave (km/s) = 3.34109 3.51209 3.42766
# Velocity P-wave (km/s) = 6.60538 7.00647 6.80888
#
# Compressibility (1/GPa) = 0.02220527
#
# Stress axis : x y z
#
# Youngs Moduli (GPa) = 61.19816 37.73312 70.64590
#
# Poissons Ratio (x) = 0.19509 0.34758
# Poissons Ratio (y) = 0.31641 0.51612
# Poissons Ratio (z) = 0.30110 0.27567
#
# Static dielectric constant tensor:
#      x y z
#    x 1.545370 0.000000 0.000000 
#    y 0.000000 1.532880 0.000000 
#    z 0.000000 0.000000 1.550480 
# 
# From -- ./inp_files/76252.got.cif
#   From: 2010.05.17/outbox.cif.g08.bks.cpg/sg65_39_cif.got.tgz:76252.got - 2010.06.03 17:01:31.
