data_PCOD9483505
_publ_section_title
;
Structure prediction by ZEFSAII (Michael W. Deem and Ramdas Pophale) SiO2 
 PCOD9483505
Probable space group: C M M M
;
_chemical_formula_sum "Si O2"
_cell_formula_units_Z 112
_cell_length_a 24.203516
_cell_length_b 19.537299
_cell_length_c 14.699347
_cell_angle_alpha 90.000000
_cell_angle_beta 90.000000
_cell_angle_gamma 90.000000
_cell_volume 6950.899750
_symmetry_space_group_name_H-M "C M M M"
_symmetry_group_IT_number 65
_symmetry_cell_setting 'orthorhombic'
loop_
_space_group_symop_operation_xyz
x,y,z
-x,-y,z
x,-y,-z
-x,y,-z
-x,-y,-z
x,y,-z
-x,y,z
x,-y,z
1/2+x,1/2+y,z
1/2-x,1/2-y,z
1/2+x,1/2-y,-z
1/2-x,1/2+y,-z
1/2-x,1/2-y,-z
1/2+x,1/2+y,-z
1/2-x,1/2+y,z
1/2+x,1/2-y,z
loop_
_atom_site_type_symbol
_atom_site_label
_atom_site_fract_x
_atom_site_fract_y
_atom_site_fract_z
Si Si1 0.566648 0.669112 0.396723
Si Si2 0.064732 0.918933 0.770269
Si Si3 0.274973 0.922843 0.889512
Si Si4 0.855052 0.702202 0.893026
Si Si5 0.839896 0.858188 0.892687
Si Si6 0.933530 0.702278 0.272774
Si Si7 0.567163 0.922558 0.603290
O O1 0.588161 0.667327 0.500000
O O2 0.500000 0.674155 0.403600
O O3 0.578137 0.604003 0.332983
O O4 0.584362 0.734712 0.337257
O O5 0.106027 0.879438 0.836922
O O6 0.000000 0.900734 0.786692
O O7 0.070664 0.000000 0.782087
O O8 0.316493 0.861495 0.864970
O O9 0.213045 0.901725 0.861632
O O10 0.289247 0.000000 0.858914
O O11 0.274712 0.923596 0.000000
O O12 0.827373 0.777191 0.883726
O O13 0.907031 0.704813 0.826202
O O14 0.869172 0.694134 0.000000
O O15 0.849162 0.871408 0.000000
O O16 0.915631 0.633158 0.323949
O O17 0.000000 0.704008 0.266719
O O18 0.583927 0.904606 0.500000
O O19 0.500000 0.922562 0.603234
O O20 0.585109 0.000000 0.623198
#
# Coordination Sequence:
#
# PCOD9483505 Si02
#       7
#    16  16  16  16  16  16  16
#     4   9  17  30  47  67  94 129 165 199 236 280
#     4  10  20  32  47  73 105 131 159 195 237 289
#     4   9  18  33  52  72  93 121 163 211 249 280
#     4  10  20  32  48  71  99 130 164 203 240 281
#     4  10  19  33  52  72  98 132 165 197 237 284
#     4  10  18  29  46  69  98 133 166 195 236 290
#     4   8  14  25  42  65  91 119 156 203 247 282
#
# _framework density 16.113021
#
# number of rings (size 3 to 8) (size 9 to 14) (size 15 to 20)
#    0.000    2.571    1.429    1.714    0.000    5.714 
#    0.000    3.571    0.000    0.000    0.000    7.000 
#    0.000    2.286    0.000    0.000    0.000    0.000 
#
# Total GULP energy -311794.586478 kJ/mol
# GULP energy per Si atom -5567.760473 kJ/mol
# Density = 1.607635 g / cm^3
# Si number density = 16.113021 Si / 1000 Ang^3
#
#
#
# Elastic Constant Matrix: (Units=GPa)
#
#
# Indices 1 2 3 4 5 6 
#
# 1 43.4519 31.5105 27.8160 0.0000 0.0000 0.0000
# 2 31.5105 93.9511 36.5840 0.0000 0.0000 0.0000
# 3 27.8160 36.5840 68.1389 0.0000 0.0000 0.0000
# 4 0.0000 0.0000 0.0000 23.3830 0.0000 0.0000
# 5 0.0000 0.0000 0.0000 0.0000 -1.7001 0.0000
# 6 0.0000 0.0000 0.0000 0.0000 0.0000 20.1501
#
#
#
# Elastic Compliance Matrix: (Units=1/GPa)
#
#
# Indices 1 2 3 4 5 6 
#
# 1 0.035212 -0.007855 -0.010157 0.000000 0.000000 0.000000
# 2 -0.007855 0.015209 -0.004960 0.000000 0.000000 0.000000
# 3 -0.010157 -0.004960 0.021485 0.000000 0.000000 0.000000
# 4 0.000000 0.000000 0.000000 0.042766 0.000000 0.000000
# 5 0.000000 0.000000 0.000000 0.000000 -0.588184 0.000000
# 6 0.000000 0.000000 0.000000 0.000000 0.000000 0.049628
#
#
# Mechanical properties :
#
#
# Convention : Reuss Voigt Hill
#
# Bulk Modulus (GPa) = 38.51514 44.15143 41.33329
# Shear Modulus (GPa) = -13.53964 15.67534 1.06785
#
# Velocity S-wave (km/s) = -2.90192 3.12242 0.81496
# Velocity P-wave (km/s) = 3.56746 6.36081 5.15687
#
# Compressibility (1/GPa) = 0.02596382
#
# Stress axis : x y z
#
# Youngs Moduli (GPa) = 28.39913 65.74843 46.54380
#
# Poissons Ratio (x) = 0.51644 0.47276
# Poissons Ratio (y) = 0.22307 0.23083
# Poissons Ratio (z) = 0.28846 0.32608
#
# Static dielectric constant tensor:
#      x y z
#    x 1.520980 0.000000 0.000000 
#    y 0.000000 1.574770 0.000000 
#    z 0.000000 0.000000 1.529540 
# 
# From -- ./inp_files/31053.got.cif
#   From: 2010.05.17/outbox.cif.g08.bks.cpg/sg65_16_cif.got.tgz:31053.got - 2010.06.03 17:01:31.
