data_PCOD9483395
_publ_section_title
;
Structure prediction by ZEFSAII (Michael W. Deem and Ramdas Pophale) SiO2 
 PCOD9483395
Probable space group: C M M M
;
_chemical_formula_sum "Si O2"
_cell_formula_units_Z 88
_cell_length_a 25.809809
_cell_length_b 14.672808
_cell_length_c 14.027181
_cell_angle_alpha 90.000000
_cell_angle_beta 90.000000
_cell_angle_gamma 90.000000
_cell_volume 5312.126717
_symmetry_space_group_name_H-M "C M M M"
_symmetry_group_IT_number 65
_symmetry_cell_setting 'orthorhombic'
loop_
_space_group_symop_operation_xyz
x,y,z
-x,-y,z
x,-y,-z
-x,y,-z
-x,-y,-z
x,y,-z
-x,y,z
x,-y,z
1/2+x,1/2+y,z
1/2-x,1/2-y,z
1/2+x,1/2-y,-z
1/2-x,1/2+y,-z
1/2-x,1/2-y,-z
1/2+x,1/2+y,-z
1/2-x,1/2+y,z
1/2+x,1/2-y,z
loop_
_atom_site_type_symbol
_atom_site_label
_atom_site_fract_x
_atom_site_fract_y
_atom_site_fract_z
Si Si1 0.391194 0.826748 0.392268
Si Si2 0.224761 0.500000 0.888672
Si Si3 0.683821 0.000000 0.603653
Si Si4 0.693160 0.706459 0.295391
Si Si5 0.440867 0.890592 0.204264
Si Si6 0.285842 0.500000 0.278896
Si Si7 0.339186 0.815184 0.888006
O O1 0.411137 0.815545 0.500000
O O2 0.352634 0.746855 0.360040
O O3 0.432392 0.848734 0.309938
O O4 0.352997 0.913579 0.390466
O O5 0.278633 0.500000 0.834170
O O6 0.193143 0.592340 0.866916
O O7 0.233123 0.500000 0.000000
O O8 0.710426 0.000000 0.500000
O O9 0.726866 0.000000 0.683108
O O10 0.750000 0.750000 0.319268
O O11 0.692436 0.597762 0.307272
O O12 0.680653 0.739810 0.187072
O O13 0.500000 0.876864 0.173118
O O14 0.398173 0.842583 0.137892
O O15 0.431190 0.000000 0.207156
O O16 0.333437 0.792319 0.000000
#
# Coordination Sequence:
#
# PCOD9483395 Si02
#       7
#    16   8   8  16  16   8  16
#     4  10  20  34  49  71 102 138 170 200 242 293
#     4  10  18  28  48  70  99 135 168 200 239 286
#     4  10  18  28  48  70  99 135 168 200 239 286
#     4  11  21  32  51  70  99 135 172 209 248 290
#     4  10  19  31  50  77 105 132 163 200 245 298
#     4  12  20  34  46  72 100 128 174 220 242 278
#     4  10  20  34  49  71 102 138 170 200 242 293
#
# _framework density 16.56587
#
# number of rings (size 3 to 8) (size 9 to 14) (size 15 to 20)
#    0.000    1.636    5.455    1.091    0.000    2.909 
#    0.000    1.818    0.000    0.000    0.000   10.182 
#    0.000   11.636    0.000    0.000    0.000    0.000 
#
# Total GULP energy -245294.834284 kJ/mol
# GULP energy per Si atom -5574.882597 kJ/mol
# Density = 1.652816 g / cm^3
# Si number density = 16.565870 Si / 1000 Ang^3
#
#
#
# Elastic Constant Matrix: (Units=GPa)
#
#
# Indices 1 2 3 4 5 6 
#
# 1 23.8948 0.7640 -22.5600 0.0000 0.0000 0.0000
# 2 0.7640 89.8665 -5.2764 0.0000 0.0000 0.0000
# 3 -22.5600 -5.2764 31.8852 0.0000 0.0000 0.0000
# 4 0.0000 0.0000 0.0000 31.2309 0.0000 0.0000
# 5 0.0000 0.0000 0.0000 0.0000 8.3850 0.0000
# 6 0.0000 0.0000 0.0000 0.0000 0.0000 26.2724
#
#
#
# Elastic Compliance Matrix: (Units=1/GPa)
#
#
# Indices 1 2 3 4 5 6 
#
# 1 0.127654 0.004259 0.091025 0.000000 0.000000 0.000000
# 2 0.004259 0.011379 0.004896 0.000000 0.000000 0.000000
# 3 0.091025 0.004896 0.096576 0.000000 0.000000 0.000000
# 4 0.000000 0.000000 0.000000 0.032020 0.000000 0.000000
# 5 0.000000 0.000000 0.000000 0.000000 0.119261 0.000000
# 6 0.000000 0.000000 0.000000 0.000000 0.000000 0.038063
#
#
# Mechanical properties :
#
#
# Convention : Reuss Voigt Hill
#
# Bulk Modulus (GPa) = 2.29374 10.16687 6.23030
# Shear Modulus (GPa) = 13.51662 24.69225 19.10443
#
# Velocity S-wave (km/s) = 2.85955 3.86495 3.39962
# Velocity P-wave (km/s) = 3.50576 5.10565 4.37939
#
# Compressibility (1/GPa) = 0.43596986
#
# Stress axis : x y z
#
# Youngs Moduli (GPa) = 7.83367 87.88201 10.35451
#
# Poissons Ratio (x) = -0.37430 -0.94252
# Poissons Ratio (y) = -0.03336 -0.05070
# Poissons Ratio (z) = -0.71306 -0.43031
#
# Static dielectric constant tensor:
#      x y z
#    x 1.536690 0.000000 0.000000 
#    y 0.000000 1.557240 0.000000 
#    z 0.000000 0.000000 1.631950 
# 
# From -- ./inp_files/45628.got.cif
#   From: 2010.05.17/outbox.cif.g08.bks.cpg/sg65_23_cif.got.tgz:45628.got - 2010.06.03 17:01:31.
