data_PCOD9483205
_publ_section_title
;
Structure prediction by ZEFSAII (Michael W. Deem and Ramdas Pophale) SiO2 
 PCOD9483205
Probable space group: C M M M
;
_chemical_formula_sum "Si O2"
_cell_formula_units_Z 104
_cell_length_a 8.337083
_cell_length_b 28.016294
_cell_length_c 22.935012
_cell_angle_alpha 90.000000
_cell_angle_beta 90.000000
_cell_angle_gamma 90.000000
_cell_volume 5357.026356
_symmetry_space_group_name_H-M "C M M M"
_symmetry_group_IT_number 65
_symmetry_cell_setting 'orthorhombic'
loop_
_space_group_symop_operation_xyz
x,y,z
-x,-y,z
x,-y,-z
-x,y,-z
-x,-y,-z
x,y,-z
-x,y,z
x,-y,z
1/2+x,1/2+y,z
1/2-x,1/2-y,z
1/2+x,1/2-y,-z
1/2-x,1/2+y,-z
1/2-x,1/2-y,-z
1/2+x,1/2+y,-z
1/2-x,1/2+y,z
1/2+x,1/2-y,z
loop_
_atom_site_type_symbol
_atom_site_label
_atom_site_fract_x
_atom_site_fract_y
_atom_site_fract_z
Si Si1 0.194052 0.802826 0.567487
Si Si2 0.313946 0.198647 0.251540
Si Si3 0.194357 0.945364 0.754177
Si Si4 0.184499 0.301632 0.110570
Si Si5 0.685907 0.375613 0.337277
Si Si6 0.318439 0.500000 0.069302
Si Si7 0.691443 0.903969 0.125049
O O1 0.242433 0.809251 0.500000
O O2 0.250000 0.750000 0.586142
O O3 0.255412 0.845736 0.608540
O O4 0.000000 0.802894 0.570271
O O5 0.500000 0.191027 0.268132
O O6 0.250000 0.250000 0.270010
O O7 0.307235 0.197740 0.181409
O O8 0.202368 0.160899 0.283344
O O9 0.253529 0.923419 0.692605
O O10 0.250309 0.914238 0.809205
O O11 0.000000 0.944457 0.753414
O O12 0.246631 0.000000 0.762519
O O13 0.250000 0.250000 0.091351
O O14 0.256457 0.354227 0.097251
O O15 0.000000 0.301924 0.091764
O O16 0.500000 0.384967 0.351528
O O17 0.500000 0.500000 0.093487
O O18 0.236358 0.451501 0.090323
O O19 0.322976 0.500000 0.000000
O O20 0.500000 0.899017 0.127336
#
# Coordination Sequence:
#
# PCOD9483205 Si02
#       7
#    16  16  16  16  16   8  16
#     4   9  18  32  48  67  94 130 173 221 272 323
#     4  10  18  28  41  64  99 132 165 202 247 304
#     4  10  20  33  50  74 104 139 176 216 272 335
#     4   9  19  32  48  75 110 147 181 216 262 322
#     4  10  19  30  46  68  95 131 172 215 265 321
#     4  11  25  43  63  89 117 149 190 231 274 323
#     4  11  21  36  58  85 116 148 186 231 278 326
#
# _framework density 19.413755999999999
#
# number of rings (size 3 to 8) (size 9 to 14) (size 15 to 20)
#    0.000    2.077    2.308    1.615    0.000    4.308 
#    0.000    0.000    0.000    0.923    0.000    3.231 
#    0.000    0.000    0.000    6.615    0.000    7.077 
#
# Total GULP energy -289747.019412 kJ/mol
# GULP energy per Si atom -5572.058066 kJ/mol
# Density = 1.936957 g / cm^3
# Si number density = 19.413756 Si / 1000 Ang^3
#
#
#
# Elastic Constant Matrix: (Units=GPa)
#
#
# Indices 1 2 3 4 5 6 
#
# 1 23.6666 19.3212 4.2796 0.0000 0.0000 0.0000
# 2 19.3212 161.4090 21.7071 0.0000 0.0000 0.0000
# 3 4.2796 21.7071 38.5143 0.0000 0.0000 0.0000
# 4 0.0000 0.0000 0.0000 3.7867 0.0000 0.0000
# 5 0.0000 0.0000 0.0000 0.0000 6.3416 0.0000
# 6 0.0000 0.0000 0.0000 0.0000 0.0000 21.5825
#
#
#
# Elastic Compliance Matrix: (Units=1/GPa)
#
#
# Indices 1 2 3 4 5 6 
#
# 1 0.047005 -0.005328 -0.002220 0.000000 0.000000 0.000000
# 2 -0.005328 0.007307 -0.003527 0.000000 0.000000 0.000000
# 3 -0.002220 -0.003527 0.028199 0.000000 0.000000 0.000000
# 4 0.000000 0.000000 0.000000 0.264083 0.000000 0.000000
# 5 0.000000 0.000000 0.000000 0.000000 0.157689 0.000000
# 6 0.000000 0.000000 0.000000 0.000000 0.000000 0.046334
#
#
# Mechanical properties :
#
#
# Convention : Reuss Voigt Hill
#
# Bulk Modulus (GPa) = 16.56683 34.91175 25.73929
# Shear Modulus (GPa) = 8.43330 18.22762 13.33046
#
# Velocity S-wave (km/s) = 2.08648 3.06748 2.62324
# Velocity P-wave (km/s) = 3.78901 5.52883 4.73944
#
# Compressibility (1/GPa) = 0.06036158
#
# Stress axis : x y z
#
# Youngs Moduli (GPa) = 21.27441 136.84580 35.46262
#
# Poissons Ratio (x) = 0.72912 0.07873
# Poissons Ratio (y) = 0.11335 0.12506
# Poissons Ratio (z) = 0.04723 0.48259
#
# Static dielectric constant tensor:
#      x y z
#    x 1.704040 0.000000 0.000000 
#    y 0.000000 1.763430 0.000000 
#    z 0.000000 0.000000 1.688390 
# 
# From -- ./inp_files/68214.got.cif
#   From: 2010.05.17/outbox.cif.g08.bks.cpg/sg65_35_cif.got.tgz:68214.got - 2010.06.03 17:01:31.
