data_PCOD9483411
_publ_section_title
;
Structure prediction by ZEFSAII (Michael W. Deem and Ramdas Pophale) SiO2 
 PCOD9483411
Probable space group: C M M M
;
_chemical_formula_sum "Si O2"
_cell_formula_units_Z 88
_cell_length_a 36.978339
_cell_length_b 9.119200
_cell_length_c 20.286521
_cell_angle_alpha 90.000000
_cell_angle_beta 90.000000
_cell_angle_gamma 90.000000
_cell_volume 6840.875949
_symmetry_space_group_name_H-M "C M M M"
_symmetry_group_IT_number 65
_symmetry_cell_setting 'orthorhombic'
loop_
_space_group_symop_operation_xyz
x,y,z
-x,-y,z
x,-y,-z
-x,y,-z
-x,-y,-z
x,y,-z
-x,y,z
x,-y,z
1/2+x,1/2+y,z
1/2-x,1/2-y,z
1/2+x,1/2-y,-z
1/2-x,1/2+y,-z
1/2-x,1/2-y,-z
1/2+x,1/2+y,-z
1/2-x,1/2+y,z
1/2+x,1/2-y,z
loop_
_atom_site_type_symbol
_atom_site_label
_atom_site_fract_x
_atom_site_fract_y
_atom_site_fract_z
Si Si1 0.000000 0.321872 0.075270
Si Si2 0.043790 0.172458 0.427657
Si Si3 0.786411 0.331168 0.080099
Si Si4 0.927557 0.322421 0.846598
Si Si5 0.542376 0.823985 0.293919
Si Si6 0.638570 0.324754 0.078134
O O1 0.963680 0.278897 0.113266
O O2 0.000000 0.500000 0.074540
O O3 0.000000 0.270019 0.000000
O O4 0.056396 0.225358 0.500000
O O5 0.055932 0.256142 0.362391
O O6 0.000000 0.185217 0.428162
O O7 0.052212 0.000000 0.422435
O O8 0.787634 0.500000 0.102062
O O9 0.750000 0.250000 0.102785
O O10 0.822842 0.244663 0.097459
O O11 0.785128 0.332566 0.000000
O O12 0.924049 0.500000 0.850640
O O13 0.934884 0.282296 0.770508
O O14 0.893209 0.246827 0.879410
O O15 0.500000 0.781350 0.283885
O O16 0.542852 0.000000 0.298789
O O17 0.639407 0.500000 0.085704
O O18 0.632660 0.292704 0.000000
#
# Coordination Sequence:
#
# PCOD9483411 Si02
#       6
#     8  16  16  16  16  16
#     4   9  16  26  41  55  66  89 128 170 207 241
#     4   8  14  24  37  53  72  93 118 148 184 230
#     4   9  16  27  44  63  80  98 120 149 189 236
#     4  10  18  29  42  56  73  97 131 167 203 242
#     4   9  16  26  39  55  74  94 122 161 199 235
#     4  10  20  31  41  56  78 101 128 164 201 237
#
# _framework density 12.863849999999999
#
# number of rings (size 3 to 8) (size 9 to 14) (size 15 to 20)
#    0.000    2.818    0.909    2.182    0.000    5.091 
#    0.000    2.273    0.000    1.636    0.000    0.000 
#    0.000    0.000    0.000    0.000    0.000    0.909 
#
# Total GULP energy -245008.309073 kJ/mol
# GULP energy per Si atom -5568.370661 kJ/mol
# Density = 1.283457 g / cm^3
# Si number density = 12.863850 Si / 1000 Ang^3
#
#
#
# Elastic Constant Matrix: (Units=GPa)
#
#
# Indices 1 2 3 4 5 6 
#
# 1 95.0727 40.9661 52.7558 0.0000 0.0000 0.0000
# 2 40.9661 44.7612 42.6051 0.0000 0.0000 0.0000
# 3 52.7558 42.6051 106.1451 0.0000 0.0000 0.0000
# 4 0.0000 0.0000 0.0000 18.8583 0.0000 0.0000
# 5 0.0000 0.0000 0.0000 0.0000 2.5084 0.0000
# 6 0.0000 0.0000 0.0000 0.0000 0.0000 19.2376
#
#
#
# Elastic Compliance Matrix: (Units=1/GPa)
#
#
# Indices 1 2 3 4 5 6 
#
# 1 0.018284 -0.013082 -0.003836 0.000000 0.000000 0.000000
# 2 -0.013082 0.045513 -0.011766 0.000000 0.000000 0.000000
# 3 -0.003836 -0.011766 0.016051 0.000000 0.000000 0.000000
# 4 0.000000 0.000000 0.000000 0.053027 0.000000 0.000000
# 5 0.000000 0.000000 0.000000 0.000000 0.398666 0.000000
# 6 0.000000 0.000000 0.000000 0.000000 0.000000 0.051982
#
#
# Mechanical properties :
#
#
# Convention : Reuss Voigt Hill
#
# Bulk Modulus (GPa) = 44.48772 57.62589 51.05681
# Shear Modulus (GPa) = 7.71146 15.43098 11.57122
#
# Velocity S-wave (km/s) = 2.45106 3.46723 3.00244
# Velocity P-wave (km/s) = 6.53214 7.80531 7.19693
#
# Compressibility (1/GPa) = 0.02247811
#
# Stress axis : x y z
#
# Youngs Moduli (GPa) = 54.69208 21.97155 62.30263
#
# Poissons Ratio (x) = 0.28744 0.23902
# Poissons Ratio (y) = 0.71550 0.73307
# Poissons Ratio (z) = 0.20983 0.25852
#
# Static dielectric constant tensor:
#      x y z
#    x 1.396470 0.000000 0.000000 
#    y 0.000000 1.431060 0.000000 
#    z 0.000000 0.000000 1.420760 
# 
# From -- ./inp_files/60661.got.cif
#   From: 2010.05.17/outbox.cif.g08.bks.cpg/sg65_31_cif.got.tgz:60661.got - 2010.06.03 17:01:31.
