data_PCOD9483914
_publ_section_title
;
Structure prediction by ZEFSAII (Michael W. Deem and Ramdas Pophale) SiO2 
 PCOD9483914
Probable space group: C M M M
;
_chemical_formula_sum "Si O2"
_cell_formula_units_Z 112
_cell_length_a 28.472313
_cell_length_b 14.364384
_cell_length_c 13.335242
_cell_angle_alpha 90.000000
_cell_angle_beta 90.000000
_cell_angle_gamma 90.000000
_cell_volume 5453.943784
_symmetry_space_group_name_H-M "C M M M"
_symmetry_group_IT_number 65
_symmetry_cell_setting 'orthorhombic'
loop_
_space_group_symop_operation_xyz
x,y,z
-x,-y,z
x,-y,-z
-x,y,-z
-x,-y,-z
x,y,-z
-x,y,z
x,-y,z
1/2+x,1/2+y,z
1/2-x,1/2-y,z
1/2+x,1/2-y,-z
1/2-x,1/2+y,-z
1/2-x,1/2-y,-z
1/2+x,1/2+y,-z
1/2-x,1/2+y,z
1/2+x,1/2-y,z
loop_
_atom_site_type_symbol
_atom_site_label
_atom_site_fract_x
_atom_site_fract_y
_atom_site_fract_z
Si Si1 0.428285 0.608308 0.386887
Si Si2 0.727120 0.104560 0.331532
Si Si3 0.376836 0.887881 0.384034
Si Si4 0.780319 0.345304 0.891580
Si Si5 0.827479 0.111089 0.306532
Si Si6 0.447283 0.773493 0.756234
Si Si7 0.365683 0.281457 0.112092
O O1 0.443621 0.626213 0.500000
O O2 0.437385 0.500000 0.362989
O O3 0.372088 0.623553 0.377988
O O4 0.449723 0.679185 0.308884
O O5 0.676733 0.145600 0.362284
O O6 0.727814 0.100989 0.210274
O O7 0.778289 0.148221 0.351234
O O8 0.727240 0.000000 0.374737
O O9 0.388418 0.867301 0.500000
O O10 0.413965 0.841305 0.309334
O O11 0.377346 0.000000 0.370537
O O12 0.750000 0.250000 0.886711
O O13 0.833945 0.311091 0.890257
O O14 0.769678 0.388750 0.000000
O O15 0.842632 0.156130 0.200215
O O16 0.821492 0.000000 0.292198
O O17 0.500000 0.808822 0.773066
O O18 0.417878 0.745981 0.854690
O O19 0.363420 0.322757 0.000000
#
# Coordination Sequence:
#
# PCOD9483914 Si02
#       7
#    16  16  16  16  16  16  16
#     4   9  19  36  56  81 113 144 177 220 271 328
#     4  10  19  32  51  77 110 145 179 216 260 315
#     4  10  22  39  57  80 111 145 184 232 282 329
#     4  10  18  30  50  76 105 139 174 212 260 314
#     4   9  18  31  51  80 114 150 183 214 255 317
#     4  11  23  39  60  82 105 137 185 238 286 338
#     4  10  20  35  55  77 107 143 178 221 272 324
#
# _framework density 20.535598
#
# number of rings (size 3 to 8) (size 9 to 14) (size 15 to 20)
#    0.000    2.143    2.857    0.429    0.000    3.143 
#    0.000    5.714    0.000    3.429    0.000    5.000 
#    0.000    0.000    0.000    0.000    0.000    0.000 
#
# Total GULP energy -312384.363728 kJ/mol
# GULP energy per Si atom -5578.292209 kJ/mol
# Density = 2.048886 g / cm^3
# Si number density = 20.535598 Si / 1000 Ang^3
#
#
#
# Elastic Constant Matrix: (Units=GPa)
#
#
# Indices 1 2 3 4 5 6 
#
# 1 157.2277 14.5496 6.6184 0.0000 0.0000 0.0000
# 2 14.5496 41.5640 6.5761 0.0000 0.0000 0.0000
# 3 6.6184 6.5761 57.7229 0.0000 0.0000 0.0000
# 4 0.0000 0.0000 0.0000 12.7086 0.0000 0.0000
# 5 0.0000 0.0000 0.0000 0.0000 -5.5955 0.0000
# 6 0.0000 0.0000 0.0000 0.0000 0.0000 18.3796
#
#
#
# Elastic Compliance Matrix: (Units=1/GPa)
#
#
# Indices 1 2 3 4 5 6 
#
# 1 0.006587 -0.002227 -0.000502 0.000000 0.000000 0.000000
# 2 -0.002227 0.025254 -0.002622 0.000000 0.000000 0.000000
# 3 -0.000502 -0.002622 0.017680 0.000000 0.000000 0.000000
# 4 0.000000 0.000000 0.000000 0.078687 0.000000 0.000000
# 5 0.000000 0.000000 0.000000 0.000000 -0.178714 0.000000
# 6 0.000000 0.000000 0.000000 0.000000 0.000000 0.054408
#
#
# Mechanical properties :
#
#
# Convention : Reuss Voigt Hill
#
# Bulk Modulus (GPa) = 25.75903 34.66700 30.21302
# Shear Modulus (GPa) = 181.53673 20.34989 100.94331
#
# Velocity S-wave (km/s) = 9.41238 3.15136 7.01869
# Velocity P-wave (km/s) = 11.43218 5.49177 8.96812
#
# Compressibility (1/GPa) = 0.03882134
#
# Stress axis : x y z
#
# Youngs Moduli (GPa) = 151.80588 39.59846 56.56001
#
# Poissons Ratio (x) = 0.08817 0.02837
# Poissons Ratio (y) = 0.33801 0.14829
# Poissons Ratio (z) = 0.07615 0.10382
#
# Static dielectric constant tensor:
#      x y z
#    x 1.790990 0.000000 0.000000 
#    y 0.000000 1.755170 0.000000 
#    z 0.000000 0.000000 1.723980 
# 
# From -- ./inp_files/47015.got.cif
#   From: 2010.05.17/outbox.cif.g08.bks.cpg/sg65_24_cif.got.tgz:47015.got - 2010.06.03 17:01:31.
