data_PCOD9483282
_publ_section_title
;
Structure prediction by ZEFSAII (Michael W. Deem and Ramdas Pophale) SiO2 
 PCOD9483282
Probable space group: C M M M
;
_chemical_formula_sum "Si O2"
_cell_formula_units_Z 104
_cell_length_a 24.738346
_cell_length_b 23.843474
_cell_length_c 7.921109
_cell_angle_alpha 90.000000
_cell_angle_beta 90.000000
_cell_angle_gamma 90.000000
_cell_volume 4672.251170
_symmetry_space_group_name_H-M "C M M M"
_symmetry_group_IT_number 65
_symmetry_cell_setting 'orthorhombic'
loop_
_space_group_symop_operation_xyz
x,y,z
-x,-y,z
x,-y,-z
-x,y,-z
-x,-y,-z
x,y,-z
-x,y,z
x,-y,z
1/2+x,1/2+y,z
1/2-x,1/2-y,z
1/2+x,1/2-y,-z
1/2-x,1/2+y,-z
1/2-x,1/2-y,-z
1/2+x,1/2+y,-z
1/2-x,1/2+y,z
1/2+x,1/2-y,z
loop_
_atom_site_type_symbol
_atom_site_label
_atom_site_fract_x
_atom_site_fract_y
_atom_site_fract_z
Si Si1 0.116677 0.623134 0.707113
Si Si2 0.083969 0.742412 0.309694
Si Si3 0.227576 0.500000 0.200927
Si Si4 0.194642 0.220925 0.193993
Si Si5 0.562581 0.363780 0.818208
Si Si6 0.066461 0.065568 0.500000
Si Si7 0.604666 0.000000 0.305698
Si Si8 0.756337 0.619543 0.699699
O O1 0.116738 0.622347 0.500000
O O2 0.083545 0.678740 0.759102
O O3 0.092890 0.562627 0.764942
O O4 0.180461 0.628516 0.757978
O O5 0.062448 0.742314 0.500000
O O6 0.147290 0.757829 0.310054
O O7 0.061891 0.796727 0.213938
O O8 0.169930 0.500000 0.297086
O O9 0.256368 0.555753 0.258865
O O10 0.217763 0.500000 0.000000
O O11 0.250000 0.250000 0.243832
O O12 0.211479 0.156944 0.211381
O O13 0.181305 0.235121 0.000000
O O14 0.500000 0.381097 0.827621
O O15 0.585618 0.399063 0.662808
O O16 0.588702 0.374134 0.000000
O O17 0.000000 0.067058 0.500000
O O18 0.081817 0.000000 0.500000
O O19 0.585721 0.000000 0.500000
O O20 0.755217 0.630452 0.500000
#
# Coordination Sequence:
#
# PCOD9483282 Si02
#       8
#    16  16   8  16  16   8   8  16
#     4   8  15  26  46  72  98 133 178 223 267 312
#     4  11  20  33  54  79 108 146 186 226 276 335
#     4  10  18  28  44  66  90 121 164 213 266 311
#     4  11  22  33  47  72 105 138 176 223 270 320
#     4  10  21  38  60  88 120 150 183 229 282 337
#     4   9  18  36  64  94 119 145 181 227 278 338
#     4   8  14  28  44  66  97 131 174 222 264 313
#     4  10  18  32  49  65  90 129 174 214 258 310
#
# _framework density 22.259077999999999
#
# number of rings (size 3 to 8) (size 9 to 14) (size 15 to 20)
#    0.000    2.231    2.308    3.000    0.000    0.923 
#    0.000    2.308    1.692    0.000    0.000    0.538 
#    0.000    4.308    0.000    0.000    0.000    0.000 
#
# Total GULP energy -289954.669307 kJ/mol
# GULP energy per Si atom -5576.051333 kJ/mol
# Density = 2.220842 g / cm^3
# Si number density = 22.259078 Si / 1000 Ang^3
#
#
#
# Elastic Constant Matrix: (Units=GPa)
#
#
# Indices 1 2 3 4 5 6 
#
# 1 25.7732 3.6892 18.4674 0.0000 0.0000 0.0000
# 2 3.6892 171.5120 31.1033 0.0000 0.0000 0.0000
# 3 18.4674 31.1033 90.8596 0.0000 0.0000 0.0000
# 4 0.0000 0.0000 0.0000 6.5413 0.0000 0.0000
# 5 0.0000 0.0000 0.0000 0.0000 6.9441 0.0000
# 6 0.0000 0.0000 0.0000 0.0000 0.0000 24.5298
#
#
#
# Elastic Compliance Matrix: (Units=1/GPa)
#
#
# Indices 1 2 3 4 5 6 
#
# 1 0.045503 0.000745 -0.009503 0.000000 0.000000 0.000000
# 2 0.000745 0.006229 -0.002284 0.000000 0.000000 0.000000
# 3 -0.009503 -0.002284 0.013719 0.000000 0.000000 0.000000
# 4 0.000000 0.000000 0.000000 0.152874 0.000000 0.000000
# 5 0.000000 0.000000 0.000000 0.000000 0.144008 0.000000
# 6 0.000000 0.000000 0.000000 0.000000 0.000000 0.040767
#
#
# Mechanical properties :
#
#
# Convention : Reuss Voigt Hill
#
# Bulk Modulus (GPa) = 23.05943 43.85162 33.45553
# Shear Modulus (GPa) = 11.37296 23.26204 17.31750
#
# Velocity S-wave (km/s) = 2.26284 3.23624 2.79229
# Velocity P-wave (km/s) = 4.14841 5.80583 5.04564
#
# Compressibility (1/GPa) = 0.04336620
#
# Stress axis : x y z
#
# Youngs Moduli (GPa) = 21.97657 160.54986 72.89004
#
# Poissons Ratio (x) = -0.11956 0.69271
# Poissons Ratio (y) = -0.01637 0.16645
# Poissons Ratio (z) = 0.20885 0.36662
#
# Static dielectric constant tensor:
#      x y z
#    x 1.791580 0.000000 0.000000 
#    y 0.000000 2.009150 0.000000 
#    z 0.000000 0.000000 1.826010 
# 
# From -- ./inp_files/16826.got.cif
#   From: 2010.05.17/outbox.cif.g08.bks.cpg/sg65_9_cif.got.tgz:16826.got - 2010.06.03 17:01:31.
