data_PCOD9483461
_publ_section_title
;
Structure prediction by ZEFSAII (Michael W. Deem and Ramdas Pophale) SiO2 
 PCOD9483461
Probable space group: C M M M
;
_chemical_formula_sum "Si O2"
_cell_formula_units_Z 72
_cell_length_a 7.355032
_cell_length_b 21.868250
_cell_length_c 22.867182
_cell_angle_alpha 90.000000
_cell_angle_beta 90.000000
_cell_angle_gamma 90.000000
_cell_volume 3677.995936
_symmetry_space_group_name_H-M "C M M M"
_symmetry_group_IT_number 65
_symmetry_cell_setting 'orthorhombic'
loop_
_space_group_symop_operation_xyz
x,y,z
-x,-y,z
x,-y,-z
-x,y,-z
-x,-y,-z
x,y,-z
-x,y,z
x,-y,z
1/2+x,1/2+y,z
1/2-x,1/2-y,z
1/2+x,1/2-y,-z
1/2-x,1/2+y,-z
1/2-x,1/2-y,-z
1/2+x,1/2+y,-z
1/2-x,1/2+y,z
1/2+x,1/2-y,z
loop_
_atom_site_type_symbol
_atom_site_label
_atom_site_fract_x
_atom_site_fract_y
_atom_site_fract_z
Si Si1 0.216886 0.321747 0.755568
Si Si2 0.285556 0.820123 0.000000
Si Si3 0.779453 0.500000 0.069306
Si Si4 0.278093 0.127397 0.878896
Si Si5 0.000000 0.073311 0.434457
Si Si6 0.218486 0.428112 0.664872
O O1 0.250000 0.250000 0.741301
O O2 0.286250 0.339605 0.820274
O O3 0.276244 0.375763 0.711244
O O4 0.000000 0.327500 0.756886
O O5 0.250000 0.750000 0.000000
O O6 0.212246 0.842785 0.061257
O O7 0.500000 0.836497 0.000000
O O8 0.727209 0.442256 0.108489
O O9 0.000000 0.500000 0.064972
O O10 0.719296 0.500000 0.000000
O O11 0.500000 0.130380 0.877117
O O12 0.823781 0.087200 0.395009
O O13 0.000000 0.099492 0.500000
O O14 0.000000 0.000000 0.440001
O O15 0.261294 0.500000 0.680615
O O16 0.000000 0.425322 0.658186
#
# Coordination Sequence:
#
# PCOD9483461 Si02
#       6
#    16   8   8  16   8  16
#     4  10  21  34  51  76 105 145 183 228 281 336
#     4  10  18  29  45  65  91 126 165 218 268 324
#     4   9  14  24  44  70  96 126 164 221 285 332
#     4   9  17  28  44  69  98 127 172 222 275 331
#     4   9  18  34  60  92 122 153 186 226 279 331
#     4   9  19  35  56  86 118 150 191 235 278 329
#
# _framework density 19.575879
#
# number of rings (size 3 to 8) (size 9 to 14) (size 15 to 20)
#    0.000    2.667    1.111    0.667    3.111    0.444 
#    0.000    2.222    0.000    0.667    0.000    3.111 
#    0.000    0.000    0.000    0.000    0.000    0.000 
#
# Total GULP energy -200468.614813 kJ/mol
# GULP energy per Si atom -5568.572634 kJ/mol
# Density = 1.953132 g / cm^3
# Si number density = 19.575879 Si / 1000 Ang^3
#
#
#
# Elastic Constant Matrix: (Units=GPa)
#
#
# Indices 1 2 3 4 5 6 
#
# 1 77.2032 12.1709 31.6597 0.0000 0.0000 0.0000
# 2 12.1709 151.5138 86.5787 0.0000 0.0000 0.0000
# 3 31.6597 86.5787 169.2262 0.0000 0.0000 0.0000
# 4 0.0000 0.0000 0.0000 -12.4945 0.0000 0.0000
# 5 0.0000 0.0000 0.0000 0.0000 47.0588 0.0000
# 6 0.0000 0.0000 0.0000 0.0000 0.0000 11.0989
#
#
#
# Elastic Compliance Matrix: (Units=1/GPa)
#
#
# Indices 1 2 3 4 5 6 
#
# 1 0.014059 0.000528 -0.002900 0.000000 0.000000 0.000000
# 2 0.000528 0.009347 -0.004881 0.000000 0.000000 0.000000
# 3 -0.002900 -0.004881 0.008949 0.000000 0.000000 0.000000
# 4 0.000000 0.000000 0.000000 -0.080035 0.000000 0.000000
# 5 0.000000 0.000000 0.000000 0.000000 0.021250 0.000000
# 6 0.000000 0.000000 0.000000 0.000000 0.000000 0.090099
#
#
# Mechanical properties :
#
#
# Convention : Reuss Voigt Hill
#
# Bulk Modulus (GPa) = 56.02730 73.19574 64.61152
# Shear Modulus (GPa) = 59.43588 26.96821 43.20205
#
# Velocity S-wave (km/s) = 5.51613 3.71566 4.70286
# Velocity P-wave (km/s) = 8.32184 7.47530 7.90990
#
# Compressibility (1/GPa) = 0.01784844
#
# Stress axis : x y z
#
# Youngs Moduli (GPa) = 71.12887 106.99139 111.74605
#
# Poissons Ratio (x) = -0.05649 0.32410
# Poissons Ratio (y) = -0.03756 0.54539
# Poissons Ratio (z) = 0.20630 0.52218
#
# Static dielectric constant tensor:
#      x y z
#    x 1.768600 0.000000 0.000000 
#    y 0.000000 2.742020 0.000000 
#    z 0.000000 0.000000 1.661870 
# 
# From -- ./inp_files/59405.got.cif
#   From: 2010.05.17/outbox.cif.g08.bks.cpg/sg65_30_cif.got.tgz:59405.got - 2010.06.03 17:01:31.
