data_PCOD9483242
_publ_section_title
;
Structure prediction by ZEFSAII (Michael W. Deem and Ramdas Pophale) SiO2 
 PCOD9483242
Probable space group: C M M M
;
_chemical_formula_sum "Si O2"
_cell_formula_units_Z 72
_cell_length_a 7.563287
_cell_length_b 26.812333
_cell_length_c 20.592522
_cell_angle_alpha 90.000000
_cell_angle_beta 90.000000
_cell_angle_gamma 90.000000
_cell_volume 4175.944555
_symmetry_space_group_name_H-M "C M M M"
_symmetry_group_IT_number 65
_symmetry_cell_setting 'orthorhombic'
loop_
_space_group_symop_operation_xyz
x,y,z
-x,-y,z
x,-y,-z
-x,y,-z
-x,-y,-z
x,y,-z
-x,y,z
x,-y,z
1/2+x,1/2+y,z
1/2-x,1/2-y,z
1/2+x,1/2-y,-z
1/2-x,1/2+y,-z
1/2-x,1/2-y,-z
1/2+x,1/2+y,-z
1/2-x,1/2+y,z
1/2+x,1/2-y,z
loop_
_atom_site_type_symbol
_atom_site_label
_atom_site_fract_x
_atom_site_fract_y
_atom_site_fract_z
Si Si1 0.287856 0.306129 0.074212
Si Si2 0.283539 0.500000 0.924772
Si Si3 0.788957 0.439793 0.569875
Si Si4 0.712715 0.942735 0.289118
Si Si5 0.211297 0.098300 0.848911
O O1 0.500000 0.310604 0.071175
O O2 0.250000 0.250000 0.096941
O O3 0.220464 0.350507 0.119791
O O4 0.220697 0.311179 0.000000
O O5 0.500000 0.500000 0.923514
O O6 0.222268 0.450404 0.887560
O O7 0.230927 0.500000 0.000000
O O8 0.716828 0.422057 0.500000
O O9 0.769130 0.500000 0.570715
O O10 0.721021 0.423657 0.640591
O O11 0.000000 0.429889 0.568720
O O12 0.500000 0.945438 0.293774
O O13 0.755326 0.909706 0.227047
O O14 0.776160 0.000000 0.278298
O O15 0.000000 0.098415 0.857504
#
# Coordination Sequence:
#
# PCOD9483242 Si02
#       5
#    16   8  16  16  16
#     4   9  18  32  48  64  80 102 137 178 215 249
#     4   9  16  26  41  59  78 105 140 170 193 229
#     4   7  10  18  33  52  74 104 141 172 194 224
#     4   9  16  25  38  58  85 113 139 169 204 240
#     4  10  18  28  43  62  83 109 139 169 203 248
#
# _framework density 17.241609
#
# number of rings (size 3 to 8) (size 9 to 14) (size 15 to 20)
#    0.000    3.222    1.111    2.667    0.000    3.556 
#    0.000    0.000    0.000    3.333    0.000    3.111 
#    0.000    0.889    0.000    2.000    0.000    3.111 
#
# Total GULP energy -200459.917670 kJ/mol
# GULP energy per Si atom -5568.331046 kJ/mol
# Density = 1.720237 g / cm^3
# Si number density = 17.241609 Si / 1000 Ang^3
#
#
#
# Elastic Constant Matrix: (Units=GPa)
#
#
# Indices 1 2 3 4 5 6 
#
# 1 38.9336 7.2149 2.2735 0.0000 0.0000 0.0000
# 2 7.2149 110.3669 90.6193 0.0000 0.0000 0.0000
# 3 2.2735 90.6193 177.2137 0.0000 0.0000 0.0000
# 4 0.0000 0.0000 0.0000 15.3330 0.0000 0.0000
# 5 0.0000 0.0000 0.0000 0.0000 16.6281 0.0000
# 6 0.0000 0.0000 0.0000 0.0000 0.0000 -64.1459
#
#
#
# Elastic Compliance Matrix: (Units=1/GPa)
#
#
# Indices 1 2 3 4 5 6 
#
# 1 0.026088 -0.002466 0.000926 0.000000 0.000000 0.000000
# 2 -0.002466 0.015851 -0.008074 0.000000 0.000000 0.000000
# 3 0.000926 -0.008074 0.009760 0.000000 0.000000 0.000000
# 4 0.000000 0.000000 0.000000 0.065219 0.000000 0.000000
# 5 0.000000 0.000000 0.000000 0.000000 0.060139 0.000000
# 6 0.000000 0.000000 0.000000 0.000000 0.000000 -0.015589
#
#
# Mechanical properties :
#
#
# Convention : Reuss Voigt Hill
#
# Bulk Modulus (GPa) = 30.79645 58.52553 44.66099
# Shear Modulus (GPa) = 26.10719 8.65681 17.38200
#
# Velocity S-wave (km/s) = 3.89549 2.24316 3.17857
# Velocity P-wave (km/s) = 6.17524 6.38178 6.27936
#
# Compressibility (1/GPa) = 0.03247128
#
# Stress axis : x y z
#
# Youngs Moduli (GPa) = 38.33231 63.08661 102.46213
#
# Poissons Ratio (x) = 0.15557 -0.09491
# Poissons Ratio (y) = 0.09453 0.82728
# Poissons Ratio (z) = -0.03551 0.50936
#
# Static dielectric constant tensor:
#      x y z
#    x 1.665090 0.000000 0.000000 
#    y 0.000000 1.556380 0.000000 
#    z 0.000000 0.000000 1.636830 
# 
# From -- ./inp_files/51278.got.cif
#   From: 2010.05.17/outbox.cif.g08.bks.cpg/sg65_26_cif.got.tgz:51278.got - 2010.06.03 17:01:31.
