data_PCOD9483277
_publ_section_title
;
Structure prediction by ZEFSAII (Michael W. Deem and Ramdas Pophale) SiO2 
 PCOD9483277
Probable space group: C M M M
;
_chemical_formula_sum "Si O2"
_cell_formula_units_Z 104
_cell_length_a 26.533804
_cell_length_b 18.542912
_cell_length_c 13.698138
_cell_angle_alpha 90.000000
_cell_angle_beta 90.000000
_cell_angle_gamma 90.000000
_cell_volume 6739.675569
_symmetry_space_group_name_H-M "C M M M"
_symmetry_group_IT_number 65
_symmetry_cell_setting 'orthorhombic'
loop_
_space_group_symop_operation_xyz
x,y,z
-x,-y,z
x,-y,-z
-x,y,-z
-x,-y,-z
x,y,-z
-x,y,z
x,-y,z
1/2+x,1/2+y,z
1/2-x,1/2-y,z
1/2+x,1/2-y,-z
1/2-x,1/2+y,-z
1/2-x,1/2-y,-z
1/2+x,1/2+y,-z
1/2-x,1/2+y,z
1/2+x,1/2-y,z
loop_
_atom_site_type_symbol
_atom_site_label
_atom_site_fract_x
_atom_site_fract_y
_atom_site_fract_z
Si Si1 0.559265 0.000000 0.388208
Si Si2 0.558699 0.415203 0.260037
Si Si3 0.283509 0.321454 0.256438
Si Si4 0.399496 0.144789 0.612549
Si Si5 0.849802 0.084375 0.115811
Si Si6 0.787194 0.585289 0.610068
Si Si7 0.116627 0.199240 0.617346
O O1 0.575835 0.074605 0.339922
O O2 0.500000 0.000000 0.396792
O O3 0.581897 0.000000 0.500000
O O4 0.500000 0.397963 0.241720
O O5 0.561579 0.500000 0.285705
O O6 0.595904 0.404319 0.167667
O O7 0.582614 0.366130 0.344620
O O8 0.250000 0.250000 0.235884
O O9 0.310455 0.360508 0.165161
O O10 0.248597 0.379836 0.310419
O O11 0.328744 0.304085 0.332003
O O12 0.417957 0.147039 0.500000
O O13 0.340219 0.126937 0.612002
O O14 0.407477 0.224648 0.651350
O O15 0.835774 0.000000 0.135130
O O16 0.852774 0.094180 0.000000
O O17 0.766054 0.593838 0.500000
O O18 0.795748 0.500000 0.625527
O O19 0.121363 0.199675 0.500000
#
# Coordination Sequence:
#
# PCOD9483277 Si02
#       7
#     8  16  16  16  16  16  16
#     4   9  16  26  40  58  82 112 155 207 242 267
#     4   9  19  35  53  73  95 122 159 200 243 292
#     4  11  20  30  47  71  97 127 162 197 239 282
#     4   9  16  27  41  59  84 121 162 195 230 268
#     4   9  19  36  54  72  95 119 150 197 250 302
#     4  10  18  28  44  65  93 130 168 200 229 268
#     4  10  20  31  45  67  99 133 165 196 228 274
#
# _framework density 15.431010000000001
#
# number of rings (size 3 to 8) (size 9 to 14) (size 15 to 20)
#    0.000    2.385    2.308    0.923    0.000    3.077 
#    0.000    3.846    0.000    0.000    0.000    0.000 
#    0.000    0.000    0.000    0.000    0.000   17.923 
#
# Total GULP energy -289493.538927 kJ/mol
# GULP energy per Si atom -5567.183441 kJ/mol
# Density = 1.539589 g / cm^3
# Si number density = 15.431010 Si / 1000 Ang^3
#
#
#
# Elastic Constant Matrix: (Units=GPa)
#
#
# Indices 1 2 3 4 5 6 
#
# 1 74.0062 45.6683 31.0285 0.0000 0.0000 0.0000
# 2 45.6683 96.3811 45.9195 0.0000 0.0000 0.0000
# 3 31.0285 45.9195 64.8930 0.0000 0.0000 0.0000
# 4 0.0000 0.0000 0.0000 14.0402 0.0000 0.0000
# 5 0.0000 0.0000 0.0000 0.0000 7.1076 0.0000
# 6 0.0000 0.0000 0.0000 0.0000 0.0000 17.9032
#
#
#
# Elastic Compliance Matrix: (Units=1/GPa)
#
#
# Indices 1 2 3 4 5 6 
#
# 1 0.019853 -0.007369 -0.004279 0.000000 0.000000 0.000000
# 2 -0.007369 0.018387 -0.009488 0.000000 0.000000 0.000000
# 3 -0.004279 -0.009488 0.024170 0.000000 0.000000 0.000000
# 4 0.000000 0.000000 0.000000 0.071224 0.000000 0.000000
# 5 0.000000 0.000000 0.000000 0.000000 0.140695 0.000000
# 6 0.000000 0.000000 0.000000 0.000000 0.000000 0.055856
#
#
# Mechanical properties :
#
#
# Convention : Reuss Voigt Hill
#
# Bulk Modulus (GPa) = 49.65263 53.39030 51.52147
# Shear Modulus (GPa) = 13.18672 15.32112 14.25392
#
# Velocity S-wave (km/s) = 2.92646 3.15442 3.04257
# Velocity P-wave (km/s) = 6.60802 6.92399 6.76785
#
# Compressibility (1/GPa) = 0.02013992
#
# Stress axis : x y z
#
# Youngs Moduli (GPa) = 50.36925 54.38524 41.37410
#
# Poissons Ratio (x) = 0.40074 0.17703
# Poissons Ratio (y) = 0.37115 0.39256
# Poissons Ratio (z) = 0.21552 0.51600
#
# Static dielectric constant tensor:
#      x y z
#    x 1.517160 0.000000 0.000000 
#    y 0.000000 1.557490 0.000000 
#    z 0.000000 0.000000 1.481860 
# 
# From -- ./inp_files/47183.got.cif
#   From: 2010.05.17/outbox.cif.g08.bks.cpg/sg65_24_cif.got.tgz:47183.got - 2010.06.03 17:01:31.
