data_PCOD9483227
_publ_section_title
;
Structure prediction by ZEFSAII (Michael W. Deem and Ramdas Pophale) SiO2 
 PCOD9483227
Probable space group: C M M M
;
_chemical_formula_sum "Si O2"
_cell_formula_units_Z 88
_cell_length_a 8.626081
_cell_length_b 27.986749
_cell_length_c 22.113615
_cell_angle_alpha 90.000000
_cell_angle_beta 90.000000
_cell_angle_gamma 90.000000
_cell_volume 5338.579678
_symmetry_space_group_name_H-M "C M M M"
_symmetry_group_IT_number 65
_symmetry_cell_setting 'orthorhombic'
loop_
_space_group_symop_operation_xyz
x,y,z
-x,-y,z
x,-y,-z
-x,y,-z
-x,-y,-z
x,y,-z
-x,y,z
x,-y,z
1/2+x,1/2+y,z
1/2-x,1/2-y,z
1/2+x,1/2-y,-z
1/2-x,1/2+y,-z
1/2-x,1/2-y,-z
1/2+x,1/2+y,-z
1/2-x,1/2+y,z
1/2+x,1/2-y,z
loop_
_atom_site_type_symbol
_atom_site_label
_atom_site_fract_x
_atom_site_fract_y
_atom_site_fract_z
Si Si1 0.687209 0.100121 0.068299
Si Si2 0.812727 0.849674 0.752219
Si Si3 0.815058 0.304280 0.500000
Si Si4 0.686342 0.696022 0.625758
Si Si5 0.186908 0.053019 0.813329
Si Si6 0.314961 0.801048 0.129734
O O1 0.500000 0.096949 0.071046
O O2 0.757162 0.066152 0.119375
O O3 0.730420 0.154438 0.087024
O O4 0.736649 0.089404 0.000000
O O5 0.767752 0.833426 0.685251
O O6 0.761756 0.903199 0.770590
O O7 0.746436 0.814669 0.803557
O O8 0.000000 0.847648 0.755720
O O9 0.750000 0.250000 0.500000
O O10 0.752465 0.324929 0.436945
O O11 0.000000 0.303283 0.500000
O O12 0.500000 0.698032 0.621812
O O13 0.750000 0.750000 0.632475
O O14 0.000000 0.053092 0.812813
O O15 0.240794 0.000000 0.796024
O O16 0.500000 0.798736 0.131272
O O17 0.250000 0.750000 0.110432
#
# Coordination Sequence:
#
# PCOD9483227 Si02
#       6
#    16  16   8  16  16  16
#     4   9  19  34  48  64  88 117 149 183 221 269
#     4   9  18  31  47  67  90 118 150 184 223 266
#     4  10  18  28  42  62  91 124 155 183 212 247
#     4  10  18  28  43  64  92 123 153 181 212 252
#     4   9  18  33  51  70  91 113 142 184 231 274
#     4  10  19  30  45  64  88 118 150 185 222 262
#
# _framework density 16.483785999999998
#
# number of rings (size 3 to 8) (size 9 to 14) (size 15 to 20)
#    0.000    2.545    0.000    3.545    0.000    5.091 
#    0.000    1.818    0.000    0.000    0.000    0.636 
#    0.000    5.091    0.000    0.000    0.000    0.000 
#
# Total GULP energy -245315.302447 kJ/mol
# GULP energy per Si atom -5575.347783 kJ/mol
# Density = 1.644627 g / cm^3
# Si number density = 16.483786 Si / 1000 Ang^3
#
#
#
# Elastic Constant Matrix: (Units=GPa)
#
#
# Indices 1 2 3 4 5 6 
#
# 1 26.6219 10.6651 20.4441 0.0000 0.0000 0.0000
# 2 10.6651 70.7229 21.0918 0.0000 0.0000 0.0000
# 3 20.4441 21.0918 109.3586 0.0000 0.0000 0.0000
# 4 0.0000 0.0000 0.0000 9.6262 0.0000 0.0000
# 5 0.0000 0.0000 0.0000 0.0000 23.7949 0.0000
# 6 0.0000 0.0000 0.0000 0.0000 0.0000 16.8188
#
#
#
# Elastic Compliance Matrix: (Units=1/GPa)
#
#
# Indices 1 2 3 4 5 6 
#
# 1 0.045204 -0.004559 -0.007571 0.000000 0.000000 0.000000
# 2 -0.004559 0.015462 -0.002130 0.000000 0.000000 0.000000
# 3 -0.007571 -0.002130 0.010970 0.000000 0.000000 0.000000
# 4 0.000000 0.000000 0.000000 0.103884 0.000000 0.000000
# 5 0.000000 0.000000 0.000000 0.000000 0.042026 0.000000
# 6 0.000000 0.000000 0.000000 0.000000 0.000000 0.059457
#
#
# Mechanical properties :
#
#
# Convention : Reuss Voigt Hill
#
# Bulk Modulus (GPa) = 23.19301 34.56725 28.88013
# Shear Modulus (GPa) = 15.63011 20.34814 17.98912
#
# Velocity S-wave (km/s) = 3.08264 3.51726 3.30710
# Velocity P-wave (km/s) = 5.17407 6.12461 5.66930
#
# Compressibility (1/GPa) = 0.04311643
#
# Stress axis : x y z
#
# Youngs Moduli (GPa) = 22.12204 64.67311 91.15379
#
# Poissons Ratio (x) = 0.29483 0.69016
# Poissons Ratio (y) = 0.10085 0.19416
# Poissons Ratio (z) = 0.16749 0.13775
#
# Static dielectric constant tensor:
#      x y z
#    x 1.561420 0.000000 0.000000 
#    y 0.000000 1.556590 0.000000 
#    z 0.000000 0.000000 1.561210 
# 
# From -- ./inp_files/60656.got.cif
#   From: 2010.05.17/outbox.cif.g08.bks.cpg/sg65_31_cif.got.tgz:60656.got - 2010.06.03 17:01:31.
