data_PCOD9483963
_publ_section_title
;
Structure prediction by ZEFSAII (Michael W. Deem and Ramdas Pophale) SiO2 
 PCOD9483963
Probable space group: C M M M
;
_chemical_formula_sum "Si O2"
_cell_formula_units_Z 80
_cell_length_a 21.122807
_cell_length_b 25.721849
_cell_length_c 8.651675
_cell_angle_alpha 90.000000
_cell_angle_beta 90.000000
_cell_angle_gamma 90.000000
_cell_volume 4700.607748
_symmetry_space_group_name_H-M "C M M M"
_symmetry_group_IT_number 65
_symmetry_cell_setting 'orthorhombic'
loop_
_space_group_symop_operation_xyz
x,y,z
-x,-y,z
x,-y,-z
-x,y,-z
-x,-y,-z
x,y,-z
-x,y,z
x,-y,z
1/2+x,1/2+y,z
1/2-x,1/2-y,z
1/2+x,1/2-y,-z
1/2-x,1/2+y,-z
1/2-x,1/2-y,-z
1/2+x,1/2+y,-z
1/2-x,1/2+y,z
1/2+x,1/2-y,z
loop_
_atom_site_type_symbol
_atom_site_label
_atom_site_fract_x
_atom_site_fract_y
_atom_site_fract_z
Si Si1 0.245302 0.114126 0.683648
Si Si2 0.111624 0.613380 0.186479
Si Si3 0.688943 0.284099 0.184968
Si Si4 0.742699 0.000000 0.682771
Si Si5 0.896064 0.500000 0.817608
Si Si6 0.429797 0.777860 0.315411
O O1 0.251331 0.122267 0.500000
O O2 0.315364 0.117852 0.758033
O O3 0.200892 0.158057 0.753658
O O4 0.223144 0.054658 0.710461
O O5 0.084275 0.557197 0.240974
O O6 0.077194 0.663664 0.251705
O O7 0.110265 0.614240 0.000000
O O8 0.750000 0.250000 0.234770
O O9 0.625961 0.257126 0.247200
O O10 0.687496 0.284241 0.000000
O O11 0.679444 0.000000 0.785819
O O12 0.723384 0.000000 0.500000
O O13 0.909726 0.500000 0.000000
O O14 0.423437 0.779345 0.500000
O O15 0.500000 0.758201 0.275587
#
# Coordination Sequence:
#
# PCOD9483963 Si02
#       6
#    16  16  16   8   8  16
#     4  10  18  30  51  77 107 138 170 211 256 302
#     4  10  18  31  50  73 101 135 174 215 259 304
#     4  11  22  35  54  80 106 135 175 216 258 311
#     4   8  16  28  44  73 106 135 166 204 254 304
#     4   8  16  28  45  69  98 132 171 213 254 299
#     4  11  24  39  54  74 101 136 176 217 264 314
#
# _framework density 17.019075000000001
#
# number of rings (size 3 to 8) (size 9 to 14) (size 15 to 20)
#    0.000    2.000    2.000    2.400    0.000    4.000 
#    0.000    0.500    0.000    3.000    0.000    0.700 
#    0.000    5.600    0.000    0.000    0.000    0.000 
#
# Total GULP energy -223083.784334 kJ/mol
# GULP energy per Si atom -5577.094608 kJ/mol
# Density = 1.698034 g / cm^3
# Si number density = 17.019075 Si / 1000 Ang^3
#
#
#
# Elastic Constant Matrix: (Units=GPa)
#
#
# Indices 1 2 3 4 5 6 
#
# 1 87.3240 60.9962 32.6562 0.0000 0.0000 0.0000
# 2 60.9962 122.4556 33.8867 0.0000 0.0000 0.0000
# 3 32.6562 33.8867 43.5834 0.0000 0.0000 0.0000
# 4 0.0000 0.0000 0.0000 27.1660 0.0000 0.0000
# 5 0.0000 0.0000 0.0000 0.0000 42.7845 0.0000
# 6 0.0000 0.0000 0.0000 0.0000 0.0000 18.0394
#
#
#
# Elastic Compliance Matrix: (Units=1/GPa)
#
#
# Indices 1 2 3 4 5 6 
#
# 1 0.020135 -0.007460 -0.009287 0.000000 0.000000 0.000000
# 2 -0.007460 0.013168 -0.004649 0.000000 0.000000 0.000000
# 3 -0.009287 -0.004649 0.033518 0.000000 0.000000 0.000000
# 4 0.000000 0.000000 0.000000 0.036811 0.000000 0.000000
# 5 0.000000 0.000000 0.000000 0.000000 0.023373 0.000000
# 6 0.000000 0.000000 0.000000 0.000000 0.000000 0.055434
#
#
# Mechanical properties :
#
#
# Convention : Reuss Voigt Hill
#
# Bulk Modulus (GPa) = 41.61494 56.49347 49.05420
# Shear Modulus (GPa) = 21.43704 25.98625 23.71164
#
# Velocity S-wave (km/s) = 3.55292 3.91178 3.73666
# Velocity P-wave (km/s) = 6.42931 7.32591 6.89221
#
# Compressibility (1/GPa) = 0.02402983
#
# Stress axis : x y z
#
# Youngs Moduli (GPa) = 49.66452 75.93885 29.83473
#
# Poissons Ratio (x) = 0.56647 0.27707
# Poissons Ratio (y) = 0.37047 0.13871
# Poissons Ratio (z) = 0.46123 0.35307
#
# Static dielectric constant tensor:
#      x y z
#    x 1.551650 0.000000 0.000000 
#    y 0.000000 1.612410 0.000000 
#    z 0.000000 0.000000 1.579680 
# 
# From -- ./inp_files/11542.got.cif
#   From: 2010.05.17/outbox.cif.g08.bks.cpg/sg65_6_cif.got.tgz:11542.got - 2010.06.03 17:01:31.
