data_PCOD9483307
_publ_section_title
;
Structure prediction by ZEFSAII (Michael W. Deem and Ramdas Pophale) SiO2 
 PCOD9483307
Probable space group: C M M M
;
_chemical_formula_sum "Si O2"
_cell_formula_units_Z 88
_cell_length_a 29.820441
_cell_length_b 7.457755
_cell_length_c 18.449515
_cell_angle_alpha 90.000000
_cell_angle_beta 90.000000
_cell_angle_gamma 90.000000
_cell_volume 4103.053007
_symmetry_space_group_name_H-M "C M M M"
_symmetry_group_IT_number 65
_symmetry_cell_setting 'orthorhombic'
loop_
_space_group_symop_operation_xyz
x,y,z
-x,-y,z
x,-y,-z
-x,y,-z
-x,-y,-z
x,y,-z
-x,y,z
x,-y,z
1/2+x,1/2+y,z
1/2-x,1/2-y,z
1/2+x,1/2-y,-z
1/2-x,1/2+y,-z
1/2-x,1/2-y,-z
1/2+x,1/2+y,-z
1/2-x,1/2+y,z
1/2+x,1/2-y,z
loop_
_atom_site_type_symbol
_atom_site_label
_atom_site_fract_x
_atom_site_fract_y
_atom_site_fract_z
Si Si1 0.856264 0.719720 0.857720
Si Si2 0.451888 0.284294 0.414933
Si Si3 0.852961 0.710274 0.418087
Si Si4 0.197918 0.285116 0.281593
Si Si5 0.197167 0.714128 0.000000
Si Si6 0.950232 0.718142 0.084507
O O1 0.855988 0.500000 0.857386
O O2 0.832590 0.781441 0.784424
O O3 0.827341 0.779130 0.927352
O O4 0.907645 0.776951 0.869145
O O5 0.451976 0.230784 0.500000
O O6 0.500000 0.223162 0.383681
O O7 0.451718 0.500000 0.412497
O O8 0.403726 0.223621 0.387128
O O9 0.851657 0.787332 0.500000
O O10 0.843104 0.500000 0.425377
O O11 0.819081 0.786770 0.358961
O O12 0.192148 0.500000 0.283446
O O13 0.250000 0.250000 0.268748
O O14 0.250000 0.750000 0.000000
O O15 0.191346 0.500000 0.000000
O O16 0.950393 0.500000 0.085591
O O17 0.000000 0.777422 0.107410
O O18 0.943703 0.768888 0.000000
#
# Coordination Sequence:
#
# PCOD9483307 Si02
#       6
#    16  16  16  16   8  16
#     4   9  16  28  44  65  93 121 148 183 228 275
#     4   8  14  26  46  72  98 122 151 188 229 276
#     4   9  18  32  48  67  92 123 160 199 239 284
#     4  10  21  35  49  66  91 122 156 198 245 286
#     4  10  18  28  45  67  91 119 150 184 221 266
#     4   8  12  20  38  64  92 120 147 175 215 267
#
# _framework density 21.447443
#
# number of rings (size 3 to 8) (size 9 to 14) (size 15 to 20)
#    0.000    3.091    0.909    1.636    0.000    1.455 
#    0.000    2.727    0.000    3.273    0.000    0.000 
#    0.000    2.909    0.000    0.000    0.000    0.182 
#
# Total GULP energy -245360.384697 kJ/mol
# GULP energy per Si atom -5576.372379 kJ/mol
# Density = 2.139863 g / cm^3
# Si number density = 21.447443 Si / 1000 Ang^3
#
#
#
# Elastic Constant Matrix: (Units=GPa)
#
#
# Indices 1 2 3 4 5 6 
#
# 1 198.2530 -3.5026 94.8175 0.0000 0.0000 0.0000
# 2 -3.5026 61.7926 10.3644 0.0000 0.0000 0.0000
# 3 94.8175 10.3644 116.9299 0.0000 0.0000 0.0000
# 4 0.0000 0.0000 0.0000 -8.4288 0.0000 0.0000
# 5 0.0000 0.0000 0.0000 0.0000 36.9350 0.0000
# 6 0.0000 0.0000 0.0000 0.0000 0.0000 20.1498
#
#
#
# Elastic Compliance Matrix: (Units=1/GPa)
#
#
# Indices 1 2 3 4 5 6 
#
# 1 0.008401 0.001643 -0.006958 0.000000 0.000000 0.000000
# 2 0.001643 0.016749 -0.002817 0.000000 0.000000 0.000000
# 3 -0.006958 -0.002817 0.014444 0.000000 0.000000 0.000000
# 4 0.000000 0.000000 0.000000 -0.118641 0.000000 0.000000
# 5 0.000000 0.000000 0.000000 0.000000 0.027075 0.000000
# 6 0.000000 0.000000 0.000000 0.000000 0.000000 0.049628
#
#
# Mechanical properties :
#
#
# Convention : Reuss Voigt Hill
#
# Bulk Modulus (GPa) = 42.86290 64.48156 53.67223
# Shear Modulus (GPa) = 230.46757 28.08428 129.27592
#
# Velocity S-wave (km/s) = 10.37739 3.62255 7.77216
# Velocity P-wave (km/s) = 12.79122 6.90126 10.27723
#
# Compressibility (1/GPa) = 0.02333020
#
# Stress axis : x y z
#
# Youngs Moduli (GPa) = 119.03721 59.70571 69.23386
#
# Poissons Ratio (x) = -0.09811 0.48171
# Poissons Ratio (y) = -0.19560 0.19503
# Poissons Ratio (z) = 0.82823 0.16819
#
# Static dielectric constant tensor:
#      x y z
#    x 1.782060 0.000000 0.000000 
#    y 0.000000 1.816220 0.000000 
#    z 0.000000 0.000000 1.770810 
# 
# From -- ./inp_files/57986.got.cif
#   From: 2010.05.17/outbox.cif.g08.bks.cpg/sg65_29_cif.got.tgz:57986.got - 2010.06.03 17:01:31.
