data_PCOD9483441
_publ_section_title
;
Structure prediction by ZEFSAII (Michael W. Deem and Ramdas Pophale) SiO2 
 PCOD9483441
Probable space group: C M M M
;
_chemical_formula_sum "Si O2"
_cell_formula_units_Z 96
_cell_length_a 27.774088
_cell_length_b 8.779689
_cell_length_c 24.650389
_cell_angle_alpha 90.000000
_cell_angle_beta 90.000000
_cell_angle_gamma 90.000000
_cell_volume 6010.944480
_symmetry_space_group_name_H-M "C M M M"
_symmetry_group_IT_number 65
_symmetry_cell_setting 'orthorhombic'
loop_
_space_group_symop_operation_xyz
x,y,z
-x,-y,z
x,-y,-z
-x,y,-z
-x,-y,-z
x,y,-z
-x,y,z
x,-y,z
1/2+x,1/2+y,z
1/2-x,1/2-y,z
1/2+x,1/2-y,-z
1/2-x,1/2+y,-z
1/2-x,1/2-y,-z
1/2+x,1/2+y,-z
1/2-x,1/2+y,z
1/2+x,1/2-y,z
loop_
_atom_site_type_symbol
_atom_site_label
_atom_site_fract_x
_atom_site_fract_y
_atom_site_fract_z
Si Si1 0.946014 0.817270 0.285009
Si Si2 0.695897 0.183223 0.118758
Si Si3 0.801313 0.682597 0.332477
Si Si4 0.899604 0.681892 0.608760
Si Si5 0.150874 0.182456 0.774258
Si Si6 0.056200 0.182530 0.500000
Si Si7 0.196310 0.317083 0.000000
O O1 0.932716 0.738281 0.341620
O O2 0.903898 0.778742 0.242711
O O3 0.000000 0.776705 0.267786
O O4 0.944040 0.000000 0.293338
O O5 0.750000 0.250000 0.122550
O O6 0.665816 0.249272 0.168372
O O7 0.675493 0.226218 0.058860
O O8 0.698216 0.000000 0.122611
O O9 0.798661 0.500000 0.328622
O O10 0.750000 0.750000 0.349006
O O11 0.844992 0.722561 0.373298
O O12 0.816117 0.749893 0.273848
O O13 0.902417 0.500000 0.604226
O O14 0.917381 0.756447 0.553470
O O15 0.156266 0.000000 0.774958
O O16 0.000000 0.231402 0.500000
O O17 0.057132 0.000000 0.500000
O O18 0.250000 0.250000 0.000000
O O19 0.199445 0.500000 0.000000
#
# Coordination Sequence:
#
# PCOD9483441 Si02
#       7
#    16  16  16  16  16   8   8
#     4   9  18  33  51  70  94 123 153 187 230 279
#     4  10  18  29  44  64  92 123 156 191 228 271
#     4  10  20  34  51  71  96 126 158 191 228 270
#     4  10  21  35  52  75  99 122 153 192 231 273
#     4  10  19  30  46  69  95 123 155 190 230 274
#     4  11  23  37  54  75  98 125 156 189 228 277
#     4   8  16  28  42  60  85 120 155 189 228 269
#
# _framework density 15.970867999999999
#
# number of rings (size 3 to 8) (size 9 to 14) (size 15 to 20)
#    0.000    2.250    0.000    3.250    0.000    6.333 
#    0.000    0.417    0.000    0.000    0.000    0.583 
#    0.000    4.667    0.000    0.000    0.000    0.000 
#
# Total GULP energy -267697.296576 kJ/mol
# GULP energy per Si atom -5577.027012 kJ/mol
# Density = 1.593452 g / cm^3
# Si number density = 15.970868 Si / 1000 Ang^3
#
#
#
# Elastic Constant Matrix: (Units=GPa)
#
#
# Indices 1 2 3 4 5 6 
#
# 1 105.5765 37.9872 66.7738 0.0000 0.0000 0.0000
# 2 37.9872 43.9428 48.4874 0.0000 0.0000 0.0000
# 3 66.7738 48.4874 157.2244 0.0000 0.0000 0.0000
# 4 0.0000 0.0000 0.0000 20.9751 0.0000 0.0000
# 5 0.0000 0.0000 0.0000 0.0000 14.7726 0.0000
# 6 0.0000 0.0000 0.0000 0.0000 0.0000 22.0050
#
#
#
# Elastic Compliance Matrix: (Units=1/GPa)
#
#
# Indices 1 2 3 4 5 6 
#
# 1 0.014974 -0.008985 -0.003589 0.000000 0.000000 0.000000
# 2 -0.008985 0.039887 -0.008485 0.000000 0.000000 0.000000
# 3 -0.003589 -0.008485 0.010501 0.000000 0.000000 0.000000
# 4 0.000000 0.000000 0.000000 0.047676 0.000000 0.000000
# 5 0.000000 0.000000 0.000000 0.000000 0.067693 0.000000
# 6 0.000000 0.000000 0.000000 0.000000 0.000000 0.045444
#
#
# Mechanical properties :
#
#
# Convention : Reuss Voigt Hill
#
# Bulk Modulus (GPa) = 43.02033 68.13783 55.57908
# Shear Modulus (GPa) = 18.11330 21.78357 19.94844
#
# Velocity S-wave (km/s) = 3.37136 3.69719 3.53803
# Velocity P-wave (km/s) = 6.49230 7.80910 7.18095
#
# Compressibility (1/GPa) = 0.02324483
#
# Stress axis : x y z
#
# Youngs Moduli (GPa) = 66.78034 25.07113 95.22740
#
# Poissons Ratio (x) = 0.22527 0.34175
# Poissons Ratio (y) = 0.60003 0.80799
# Poissons Ratio (z) = 0.23966 0.21272
#
# Static dielectric constant tensor:
#      x y z
#    x 1.529780 0.000000 0.000000 
#    y 0.000000 1.534610 0.000000 
#    z 0.000000 0.000000 1.527590 
# 
# From -- ./inp_files/71757.got.cif
#   From: 2010.05.17/outbox.cif.g08.bks.cpg/sg65_36_cif.got.tgz:71757.got - 2010.06.03 17:01:31.
