data_PCOD9483365
_publ_section_title
;
Structure prediction by ZEFSAII (Michael W. Deem and Ramdas Pophale) SiO2 
 PCOD9483365
Probable space group: C M M M
;
_chemical_formula_sum "Si O2"
_cell_formula_units_Z 96
_cell_length_a 8.788721
_cell_length_b 27.838569
_cell_length_c 20.380357
_cell_angle_alpha 90.000000
_cell_angle_beta 90.000000
_cell_angle_gamma 90.000000
_cell_volume 4986.368523
_symmetry_space_group_name_H-M "C M M M"
_symmetry_group_IT_number 65
_symmetry_cell_setting 'orthorhombic'
loop_
_space_group_symop_operation_xyz
x,y,z
-x,-y,z
x,-y,-z
-x,y,-z
-x,-y,-z
x,y,-z
-x,y,z
x,-y,z
1/2+x,1/2+y,z
1/2-x,1/2-y,z
1/2+x,1/2-y,-z
1/2-x,1/2+y,-z
1/2-x,1/2-y,-z
1/2+x,1/2+y,-z
1/2-x,1/2+y,z
1/2+x,1/2-y,z
loop_
_atom_site_type_symbol
_atom_site_label
_atom_site_fract_x
_atom_site_fract_y
_atom_site_fract_z
Si Si1 0.181235 0.696796 0.422384
Si Si2 0.671544 0.881864 0.320894
Si Si3 0.682139 0.096413 0.071874
Si Si4 0.829131 0.707249 0.773962
Si Si5 0.678176 0.300519 0.089825
Si Si6 0.323045 0.442577 0.208829
O O1 0.201202 0.688020 0.500000
O O2 0.250000 0.750000 0.409745
O O3 0.237843 0.649744 0.381679
O O4 0.000000 0.699787 0.407513
O O5 0.500000 0.898741 0.338259
O O6 0.659002 0.839974 0.267242
O O7 0.757567 0.921865 0.277684
O O8 0.500000 0.094735 0.076472
O O9 0.737285 0.151499 0.067990
O O10 0.746729 0.075358 0.140318
O O11 0.725764 0.074165 0.000000
O O12 0.750000 0.750000 0.734226
O O13 0.712964 0.699434 0.832787
O O14 0.000000 0.718874 0.797715
O O15 0.500000 0.302681 0.075573
O O16 0.750000 0.250000 0.067645
O O17 0.500000 0.428480 0.204978
O O18 0.309456 0.500000 0.209823
#
# Coordination Sequence:
#
# PCOD9483365 Si02
#       6
#    16  16  16  16  16  16
#     4   9  18  33  54  86 128 168 203 236 274 327
#     4  10  20  34  56  83 114 154 195 237 285 339
#     4  11  24  42  63  86 113 147 188 233 287 354
#     4  10  18  28  46  75 109 143 184 226 269 324
#     4  11  21  34  54  79 112 150 186 226 275 330
#     4  11  25  43  63  87 112 141 185 244 303 356
#
# _framework density 19.252488
#
# number of rings (size 3 to 8) (size 9 to 14) (size 15 to 20)
#    0.000    1.667    1.667    4.500    0.000    4.667 
#    0.000    1.667    0.000    0.500    0.000    3.500 
#    0.000    0.000    0.000    0.000    0.000    0.000 
#
# Total GULP energy -267299.492424 kJ/mol
# GULP energy per Si atom -5568.739426 kJ/mol
# Density = 1.920867 g / cm^3
# Si number density = 19.252488 Si / 1000 Ang^3
#
#
#
# Elastic Constant Matrix: (Units=GPa)
#
#
# Indices 1 2 3 4 5 6 
#
# 1 76.8004 29.5032 37.1585 0.0000 0.0000 0.0000
# 2 29.5032 57.3487 34.0981 0.0000 0.0000 0.0000
# 3 37.1585 34.0981 125.9753 0.0000 0.0000 0.0000
# 4 0.0000 0.0000 0.0000 34.6458 0.0000 0.0000
# 5 0.0000 0.0000 0.0000 0.0000 80.0487 0.0000
# 6 0.0000 0.0000 0.0000 0.0000 0.0000 25.1564
#
#
#
# Elastic Compliance Matrix: (Units=1/GPa)
#
#
# Indices 1 2 3 4 5 6 
#
# 1 0.017247 -0.006970 -0.003201 0.000000 0.000000 0.000000
# 2 -0.006970 0.023598 -0.004332 0.000000 0.000000 0.000000
# 3 -0.003201 -0.004332 0.010055 0.000000 0.000000 0.000000
# 4 0.000000 0.000000 0.000000 0.028864 0.000000 0.000000
# 5 0.000000 0.000000 0.000000 0.000000 0.012492 0.000000
# 6 0.000000 0.000000 0.000000 0.000000 0.000000 0.039751
#
#
# Mechanical properties :
#
#
# Convention : Reuss Voigt Hill
#
# Bulk Modulus (GPa) = 45.67097 51.29377 48.48237
# Shear Modulus (GPa) = 29.70723 38.59449 34.15086
#
# Velocity S-wave (km/s) = 3.93241 4.48219 4.21627
# Velocity P-wave (km/s) = 6.66274 7.31349 6.99569
#
# Compressibility (1/GPa) = 0.02189575
#
# Stress axis : x y z
#
# Youngs Moduli (GPa) = 57.98183 42.37620 99.45675
#
# Poissons Ratio (x) = 0.29534 0.31834
# Poissons Ratio (y) = 0.40411 0.43081
# Poissons Ratio (z) = 0.18559 0.18356
#
# Static dielectric constant tensor:
#      x y z
#    x 1.711840 0.000000 0.000000 
#    y 0.000000 1.692230 0.000000 
#    z 0.000000 0.000000 1.754610 
# 
# From -- ./inp_files/60179.got.cif
#   From: 2010.05.17/outbox.cif.g08.bks.cpg/sg65_31_cif.got.tgz:60179.got - 2010.06.03 17:01:31.
