data_PCOD9483485
_publ_section_title
;
Structure prediction by ZEFSAII (Michael W. Deem and Ramdas Pophale) SiO2 
 PCOD9483485
Probable space group: C M M M
;
_chemical_formula_sum "Si O2"
_cell_formula_units_Z 104
_cell_length_a 27.823415
_cell_length_b 7.696793
_cell_length_c 29.427081
_cell_angle_alpha 90.000000
_cell_angle_beta 90.000000
_cell_angle_gamma 90.000000
_cell_volume 6301.840760
_symmetry_space_group_name_H-M "C M M M"
_symmetry_group_IT_number 65
_symmetry_cell_setting 'orthorhombic'
loop_
_space_group_symop_operation_xyz
x,y,z
-x,-y,z
x,-y,-z
-x,y,-z
-x,-y,-z
x,y,-z
-x,y,z
x,-y,z
1/2+x,1/2+y,z
1/2-x,1/2-y,z
1/2+x,1/2-y,-z
1/2-x,1/2+y,-z
1/2-x,1/2-y,-z
1/2+x,1/2+y,-z
1/2-x,1/2+y,z
1/2+x,1/2-y,z
loop_
_atom_site_type_symbol
_atom_site_label
_atom_site_fract_x
_atom_site_fract_y
_atom_site_fract_z
Si Si1 0.597050 0.702247 0.314910
Si Si2 0.346972 0.787374 0.550231
Si Si3 0.803762 0.706733 0.643952
Si Si4 0.053134 0.296896 0.590173
Si Si5 0.558589 0.000000 0.947868
Si Si6 0.055543 0.211926 0.220653
Si Si7 0.058575 0.799940 0.120235
O O1 0.583317 0.500000 0.315962
O O2 0.653374 0.718777 0.325707
O O3 0.568443 0.786164 0.356895
O O4 0.583813 0.771219 0.265184
O O5 0.332526 0.730278 0.500000
O O6 0.313666 0.731553 0.592137
O O7 0.401211 0.726680 0.562349
O O8 0.347318 0.000000 0.550365
O O9 0.809971 0.500000 0.644416
O O10 0.750000 0.750000 0.658156
O O11 0.050334 0.500000 0.578025
O O12 0.000000 0.220449 0.583185
O O13 0.573535 0.830313 0.919379
O O14 0.500000 0.000000 0.948463
O O15 0.574776 0.000000 0.000000
O O16 0.073445 0.263703 0.170602
O O17 0.000000 0.265267 0.225650
O O18 0.056287 0.000000 0.219553
O O19 0.000000 0.800793 0.121451
O O20 0.073644 0.000000 0.113163
#
# Coordination Sequence:
#
# PCOD9483485 Si02
#       7
#    16  16  16  16   8  16  16
#     4  10  18  29  46  65  84 109 140 173 210 256
#     4   8  15  28  45  64  84 106 134 168 206 249
#     4  10  20  34  49  65  84 104 131 169 209 256
#     4   9  17  28  41  61  89 114 138 169 203 245
#     4   9  16  24  34  52  76 106 152 196 227 263
#     4   8  14  25  41  60  83 111 142 175 210 252
#     4   8  14  25  37  51  76 108 144 188 228 259
#
# _framework density 16.503114
#
# number of rings (size 3 to 8) (size 9 to 14) (size 15 to 20)
#    0.000    3.154    0.000    3.231    0.000    1.846 
#    2.769    3.077    0.000   11.077    0.000    4.308 
#    0.000    0.000    0.000    0.000    0.000    0.769 
#
# Total GULP energy -289669.424798 kJ/mol
# GULP energy per Si atom -5570.565861 kJ/mol
# Density = 1.646555 g / cm^3
# Si number density = 16.503114 Si / 1000 Ang^3
#
#
#
# Elastic Constant Matrix: (Units=GPa)
#
#
# Indices 1 2 3 4 5 6 
#
# 1 36.5700 -8.3427 5.0610 0.0000 0.0000 0.0000
# 2 -8.3427 38.4375 15.8911 0.0000 0.0000 0.0000
# 3 5.0610 15.8911 114.6187 0.0000 0.0000 0.0000
# 4 0.0000 0.0000 0.0000 19.5157 0.0000 0.0000
# 5 0.0000 0.0000 0.0000 0.0000 8.1360 0.0000
# 6 0.0000 0.0000 0.0000 0.0000 0.0000 7.9790
#
#
#
# Elastic Compliance Matrix: (Units=1/GPa)
#
#
# Indices 1 2 3 4 5 6 
#
# 1 0.029335 0.007322 -0.002310 0.000000 0.000000 0.000000
# 2 0.007322 0.029426 -0.004403 0.000000 0.000000 0.000000
# 3 -0.002310 -0.004403 0.009437 0.000000 0.000000 0.000000
# 4 0.000000 0.000000 0.000000 0.051241 0.000000 0.000000
# 5 0.000000 0.000000 0.000000 0.000000 0.122911 0.000000
# 6 0.000000 0.000000 0.000000 0.000000 0.000000 0.125329
#
#
# Mechanical properties :
#
#
# Convention : Reuss Voigt Hill
#
# Bulk Modulus (GPa) = 14.40604 23.87167 19.13886
# Shear Modulus (GPa) = 12.83370 18.92725 15.88047
#
# Velocity S-wave (km/s) = 2.79167 3.39025 3.10542
# Velocity P-wave (km/s) = 4.37487 5.46090 4.94777
#
# Compressibility (1/GPa) = 0.06941534
#
# Stress axis : x y z
#
# Youngs Moduli (GPa) = 34.08903 33.98372 105.96531
#
# Poissons Ratio (x) = -0.24884 0.24483
# Poissons Ratio (y) = -0.24961 0.46657
# Poissons Ratio (z) = 0.07876 0.14963
#
# Static dielectric constant tensor:
#      x y z
#    x 1.542040 0.000000 0.000000 
#    y 0.000000 1.621050 0.000000 
#    z 0.000000 0.000000 1.567740 
# 
# From -- ./inp_files/75984.got.cif
#   From: 2010.05.17/outbox.cif.g08.bks.cpg/sg65_38_cif.got.tgz:75984.got - 2010.06.03 17:01:31.
