data_PCOD9483926
_publ_section_title
;
Structure prediction by ZEFSAII (Michael W. Deem and Ramdas Pophale) SiO2 
 PCOD9483926
Probable space group: C M M M
;
_chemical_formula_sum "Si O2"
_cell_formula_units_Z 88
_cell_length_a 17.758776
_cell_length_b 16.110629
_cell_length_c 14.103870
_cell_angle_alpha 90.000000
_cell_angle_beta 90.000000
_cell_angle_gamma 90.000000
_cell_volume 4035.188455
_symmetry_space_group_name_H-M "C M M M"
_symmetry_group_IT_number 65
_symmetry_cell_setting 'orthorhombic'
loop_
_space_group_symop_operation_xyz
x,y,z
-x,-y,z
x,-y,-z
-x,y,-z
-x,-y,-z
x,y,-z
-x,y,z
x,-y,z
1/2+x,1/2+y,z
1/2-x,1/2-y,z
1/2+x,1/2-y,-z
1/2-x,1/2+y,-z
1/2-x,1/2-y,-z
1/2+x,1/2+y,-z
1/2-x,1/2+y,z
1/2+x,1/2-y,z
loop_
_atom_site_type_symbol
_atom_site_label
_atom_site_fract_x
_atom_site_fract_y
_atom_site_fract_z
Si Si1 0.415337 0.000000 0.385623
Si Si2 0.913143 0.730349 0.209079
Si Si3 0.322280 0.593980 0.604136
Si Si4 0.130193 0.909038 0.191876
Si Si5 0.336544 0.172777 0.610384
Si Si6 0.780044 0.345279 0.108814
O O1 0.373165 0.084377 0.362069
O O2 0.500000 0.000000 0.347426
O O3 0.419264 0.000000 0.500000
O O4 0.906896 0.822165 0.161174
O O5 0.872565 0.732870 0.312067
O O6 0.863061 0.664156 0.151445
O O7 0.000000 0.708203 0.218409
O O8 0.356622 0.608155 0.500000
O O9 0.288996 0.500000 0.601322
O O10 0.375854 0.591807 0.694196
O O11 0.252846 0.657137 0.616042
O O12 0.218898 0.898416 0.166307
O O13 0.104523 0.000000 0.157050
O O14 0.354323 0.191372 0.500000
O O15 0.750000 0.250000 0.113030
O O16 0.780607 0.372436 0.000000
#
# Coordination Sequence:
#
# PCOD9483926 Si02
#       6
#     8  16  16  16  16  16
#     4   9  16  26  42  68 105 149 188 222 272 335
#     4  11  23  37  55  84 120 156 192 229 280 343
#     4   9  16  29  52  80 109 142 184 236 286 328
#     4  10  21  38  60  84 111 149 198 243 280 327
#     4  10  18  30  50  78 114 153 191 236 286 339
#     4   9  19  38  62  85 109 139 179 231 290 344
#
# _framework density 21.808152
#
# number of rings (size 3 to 8) (size 9 to 14) (size 15 to 20)
#    0.000    2.273    2.727    0.545    0.000    2.909 
#    0.000    1.818    0.000    0.000    0.000   10.182 
#    0.000    0.000    0.000    0.000    0.000    0.000 
#
# Total GULP energy -245431.620285 kJ/mol
# GULP energy per Si atom -5577.991370 kJ/mol
# Density = 2.175852 g / cm^3
# Si number density = 21.808152 Si / 1000 Ang^3
#
#
#
# Elastic Constant Matrix: (Units=GPa)
#
#
# Indices 1 2 3 4 5 6 
#
# 1 53.2844 -17.6829 3.6084 0.0000 0.0000 0.0000
# 2 -17.6829 90.8883 -10.3419 0.0000 0.0000 0.0000
# 3 3.6084 -10.3419 70.1544 0.0000 0.0000 0.0000
# 4 0.0000 0.0000 0.0000 4.1757 0.0000 0.0000
# 5 0.0000 0.0000 0.0000 0.0000 10.0520 0.0000
# 6 0.0000 0.0000 0.0000 0.0000 0.0000 11.8141
#
#
#
# Elastic Compliance Matrix: (Units=1/GPa)
#
#
# Indices 1 2 3 4 5 6 
#
# 1 0.020077 0.003853 -0.000465 0.000000 0.000000 0.000000
# 2 0.003853 0.011930 0.001560 0.000000 0.000000 0.000000
# 3 -0.000465 0.001560 0.014508 0.000000 0.000000 0.000000
# 4 0.000000 0.000000 0.000000 0.239481 0.000000 0.000000
# 5 0.000000 0.000000 0.000000 0.000000 0.099483 0.000000
# 6 0.000000 0.000000 0.000000 0.000000 0.000000 0.084644
#
#
# Mechanical properties :
#
#
# Convention : Reuss Voigt Hill
#
# Bulk Modulus (GPa) = 17.72617 18.38822 18.05719
# Shear Modulus (GPa) = 10.43775 21.12460 15.78118
#
# Velocity S-wave (km/s) = 2.19011 3.11570 2.69297
# Velocity P-wave (km/s) = 3.81330 4.62532 4.23880
#
# Compressibility (1/GPa) = 0.05641378
#
# Stress axis : x y z
#
# Youngs Moduli (GPa) = 49.80709 83.82389 68.92646
#
# Poissons Ratio (x) = -0.32300 0.03203
# Poissons Ratio (y) = -0.19192 -0.10756
# Poissons Ratio (z) = 0.02314 -0.13080
#
# Static dielectric constant tensor:
#      x y z
#    x 1.777510 0.000000 0.000000 
#    y 0.000000 1.920520 0.000000 
#    z 0.000000 0.000000 1.812460 
# 
# From -- ./inp_files/42464.got.cif
#   From: 2010.05.17/outbox.cif.g08.bks.cpg/sg65_22_cif.got.tgz:42464.got - 2010.06.03 17:01:31.
