data_PCOD9483374
_publ_section_title
;
Structure prediction by ZEFSAII (Michael W. Deem and Ramdas Pophale) SiO2 
 PCOD9483374
Probable space group: C M M M
;
_chemical_formula_sum "Si O2"
_cell_formula_units_Z 80
_cell_length_a 8.616700
_cell_length_b 19.776228
_cell_length_c 26.913149
_cell_angle_alpha 90.000000
_cell_angle_beta 90.000000
_cell_angle_gamma 90.000000
_cell_volume 4586.157327
_symmetry_space_group_name_H-M "C M M M"
_symmetry_group_IT_number 65
_symmetry_cell_setting 'orthorhombic'
loop_
_space_group_symop_operation_xyz
x,y,z
-x,-y,z
x,-y,-z
-x,y,-z
-x,-y,-z
x,y,-z
-x,y,z
x,-y,z
1/2+x,1/2+y,z
1/2-x,1/2-y,z
1/2+x,1/2-y,-z
1/2-x,1/2+y,-z
1/2-x,1/2-y,-z
1/2+x,1/2+y,-z
1/2-x,1/2+y,z
1/2+x,1/2-y,z
loop_
_atom_site_type_symbol
_atom_site_label
_atom_site_fract_x
_atom_site_fract_y
_atom_site_fract_z
Si Si1 0.185568 0.826148 0.641885
Si Si2 0.189024 0.577826 0.944007
Si Si3 0.187198 0.421704 0.443651
Si Si4 0.813948 0.826639 0.751492
Si Si5 0.186359 0.673634 0.854606
O O1 0.250000 0.750000 0.637083
O O2 0.245979 0.873015 0.597977
O O3 0.228982 0.854195 0.696950
O O4 0.000000 0.822486 0.640213
O O5 0.236198 0.500000 0.935088
O O6 0.240252 0.628196 0.900836
O O7 0.000000 0.578555 0.943729
O O8 0.238069 0.597116 0.000000
O O9 0.234966 0.402967 0.500000
O O10 0.232581 0.500000 0.435366
O O11 0.000000 0.418769 0.441992
O O12 0.750000 0.750000 0.750579
O O13 0.743273 0.856446 0.801845
O O14 0.000000 0.825729 0.755800
O O15 0.250000 0.750000 0.859212
O O16 0.000000 0.676476 0.854092
#
# Coordination Sequence:
#
# PCOD9483374 Si02
#       5
#    16  16  16  16  16
#     4  10  20  33  52  76 100 129 165 203 243 288
#     4   8  15  29  47  66  90 121 157 195 232 272
#     4   9  19  36  55  74  99 131 164 200 244 290
#     4   9  17  30  47  68  96 127 157 192 235 280
#     4  10  18  28  47  72  95 121 154 192 234 280
#
# _framework density 17.443797
#
# number of rings (size 3 to 8) (size 9 to 14) (size 15 to 20)
#    0.000    2.800    0.000    4.200    0.000    4.000 
#    0.000    2.000    0.000    7.800    0.000    5.600 
#    0.000    0.000    0.000    0.000    0.000    0.000 
#
# Total GULP energy -222829.368106 kJ/mol
# GULP energy per Si atom -5570.734203 kJ/mol
# Density = 1.740409 g / cm^3
# Si number density = 17.443797 Si / 1000 Ang^3
#
#
#
# Elastic Constant Matrix: (Units=GPa)
#
#
# Indices 1 2 3 4 5 6 
#
# 1 36.8415 22.9820 44.2178 0.0000 0.0000 0.0000
# 2 22.9820 66.5041 96.5310 0.0000 0.0000 0.0000
# 3 44.2178 96.5310 214.1213 0.0000 0.0000 0.0000
# 4 0.0000 0.0000 0.0000 -10.2688 0.0000 0.0000
# 5 0.0000 0.0000 0.0000 0.0000 23.9150 0.0000
# 6 0.0000 0.0000 0.0000 0.0000 0.0000 20.0123
#
#
#
# Elastic Compliance Matrix: (Units=1/GPa)
#
#
# Indices 1 2 3 4 5 6 
#
# 1 0.036622 -0.004856 -0.005374 0.000000 0.000000 0.000000
# 2 -0.004856 0.044149 -0.018901 0.000000 0.000000 0.000000
# 3 -0.005374 -0.018901 0.014301 0.000000 0.000000 0.000000
# 4 0.000000 0.000000 0.000000 -0.097382 0.000000 0.000000
# 5 0.000000 0.000000 0.000000 0.000000 0.041815 0.000000
# 6 0.000000 0.000000 0.000000 0.000000 0.000000 0.049969
#
#
# Mechanical properties :
#
#
# Convention : Reuss Voigt Hill
#
# Bulk Modulus (GPa) = 27.16513 71.65871 49.41192
# Shear Modulus (GPa) = 31.24908 16.98077 24.11493
#
# Velocity S-wave (km/s) = 4.23710 3.12341 3.72215
# Velocity P-wave (km/s) = 6.28841 7.36047 6.84546
#
# Compressibility (1/GPa) = 0.03681189
#
# Stress axis : x y z
#
# Youngs Moduli (GPa) = 27.30608 22.65042 69.92557
#
# Poissons Ratio (x) = 0.10998 0.37576
# Poissons Ratio (y) = 0.13259 1.32165
# Poissons Ratio (z) = 0.14674 0.42811
#
# Static dielectric constant tensor:
#      x y z
#    x 1.598070 0.000000 0.000000 
#    y 0.000000 1.549990 0.000000 
#    z 0.000000 0.000000 1.631880 
# 
# From -- ./inp_files/72849.got.cif
#   From: 2010.05.17/outbox.cif.g08.bks.cpg/sg65_37_cif.got.tgz:72849.got - 2010.06.03 17:01:31.
