data_PCOD9483427
_publ_section_title
;
Structure prediction by ZEFSAII (Michael W. Deem and Ramdas Pophale) SiO2 
 PCOD9483427
Probable space group: C M M M
;
_chemical_formula_sum "Si O2"
_cell_formula_units_Z 56
_cell_length_a 8.310721
_cell_length_b 24.163255
_cell_length_c 16.078675
_cell_angle_alpha 90.000000
_cell_angle_beta 90.000000
_cell_angle_gamma 90.000000
_cell_volume 3228.824179
_symmetry_space_group_name_H-M "C M M M"
_symmetry_group_IT_number 65
_symmetry_cell_setting 'orthorhombic'
loop_
_space_group_symop_operation_xyz
x,y,z
-x,-y,z
x,-y,-z
-x,y,-z
-x,-y,-z
x,y,-z
-x,y,z
x,-y,z
1/2+x,1/2+y,z
1/2-x,1/2-y,z
1/2+x,1/2-y,-z
1/2-x,1/2+y,-z
1/2-x,1/2-y,-z
1/2+x,1/2+y,-z
1/2-x,1/2+y,z
1/2+x,1/2-y,z
loop_
_atom_site_type_symbol
_atom_site_label
_atom_site_fract_x
_atom_site_fract_y
_atom_site_fract_z
Si Si1 0.805973 0.187295 0.000000
Si Si2 0.803299 0.118791 0.838500
Si Si3 0.303470 0.500000 0.097293
Si Si4 0.690925 0.813597 0.500000
Si Si5 0.692518 0.313689 0.677787
O O1 0.750000 0.250000 0.000000
O O2 0.751777 0.155506 0.917292
O O3 0.000000 0.185996 0.000000
O O4 0.749544 0.147944 0.753508
O O5 0.000000 0.118639 0.837245
O O6 0.751873 0.055947 0.856349
O O7 0.500000 0.500000 0.096099
O O8 0.253887 0.500000 0.000000
O O9 0.500000 0.814460 0.500000
O O10 0.750000 0.750000 0.500000
O O11 0.753151 0.836208 0.412208
O O12 0.500000 0.312239 0.678852
O O13 0.750000 0.250000 0.687778
#
# Coordination Sequence:
#
# PCOD9483427 Si02
#       5
#     8  16   8   8  16
#     4  10  18  29  43  67  97 126 153 184 226 276
#     4   9  17  27  44  68  95 123 156 194 232 272
#     4   9  14  26  46  67  92 123 159 200 236 267
#     4  10  18  30  48  69  92 123 157 190 232 282
#     4  10  18  29  45  70  99 125 153 189 233 281
#
# _framework density 17.343774
#
# number of rings (size 3 to 8) (size 9 to 14) (size 15 to 20)
#    0.000    2.429    1.429    4.714    0.000    0.000 
#    0.000    1.429    0.000    0.857    0.000   16.000 
#    0.000    0.000    0.000    0.000    0.000    0.000 
#
# Total GULP energy -156106.293067 kJ/mol
# GULP energy per Si atom -5575.224752 kJ/mol
# Density = 1.730430 g / cm^3
# Si number density = 17.343774 Si / 1000 Ang^3
#
#
#
# Elastic Constant Matrix: (Units=GPa)
#
#
# Indices 1 2 3 4 5 6 
#
# 1 32.8280 12.9439 24.3834 0.0000 0.0000 0.0000
# 2 12.9439 137.6697 96.8639 0.0000 0.0000 0.0000
# 3 24.3834 96.8639 204.6617 0.0000 0.0000 0.0000
# 4 0.0000 0.0000 0.0000 2.7293 0.0000 0.0000
# 5 0.0000 0.0000 0.0000 0.0000 13.2920 0.0000
# 6 0.0000 0.0000 0.0000 0.0000 0.0000 14.2473
#
#
#
# Elastic Compliance Matrix: (Units=1/GPa)
#
#
# Indices 1 2 3 4 5 6 
#
# 1 0.033443 -0.000511 -0.003742 0.000000 0.000000 0.000000
# 2 -0.000511 0.010898 -0.005097 0.000000 0.000000 0.000000
# 3 -0.003742 -0.005097 0.007744 0.000000 0.000000 0.000000
# 4 0.000000 0.000000 0.000000 0.366396 0.000000 0.000000
# 5 0.000000 0.000000 0.000000 0.000000 0.075233 0.000000
# 6 0.000000 0.000000 0.000000 0.000000 0.000000 0.070189
#
#
# Mechanical properties :
#
#
# Convention : Reuss Voigt Hill
#
# Bulk Modulus (GPa) = 29.95428 71.50462 50.72945
# Shear Modulus (GPa) = 8.42130 22.11827 15.26978
#
# Velocity S-wave (km/s) = 2.20591 3.57499 2.97040
# Velocity P-wave (km/s) = 4.87816 7.63924 6.40916
#
# Compressibility (1/GPa) = 0.03338421
#
# Stress axis : x y z
#
# Youngs Moduli (GPa) = 29.90150 91.75937 129.12638
#
# Poissons Ratio (x) = 0.04690 0.48325
# Poissons Ratio (y) = 0.01528 0.65816
# Poissons Ratio (z) = 0.11191 0.46770
#
# Static dielectric constant tensor:
#      x y z
#    x 1.633370 0.000000 0.000000 
#    y 0.000000 1.565490 0.000000 
#    z 0.000000 0.000000 1.613200 
# 
# From -- ./inp_files/44987.got.cif
#   From: 2010.05.17/outbox.cif.g08.bks.cpg/sg65_23_cif.got.tgz:44987.got - 2010.06.03 17:01:31.
