data_PCOD9483902
_publ_section_title
;
Structure prediction by ZEFSAII (Michael W. Deem and Ramdas Pophale) SiO2 
 PCOD9483902
Probable space group: C M M M
;
_chemical_formula_sum "Si O2"
_cell_formula_units_Z 104
_cell_length_a 8.319365
_cell_length_b 25.476711
_cell_length_c 25.644380
_cell_angle_alpha 90.000000
_cell_angle_beta 90.000000
_cell_angle_gamma 90.000000
_cell_volume 5435.327823
_symmetry_space_group_name_H-M "C M M M"
_symmetry_group_IT_number 65
_symmetry_cell_setting 'orthorhombic'
loop_
_space_group_symop_operation_xyz
x,y,z
-x,-y,z
x,-y,-z
-x,y,-z
-x,-y,-z
x,y,-z
-x,y,z
x,-y,z
1/2+x,1/2+y,z
1/2-x,1/2-y,z
1/2+x,1/2-y,-z
1/2-x,1/2+y,-z
1/2-x,1/2-y,-z
1/2+x,1/2+y,-z
1/2-x,1/2+y,z
1/2+x,1/2-y,z
loop_
_atom_site_type_symbol
_atom_site_label
_atom_site_fract_x
_atom_site_fract_y
_atom_site_fract_z
Si Si1 0.197202 0.500000 0.737093
Si Si2 0.190620 0.806763 0.211429
Si Si3 0.804077 0.582228 0.943272
Si Si4 0.807634 0.305146 0.092365
Si Si5 0.692483 0.189584 0.387977
Si Si6 0.691280 0.310241 0.500000
Si Si7 0.192589 0.614027 0.704220
Si Si8 0.803766 0.500000 0.142184
O O1 0.250836 0.554136 0.709898
O O2 0.249015 0.500000 0.797949
O O3 0.000000 0.500000 0.737115
O O4 0.250000 0.750000 0.231837
O O5 0.240970 0.809280 0.151113
O O6 0.268073 0.853896 0.243500
O O7 0.000000 0.809000 0.216022
O O8 0.757317 0.642748 0.937571
O O9 0.751511 0.549531 0.892882
O O10 0.000000 0.579692 0.942959
O O11 0.751720 0.562058 0.000000
O O12 0.750000 0.250000 0.069668
O O13 0.000000 0.304274 0.095299
O O14 0.500000 0.191306 0.386055
O O15 0.750000 0.250000 0.381028
O O16 0.744510 0.168930 0.444993
O O17 0.754046 0.150124 0.343321
O O18 0.500000 0.311756 0.500000
O O19 0.750000 0.250000 0.500000
O O20 0.000000 0.611346 0.698688
O O21 0.000000 0.500000 0.143760
#
# Coordination Sequence:
#
# PCOD9483902 Si02
#       8
#     8  16  16  16  16   8  16   8
#     4   9  18  33  53  77 103 136 175 212 255 306
#     4  11  21  33  51  74 102 133 168 210 256 310
#     4   9  17  28  45  71  98 123 156 201 250 299
#     4  10  19  32  49  69  97 130 163 199 243 301
#     4  10  19  31  50  77 108 140 173 212 256 302
#     4  10  18  30  50  75 106 141 175 212 254 302
#     4  10  20  34  53  77 106 138 174 216 260 306
#     4   9  15  26  47  71  97 125 156 202 255 302
#
# _framework density 19.134080000000001
#
# number of rings (size 3 to 8) (size 9 to 14) (size 15 to 20)
#    0.000    2.154    0.000    6.462    0.000    6.154 
#    0.000    0.385    0.000    1.846    0.000    4.846 
#    0.000    6.154    0.000    0.000    0.000    0.000 
#
# Total GULP energy -290175.230150 kJ/mol
# GULP energy per Si atom -5580.292887 kJ/mol
# Density = 1.909053 g / cm^3
# Si number density = 19.134080 Si / 1000 Ang^3
#
#
#
# Elastic Constant Matrix: (Units=GPa)
#
#
# Indices 1 2 3 4 5 6 
#
# 1 10.6195 11.1167 9.7449 0.0000 0.0000 0.0000
# 2 11.1167 142.2302 61.7958 0.0000 0.0000 0.0000
# 3 9.7449 61.7958 109.0390 0.0000 0.0000 0.0000
# 4 0.0000 0.0000 0.0000 21.6928 0.0000 0.0000
# 5 0.0000 0.0000 0.0000 0.0000 10.7014 0.0000
# 6 0.0000 0.0000 0.0000 0.0000 0.0000 16.0748
#
#
#
# Elastic Compliance Matrix: (Units=1/GPa)
#
#
# Indices 1 2 3 4 5 6 
#
# 1 0.105745 -0.005518 -0.006324 0.000000 0.000000 0.000000
# 2 -0.005518 0.009616 -0.004956 0.000000 0.000000 0.000000
# 3 -0.006324 -0.004956 0.012545 0.000000 0.000000 0.000000
# 4 0.000000 0.000000 0.000000 0.046098 0.000000 0.000000
# 5 0.000000 0.000000 0.000000 0.000000 0.093445 0.000000
# 6 0.000000 0.000000 0.000000 0.000000 0.000000 0.062209
#
#
# Mechanical properties :
#
#
# Convention : Reuss Voigt Hill
#
# Bulk Modulus (GPa) = 10.60324 47.46706 29.03515
# Shear Modulus (GPa) = 12.66816 21.64256 17.15536
#
# Velocity S-wave (km/s) = 2.57587 3.36683 2.99755
# Velocity P-wave (km/s) = 3.79478 6.32262 5.21421
#
# Compressibility (1/GPa) = 0.09431082
#
# Stress axis : x y z
#
# Youngs Moduli (GPa) = 9.45670 103.99866 79.71264
#
# Poissons Ratio (x) = 0.57382 0.50407
# Poissons Ratio (y) = 0.05218 0.39508
# Poissons Ratio (z) = 0.05980 0.51545
#
# Static dielectric constant tensor:
#      x y z
#    x 1.679390 0.000000 0.000000 
#    y 0.000000 1.682290 0.000000 
#    z 0.000000 0.000000 1.676580 
# 
# From -- ./inp_files/73627.got.cif
#   From: 2010.05.17/outbox.cif.g08.bks.cpg/sg65_37_cif.got.tgz:73627.got - 2010.06.03 17:01:31.
