data_PCOD9483955
_publ_section_title
;
Structure prediction by ZEFSAII (Michael W. Deem and Ramdas Pophale) SiO2 
 PCOD9483955
Probable space group: C M M M
;
_chemical_formula_sum "Si O2"
_cell_formula_units_Z 128
_cell_length_a 16.958767
_cell_length_b 17.730057
_cell_length_c 24.238607
_cell_angle_alpha 90.000000
_cell_angle_beta 90.000000
_cell_angle_gamma 90.000000
_cell_volume 7288.062064
_symmetry_space_group_name_H-M "C M M M"
_symmetry_group_IT_number 65
_symmetry_cell_setting 'orthorhombic'
loop_
_space_group_symop_operation_xyz
x,y,z
-x,-y,z
x,-y,-z
-x,y,-z
-x,-y,-z
x,y,-z
-x,y,z
x,-y,z
1/2+x,1/2+y,z
1/2-x,1/2-y,z
1/2+x,1/2-y,-z
1/2-x,1/2+y,-z
1/2-x,1/2-y,-z
1/2+x,1/2+y,-z
1/2-x,1/2+y,z
1/2+x,1/2-y,z
loop_
_atom_site_type_symbol
_atom_site_label
_atom_site_fract_x
_atom_site_fract_y
_atom_site_fract_z
Si Si1 0.195312 0.175362 0.936801
Si Si2 0.904351 0.585542 0.564429
Si Si3 0.163969 0.585742 0.274138
Si Si4 0.590303 0.317343 0.828499
Si Si5 0.086662 0.361642 0.173228
Si Si6 0.691610 0.682768 0.725096
Si Si7 0.908819 0.293989 0.653508
Si Si8 0.649422 0.088788 0.939400
O O1 0.250000 0.250000 0.929520
O O2 0.133683 0.170883 0.886939
O O3 0.258300 0.107749 0.932791
O O4 0.163687 0.177333 0.000000
O O5 0.884378 0.595016 0.500000
O O6 0.878632 0.500000 0.581034
O O7 0.878357 0.657334 0.600932
O O8 0.000000 0.585229 0.568849
O O9 0.151394 0.500000 0.289297
O O10 0.153113 0.596839 0.208676
O O11 0.248286 0.617714 0.293094
O O12 0.099261 0.641968 0.299402
O O13 0.500000 0.343989 0.830021
O O14 0.589023 0.227411 0.816910
O O15 0.638512 0.346391 0.775463
O O16 0.102045 0.372866 0.109039
O O17 0.000000 0.391756 0.187524
O O18 0.750000 0.750000 0.746121
O O19 0.641476 0.723480 0.676651
O O20 0.000000 0.272592 0.645694
O O21 0.636141 0.000000 0.936980
O O22 0.626247 0.117379 0.000000
#
# Coordination Sequence:
#
# PCOD9483955 Si02
#       8
#    16  16  16  16  16  16  16  16
#     4  10  19  33  52  69  87 116 155 192 229 288
#     4   8  14  25  43  72 111 146 169 196 241 292
#     4  11  22  33  49  72  98 130 166 205 247 294
#     4  11  20  32  51  71  93 119 151 198 248 286
#     4  11  21  32  48  72  98 123 155 196 243 295
#     4  10  19  33  50  67  95 132 166 197 242 295
#     4  10  18  30  51  77 102 131 167 205 242 284
#     4  10  21  35  50  68  92 123 152 184 236 297
#
# _framework density 17.562967
#
# number of rings (size 3 to 8) (size 9 to 14) (size 15 to 20)
#    0.000    1.875    3.750    3.000    0.000    2.750 
#    0.000    1.875    0.000    6.000    0.000    1.750 
#    0.000    0.000    0.000    3.125    0.000    0.000 
#
# Total GULP energy -356629.277246 kJ/mol
# GULP energy per Si atom -5572.332457 kJ/mol
# Density = 1.752299 g / cm^3
# Si number density = 17.562967 Si / 1000 Ang^3
#
#
#
# Elastic Constant Matrix: (Units=GPa)
#
#
# Indices 1 2 3 4 5 6 
#
# 1 58.3790 1.2040 24.7335 0.0000 0.0000 0.0000
# 2 1.2040 23.2317 3.0964 0.0000 0.0000 0.0000
# 3 24.7335 3.0964 86.0293 0.0000 0.0000 0.0000
# 4 0.0000 0.0000 0.0000 11.3857 0.0000 0.0000
# 5 0.0000 0.0000 0.0000 0.0000 17.1808 0.0000
# 6 0.0000 0.0000 0.0000 0.0000 0.0000 5.4355
#
#
#
# Elastic Compliance Matrix: (Units=1/GPa)
#
#
# Indices 1 2 3 4 5 6 
#
# 1 0.019507 -0.000265 -0.005599 0.000000 0.000000 0.000000
# 2 -0.000265 0.043256 -0.001481 0.000000 0.000000 0.000000
# 3 -0.005599 -0.001481 0.013287 0.000000 0.000000 0.000000
# 4 0.000000 0.000000 0.000000 0.087830 0.000000 0.000000
# 5 0.000000 0.000000 0.000000 0.000000 0.058205 0.000000
# 6 0.000000 0.000000 0.000000 0.000000 0.000000 0.183975
#
#
# Mechanical properties :
#
#
# Convention : Reuss Voigt Hill
#
# Bulk Modulus (GPa) = 16.29698 25.07862 20.68780
# Shear Modulus (GPa) = 11.33272 16.04082 13.68677
#
# Velocity S-wave (km/s) = 2.54296 3.02542 2.79462
# Velocity P-wave (km/s) = 4.23338 5.14922 4.71359
#
# Compressibility (1/GPa) = 0.06136105
#
# Stress axis : x y z
#
# Youngs Moduli (GPa) = 51.26386 23.11837 75.26221
#
# Poissons Ratio (x) = 0.00612 0.42137
# Poissons Ratio (y) = 0.01357 0.11145
# Poissons Ratio (z) = 0.28701 0.03423
#
# Static dielectric constant tensor:
#      x y z
#    x 1.619710 0.000000 0.000000 
#    y 0.000000 1.605450 0.000000 
#    z 0.000000 0.000000 1.650080 
# 
# From -- ./inp_files/70674.got.cif
#   From: 2010.05.17/outbox.cif.g08.bks.cpg/sg65_36_cif.got.tgz:70674.got - 2010.06.03 17:01:31.
