data_PCOD9483459
_publ_section_title
;
Structure prediction by ZEFSAII (Michael W. Deem and Ramdas Pophale) SiO2 
 PCOD9483459
Probable space group: C M M M
;
_chemical_formula_sum "Si O2"
_cell_formula_units_Z 104
_cell_length_a 28.354481
_cell_length_b 14.437954
_cell_length_c 16.266159
_cell_angle_alpha 90.000000
_cell_angle_beta 90.000000
_cell_angle_gamma 90.000000
_cell_volume 6659.051434
_symmetry_space_group_name_H-M "C M M M"
_symmetry_group_IT_number 65
_symmetry_cell_setting 'orthorhombic'
loop_
_space_group_symop_operation_xyz
x,y,z
-x,-y,z
x,-y,-z
-x,y,-z
-x,-y,-z
x,y,-z
-x,y,z
x,-y,z
1/2+x,1/2+y,z
1/2-x,1/2-y,z
1/2+x,1/2-y,-z
1/2-x,1/2+y,-z
1/2-x,1/2-y,-z
1/2+x,1/2+y,-z
1/2-x,1/2+y,z
1/2+x,1/2-y,z
loop_
_atom_site_type_symbol
_atom_site_label
_atom_site_fract_x
_atom_site_fract_y
_atom_site_fract_z
Si Si1 0.945432 0.388530 0.755408
Si Si2 0.303766 0.736712 0.096378
Si Si3 0.880569 0.389645 0.092131
Si Si4 0.444609 0.606670 0.680419
Si Si5 0.556694 0.790232 0.590200
Si Si6 0.383848 0.610589 0.842945
Si Si7 0.446014 0.387033 0.000000
O O1 0.944737 0.500000 0.749916
O O2 0.915408 0.360987 0.834824
O O3 0.926604 0.346558 0.669982
O O4 0.000000 0.359147 0.765518
O O5 0.250000 0.750000 0.123041
O O6 0.332412 0.832840 0.100121
O O7 0.334837 0.664134 0.147481
O O8 0.303303 0.706907 0.000000
O O9 0.872937 0.500000 0.098409
O O10 0.899759 0.371153 0.000000
O O11 0.500000 0.615254 0.704455
O O12 0.437109 0.500000 0.655307
O O13 0.435626 0.682187 0.610450
O O14 0.411939 0.627425 0.758716
O O15 0.575396 0.815552 0.500000
O O16 0.500000 0.805028 0.587768
O O17 0.376602 0.500000 0.849699
O O18 0.416995 0.640577 0.919205
O O19 0.447692 0.500000 0.000000
O O20 0.500000 0.354189 0.000000
#
# Coordination Sequence:
#
# PCOD9483459 Si02
#       7
#    16  16  16  16  16  16   8
#     4   9  17  29  46  67  91 119 150 187 227 265
#     4  10  20  32  45  61  85 117 155 196 230 265
#     4   9  18  32  48  65  88 119 153 187 224 267
#     4   9  17  28  43  64  91 122 150 179 219 265
#     4   9  17  28  42  61  88 123 158 188 217 256
#     4  10  18  29  45  65  90 118 150 187 224 264
#     4   9  16  26  41  62  89 119 148 177 212 256
#
# _framework density 15.617839999999999
#
# number of rings (size 3 to 8) (size 9 to 14) (size 15 to 20)
#    0.000    2.692    0.769    1.385    0.000    3.385 
#    0.000    6.923    0.000    0.000    0.000    0.000 
#    0.000    9.846    0.000   27.077    0.000    1.538 
#
# Total GULP energy -289796.952427 kJ/mol
# GULP energy per Si atom -5573.018316 kJ/mol
# Density = 1.558229 g / cm^3
# Si number density = 15.617840 Si / 1000 Ang^3
#
#
#
# Elastic Constant Matrix: (Units=GPa)
#
#
# Indices 1 2 3 4 5 6 
#
# 1 78.6019 22.3821 43.5672 0.0000 0.0000 0.0000
# 2 22.3821 37.5456 32.0931 0.0000 0.0000 0.0000
# 3 43.5672 32.0931 103.6253 0.0000 0.0000 0.0000
# 4 0.0000 0.0000 0.0000 12.7034 0.0000 0.0000
# 5 0.0000 0.0000 0.0000 0.0000 3.3867 0.0000
# 6 0.0000 0.0000 0.0000 0.0000 0.0000 18.8251
#
#
#
# Elastic Compliance Matrix: (Units=1/GPa)
#
#
# Indices 1 2 3 4 5 6 
#
# 1 0.017415 -0.005608 -0.005585 0.000000 0.000000 0.000000
# 2 -0.005608 0.038029 -0.009420 0.000000 0.000000 0.000000
# 3 -0.005585 -0.009420 0.014916 0.000000 0.000000 0.000000
# 4 0.000000 0.000000 0.000000 0.078719 0.000000 0.000000
# 5 0.000000 0.000000 0.000000 0.000000 0.295269 0.000000
# 6 0.000000 0.000000 0.000000 0.000000 0.000000 0.053121
#
#
# Mechanical properties :
#
#
# Convention : Reuss Voigt Hill
#
# Bulk Modulus (GPa) = 34.32386 46.20641 40.26514
# Shear Modulus (GPa) = 9.11734 15.09840 12.10787
#
# Velocity S-wave (km/s) = 2.41877 3.11262 2.78737
# Velocity P-wave (km/s) = 5.46129 6.52440 6.01637
#
# Compressibility (1/GPa) = 0.02913425
#
# Stress axis : x y z
#
# Youngs Moduli (GPa) = 57.42266 26.29548 67.04325
#
# Poissons Ratio (x) = 0.14745 0.37444
# Poissons Ratio (y) = 0.32200 0.63156
# Poissons Ratio (z) = 0.32071 0.24771
#
# Static dielectric constant tensor:
#      x y z
#    x 1.488830 0.000000 0.000000 
#    y 0.000000 1.560340 0.000000 
#    z 0.000000 0.000000 1.523710 
# 
# From -- ./inp_files/47993.got.cif
#   From: 2010.05.17/outbox.cif.g08.bks.cpg/sg65_24_cif.got.tgz:47993.got - 2010.06.03 17:01:31.
