data_PCOD9483371
_publ_section_title
;
Structure prediction by ZEFSAII (Michael W. Deem and Ramdas Pophale) SiO2 
 PCOD9483371
Probable space group: C M M M
;
_chemical_formula_sum "Si O2"
_cell_formula_units_Z 80
_cell_length_a 25.783588
_cell_length_b 21.079706
_cell_length_c 8.898098
_cell_angle_alpha 90.000000
_cell_angle_beta 90.000000
_cell_angle_gamma 90.000000
_cell_volume 4836.209290
_symmetry_space_group_name_H-M "C M M M"
_symmetry_group_IT_number 65
_symmetry_cell_setting 'orthorhombic'
loop_
_space_group_symop_operation_xyz
x,y,z
-x,-y,z
x,-y,-z
-x,y,-z
-x,-y,-z
x,y,-z
-x,y,z
x,-y,z
1/2+x,1/2+y,z
1/2-x,1/2-y,z
1/2+x,1/2-y,-z
1/2-x,1/2+y,-z
1/2-x,1/2-y,-z
1/2+x,1/2+y,-z
1/2-x,1/2+y,z
1/2+x,1/2-y,z
loop_
_atom_site_type_symbol
_atom_site_label
_atom_site_fract_x
_atom_site_fract_y
_atom_site_fract_z
Si Si1 0.500000 0.252088 0.819899
Si Si2 0.892329 0.386548 0.179464
Si Si3 0.285617 0.929100 0.680396
Si Si4 0.000000 0.387147 0.321733
Si Si5 0.113314 0.235609 0.821914
Si Si6 0.716453 0.689061 0.319139
O O1 0.500000 0.187171 0.726146
O O2 0.445627 0.286055 0.789153
O O3 0.500000 0.235218 0.000000
O O4 0.841330 0.419544 0.243376
O O5 0.885710 0.311069 0.215284
O O6 0.945911 0.411175 0.251851
O O7 0.895696 0.392548 0.000000
O O8 0.292445 0.922532 0.500000
O O9 0.245959 0.874469 0.730789
O O10 0.266237 0.000000 0.711326
O O11 0.000000 0.395006 0.500000
O O12 0.158453 0.198669 0.738662
O O13 0.121993 0.230414 0.000000
O O14 0.715628 0.689207 0.500000
O O15 0.750000 0.750000 0.268743
#
# Coordination Sequence:
#
# PCOD9483371 Si02
#       6
#     8  16  16   8  16  16
#     4   8  16  30  44  69 104 131 158 198 248 292
#     4  10  19  32  49  70  98 129 165 206 246 286
#     4  10  21  36  51  69  97 131 163 201 249 294
#     4  10  18  28  47  71  96 129 167 204 244 288
#     4   9  17  29  48  72  99 129 159 196 242 289
#     4  10  19  31  49  73  99 125 162 204 240 285
#
# _framework density 16.541881
#
# number of rings (size 3 to 8) (size 9 to 14) (size 15 to 20)
#    0.000    2.400    2.000    2.700    0.000    4.800 
#    0.000    0.500    0.000    3.000    0.000    0.700 
#    0.000    5.600    0.000    0.000    0.000    0.000 
#
# Total GULP energy -223003.463060 kJ/mol
# GULP energy per Si atom -5575.086577 kJ/mol
# Density = 1.650423 g / cm^3
# Si number density = 16.541881 Si / 1000 Ang^3
#
#
#
# Elastic Constant Matrix: (Units=GPa)
#
#
# Indices 1 2 3 4 5 6 
#
# 1 125.3066 56.3300 31.7229 0.0000 0.0000 0.0000
# 2 56.3300 79.5756 29.3830 0.0000 0.0000 0.0000
# 3 31.7229 29.3830 26.4423 0.0000 0.0000 0.0000
# 4 0.0000 0.0000 0.0000 10.5036 0.0000 0.0000
# 5 0.0000 0.0000 0.0000 0.0000 34.4534 0.0000
# 6 0.0000 0.0000 0.0000 0.0000 0.0000 12.7100
#
#
#
# Elastic Compliance Matrix: (Units=1/GPa)
#
#
# Indices 1 2 3 4 5 6 
#
# 1 0.012857 -0.005775 -0.009007 0.000000 0.000000 0.000000
# 2 -0.005775 0.023905 -0.019635 0.000000 0.000000 0.000000
# 3 -0.009007 -0.019635 0.070442 0.000000 0.000000 0.000000
# 4 0.000000 0.000000 0.000000 0.095205 0.000000 0.000000
# 5 0.000000 0.000000 0.000000 0.000000 0.029025 0.000000
# 6 0.000000 0.000000 0.000000 0.000000 0.000000 0.078678
#
#
# Mechanical properties :
#
#
# Convention : Reuss Voigt Hill
#
# Bulk Modulus (GPa) = 26.06193 51.79959 38.93076
# Shear Modulus (GPa) = 12.76368 19.12597 15.94482
#
# Velocity S-wave (km/s) = 2.78078 3.40400 3.10805
# Velocity P-wave (km/s) = 5.10878 6.84338 6.03869
#
# Compressibility (1/GPa) = 0.03837014
#
# Stress axis : x y z
#
# Youngs Moduli (GPa) = 77.77960 41.83203 14.19604
#
# Poissons Ratio (x) = 0.24160 0.12786
# Poissons Ratio (y) = 0.44921 0.27874
# Poissons Ratio (z) = 0.70053 0.82137
#
# Static dielectric constant tensor:
#      x y z
#    x 1.567160 0.000000 0.000000 
#    y 0.000000 1.558690 0.000000 
#    z 0.000000 0.000000 1.554020 
# 
# From -- ./inp_files/11575.got.cif
#   From: 2010.05.17/outbox.cif.g08.bks.cpg/sg65_6_cif.got.tgz:11575.got - 2010.06.03 17:01:31.
