data_PCOD9483270
_publ_section_title
;
Structure prediction by ZEFSAII (Michael W. Deem and Ramdas Pophale) SiO2 
 PCOD9483270
Probable space group: C M M M
;
_chemical_formula_sum "Si O2"
_cell_formula_units_Z 128
_cell_length_a 18.369559
_cell_length_b 23.465506
_cell_length_c 18.294497
_cell_angle_alpha 90.000000
_cell_angle_beta 90.000000
_cell_angle_gamma 90.000000
_cell_volume 7885.861170
_symmetry_space_group_name_H-M "C M M M"
_symmetry_group_IT_number 65
_symmetry_cell_setting 'orthorhombic'
loop_
_space_group_symop_operation_xyz
x,y,z
-x,-y,z
x,-y,-z
-x,y,-z
-x,-y,-z
x,y,-z
-x,y,z
x,-y,z
1/2+x,1/2+y,z
1/2-x,1/2-y,z
1/2+x,1/2-y,-z
1/2-x,1/2+y,-z
1/2-x,1/2-y,-z
1/2+x,1/2+y,-z
1/2-x,1/2+y,z
1/2+x,1/2-y,z
loop_
_atom_site_type_symbol
_atom_site_label
_atom_site_fract_x
_atom_site_fract_y
_atom_site_fract_z
Si Si1 0.584979 0.116853 0.580835
Si Si2 0.085551 0.786489 0.161791
Si Si3 0.722747 0.315445 0.919812
Si Si4 0.086246 0.828574 0.677449
Si Si5 0.413308 0.936687 0.734419
Si Si6 0.830643 0.327670 0.791387
Si Si7 0.321264 0.778867 0.632660
Si Si8 0.411359 0.435466 0.415572
O O1 0.594007 0.092009 0.500000
O O2 0.500000 0.135703 0.587755
O O3 0.598211 0.074418 0.647894
O O4 0.638292 0.170494 0.590960
O O5 0.137784 0.812364 0.100282
O O6 0.096378 0.823533 0.235544
O O7 0.116409 0.723111 0.180139
O O8 0.000000 0.784260 0.144765
O O9 0.750000 0.250000 0.923189
O O10 0.768619 0.338770 0.851410
O O11 0.735719 0.341245 0.000000
O O12 0.122975 0.772720 0.644399
O O13 0.114145 0.886207 0.639207
O O14 0.000000 0.825430 0.663953
O O15 0.500000 0.933306 0.747165
O O16 0.374456 0.885058 0.775334
O O17 0.388170 0.000000 0.754558
O O18 0.801080 0.304408 0.713304
O O19 0.250000 0.750000 0.599138
O O20 0.391045 0.423219 0.500000
O O21 0.500000 0.435996 0.413339
O O22 0.387436 0.500000 0.397471
#
# Coordination Sequence:
#
# PCOD9483270 Si02
#       8
#    16  16  16  16  16  16  16  16
#     4   9  18  31  45  64  92 121 149 186 230 272
#     4   9  16  26  43  68  96 123 149 183 226 266
#     4   9  17  29  46  68  92 119 149 177 213 269
#     4   9  16  26  42  64  88 115 148 182 218 265
#     4   9  17  29  48  72  92 116 154 193 227 266
#     4   9  16  29  46  66  94 124 150 182 224 271
#     4  10  18  28  44  64  87 117 151 186 224 264
#     4   8  14  25  41  61  84 109 139 177 216 251
#
# _framework density 16.231582
#
# number of rings (size 3 to 8) (size 9 to 14) (size 15 to 20)
#    0.000    3.000    0.000    3.000    0.000    4.250 
#    0.000    2.500    0.000    8.250    0.000    0.875 
#    0.000    0.000    0.000    6.000    0.000    2.375 
#
# Total GULP energy -356293.570326 kJ/mol
# GULP energy per Si atom -5567.087036 kJ/mol
# Density = 1.619464 g / cm^3
# Si number density = 16.231582 Si / 1000 Ang^3
#
#
#
# Elastic Constant Matrix: (Units=GPa)
#
#
# Indices 1 2 3 4 5 6 
#
# 1 49.6517 17.1095 30.3224 0.0000 0.0000 0.0000
# 2 17.1095 82.0108 31.0956 0.0000 0.0000 0.0000
# 3 30.3224 31.0956 72.0966 0.0000 0.0000 0.0000
# 4 0.0000 0.0000 0.0000 6.4474 0.0000 0.0000
# 5 0.0000 0.0000 0.0000 0.0000 15.5324 0.0000
# 6 0.0000 0.0000 0.0000 0.0000 0.0000 9.1665
#
#
#
# Elastic Compliance Matrix: (Units=1/GPa)
#
#
# Indices 1 2 3 4 5 6 
#
# 1 0.027276 -0.001603 -0.010781 0.000000 0.000000 0.000000
# 2 -0.001603 0.014672 -0.005654 0.000000 0.000000 0.000000
# 3 -0.010781 -0.005654 0.020843 0.000000 0.000000 0.000000
# 4 0.000000 0.000000 0.000000 0.155101 0.000000 0.000000
# 5 0.000000 0.000000 0.000000 0.000000 0.064382 0.000000
# 6 0.000000 0.000000 0.000000 0.000000 0.000000 0.109093
#
#
# Mechanical properties :
#
#
# Convention : Reuss Voigt Hill
#
# Bulk Modulus (GPa) = 37.43026 40.09044 38.76035
# Shear Modulus (GPa) = 11.45879 14.57804 13.01842
#
# Velocity S-wave (km/s) = 2.65987 3.00013 2.83511
# Velocity P-wave (km/s) = 5.70468 6.06248 5.88630
#
# Compressibility (1/GPa) = 0.02671635
#
# Stress axis : x y z
#
# Youngs Moduli (GPa) = 36.66185 68.15872 47.97812
#
# Poissons Ratio (x) = 0.10925 0.51723
# Poissons Ratio (y) = 0.05877 0.27126
# Poissons Ratio (z) = 0.39523 0.38535
#
# Static dielectric constant tensor:
#      x y z
#    x 1.559830 0.000000 0.000000 
#    y 0.000000 1.519930 0.000000 
#    z 0.000000 0.000000 1.562960 
# 
# From -- ./inp_files/55117.got.cif
#   From: 2010.05.17/outbox.cif.g08.bks.cpg/sg65_28_cif.got.tgz:55117.got - 2010.06.03 17:01:31.
