data_PCOD9483053
_publ_section_title
;
Structure prediction by ZEFSAII (Michael W. Deem and Ramdas Pophale) SiO2 
 PCOD9483053
Probable space group: C M M M
;
_chemical_formula_sum "Si O2"
_cell_formula_units_Z 80
_cell_length_a 23.084010
_cell_length_b 10.438557
_cell_length_c 20.854047
_cell_angle_alpha 90.000000
_cell_angle_beta 90.000000
_cell_angle_gamma 90.000000
_cell_volume 5025.069455
_symmetry_space_group_name_H-M "C M M M"
_symmetry_group_IT_number 65
_symmetry_cell_setting 'orthorhombic'
loop_
_space_group_symop_operation_xyz
x,y,z
-x,-y,z
x,-y,-z
-x,y,-z
-x,-y,-z
x,y,-z
-x,y,z
x,-y,z
1/2+x,1/2+y,z
1/2-x,1/2-y,z
1/2+x,1/2-y,-z
1/2-x,1/2+y,-z
1/2-x,1/2-y,-z
1/2+x,1/2+y,-z
1/2-x,1/2+y,z
1/2+x,1/2-y,z
loop_
_atom_site_type_symbol
_atom_site_label
_atom_site_fract_x
_atom_site_fract_y
_atom_site_fract_z
Si Si1 0.171651 0.500000 0.354316
Si Si2 0.189732 0.000000 0.629064
Si Si3 0.000000 0.146670 0.422204
Si Si4 0.625494 0.747818 0.576615
Si Si5 0.676417 0.000000 0.795662
Si Si6 0.305998 0.344896 0.000000
Si Si7 0.316699 0.500000 0.222272
Si Si8 0.820596 0.761581 0.138091
O O1 0.240819 0.500000 0.366514
O O2 0.146891 0.626920 0.387066
O O3 0.157548 0.500000 0.278441
O O4 0.165100 0.125951 0.594635
O O5 0.169643 0.000000 0.703020
O O6 0.940444 0.214803 0.403926
O O7 0.000000 0.142132 0.500000
O O8 0.000000 0.000000 0.399246
O O9 0.627507 0.767267 0.500000
O O10 0.658711 0.125459 0.835478
O O11 0.746787 0.000000 0.788527
O O12 0.250000 0.250000 0.000000
O O13 0.336851 0.306383 0.066447
O O14 0.293050 0.500000 0.000000
O O15 0.337865 0.372557 0.187243
O O16 0.750000 0.750000 0.138294
#
# Coordination Sequence:
#
# PCOD9483053 Si02
#       8
#     8   8   8  16   8   8   8  16
#     4  11  23  35  48  76 107 130 169 211 258 308
#     4  11  21  33  52  72 101 138 175 205 248 310
#     4   9  18  37  59  75  93 123 167 208 253 316
#     4  11  22  36  55  75  98 130 167 215 261 305
#     4   9  18  30  41  56  86 127 157 194 236 295
#     4  10  18  24  36  58  82 110 160 217 252 273
#     4   9  16  28  41  58  82 123 163 198 232 285
#     4   9  16  25  39  54  80 114 160 203 241 273
#
# _framework density 15.920178
#
# number of rings (size 3 to 8) (size 9 to 14) (size 15 to 20)
#    0.000    2.100    2.000    2.400    4.200    6.000 
#    0.000    1.500    0.000    0.000    0.000    0.000 
#    0.000    0.000    0.000    0.000    0.000   70.000 
#
# Total GULP energy -222886.171696 kJ/mol
# GULP energy per Si atom -5572.154292 kJ/mol
# Density = 1.588394 g / cm^3
# Si number density = 15.920178 Si / 1000 Ang^3
#
#
#
# Elastic Constant Matrix: (Units=GPa)
#
#
# Indices 1 2 3 4 5 6 
#
# 1 57.4852 36.9584 25.6157 0.0000 0.0000 0.0000
# 2 36.9584 175.9466 76.8938 0.0000 0.0000 0.0000
# 3 25.6157 76.8938 117.4621 0.0000 0.0000 0.0000
# 4 0.0000 0.0000 0.0000 28.2741 0.0000 0.0000
# 5 0.0000 0.0000 0.0000 0.0000 -2.0953 0.0000
# 6 0.0000 0.0000 0.0000 0.0000 0.0000 7.7772
#
#
#
# Elastic Compliance Matrix: (Units=1/GPa)
#
#
# Indices 1 2 3 4 5 6 
#
# 1 0.020553 -0.003304 -0.002320 0.000000 0.000000 0.000000
# 2 -0.003304 0.008492 -0.004839 0.000000 0.000000 0.000000
# 3 -0.002320 -0.004839 0.012187 0.000000 0.000000 0.000000
# 4 0.000000 0.000000 0.000000 0.035368 0.000000 0.000000
# 5 0.000000 0.000000 0.000000 0.000000 -0.477260 0.000000
# 6 0.000000 0.000000 0.000000 0.000000 0.000000 0.128582
#
#
# Mechanical properties :
#
#
# Convention : Reuss Voigt Hill
#
# Bulk Modulus (GPa) = 49.24059 69.98109 59.61084
# Shear Modulus (GPa) = -20.45953 20.88626 0.21336
#
# Velocity S-wave (km/s) = -3.58876 3.62600 0.36648
# Velocity P-wave (km/s) = 3.71813 7.84751 6.14035
#
# Compressibility (1/GPa) = 0.02030845
#
# Stress axis : x y z
#
# Youngs Moduli (GPa) = 48.65386 117.75570 82.05591
#
# Poissons Ratio (x) = 0.38902 0.19033
# Poissons Ratio (y) = 0.16073 0.39705
# Poissons Ratio (z) = 0.11286 0.56979
#
# Static dielectric constant tensor:
#      x y z
#    x 1.504710 0.000000 0.000000 
#    y 0.000000 1.635720 0.000000 
#    z 0.000000 0.000000 1.545260 
# 
# From -- ./inp_files/60140.got.cif
#   From: 2010.05.17/outbox.cif.g08.bks.cpg/sg65_31_cif.got.tgz:60140.got - 2010.06.03 17:01:31.
