data_PCOD9483889
_publ_section_title
;
Structure prediction by ZEFSAII (Michael W. Deem and Ramdas Pophale) SiO2 
 PCOD9483889
Probable space group: C M M M
;
_chemical_formula_sum "Si O2"
_cell_formula_units_Z 96
_cell_length_a 24.625466
_cell_length_b 26.082482
_cell_length_c 7.526987
_cell_angle_alpha 90.000000
_cell_angle_beta 90.000000
_cell_angle_gamma 90.000000
_cell_volume 4834.533121
_symmetry_space_group_name_H-M "C M M M"
_symmetry_group_IT_number 65
_symmetry_cell_setting 'orthorhombic'
loop_
_space_group_symop_operation_xyz
x,y,z
-x,-y,z
x,-y,-z
-x,y,-z
-x,-y,-z
x,y,-z
-x,y,z
x,-y,z
1/2+x,1/2+y,z
1/2-x,1/2-y,z
1/2+x,1/2-y,-z
1/2-x,1/2+y,-z
1/2-x,1/2-y,-z
1/2+x,1/2+y,-z
1/2-x,1/2+y,z
1/2+x,1/2-y,z
loop_
_atom_site_type_symbol
_atom_site_label
_atom_site_fract_x
_atom_site_fract_y
_atom_site_fract_z
Si Si1 0.061441 0.692761 0.787036
Si Si2 0.367601 0.901498 0.217355
Si Si3 0.561180 0.689131 0.710410
Si Si4 0.865428 0.905756 0.209257
Si Si5 0.751061 0.560007 0.782916
Si Si6 0.062077 0.000000 0.781934
Si Si7 0.937763 0.500000 0.216708
O O1 0.104580 0.651172 0.721893
O O2 0.075027 0.751842 0.749675
O O3 0.000000 0.683217 0.719343
O O4 0.059227 0.687198 0.000000
O O5 0.306223 0.912405 0.276225
O O6 0.405321 0.949286 0.270912
O O7 0.366854 0.900972 0.000000
O O8 0.558015 0.683479 0.500000
O O9 0.500000 0.679034 0.783633
O O10 0.605922 0.648879 0.772000
O O11 0.804439 0.913076 0.279124
O O12 0.905607 0.949740 0.279224
O O13 0.860791 0.916224 0.000000
O O14 0.750923 0.500000 0.731617
O O15 0.752213 0.560653 0.000000
O O16 0.000000 0.000000 0.723006
O O17 0.061028 0.000000 0.000000
O O18 0.000000 0.500000 0.276265
O O19 0.938404 0.500000 0.000000
#
# Coordination Sequence:
#
# PCOD9483889 Si02
#       7
#    16  16  16  16  16   8   8
#     4   9  17  30  49  73  99 128 164 203 241 284
#     4   9  15  24  41  68 102 133 160 195 241 287
#     4  10  21  36  52  70  94 126 162 201 249 297
#     4  10  18  30  50  74  98 126 162 199 237 286
#     4   9  15  26  44  69 100 133 163 193 235 287
#     4   9  16  25  42  70  97 117 144 188 238 283
#     4   9  14  19  33  63 103 137 158 187 240 296
#
# _framework density 19.857140999999999
#
# number of rings (size 3 to 8) (size 9 to 14) (size 15 to 20)
#    0.000    2.667    1.667    1.500    0.000    3.667 
#    0.000    1.250    0.000    7.500    0.000    0.583 
#    0.000    3.333    0.000    0.000    0.000    0.000 
#
# Total GULP energy -267881.223764 kJ/mol
# GULP energy per Si atom -5580.858828 kJ/mol
# Density = 1.981195 g / cm^3
# Si number density = 19.857141 Si / 1000 Ang^3
#
#
#
# Elastic Constant Matrix: (Units=GPa)
#
#
# Indices 1 2 3 4 5 6 
#
# 1 227.8419 129.2991 4.9452 0.0000 0.0000 0.0000
# 2 129.2991 138.2146 -9.1147 0.0000 0.0000 0.0000
# 3 4.9452 -9.1147 46.1552 0.0000 0.0000 0.0000
# 4 0.0000 0.0000 0.0000 -78.7004 0.0000 0.0000
# 5 0.0000 0.0000 0.0000 0.0000 -5.5492 0.0000
# 6 0.0000 0.0000 0.0000 0.0000 0.0000 28.0646
#
#
#
# Elastic Compliance Matrix: (Units=1/GPa)
#
#
# Indices 1 2 3 4 5 6 
#
# 1 0.009718 -0.009281 -0.002874 0.000000 0.000000 0.000000
# 2 -0.009281 0.016194 0.004192 0.000000 0.000000 0.000000
# 3 -0.002874 0.004192 0.022802 0.000000 0.000000 0.000000
# 4 0.000000 0.000000 0.000000 -0.012706 0.000000 0.000000
# 5 0.000000 0.000000 0.000000 0.000000 -0.180206 0.000000
# 6 0.000000 0.000000 0.000000 0.000000 0.000000 0.035632
#
#
# Mechanical properties :
#
#
# Convention : Reuss Voigt Hill
#
# Bulk Modulus (GPa) = 30.49828 73.60786 52.05307
# Shear Modulus (GPa) = -61.19090 7.90180 -26.64455
#
# Velocity S-wave (km/s) = -5.55720 1.99699 -3.66705
# Velocity P-wave (km/s) = 5.07784 6.51663 2.88808
#
# Compressibility (1/GPa) = 0.03278874
#
# Stress axis : x y z
#
# Youngs Moduli (GPa) = 102.89910 61.75185 43.85610
#
# Poissons Ratio (x) = 0.57311 0.12604
# Poissons Ratio (y) = 0.95500 -0.18386
# Poissons Ratio (z) = 0.29574 -0.25888
#
# Static dielectric constant tensor:
#      x y z
#    x 1.684750 0.000000 0.000000 
#    y 0.000000 1.665830 0.000000 
#    z 0.000000 0.000000 1.739510 
# 
# From -- ./inp_files/14374.got.cif
#   From: 2010.05.17/outbox.cif.g08.bks.cpg/sg65_8_cif.got.tgz:14374.got - 2010.06.03 17:01:31.
