data_PCOD9483177
_publ_section_title
;
Structure prediction by ZEFSAII (Michael W. Deem and Ramdas Pophale) SiO2 
 PCOD9483177
Probable space group: C M M M
;
_chemical_formula_sum "Si O2"
_cell_formula_units_Z 68
_cell_length_a 14.308459
_cell_length_b 24.195848
_cell_length_c 13.202987
_cell_angle_alpha 90.000000
_cell_angle_beta 90.000000
_cell_angle_gamma 90.000000
_cell_volume 4570.944063
_symmetry_space_group_name_H-M "C M M M"
_symmetry_group_IT_number 65
_symmetry_cell_setting 'orthorhombic'
loop_
_space_group_symop_operation_xyz
x,y,z
-x,-y,z
x,-y,-z
-x,y,-z
-x,-y,-z
x,y,-z
-x,y,z
x,-y,z
1/2+x,1/2+y,z
1/2-x,1/2-y,z
1/2+x,1/2-y,-z
1/2-x,1/2+y,-z
1/2-x,1/2-y,-z
1/2+x,1/2+y,-z
1/2-x,1/2+y,z
1/2+x,1/2-y,z
loop_
_atom_site_type_symbol
_atom_site_label
_atom_site_fract_x
_atom_site_fract_y
_atom_site_fract_z
Si Si1 0.892080 0.000000 0.377006
Si Si2 0.500000 0.710760 0.000000
Si Si3 0.500000 0.779001 0.792314
Si Si4 0.500000 0.308984 0.612197
Si Si5 0.312944 0.617982 0.617479
Si Si6 0.209293 0.686816 0.784981
Si Si7 0.286706 0.685869 0.000000
O O1 0.838410 0.944097 0.348871
O O2 0.896722 0.000000 0.500000
O O3 0.000000 0.000000 0.341129
O O4 0.500000 0.747323 0.100920
O O5 0.399191 0.681048 0.000000
O O6 0.500000 0.734989 0.701227
O O7 0.402508 0.810929 0.786734
O O8 0.500000 0.282650 0.500000
O O9 0.590498 0.347626 0.619437
O O10 0.280614 0.617144 0.500000
O O11 0.244813 0.649536 0.693129
O O12 0.250000 0.750000 0.773014
O O13 0.247391 0.664738 0.893052
O O14 0.250000 0.750000 0.000000
#
# Coordination Sequence:
#
# PCOD9483177 Si02
#       7
#     8   4   8   8  16  16   8
#     4   9  16  30  52  74  94 121 162 204 241 286
#     4  12  16  28  48  66  94 126 170 200 224 280
#     4  12  20  30  45  69 100 132 163 194 231 288
#     4  10  18  27  44  70  99 129 155 186 236 294
#     4  10  19  31  48  72  99 126 158 197 242 289
#     4  11  20  31  47  70  99 131 162 196 239 284
#     4  10  18  30  46  69  95 131 163 195 233 277
#
# _framework density 14.876576999999999
#
# number of rings (size 3 to 8) (size 9 to 14) (size 15 to 20)
#    0.000    1.529    8.235    0.000    0.000    1.412 
#    0.000    0.000    0.000    1.412    0.000    3.294 
#    0.000    2.824    0.000    0.000    0.000    0.000 
#
# Total GULP energy -189449.789401 kJ/mol
# GULP energy per Si atom -5572.052629 kJ/mol
# Density = 1.484272 g / cm^3
# Si number density = 14.876577 Si / 1000 Ang^3
#
#
#
# Elastic Constant Matrix: (Units=GPa)
#
#
# Indices 1 2 3 4 5 6 
#
# 1 135.3721 40.3711 57.1447 0.0000 0.0000 0.0000
# 2 40.3711 57.5765 54.7288 0.0000 0.0000 0.0000
# 3 57.1447 54.7288 123.2913 0.0000 0.0000 0.0000
# 4 0.0000 0.0000 0.0000 10.6473 0.0000 0.0000
# 5 0.0000 0.0000 0.0000 0.0000 54.8869 0.0000
# 6 0.0000 0.0000 0.0000 0.0000 0.0000 2.1184
#
#
#
# Elastic Compliance Matrix: (Units=1/GPa)
#
#
# Indices 1 2 3 4 5 6 
#
# 1 0.009792 -0.004415 -0.002579 0.000000 0.000000 0.000000
# 2 -0.004415 0.032036 -0.012175 0.000000 0.000000 0.000000
# 3 -0.002579 -0.012175 0.014711 0.000000 0.000000 0.000000
# 4 0.000000 0.000000 0.000000 0.093921 0.000000 0.000000
# 5 0.000000 0.000000 0.000000 0.000000 0.018219 0.000000
# 6 0.000000 0.000000 0.000000 0.000000 0.000000 0.472051
#
#
# Mechanical properties :
#
#
# Convention : Reuss Voigt Hill
#
# Bulk Modulus (GPa) = 54.93786 68.96989 61.95387
# Shear Modulus (GPa) = 7.29785 24.46355 15.88070
#
# Velocity S-wave (km/s) = 2.21726 4.05956 3.27080
# Velocity P-wave (km/s) = 6.60032 8.27257 7.48330
#
# Compressibility (1/GPa) = 0.01820238
#
# Stress axis : x y z
#
# Youngs Moduli (GPa) = 102.12146 31.21480 67.97862
#
# Poissons Ratio (x) = 0.13780 0.17532
# Poissons Ratio (y) = 0.45083 0.82761
# Poissons Ratio (z) = 0.26337 0.38003
#
# Static dielectric constant tensor:
#      x y z
#    x 1.523130 0.000000 0.000000 
#    y 0.000000 1.474920 0.000000 
#    z 0.000000 0.000000 1.510450 
# 
# From -- ./inp_files/24957.got.cif
#   From: 2010.05.17/outbox.cif.g08.bks.cpg/sg65_13_cif.got.tgz:24957.got - 2010.06.03 17:01:31.
