data_PCOD9483661
_publ_section_title
;
Structure prediction by ZEFSAII (Michael W. Deem and Ramdas Pophale) SiO2 
 PCOD9483661
Probable space group: C M M M
;
_chemical_formula_sum "Si O2"
_cell_formula_units_Z 72
_cell_length_a 7.484294
_cell_length_b 29.761230
_cell_length_c 19.105155
_cell_angle_alpha 90.000000
_cell_angle_beta 90.000000
_cell_angle_gamma 90.000000
_cell_volume 4255.516521
_symmetry_space_group_name_H-M "C M M M"
_symmetry_group_IT_number 65
_symmetry_cell_setting 'orthorhombic'
loop_
_space_group_symop_operation_xyz
x,y,z
-x,-y,z
x,-y,-z
-x,y,-z
-x,-y,-z
x,y,-z
-x,y,z
x,-y,z
1/2+x,1/2+y,z
1/2-x,1/2-y,z
1/2+x,1/2-y,-z
1/2-x,1/2+y,-z
1/2-x,1/2-y,-z
1/2+x,1/2+y,-z
1/2-x,1/2+y,z
1/2+x,1/2-y,z
loop_
_atom_site_type_symbol
_atom_site_label
_atom_site_fract_x
_atom_site_fract_y
_atom_site_fract_z
Si Si1 0.284733 0.946288 0.924758
Si Si2 0.281069 0.052267 0.228346
Si Si3 0.788997 0.607902 0.639425
Si Si4 0.714054 0.799928 0.580150
Si Si5 0.713856 0.551450 0.500000
O O1 0.500000 0.940736 0.925466
O O2 0.222480 0.930500 0.848455
O O3 0.251644 0.000000 0.924440
O O4 0.217418 0.928700 0.000000
O O5 0.500000 0.052197 0.228357
O O6 0.216489 0.081802 0.293233
O O7 0.228365 0.000000 0.236804
O O8 0.715943 0.657538 0.623097
O O9 0.770169 0.578075 0.569490
O O10 0.000000 0.613098 0.652697
O O11 0.782804 0.801988 0.500000
O O12 0.500000 0.804735 0.576218
O O13 0.750000 0.750000 0.607947
O O14 0.780299 0.500000 0.500000
O O15 0.500000 0.550170 0.500000
#
# Coordination Sequence:
#
# PCOD9483661 Si02
#       5
#    16  16  16  16   8
#     4   7   9  14  25  44  73 104 127 147 178 222
#     4   8  13  20  33  54  77 103 131 156 185 221
#     4  10  18  30  45  60  77 100 134 169 197 231
#     4   9  17  29  43  59  75  93 122 161 205 244
#     4  11  23  33  40  55  80 109 138 163 190 227
#
# _framework density 16.919215999999999
#
# number of rings (size 3 to 8) (size 9 to 14) (size 15 to 20)
#    0.000    3.222    1.111    3.000    0.000    2.667 
#    0.000    0.000    0.000    0.000    0.000    0.000 
#    0.000    1.778    0.000    8.889    0.000    8.000 
#
# Total GULP energy -200466.790004 kJ/mol
# GULP energy per Si atom -5568.521945 kJ/mol
# Density = 1.688071 g / cm^3
# Si number density = 16.919216 Si / 1000 Ang^3
#
#
#
# Elastic Constant Matrix: (Units=GPa)
#
#
# Indices 1 2 3 4 5 6 
#
# 1 44.6809 1.3063 -1.1056 0.0000 0.0000 0.0000
# 2 1.3063 119.1255 78.5233 0.0000 0.0000 0.0000
# 3 -1.1056 78.5233 174.2463 0.0000 0.0000 0.0000
# 4 0.0000 0.0000 0.0000 7.4216 0.0000 0.0000
# 5 0.0000 0.0000 0.0000 0.0000 -8.2722 0.0000
# 6 0.0000 0.0000 0.0000 0.0000 0.0000 5.6827
#
#
#
# Elastic Compliance Matrix: (Units=1/GPa)
#
#
# Indices 1 2 3 4 5 6 
#
# 1 0.022404 -0.000483 0.000360 0.000000 0.000000 0.000000
# 2 -0.000483 0.011952 -0.005389 0.000000 0.000000 0.000000
# 3 0.000360 -0.005389 0.008170 0.000000 0.000000 0.000000
# 4 0.000000 0.000000 0.000000 0.134742 0.000000 0.000000
# 5 0.000000 0.000000 0.000000 0.000000 -0.120887 0.000000
# 6 0.000000 0.000000 0.000000 0.000000 0.000000 0.175973
#
#
# Mechanical properties :
#
#
# Convention : Reuss Voigt Hill
#
# Bulk Modulus (GPa) = 31.74461 55.05564 43.40013
# Shear Modulus (GPa) = 19.69446 18.25500 18.97473
#
# Velocity S-wave (km/s) = 3.41549 3.28830 3.35250
# Velocity P-wave (km/s) = 5.86151 6.85771 6.37909
#
# Compressibility (1/GPa) = 0.03150141
#
# Stress axis : x y z
#
# Youngs Moduli (GPa) = 44.63500 83.66641 122.39991
#
# Poissons Ratio (x) = 0.04039 -0.04403
# Poissons Ratio (y) = 0.02155 0.65965
# Poissons Ratio (z) = -0.01606 0.45090
#
# Static dielectric constant tensor:
#      x y z
#    x 1.658350 0.000000 0.000000 
#    y 0.000000 1.560330 0.000000 
#    z 0.000000 0.000000 1.614490 
# 
# From -- ./inp_files/60012.got.cif
#   From: 2010.05.17/outbox.cif.g08.bks.cpg/sg65_31_cif.got.tgz:60012.got - 2010.06.03 17:01:31.
