data_PCOD9483355
_publ_section_title
;
Structure prediction by ZEFSAII (Michael W. Deem and Ramdas Pophale) SiO2 
 PCOD9483355
Probable space group: C M M M
;
_chemical_formula_sum "Si O2"
_cell_formula_units_Z 112
_cell_length_a 14.325789
_cell_length_b 14.826378
_cell_length_c 27.633103
_cell_angle_alpha 90.000000
_cell_angle_beta 90.000000
_cell_angle_gamma 90.000000
_cell_volume 5869.258998
_symmetry_space_group_name_H-M "C M M M"
_symmetry_group_IT_number 65
_symmetry_cell_setting 'orthorhombic'
loop_
_space_group_symop_operation_xyz
x,y,z
-x,-y,z
x,-y,-z
-x,y,-z
-x,-y,-z
x,y,-z
-x,y,z
x,-y,z
1/2+x,1/2+y,z
1/2-x,1/2-y,z
1/2+x,1/2-y,-z
1/2-x,1/2+y,-z
1/2-x,1/2-y,-z
1/2+x,1/2+y,-z
1/2-x,1/2+y,z
1/2+x,1/2-y,z
loop_
_atom_site_type_symbol
_atom_site_label
_atom_site_fract_x
_atom_site_fract_y
_atom_site_fract_z
Si Si1 0.394724 0.126364 0.776217
Si Si2 0.395328 0.109975 0.056407
Si Si3 0.242693 0.398475 0.864349
Si Si4 0.391769 0.232188 0.557973
Si Si5 0.269832 0.396272 0.594209
Si Si6 0.239582 0.859113 0.705183
Si Si7 0.894552 0.159320 0.791402
O O1 0.500000 0.094464 0.775842
O O2 0.335848 0.096353 0.822513
O O3 0.335679 0.105675 0.728385
O O4 0.397651 0.234574 0.780713
O O5 0.500000 0.138689 0.072248
O O6 0.311751 0.143486 0.090239
O O7 0.394594 0.000000 0.059579
O O8 0.384015 0.133246 0.000000
O O9 0.272106 0.500000 0.877283
O O10 0.330660 0.352466 0.838822
O O11 0.385656 0.223629 0.500000
O O12 0.500000 0.225843 0.572661
O O13 0.347931 0.328883 0.572628
O O14 0.327314 0.154189 0.581056
O O15 0.273479 0.500000 0.577056
O O16 0.280215 0.394715 0.652183
O O17 0.250000 0.750000 0.701459
O O18 0.160725 0.880824 0.745301
O O19 0.000000 0.125157 0.796713
#
# Coordination Sequence:
#
# PCOD9483355 Si02
#       7
#    16  16  16  16  16  16  16
#     4   9  18  32  51  72  98 136 173 205 249 311
#     4   8  14  25  42  66  95 125 159 204 262 322
#     4  10  18  28  46  71  98 125 160 212 264 307
#     4  10  23  43  64  87 118 156 194 235 286 344
#     4  11  22  38  62  91 119 150 190 240 291 339
#     4   9  17  33  51  78 106 140 177 220 262 317
#     4   9  19  34  51  69  96 141 182 207 242 303
#
# _framework density 19.082477999999998
#
# number of rings (size 3 to 8) (size 9 to 14) (size 15 to 20)
#    0.000    2.571    1.429    3.000    0.000    6.286 
#    0.000    1.429    0.000    2.143    0.000    4.000 
#    0.000    0.000    0.000    0.000    0.000    0.000 
#
# Total GULP energy -312289.195107 kJ/mol
# GULP energy per Si atom -5576.592770 kJ/mol
# Density = 1.903905 g / cm^3
# Si number density = 19.082478 Si / 1000 Ang^3
#
#
#
# Elastic Constant Matrix: (Units=GPa)
#
#
# Indices 1 2 3 4 5 6 
#
# 1 150.5171 29.7413 47.0604 0.0000 0.0000 0.0000
# 2 29.7413 81.4722 10.5040 0.0000 0.0000 0.0000
# 3 47.0604 10.5040 80.1142 0.0000 0.0000 0.0000
# 4 0.0000 0.0000 0.0000 16.9725 0.0000 0.0000
# 5 0.0000 0.0000 0.0000 0.0000 144.3400 0.0000
# 6 0.0000 0.0000 0.0000 0.0000 0.0000 -3.8015
#
#
#
# Elastic Compliance Matrix: (Units=1/GPa)
#
#
# Indices 1 2 3 4 5 6 
#
# 1 0.008625 -0.002538 -0.004734 0.000000 0.000000 0.000000
# 2 -0.002538 0.013232 -0.000244 0.000000 0.000000 0.000000
# 3 -0.004734 -0.000244 0.015295 0.000000 0.000000 0.000000
# 4 0.000000 0.000000 0.000000 0.058919 0.000000 0.000000
# 5 0.000000 0.000000 0.000000 0.000000 0.006928 0.000000
# 6 0.000000 0.000000 0.000000 0.000000 0.000000 -0.263051
#
#
# Mechanical properties :
#
#
# Convention : Reuss Voigt Hill
#
# Bulk Modulus (GPa) = 45.20729 54.07944 49.64337
# Shear Modulus (GPa) = -36.32494 46.48872 5.08189
#
# Velocity S-wave (km/s) = -4.36773 4.94114 1.63368
# Velocity P-wave (km/s) = 1.30162 7.80734 5.44336
#
# Compressibility (1/GPa) = 0.02212033
#
# Stress axis : x y z
#
# Youngs Moduli (GPa) = 115.93633 75.57324 65.38120
#
# Poissons Ratio (x) = 0.19183 0.30951
# Poissons Ratio (y) = 0.29429 0.01594
# Poissons Ratio (z) = 0.54883 0.01843
#
# Static dielectric constant tensor:
#      x y z
#    x 1.670350 0.000000 0.000000 
#    y 0.000000 1.696430 0.000000 
#    z 0.000000 0.000000 1.652330 
# 
# From -- ./inp_files/74912.got.cif
#   From: 2010.05.17/outbox.cif.g08.bks.cpg/sg65_38_cif.got.tgz:74912.got - 2010.06.03 17:01:31.
