data_PCOD9483117
_publ_section_title
;
Structure prediction by ZEFSAII (Michael W. Deem and Ramdas Pophale) SiO2 
 PCOD9483117
Probable space group: C M M M
;
_chemical_formula_sum "Si O2"
_cell_formula_units_Z 96
_cell_length_a 26.898449
_cell_length_b 9.133942
_cell_length_c 23.611009
_cell_angle_alpha 90.000000
_cell_angle_beta 90.000000
_cell_angle_gamma 90.000000
_cell_volume 5800.962193
_symmetry_space_group_name_H-M "C M M M"
_symmetry_group_IT_number 65
_symmetry_cell_setting 'orthorhombic'
loop_
_space_group_symop_operation_xyz
x,y,z
-x,-y,z
x,-y,-z
-x,y,-z
-x,-y,-z
x,y,-z
-x,y,z
x,-y,z
1/2+x,1/2+y,z
1/2-x,1/2-y,z
1/2+x,1/2-y,-z
1/2-x,1/2+y,-z
1/2-x,1/2-y,-z
1/2+x,1/2+y,-z
1/2-x,1/2+y,z
1/2+x,1/2-y,z
loop_
_atom_site_type_symbol
_atom_site_label
_atom_site_fract_x
_atom_site_fract_y
_atom_site_fract_z
Si Si1 0.056922 0.824164 0.751746
Si Si2 0.705151 0.164261 0.247191
Si Si3 0.642316 0.675175 0.337435
Si Si4 0.197048 0.672588 0.567416
Si Si5 0.617843 0.834620 0.155754
Si Si6 0.302578 0.174873 0.067155
O O1 0.093022 0.783391 0.698909
O O2 0.076478 0.757705 0.811075
O O3 0.000000 0.780579 0.741402
O O4 0.059650 0.000000 0.755955
O O5 0.750000 0.250000 0.219046
O O6 0.687031 0.262836 0.298993
O O7 0.660699 0.154926 0.203162
O O8 0.718643 0.000000 0.264847
O O9 0.643852 0.500000 0.342527
O O10 0.652924 0.751607 0.397228
O O11 0.189107 0.687671 0.500000
O O12 0.200017 0.500000 0.581067
O O13 0.250000 0.750000 0.580362
O O14 0.648763 0.774138 0.102073
O O15 0.599964 0.000000 0.142945
O O16 0.250000 0.250000 0.082293
O O17 0.298174 0.000000 0.078114
O O18 0.309871 0.196875 0.000000
#
# Coordination Sequence:
#
# PCOD9483117 Si02
#       6
#    16  16  16  16  16  16
#     4   9  19  35  53  72  92 116 150 195 244 287
#     4  10  18  27  40  61  91 121 150 184 223 271
#     4  10  19  31  48  68  91 119 151 188 231 277
#     4  10  20  33  49  70  98 130 161 190 220 260
#     4   9  18  30  45  67  92 120 154 191 232 278
#     4   9  17  29  45  67  97 130 162 194 227 269
#
# _framework density 16.548978000000002
#
# number of rings (size 3 to 8) (size 9 to 14) (size 15 to 20)
#    0.000    2.500    0.000    2.500    0.000    3.333 
#    0.000    0.000    0.000    1.000    0.000    7.000 
#    0.000    0.000    0.000    0.000    0.000    0.000 
#
# Total GULP energy -267287.471106 kJ/mol
# GULP energy per Si atom -5568.488981 kJ/mol
# Density = 1.651131 g / cm^3
# Si number density = 16.548978 Si / 1000 Ang^3
#
#
#
# Elastic Constant Matrix: (Units=GPa)
#
#
# Indices 1 2 3 4 5 6 
#
# 1 88.7636 45.8513 41.3841 0.0000 0.0000 0.0000
# 2 45.8513 63.3029 36.7539 0.0000 0.0000 0.0000
# 3 41.3841 36.7539 84.0855 0.0000 0.0000 0.0000
# 4 0.0000 0.0000 0.0000 22.0782 0.0000 0.0000
# 5 0.0000 0.0000 0.0000 0.0000 22.6162 0.0000
# 6 0.0000 0.0000 0.0000 0.0000 0.0000 20.8475
#
#
#
# Elastic Compliance Matrix: (Units=1/GPa)
#
#
# Indices 1 2 3 4 5 6 
#
# 1 0.019201 -0.011285 -0.004518 0.000000 0.000000 0.000000
# 2 -0.011285 0.027802 -0.006598 0.000000 0.000000 0.000000
# 3 -0.004518 -0.006598 0.017000 0.000000 0.000000 0.000000
# 4 0.000000 0.000000 0.000000 0.045294 0.000000 0.000000
# 5 0.000000 0.000000 0.000000 0.000000 0.044216 0.000000
# 6 0.000000 0.000000 0.000000 0.000000 0.000000 0.047967
#
#
# Mechanical properties :
#
#
# Convention : Reuss Voigt Hill
#
# Bulk Modulus (GPa) = 52.07805 53.79230 52.93517
# Shear Modulus (GPa) = 19.78767 20.58588 20.18678
#
# Velocity S-wave (km/s) = 3.46165 3.53078 3.49638
# Velocity P-wave (km/s) = 6.89309 7.01408 6.95385
#
# Compressibility (1/GPa) = 0.01920195
#
# Stress axis : x y z
#
# Youngs Moduli (GPa) = 52.07937 35.96886 58.82303
#
# Poissons Ratio (x) = 0.40591 0.26574
# Poissons Ratio (y) = 0.58771 0.38812
# Poissons Ratio (z) = 0.23528 0.23733
#
# Static dielectric constant tensor:
#      x y z
#    x 1.564190 0.000000 0.000000 
#    y 0.000000 1.580830 0.000000 
#    z 0.000000 0.000000 1.586440 
# 
# From -- ./inp_files/68005.got.cif
#   From: 2010.05.17/outbox.cif.g08.bks.cpg/sg65_35_cif.got.tgz:68005.got - 2010.06.03 17:01:31.
