data_PCOD9483829
_publ_section_title
;
Structure prediction by ZEFSAII (Michael W. Deem and Ramdas Pophale) SiO2 
 PCOD9483829
Probable space group: C M M M
;
_chemical_formula_sum "Si O2"
_cell_formula_units_Z 104
_cell_length_a 8.147319
_cell_length_b 20.297141
_cell_length_c 34.488148
_cell_angle_alpha 90.000000
_cell_angle_beta 90.000000
_cell_angle_gamma 90.000000
_cell_volume 5703.211314
_symmetry_space_group_name_H-M "C M M M"
_symmetry_group_IT_number 65
_symmetry_cell_setting 'orthorhombic'
loop_
_space_group_symop_operation_xyz
x,y,z
-x,-y,z
x,-y,-z
-x,y,-z
-x,-y,-z
x,y,-z
-x,y,z
x,-y,z
1/2+x,1/2+y,z
1/2-x,1/2-y,z
1/2+x,1/2-y,-z
1/2-x,1/2+y,-z
1/2-x,1/2-y,-z
1/2+x,1/2+y,-z
1/2-x,1/2+y,z
1/2+x,1/2-y,z
loop_
_atom_site_type_symbol
_atom_site_label
_atom_site_fract_x
_atom_site_fract_y
_atom_site_fract_z
Si Si1 0.198301 0.824684 0.302509
Si Si2 0.799618 0.075776 0.543762
Si Si3 0.301789 0.075564 0.150073
Si Si4 0.304534 0.173831 0.083660
Si Si5 0.698329 0.324663 0.609695
Si Si6 0.694296 0.326272 0.000000
Si Si7 0.301626 0.424610 0.236679
O O1 0.250000 0.750000 0.293713
O O2 0.254687 0.840422 0.346410
O O3 0.257990 0.875557 0.270086
O O4 0.000000 0.827148 0.302685
O O5 0.748784 0.094418 0.500000
O O6 0.741455 0.124865 0.577104
O O7 0.000000 0.076787 0.544129
O O8 0.750581 0.000000 0.550752
O O9 0.500000 0.074791 0.148268
O O10 0.240394 0.126612 0.117738
O O11 0.251800 0.095335 0.193524
O O12 0.244556 0.000000 0.143676
O O13 0.500000 0.174398 0.085611
O O14 0.250000 0.250000 0.087561
O O15 0.256581 0.147109 0.041067
O O16 0.500000 0.327327 0.609849
O O17 0.750000 0.250000 0.600990
O O18 0.750000 0.250000 0.000000
O O19 0.500000 0.328616 0.000000
O O20 0.500000 0.424705 0.237623
O O21 0.245673 0.500000 0.243052
#
# Coordination Sequence:
#
# PCOD9483829 Si02
#       7
#    16  16  16  16  16   8  16
#     4   9  18  31  46  66  92 120 150 185 227 273
#     4   8  14  25  42  65  90 115 148 190 230 267
#     4   9  19  35  52  70  94 125 158 190 227 273
#     4  10  19  32  51  73  97 124 156 193 230 271
#     4   9  17  29  45  65  90 119 149 184 226 272
#     4  10  18  30  49  72  99 127 157 193 231 272
#     4   9  18  32  49  68  90 117 150 189 230 270
#
# _framework density 18.235340000000001
#
# number of rings (size 3 to 8) (size 9 to 14) (size 15 to 20)
#    0.000    2.923    0.000    2.538    0.000    3.385 
#    0.000    6.538    0.000    2.769    0.000    5.385 
#    0.000    0.000    0.000    0.000    0.000    0.000 
#
# Total GULP energy -289806.052430 kJ/mol
# GULP energy per Si atom -5573.193316 kJ/mol
# Density = 1.819384 g / cm^3
# Si number density = 18.235340 Si / 1000 Ang^3
#
#
#
# Elastic Constant Matrix: (Units=GPa)
#
#
# Indices 1 2 3 4 5 6 
#
# 1 16.0232 9.7688 12.4622 0.0000 0.0000 0.0000
# 2 9.7688 104.1174 129.5207 0.0000 0.0000 0.0000
# 3 12.4622 129.5207 201.1085 0.0000 0.0000 0.0000
# 4 0.0000 0.0000 0.0000 12.1865 0.0000 0.0000
# 5 0.0000 0.0000 0.0000 0.0000 14.9170 0.0000
# 6 0.0000 0.0000 0.0000 0.0000 0.0000 19.9023
#
#
#
# Elastic Compliance Matrix: (Units=1/GPa)
#
#
# Indices 1 2 3 4 5 6 
#
# 1 0.066207 -0.005573 -0.000513 0.000000 0.000000 0.000000
# 2 -0.005573 0.048774 -0.031067 0.000000 0.000000 0.000000
# 3 -0.000513 -0.031067 0.025012 0.000000 0.000000 0.000000
# 4 0.000000 0.000000 0.000000 0.082058 0.000000 0.000000
# 5 0.000000 0.000000 0.000000 0.000000 0.067037 0.000000
# 6 0.000000 0.000000 0.000000 0.000000 0.000000 0.050245
#
#
# Mechanical properties :
#
#
# Convention : Reuss Voigt Hill
#
# Bulk Modulus (GPa) = 15.22387 69.41693 42.32040
# Shear Modulus (GPa) = 11.48009 20.70100 16.09055
#
# Velocity S-wave (km/s) = 2.51181 3.37295 2.97372
# Velocity P-wave (km/s) = 4.09621 7.30198 5.92021
#
# Compressibility (1/GPa) = 0.06568632
#
# Stress axis : x y z
#
# Youngs Moduli (GPa) = 15.10422 20.50261 39.98019
#
# Poissons Ratio (x) = 0.11427 0.02052
# Poissons Ratio (y) = 0.08418 1.24206
# Poissons Ratio (z) = 0.00775 0.63695
#
# Static dielectric constant tensor:
#      x y z
#    x 1.642470 0.000000 0.000000 
#    y 0.000000 1.608740 0.000000 
#    z 0.000000 0.000000 1.641210 
# 
# From -- ./inp_files/73567.got.cif
#   From: 2010.05.17/outbox.cif.g08.bks.cpg/sg65_37_cif.got.tgz:73567.got - 2010.06.03 17:01:31.
