data_PCOD9483274
_publ_section_title
;
Structure prediction by ZEFSAII (Michael W. Deem and Ramdas Pophale) SiO2 
 PCOD9483274
Probable space group: C M M M
;
_chemical_formula_sum "Si O2"
_cell_formula_units_Z 120
_cell_length_a 17.138745
_cell_length_b 17.268268
_cell_length_c 26.057282
_cell_angle_alpha 90.000000
_cell_angle_beta 90.000000
_cell_angle_gamma 90.000000
_cell_volume 7711.820465
_symmetry_space_group_name_H-M "C M M M"
_symmetry_group_IT_number 65
_symmetry_cell_setting 'orthorhombic'
loop_
_space_group_symop_operation_xyz
x,y,z
-x,-y,z
x,-y,-z
-x,y,-z
-x,-y,-z
x,y,-z
-x,y,z
x,-y,z
1/2+x,1/2+y,z
1/2-x,1/2-y,z
1/2+x,1/2-y,-z
1/2-x,1/2+y,-z
1/2-x,1/2-y,-z
1/2+x,1/2+y,-z
1/2-x,1/2+y,z
1/2+x,1/2-y,z
loop_
_atom_site_type_symbol
_atom_site_label
_atom_site_fract_x
_atom_site_fract_y
_atom_site_fract_z
Si Si1 0.908908 0.732248 0.670651
Si Si2 0.266059 0.909047 0.225472
Si Si3 0.305758 0.321061 0.587496
Si Si4 0.407762 0.591370 0.060374
Si Si5 0.594353 0.593971 0.500000
Si Si6 0.089634 0.696755 0.785401
Si Si7 0.322169 0.693958 0.143162
Si Si8 0.195306 0.589756 0.340279
O O1 0.856211 0.784624 0.634022
O O2 0.895529 0.742141 0.731642
O O3 0.880081 0.644586 0.660692
O O4 0.000000 0.742979 0.659835
O O5 0.352083 0.875651 0.213615
O O6 0.208798 0.860831 0.189237
O O7 0.258174 0.895925 0.286714
O O8 0.259466 0.000000 0.215521
O O9 0.250000 0.250000 0.567709
O O10 0.363315 0.363166 0.547819
O O11 0.248353 0.383930 0.612572
O O12 0.500000 0.605088 0.070124
O O13 0.393252 0.500000 0.069650
O O14 0.355214 0.643598 0.096891
O O15 0.393676 0.606238 0.000000
O O16 0.607343 0.500000 0.500000
O O17 0.500000 0.605658 0.500000
O O18 0.111419 0.752094 0.832234
O O19 0.000000 0.673254 0.785487
O O20 0.250000 0.750000 0.128648
O O21 0.175199 0.500000 0.341988
#
# Coordination Sequence:
#
# PCOD9483274 Si02
#       8
#    16  16  16  16   8  16  16  16
#     4   9  17  29  46  67  91 118 146 177 212 252
#     4   9  17  28  43  65  91 119 148 176 210 251
#     4  10  19  33  51  68  88 114 145 179 217 260
#     4   9  18  32  48  64  83 110 144 182 224 266
#     4  11  23  36  50  68  89 113 144 182 220 259
#     4   9  17  28  43  65  91 119 148 176 210 251
#     4  10  18  28  44  65  90 116 144 180 216 255
#     4   9  17  29  46  67  91 118 146 177 212 252
#
# _framework density 15.560528
#
# number of rings (size 3 to 8) (size 9 to 14) (size 15 to 20)
#    0.000    2.600    0.000    3.000    0.000    4.000 
#    0.000    2.667    0.000    0.000    0.000   11.200 
#    0.000    9.600    0.000   24.800    0.000    0.267 
#
# Total GULP energy -334184.285847 kJ/mol
# GULP energy per Si atom -5569.738097 kJ/mol
# Density = 1.552511 g / cm^3
# Si number density = 15.560528 Si / 1000 Ang^3
#
#
#
# Elastic Constant Matrix: (Units=GPa)
#
#
# Indices 1 2 3 4 5 6 
#
# 1 47.8658 16.6795 20.8552 0.0000 0.0000 0.0000
# 2 16.6795 59.6680 25.3824 0.0000 0.0000 0.0000
# 3 20.8552 25.3824 51.1876 0.0000 0.0000 0.0000
# 4 0.0000 0.0000 0.0000 22.1854 0.0000 0.0000
# 5 0.0000 0.0000 0.0000 0.0000 20.3339 0.0000
# 6 0.0000 0.0000 0.0000 0.0000 0.0000 16.3036
#
#
#
# Elastic Compliance Matrix: (Units=1/GPa)
#
#
# Indices 1 2 3 4 5 6 
#
# 1 0.025963 -0.003495 -0.008845 0.000000 0.000000 0.000000
# 2 -0.003495 0.021710 -0.009341 0.000000 0.000000 0.000000
# 3 -0.008845 -0.009341 0.027772 0.000000 0.000000 0.000000
# 4 0.000000 0.000000 0.000000 0.045075 0.000000 0.000000
# 5 0.000000 0.000000 0.000000 0.000000 0.049179 0.000000
# 6 0.000000 0.000000 0.000000 0.000000 0.000000 0.061336
#
#
# Mechanical properties :
#
#
# Convention : Reuss Voigt Hill
#
# Bulk Modulus (GPa) = 31.16992 31.61730 31.39361
# Shear Modulus (GPa) = 17.53816 18.15154 17.84485
#
# Velocity S-wave (km/s) = 3.36086 3.41913 3.39012
# Velocity P-wave (km/s) = 5.92751 5.99585 5.96178
#
# Compressibility (1/GPa) = 0.03208221
#
# Stress axis : x y z
#
# Youngs Moduli (GPa) = 38.51562 46.06129 36.00774
#
# Poissons Ratio (x) = 0.16099 0.31849
# Poissons Ratio (y) = 0.13462 0.33636
# Poissons Ratio (z) = 0.34067 0.43028
#
# Static dielectric constant tensor:
#      x y z
#    x 1.500660 0.000000 0.000000 
#    y 0.000000 1.503430 0.000000 
#    z 0.000000 0.000000 1.516840 
# 
# From -- ./inp_files/64030.got.cif
#   From: 2010.05.17/outbox.cif.g08.bks.cpg/sg65_33_cif.got.tgz:64030.got - 2010.06.03 17:01:31.
