data_PCOD9483171
_publ_section_title
;
Structure prediction by ZEFSAII (Michael W. Deem and Ramdas Pophale) SiO2 
 PCOD9483171
Probable space group: C M M M
;
_chemical_formula_sum "Si O2"
_cell_formula_units_Z 88
_cell_length_a 7.688220
_cell_length_b 18.458745
_cell_length_c 31.750562
_cell_angle_alpha 90.000000
_cell_angle_beta 90.000000
_cell_angle_gamma 90.000000
_cell_volume 4505.877593
_symmetry_space_group_name_H-M "C M M M"
_symmetry_group_IT_number 65
_symmetry_cell_setting 'orthorhombic'
loop_
_space_group_symop_operation_xyz
x,y,z
-x,-y,z
x,-y,-z
-x,y,-z
-x,-y,-z
x,y,-z
-x,y,z
x,-y,z
1/2+x,1/2+y,z
1/2-x,1/2-y,z
1/2+x,1/2-y,-z
1/2-x,1/2+y,-z
1/2-x,1/2-y,-z
1/2+x,1/2+y,-z
1/2-x,1/2+y,z
1/2+x,1/2-y,z
loop_
_atom_site_type_symbol
_atom_site_label
_atom_site_fract_x
_atom_site_fract_y
_atom_site_fract_z
Si Si1 0.708168 0.164971 0.603145
Si Si2 0.787768 0.415499 0.781261
Si Si3 0.788738 0.583763 0.311743
Si Si4 0.206065 0.835845 0.045073
Si Si5 0.500000 0.414460 0.449744
Si Si6 0.295485 0.165350 0.137048
O O1 0.500000 0.153639 0.597009
O O2 0.750000 0.250000 0.600989
O O3 0.759489 0.133626 0.649137
O O4 0.829050 0.122823 0.570086
O O5 0.743302 0.500000 0.785070
O O6 0.730070 0.390863 0.734674
O O7 0.718617 0.373116 0.821825
O O8 0.000000 0.411335 0.781195
O O9 0.732655 0.500000 0.317900
O O10 0.000000 0.582536 0.310855
O O11 0.250000 0.750000 0.046067
O O12 0.256950 0.866159 0.090611
O O13 0.000000 0.842287 0.043461
O O14 0.277571 0.863890 0.000000
O O15 0.500000 0.500000 0.439774
O O16 0.500000 0.405702 0.500000
O O17 0.500000 0.160219 0.141387
O O18 0.250000 0.250000 0.137145
#
# Coordination Sequence:
#
# PCOD9483171 Si02
#       6
#    16  16  16  16   8  16
#     4  11  22  40  64  96 129 167 207 254 315 367
#     4   8  15  29  48  72 100 136 178 214 258 315
#     4   8  15  30  55  81 108 146 191 234 277 337
#     4   9  16  26  41  60  84 116 153 198 250 306
#     4  11  26  46  68  96 129 167 213 263 309 365
#     4  10  18  27  44  68  94 123 156 202 257 309
#
# _framework density 19.530047
#
# number of rings (size 3 to 8) (size 9 to 14) (size 15 to 20)
#    0.000    2.636    0.909    3.818    0.000    3.636 
#    0.000    0.909    4.000    2.727    0.000    3.818 
#    0.000    0.000    0.000    0.000    0.000    0.000 
#
# Total GULP energy -245160.190508 kJ/mol
# GULP energy per Si atom -5571.822512 kJ/mol
# Density = 1.948560 g / cm^3
# Si number density = 19.530047 Si / 1000 Ang^3
#
#
#
# Elastic Constant Matrix: (Units=GPa)
#
#
# Indices 1 2 3 4 5 6 
#
# 1 73.8366 24.6764 45.6979 0.0000 0.0000 0.0000
# 2 24.6764 78.5962 87.2121 0.0000 0.0000 0.0000
# 3 45.6979 87.2121 190.5191 0.0000 0.0000 0.0000
# 4 0.0000 0.0000 0.0000 34.6649 0.0000 0.0000
# 5 0.0000 0.0000 0.0000 0.0000 7.2991 0.0000
# 6 0.0000 0.0000 0.0000 0.0000 0.0000 1.7196
#
#
#
# Elastic Compliance Matrix: (Units=1/GPa)
#
#
# Indices 1 2 3 4 5 6 
#
# 1 0.015997 -0.001554 -0.003126 0.000000 0.000000 0.000000
# 2 -0.001554 0.026008 -0.011533 0.000000 0.000000 0.000000
# 3 -0.003126 -0.011533 0.011278 0.000000 0.000000 0.000000
# 4 0.000000 0.000000 0.000000 0.028848 0.000000 0.000000
# 5 0.000000 0.000000 0.000000 0.000000 0.137004 0.000000
# 6 0.000000 0.000000 0.000000 0.000000 0.000000 0.581532
#
#
# Mechanical properties :
#
#
# Convention : Reuss Voigt Hill
#
# Bulk Modulus (GPa) = 47.94330 73.12495 60.53412
# Shear Modulus (GPa) = 5.95206 21.09441 13.52324
#
# Velocity S-wave (km/s) = 1.74764 3.29005 2.63427
# Velocity P-wave (km/s) = 5.35482 7.20806 6.34942
#
# Compressibility (1/GPa) = 0.02085797
#
# Stress axis : x y z
#
# Youngs Moduli (GPa) = 62.51040 38.44934 88.67026
#
# Poissons Ratio (x) = 0.05976 0.27715
# Poissons Ratio (y) = 0.09717 1.02261
# Poissons Ratio (z) = 0.19538 0.44343
#
# Static dielectric constant tensor:
#      x y z
#    x 1.702480 0.000000 0.000000 
#    y 0.000000 1.618380 0.000000 
#    z 0.000000 0.000000 1.752960 
# 
# From -- ./inp_files/76523.got.cif
#   From: 2010.05.17/outbox.cif.g08.bks.cpg/sg65_39_cif.got.tgz:76523.got - 2010.06.03 17:01:31.
