data_PCOD9483229
_publ_section_title
;
Structure prediction by ZEFSAII (Michael W. Deem and Ramdas Pophale) SiO2 
 PCOD9483229
Probable space group: C M M M
;
_chemical_formula_sum "Si O2"
_cell_formula_units_Z 72
_cell_length_a 23.762372
_cell_length_b 16.606544
_cell_length_c 12.006928
_cell_angle_alpha 90.000000
_cell_angle_beta 90.000000
_cell_angle_gamma 90.000000
_cell_volume 4738.064378
_symmetry_space_group_name_H-M "C M M M"
_symmetry_group_IT_number 65
_symmetry_cell_setting 'orthorhombic'
loop_
_space_group_symop_operation_xyz
x,y,z
-x,-y,z
x,-y,-z
-x,y,-z
-x,-y,-z
x,y,-z
-x,y,z
x,-y,z
1/2+x,1/2+y,z
1/2-x,1/2-y,z
1/2+x,1/2-y,-z
1/2-x,1/2+y,-z
1/2-x,1/2-y,-z
1/2+x,1/2+y,-z
1/2-x,1/2+y,z
1/2+x,1/2-y,z
loop_
_atom_site_type_symbol
_atom_site_label
_atom_site_fract_x
_atom_site_fract_y
_atom_site_fract_z
Si Si1 0.809549 0.702622 0.715998
Si Si2 0.335812 0.405261 0.500000
Si Si3 0.864178 0.135696 0.744805
Si Si4 0.201577 0.401546 0.500000
Si Si5 0.067292 0.000000 0.869876
Si Si6 0.251527 0.592498 0.126123
O O1 0.750000 0.750000 0.691948
O O2 0.856468 0.767836 0.750790
O O3 0.820845 0.644946 0.610001
O O4 0.795775 0.648140 0.822012
O O5 0.338903 0.500000 0.500000
O O6 0.364582 0.377007 0.387324
O O7 0.269210 0.386099 0.500000
O O8 0.909709 0.080460 0.807737
O O9 0.805767 0.101620 0.795444
O O10 0.193315 0.500000 0.500000
O O11 0.000000 0.000000 0.868148
O O12 0.086538 0.000000 0.000000
O O13 0.233996 0.500000 0.127669
O O14 0.266338 0.615579 0.000000
#
# Coordination Sequence:
#
# PCOD9483229 Si02
#       6
#    16   8  16   8   8  16
#     4  10  19  27  42  67  98 127 170 202 238 288
#     4  11  17  27  47  65  92 130 163 194 232 280
#     4  11  20  32  48  68  94 127 166 208 250 290
#     4  11  18  28  44  69 105 138 169 191 232 288
#     4  11  24  41  57  71  91 128 177 219 256 299
#     4  10  18  28  42  63  95 131 165 198 242 301
#
# _framework density 15.19608
#
# number of rings (size 3 to 8) (size 9 to 14) (size 15 to 20)
#    0.000    1.444    6.667    2.333    0.000    4.889 
#    0.000    1.111    0.000    0.000    0.000    0.000 
#    0.000    4.444    0.000   12.222    0.000    0.000 
#
# Total GULP energy -200407.046911 kJ/mol
# GULP energy per Si atom -5566.862414 kJ/mol
# Density = 1.516149 g / cm^3
# Si number density = 15.196080 Si / 1000 Ang^3
#
#
#
# Elastic Constant Matrix: (Units=GPa)
#
#
# Indices 1 2 3 4 5 6 
#
# 1 34.4724 24.4670 21.2165 0.0000 0.0000 0.0000
# 2 24.4670 89.4787 44.9313 0.0000 0.0000 0.0000
# 3 21.2165 44.9313 117.8318 0.0000 0.0000 0.0000
# 4 0.0000 0.0000 0.0000 38.9711 0.0000 0.0000
# 5 0.0000 0.0000 0.0000 0.0000 18.9031 0.0000
# 6 0.0000 0.0000 0.0000 0.0000 0.0000 16.4344
#
#
#
# Elastic Compliance Matrix: (Units=1/GPa)
#
#
# Indices 1 2 3 4 5 6 
#
# 1 0.037113 -0.008401 -0.003479 0.000000 0.000000 0.000000
# 2 -0.008401 0.015724 -0.004483 0.000000 0.000000 0.000000
# 3 -0.003479 -0.004483 0.010823 0.000000 0.000000 0.000000
# 4 0.000000 0.000000 0.000000 0.025660 0.000000 0.000000
# 5 0.000000 0.000000 0.000000 0.000000 0.052901 0.000000
# 6 0.000000 0.000000 0.000000 0.000000 0.000000 0.060848
#
#
# Mechanical properties :
#
#
# Convention : Reuss Voigt Hill
#
# Bulk Modulus (GPa) = 32.32801 47.00139 39.66470
# Shear Modulus (GPa) = 20.31640 24.93959 22.62800
#
# Velocity S-wave (km/s) = 3.66040 4.05555 3.86303
# Velocity P-wave (km/s) = 6.25978 7.27510 6.78645
#
# Compressibility (1/GPa) = 0.03093293
#
# Stress axis : x y z
#
# Youngs Moduli (GPa) = 26.94503 63.59587 92.39904
#
# Poissons Ratio (x) = 0.53428 0.32145
# Poissons Ratio (y) = 0.22637 0.41425
# Poissons Ratio (z) = 0.09374 0.28512
#
# Static dielectric constant tensor:
#      x y z
#    x 1.472860 0.000000 0.000000 
#    y 0.000000 1.553980 0.000000 
#    z 0.000000 0.000000 1.492630 
# 
# From -- ./inp_files/26975.got.cif
#   From: 2010.05.17/outbox.cif.g08.bks.cpg/sg65_14_cif.got.tgz:26975.got - 2010.06.03 17:01:31.
