data_PCOD9483178
_publ_section_title
;
Structure prediction by ZEFSAII (Michael W. Deem and Ramdas Pophale) SiO2 
 PCOD9483178
Probable space group: C M M M
;
_chemical_formula_sum "Si O2"
_cell_formula_units_Z 120
_cell_length_a 14.360159
_cell_length_b 20.043426
_cell_length_c 24.792519
_cell_angle_alpha 90.000000
_cell_angle_beta 90.000000
_cell_angle_gamma 90.000000
_cell_volume 7135.951018
_symmetry_space_group_name_H-M "C M M M"
_symmetry_group_IT_number 65
_symmetry_cell_setting 'orthorhombic'
loop_
_space_group_symop_operation_xyz
x,y,z
-x,-y,z
x,-y,-z
-x,y,-z
-x,-y,-z
x,y,-z
-x,y,z
x,-y,z
1/2+x,1/2+y,z
1/2-x,1/2-y,z
1/2+x,1/2-y,-z
1/2-x,1/2+y,-z
1/2-x,1/2-y,-z
1/2+x,1/2+y,-z
1/2-x,1/2+y,z
1/2+x,1/2-y,z
loop_
_atom_site_type_symbol
_atom_site_label
_atom_site_fract_x
_atom_site_fract_y
_atom_site_fract_z
Si Si1 0.887332 0.418543 0.000000
Si Si2 0.107021 0.080167 0.437742
Si Si3 0.889192 0.714859 0.687122
Si Si4 0.722515 0.172987 0.084662
Si Si5 0.104192 0.076701 0.749077
Si Si6 0.105977 0.282564 0.184844
Si Si7 0.788570 0.851491 0.657875
Si Si8 0.604357 0.367877 0.138229
O O1 0.844613 0.373887 0.049192
O O2 0.864947 0.500000 0.000000
O O3 0.000000 0.414520 0.000000
O O4 0.123965 0.099538 0.500000
O O5 0.176877 0.111834 0.395427
O O6 0.000000 0.098750 0.423833
O O7 0.112189 0.000000 0.434853
O O8 0.871093 0.714268 0.751915
O O9 0.846943 0.782900 0.663208
O O10 0.821709 0.660029 0.660915
O O11 0.000000 0.708925 0.678786
O O12 0.750000 0.250000 0.066756
O O13 0.675727 0.181637 0.143810
O O14 0.819328 0.134429 0.092268
O O15 0.178795 0.109883 0.711100
O O16 0.125726 0.083699 0.812125
O O17 0.000000 0.107320 0.741268
O O18 0.098439 0.000000 0.733954
O O19 0.106255 0.205564 0.165861
O O20 0.000000 0.307613 0.177797
O O21 0.500000 0.380663 0.118631
#
# Coordination Sequence:
#
# PCOD9483178 Si02
#       8
#     8  16  16  16  16  16  16  16
#     4  11  25  44  61  79 105 137 182 237 284 320
#     4   9  18  33  53  76 100 129 171 222 269 310
#     4  10  20  31  47  74 108 140 168 206 252 309
#     4  10  20  35  59  82 104 136 182 226 265 314
#     4  10  18  27  44  73 106 135 165 204 254 314
#     4   9  16  29  50  75 106 137 170 212 258 306
#     4  11  19  29  50  72 101 136 173 211 256 308
#     4   9  17  29  47  76 109 135 161 204 259 314
#
# _framework density 16.816258999999999
#
# number of rings (size 3 to 8) (size 9 to 14) (size 15 to 20)
#    0.000    2.200    1.333    3.400    3.733    2.133 
#    0.000    1.667    0.000    3.200    0.000    2.800 
#    0.000    0.000    0.000    0.000    0.000    0.000 
#
# Total GULP energy -334185.025207 kJ/mol
# GULP energy per Si atom -5569.750420 kJ/mol
# Density = 1.677798 g / cm^3
# Si number density = 16.816259 Si / 1000 Ang^3
#
#
#
# Elastic Constant Matrix: (Units=GPa)
#
#
# Indices 1 2 3 4 5 6 
#
# 1 113.5655 36.2903 47.9854 0.0000 0.0000 0.0000
# 2 36.2903 46.0904 13.4632 0.0000 0.0000 0.0000
# 3 47.9854 13.4632 49.7535 0.0000 0.0000 0.0000
# 4 0.0000 0.0000 0.0000 18.1877 0.0000 0.0000
# 5 0.0000 0.0000 0.0000 0.0000 5.1070 0.0000
# 6 0.0000 0.0000 0.0000 0.0000 0.0000 23.2633
#
#
#
# Elastic Compliance Matrix: (Units=1/GPa)
#
#
# Indices 1 2 3 4 5 6 
#
# 1 0.018352 -0.010076 -0.014973 0.000000 0.000000 0.000000
# 2 -0.010076 0.029091 0.001846 0.000000 0.000000 0.000000
# 3 -0.014973 0.001846 0.034041 0.000000 0.000000 0.000000
# 4 0.000000 0.000000 0.000000 0.054982 0.000000 0.000000
# 5 0.000000 0.000000 0.000000 0.000000 0.195809 0.000000
# 6 0.000000 0.000000 0.000000 0.000000 0.000000 0.042986
#
#
# Mechanical properties :
#
#
# Convention : Reuss Voigt Hill
#
# Bulk Modulus (GPa) = 28.50866 44.98746 36.74806
# Shear Modulus (GPa) = 11.53774 16.75631 14.14702
#
# Velocity S-wave (km/s) = 2.62220 3.16006 2.90361
# Velocity P-wave (km/s) = 5.11447 6.33444 5.75686
#
# Compressibility (1/GPa) = 0.03507707
#
# Stress axis : x y z
#
# Youngs Moduli (GPa) = 54.48950 34.37501 29.37653
#
# Poissons Ratio (x) = 0.34637 0.43987
# Poissons Ratio (y) = 0.54905 -0.05423
# Poissons Ratio (z) = 0.81589 -0.06346
#
# Static dielectric constant tensor:
#      x y z
#    x 1.595800 0.000000 0.000000 
#    y 0.000000 1.590200 0.000000 
#    z 0.000000 0.000000 1.568780 
# 
# From -- ./inp_files/63057.got.cif
#   From: 2010.05.17/outbox.cif.g08.bks.cpg/sg65_32_cif.got.tgz:63057.got - 2010.06.03 17:01:31.
