data_PCOD9483212
_publ_section_title
;
Structure prediction by ZEFSAII (Michael W. Deem and Ramdas Pophale) SiO2 
 PCOD9483212
Probable space group: C M M M
;
_chemical_formula_sum "Si O2"
_cell_formula_units_Z 112
_cell_length_a 33.088084
_cell_length_b 14.267133
_cell_length_c 15.019118
_cell_angle_alpha 90.000000
_cell_angle_beta 90.000000
_cell_angle_gamma 90.000000
_cell_volume 7090.106501
_symmetry_space_group_name_H-M "C M M M"
_symmetry_group_IT_number 65
_symmetry_cell_setting 'orthorhombic'
loop_
_space_group_symop_operation_xyz
x,y,z
-x,-y,z
x,-y,-z
-x,y,-z
-x,-y,-z
x,y,-z
-x,y,z
x,-y,z
1/2+x,1/2+y,z
1/2-x,1/2-y,z
1/2+x,1/2-y,-z
1/2-x,1/2+y,-z
1/2-x,1/2-y,-z
1/2+x,1/2+y,-z
1/2-x,1/2+y,z
1/2+x,1/2-y,z
loop_
_atom_site_type_symbol
_atom_site_label
_atom_site_fract_x
_atom_site_fract_y
_atom_site_fract_z
Si Si1 0.262324 0.890134 0.351426
Si Si2 0.828237 0.397665 0.102201
Si Si3 0.953955 0.886431 0.601166
Si Si4 0.347931 0.697934 0.105158
Si Si5 0.315422 0.281693 0.400474
Si Si6 0.879128 0.888249 0.722498
Si Si7 0.763223 0.107459 0.854210
O O1 0.299598 0.820677 0.370068
O O2 0.224344 0.847543 0.403524
O O3 0.247921 0.879827 0.249183
O O4 0.269685 0.000000 0.369402
O O5 0.834056 0.500000 0.145848
O O6 0.849814 0.305796 0.138280
O O7 0.780050 0.379654 0.100271
O O8 0.841467 0.404018 0.000000
O O9 0.942441 0.857140 0.500000
O O10 0.921579 0.861488 0.676474
O O11 0.000000 0.854879 0.618401
O O12 0.954707 0.000000 0.599783
O O13 0.373788 0.636287 0.173559
O O14 0.300795 0.668837 0.115856
O O15 0.358109 0.690342 0.000000
O O16 0.332761 0.276512 0.500000
O O17 0.345324 0.330189 0.331083
O O18 0.872558 0.000000 0.710221
O O19 0.775901 0.000000 0.868708
#
# Coordination Sequence:
#
# PCOD9483212 Si02
#       7
#    16  16  16  16  16  16  16
#     4  10  20  33  45  59  88 127 164 201 237 276
#     4   9  18  30  43  59  80 114 161 208 248 277
#     4   8  15  30  53  78  99 120 148 182 225 279
#     4  11  21  31  45  65  91 121 156 197 236 279
#     4  11  22  32  46  67  90 120 160 201 241 285
#     4  11  21  33  49  70  98 126 153 191 235 279
#     4  10  18  28  42  59  82 117 159 200 238 276
#
# _framework density 15.796659
#
# number of rings (size 3 to 8) (size 9 to 14) (size 15 to 20)
#    0.000    2.000    1.429    4.286    2.000    5.429 
#    0.000    0.000    0.000    0.429    0.000    2.000 
#    0.000    2.286    0.000   11.429    0.000    0.571 
#
# Total GULP energy -312052.462212 kJ/mol
# GULP energy per Si atom -5572.365397 kJ/mol
# Density = 1.576071 g / cm^3
# Si number density = 15.796659 Si / 1000 Ang^3
#
#
#
# Elastic Constant Matrix: (Units=GPa)
#
#
# Indices 1 2 3 4 5 6 
#
# 1 51.3249 30.0287 32.2516 0.0000 0.0000 0.0000
# 2 30.0287 92.8101 34.4690 0.0000 0.0000 0.0000
# 3 32.2516 34.4690 84.4014 0.0000 0.0000 0.0000
# 4 0.0000 0.0000 0.0000 13.8489 0.0000 0.0000
# 5 0.0000 0.0000 0.0000 0.0000 16.1081 0.0000
# 6 0.0000 0.0000 0.0000 0.0000 0.0000 10.0984
#
#
#
# Elastic Compliance Matrix: (Units=1/GPa)
#
#
# Indices 1 2 3 4 5 6 
#
# 1 0.028255 -0.006050 -0.008326 0.000000 0.000000 0.000000
# 2 -0.006050 0.013996 -0.003404 0.000000 0.000000 0.000000
# 3 -0.008326 -0.003404 0.016420 0.000000 0.000000 0.000000
# 4 0.000000 0.000000 0.000000 0.072208 0.000000 0.000000
# 5 0.000000 0.000000 0.000000 0.000000 0.062081 0.000000
# 6 0.000000 0.000000 0.000000 0.000000 0.000000 0.099025
#
#
# Mechanical properties :
#
#
# Convention : Reuss Voigt Hill
#
# Bulk Modulus (GPa) = 43.26905 46.89275 45.08090
# Shear Modulus (GPa) = 14.91425 16.79690 15.85558
#
# Velocity S-wave (km/s) = 3.07602 3.26440 3.17161
# Velocity P-wave (km/s) = 6.32982 6.63009 6.48169
#
# Compressibility (1/GPa) = 0.02311121
#
# Stress axis : x y z
#
# Youngs Moduli (GPa) = 35.39157 71.44696 60.90092
#
# Poissons Ratio (x) = 0.43223 0.50708
# Poissons Ratio (y) = 0.21411 0.20733
# Poissons Ratio (z) = 0.29468 0.24323
#
# Static dielectric constant tensor:
#      x y z
#    x 1.500560 0.000000 0.000000 
#    y 0.000000 1.576260 0.000000 
#    z 0.000000 0.000000 1.611610 
# 
# From -- ./inp_files/47997.got.cif
#   From: 2010.05.17/outbox.cif.g08.bks.cpg/sg65_24_cif.got.tgz:47997.got - 2010.06.03 17:01:31.
