data_PCOD9483771
_publ_section_title
;
Structure prediction by ZEFSAII (Michael W. Deem and Ramdas Pophale) SiO2 
 PCOD9483771
Probable space group: C M M M
;
_chemical_formula_sum "Si O2"
_cell_formula_units_Z 72
_cell_length_a 14.361865
_cell_length_b 15.273436
_cell_length_c 15.096206
_cell_angle_alpha 90.000000
_cell_angle_beta 90.000000
_cell_angle_gamma 90.000000
_cell_volume 3311.428658
_symmetry_space_group_name_H-M "C M M M"
_symmetry_group_IT_number 65
_symmetry_cell_setting 'orthorhombic'
loop_
_space_group_symop_operation_xyz
x,y,z
-x,-y,z
x,-y,-z
-x,y,-z
-x,-y,-z
x,y,-z
-x,y,z
x,-y,z
1/2+x,1/2+y,z
1/2-x,1/2-y,z
1/2+x,1/2-y,-z
1/2-x,1/2+y,-z
1/2-x,1/2-y,-z
1/2+x,1/2+y,-z
1/2-x,1/2+y,z
1/2+x,1/2-y,z
loop_
_atom_site_type_symbol
_atom_site_label
_atom_site_fract_x
_atom_site_fract_y
_atom_site_fract_z
Si Si1 0.610336 0.908282 0.606091
Si Si2 0.139669 0.100043 0.000000
Si Si3 0.891011 0.775223 0.343466
Si Si4 0.865739 0.603966 0.000000
Si Si5 0.361702 0.744338 0.137586
Si Si6 0.613530 0.598620 0.500000
O O1 0.613298 0.907767 0.500000
O O2 0.500000 0.908839 0.630709
O O3 0.654337 0.818823 0.637492
O O4 0.650793 0.000000 0.639744
O O5 0.253047 0.099565 0.000000
O O6 0.109631 0.159544 0.081945
O O7 0.108755 0.000000 0.000000
O O8 0.888185 0.777864 0.237867
O O9 0.857266 0.849771 0.410969
O O10 0.000000 0.768560 0.369187
O O11 0.892240 0.665728 0.085699
O O12 0.895558 0.500000 0.000000
O O13 0.250000 0.750000 0.135384
O O14 0.650372 0.500000 0.500000
O O15 0.500000 0.593075 0.500000
#
# Coordination Sequence:
#
# PCOD9483771 Si02
#       6
#    16   8  16   8  16   8
#     4   8  13  23  41  63  86 115 151 184 213 257
#     4   8  15  31  52  68  88 122 160 192 228 280
#     4  10  18  30  48  70  95 124 158 195 234 273
#     4   8  15  31  52  70  94 126 156 184 222 288
#     4   9  18  31  49  74  94 118 156 194 234 279
#     4   9  18  32  48  65  89 127 170 201 229 273
#
# _framework density 21.742882000000002
#
# number of rings (size 3 to 8) (size 9 to 14) (size 15 to 20)
#    0.000    3.222    1.111    2.000    0.000    1.778 
#    0.000    2.778    0.000    1.333    0.000    0.000 
#    0.000    0.000    0.000    0.000    0.000    0.000 
#
# Total GULP energy -200427.091683 kJ/mol
# GULP energy per Si atom -5567.419213 kJ/mol
# Density = 2.169339 g / cm^3
# Si number density = 21.742882 Si / 1000 Ang^3
#
#
#
# Elastic Constant Matrix: (Units=GPa)
#
#
# Indices 1 2 3 4 5 6 
#
# 1 76.7984 6.0122 -1.2698 0.0000 0.0000 0.0000
# 2 6.0122 260.5513 117.3759 0.0000 0.0000 0.0000
# 3 -1.2698 117.3759 131.6486 0.0000 0.0000 0.0000
# 4 0.0000 0.0000 0.0000 0.3909 0.0000 0.0000
# 5 0.0000 0.0000 0.0000 0.0000 16.0736 0.0000
# 6 0.0000 0.0000 0.0000 0.0000 0.0000 -8.4822
#
#
#
# Elastic Compliance Matrix: (Units=1/GPa)
#
#
# Indices 1 2 3 4 5 6 
#
# 1 0.013079 -0.000599 0.000661 0.000000 0.000000 0.000000
# 2 -0.000599 0.006442 -0.005749 0.000000 0.000000 0.000000
# 3 0.000661 -0.005749 0.012728 0.000000 0.000000 0.000000
# 4 0.000000 0.000000 0.000000 2.558269 0.000000 0.000000
# 5 0.000000 0.000000 0.000000 0.000000 0.062214 0.000000
# 6 0.000000 0.000000 0.000000 0.000000 0.000000 -0.117894
#
#
# Mechanical properties :
#
#
# Convention : Reuss Voigt Hill
#
# Bulk Modulus (GPa) = 47.90889 79.24834 63.57861
# Shear Modulus (GPa) = 1.95835 24.72178 13.34007
#
# Velocity S-wave (km/s) = 0.95007 3.37561 2.47966
# Velocity P-wave (km/s) = 4.82552 7.19167 6.12396
#
# Compressibility (1/GPa) = 0.02087295
#
# Stress axis : x y z
#
# Youngs Moduli (GPa) = 76.45873 155.23589 78.56535
#
# Poissons Ratio (x) = 0.09304 -0.05189
# Poissons Ratio (y) = 0.04583 0.45169
# Poissons Ratio (z) = -0.05050 0.89248
#
# Static dielectric constant tensor:
#      x y z
#    x 1.850740 0.000000 0.000000 
#    y 0.000000 1.827040 0.000000 
#    z 0.000000 0.000000 1.946640 
# 
# From -- ./inp_files/42221.got.cif
#   From: 2010.05.17/outbox.cif.g08.bks.cpg/sg65_22_cif.got.tgz:42221.got - 2010.06.03 17:01:31.
