data_PCOD9483844
_publ_section_title
;
Structure prediction by ZEFSAII (Michael W. Deem and Ramdas Pophale) SiO2 
 PCOD9483844
Probable space group: C M M M
;
_chemical_formula_sum "Si O2"
_cell_formula_units_Z 88
_cell_length_a 28.242815
_cell_length_b 19.484836
_cell_length_c 8.087903
_cell_angle_alpha 90.000000
_cell_angle_beta 90.000000
_cell_angle_gamma 90.000000
_cell_volume 4450.826550
_symmetry_space_group_name_H-M "C M M M"
_symmetry_group_IT_number 65
_symmetry_cell_setting 'orthorhombic'
loop_
_space_group_symop_operation_xyz
x,y,z
-x,-y,z
x,-y,-z
-x,y,-z
-x,-y,-z
x,y,-z
-x,y,z
x,-y,z
1/2+x,1/2+y,z
1/2-x,1/2-y,z
1/2+x,1/2-y,-z
1/2-x,1/2+y,-z
1/2-x,1/2-y,-z
1/2+x,1/2+y,-z
1/2-x,1/2+y,z
1/2+x,1/2-y,z
loop_
_atom_site_type_symbol
_atom_site_label
_atom_site_fract_x
_atom_site_fract_y
_atom_site_fract_z
Si Si1 0.500000 0.576506 0.701644
Si Si2 0.184486 0.801570 0.191658
Si Si3 0.552144 0.169273 0.800789
Si Si4 0.342387 0.150617 0.199208
Si Si5 0.752284 0.575658 0.303485
Si Si6 0.919322 0.820989 0.699226
O O1 0.500000 0.500000 0.764607
O O2 0.500000 0.575206 0.500000
O O3 0.546118 0.618444 0.750108
O O4 0.179640 0.723683 0.262574
O O5 0.219764 0.859208 0.257988
O O6 0.131370 0.828318 0.217239
O O7 0.196713 0.793619 0.000000
O O8 0.500000 0.144960 0.740581
O O9 0.603241 0.139793 0.742378
O O10 0.557595 0.249240 0.754185
O O11 0.551556 0.162526 0.000000
O O12 0.305342 0.092426 0.244636
O O13 0.344753 0.156677 0.000000
O O14 0.752214 0.572498 0.500000
O O15 0.736968 0.500000 0.239808
O O16 0.913864 0.820359 0.500000
#
# Coordination Sequence:
#
# PCOD9483844 Si02
#       6
#     8  16  16  16  16  16
#     4   9  18  30  43  63  97 139 176 213 256 301
#     4  10  21  37  57  81 107 138 178 225 272 320
#     4   9  17  31  53  79 109 138 168 215 268 314
#     4   9  19  35  56  83 110 140 178 221 268 319
#     4  11  24  39  55  78 108 142 180 223 272 327
#     4  10  18  30  49  74 102 135 177 220 262 311
#
# _framework density 19.771609999999999
#
# number of rings (size 3 to 8) (size 9 to 14) (size 15 to 20)
#    0.000    2.273    0.909    3.273    0.000    8.000 
#    0.000    1.818    0.000    4.364    0.000    3.818 
#    0.000    0.000    0.000    0.000    0.000    0.000 
#
# Total GULP energy -245223.889305 kJ/mol
# GULP energy per Si atom -5573.270211 kJ/mol
# Density = 1.972661 g / cm^3
# Si number density = 19.771610 Si / 1000 Ang^3
#
#
#
# Elastic Constant Matrix: (Units=GPa)
#
#
# Indices 1 2 3 4 5 6 
#
# 1 114.3147 30.1615 12.3299 0.0000 0.0000 0.0000
# 2 30.1615 28.5196 5.6267 0.0000 0.0000 0.0000
# 3 12.3299 5.6267 7.7955 0.0000 0.0000 0.0000
# 4 0.0000 0.0000 0.0000 20.1526 0.0000 0.0000
# 5 0.0000 0.0000 0.0000 0.0000 51.9903 0.0000
# 6 0.0000 0.0000 0.0000 0.0000 0.0000 19.6165
#
#
#
# Elastic Compliance Matrix: (Units=1/GPa)
#
#
# Indices 1 2 3 4 5 6 
#
# 1 0.013101 -0.011389 -0.012501 0.000000 0.000000 0.000000
# 2 -0.011389 0.050787 -0.018644 0.000000 0.000000 0.000000
# 3 -0.012501 -0.018644 0.161510 0.000000 0.000000 0.000000
# 4 0.000000 0.000000 0.000000 0.049621 0.000000 0.000000
# 5 0.000000 0.000000 0.000000 0.000000 0.019234 0.000000
# 6 0.000000 0.000000 0.000000 0.000000 0.000000 0.050977
#
#
# Mechanical properties :
#
#
# Convention : Reuss Voigt Hill
#
# Bulk Modulus (GPa) = 7.12609 27.42955 17.27782
# Shear Modulus (GPa) = 10.48052 25.18598 17.83325
#
# Velocity S-wave (km/s) = 2.30484 3.57297 3.00653
# Velocity P-wave (km/s) = 3.27034 5.56101 4.56179
#
# Compressibility (1/GPa) = 0.14032950
#
# Stress axis : x y z
#
# Youngs Moduli (GPa) = 76.32956 19.69026 6.19156
#
# Poissons Ratio (x) = 0.22425 0.07740
# Poissons Ratio (y) = 0.86931 0.11543
# Poissons Ratio (z) = 0.95422 0.36710
#
# Static dielectric constant tensor:
#      x y z
#    x 1.719820 0.000000 0.000000 
#    y 0.000000 1.698760 0.000000 
#    z 0.000000 0.000000 1.696690 
# 
# From -- ./inp_files/16343.got.cif
#   From: 2010.05.17/outbox.cif.g08.bks.cpg/sg65_9_cif.got.tgz:16343.got - 2010.06.03 17:01:31.
