data_PCOD9483396
_publ_section_title
;
Structure prediction by ZEFSAII (Michael W. Deem and Ramdas Pophale) SiO2 
 PCOD9483396
Probable space group: C M M M
;
_chemical_formula_sum "Si O2"
_cell_formula_units_Z 104
_cell_length_a 23.148132
_cell_length_b 22.690360
_cell_length_c 12.557791
_cell_angle_alpha 90.000000
_cell_angle_beta 90.000000
_cell_angle_gamma 90.000000
_cell_volume 6595.847218
_symmetry_space_group_name_H-M "C M M M"
_symmetry_group_IT_number 65
_symmetry_cell_setting 'orthorhombic'
loop_
_space_group_symop_operation_xyz
x,y,z
-x,-y,z
x,-y,-z
-x,y,-z
-x,-y,-z
x,y,-z
-x,y,z
x,-y,z
1/2+x,1/2+y,z
1/2-x,1/2-y,z
1/2+x,1/2-y,-z
1/2-x,1/2+y,-z
1/2-x,1/2-y,-z
1/2+x,1/2+y,-z
1/2-x,1/2+y,z
1/2+x,1/2-y,z
loop_
_atom_site_type_symbol
_atom_site_label
_atom_site_fract_x
_atom_site_fract_y
_atom_site_fract_z
Si Si1 0.434115 0.169283 0.266070
Si Si2 0.764546 0.431608 0.745185
Si Si3 0.566493 0.286786 0.874919
Si Si4 0.617401 0.931985 0.125541
Si Si5 0.821208 0.856911 0.876390
Si Si6 0.250000 0.250000 0.787430
Si Si7 0.182471 0.671022 0.379329
O O1 0.500000 0.168156 0.304075
O O2 0.425506 0.229066 0.197531
O O3 0.421572 0.114341 0.188143
O O4 0.385648 0.165447 0.356727
O O5 0.758651 0.500000 0.717490
O O6 0.817238 0.425662 0.830259
O O7 0.707418 0.405267 0.800000
O O8 0.785201 0.390193 0.648519
O O9 0.500000 0.306432 0.862581
O O10 0.613745 0.336535 0.849617
O O11 0.575090 0.271010 0.000000
O O12 0.599976 0.000000 0.144303
O O13 0.616094 0.920565 0.000000
O O14 0.782819 0.798180 0.857541
O O15 0.818436 0.874824 0.000000
O O16 0.206425 0.283795 0.708705
O O17 0.193804 0.689229 0.500000
#
# Coordination Sequence:
#
# PCOD9483396 Si02
#       7
#    16  16  16  16  16   8  16
#     4  10  19  31  45  64  93 126 160 197 233 275
#     4   9  19  33  48  69  95 122 157 198 241 285
#     4   9  17  29  45  67  96 129 160 189 228 282
#     4   9  17  29  44  64  92 124 156 191 233 280
#     4  10  18  28  48  73  98 127 155 187 230 286
#     4  10  18  32  46  72  98 122 150 192 238 284
#     4  10  20  33  50  68  90 122 158 201 243 280
#
# _framework density 15.767496
#
# number of rings (size 3 to 8) (size 9 to 14) (size 15 to 20)
#    0.000    2.462    1.538    1.385    0.000    2.769 
#    0.000    0.769    0.000    0.462    0.000    6.462 
#    0.000    0.000    0.000    4.000    0.000    0.000 
#
# Total GULP energy -289830.246726 kJ/mol
# GULP energy per Si atom -5573.658591 kJ/mol
# Density = 1.573161 g / cm^3
# Si number density = 15.767496 Si / 1000 Ang^3
#
#
#
# Elastic Constant Matrix: (Units=GPa)
#
#
# Indices 1 2 3 4 5 6 
#
# 1 82.6997 17.1711 14.8896 0.0000 0.0000 0.0000
# 2 17.1711 36.7760 -4.1542 0.0000 0.0000 0.0000
# 3 14.8896 -4.1542 31.2620 0.0000 0.0000 0.0000
# 4 0.0000 0.0000 0.0000 6.9173 0.0000 0.0000
# 5 0.0000 0.0000 0.0000 0.0000 8.9716 0.0000
# 6 0.0000 0.0000 0.0000 0.0000 0.0000 22.4216
#
#
#
# Elastic Compliance Matrix: (Units=1/GPa)
#
#
# Indices 1 2 3 4 5 6 
#
# 1 0.015271 -0.008073 -0.008346 0.000000 0.000000 0.000000
# 2 -0.008073 0.031874 0.008080 0.000000 0.000000 0.000000
# 3 -0.008346 0.008080 0.037037 0.000000 0.000000 0.000000
# 4 0.000000 0.000000 0.000000 0.144564 0.000000 0.000000
# 5 0.000000 0.000000 0.000000 0.000000 0.111463 0.000000
# 6 0.000000 0.000000 0.000000 0.000000 0.000000 0.044600
#
#
# Mechanical properties :
#
#
# Convention : Reuss Voigt Hill
#
# Bulk Modulus (GPa) = 14.81389 22.95008 18.88198
# Shear Modulus (GPa) = 11.79284 15.85085 13.82184
#
# Velocity S-wave (km/s) = 2.73778 3.17406 2.96396
# Velocity P-wave (km/s) = 4.40562 5.29338 4.86977
#
# Compressibility (1/GPa) = 0.06750422
#
# Stress axis : x y z
#
# Youngs Moduli (GPa) = 65.48460 31.37385 27.00038
#
# Poissons Ratio (x) = 0.25328 0.22534
# Poissons Ratio (y) = 0.52865 -0.21817
# Poissons Ratio (z) = 0.54653 -0.25351
#
# Static dielectric constant tensor:
#      x y z
#    x 1.541810 0.000000 0.000000 
#    y 0.000000 1.521120 0.000000 
#    z 0.000000 0.000000 1.493130 
# 
# From -- ./inp_files/29326.got.cif
#   From: 2010.05.17/outbox.cif.g08.bks.cpg/sg65_15_cif.got.tgz:29326.got - 2010.06.03 17:01:31.
