data_PCOD9483136
_publ_section_title
;
Structure prediction by ZEFSAII (Michael W. Deem and Ramdas Pophale) SiO2 
 PCOD9483136
Probable space group: C M M M
;
_chemical_formula_sum "Si O2"
_cell_formula_units_Z 96
_cell_length_a 28.136258
_cell_length_b 8.637328
_cell_length_c 24.987520
_cell_angle_alpha 90.000000
_cell_angle_beta 90.000000
_cell_angle_gamma 90.000000
_cell_volume 6072.519310
_symmetry_space_group_name_H-M "C M M M"
_symmetry_group_IT_number 65
_symmetry_cell_setting 'orthorhombic'
loop_
_space_group_symop_operation_xyz
x,y,z
-x,-y,z
x,-y,-z
-x,y,-z
-x,-y,-z
x,y,-z
-x,y,z
x,-y,z
1/2+x,1/2+y,z
1/2-x,1/2-y,z
1/2+x,1/2-y,-z
1/2-x,1/2+y,-z
1/2-x,1/2-y,-z
1/2+x,1/2+y,-z
1/2-x,1/2+y,z
1/2+x,1/2-y,z
loop_
_atom_site_type_symbol
_atom_site_label
_atom_site_fract_x
_atom_site_fract_y
_atom_site_fract_z
Si Si1 0.605764 0.813070 0.940439
Si Si2 0.697798 0.314589 0.886138
Si Si3 0.696091 0.814412 0.558393
Si Si4 0.696306 0.685870 0.330678
Si Si5 0.144861 0.813541 0.777577
Si Si6 0.446270 0.187024 0.832740
O O1 0.657920 0.750098 0.926095
O O2 0.571174 0.763880 0.892161
O O3 0.607374 0.000000 0.939555
O O4 0.591174 0.763967 0.000000
O O5 0.698449 0.500000 0.888863
O O6 0.750000 0.250000 0.896477
O O7 0.679723 0.267744 0.826559
O O8 0.674771 0.774020 0.500000
O O9 0.750000 0.750000 0.557342
O O10 0.675322 0.745138 0.612886
O O11 0.697665 0.000000 0.562582
O O12 0.698686 0.500000 0.331800
O O13 0.750000 0.750000 0.325470
O O14 0.666082 0.736393 0.279207
O O15 0.093203 0.748268 0.791885
O O16 0.142452 0.000000 0.777647
O O17 0.500000 0.239211 0.822324
O O18 0.445602 0.000000 0.831508
#
# Coordination Sequence:
#
# PCOD9483136 Si02
#       6
#    16  16  16  16  16  16
#     4   9  18  32  48  66  88 112 139 172 210 254
#     4  10  19  31  46  63  86 115 146 178 212 251
#     4   9  16  25  37  55  82 117 154 186 215 247
#     4  10  18  27  41  62  88 118 152 184 215 251
#     4   9  19  32  45  64  88 114 144 178 215 257
#     4   9  18  32  50  70  88 108 136 172 216 262
#
# _framework density 15.808926
#
# number of rings (size 3 to 8) (size 9 to 14) (size 15 to 20)
#    0.000    2.667    0.000    3.000    0.000    4.333 
#    0.000    1.667    0.000    0.000    0.000    4.667 
#    0.000    0.667    0.000    7.333    0.000    5.333 
#
# Total GULP energy -267466.342240 kJ/mol
# GULP energy per Si atom -5572.215463 kJ/mol
# Density = 1.577294 g / cm^3
# Si number density = 15.808926 Si / 1000 Ang^3
#
#
#
# Elastic Constant Matrix: (Units=GPa)
#
#
# Indices 1 2 3 4 5 6 
#
# 1 73.4143 10.6913 31.7172 0.0000 0.0000 0.0000
# 2 10.6913 20.8187 23.2590 0.0000 0.0000 0.0000
# 3 31.7172 23.2590 124.9718 0.0000 0.0000 0.0000
# 4 0.0000 0.0000 0.0000 22.6196 0.0000 0.0000
# 5 0.0000 0.0000 0.0000 0.0000 12.2646 0.0000
# 6 0.0000 0.0000 0.0000 0.0000 0.0000 19.7322
#
#
#
# Elastic Compliance Matrix: (Units=1/GPa)
#
#
# Indices 1 2 3 4 5 6 
#
# 1 0.015631 -0.004539 -0.003122 0.000000 0.000000 0.000000
# 2 -0.004539 0.061961 -0.010380 0.000000 0.000000 0.000000
# 3 -0.003122 -0.010380 0.010726 0.000000 0.000000 0.000000
# 4 0.000000 0.000000 0.000000 0.044209 0.000000 0.000000
# 5 0.000000 0.000000 0.000000 0.000000 0.081535 0.000000
# 6 0.000000 0.000000 0.000000 0.000000 0.000000 0.050679
#
#
# Mechanical properties :
#
#
# Convention : Reuss Voigt Hill
#
# Bulk Modulus (GPa) = 19.14379 38.94889 29.04634
# Shear Modulus (GPa) = 15.71156 21.15909 18.43532
#
# Velocity S-wave (km/s) = 3.15594 3.66242 3.41857
# Velocity P-wave (km/s) = 5.04140 6.52497 5.83056
#
# Compressibility (1/GPa) = 0.05223625
#
# Stress axis : x y z
#
# Youngs Moduli (GPa) = 63.97426 16.13906 93.23053
#
# Poissons Ratio (x) = 0.07325 0.29110
# Poissons Ratio (y) = 0.29038 0.96773
# Poissons Ratio (z) = 0.19975 0.16752
#
# Static dielectric constant tensor:
#      x y z
#    x 1.492480 0.000000 0.000000 
#    y 0.000000 1.535370 0.000000 
#    z 0.000000 0.000000 1.566750 
# 
# From -- ./inp_files/71415.got.cif
#   From: 2010.05.17/outbox.cif.g08.bks.cpg/sg65_36_cif.got.tgz:71415.got - 2010.06.03 17:01:31.
