data_PCOD9483741
_publ_section_title
;
Structure prediction by ZEFSAII (Michael W. Deem and Ramdas Pophale) SiO2 
 PCOD9483741
Probable space group: C M M M
;
_chemical_formula_sum "Si O2"
_cell_formula_units_Z 72
_cell_length_a 37.102168
_cell_length_b 14.705648
_cell_length_c 8.062212
_cell_angle_alpha 90.000000
_cell_angle_beta 90.000000
_cell_angle_gamma 90.000000
_cell_volume 4398.834959
_symmetry_space_group_name_H-M "C M M M"
_symmetry_group_IT_number 65
_symmetry_cell_setting 'orthorhombic'
loop_
_space_group_symop_operation_xyz
x,y,z
-x,-y,z
x,-y,-z
-x,y,-z
-x,-y,-z
x,y,-z
-x,y,z
x,-y,z
1/2+x,1/2+y,z
1/2-x,1/2-y,z
1/2+x,1/2-y,-z
1/2-x,1/2+y,-z
1/2-x,1/2-y,-z
1/2+x,1/2+y,-z
1/2-x,1/2+y,z
1/2+x,1/2-y,z
loop_
_atom_site_type_symbol
_atom_site_label
_atom_site_fract_x
_atom_site_fract_y
_atom_site_fract_z
Si Si1 0.590052 0.109062 0.312536
Si Si2 0.162337 0.703183 0.197921
Si Si3 0.041258 0.389547 0.000000
Si Si4 0.185189 0.097153 0.196008
Si Si5 0.261912 0.144550 0.311936
O O1 0.576938 0.127156 0.500000
O O2 0.628062 0.158235 0.283221
O O3 0.562792 0.137418 0.166173
O O4 0.595307 0.000000 0.297540
O O5 0.169478 0.806979 0.260205
O O6 0.198724 0.645723 0.231834
O O7 0.156543 0.705337 0.000000
O O8 0.040417 0.500000 0.000000
O O9 0.000000 0.357518 0.000000
O O10 0.228393 0.099862 0.219608
O O11 0.172141 0.000000 0.266221
O O12 0.177764 0.097476 0.000000
O O13 0.264060 0.110489 0.500000
O O14 0.250000 0.250000 0.316919
#
# Coordination Sequence:
#
# PCOD9483741 Si02
#       5
#    16  16   8  16  16
#     4  10  20  33  50  74 102 130 160 193 231 278
#     4  10  18  30  48  66  91 126 161 202 246 286
#     4   9  18  34  54  76 102 129 157 187 224 278
#     4   9  18  31  45  63  88 121 163 207 249 291
#     4   9  17  28  41  58  81 113 156 203 246 285
#
# _framework density 16.367971000000001
#
# number of rings (size 3 to 8) (size 9 to 14) (size 15 to 20)
#    0.000    2.556    1.111    1.333    0.000    5.333 
#    0.000    2.222    0.000    0.000    0.000    0.000 
#    0.000    1.778    0.000    2.000    0.000    0.222 
#
# Total GULP energy -200516.715312 kJ/mol
# GULP energy per Si atom -5569.908759 kJ/mol
# Density = 1.633072 g / cm^3
# Si number density = 16.367971 Si / 1000 Ang^3
#
#
#
# Elastic Constant Matrix: (Units=GPa)
#
#
# Indices 1 2 3 4 5 6 
#
# 1 98.3853 24.3955 44.5565 0.0000 0.0000 0.0000
# 2 24.3955 49.3290 19.5266 0.0000 0.0000 0.0000
# 3 44.5565 19.5266 81.7002 0.0000 0.0000 0.0000
# 4 0.0000 0.0000 0.0000 5.5294 0.0000 0.0000
# 5 0.0000 0.0000 0.0000 0.0000 5.2673 0.0000
# 6 0.0000 0.0000 0.0000 0.0000 0.0000 21.5641
#
#
#
# Elastic Compliance Matrix: (Units=1/GPa)
#
#
# Indices 1 2 3 4 5 6 
#
# 1 0.014315 -0.004406 -0.006754 0.000000 0.000000 0.000000
# 2 -0.004406 0.023746 -0.003273 0.000000 0.000000 0.000000
# 3 -0.006754 -0.003273 0.016705 0.000000 0.000000 0.000000
# 4 0.000000 0.000000 0.000000 0.180850 0.000000 0.000000
# 5 0.000000 0.000000 0.000000 0.000000 0.189851 0.000000
# 6 0.000000 0.000000 0.000000 0.000000 0.000000 0.046373
#
#
# Mechanical properties :
#
#
# Convention : Reuss Voigt Hill
#
# Bulk Modulus (GPa) = 38.60715 45.15243 41.87979
# Shear Modulus (GPa) = 9.81660 15.86789 12.84225
#
# Velocity S-wave (km/s) = 2.45162 3.11697 2.80410
# Velocity P-wave (km/s) = 5.62603 6.37179 6.01049
#
# Compressibility (1/GPa) = 0.02590194
#
# Stress axis : x y z
#
# Youngs Moduli (GPa) = 69.85478 42.11148 59.86066
#
# Poissons Ratio (x) = 0.18555 0.40430
# Poissons Ratio (y) = 0.30779 0.19590
# Poissons Ratio (z) = 0.47180 0.13781
#
# Static dielectric constant tensor:
#      x y z
#    x 1.515800 0.000000 0.000000 
#    y 0.000000 1.602630 0.000000 
#    z 0.000000 0.000000 1.583600 
# 
# From -- ./inp_files/18010.got.cif
#   From: 2010.05.17/outbox.cif.g08.bks.cpg/sg65_10_cif.got.tgz:18010.got - 2010.06.03 17:01:31.
