data_PCOD9483489
_publ_section_title
;
Structure prediction by ZEFSAII (Michael W. Deem and Ramdas Pophale) SiO2 
 PCOD9483489
Probable space group: C M M M
;
_chemical_formula_sum "Si O2"
_cell_formula_units_Z 112
_cell_length_a 31.699495
_cell_length_b 14.506278
_cell_length_c 14.346280
_cell_angle_alpha 90.000000
_cell_angle_beta 90.000000
_cell_angle_gamma 90.000000
_cell_volume 6597.017596
_symmetry_space_group_name_H-M "C M M M"
_symmetry_group_IT_number 65
_symmetry_cell_setting 'orthorhombic'
loop_
_space_group_symop_operation_xyz
x,y,z
-x,-y,z
x,-y,-z
-x,y,-z
-x,-y,-z
x,y,-z
-x,y,z
x,-y,z
1/2+x,1/2+y,z
1/2-x,1/2-y,z
1/2+x,1/2-y,-z
1/2-x,1/2+y,-z
1/2-x,1/2-y,-z
1/2+x,1/2+y,-z
1/2-x,1/2+y,z
1/2+x,1/2-y,z
loop_
_atom_site_type_symbol
_atom_site_label
_atom_site_fract_x
_atom_site_fract_y
_atom_site_fract_z
Si Si1 0.299571 0.764981 0.110728
Si Si2 0.679663 0.894207 0.272462
Si Si3 0.234007 0.895425 0.389813
Si Si4 0.454677 0.388727 0.195301
Si Si5 0.656794 0.265041 0.392178
Si Si6 0.865073 0.106212 0.112347
Si Si7 0.425276 0.609514 0.603210
O O1 0.250000 0.750000 0.128485
O O2 0.314109 0.852124 0.170461
O O3 0.327606 0.675887 0.138753
O O4 0.305038 0.778542 0.000000
O O5 0.724327 0.888844 0.327773
O O6 0.650321 0.823718 0.328745
O O7 0.666099 0.000000 0.272089
O O8 0.244231 0.883319 0.500000
O O9 0.199133 0.820135 0.364568
O O10 0.216914 0.000000 0.379794
O O11 0.500000 0.354766 0.157987
O O12 0.454786 0.500000 0.183988
O O13 0.410489 0.359473 0.149477
O O14 0.452168 0.368723 0.305561
O O15 0.661618 0.237046 0.500000
O O16 0.618275 0.335723 0.387245
O O17 0.858032 0.000000 0.144692
O O18 0.866751 0.103865 0.000000
O O19 0.443272 0.629809 0.500000
O O20 0.417004 0.500000 0.606230
#
# Coordination Sequence:
#
# PCOD9483489 Si02
#       7
#    16  16  16  16  16  16  16
#     4  10  21  36  52  69  91 122 161 201 239 283
#     4  11  22  32  43  61  87 120 156 195 241 286
#     4   9  17  29  45  65  88 115 151 195 241 287
#     4   9  17  28  44  69 101 135 165 191 224 274
#     4  10  18  29  46  65  88 119 156 198 239 279
#     4   9  18  33  53  75  98 125 157 195 240 288
#     4   9  17  28  43  65  93 126 161 192 224 267
#
# _framework density 16.977368999999999
#
# number of rings (size 3 to 8) (size 9 to 14) (size 15 to 20)
#    0.000    2.429    0.000    3.000    0.000    5.143 
#    0.000    7.857    0.000    0.000    0.000    0.000 
#    0.000    9.143    0.000   25.143    0.000    1.429 
#
# Total GULP energy -312310.965082 kJ/mol
# GULP energy per Si atom -5576.981519 kJ/mol
# Density = 1.693873 g / cm^3
# Si number density = 16.977369 Si / 1000 Ang^3
#
#
#
# Elastic Constant Matrix: (Units=GPa)
#
#
# Indices 1 2 3 4 5 6 
#
# 1 82.5606 24.4139 18.1648 0.0000 0.0000 0.0000
# 2 24.4139 64.7914 23.4615 0.0000 0.0000 0.0000
# 3 18.1648 23.4615 46.1267 0.0000 0.0000 0.0000
# 4 0.0000 0.0000 0.0000 25.2059 0.0000 0.0000
# 5 0.0000 0.0000 0.0000 0.0000 2.4501 0.0000
# 6 0.0000 0.0000 0.0000 0.0000 0.0000 12.6204
#
#
#
# Elastic Compliance Matrix: (Units=1/GPa)
#
#
# Indices 1 2 3 4 5 6 
#
# 1 0.014074 -0.004041 -0.003487 0.000000 0.000000 0.000000
# 2 -0.004041 0.020079 -0.008621 0.000000 0.000000 0.000000
# 3 -0.003487 -0.008621 0.027438 0.000000 0.000000 0.000000
# 4 0.000000 0.000000 0.000000 0.039673 0.000000 0.000000
# 5 0.000000 0.000000 0.000000 0.000000 0.408141 0.000000
# 6 0.000000 0.000000 0.000000 0.000000 0.000000 0.079237
#
#
# Mechanical properties :
#
#
# Convention : Reuss Voigt Hill
#
# Bulk Modulus (GPa) = 34.13883 36.17325 35.15604
# Shear Modulus (GPa) = 7.92764 16.55118 12.23941
#
# Velocity S-wave (km/s) = 2.16325 3.12572 2.68792
# Velocity P-wave (km/s) = 5.13728 5.86343 5.51233
#
# Compressibility (1/GPa) = 0.02929216
#
# Stress axis : x y z
#
# Youngs Moduli (GPa) = 71.05089 49.80446 36.44596
#
# Poissons Ratio (x) = 0.20124 0.12710
# Poissons Ratio (y) = 0.28708 0.31422
# Poissons Ratio (z) = 0.24778 0.42938
#
# Static dielectric constant tensor:
#      x y z
#    x 1.580070 0.000000 0.000000 
#    y 0.000000 1.570970 0.000000 
#    z 0.000000 0.000000 1.620440 
# 
# From -- ./inp_files/41352.got.cif
#   From: 2010.05.17/outbox.cif.g08.bks.cpg/sg65_21_cif.got.tgz:41352.got - 2010.06.03 17:01:31.
