data_PCOD9483616
_publ_section_title
;
Structure prediction by ZEFSAII (Michael W. Deem and Ramdas Pophale) SiO2 
 PCOD9483616
Probable space group: C M M M
;
_chemical_formula_sum "Si O2"
_cell_formula_units_Z 96
_cell_length_a 22.700187
_cell_length_b 26.246011
_cell_length_c 7.331986
_cell_angle_alpha 90.000000
_cell_angle_beta 90.000000
_cell_angle_gamma 90.000000
_cell_volume 4368.319230
_symmetry_space_group_name_H-M "C M M M"
_symmetry_group_IT_number 65
_symmetry_cell_setting 'orthorhombic'
loop_
_space_group_symop_operation_xyz
x,y,z
-x,-y,z
x,-y,-z
-x,y,-z
-x,-y,-z
x,y,-z
-x,y,z
x,-y,z
1/2+x,1/2+y,z
1/2-x,1/2-y,z
1/2+x,1/2-y,-z
1/2-x,1/2+y,-z
1/2-x,1/2-y,-z
1/2+x,1/2+y,-z
1/2-x,1/2+y,z
1/2+x,1/2-y,z
loop_
_atom_site_type_symbol
_atom_site_label
_atom_site_fract_x
_atom_site_fract_y
_atom_site_fract_z
Si Si1 0.567303 0.058311 0.222100
Si Si2 0.209043 0.846831 0.211307
Si Si3 0.841082 0.355957 0.777261
Si Si4 0.875593 0.242160 0.222609
Si Si5 0.000000 0.922453 0.709414
Si Si6 0.000000 0.196425 0.220895
Si Si7 0.370161 0.444379 0.720653
O O1 0.500000 0.070792 0.276858
O O2 0.615272 0.099291 0.284123
O O3 0.580120 0.000000 0.277544
O O4 0.567669 0.058722 0.000000
O O5 0.273437 0.859859 0.285859
O O6 0.173406 0.798407 0.287254
O O7 0.167708 0.896316 0.219020
O O8 0.219415 0.833551 0.000000
O O9 0.863025 0.299877 0.723792
O O10 0.841909 0.358241 0.000000
O O11 0.940165 0.223715 0.279757
O O12 0.875047 0.240809 0.000000
O O13 0.937565 0.939745 0.787498
O O14 0.000000 0.940203 0.500000
O O15 0.000000 0.861486 0.714439
O O16 0.000000 0.195129 0.000000
O O17 0.371402 0.442080 0.500000
O O18 0.346465 0.500000 0.773683
#
# Coordination Sequence:
#
# PCOD9483616 Si02
#       7
#    16  16  16  16   8   8  16
#     4   8  14  24  37  56  87 123 156 194 238 282
#     4  10  19  32  49  71 101 131 160 201 247 290
#     4   9  17  27  44  68  96 130 163 194 237 295
#     4   9  17  28  44  68  98 128 160 197 240 287
#     4  10  19  34  54  72  94 127 167 206 248 290
#     4  10  18  29  49  75 101 128 162 205 246 288
#     4  10  21  36  53  72  96 129 169 207 244 293
#
# _framework density 21.976414999999999
#
# number of rings (size 3 to 8) (size 9 to 14) (size 15 to 20)
#    0.000    2.667    1.667    1.250    1.167    4.000 
#    0.000    1.667    0.000    4.500    0.000    0.000 
#    0.000    0.000    0.000    3.667    0.000    3.000 
#
# Total GULP energy -268112.594559 kJ/mol
# GULP energy per Si atom -5585.679053 kJ/mol
# Density = 2.192640 g / cm^3
# Si number density = 21.976415 Si / 1000 Ang^3
#
#
#
# Elastic Constant Matrix: (Units=GPa)
#
#
# Indices 1 2 3 4 5 6 
#
# 1 192.2782 127.5780 6.5801 0.0000 0.0000 0.0000
# 2 127.5780 187.1770 -2.8835 0.0000 0.0000 0.0000
# 3 6.5801 -2.8835 84.7376 0.0000 0.0000 0.0000
# 4 0.0000 0.0000 0.0000 12.7658 0.0000 0.0000
# 5 0.0000 0.0000 0.0000 0.0000 -5.4809 0.0000
# 6 0.0000 0.0000 0.0000 0.0000 0.0000 5.4991
#
#
#
# Elastic Compliance Matrix: (Units=1/GPa)
#
#
# Indices 1 2 3 4 5 6 
#
# 1 0.009573 -0.006540 -0.000966 0.000000 0.000000 0.000000
# 2 -0.006540 0.009813 0.000842 0.000000 0.000000 0.000000
# 3 -0.000966 0.000842 0.011905 0.000000 0.000000 0.000000
# 4 0.000000 0.000000 0.000000 0.078335 0.000000 0.000000
# 5 0.000000 0.000000 0.000000 0.000000 -0.182451 0.000000
# 6 0.000000 0.000000 0.000000 0.000000 0.000000 0.181849
#
#
# Mechanical properties :
#
#
# Convention : Reuss Voigt Hill
#
# Bulk Modulus (GPa) = 55.67025 80.74911 68.20968
# Shear Modulus (GPa) = 38.95933 24.75132 31.85532
#
# Velocity S-wave (km/s) = 4.21501 3.35963 3.81139
# Velocity P-wave (km/s) = 7.00537 7.20228 7.10450
#
# Compressibility (1/GPa) = 0.01796292
#
# Stress axis : x y z
#
# Youngs Moduli (GPa) = 104.46000 101.90615 83.99981
#
# Poissons Ratio (x) = 0.66644 0.08114
# Poissons Ratio (y) = 0.68314 -0.07071
# Poissons Ratio (z) = 0.10090 -0.08578
#
# Static dielectric constant tensor:
#      x y z
#    x 1.773640 0.000000 0.000000 
#    y 0.000000 1.745650 0.000000 
#    z 0.000000 0.000000 1.864810 
# 
# From -- ./inp_files/14433.got.cif
#   From: 2010.05.17/outbox.cif.g08.bks.cpg/sg65_8_cif.got.tgz:14433.got - 2010.06.03 17:01:31.
