data_PCOD9483131
_publ_section_title
;
Structure prediction by ZEFSAII (Michael W. Deem and Ramdas Pophale) SiO2 
 PCOD9483131
Probable space group: C M M M
;
_chemical_formula_sum "Si O2"
_cell_formula_units_Z 96
_cell_length_a 17.507788
_cell_length_b 23.697854
_cell_length_c 14.326994
_cell_angle_alpha 90.000000
_cell_angle_beta 90.000000
_cell_angle_gamma 90.000000
_cell_volume 5944.226885
_symmetry_space_group_name_H-M "C M M M"
_symmetry_group_IT_number 65
_symmetry_cell_setting 'orthorhombic'
loop_
_space_group_symop_operation_xyz
x,y,z
-x,-y,z
x,-y,-z
-x,y,-z
-x,-y,-z
x,y,-z
-x,y,z
x,-y,z
1/2+x,1/2+y,z
1/2-x,1/2-y,z
1/2+x,1/2-y,-z
1/2-x,1/2+y,-z
1/2-x,1/2-y,-z
1/2+x,1/2+y,-z
1/2-x,1/2+y,z
1/2+x,1/2-y,z
loop_
_atom_site_type_symbol
_atom_site_label
_atom_site_fract_x
_atom_site_fract_y
_atom_site_fract_z
Si Si1 0.909752 0.935484 0.238450
Si Si2 0.585637 0.263520 0.107874
Si Si3 0.589528 0.213925 0.611070
Si Si4 0.908121 0.154180 0.604996
Si Si5 0.692864 0.626669 0.108126
Si Si6 0.195318 0.694918 0.233843
O O1 0.884178 0.890598 0.317363
O O2 0.855838 0.924581 0.149935
O O3 0.000000 0.925443 0.217270
O O4 0.903372 0.000000 0.271207
O O5 0.500000 0.274119 0.141632
O O6 0.633935 0.320707 0.111256
O O7 0.627613 0.216919 0.167697
O O8 0.583842 0.245892 0.000000
O O9 0.596624 0.205996 0.500000
O O10 0.500000 0.203432 0.635311
O O11 0.606384 0.280575 0.630370
O O12 0.652735 0.180481 0.669832
O O13 0.878204 0.143680 0.500000
O O14 0.000000 0.149386 0.599994
O O15 0.759555 0.646483 0.178397
O O16 0.716699 0.619446 0.000000
O O17 0.250000 0.750000 0.246002
#
# Coordination Sequence:
#
# PCOD9483131 Si02
#       6
#    16  16  16  16  16  16
#     4  10  20  32  47  66  85 113 159 205 238 268
#     4   9  16  26  42  62  83 111 147 183 219 263
#     4   9  17  29  46  68  94 124 154 181 214 262
#     4   8  14  26  44  65  89 116 146 182 223 263
#     4  10  20  32  43  59  87 120 151 187 235 280
#     4  10  18  27  41  61  88 120 149 180 217 265
#
# _framework density 16.150124000000002
#
# number of rings (size 3 to 8) (size 9 to 14) (size 15 to 20)
#    0.000    2.667    0.000    4.500    0.000    5.333 
#    0.000    3.333    0.000    0.000    0.000    0.000 
#    0.000    2.667    0.000   10.000    0.000    0.167 
#
# Total GULP energy -267418.781397 kJ/mol
# GULP energy per Si atom -5571.224612 kJ/mol
# Density = 1.611337 g / cm^3
# Si number density = 16.150124 Si / 1000 Ang^3
#
#
#
# Elastic Constant Matrix: (Units=GPa)
#
#
# Indices 1 2 3 4 5 6 
#
# 1 62.3531 13.9784 49.3453 0.0000 0.0000 0.0000
# 2 13.9784 19.9583 23.5308 0.0000 0.0000 0.0000
# 3 49.3453 23.5308 81.4079 0.0000 0.0000 0.0000
# 4 0.0000 0.0000 0.0000 15.1550 0.0000 0.0000
# 5 0.0000 0.0000 0.0000 0.0000 33.5003 0.0000
# 6 0.0000 0.0000 0.0000 0.0000 0.0000 17.2891
#
#
#
# Elastic Compliance Matrix: (Units=1/GPa)
#
#
# Indices 1 2 3 4 5 6 
#
# 1 0.030830 0.000667 -0.018880 0.000000 0.000000 0.000000
# 2 0.000667 0.076021 -0.022378 0.000000 0.000000 0.000000
# 3 -0.018880 -0.022378 0.030196 0.000000 0.000000 0.000000
# 4 0.000000 0.000000 0.000000 0.065985 0.000000 0.000000
# 5 0.000000 0.000000 0.000000 0.000000 0.029851 0.000000
# 6 0.000000 0.000000 0.000000 0.000000 0.000000 0.057840
#
#
# Mechanical properties :
#
#
# Convention : Reuss Voigt Hill
#
# Bulk Modulus (GPa) = 17.90034 37.49202 27.69618
# Shear Modulus (GPa) = 12.80325 18.31320 15.55823
#
# Velocity S-wave (km/s) = 2.81866 3.37105 3.10716
# Velocity P-wave (km/s) = 4.65843 6.19815 5.48261
#
# Compressibility (1/GPa) = 0.05586485
#
# Stress axis : x y z
#
# Youngs Moduli (GPa) = 32.43643 13.15424 33.11659
#
# Poissons Ratio (x) = -0.00878 0.62525
# Poissons Ratio (y) = -0.02164 0.74109
# Poissons Ratio (z) = 0.61240 0.29437
#
# Static dielectric constant tensor:
#      x y z
#    x 1.554850 0.000000 0.000000 
#    y 0.000000 1.511190 0.000000 
#    z 0.000000 0.000000 1.608400 
# 
# From -- ./inp_files/40357.got.cif
#   From: 2010.05.17/outbox.cif.g08.bks.cpg/sg65_21_cif.got.tgz:40357.got - 2010.06.03 17:01:31.
