data_PCOD9483782
_publ_section_title
;
Structure prediction by ZEFSAII (Michael W. Deem and Ramdas Pophale) SiO2 
 PCOD9483782
Probable space group: C M M M
;
_chemical_formula_sum "Si O2"
_cell_formula_units_Z 104
_cell_length_a 7.598156
_cell_length_b 24.425301
_cell_length_c 30.986684
_cell_angle_alpha 90.000000
_cell_angle_beta 90.000000
_cell_angle_gamma 90.000000
_cell_volume 5750.733388
_symmetry_space_group_name_H-M "C M M M"
_symmetry_group_IT_number 65
_symmetry_cell_setting 'orthorhombic'
loop_
_space_group_symop_operation_xyz
x,y,z
-x,-y,z
x,-y,-z
-x,y,-z
-x,-y,-z
x,y,-z
-x,y,z
x,-y,z
1/2+x,1/2+y,z
1/2-x,1/2-y,z
1/2+x,1/2-y,-z
1/2-x,1/2+y,-z
1/2-x,1/2-y,-z
1/2+x,1/2+y,-z
1/2-x,1/2+y,z
1/2+x,1/2-y,z
loop_
_atom_site_type_symbol
_atom_site_label
_atom_site_fract_x
_atom_site_fract_y
_atom_site_fract_z
Si Si1 0.791435 0.394259 0.291046
Si Si2 0.789039 0.185808 0.952655
Si Si3 0.500000 0.433811 0.451119
Si Si4 0.716969 0.621288 0.868419
Si Si5 0.291220 0.065617 0.617785
Si Si6 0.798520 0.000000 0.139439
Si Si7 0.215300 0.500000 0.761576
Si Si8 0.791817 0.185880 0.216738
O O1 0.728621 0.400698 0.340101
O O2 0.725542 0.445854 0.263439
O O3 0.763282 0.340533 0.262336
O O4 0.000000 0.402310 0.294761
O O5 0.750000 0.250000 0.948331
O O6 0.724868 0.154562 0.910461
O O7 0.000000 0.179148 0.953204
O O8 0.722112 0.167956 0.000000
O O9 0.500000 0.500000 0.453668
O O10 0.500000 0.412495 0.500000
O O11 0.672244 0.419584 0.423149
O O12 0.500000 0.620694 0.867115
O O13 0.779039 0.558733 0.872651
O O14 0.777775 0.650577 0.824085
O O15 0.500000 0.074249 0.610218
O O16 0.269390 0.000000 0.626850
O O17 0.793532 0.000000 0.191140
O O18 0.000000 0.000000 0.123537
O O19 0.000000 0.500000 0.764763
O O20 0.750000 0.250000 0.212842
O O21 0.000000 0.180571 0.214968
#
# Coordination Sequence:
#
# PCOD9483782 Si02
#       8
#    16  16   8  16  16   8   8  16
#     4  10  19  32  49  71 100 131 167 208 248 297
#     4   9  17  31  50  70  91 118 156 202 248 295
#     4   9  18  30  44  70 104 140 182 220 255 308
#     4   9  18  31  48  70  95 123 158 199 243 296
#     4   9  17  30  47  70 101 138 174 214 261 306
#     4  10  18  32  47  68  96 124 159 197 241 293
#     4  10  18  30  48  71  97 126 166 207 243 282
#     4  11  22  34  48  68  96 132 165 201 249 300
#
# _framework density 18.084648999999999
#
# number of rings (size 3 to 8) (size 9 to 14) (size 15 to 20)
#    0.000    2.385    2.308    0.923    1.077    0.308 
#    0.000    3.462    0.000    2.308    0.000    0.000 
#    0.000    3.692    0.308    0.000    0.000    0.000 
#
# Total GULP energy -289913.160732 kJ/mol
# GULP energy per Si atom -5575.253091 kJ/mol
# Density = 1.804349 g / cm^3
# Si number density = 18.084649 Si / 1000 Ang^3
#
#
#
# Elastic Constant Matrix: (Units=GPa)
#
#
# Indices 1 2 3 4 5 6 
#
# 1 49.1043 2.6003 25.7138 0.0000 0.0000 0.0000
# 2 2.6003 87.8747 57.1318 0.0000 0.0000 0.0000
# 3 25.7138 57.1318 158.2267 0.0000 0.0000 0.0000
# 4 0.0000 0.0000 0.0000 12.8110 0.0000 0.0000
# 5 0.0000 0.0000 0.0000 0.0000 0.3230 0.0000
# 6 0.0000 0.0000 0.0000 0.0000 0.0000 4.3572
#
#
#
# Elastic Compliance Matrix: (Units=1/GPa)
#
#
# Indices 1 2 3 4 5 6 
#
# 1 0.022593 0.002246 -0.004483 0.000000 0.000000 0.000000
# 2 0.002246 0.015094 -0.005815 0.000000 0.000000 0.000000
# 3 -0.004483 -0.005815 0.009148 0.000000 0.000000 0.000000
# 4 0.000000 0.000000 0.000000 0.078058 0.000000 0.000000
# 5 0.000000 0.000000 0.000000 0.000000 3.096316 0.000000
# 6 0.000000 0.000000 0.000000 0.000000 0.000000 0.229504
#
#
# Mechanical properties :
#
#
# Convention : Reuss Voigt Hill
#
# Bulk Modulus (GPa) = 32.53960 51.78859 42.16410
# Shear Modulus (GPa) = 1.43800 17.48223 9.46011
#
# Velocity S-wave (km/s) = 0.89268 3.11254 2.28962
# Velocity P-wave (km/s) = 4.36973 6.45105 5.50956
#
# Compressibility (1/GPa) = 0.03073178
#
# Stress axis : x y z
#
# Youngs Moduli (GPa) = 44.26107 66.25125 109.31118
#
# Poissons Ratio (x) = -0.14879 0.49000
# Poissons Ratio (y) = -0.09940 0.63565
# Poissons Ratio (z) = 0.19840 0.38526
#
# Static dielectric constant tensor:
#      x y z
#    x 1.667300 0.000000 0.000000 
#    y 0.000000 1.598810 0.000000 
#    z 0.000000 0.000000 1.631980 
# 
# From -- ./inp_files/73426.got.cif
#   From: 2010.05.17/outbox.cif.g08.bks.cpg/sg65_37_cif.got.tgz:73426.got - 2010.06.03 17:01:31.
