data_PCOD9483561
_publ_section_title
;
Structure prediction by ZEFSAII (Michael W. Deem and Ramdas Pophale) SiO2 
 PCOD9483561
Probable space group: C M M M
;
_chemical_formula_sum "Si O2"
_cell_formula_units_Z 64
_cell_length_a 8.258177
_cell_length_b 16.374962
_cell_length_c 23.110939
_cell_angle_alpha 90.000000
_cell_angle_beta 90.000000
_cell_angle_gamma 90.000000
_cell_volume 3125.230680
_symmetry_space_group_name_H-M "C M M M"
_symmetry_group_IT_number 65
_symmetry_cell_setting 'orthorhombic'
loop_
_space_group_symop_operation_xyz
x,y,z
-x,-y,z
x,-y,-z
-x,y,-z
-x,-y,-z
x,y,-z
-x,y,z
x,-y,z
1/2+x,1/2+y,z
1/2-x,1/2-y,z
1/2+x,1/2-y,-z
1/2-x,1/2+y,-z
1/2-x,1/2-y,-z
1/2+x,1/2+y,-z
1/2-x,1/2+y,z
1/2+x,1/2-y,z
loop_
_atom_site_type_symbol
_atom_site_label
_atom_site_fract_x
_atom_site_fract_y
_atom_site_fract_z
Si Si1 0.691396 0.344751 0.500000
Si Si2 0.306427 0.156164 0.621981
Si Si3 0.695362 0.161969 0.135394
Si Si4 0.197899 0.500000 0.933198
Si Si5 0.802791 0.592957 0.745325
O O1 0.500000 0.344253 0.500000
O O2 0.750000 0.250000 0.500000
O O3 0.750571 0.381053 0.439185
O O4 0.500000 0.153970 0.622097
O O5 0.250000 0.250000 0.623493
O O6 0.245358 0.115682 0.681184
O O7 0.500000 0.160587 0.135478
O O8 0.750000 0.250000 0.113201
O O9 0.752329 0.149404 0.201859
O O10 0.750165 0.083003 0.098995
O O11 0.000000 0.500000 0.931475
O O12 0.247654 0.500000 0.000000
O O13 0.759130 0.500000 0.759228
O O14 0.000000 0.596937 0.743941
#
# Coordination Sequence:
#
# PCOD9483561 Si02
#       5
#     8  16  16   8  16
#     4  10  18  30  47  66  95 129 165 207 257 315
#     4  10  18  29  48  71  95 123 164 213 262 314
#     4  10  19  34  57  82 111 145 186 229 272 321
#     4   9  18  34  57  83 113 152 191 222 260 323
#     4   9  17  31  51  74  99 133 175 219 263 314
#
# _framework density 20.478487999999999
#
# number of rings (size 3 to 8) (size 9 to 14) (size 15 to 20)
#    0.000    2.375    1.250    4.125    0.000    0.500 
#    0.000    2.500    0.000   10.500    0.000    0.000 
#    0.000    0.000    0.000    0.000    0.000    0.000 
#
# Total GULP energy -178516.635646 kJ/mol
# GULP energy per Si atom -5578.644864 kJ/mol
# Density = 2.043188 g / cm^3
# Si number density = 20.478488 Si / 1000 Ang^3
#
#
#
# Elastic Constant Matrix: (Units=GPa)
#
#
# Indices 1 2 3 4 5 6 
#
# 1 33.3508 4.8617 19.2530 0.0000 0.0000 0.0000
# 2 4.8617 119.1490 67.8917 0.0000 0.0000 0.0000
# 3 19.2530 67.8917 156.7069 0.0000 0.0000 0.0000
# 4 0.0000 0.0000 0.0000 27.2962 0.0000 0.0000
# 5 0.0000 0.0000 0.0000 0.0000 3.9656 0.0000
# 6 0.0000 0.0000 0.0000 0.0000 0.0000 17.8826
#
#
#
# Elastic Compliance Matrix: (Units=1/GPa)
#
#
# Indices 1 2 3 4 5 6 
#
# 1 0.032414 0.001257 -0.004527 0.000000 0.000000 0.000000
# 2 0.001257 0.011193 -0.005003 0.000000 0.000000 0.000000
# 3 -0.004527 -0.005003 0.009105 0.000000 0.000000 0.000000
# 4 0.000000 0.000000 0.000000 0.036635 0.000000 0.000000
# 5 0.000000 0.000000 0.000000 0.000000 0.252166 0.000000
# 6 0.000000 0.000000 0.000000 0.000000 0.000000 0.055920
#
#
# Mechanical properties :
#
#
# Convention : Reuss Voigt Hill
#
# Bulk Modulus (GPa) = 27.65100 54.80217 41.22658
# Shear Modulus (GPa) = 11.73611 24.30891 18.02251
#
# Velocity S-wave (km/s) = 2.39654 3.44909 2.96982
# Velocity P-wave (km/s) = 4.60322 6.53304 5.65112
#
# Compressibility (1/GPa) = 0.03616506
#
# Stress axis : x y z
#
# Youngs Moduli (GPa) = 30.85049 89.34482 109.82689
#
# Poissons Ratio (x) = -0.11229 0.49718
# Poissons Ratio (y) = -0.03877 0.54952
# Poissons Ratio (z) = 0.13966 0.44704
#
# Static dielectric constant tensor:
#      x y z
#    x 1.714290 0.000000 0.000000 
#    y 0.000000 1.719840 0.000000 
#    z 0.000000 0.000000 1.770600 
# 
# From -- ./inp_files/66828.got.cif
#   From: 2010.05.17/outbox.cif.g08.bks.cpg/sg65_34_cif.got.tgz:66828.got - 2010.06.03 17:01:31.
