data_PCOD9483372
_publ_section_title
;
Structure prediction by ZEFSAII (Michael W. Deem and Ramdas Pophale) SiO2 
 PCOD9483372
Probable space group: C M M M
;
_chemical_formula_sum "Si O2"
_cell_formula_units_Z 72
_cell_length_a 16.202583
_cell_length_b 8.499203
_cell_length_c 25.809059
_cell_angle_alpha 90.000000
_cell_angle_beta 90.000000
_cell_angle_gamma 90.000000
_cell_volume 3554.140791
_symmetry_space_group_name_H-M "C M M M"
_symmetry_group_IT_number 65
_symmetry_cell_setting 'orthorhombic'
loop_
_space_group_symop_operation_xyz
x,y,z
-x,-y,z
x,-y,-z
-x,y,-z
-x,-y,-z
x,y,-z
-x,y,z
x,-y,z
1/2+x,1/2+y,z
1/2-x,1/2-y,z
1/2+x,1/2-y,-z
1/2-x,1/2+y,-z
1/2-x,1/2-y,-z
1/2+x,1/2+y,-z
1/2-x,1/2+y,z
1/2+x,1/2-y,z
loop_
_atom_site_type_symbol
_atom_site_label
_atom_site_fract_x
_atom_site_fract_y
_atom_site_fract_z
Si Si1 0.500000 0.311567 0.939420
Si Si2 0.593296 0.808632 0.774726
Si Si3 0.837397 0.688518 0.118329
Si Si4 0.844801 0.188516 0.556260
Si Si5 0.156262 0.688644 0.663476
O O1 0.500000 0.500000 0.934874
O O2 0.582687 0.246335 0.912694
O O3 0.500000 0.268748 0.000000
O O4 0.500000 0.762115 0.787484
O O5 0.650809 0.756138 0.821840
O O6 0.615499 0.755416 0.716943
O O7 0.596211 0.000000 0.773641
O O8 0.836961 0.500000 0.117753
O O9 0.750000 0.750000 0.098012
O O10 0.881169 0.234111 0.500000
O O11 0.750000 0.250000 0.555699
O O12 0.882622 0.253003 0.609431
O O13 0.843318 0.000000 0.559048
O O14 0.156230 0.500000 0.662618
O O15 0.250000 0.750000 0.664853
#
# Coordination Sequence:
#
# PCOD9483372 Si02
#       5
#     8  16  16  16  16
#     4  11  25  45  67  95 131 167 210 259 302 353
#     4   9  18  34  55  80 111 148 188 234 291 349
#     4  11  22  40  67  95 128 167 208 254 306 364
#     4   9  16  26  41  62  92 128 168 218 274 333
#     4  10  18  28  47  72 101 133 171 222 276 339
#
# _framework density 20.258061000000001
#
# number of rings (size 3 to 8) (size 9 to 14) (size 15 to 20)
#    0.000    2.111    1.111    4.333    0.000    2.667 
#    0.000    3.333    0.000    0.667    0.000    4.667 
#    0.000    0.000    0.000    0.000    0.000    0.000 
#
# Total GULP energy -200857.748815 kJ/mol
# GULP energy per Si atom -5579.381912 kJ/mol
# Density = 2.021195 g / cm^3
# Si number density = 20.258061 Si / 1000 Ang^3
#
#
#
# Elastic Constant Matrix: (Units=GPa)
#
#
# Indices 1 2 3 4 5 6 
#
# 1 106.9392 20.0857 59.8444 0.0000 0.0000 0.0000
# 2 20.0857 49.4991 42.5718 0.0000 0.0000 0.0000
# 3 59.8444 42.5718 154.4600 0.0000 0.0000 0.0000
# 4 0.0000 0.0000 0.0000 6.3673 0.0000 0.0000
# 5 0.0000 0.0000 0.0000 0.0000 21.1169 0.0000
# 6 0.0000 0.0000 0.0000 0.0000 0.0000 20.6210
#
#
#
# Elastic Compliance Matrix: (Units=1/GPa)
#
#
# Indices 1 2 3 4 5 6 
#
# 1 0.011989 -0.001140 -0.004331 0.000000 0.000000 0.000000
# 2 -0.001140 0.026588 -0.006886 0.000000 0.000000 0.000000
# 3 -0.004331 -0.006886 0.010050 0.000000 0.000000 0.000000
# 4 0.000000 0.000000 0.000000 0.157052 0.000000 0.000000
# 5 0.000000 0.000000 0.000000 0.000000 0.047355 0.000000
# 6 0.000000 0.000000 0.000000 0.000000 0.000000 0.048494
#
#
# Mechanical properties :
#
#
# Convention : Reuss Voigt Hill
#
# Bulk Modulus (GPa) = 41.81975 61.76688 51.79331
# Shear Modulus (GPa) = 14.96051 22.18081 18.57066
#
# Velocity S-wave (km/s) = 2.72048 3.31254 3.03100
# Velocity P-wave (km/s) = 5.52778 6.72211 6.15399
#
# Compressibility (1/GPa) = 0.02391215
#
# Stress axis : x y z
#
# Youngs Moduli (GPa) = 83.41137 37.61162 99.50221
#
# Poissons Ratio (x) = 0.04288 0.43092
# Poissons Ratio (y) = 0.09510 0.68519
# Poissons Ratio (z) = 0.36123 0.25900
#
# Static dielectric constant tensor:
#      x y z
#    x 1.710970 0.000000 0.000000 
#    y 0.000000 1.683860 0.000000 
#    z 0.000000 0.000000 1.776700 
# 
# From -- ./inp_files/74603.got.cif
#   From: 2010.05.17/outbox.cif.g08.bks.cpg/sg65_38_cif.got.tgz:74603.got - 2010.06.03 17:01:31.
