data_PCOD9483931
_publ_section_title
;
Structure prediction by ZEFSAII (Michael W. Deem and Ramdas Pophale) SiO2 
 PCOD9483931
Probable space group: C M M M
;
_chemical_formula_sum "Si O2"
_cell_formula_units_Z 80
_cell_length_a 15.663701
_cell_length_b 23.557034
_cell_length_c 11.884136
_cell_angle_alpha 90.000000
_cell_angle_beta 90.000000
_cell_angle_gamma 90.000000
_cell_volume 4385.131348
_symmetry_space_group_name_H-M "C M M M"
_symmetry_group_IT_number 65
_symmetry_cell_setting 'orthorhombic'
loop_
_space_group_symop_operation_xyz
x,y,z
-x,-y,z
x,-y,-z
-x,y,-z
-x,-y,-z
x,y,-z
-x,y,z
x,-y,z
1/2+x,1/2+y,z
1/2-x,1/2-y,z
1/2+x,1/2-y,-z
1/2-x,1/2+y,-z
1/2-x,1/2-y,-z
1/2+x,1/2+y,-z
1/2-x,1/2+y,z
1/2+x,1/2-y,z
loop_
_atom_site_type_symbol
_atom_site_label
_atom_site_fract_x
_atom_site_fract_y
_atom_site_fract_z
Si Si1 0.000000 0.566727 0.634135
Si Si2 0.400152 0.874427 0.000000
Si Si3 0.898548 0.758816 0.244193
Si Si4 0.332357 0.364882 0.633891
Si Si5 0.656857 0.127450 0.755074
Si Si6 0.352239 0.743537 0.000000
Si Si7 0.500000 0.564652 0.363476
O O1 0.917103 0.596733 0.685484
O O2 0.000000 0.500000 0.661851
O O3 0.000000 0.572917 0.500000
O O4 0.354176 0.891456 0.884733
O O5 0.500000 0.891306 0.000000
O O6 0.396072 0.805618 0.000000
O O7 0.855355 0.800310 0.333395
O O8 0.860527 0.695417 0.248782
O O9 0.000000 0.755685 0.261593
O O10 0.879579 0.782980 0.118610
O O11 0.318988 0.370305 0.500000
O O12 0.248465 0.383202 0.701078
O O13 0.414667 0.401796 0.668606
O O14 0.250000 0.750000 0.000000
O O15 0.500000 0.500000 0.323214
O O16 0.500000 0.563660 0.500000
#
# Coordination Sequence:
#
# PCOD9483931 Si02
#       7
#     8   8  16  16  16   8   8
#     4  11  24  40  58  85 118 154 198 241 288 352
#     4  10  18  36  60  83 113 152 196 236 277 349
#     4  11  20  35  56  84 118 155 191 235 291 349
#     4  11  23  37  57  88 120 151 194 240 288 355
#     4  11  21  39  60  87 120 156 190 238 296 344
#     4  10  18  30  50  82 115 149 192 238 280 346
#     4   9  20  41  63  79 104 149 200 246 286 326
#
# _framework density 18.243466999999999
#
# number of rings (size 3 to 8) (size 9 to 14) (size 15 to 20)
#    0.000    1.400    3.000    5.700    0.000    3.200 
#    0.000    3.000    0.000    0.000    0.000    4.900 
#    0.000    0.000    0.000    0.000    0.000    0.000 
#
# Total GULP energy -223367.487311 kJ/mol
# GULP energy per Si atom -5584.187183 kJ/mol
# Density = 1.820194 g / cm^3
# Si number density = 18.243467 Si / 1000 Ang^3
#
#
#
# Elastic Constant Matrix: (Units=GPa)
#
#
# Indices 1 2 3 4 5 6 
#
# 1 181.8876 39.7989 72.8943 0.0000 0.0000 0.0000
# 2 39.7989 74.6555 38.6850 0.0000 0.0000 0.0000
# 3 72.8943 38.6850 106.6019 0.0000 0.0000 0.0000
# 4 0.0000 0.0000 0.0000 -7.0348 0.0000 0.0000
# 5 0.0000 0.0000 0.0000 0.0000 36.0387 0.0000
# 6 0.0000 0.0000 0.0000 0.0000 0.0000 -3.2476
#
#
#
# Elastic Compliance Matrix: (Units=1/GPa)
#
#
# Indices 1 2 3 4 5 6 
#
# 1 0.007746 -0.001705 -0.004678 0.000000 0.000000 0.000000
# 2 -0.001705 0.016872 -0.004957 0.000000 0.000000 0.000000
# 3 -0.004678 -0.004957 0.014378 0.000000 0.000000 0.000000
# 4 0.000000 0.000000 0.000000 -0.142150 0.000000 0.000000
# 5 0.000000 0.000000 0.000000 0.000000 0.027748 0.000000
# 6 0.000000 0.000000 0.000000 0.000000 0.000000 -0.307921
#
#
# Mechanical properties :
#
#
# Convention : Reuss Voigt Hill
#
# Bulk Modulus (GPa) = 61.28703 73.98906 67.63805
# Shear Modulus (GPa) = -14.07623 19.26905 2.59641
#
# Velocity S-wave (km/s) = -2.78074 3.25347 1.19427
# Velocity P-wave (km/s) = 4.83289 7.39986 6.24959
#
# Compressibility (1/GPa) = 0.01631667
#
# Stress axis : x y z
#
# Youngs Moduli (GPa) = 129.10417 59.26809 69.55058
#
# Poissons Ratio (x) = 0.10107 0.32533
# Poissons Ratio (y) = 0.22017 0.34475
# Poissons Ratio (z) = 0.60390 0.29378
#
# Static dielectric constant tensor:
#      x y z
#    x 1.615830 0.000000 0.000000 
#    y 0.000000 1.613790 0.000000 
#    z 0.000000 0.000000 1.647370 
# 
# From -- ./inp_files/24751.got.cif
#   From: 2010.05.17/outbox.cif.g08.bks.cpg/sg65_13_cif.got.tgz:24751.got - 2010.06.03 17:01:31.
