data_PCOD9483321
_publ_section_title
;
Structure prediction by ZEFSAII (Michael W. Deem and Ramdas Pophale) SiO2 
 PCOD9483321
Probable space group: C M M M
;
_chemical_formula_sum "Si O2"
_cell_formula_units_Z 104
_cell_length_a 15.221046
_cell_length_b 18.187412
_cell_length_c 17.618167
_cell_angle_alpha 90.000000
_cell_angle_beta 90.000000
_cell_angle_gamma 90.000000
_cell_volume 4877.262447
_symmetry_space_group_name_H-M "C M M M"
_symmetry_group_IT_number 65
_symmetry_cell_setting 'orthorhombic'
loop_
_space_group_symop_operation_xyz
x,y,z
-x,-y,z
x,-y,-z
-x,y,-z
-x,-y,-z
x,y,-z
-x,y,z
x,-y,z
1/2+x,1/2+y,z
1/2-x,1/2-y,z
1/2+x,1/2-y,-z
1/2-x,1/2+y,-z
1/2-x,1/2-y,-z
1/2+x,1/2+y,-z
1/2-x,1/2+y,z
1/2+x,1/2-y,z
loop_
_atom_site_type_symbol
_atom_site_label
_atom_site_fract_x
_atom_site_fract_y
_atom_site_fract_z
Si Si1 0.103960 0.144561 0.172748
Si Si2 0.841198 0.584970 0.638958
Si Si3 0.107890 0.000000 0.087969
Si Si4 0.125049 0.912309 0.500000
Si Si5 0.368001 0.585054 0.665110
Si Si6 0.696830 0.828569 0.500000
Si Si7 0.608169 0.788850 0.912370
Si Si8 0.395806 0.918508 0.807384
O O1 0.112870 0.134858 0.262789
O O2 0.139106 0.218004 0.134570
O O3 0.000000 0.145383 0.157050
O O4 0.139564 0.072033 0.131854
O O5 0.866351 0.500000 0.616931
O O6 0.736997 0.583311 0.655790
O O7 0.856077 0.647889 0.575489
O O8 0.884096 0.603394 0.719633
O O9 0.000000 0.000000 0.090305
O O10 0.132884 0.000000 0.000000
O O11 0.094917 0.888025 0.583602
O O12 0.226570 0.889961 0.500000
O O13 0.114737 0.000000 0.500000
O O14 0.396798 0.500000 0.678581
O O15 0.750000 0.750000 0.500000
O O16 0.500000 0.789493 0.911794
O O17 0.639637 0.860197 0.866895
O O18 0.634908 0.786745 0.000000
O O19 0.500000 0.923201 0.821040
O O20 0.356982 0.000000 0.815750
#
# Coordination Sequence:
#
# PCOD9483321 Si02
#       8
#    16  16   8   8  16   8  16  16
#     4  10  18  28  45  70  99 126 162 207 246 290
#     4   9  18  33  52  72  99 133 164 204 251 294
#     4   9  16  26  42  63  89 123 162 201 238 287
#     4   8  16  30  45  61  89 126 165 199 229 269
#     4   9  16  29  48  69  93 129 168 201 239 289
#     4  10  18  28  47  75 101 127 167 201 226 277
#     4   9  18  32  50  72  97 126 159 199 250 301
#     4   9  18  33  53  76  97 121 161 210 256 306
#
# _framework density 21.323436999999998
#
# number of rings (size 3 to 8) (size 9 to 14) (size 15 to 20)
#    0.000    2.846    0.769    2.077    0.000    4.615 
#    0.000    2.308    0.000    6.000    0.000    7.538 
#    0.000    0.000    0.000    0.000    0.000    0.000 
#
# Total GULP energy -289810.993271 kJ/mol
# GULP energy per Si atom -5573.288332 kJ/mol
# Density = 2.127490 g / cm^3
# Si number density = 21.323437 Si / 1000 Ang^3
#
#
#
# Elastic Constant Matrix: (Units=GPa)
#
#
# Indices 1 2 3 4 5 6 
#
# 1 17.9391 -3.3472 -7.1655 0.0000 0.0000 0.0000
# 2 -3.3472 117.2825 121.4175 0.0000 0.0000 0.0000
# 3 -7.1655 121.4175 209.4283 0.0000 0.0000 0.0000
# 4 0.0000 0.0000 0.0000 28.7691 0.0000 0.0000
# 5 0.0000 0.0000 0.0000 0.0000 22.6042 0.0000
# 6 0.0000 0.0000 0.0000 0.0000 0.0000 12.4957
#
#
#
# Elastic Compliance Matrix: (Units=1/GPa)
#
#
# Indices 1 2 3 4 5 6 
#
# 1 0.056561 -0.000973 0.002500 0.000000 0.000000 0.000000
# 2 -0.000973 0.021343 -0.012407 0.000000 0.000000 0.000000
# 3 0.002500 -0.012407 0.012054 0.000000 0.000000 0.000000
# 4 0.000000 0.000000 0.000000 0.034759 0.000000 0.000000
# 5 0.000000 0.000000 0.000000 0.000000 0.044240 0.000000
# 6 0.000000 0.000000 0.000000 0.000000 0.000000 0.080028
#
#
# Mechanical properties :
#
#
# Convention : Reuss Voigt Hill
#
# Bulk Modulus (GPa) = 14.66375 62.93997 38.80186
# Shear Modulus (GPa) = 17.03703 28.35681 22.69692
#
# Velocity S-wave (km/s) = 2.82969 3.65066 3.26607
# Velocity P-wave (km/s) = 4.19142 6.88118 5.69730
#
# Compressibility (1/GPa) = 0.06819540
#
# Stress axis : x y z
#
# Youngs Moduli (GPa) = 17.68009 46.85309 82.96270
#
# Poissons Ratio (x) = 0.04561 -0.20737
# Poissons Ratio (y) = 0.01721 1.02934
# Poissons Ratio (z) = -0.04419 0.58132
#
# Static dielectric constant tensor:
#      x y z
#    x 1.772020 0.000000 0.000000 
#    y 0.000000 1.783800 0.000000 
#    z 0.000000 0.000000 1.795110 
# 
# From -- ./inp_files/54660.got.cif
#   From: 2010.05.17/outbox.cif.g08.bks.cpg/sg65_28_cif.got.tgz:54660.got - 2010.06.03 17:01:31.
