data_PCOD9483547
_publ_section_title
;
Structure prediction by ZEFSAII (Michael W. Deem and Ramdas Pophale) SiO2 
 PCOD9483547
Probable space group: C M M M
;
_chemical_formula_sum "Si O2"
_cell_formula_units_Z 96
_cell_length_a 21.773277
_cell_length_b 19.006638
_cell_length_c 13.729565
_cell_angle_alpha 90.000000
_cell_angle_beta 90.000000
_cell_angle_gamma 90.000000
_cell_volume 5681.799163
_symmetry_space_group_name_H-M "C M M M"
_symmetry_group_IT_number 65
_symmetry_cell_setting 'orthorhombic'
loop_
_space_group_symop_operation_xyz
x,y,z
-x,-y,z
x,-y,-z
-x,y,-z
-x,-y,-z
x,y,-z
-x,y,z
x,-y,z
1/2+x,1/2+y,z
1/2-x,1/2-y,z
1/2+x,1/2-y,-z
1/2-x,1/2+y,-z
1/2-x,1/2-y,-z
1/2+x,1/2+y,-z
1/2-x,1/2+y,z
1/2+x,1/2-y,z
loop_
_atom_site_type_symbol
_atom_site_label
_atom_site_fract_x
_atom_site_fract_y
_atom_site_fract_z
Si Si1 0.366115 0.582980 0.884132
Si Si2 0.715453 0.681339 0.248840
Si Si3 0.796448 0.579705 0.616492
Si Si4 0.566625 0.112685 0.616442
Si Si5 0.500000 0.382210 0.393549
Si Si6 0.608462 0.269532 0.609846
Si Si7 0.500000 0.578719 0.176393
O O1 0.362162 0.500000 0.854469
O O2 0.315975 0.629754 0.829043
O O3 0.434966 0.609928 0.857098
O O4 0.358521 0.586388 0.000000
O O5 0.750000 0.750000 0.207238
O O6 0.759472 0.635252 0.319043
O O7 0.661643 0.712662 0.316090
O O8 0.793312 0.596232 0.500000
O O9 0.772658 0.500000 0.628986
O O10 0.868279 0.580948 0.647413
O O11 0.564349 0.100230 0.500000
O O12 0.500000 0.089609 0.656028
O O13 0.574648 0.196284 0.631900
O O14 0.500000 0.417897 0.500000
O O15 0.440860 0.331768 0.390133
O O16 0.500000 0.424140 0.293462
O O17 0.633788 0.262610 0.500000
O O18 0.500000 0.500000 0.133731
#
# Coordination Sequence:
#
# PCOD9483547 Si02
#       7
#    16  16  16  16   8  16   8
#     4  10  22  40  59  78 102 132 171 221 272 320
#     4  12  22  33  54  77 102 138 173 213 260 311
#     4  10  21  34  47  70 106 142 176 210 246 302
#     4   9  16  28  47  69  95 130 172 212 248 288
#     4  10  18  30  49  76 111 143 170 209 251 297
#     4  10  18  29  47  73 105 141 174 204 246 298
#     4  10  19  35  58  79 101 135 175 210 255 312
#
# _framework density 16.896056999999999
#
# number of rings (size 3 to 8) (size 9 to 14) (size 15 to 20)
#    0.000    1.833    4.167    1.250    0.000    2.500 
#    0.000    1.667    0.000    0.000    0.000    0.000 
#    0.000    0.000    0.000    3.500    0.000    0.167 
#
# Total GULP energy -267499.940865 kJ/mol
# GULP energy per Si atom -5572.915435 kJ/mol
# Density = 1.685760 g / cm^3
# Si number density = 16.896057 Si / 1000 Ang^3
#
#
#
# Elastic Constant Matrix: (Units=GPa)
#
#
# Indices 1 2 3 4 5 6 
#
# 1 101.3760 34.5424 36.5924 0.0000 0.0000 0.0000
# 2 34.5424 80.3562 32.1008 0.0000 0.0000 0.0000
# 3 36.5924 32.1008 63.1774 0.0000 0.0000 0.0000
# 4 0.0000 0.0000 0.0000 17.7812 0.0000 0.0000
# 5 0.0000 0.0000 0.0000 0.0000 0.5330 0.0000
# 6 0.0000 0.0000 0.0000 0.0000 0.0000 4.5781
#
#
#
# Elastic Compliance Matrix: (Units=1/GPa)
#
#
# Indices 1 2 3 4 5 6 
#
# 1 0.013122 -0.003268 -0.005940 0.000000 0.000000 0.000000
# 2 -0.003268 0.016428 -0.006454 0.000000 0.000000 0.000000
# 3 -0.005940 -0.006454 0.022548 0.000000 0.000000 0.000000
# 4 0.000000 0.000000 0.000000 0.056239 0.000000 0.000000
# 5 0.000000 0.000000 0.000000 0.000000 1.876285 0.000000
# 6 0.000000 0.000000 0.000000 0.000000 0.000000 0.218431
#
#
# Mechanical properties :
#
#
# Convention : Reuss Voigt Hill
#
# Bulk Modulus (GPa) = 48.13714 50.15343 49.14529
# Shear Modulus (GPa) = 2.23085 14.02338 8.12711
#
# Velocity S-wave (km/s) = 1.15031 2.88406 2.19557
# Velocity P-wave (km/s) = 5.50602 6.39049 5.96467
#
# Compressibility (1/GPa) = 0.02077398
#
# Stress axis : x y z
#
# Youngs Moduli (GPa) = 76.20966 60.87294 44.34948
#
# Poissons Ratio (x) = 0.19892 0.26342
# Poissons Ratio (y) = 0.24904 0.28624
# Poissons Ratio (z) = 0.45266 0.39289
#
# Static dielectric constant tensor:
#      x y z
#    x 1.611200 0.000000 0.000000 
#    y 0.000000 1.601800 0.000000 
#    z 0.000000 0.000000 1.542650 
# 
# From -- ./inp_files/29105.got.cif
#   From: 2010.05.17/outbox.cif.g08.bks.cpg/sg65_15_cif.got.tgz:29105.got - 2010.06.03 17:01:31.
