data_PCOD9483300
_publ_section_title
;
Structure prediction by ZEFSAII (Michael W. Deem and Ramdas Pophale) SiO2 
 PCOD9483300
Probable space group: C M M M
;
_chemical_formula_sum "Si O2"
_cell_formula_units_Z 120
_cell_length_a 20.711537
_cell_length_b 23.834082
_cell_length_c 13.275514
_cell_angle_alpha 90.000000
_cell_angle_beta 90.000000
_cell_angle_gamma 90.000000
_cell_volume 6553.330986
_symmetry_space_group_name_H-M "C M M M"
_symmetry_group_IT_number 65
_symmetry_cell_setting 'orthorhombic'
loop_
_space_group_symop_operation_xyz
x,y,z
-x,-y,z
x,-y,-z
-x,y,-z
-x,-y,-z
x,y,-z
-x,y,z
x,-y,z
1/2+x,1/2+y,z
1/2-x,1/2-y,z
1/2+x,1/2-y,-z
1/2-x,1/2+y,-z
1/2-x,1/2-y,-z
1/2+x,1/2+y,-z
1/2-x,1/2+y,z
1/2+x,1/2-y,z
loop_
_atom_site_type_symbol
_atom_site_label
_atom_site_fract_x
_atom_site_fract_y
_atom_site_fract_z
Si Si1 0.640753 0.566784 0.786884
Si Si2 0.097500 0.784186 0.887701
Si Si3 0.922326 0.436429 0.116550
Si Si4 0.072662 0.839409 0.320170
Si Si5 0.772585 0.147811 0.114931
Si Si6 0.172851 0.744127 0.616449
Si Si7 0.427868 0.567287 0.000000
Si Si8 0.634302 0.826656 0.804665
O O1 0.645125 0.500000 0.774688
O O2 0.600599 0.598164 0.699793
O O3 0.707713 0.599449 0.805542
O O4 0.606847 0.580328 0.895144
O O5 0.066866 0.814465 0.792753
O O6 0.172491 0.804274 0.880429
O O7 0.092625 0.718150 0.867713
O O8 0.075872 0.798725 0.000000
O O9 0.901468 0.500000 0.141226
O O10 0.894536 0.388354 0.187062
O O11 0.000000 0.435259 0.119696
O O12 0.902898 0.425062 0.000000
O O13 0.128441 0.800294 0.369589
O O14 0.000000 0.838459 0.364910
O O15 0.704012 0.171635 0.143651
O O16 0.771173 0.126107 0.000000
O O17 0.168301 0.727108 0.500000
O O18 0.250000 0.750000 0.639398
O O19 0.143465 0.699250 0.694024
O O20 0.431133 0.500000 0.000000
O O21 0.500000 0.589408 0.000000
#
# Coordination Sequence:
#
# PCOD9483300 Si02
#       8
#    16  16  16  16  16  16   8  16
#     4  10  19  31  45  68 107 151 186 217 250 294
#     4   9  18  30  44  69 108 145 170 206 259 317
#     4   9  19  35  52  75 113 154 183 207 244 302
#     4  10  21  34  52  80 108 137 178 225 269 314
#     4  10  18  28  44  71 110 145 177 217 260 308
#     4  10  22  42  63  80 103 135 171 220 288 351
#     4   9  16  26  40  58  87 136 185 209 229 272
#     4  11  19  31  54  79  98 131 180 223 264 318
#
# _framework density 18.311298000000001
#
# number of rings (size 3 to 8) (size 9 to 14) (size 15 to 20)
#    0.000    2.200    0.667    4.800    0.933    5.067 
#    0.000    0.000    0.000    0.800    0.000    3.733 
#    0.000    0.000    0.000    0.000    0.000    0.000 
#
# Total GULP energy -334488.563735 kJ/mol
# GULP energy per Si atom -5574.809396 kJ/mol
# Density = 1.826962 g / cm^3
# Si number density = 18.311298 Si / 1000 Ang^3
#
#
#
# Elastic Constant Matrix: (Units=GPa)
#
#
# Indices 1 2 3 4 5 6 
#
# 1 49.8434 24.9898 10.7855 0.0000 0.0000 0.0000
# 2 24.9898 127.9265 27.0372 0.0000 0.0000 0.0000
# 3 10.7855 27.0372 61.8795 0.0000 0.0000 0.0000
# 4 0.0000 0.0000 0.0000 16.0443 0.0000 0.0000
# 5 0.0000 0.0000 0.0000 0.0000 9.8802 0.0000
# 6 0.0000 0.0000 0.0000 0.0000 0.0000 11.4416
#
#
#
# Elastic Compliance Matrix: (Units=1/GPa)
#
#
# Indices 1 2 3 4 5 6 
#
# 1 0.022511 -0.003931 -0.002206 0.000000 0.000000 0.000000
# 2 -0.003931 0.009299 -0.003378 0.000000 0.000000 0.000000
# 3 -0.002206 -0.003378 0.018021 0.000000 0.000000 0.000000
# 4 0.000000 0.000000 0.000000 0.062327 0.000000 0.000000
# 5 0.000000 0.000000 0.000000 0.000000 0.101212 0.000000
# 6 0.000000 0.000000 0.000000 0.000000 0.000000 0.087401
#
#
# Mechanical properties :
#
#
# Convention : Reuss Voigt Hill
#
# Bulk Modulus (GPa) = 32.46665 40.58607 36.52636
# Shear Modulus (GPa) = 15.14840 19.26235 17.20538
#
# Velocity S-wave (km/s) = 2.87935 3.24688 3.06862
# Velocity P-wave (km/s) = 5.36872 6.02237 5.70491
#
# Compressibility (1/GPa) = 0.03080084
#
# Stress axis : x y z
#
# Youngs Moduli (GPa) = 44.42243 107.54060 55.49149
#
# Poissons Ratio (x) = 0.42276 0.12241
# Poissons Ratio (y) = 0.17463 0.18744
# Poissons Ratio (z) = 0.09800 0.36325
#
# Static dielectric constant tensor:
#      x y z
#    x 1.676420 0.000000 0.000000 
#    y 0.000000 1.656070 0.000000 
#    z 0.000000 0.000000 1.622210 
# 
# From -- ./inp_files/44787.got.cif
#   From: 2010.05.17/outbox.cif.g08.bks.cpg/sg65_23_cif.got.tgz:44787.got - 2010.06.03 17:01:31.
