data_PCOD9483906
_publ_section_title
;
Structure prediction by ZEFSAII (Michael W. Deem and Ramdas Pophale) SiO2 
 PCOD9483906
Probable space group: C M M M
;
_chemical_formula_sum "Si O2"
_cell_formula_units_Z 96
_cell_length_a 30.197356
_cell_length_b 7.584374
_cell_length_c 21.229568
_cell_angle_alpha 90.000000
_cell_angle_beta 90.000000
_cell_angle_gamma 90.000000
_cell_volume 4862.166385
_symmetry_space_group_name_H-M "C M M M"
_symmetry_group_IT_number 65
_symmetry_cell_setting 'orthorhombic'
loop_
_space_group_symop_operation_xyz
x,y,z
-x,-y,z
x,-y,-z
-x,y,-z
-x,-y,-z
x,y,-z
-x,y,z
x,-y,z
1/2+x,1/2+y,z
1/2-x,1/2-y,z
1/2+x,1/2-y,-z
1/2-x,1/2+y,-z
1/2-x,1/2-y,-z
1/2+x,1/2+y,-z
1/2-x,1/2+y,z
1/2+x,1/2-y,z
loop_
_atom_site_type_symbol
_atom_site_label
_atom_site_fract_x
_atom_site_fract_y
_atom_site_fract_z
Si Si1 0.449052 0.715841 0.309439
Si Si2 0.201261 0.211112 0.381358
Si Si3 0.701325 0.288671 0.763292
Si Si4 0.392812 0.715593 0.430511
Si Si5 0.391670 0.289395 0.190339
Si Si6 0.950172 0.711774 0.928955
O O1 0.500000 0.772217 0.307997
O O2 0.448878 0.500000 0.309049
O O3 0.423656 0.771649 0.372738
O O4 0.422220 0.776304 0.247847
O O5 0.250000 0.250000 0.407778
O O6 0.199632 0.278488 0.309051
O O7 0.157824 0.273244 0.417797
O O8 0.197699 0.000000 0.378626
O O9 0.698211 0.500000 0.759676
O O10 0.750000 0.250000 0.789578
O O11 0.658496 0.222796 0.800842
O O12 0.407387 0.771811 0.500000
O O13 0.393111 0.500000 0.429988
O O14 0.389835 0.500000 0.197836
O O15 0.414789 0.256500 0.123940
O O16 0.952081 0.500000 0.931462
O O17 0.000000 0.774641 0.912097
O O18 0.939977 0.774415 0.000000
#
# Coordination Sequence:
#
# PCOD9483906 Si02
#       6
#    16  16  16  16  16  16
#     4   9  16  26  41  63  91 121 155 196 239 280
#     4   9  16  28  44  63  89 119 152 192 238 284
#     4   9  17  29  46  68  96 125 156 196 241 286
#     4   9  16  26  40  59  87 123 158 193 236 283
#     4  10  18  30  50  75  99 125 159 201 243 281
#     4   9  19  35  52  73 104 136 161 189 230 280
#
# _framework density 19.744285000000001
#
# number of rings (size 3 to 8) (size 9 to 14) (size 15 to 20)
#    0.000    2.833    1.667    1.000    0.000    2.667 
#    0.000    2.500    0.000    0.500    0.000    0.000 
#    0.000    0.000    0.000    5.000    0.000    5.000 
#
# Total GULP energy -267746.065055 kJ/mol
# GULP energy per Si atom -5578.043022 kJ/mol
# Density = 1.969935 g / cm^3
# Si number density = 19.744285 Si / 1000 Ang^3
#
#
#
# Elastic Constant Matrix: (Units=GPa)
#
#
# Indices 1 2 3 4 5 6 
#
# 1 172.0982 6.4007 92.1438 0.0000 0.0000 0.0000
# 2 6.4007 40.5532 2.0649 0.0000 0.0000 0.0000
# 3 92.1438 2.0649 122.0239 0.0000 0.0000 0.0000
# 4 0.0000 0.0000 0.0000 -99.2018 0.0000 0.0000
# 5 0.0000 0.0000 0.0000 0.0000 20.4073 0.0000
# 6 0.0000 0.0000 0.0000 0.0000 0.0000 16.1332
#
#
#
# Elastic Compliance Matrix: (Units=1/GPa)
#
#
# Indices 1 2 3 4 5 6 
#
# 1 0.009810 -0.001172 -0.007388 0.000000 0.000000 0.000000
# 2 -0.001172 0.024820 0.000465 0.000000 0.000000 0.000000
# 3 -0.007388 0.000465 0.013766 0.000000 0.000000 0.000000
# 4 0.000000 0.000000 0.000000 -0.010080 0.000000 0.000000
# 5 0.000000 0.000000 0.000000 0.000000 0.049002 0.000000
# 6 0.000000 0.000000 0.000000 0.000000 0.000000 0.061984
#
#
# Mechanical properties :
#
#
# Convention : Reuss Voigt Hill
#
# Bulk Modulus (GPa) = 31.04973 59.54376 45.29675
# Shear Modulus (GPa) = 28.37252 3.07213 15.72233
#
# Velocity S-wave (km/s) = 3.79489 1.24873 2.82494
# Velocity P-wave (km/s) = 5.91284 5.68349 5.79930
#
# Compressibility (1/GPa) = 0.03220639
#
# Stress axis : x y z
#
# Youngs Moduli (GPa) = 101.93926 40.28960 72.64276
#
# Poissons Ratio (x) = 0.04723 0.53667
# Poissons Ratio (y) = 0.11949 -0.03379
# Poissons Ratio (z) = 0.75311 -0.01874
#
# Static dielectric constant tensor:
#      x y z
#    x 1.703320 0.000000 0.000000 
#    y 0.000000 1.764650 0.000000 
#    z 0.000000 0.000000 1.672950 
# 
# From -- ./inp_files/51664.got.cif
#   From: 2010.05.17/outbox.cif.g08.bks.cpg/sg65_26_cif.got.tgz:51664.got - 2010.06.03 17:01:31.
