data_PCOD9483304
_publ_section_title
;
Structure prediction by ZEFSAII (Michael W. Deem and Ramdas Pophale) SiO2 
 PCOD9483304
Probable space group: C M M M
;
_chemical_formula_sum "Si O2"
_cell_formula_units_Z 80
_cell_length_a 24.285870
_cell_length_b 26.656332
_cell_length_c 8.843598
_cell_angle_alpha 90.000000
_cell_angle_beta 90.000000
_cell_angle_gamma 90.000000
_cell_volume 5725.099614
_symmetry_space_group_name_H-M "C M M M"
_symmetry_group_IT_number 65
_symmetry_cell_setting 'orthorhombic'
loop_
_space_group_symop_operation_xyz
x,y,z
-x,-y,z
x,-y,-z
-x,y,-z
-x,-y,-z
x,y,-z
-x,y,z
x,-y,z
1/2+x,1/2+y,z
1/2-x,1/2-y,z
1/2+x,1/2-y,-z
1/2-x,1/2+y,-z
1/2-x,1/2-y,-z
1/2+x,1/2+y,-z
1/2-x,1/2+y,z
1/2+x,1/2-y,z
loop_
_atom_site_type_symbol
_atom_site_label
_atom_site_fract_x
_atom_site_fract_y
_atom_site_fract_z
Si Si1 0.217622 0.196646 0.825235
Si Si2 0.607193 0.057871 0.680959
Si Si3 0.115053 0.257053 0.182108
Si Si4 0.500000 0.220016 0.319287
Si Si5 0.000000 0.391569 0.179838
Si Si6 0.181909 0.349837 0.320856
O O1 0.250000 0.250000 0.821373
O O2 0.156418 0.211784 0.774006
O O3 0.255474 0.159319 0.730556
O O4 0.216023 0.180431 0.000000
O O5 0.596279 0.060961 0.500000
O O6 0.553819 0.078316 0.767196
O O7 0.657465 0.095510 0.713591
O O8 0.618133 0.000000 0.718494
O O9 0.055210 0.254778 0.255101
O O10 0.143947 0.308571 0.237407
O O11 0.111796 0.258137 0.000000
O O12 0.500000 0.219938 0.500000
O O13 0.500000 0.162653 0.259693
O O14 0.000000 0.384497 0.000000
O O15 0.177207 0.341011 0.500000
#
# Coordination Sequence:
#
# PCOD9483304 Si02
#       6
#    16  16  16   8   8  16
#     4   8  16  29  44  61  83 108 134 168 213 256
#     4  10  21  35  47  60  83 114 146 184 226 260
#     4  10  19  31  45  62  84 111 139 172 213 257
#     4  12  22  31  45  64  86 113 143 179 218 255
#     4  12  23  33  46  61  80 110 148 189 225 259
#     4  10  18  28  45  64  82 108 142 178 214 254
#
# _framework density 13.973557
#
# number of rings (size 3 to 8) (size 9 to 14) (size 15 to 20)
#    0.000    2.000    2.000    4.500    0.000    6.800 
#    0.000    0.000    0.000    0.000    0.000    0.000 
#    0.000    0.000    0.000    0.900    0.000   18.200 
#
# Total GULP energy -223057.371219 kJ/mol
# GULP energy per Si atom -5576.434280 kJ/mol
# Density = 1.394175 g / cm^3
# Si number density = 13.973557 Si / 1000 Ang^3
#
#
#
# Elastic Constant Matrix: (Units=GPa)
#
#
# Indices 1 2 3 4 5 6 
#
# 1 127.1980 57.8911 53.6064 0.0000 0.0000 0.0000
# 2 57.8911 54.9182 37.7324 0.0000 0.0000 0.0000
# 3 53.6064 37.7324 63.4095 0.0000 0.0000 0.0000
# 4 0.0000 0.0000 0.0000 857.1937 0.0000 0.0000
# 5 0.0000 0.0000 0.0000 0.0000 24.5681 0.0000
# 6 0.0000 0.0000 0.0000 0.0000 0.0000 9.0427
#
#
#
# Elastic Compliance Matrix: (Units=1/GPa)
#
#
# Indices 1 2 3 4 5 6 
#
# 1 0.016375 -0.013110 -0.006042 0.000000 0.000000 0.000000
# 2 -0.013110 0.041298 -0.013492 0.000000 0.000000 0.000000
# 3 -0.006042 -0.013492 0.028907 0.000000 0.000000 0.000000
# 4 0.000000 0.000000 0.000000 0.001167 0.000000 0.000000
# 5 0.000000 0.000000 0.000000 0.000000 0.040703 0.000000
# 6 0.000000 0.000000 0.000000 0.000000 0.000000 0.110587
#
#
# Mechanical properties :
#
#
# Convention : Reuss Voigt Hill
#
# Bulk Modulus (GPa) = 46.96514 60.44282 53.70398
# Shear Modulus (GPa) = 16.05541 184.58062 100.31801
#
# Velocity S-wave (km/s) = 3.39335 11.50563 8.48217
# Velocity P-wave (km/s) = 7.00257 14.82751 11.59507
#
# Compressibility (1/GPa) = 0.02129239
#
# Stress axis : x y z
#
# Youngs Moduli (GPa) = 61.06945 24.21409 34.59386
#
# Poissons Ratio (x) = 0.31744 0.20902
# Poissons Ratio (y) = 0.80062 0.46673
# Poissons Ratio (z) = 0.36899 0.32669
#
# Static dielectric constant tensor:
#      x y z
#    x 1.475630 0.000000 0.000000 
#    y 0.000000 1.438050 0.000000 
#    z 0.000000 0.000000 1.470360 
# 
# From -- ./inp_files/12119.got.cif
#   From: 2010.05.17/outbox.cif.g08.bks.cpg/sg65_7_cif.got.tgz:12119.got - 2010.06.03 17:01:31.
