data_PCOD9483190
_publ_section_title
;
Structure prediction by ZEFSAII (Michael W. Deem and Ramdas Pophale) SiO2 
 PCOD9483190
Probable space group: C M M M
;
_chemical_formula_sum "Si O2"
_cell_formula_units_Z 64
_cell_length_a 38.993229
_cell_length_b 7.495904
_cell_length_c 13.274118
_cell_angle_alpha 90.000000
_cell_angle_beta 90.000000
_cell_angle_gamma 90.000000
_cell_volume 3879.885330
_symmetry_space_group_name_H-M "C M M M"
_symmetry_group_IT_number 65
_symmetry_cell_setting 'orthorhombic'
loop_
_space_group_symop_operation_xyz
x,y,z
-x,-y,z
x,-y,-z
-x,y,-z
-x,-y,-z
x,y,-z
-x,y,z
x,-y,z
1/2+x,1/2+y,z
1/2-x,1/2-y,z
1/2+x,1/2-y,-z
1/2-x,1/2+y,-z
1/2-x,1/2-y,-z
1/2+x,1/2+y,-z
1/2-x,1/2+y,z
1/2+x,1/2-y,z
loop_
_atom_site_type_symbol
_atom_site_label
_atom_site_fract_x
_atom_site_fract_y
_atom_site_fract_z
Si Si1 0.668200 0.218239 0.195676
Si Si2 0.709722 0.786595 0.000000
Si Si3 0.038954 0.000000 0.122167
Si Si4 0.905865 0.289661 0.120496
Si Si5 0.710370 0.786233 0.613504
O O1 0.691075 0.279243 0.100948
O O2 0.628839 0.268016 0.176508
O O3 0.685102 0.280074 0.299728
O O4 0.668855 0.000000 0.195551
O O5 0.750000 0.750000 0.000000
O O6 0.705306 0.000000 0.000000
O O7 0.061510 0.172159 0.150194
O O8 0.000000 0.000000 0.160120
O O9 0.037165 0.000000 0.000000
O O10 0.911568 0.500000 0.137456
O O11 0.899927 0.266241 0.000000
O O12 0.704519 0.716859 0.500000
O O13 0.750000 0.750000 0.640588
O O14 0.706503 0.000000 0.609631
#
# Coordination Sequence:
#
# PCOD9483190 Si02
#       5
#    16   8   8  16  16
#     4   9  16  28  43  57  82 114 146 182 221 270
#     4  10  18  28  38  56  82 109 143 182 218 261
#     4   9  18  30  44  68  97 119 151 187 214 273
#     4   9  16  29  46  63  88 123 151 179 228 270
#     4   9  17  29  43  58  80 111 147 190 234 269
#
# _framework density 16.495332999999999
#
# number of rings (size 3 to 8) (size 9 to 14) (size 15 to 20)
#    0.000    2.875    1.250    0.750    0.000    0.500 
#    4.500    2.500    0.000    0.000    0.000    0.000 
#    0.000    2.000    0.000    9.750    0.000    0.250 
#
# Total GULP energy -178428.972924 kJ/mol
# GULP energy per Si atom -5575.905404 kJ/mol
# Density = 1.645779 g / cm^3
# Si number density = 16.495333 Si / 1000 Ang^3
#
#
#
# Elastic Constant Matrix: (Units=GPa)
#
#
# Indices 1 2 3 4 5 6 
#
# 1 173.8707 41.1284 75.2585 0.0000 0.0000 0.0000
# 2 41.1284 57.0830 25.9570 0.0000 0.0000 0.0000
# 3 75.2585 25.9570 79.6521 0.0000 0.0000 0.0000
# 4 0.0000 0.0000 0.0000 -1.5799 0.0000 0.0000
# 5 0.0000 0.0000 0.0000 0.0000 11.9448 0.0000
# 6 0.0000 0.0000 0.0000 0.0000 0.0000 23.3165
#
#
#
# Elastic Compliance Matrix: (Units=1/GPa)
#
#
# Indices 1 2 3 4 5 6 
#
# 1 0.010299 -0.003517 -0.008585 0.000000 0.000000 0.000000
# 2 -0.003517 0.021767 -0.003771 0.000000 0.000000 0.000000
# 3 -0.008585 -0.003771 0.021895 0.000000 0.000000 0.000000
# 4 0.000000 0.000000 0.000000 -0.632965 0.000000 0.000000
# 5 0.000000 0.000000 0.000000 0.000000 0.083718 0.000000
# 6 0.000000 0.000000 0.000000 0.000000 0.000000 0.042888
#
#
# Mechanical properties :
#
#
# Convention : Reuss Voigt Hill
#
# Bulk Modulus (GPa) = 45.01251 66.14371 55.57811
# Shear Modulus (GPa) = -12.09930 17.95375 2.92722
#
# Velocity S-wave (km/s) = -2.71126 3.30269 1.33358
# Velocity P-wave (km/s) = 4.18880 7.39792 6.01146
#
# Compressibility (1/GPa) = 0.02221605
#
# Stress axis : x y z
#
# Youngs Moduli (GPa) = 97.09417 45.94158 45.67271
#
# Poissons Ratio (x) = 0.16157 0.39211
# Poissons Ratio (y) = 0.34146 0.17221
# Poissons Ratio (z) = 0.83357 0.17323
#
# Static dielectric constant tensor:
#      x y z
#    x 1.529410 0.000000 0.000000 
#    y 0.000000 1.603250 0.000000 
#    z 0.000000 0.000000 1.552680 
# 
# From -- ./inp_files/46392.got.cif
#   From: 2010.05.17/outbox.cif.g08.bks.cpg/sg65_24_cif.got.tgz:46392.got - 2010.06.03 17:01:31.
