data_PCOD9483296
_publ_section_title
;
Structure prediction by ZEFSAII (Michael W. Deem and Ramdas Pophale) SiO2 
 PCOD9483296
Probable space group: C M M M
;
_chemical_formula_sum "Si O2"
_cell_formula_units_Z 96
_cell_length_a 30.491370
_cell_length_b 20.014983
_cell_length_c 7.286147
_cell_angle_alpha 90.000000
_cell_angle_beta 90.000000
_cell_angle_gamma 90.000000
_cell_volume 4446.620773
_symmetry_space_group_name_H-M "C M M M"
_symmetry_group_IT_number 65
_symmetry_cell_setting 'orthorhombic'
loop_
_space_group_symop_operation_xyz
x,y,z
-x,-y,z
x,-y,-z
-x,y,-z
-x,-y,-z
x,y,-z
-x,y,z
x,-y,z
1/2+x,1/2+y,z
1/2-x,1/2-y,z
1/2+x,1/2-y,-z
1/2-x,1/2+y,-z
1/2-x,1/2-y,-z
1/2+x,1/2+y,-z
1/2-x,1/2+y,z
1/2+x,1/2-y,z
loop_
_atom_site_type_symbol
_atom_site_label
_atom_site_fract_x
_atom_site_fract_y
_atom_site_fract_z
Si Si1 0.123263 0.673706 0.792345
Si Si2 0.873414 0.822819 0.776061
Si Si3 0.772440 0.820450 0.222597
Si Si4 0.950249 0.077396 0.776688
Si Si5 0.050667 0.572834 0.278771
Si Si6 0.198838 0.576479 0.223977
O O1 0.116585 0.747061 0.714828
O O2 0.078543 0.633193 0.794638
O O3 0.158745 0.622950 0.710689
O O4 0.139470 0.685945 0.000000
O O5 0.822658 0.832093 0.720428
O O6 0.910694 0.874774 0.714581
O O7 0.874562 0.826311 0.000000
O O8 0.750000 0.750000 0.282137
O O9 0.742265 0.882826 0.275587
O O10 0.772687 0.817428 0.000000
O O11 0.000000 0.097260 0.720917
O O12 0.943420 0.000000 0.722826
O O13 0.950148 0.078623 0.000000
O O14 0.052372 0.574953 0.500000
O O15 0.068336 0.500000 0.220972
O O16 0.000000 0.576505 0.225215
O O17 0.196837 0.500000 0.286627
O O18 0.197135 0.574009 0.000000
#
# Coordination Sequence:
#
# PCOD9483296 Si02
#       6
#    16  16  16  16  16  16
#     4  10  18  28  44  68  94 117 143 184 232 273
#     4   9  16  24  38  59  84 115 149 182 222 270
#     4   9  14  23  35  49  77 115 145 172 213 261
#     4   8  14  24  35  48  73 110 147 182 220 263
#     4   9  19  35  50  63  85 119 154 186 221 263
#     4   9  16  24  36  57  84 113 146 184 223 263
#
# _framework density 21.589428000000002
#
# number of rings (size 3 to 8) (size 9 to 14) (size 15 to 20)
#    0.000    3.000    1.667    1.500    0.000    2.667 
#    0.000    5.833    0.000    0.000    0.000    2.333 
#    0.000    0.667    0.000    3.667    0.000    3.000 
#
# Total GULP energy -267841.570379 kJ/mol
# GULP energy per Si atom -5580.032716 kJ/mol
# Density = 2.154029 g / cm^3
# Si number density = 21.589428 Si / 1000 Ang^3
#
#
#
# Elastic Constant Matrix: (Units=GPa)
#
#
# Indices 1 2 3 4 5 6 
#
# 1 169.2088 121.2915 3.3807 0.0000 0.0000 0.0000
# 2 121.2915 189.3377 7.1160 0.0000 0.0000 0.0000
# 3 3.3807 7.1160 88.9088 0.0000 0.0000 0.0000
# 4 0.0000 0.0000 0.0000 -6.0759 0.0000 0.0000
# 5 0.0000 0.0000 0.0000 0.0000 1.6574 0.0000
# 6 0.0000 0.0000 0.0000 0.0000 0.0000 46.8987
#
#
#
# Elastic Compliance Matrix: (Units=1/GPa)
#
#
# Indices 1 2 3 4 5 6 
#
# 1 0.010930 -0.007007 0.000145 0.000000 0.000000 0.000000
# 2 -0.007007 0.009790 -0.000517 0.000000 0.000000 0.000000
# 3 0.000145 -0.000517 0.011283 0.000000 0.000000 0.000000
# 4 0.000000 0.000000 0.000000 -0.164584 0.000000 0.000000
# 5 0.000000 0.000000 0.000000 0.000000 0.603339 0.000000
# 6 0.000000 0.000000 0.000000 0.000000 0.000000 0.021323
#
#
# Mechanical properties :
#
#
# Convention : Reuss Voigt Hill
#
# Bulk Modulus (GPa) = 57.98814 79.00352 68.49583
# Shear Modulus (GPa) = 9.75443 29.54052 19.64748
#
# Velocity S-wave (km/s) = 2.12790 3.70305 3.01998
# Velocity P-wave (km/s) = 5.74065 7.41326 6.62992
#
# Compressibility (1/GPa) = 0.01724490
#
# Stress axis : x y z
#
# Youngs Moduli (GPa) = 91.49271 102.14622 88.62616
#
# Poissons Ratio (x) = 0.71576 -0.01287
# Poissons Ratio (y) = 0.64111 0.04583
# Poissons Ratio (z) = -0.01329 0.05282
#
# Static dielectric constant tensor:
#      x y z
#    x 1.757700 0.000000 0.000000 
#    y 0.000000 1.743980 0.000000 
#    z 0.000000 0.000000 1.849100 
# 
# From -- ./inp_files/12208.got.cif
#   From: 2010.05.17/outbox.cif.g08.bks.cpg/sg65_7_cif.got.tgz:12208.got - 2010.06.03 17:01:31.
