data_PCOD9483540
_publ_section_title
;
Structure prediction by ZEFSAII (Michael W. Deem and Ramdas Pophale) SiO2 
 PCOD9483540
Probable space group: C M M M
;
_chemical_formula_sum "Si O2"
_cell_formula_units_Z 120
_cell_length_a 14.723235
_cell_length_b 22.064761
_cell_length_c 21.059869
_cell_angle_alpha 90.000000
_cell_angle_beta 90.000000
_cell_angle_gamma 90.000000
_cell_volume 6841.607212
_symmetry_space_group_name_H-M "C M M M"
_symmetry_group_IT_number 65
_symmetry_cell_setting 'orthorhombic'
loop_
_space_group_symop_operation_xyz
x,y,z
-x,-y,z
x,-y,-z
-x,y,-z
-x,-y,-z
x,y,-z
-x,y,z
x,-y,z
1/2+x,1/2+y,z
1/2-x,1/2-y,z
1/2+x,1/2-y,-z
1/2-x,1/2+y,-z
1/2-x,1/2-y,-z
1/2+x,1/2+y,-z
1/2-x,1/2+y,z
1/2+x,1/2-y,z
loop_
_atom_site_type_symbol
_atom_site_label
_atom_site_fract_x
_atom_site_fract_y
_atom_site_fract_z
Si Si1 0.800424 0.127401 0.073221
Si Si2 0.102540 0.647050 0.879266
Si Si3 0.390748 0.067698 0.755188
Si Si4 0.606043 0.846992 0.359048
Si Si5 0.729664 0.678165 0.431179
Si Si6 0.102476 0.205970 0.680637
Si Si7 0.850234 0.774720 0.822768
Si Si8 0.394007 0.500000 0.076627
O O1 0.690834 0.137069 0.076954
O O2 0.842665 0.175576 0.122084
O O3 0.837276 0.060832 0.092678
O O4 0.828265 0.138158 0.000000
O O5 0.124083 0.602895 0.820304
O O6 0.101084 0.715158 0.850761
O O7 0.000000 0.633786 0.903784
O O8 0.500000 0.063913 0.749305
O O9 0.361468 0.108055 0.696052
O O10 0.352980 0.000000 0.755548
O O11 0.500000 0.857355 0.373632
O O12 0.673475 0.852341 0.417819
O O13 0.613688 0.778313 0.332243
O O14 0.690880 0.660192 0.500000
O O15 0.750000 0.750000 0.434628
O O16 0.668748 0.671851 0.368072
O O17 0.114698 0.199026 0.756185
O O18 0.000000 0.189847 0.663428
O O19 0.750000 0.750000 0.807887
O O20 0.500000 0.500000 0.099444
O O21 0.399070 0.500000 0.000000
#
# Coordination Sequence:
#
# PCOD9483540 Si02
#       8
#    16  16  16  16  16  16  16   8
#     4  10  23  39  56  80 107 140 182 226 273 327
#     4  10  20  33  53  81 113 144 175 216 271 333
#     4   9  17  29  47  73 104 138 175 209 250 308
#     4   9  16  28  48  69  98 135 170 206 247 300
#     4   9  18  29  43  67  99 131 165 204 252 308
#     4  10  18  29  47  71 100 132 169 210 256 309
#     4  10  19  32  54  77 106 143 180 223 270 323
#     4   9  20  42  63  75  97 137 183 227 273 324
#
# _framework density 17.539736999999999
#
# number of rings (size 3 to 8) (size 9 to 14) (size 15 to 20)
#    0.000    2.467    1.333    1.600    2.800    4.267 
#    0.000    2.667    0.000    1.600    0.000    1.867 
#    0.000    0.000    0.000    1.200    0.000    1.333 
#
# Total GULP energy -334018.460029 kJ/mol
# GULP energy per Si atom -5566.974334 kJ/mol
# Density = 1.749982 g / cm^3
# Si number density = 17.539737 Si / 1000 Ang^3
#
#
#
# Elastic Constant Matrix: (Units=GPa)
#
#
# Indices 1 2 3 4 5 6 
#
# 1 76.4125 31.8539 35.6385 0.0000 0.0000 0.0000
# 2 31.8539 54.7630 32.2812 0.0000 0.0000 0.0000
# 3 35.6385 32.2812 94.6554 0.0000 0.0000 0.0000
# 4 0.0000 0.0000 0.0000 4.3956 0.0000 0.0000
# 5 0.0000 0.0000 0.0000 0.0000 1.8446 0.0000
# 6 0.0000 0.0000 0.0000 0.0000 0.0000 14.8100
#
#
#
# Elastic Compliance Matrix: (Units=1/GPa)
#
#
# Indices 1 2 3 4 5 6 
#
# 1 0.018476 -0.008319 -0.004119 0.000000 0.000000 0.000000
# 2 -0.008319 0.026600 -0.005940 0.000000 0.000000 0.000000
# 3 -0.004119 -0.005940 0.014141 0.000000 0.000000 0.000000
# 4 0.000000 0.000000 0.000000 0.227502 0.000000 0.000000
# 5 0.000000 0.000000 0.000000 0.000000 0.542136 0.000000
# 6 0.000000 0.000000 0.000000 0.000000 0.000000 0.067522
#
#
# Mechanical properties :
#
#
# Convention : Reuss Voigt Hill
#
# Bulk Modulus (GPa) = 44.51923 47.26424 45.89174
# Shear Modulus (GPa) = 5.31564 12.61384 8.96474
#
# Velocity S-wave (km/s) = 1.74276 2.68462 2.26323
# Velocity P-wave (km/s) = 5.43016 6.05104 5.74899
#
# Compressibility (1/GPa) = 0.02246220
#
# Stress axis : x y z
#
# Youngs Moduli (GPa) = 54.12468 37.59330 70.71479
#
# Poissons Ratio (x) = 0.31272 0.29130
# Poissons Ratio (y) = 0.45024 0.42003
# Poissons Ratio (z) = 0.22296 0.22330
#
# Static dielectric constant tensor:
#      x y z
#    x 1.645230 0.000000 0.000000 
#    y 0.000000 1.594380 0.000000 
#    z 0.000000 0.000000 1.608570 
# 
# From -- ./inp_files/63015.got.cif
#   From: 2010.05.17/outbox.cif.g08.bks.cpg/sg65_32_cif.got.tgz:63015.got - 2010.06.03 17:01:31.
