data_PCOD9483668
_publ_section_title
;
Structure prediction by ZEFSAII (Michael W. Deem and Ramdas Pophale) SiO2 
 PCOD9483668
Probable space group: C M M M
;
_chemical_formula_sum "Si O2"
_cell_formula_units_Z 128
_cell_length_a 18.113127
_cell_length_b 21.499964
_cell_length_c 21.208944
_cell_angle_alpha 90.000000
_cell_angle_beta 90.000000
_cell_angle_gamma 90.000000
_cell_volume 8259.432539
_symmetry_space_group_name_H-M "C M M M"
_symmetry_group_IT_number 65
_symmetry_cell_setting 'orthorhombic'
loop_
_space_group_symop_operation_xyz
x,y,z
-x,-y,z
x,-y,-z
-x,y,-z
-x,-y,-z
x,y,-z
-x,y,z
x,-y,z
1/2+x,1/2+y,z
1/2-x,1/2-y,z
1/2+x,1/2-y,-z
1/2-x,1/2+y,-z
1/2-x,1/2-y,-z
1/2+x,1/2+y,-z
1/2-x,1/2+y,z
1/2+x,1/2-y,z
loop_
_atom_site_type_symbol
_atom_site_label
_atom_site_fract_x
_atom_site_fract_y
_atom_site_fract_z
Si Si1 0.819457 0.925837 0.309395
Si Si2 0.916092 0.075408 0.571776
Si Si3 0.918297 0.073034 0.812852
Si Si4 0.083973 0.650416 0.174427
Si Si5 0.698496 0.648805 0.112281
Si Si6 0.418060 0.255932 0.931194
Si Si7 0.272325 0.181047 0.754679
Si Si8 0.837691 0.572678 0.929209
O O1 0.855915 0.908057 0.376041
O O2 0.883061 0.919522 0.256284
O O3 0.758394 0.876016 0.287428
O O4 0.797654 0.000000 0.309719
O O5 0.899632 0.095265 0.500000
O O6 0.000000 0.095755 0.587754
O O7 0.917810 0.000000 0.571814
O O8 0.862798 0.100974 0.863163
O O9 0.000000 0.101013 0.815499
O O10 0.923288 0.000000 0.824088
O O11 0.085165 0.707875 0.125570
O O12 0.142004 0.667723 0.229097
O O13 0.112041 0.594291 0.129509
O O14 0.000000 0.640552 0.195885
O O15 0.651896 0.699571 0.075053
O O16 0.733170 0.676449 0.176516
O O17 0.764201 0.614614 0.076335
O O18 0.500000 0.286627 0.927990
O O19 0.414490 0.224939 0.000000
O O20 0.250000 0.250000 0.730297
O O21 0.818888 0.500000 0.921679
O O22 0.869725 0.580081 0.000000
#
# Coordination Sequence:
#
# PCOD9483668 Si02
#       8
#    16  16  16  16  16  16  16  16
#     4   9  17  28  45  68  97 128 163 198 228 267
#     4   8  13  23  42  71 107 141 168 193 222 260
#     4   9  16  25  39  61  89 120 151 180 213 257
#     4  10  21  36  51  66  86 111 144 188 237 288
#     4  10  18  30  46  61  86 114 146 180 224 276
#     4  10  19  30  46  67  87 109 141 184 233 285
#     4  10  19  33  48  68  92 122 154 190 235 284
#     4  10  21  34  48  65  83 107 142 185 237 293
#
# _framework density 15.497432999999999
#
# number of rings (size 3 to 8) (size 9 to 14) (size 15 to 20)
#    0.000    2.500    1.250    2.250    0.000    5.500 
#    0.000    3.125    0.000    0.375    0.000    5.250 
#    0.000    0.500    0.000    3.125    0.000    0.000 
#
# Total GULP energy -356324.581010 kJ/mol
# GULP energy per Si atom -5567.571578 kJ/mol
# Density = 1.546216 g / cm^3
# Si number density = 15.497433 Si / 1000 Ang^3
#
#
#
# Elastic Constant Matrix: (Units=GPa)
#
#
# Indices 1 2 3 4 5 6 
#
# 1 96.2861 31.0497 26.7679 0.0000 0.0000 0.0000
# 2 31.0497 60.6874 20.9450 0.0000 0.0000 0.0000
# 3 26.7679 20.9450 60.6126 0.0000 0.0000 0.0000
# 4 0.0000 0.0000 0.0000 12.4265 0.0000 0.0000
# 5 0.0000 0.0000 0.0000 0.0000 16.6918 0.0000
# 6 0.0000 0.0000 0.0000 0.0000 0.0000 19.6705
#
#
#
# Elastic Compliance Matrix: (Units=1/GPa)
#
#
# Indices 1 2 3 4 5 6 
#
# 1 0.013232 -0.005397 -0.003979 0.000000 0.000000 0.000000
# 2 -0.005397 0.020910 -0.004842 0.000000 0.000000 0.000000
# 3 -0.003979 -0.004842 0.019929 0.000000 0.000000 0.000000
# 4 0.000000 0.000000 0.000000 0.080473 0.000000 0.000000
# 5 0.000000 0.000000 0.000000 0.000000 0.059909 0.000000
# 6 0.000000 0.000000 0.000000 0.000000 0.000000 0.050837
#
#
# Mechanical properties :
#
#
# Convention : Reuss Voigt Hill
#
# Bulk Modulus (GPa) = 39.00866 41.67905 40.34385
# Shear Modulus (GPa) = 17.71341 19.01268 18.36305
#
# Velocity S-wave (km/s) = 3.38448 3.50641 3.44598
# Velocity P-wave (km/s) = 6.36385 6.58375 6.47474
#
# Compressibility (1/GPa) = 0.02563534
#
# Stress axis : x y z
#
# Youngs Moduli (GPa) = 75.57355 47.82327 50.17914
#
# Poissons Ratio (x) = 0.25809 0.19965
# Poissons Ratio (y) = 0.40786 0.24298
# Poissons Ratio (z) = 0.30068 0.23158
#
# Static dielectric constant tensor:
#      x y z
#    x 1.545580 0.000000 0.000000 
#    y 0.000000 1.537700 0.000000 
#    z 0.000000 0.000000 1.507660 
# 
# From -- ./inp_files/64124.got.cif
#   From: 2010.05.17/outbox.cif.g08.bks.cpg/sg65_33_cif.got.tgz:64124.got - 2010.06.03 17:01:31.
