data_PCOD9483199
_publ_section_title
;
Structure prediction by ZEFSAII (Michael W. Deem and Ramdas Pophale) SiO2 
 PCOD9483199
Probable space group: C M M M
;
_chemical_formula_sum "Si O2"
_cell_formula_units_Z 88
_cell_length_a 7.332166
_cell_length_b 28.206875
_cell_length_c 22.225206
_cell_angle_alpha 90.000000
_cell_angle_beta 90.000000
_cell_angle_gamma 90.000000
_cell_volume 4596.561316
_symmetry_space_group_name_H-M "C M M M"
_symmetry_group_IT_number 65
_symmetry_cell_setting 'orthorhombic'
loop_
_space_group_symop_operation_xyz
x,y,z
-x,-y,z
x,-y,-z
-x,y,-z
-x,-y,-z
x,y,-z
-x,y,z
x,-y,z
1/2+x,1/2+y,z
1/2-x,1/2-y,z
1/2+x,1/2-y,-z
1/2-x,1/2+y,-z
1/2-x,1/2-y,-z
1/2+x,1/2+y,-z
1/2-x,1/2+y,z
1/2+x,1/2-y,z
loop_
_atom_site_type_symbol
_atom_site_label
_atom_site_fract_x
_atom_site_fract_y
_atom_site_fract_z
Si Si1 0.777320 0.851205 0.375485
Si Si2 0.278225 0.446698 0.687896
Si Si3 0.222006 0.944900 0.933294
Si Si4 0.782202 0.806299 0.500000
Si Si5 0.216747 0.804186 0.253009
Si Si6 0.777615 0.896920 0.188507
O O1 0.722365 0.904696 0.357425
O O2 0.713519 0.830995 0.439046
O O3 0.717325 0.817896 0.319929
O O4 0.000000 0.850785 0.376534
O O5 0.500000 0.447062 0.687132
O O6 0.216829 0.500000 0.674386
O O7 0.225349 0.430492 0.755354
O O8 0.285158 0.915269 0.875977
O O9 0.000000 0.943837 0.933012
O O10 0.273875 0.000000 0.926182
O O11 0.279796 0.928882 0.000000
O O12 0.750000 0.750000 0.500000
O O13 0.000000 0.812687 0.500000
O O14 0.250000 0.750000 0.237430
O O15 0.282998 0.844124 0.206748
O O16 0.000000 0.810403 0.255376
O O17 0.000000 0.897621 0.186952
#
# Coordination Sequence:
#
# PCOD9483199 Si02
#       6
#    16  16  16   8  16  16
#     4   8  15  25  36  53  75  97 120 149 184 217
#     4   8  12  19  32  49  71  97 120 142 175 221
#     4   8  12  17  27  46  72  98 120 143 176 218
#     4  10  18  28  41  55  75  99 122 152 187 218
#     4   9  16  26  39  54  73  96 123 153 183 214
#     4   8  13  20  31  48  70  96 122 148 179 214
#
# _framework density 19.144746000000001
#
# number of rings (size 3 to 8) (size 9 to 14) (size 15 to 20)
#    0.000    3.636    0.000    3.818    0.000    2.182 
#    0.000    0.455    0.000    3.273    0.000    0.000 
#    0.000   25.455    0.000    2.000    0.000    1.818 
#
# Total GULP energy -245284.930889 kJ/mol
# GULP energy per Si atom -5574.657520 kJ/mol
# Density = 1.910117 g / cm^3
# Si number density = 19.144746 Si / 1000 Ang^3
#
#
#
# Elastic Constant Matrix: (Units=GPa)
#
#
# Indices 1 2 3 4 5 6 
#
# 1 72.3861 -0.0574 7.9810 0.0000 0.0000 0.0000
# 2 -0.0574 163.1890 108.8391 0.0000 0.0000 0.0000
# 3 7.9810 108.8391 194.8104 0.0000 0.0000 0.0000
# 4 0.0000 0.0000 0.0000 23.0949 0.0000 0.0000
# 5 0.0000 0.0000 0.0000 0.0000 -17.1482 0.0000
# 6 0.0000 0.0000 0.0000 0.0000 0.0000 6.8205
#
#
#
# Elastic Compliance Matrix: (Units=1/GPa)
#
#
# Indices 1 2 3 4 5 6 
#
# 1 0.013916 0.000614 -0.000913 0.000000 0.000000 0.000000
# 2 0.000614 0.009794 -0.005497 0.000000 0.000000 0.000000
# 3 -0.000913 -0.005497 0.008242 0.000000 0.000000 0.000000
# 4 0.000000 0.000000 0.000000 0.043300 0.000000 0.000000
# 5 0.000000 0.000000 0.000000 0.000000 -0.058315 0.000000
# 6 0.000000 0.000000 0.000000 0.000000 0.000000 0.146616
#
#
# Mechanical properties :
#
#
# Convention : Reuss Voigt Hill
#
# Bulk Modulus (GPa) = 49.11732 73.76789 61.44261
# Shear Modulus (GPa) = 27.48277 23.46162 25.47219
#
# Velocity S-wave (km/s) = 3.79294 3.50449 3.65157
# Velocity P-wave (km/s) = 6.70025 7.41556 7.06696
#
# Compressibility (1/GPa) = 0.02035942
#
# Stress axis : x y z
#
# Youngs Moduli (GPa) = 71.85987 102.09833 121.33162
#
# Poissons Ratio (x) = -0.06267 0.11078
# Poissons Ratio (y) = -0.04411 0.66699
# Poissons Ratio (z) = 0.06561 0.56126
#
# Static dielectric constant tensor:
#      x y z
#    x 1.791240 0.000000 0.000000 
#    y 0.000000 1.657730 0.000000 
#    z 0.000000 0.000000 1.649920 
# 
# From -- ./inp_files/60709.got.cif
#   From: 2010.05.17/outbox.cif.g08.bks.cpg/sg65_31_cif.got.tgz:60709.got - 2010.06.03 17:01:31.
