data_PCOD9483842
_publ_section_title
;
Structure prediction by ZEFSAII (Michael W. Deem and Ramdas Pophale) SiO2 
 PCOD9483842
Probable space group: C M M M
;
_chemical_formula_sum "Si O2"
_cell_formula_units_Z 96
_cell_length_a 19.308321
_cell_length_b 23.502146
_cell_length_c 13.059681
_cell_angle_alpha 90.000000
_cell_angle_beta 90.000000
_cell_angle_gamma 90.000000
_cell_volume 5926.313190
_symmetry_space_group_name_H-M "C M M M"
_symmetry_group_IT_number 65
_symmetry_cell_setting 'orthorhombic'
loop_
_space_group_symop_operation_xyz
x,y,z
-x,-y,z
x,-y,-z
-x,y,-z
-x,-y,-z
x,y,-z
-x,y,z
x,-y,z
1/2+x,1/2+y,z
1/2-x,1/2-y,z
1/2+x,1/2-y,-z
1/2-x,1/2+y,-z
1/2-x,1/2-y,-z
1/2+x,1/2+y,-z
1/2-x,1/2+y,z
1/2+x,1/2-y,z
loop_
_atom_site_type_symbol
_atom_site_label
_atom_site_fract_x
_atom_site_fract_y
_atom_site_fract_z
Si Si1 0.697020 0.432537 0.000000
Si Si2 0.757602 0.347171 0.385229
Si Si3 0.420072 0.753225 0.166308
Si Si4 0.134751 0.756588 0.385769
Si Si5 0.084238 0.837396 0.000000
Si Si6 0.919164 0.380252 0.121198
Si Si7 0.286167 0.066332 0.795747
O O1 0.627856 0.394967 0.000000
O O2 0.742682 0.420240 0.898797
O O3 0.681775 0.500000 0.000000
O O4 0.759830 0.372134 0.500000
O O5 0.819780 0.301131 0.378288
O O6 0.688520 0.308882 0.377492
O O7 0.763318 0.393319 0.296904
O O8 0.500000 0.757805 0.136011
O O9 0.412854 0.742191 0.286505
O O10 0.391680 0.815699 0.139631
O O11 0.393884 0.701191 0.097779
O O12 0.103144 0.758143 0.500000
O O13 0.000000 0.846324 0.000000
O O14 0.866612 0.421316 0.178979
O O15 0.000000 0.384187 0.154301
O O16 0.917283 0.391672 0.000000
O O17 0.275981 0.000000 0.771860
#
# Coordination Sequence:
#
# PCOD9483842 Si02
#       7
#     8  16  16  16   8  16  16
#     4  10  22  36  50  75 103 127 161 205 247 290
#     4   9  18  32  49  70  95 126 163 201 247 295
#     4  10  18  30  49  74 101 127 159 200 242 292
#     4   9  17  30  49  71  96 125 159 200 246 298
#     4  10  20  34  53  76 101 131 161 191 244 309
#     4  10  19  33  50  70 101 135 165 201 247 292
#     4  11  21  34  51  72 100 130 168 212 244 283
#
# _framework density 16.198941000000001
#
# number of rings (size 3 to 8) (size 9 to 14) (size 15 to 20)
#    0.000    2.167    3.333    2.000    0.000    1.167 
#    0.000    1.667    0.000    0.500    0.000    1.167 
#    0.000    0.000    0.000   31.000    0.000    0.000 
#
# Total GULP energy -267415.688627 kJ/mol
# GULP energy per Si atom -5571.160180 kJ/mol
# Density = 1.616207 g / cm^3
# Si number density = 16.198941 Si / 1000 Ang^3
#
#
#
# Elastic Constant Matrix: (Units=GPa)
#
#
# Indices 1 2 3 4 5 6 
#
# 1 31.9554 25.5915 11.6092 0.0000 0.0000 0.0000
# 2 25.5915 82.4200 57.2656 0.0000 0.0000 0.0000
# 3 11.6092 57.2656 113.9632 0.0000 0.0000 0.0000
# 4 0.0000 0.0000 0.0000 28.2905 0.0000 0.0000
# 5 0.0000 0.0000 0.0000 0.0000 24.3934 0.0000
# 6 0.0000 0.0000 0.0000 0.0000 0.0000 20.4913
#
#
#
# Elastic Compliance Matrix: (Units=1/GPa)
#
#
# Indices 1 2 3 4 5 6 
#
# 1 0.042561 -0.015676 0.003541 0.000000 0.000000 0.000000
# 2 -0.015676 0.024415 -0.010671 0.000000 0.000000 0.000000
# 3 0.003541 -0.010671 0.013776 0.000000 0.000000 0.000000
# 4 0.000000 0.000000 0.000000 0.035348 0.000000 0.000000
# 5 0.000000 0.000000 0.000000 0.000000 0.040995 0.000000
# 6 0.000000 0.000000 0.000000 0.000000 0.000000 0.048801
#
#
# Mechanical properties :
#
#
# Convention : Reuss Voigt Hill
#
# Bulk Modulus (GPa) = 28.45719 46.36346 37.41033
# Shear Modulus (GPa) = 18.99548 23.55987 21.27768
#
# Velocity S-wave (km/s) = 3.42809 3.81781 3.62819
# Velocity P-wave (km/s) = 5.76841 6.93669 6.37935
#
# Compressibility (1/GPa) = 0.03514051
#
# Stress axis : x y z
#
# Youngs Moduli (GPa) = 23.49571 40.95876 72.58845
#
# Poissons Ratio (x) = 0.64206 -0.25706
# Poissons Ratio (y) = 0.36831 0.77462
# Poissons Ratio (z) = -0.08321 0.43709
#
# Static dielectric constant tensor:
#      x y z
#    x 1.540810 0.000000 0.000000 
#    y 0.000000 1.544180 0.000000 
#    z 0.000000 0.000000 1.547410 
# 
# From -- ./inp_files/29100.got.cif
#   From: 2010.05.17/outbox.cif.g08.bks.cpg/sg65_15_cif.got.tgz:29100.got - 2010.06.03 17:01:31.
