data_PCOD9483305
_publ_section_title
;
Structure prediction by ZEFSAII (Michael W. Deem and Ramdas Pophale) SiO2 
 PCOD9483305
Probable space group: C M M M
;
_chemical_formula_sum "Si O2"
_cell_formula_units_Z 104
_cell_length_a 28.678441
_cell_length_b 28.787901
_cell_length_c 7.479241
_cell_angle_alpha 90.000000
_cell_angle_beta 90.000000
_cell_angle_gamma 90.000000
_cell_volume 6174.802436
_symmetry_space_group_name_H-M "C M M M"
_symmetry_group_IT_number 65
_symmetry_cell_setting 'orthorhombic'
loop_
_space_group_symop_operation_xyz
x,y,z
-x,-y,z
x,-y,-z
-x,y,-z
-x,-y,-z
x,y,-z
-x,y,z
x,-y,z
1/2+x,1/2+y,z
1/2-x,1/2-y,z
1/2+x,1/2-y,-z
1/2-x,1/2+y,-z
1/2-x,1/2-y,-z
1/2+x,1/2+y,-z
1/2-x,1/2+y,z
1/2+x,1/2-y,z
loop_
_atom_site_type_symbol
_atom_site_label
_atom_site_fract_x
_atom_site_fract_y
_atom_site_fract_z
Si Si1 0.408134 0.112273 0.211133
Si Si2 0.615719 0.444124 0.787256
Si Si3 0.218421 0.945433 0.783689
Si Si4 0.555896 0.210907 0.211678
Si Si5 0.444025 0.607402 0.500000
Si Si6 0.943570 0.214452 0.500000
Si Si7 0.679627 0.054169 0.781155
Si Si8 0.500000 0.052851 0.286321
O O1 0.419433 0.163859 0.278560
O O2 0.363086 0.085443 0.283407
O O3 0.453850 0.080502 0.231315
O O4 0.400233 0.118129 0.000000
O O5 0.613388 0.500000 0.760216
O O6 0.667708 0.427747 0.727023
O O7 0.577167 0.418458 0.671859
O O8 0.610760 0.436052 0.000000
O O9 0.269093 0.927724 0.725035
O O10 0.219116 0.000000 0.737303
O O11 0.217749 0.942831 0.000000
O O12 0.500000 0.203916 0.233559
O O13 0.570183 0.255413 0.326995
O O14 0.564281 0.217378 0.000000
O O15 0.500000 0.605253 0.500000
O O16 0.428418 0.661248 0.500000
O O17 0.000000 0.213061 0.500000
O O18 0.674038 0.000000 0.728148
O O19 0.679056 0.053955 0.000000
O O20 0.500000 0.051053 0.500000
O O21 0.500000 0.000000 0.217482
#
# Coordination Sequence:
#
# PCOD9483305 Si02
#       8
#    16  16  16  16   8   8  16   8
#     4  10  18  28  45  67  87 118 163 209 255 301
#     4   9  18  33  54  78 107 142 169 189 218 264
#     4   7  11  23  44  69  95 126 163 196 228 267
#     4   9  17  30  48  69  88 116 165 212 251 301
#     4  11  23  36  51  79 108 131 163 193 228 283
#     4   9  20  35  52  68  90 125 153 200 260 281
#     4   8  13  22  40  67  96 122 154 202 249 286
#     4  11  23  31  37  55  91 137 169 195 245 313
#
# _framework density 16.842644
#
# number of rings (size 3 to 8) (size 9 to 14) (size 15 to 20)
#    0.000    3.000    0.769    2.769    1.077    2.769 
#    0.000    2.308    1.692    0.000    0.000    2.154 
#    0.000    6.154    0.000    0.000    0.000    0.000 
#
# Total GULP energy -289651.477748 kJ/mol
# GULP energy per Si atom -5570.220726 kJ/mol
# Density = 1.680431 g / cm^3
# Si number density = 16.842644 Si / 1000 Ang^3
#
#
#
# Elastic Constant Matrix: (Units=GPa)
#
#
# Indices 1 2 3 4 5 6 
#
# 1 125.0089 56.9707 31.3086 0.0000 0.0000 0.0000
# 2 56.9707 97.2449 41.1494 0.0000 0.0000 0.0000
# 3 31.3086 41.1494 65.5079 0.0000 0.0000 0.0000
# 4 0.0000 0.0000 0.0000 16.4604 0.0000 0.0000
# 5 0.0000 0.0000 0.0000 0.0000 -636.0579 0.0000
# 6 0.0000 0.0000 0.0000 0.0000 0.0000 4.7216
#
#
#
# Elastic Compliance Matrix: (Units=1/GPa)
#
#
# Indices 1 2 3 4 5 6 
#
# 1 0.011043 -0.005770 -0.001653 0.000000 0.000000 0.000000
# 2 -0.005770 0.017021 -0.007934 0.000000 0.000000 0.000000
# 3 -0.001653 -0.007934 0.021040 0.000000 0.000000 0.000000
# 4 0.000000 0.000000 0.000000 0.060752 0.000000 0.000000
# 5 0.000000 0.000000 0.000000 0.000000 -0.001572 0.000000
# 6 0.000000 0.000000 0.000000 0.000000 0.000000 0.211793
#
#
# Mechanical properties :
#
#
# Convention : Reuss Voigt Hill
#
# Bulk Modulus (GPa) = 54.38213 60.73545 57.55879
# Shear Modulus (GPa) = 14.00869 -112.41964 -49.20548
#
# Velocity S-wave (km/s) = 2.88712 -8.17875 -5.41094
# Velocity P-wave (km/s) = 6.59336 7.28357 2.18838
#
# Compressibility (1/GPa) = 0.01838839
#
# Stress axis : x y z
#
# Youngs Moduli (GPa) = 90.55459 58.75098 47.52945
#
# Poissons Ratio (x) = 0.33899 0.07859
# Poissons Ratio (y) = 0.52249 0.37711
# Poissons Ratio (z) = 0.14973 0.46615
#
# Static dielectric constant tensor:
#      x y z
#    x 1.550500 0.000000 0.000000 
#    y 0.000000 1.543050 0.000000 
#    z 0.000000 0.000000 1.618320 
# 
# From -- ./inp_files/16842.got.cif
#   From: 2010.05.17/outbox.cif.g08.bks.cpg/sg65_9_cif.got.tgz:16842.got - 2010.06.03 17:01:31.
