data_PCOD9483724
_publ_section_title
;
Structure prediction by ZEFSAII (Michael W. Deem and Ramdas Pophale) SiO2 
 PCOD9483724
Probable space group: C M M M
;
_chemical_formula_sum "Si O2"
_cell_formula_units_Z 104
_cell_length_a 19.826827
_cell_length_b 31.215438
_cell_length_c 7.343372
_cell_angle_alpha 90.000000
_cell_angle_beta 90.000000
_cell_angle_gamma 90.000000
_cell_volume 4544.835614
_symmetry_space_group_name_H-M "C M M M"
_symmetry_group_IT_number 65
_symmetry_cell_setting 'orthorhombic'
loop_
_space_group_symop_operation_xyz
x,y,z
-x,-y,z
x,-y,-z
-x,y,-z
-x,-y,-z
x,y,-z
-x,y,z
x,-y,z
1/2+x,1/2+y,z
1/2-x,1/2-y,z
1/2+x,1/2-y,-z
1/2-x,1/2+y,-z
1/2-x,1/2-y,-z
1/2+x,1/2+y,-z
1/2-x,1/2+y,z
1/2+x,1/2-y,z
loop_
_atom_site_type_symbol
_atom_site_label
_atom_site_fract_x
_atom_site_fract_y
_atom_site_fract_z
Si Si1 0.645022 0.418740 0.221844
Si Si2 0.841982 0.323052 0.785801
Si Si3 0.733174 0.500000 0.779175
Si Si4 0.190534 0.824701 0.222638
Si Si5 0.423667 0.257281 0.777599
Si Si6 0.074695 0.405993 0.280838
Si Si7 0.500000 0.450357 0.778041
Si Si8 0.110114 0.500000 0.708753
O O1 0.692898 0.457706 0.278854
O O2 0.671174 0.372641 0.278981
O O3 0.568688 0.427892 0.280586
O O4 0.645040 0.419116 0.000000
O O5 0.766640 0.315615 0.713668
O O6 0.896932 0.289247 0.716672
O O7 0.868656 0.371427 0.767680
O O8 0.836815 0.314304 0.000000
O O9 0.809149 0.500000 0.711813
O O10 0.735353 0.500000 0.000000
O O11 0.132839 0.791543 0.279040
O O12 0.191325 0.823834 0.000000
O O13 0.500000 0.265984 0.716887
O O14 0.425566 0.258214 0.000000
O O15 0.075203 0.407896 0.500000
O O16 0.087195 0.454372 0.212256
O O17 0.000000 0.391538 0.221721
O O18 0.500000 0.500000 0.722734
O O19 0.500000 0.450175 0.000000
O O20 0.085430 0.500000 0.500000
#
# Coordination Sequence:
#
# PCOD9483724 Si02
#       8
#    16  16   8  16  16  16   8   8
#     4   9  16  24  38  62  93 128 166 203 245 292
#     4  10  19  33  52  75 103 132 162 202 254 302
#     4  10  18  30  47  71 102 131 160 200 248 296
#     4   9  17  27  42  66  97 133 168 205 249 295
#     4   9  17  28  44  68  97 132 172 209 245 292
#     4  10  21  37  56  76  99 129 165 203 242 289
#     4   9  14  22  34  54  88 130 164 200 246 289
#     4  10  21  36  53  73  99 129 162 198 239 286
#
# _framework density 22.883116999999999
#
# number of rings (size 3 to 8) (size 9 to 14) (size 15 to 20)
#    0.000    2.538    0.769    2.077    1.077    5.538 
#    0.000    0.000    0.000    3.231    0.000    1.077 
#    0.000    0.000    0.000    0.000    0.000    0.000 
#
# Total GULP energy -290637.447898 kJ/mol
# GULP energy per Si atom -5589.181690 kJ/mol
# Density = 2.283103 g / cm^3
# Si number density = 22.883117 Si / 1000 Ang^3
#
#
#
# Elastic Constant Matrix: (Units=GPa)
#
#
# Indices 1 2 3 4 5 6 
#
# 1 192.1769 67.1830 2.8926 0.0000 0.0000 0.0000
# 2 67.1830 134.5714 -2.1750 0.0000 0.0000 0.0000
# 3 2.8926 -2.1750 85.4772 0.0000 0.0000 0.0000
# 4 0.0000 0.0000 0.0000 15.9434 0.0000 0.0000
# 5 0.0000 0.0000 0.0000 0.0000 -5.9944 0.0000
# 6 0.0000 0.0000 0.0000 0.0000 0.0000 40.2534
#
#
#
# Elastic Compliance Matrix: (Units=1/GPa)
#
#
# Indices 1 2 3 4 5 6 
#
# 1 0.006311 -0.003155 -0.000294 0.000000 0.000000 0.000000
# 2 -0.003155 0.009012 0.000336 0.000000 0.000000 0.000000
# 3 -0.000294 0.000336 0.011718 0.000000 0.000000 0.000000
# 4 0.000000 0.000000 0.000000 0.062722 0.000000 0.000000
# 5 0.000000 0.000000 0.000000 0.000000 -0.166823 0.000000
# 6 0.000000 0.000000 0.000000 0.000000 0.000000 0.024843
#
#
# Mechanical properties :
#
#
# Convention : Reuss Voigt Hill
#
# Bulk Modulus (GPa) = 48.04487 60.89185 54.46836
# Shear Modulus (GPa) = -128.02968 32.99548 -47.51710
#
# Velocity S-wave (km/s) = -7.48805 3.80137 -4.56182
# Velocity P-wave (km/s) = 7.32938 6.77753 1.97292
#
# Compressibility (1/GPa) = 0.02081388
#
# Stress axis : x y z
#
# Youngs Moduli (GPa) = 158.45135 110.96603 85.34224
#
# Poissons Ratio (x) = 0.35015 0.02508
# Poissons Ratio (y) = 0.49999 -0.02868
# Poissons Ratio (z) = 0.04656 -0.03729
#
# Static dielectric constant tensor:
#      x y z
#    x 1.802720 0.000000 0.000000 
#    y 0.000000 1.802880 0.000000 
#    z 0.000000 0.000000 1.910070 
# 
# From -- ./inp_files/12886.got.cif
#   From: 2010.05.17/outbox.cif.g08.bks.cpg/sg65_7_cif.got.tgz:12886.got - 2010.06.03 17:01:31.
