data_PCOD9483582
_publ_section_title
;
Structure prediction by ZEFSAII (Michael W. Deem and Ramdas Pophale) SiO2 
 PCOD9483582
Probable space group: C M M M
;
_chemical_formula_sum "Si O2"
_cell_formula_units_Z 96
_cell_length_a 8.605775
_cell_length_b 28.231276
_cell_length_c 24.355192
_cell_angle_alpha 90.000000
_cell_angle_beta 90.000000
_cell_angle_gamma 90.000000
_cell_volume 5917.142831
_symmetry_space_group_name_H-M "C M M M"
_symmetry_group_IT_number 65
_symmetry_cell_setting 'orthorhombic'
loop_
_space_group_symop_operation_xyz
x,y,z
-x,-y,z
x,-y,-z
-x,y,-z
-x,-y,-z
x,y,-z
-x,y,z
x,-y,z
1/2+x,1/2+y,z
1/2-x,1/2-y,z
1/2+x,1/2-y,-z
1/2-x,1/2+y,-z
1/2-x,1/2-y,-z
1/2+x,1/2+y,-z
1/2-x,1/2+y,z
1/2+x,1/2-y,z
loop_
_atom_site_type_symbol
_atom_site_label
_atom_site_fract_x
_atom_site_fract_y
_atom_site_fract_z
Si Si1 0.810785 0.554475 0.561985
Si Si2 0.686929 0.110188 0.331234
Si Si3 0.685263 0.858720 0.835896
Si Si4 0.686018 0.697567 0.936244
Si Si5 0.314566 0.697623 0.268394
Si Si6 0.686253 0.554883 0.772915
O O1 0.761178 0.566962 0.500000
O O2 0.763228 0.500000 0.573134
O O3 0.760926 0.589439 0.610235
O O4 0.000000 0.554636 0.562208
O O5 0.500000 0.113843 0.330420
O O6 0.758691 0.160525 0.314541
O O7 0.739318 0.073920 0.283567
O O8 0.500000 0.859515 0.832866
O O9 0.741511 0.839547 0.894237
O O10 0.749027 0.823287 0.788841
O O11 0.751993 0.910060 0.819903
O O12 0.500000 0.697834 0.930563
O O13 0.750000 0.750000 0.923232
O O14 0.724837 0.687678 0.000000
O O15 0.500000 0.698250 0.265709
O O16 0.250000 0.750000 0.277543
O O17 0.500000 0.559719 0.768999
O O18 0.724804 0.500000 0.781935
#
# Coordination Sequence:
#
# PCOD9483582 Si02
#       6
#    16  16  16  16  16  16
#     4   8  14  25  43  69  99 128 157 191 232 279
#     4  10  18  29  48  73  98 125 159 197 238 284
#     4  11  21  33  51  74 100 128 160 197 238 284
#     4  10  20  34  52  74 101 131 162 196 236 282
#     4  11  21  34  50  69  96 126 159 197 239 287
#     4  10  20  33  49  70  98 130 162 197 239 285
#
# _framework density 16.224046000000001
#
# number of rings (size 3 to 8) (size 9 to 14) (size 15 to 20)
#    0.000    2.000    0.000    8.000    0.000    3.000 
#    0.000    0.000    0.000    3.000    0.000    9.333 
#    0.000    0.000    0.000    0.000    0.000    0.000 
#
# Total GULP energy -267921.292662 kJ/mol
# GULP energy per Si atom -5581.693597 kJ/mol
# Density = 1.618712 g / cm^3
# Si number density = 16.224046 Si / 1000 Ang^3
#
#
#
# Elastic Constant Matrix: (Units=GPa)
#
#
# Indices 1 2 3 4 5 6 
#
# 1 79.8959 48.5096 29.8837 0.0000 0.0000 0.0000
# 2 48.5096 142.7116 71.5622 0.0000 0.0000 0.0000
# 3 29.8837 71.5622 88.5672 0.0000 0.0000 0.0000
# 4 0.0000 0.0000 0.0000 21.6598 0.0000 0.0000
# 5 0.0000 0.0000 0.0000 0.0000 16.7316 0.0000
# 6 0.0000 0.0000 0.0000 0.0000 0.0000 25.0791
#
#
#
# Elastic Compliance Matrix: (Units=1/GPa)
#
#
# Indices 1 2 3 4 5 6 
#
# 1 0.015918 -0.004569 -0.001680 0.000000 0.000000 0.000000
# 2 -0.004569 0.013091 -0.009036 0.000000 0.000000 0.000000
# 3 -0.001680 -0.009036 0.019159 0.000000 0.000000 0.000000
# 4 0.000000 0.000000 0.000000 0.046168 0.000000 0.000000
# 5 0.000000 0.000000 0.000000 0.000000 0.059767 0.000000
# 6 0.000000 0.000000 0.000000 0.000000 0.000000 0.039874
#
#
# Mechanical properties :
#
#
# Convention : Reuss Voigt Hill
#
# Bulk Modulus (GPa) = 56.81957 67.89841 62.35899
# Shear Modulus (GPa) = 21.70012 23.44204 22.57108
#
# Velocity S-wave (km/s) = 3.66119 3.80530 3.73394
# Velocity P-wave (km/s) = 7.27807 7.82614 7.55707
#
# Compressibility (1/GPa) = 0.01759957
#
# Stress axis : x y z
#
# Youngs Moduli (GPa) = 62.82027 76.38684 52.19530
#
# Poissons Ratio (x) = 0.34899 0.08767
# Poissons Ratio (y) = 0.28700 0.47165
# Poissons Ratio (z) = 0.10551 0.69025
#
# Static dielectric constant tensor:
#      x y z
#    x 1.545590 0.000000 0.000000 
#    y 0.000000 1.527110 0.000000 
#    z 0.000000 0.000000 1.539100 
# 
# From -- ./inp_files/68063.got.cif
#   From: 2010.05.17/outbox.cif.g08.bks.cpg/sg65_35_cif.got.tgz:68063.got - 2010.06.03 17:01:31.
