data_PCOD9483121
_publ_section_title
;
Structure prediction by ZEFSAII (Michael W. Deem and Ramdas Pophale) SiO2 
 PCOD9483121
Probable space group: C M M M
;
_chemical_formula_sum "Si O2"
_cell_formula_units_Z 80
_cell_length_a 14.068782
_cell_length_b 25.515777
_cell_length_c 14.005560
_cell_angle_alpha 90.000000
_cell_angle_beta 90.000000
_cell_angle_gamma 90.000000
_cell_volume 5027.658564
_symmetry_space_group_name_H-M "C M M M"
_symmetry_group_IT_number 65
_symmetry_cell_setting 'orthorhombic'
loop_
_space_group_symop_operation_xyz
x,y,z
-x,-y,z
x,-y,-z
-x,y,-z
-x,-y,-z
x,y,-z
-x,y,z
x,-y,z
1/2+x,1/2+y,z
1/2-x,1/2-y,z
1/2+x,1/2-y,-z
1/2-x,1/2+y,-z
1/2-x,1/2-y,-z
1/2+x,1/2+y,-z
1/2-x,1/2+y,z
1/2+x,1/2-y,z
loop_
_atom_site_type_symbol
_atom_site_label
_atom_site_fract_x
_atom_site_fract_y
_atom_site_fract_z
Si Si1 0.614841 0.783775 0.699542
Si Si2 0.884609 0.663631 0.106261
Si Si3 0.890415 0.827358 0.386543
Si Si4 0.294672 0.885187 0.610509
Si Si5 0.885652 0.559036 0.786034
O O1 0.500000 0.787066 0.694927
O O2 0.645191 0.798597 0.807184
O O3 0.640313 0.725378 0.667866
O O4 0.655282 0.829039 0.631174
O O5 0.858965 0.604649 0.139365
O O6 0.000000 0.665741 0.103564
O O7 0.849439 0.675705 0.000000
O O8 0.886256 0.815896 0.500000
O O9 0.816220 0.873699 0.368820
O O10 0.000000 0.839371 0.362389
O O11 0.307067 0.899782 0.500000
O O12 0.338963 0.925436 0.685330
O O13 0.860799 0.500000 0.815014
O O14 0.000000 0.561819 0.775068
#
# Coordination Sequence:
#
# PCOD9483121 Si02
#       5
#    16  16  16  16  16
#     4   9  16  25  39  61  87 111 136 167 200 237
#     4   8  14  25  41  61  85 112 139 165 196 238
#     4   9  17  28  42  60  81 108 144 178 202 231
#     4  10  18  27  41  59  82 112 140 168 204 243
#     4   9  18  30  43  62  85 107 134 168 206 249
#
# _framework density 15.911979000000001
#
# number of rings (size 3 to 8) (size 9 to 14) (size 15 to 20)
#    0.000    3.000    0.000    3.000    0.000    4.800 
#    0.000    3.000    0.000   10.200    0.000    2.800 
#    0.000    0.000    0.000    7.200    0.000    0.800 
#
# Total GULP energy -222782.369541 kJ/mol
# GULP energy per Si atom -5569.559239 kJ/mol
# Density = 1.587576 g / cm^3
# Si number density = 15.911979 Si / 1000 Ang^3
#
#
#
# Elastic Constant Matrix: (Units=GPa)
#
#
# Indices 1 2 3 4 5 6 
#
# 1 25.8892 4.9954 8.4385 0.0000 0.0000 0.0000
# 2 4.9954 24.5755 1.9224 0.0000 0.0000 0.0000
# 3 8.4385 1.9224 48.7362 0.0000 0.0000 0.0000
# 4 0.0000 0.0000 0.0000 6.7919 0.0000 0.0000
# 5 0.0000 0.0000 0.0000 0.0000 8.6770 0.0000
# 6 0.0000 0.0000 0.0000 0.0000 0.0000 18.8304
#
#
#
# Elastic Compliance Matrix: (Units=1/GPa)
#
#
# Indices 1 2 3 4 5 6 
#
# 1 0.042479 -0.008084 -0.007036 0.000000 0.000000 0.000000
# 2 -0.008084 0.042355 -0.000271 0.000000 0.000000 0.000000
# 3 -0.007036 -0.000271 0.021748 0.000000 0.000000 0.000000
# 4 0.000000 0.000000 0.000000 0.147235 0.000000 0.000000
# 5 0.000000 0.000000 0.000000 0.000000 0.115247 0.000000
# 6 0.000000 0.000000 0.000000 0.000000 0.000000 0.053106
#
#
# Mechanical properties :
#
#
# Convention : Reuss Voigt Hill
#
# Bulk Modulus (GPa) = 13.19272 14.43484 13.81378
# Shear Modulus (GPa) = 10.45543 12.44948 11.45246
#
# Velocity S-wave (km/s) = 2.56614 2.80017 2.68570
# Velocity P-wave (km/s) = 4.13390 4.42108 4.27990
#
# Compressibility (1/GPa) = 0.07579937
#
# Stress axis : x y z
#
# Youngs Moduli (GPa) = 23.54082 23.60975 45.98206
#
# Poissons Ratio (x) = 0.19087 0.32354
# Poissons Ratio (y) = 0.19031 0.01246
# Poissons Ratio (z) = 0.16564 0.00640
#
# Static dielectric constant tensor:
#      x y z
#    x 1.550660 0.000000 0.000000 
#    y 0.000000 1.523510 0.000000 
#    z 0.000000 0.000000 1.532020 
# 
# From -- ./inp_files/24626.got.cif
#   From: 2010.05.17/outbox.cif.g08.bks.cpg/sg65_13_cif.got.tgz:24626.got - 2010.06.03 17:01:31.
