data_PCOD9483968
_publ_section_title
;
Structure prediction by ZEFSAII (Michael W. Deem and Ramdas Pophale) SiO2 
 PCOD9483968
Probable space group: C M M M
;
_chemical_formula_sum "Si O2"
_cell_formula_units_Z 64
_cell_length_a 18.757375
_cell_length_b 8.587603
_cell_length_c 21.703282
_cell_angle_alpha 90.000000
_cell_angle_beta 90.000000
_cell_angle_gamma 90.000000
_cell_volume 3495.983977
_symmetry_space_group_name_H-M "C M M M"
_symmetry_group_IT_number 65
_symmetry_cell_setting 'orthorhombic'
loop_
_space_group_symop_operation_xyz
x,y,z
-x,-y,z
x,-y,-z
-x,y,-z
-x,-y,-z
x,y,-z
-x,y,z
x,-y,z
1/2+x,1/2+y,z
1/2-x,1/2-y,z
1/2+x,1/2-y,-z
1/2-x,1/2+y,-z
1/2-x,1/2-y,-z
1/2+x,1/2+y,-z
1/2-x,1/2+y,z
1/2+x,1/2-y,z
loop_
_atom_site_type_symbol
_atom_site_label
_atom_site_fract_x
_atom_site_fract_y
_atom_site_fract_z
Si Si1 0.330661 0.312883 0.128617
Si Si2 0.417981 0.688089 0.249749
Si Si3 0.830698 0.312449 0.500000
Si Si4 0.168798 0.314253 0.000000
Si Si5 0.830857 0.312923 0.365295
O O1 0.327943 0.500000 0.125215
O O2 0.250000 0.250000 0.135598
O O3 0.376570 0.264657 0.187691
O O4 0.361815 0.248577 0.064258
O O5 0.500000 0.739369 0.248432
O O6 0.416619 0.500000 0.251654
O O7 0.377848 0.750566 0.309668
O O8 0.829497 0.500000 0.500000
O O9 0.750000 0.250000 0.500000
O O10 0.860398 0.264505 0.433188
O O11 0.250000 0.250000 0.000000
O O12 0.169826 0.500000 0.000000
O O13 0.828457 0.500000 0.362866
O O14 0.750000 0.250000 0.359702
#
# Coordination Sequence:
#
# PCOD9483968 Si02
#       5
#    16  16   8   8  16
#     4  10  19  33  54  77 102 132 167 208 254 304
#     4  10  22  38  53  73 104 140 177 216 257 304
#     4   8  16  30  49  76 105 131 165 209 257 306
#     4  10  18  30  51  78 105 129 161 207 253 300
#     4  10  19  33  55  80 105 135 171 213 259 308
#
# _framework density 18.306721
#
# number of rings (size 3 to 8) (size 9 to 14) (size 15 to 20)
#    0.000    2.250    0.000    4.875    0.000    5.500 
#    0.000    1.250    0.000    7.500    0.000    0.000 
#    0.000    0.000    0.000    0.000    0.000    0.000 
#
# Total GULP energy -178451.718652 kJ/mol
# GULP energy per Si atom -5576.616208 kJ/mol
# Density = 1.826505 g / cm^3
# Si number density = 18.306721 Si / 1000 Ang^3
#
#
#
# Elastic Constant Matrix: (Units=GPa)
#
#
# Indices 1 2 3 4 5 6 
#
# 1 81.5227 23.0151 88.2708 0.0000 0.0000 0.0000
# 2 23.0151 44.2409 47.8201 0.0000 0.0000 0.0000
# 3 88.2708 47.8201 242.8660 0.0000 0.0000 0.0000
# 4 0.0000 0.0000 0.0000 15.8294 0.0000 0.0000
# 5 0.0000 0.0000 0.0000 0.0000 -6.5385 0.0000
# 6 0.0000 0.0000 0.0000 0.0000 0.0000 18.1187
#
#
#
# Elastic Compliance Matrix: (Units=1/GPa)
#
#
# Indices 1 2 3 4 5 6 
#
# 1 0.020606 -0.003334 -0.006833 0.000000 0.000000 0.000000
# 2 -0.003334 0.029254 -0.004548 0.000000 0.000000 0.000000
# 3 -0.006833 -0.004548 0.007497 0.000000 0.000000 0.000000
# 4 0.000000 0.000000 0.000000 0.063174 0.000000 0.000000
# 5 0.000000 0.000000 0.000000 0.000000 -0.152941 0.000000
# 6 0.000000 0.000000 0.000000 0.000000 0.000000 0.055192
#
#
# Mechanical properties :
#
#
# Convention : Reuss Voigt Hill
#
# Bulk Modulus (GPa) = 35.80844 76.31575 56.06210
# Shear Modulus (GPa) = 81.27310 19.45016 50.36163
#
# Velocity S-wave (km/s) = 6.67020 3.26308 5.25068
# Velocity P-wave (km/s) = 8.88397 7.48162 8.21278
#
# Compressibility (1/GPa) = 0.02792637
#
# Stress axis : x y z
#
# Youngs Moduli (GPa) = 48.52860 34.18294 133.39450
#
# Poissons Ratio (x) = 0.11397 0.91149
# Poissons Ratio (y) = 0.16180 0.60673
# Poissons Ratio (z) = 0.33160 0.15548
#
# Static dielectric constant tensor:
#      x y z
#    x 1.593880 0.000000 0.000000 
#    y 0.000000 1.623190 0.000000 
#    z 0.000000 0.000000 1.674980 
# 
# From -- ./inp_files/64254.got.cif
#   From: 2010.05.17/outbox.cif.g08.bks.cpg/sg65_33_cif.got.tgz:64254.got - 2010.06.03 17:01:31.
