data_PCOD9483191
_publ_section_title
;
Structure prediction by ZEFSAII (Michael W. Deem and Ramdas Pophale) SiO2 
 PCOD9483191
Probable space group: C M M M
;
_chemical_formula_sum "Si O2"
_cell_formula_units_Z 80
_cell_length_a 27.003603
_cell_length_b 7.298909
_cell_length_c 20.600507
_cell_angle_alpha 90.000000
_cell_angle_beta 90.000000
_cell_angle_gamma 90.000000
_cell_volume 4060.294852
_symmetry_space_group_name_H-M "C M M M"
_symmetry_group_IT_number 65
_symmetry_cell_setting 'orthorhombic'
loop_
_space_group_symop_operation_xyz
x,y,z
-x,-y,z
x,-y,-z
-x,y,-z
-x,-y,-z
x,y,-z
-x,y,z
x,-y,z
1/2+x,1/2+y,z
1/2-x,1/2-y,z
1/2+x,1/2-y,-z
1/2-x,1/2+y,-z
1/2-x,1/2-y,-z
1/2+x,1/2+y,-z
1/2-x,1/2+y,z
1/2+x,1/2-y,z
loop_
_atom_site_type_symbol
_atom_site_label
_atom_site_fract_x
_atom_site_fract_y
_atom_site_fract_z
Si Si1 0.192272 0.217112 0.500000
Si Si2 0.657382 0.276484 0.639608
Si Si3 0.000000 0.223711 0.074903
Si Si4 0.589358 0.277738 0.833423
Si Si5 0.193430 0.781864 0.219866
Si Si6 0.446460 0.722016 0.690386
O O1 0.250000 0.250000 0.500000
O O2 0.174276 0.289189 0.430520
O O3 0.180725 0.000000 0.500000
O O4 0.660826 0.500000 0.639590
O O5 0.685763 0.215670 0.705412
O O6 0.600611 0.221341 0.649574
O O7 0.949275 0.282888 0.111310
O O8 0.000000 0.000000 0.077373
O O9 0.000000 0.278457 0.000000
O O10 0.590768 0.500000 0.838021
O O11 0.646992 0.216750 0.824767
O O12 0.564085 0.228757 0.764916
O O13 0.250000 0.750000 0.198442
O O14 0.187187 0.000000 0.222648
O O15 0.500000 0.787020 0.669035
O O16 0.446839 0.500000 0.689041
#
# Coordination Sequence:
#
# PCOD9483191 Si02
#       6
#     8  16   8  16  16  16
#     4  10  18  28  39  51  73  99 126 160 195 228
#     4   8  15  24  35  53  75 100 127 159 195 230
#     4   9  14  20  34  58  85 106 126 158 199 235
#     4   8  13  21  34  54  79 104 128 158 195 233
#     4   9  16  26  40  58  80 104 133 164 195 230
#     4   8  11  18  33  50  72  99 123 148 189 239
#
# _framework density 19.703002999999999
#
# number of rings (size 3 to 8) (size 9 to 14) (size 15 to 20)
#    0.000    3.500    1.000    3.000    0.000    0.000 
#    0.000    0.500    0.000    3.600    0.000    0.700 
#    0.000    4.400    0.000    0.000    0.000    0.000 
#
# Total GULP energy -222750.196993 kJ/mol
# GULP energy per Si atom -5568.754925 kJ/mol
# Density = 1.965816 g / cm^3
# Si number density = 19.703003 Si / 1000 Ang^3
#
#
#
# Elastic Constant Matrix: (Units=GPa)
#
#
# Indices 1 2 3 4 5 6 
#
# 1 199.5427 -1.9101 97.6700 0.0000 0.0000 0.0000
# 2 -1.9101 79.6781 5.3565 0.0000 0.0000 0.0000
# 3 97.6700 5.3565 140.8232 0.0000 0.0000 0.0000
# 4 0.0000 0.0000 0.0000 -27.3874 0.0000 0.0000
# 5 0.0000 0.0000 0.0000 0.0000 32.3551 0.0000
# 6 0.0000 0.0000 0.0000 0.0000 0.0000 6.3508
#
#
#
# Elastic Compliance Matrix: (Units=1/GPa)
#
#
# Indices 1 2 3 4 5 6 
#
# 1 0.007610 0.000539 -0.005299 0.000000 0.000000 0.000000
# 2 0.000539 0.012621 -0.000854 0.000000 0.000000 0.000000
# 3 -0.005299 -0.000854 0.010808 0.000000 0.000000 0.000000
# 4 0.000000 0.000000 0.000000 -0.036513 0.000000 0.000000
# 5 0.000000 0.000000 0.000000 0.000000 0.030907 0.000000
# 6 0.000000 0.000000 0.000000 0.000000 0.000000 0.157461
#
#
# Mechanical properties :
#
#
# Convention : Reuss Voigt Hill
#
# Bulk Modulus (GPa) = 50.47392 69.14188 59.80790
# Shear Modulus (GPa) = 24.90963 23.52555 24.21759
#
# Velocity S-wave (km/s) = 3.55949 3.45919 3.50970
# Velocity P-wave (km/s) = 6.52429 7.15003 6.84431
#
# Compressibility (1/GPa) = 0.01981221
#
# Stress axis : x y z
#
# Youngs Moduli (GPa) = 131.40402 79.23431 92.51982
#
# Poissons Ratio (x) = -0.04268 0.49023
# Poissons Ratio (y) = -0.07078 0.07898
# Poissons Ratio (z) = 0.69626 0.06764
#
# Static dielectric constant tensor:
#      x y z
#    x 1.711410 0.000000 0.000000 
#    y 0.000000 1.828860 0.000000 
#    z 0.000000 0.000000 1.653620 
# 
# From -- ./inp_files/51608.got.cif
#   From: 2010.05.17/outbox.cif.g08.bks.cpg/sg65_26_cif.got.tgz:51608.got - 2010.06.03 17:01:31.
