data_PCOD9483453
_publ_section_title
;
Structure prediction by ZEFSAII (Michael W. Deem and Ramdas Pophale) SiO2 
 PCOD9483453
Probable space group: C M M M
;
_chemical_formula_sum "Si O2"
_cell_formula_units_Z 88
_cell_length_a 19.304424
_cell_length_b 28.329081
_cell_length_c 7.331314
_cell_angle_alpha 90.000000
_cell_angle_beta 90.000000
_cell_angle_gamma 90.000000
_cell_volume 4009.324009
_symmetry_space_group_name_H-M "C M M M"
_symmetry_group_IT_number 65
_symmetry_cell_setting 'orthorhombic'
loop_
_space_group_symop_operation_xyz
x,y,z
-x,-y,z
x,-y,-z
-x,y,-z
-x,-y,-z
x,y,-z
-x,y,z
x,-y,z
1/2+x,1/2+y,z
1/2-x,1/2-y,z
1/2+x,1/2-y,-z
1/2-x,1/2+y,-z
1/2-x,1/2-y,-z
1/2+x,1/2+y,-z
1/2-x,1/2+y,z
1/2+x,1/2-y,z
loop_
_atom_site_type_symbol
_atom_site_label
_atom_site_fract_x
_atom_site_fract_y
_atom_site_fract_z
Si Si1 0.853536 0.156778 0.722687
Si Si2 0.701476 0.815016 0.291761
Si Si3 0.160247 0.052097 0.711722
Si Si4 0.317472 0.920825 0.219471
Si Si5 0.422024 0.000000 0.777543
Si Si6 0.076550 0.749311 0.277755
O O1 0.849159 0.154015 0.500000
O O2 0.778869 0.177631 0.785900
O O3 0.865085 0.102925 0.786836
O O4 0.909671 0.196040 0.769268
O O5 0.712018 0.798968 0.500000
O O6 0.673184 0.868165 0.289484
O O7 0.642429 0.781211 0.212535
O O8 0.138918 0.050822 0.500000
O O9 0.243562 0.058454 0.719670
O O10 0.143040 0.000000 0.789391
O O11 0.378826 0.954533 0.278972
O O12 0.315398 0.919290 0.000000
O O13 0.500000 0.000000 0.713853
O O14 0.422614 0.000000 0.000000
O O15 0.077024 0.746108 0.500000
O O16 0.000000 0.733946 0.217435
#
# Coordination Sequence:
#
# PCOD9483453 Si02
#       6
#    16  16  16  16   8  16
#     4   8  14  25  42  64  88 117 148 178 219 270
#     4   9  17  29  45  65  88 115 146 184 225 262
#     4   9  16  27  46  68  90 113 140 179 224 265
#     4  10  18  29  45  64  85 112 147 185 218 256
#     4   9  18  30  41  55  81 117 148 173 210 262
#     4   9  16  26  43  66  90 116 150 189 221 256
#
# _framework density 21.948837000000001
#
# number of rings (size 3 to 8) (size 9 to 14) (size 15 to 20)
#    0.000    3.000    0.909    2.182    0.000    2.909 
#    0.000    0.000    0.000   13.091    0.000    3.818 
#    0.000    0.000    0.000    6.545    0.000    7.273 
#
# Total GULP energy -245346.474376 kJ/mol
# GULP energy per Si atom -5576.056236 kJ/mol
# Density = 2.189888 g / cm^3
# Si number density = 21.948837 Si / 1000 Ang^3
#
#
#
# Elastic Constant Matrix: (Units=GPa)
#
#
# Indices 1 2 3 4 5 6 
#
# 1 22.8971 26.8838 -1.1148 0.0000 0.0000 0.0000
# 2 26.8838 139.6808 1.2833 0.0000 0.0000 0.0000
# 3 -1.1148 1.2833 89.6815 0.0000 0.0000 0.0000
# 4 0.0000 0.0000 0.0000 14.6952 0.0000 0.0000
# 5 0.0000 0.0000 0.0000 0.0000 18.6891 0.0000
# 6 0.0000 0.0000 0.0000 0.0000 0.0000 15.6009
#
#
#
# Elastic Compliance Matrix: (Units=1/GPa)
#
#
# Indices 1 2 3 4 5 6 
#
# 1 0.056490 -0.010880 0.000858 0.000000 0.000000 0.000000
# 2 -0.010880 0.009256 -0.000268 0.000000 0.000000 0.000000
# 3 0.000858 -0.000268 0.011165 0.000000 0.000000 0.000000
# 4 0.000000 0.000000 0.000000 0.068049 0.000000 0.000000
# 5 0.000000 0.000000 0.000000 0.000000 0.053507 0.000000
# 6 0.000000 0.000000 0.000000 0.000000 0.000000 0.064099
#
#
# Mechanical properties :
#
#
# Convention : Reuss Voigt Hill
#
# Bulk Modulus (GPa) = 17.75228 34.04045 25.89637
# Shear Modulus (GPa) = 16.56048 24.81084 20.68566
#
# Velocity S-wave (km/s) = 2.74980 3.36578 3.07326
# Velocity P-wave (km/s) = 4.26468 5.53600 4.94140
#
# Compressibility (1/GPa) = 0.05633078
#
# Stress axis : x y z
#
# Youngs Moduli (GPa) = 17.70219 108.04114 89.56511
#
# Poissons Ratio (x) = 1.17552 -0.07684
# Poissons Ratio (y) = 0.19261 0.02398
# Poissons Ratio (z) = -0.01519 0.02892
#
# Static dielectric constant tensor:
#      x y z
#    x 1.756990 0.000000 0.000000 
#    y 0.000000 1.820200 0.000000 
#    z 0.000000 0.000000 1.834260 
# 
# From -- ./inp_files/10038.got.cif
#   From: 2010.05.17/outbox.cif.g08.bks.cpg/sg65_6_cif.got.tgz:10038.got - 2010.06.03 17:01:31.
