data_PCOD9483713
_publ_section_title
;
Structure prediction by ZEFSAII (Michael W. Deem and Ramdas Pophale) SiO2 
 PCOD9483713
Probable space group: C M M M
;
_chemical_formula_sum "Si O2"
_cell_formula_units_Z 80
_cell_length_a 8.498232
_cell_length_b 19.781142
_cell_length_c 27.001643
_cell_angle_alpha 90.000000
_cell_angle_beta 90.000000
_cell_angle_gamma 90.000000
_cell_volume 4539.104012
_symmetry_space_group_name_H-M "C M M M"
_symmetry_group_IT_number 65
_symmetry_cell_setting 'orthorhombic'
loop_
_space_group_symop_operation_xyz
x,y,z
-x,-y,z
x,-y,-z
-x,y,-z
-x,-y,-z
x,y,-z
-x,y,z
x,-y,z
1/2+x,1/2+y,z
1/2-x,1/2-y,z
1/2+x,1/2-y,-z
1/2-x,1/2+y,-z
1/2-x,1/2-y,-z
1/2+x,1/2+y,-z
1/2-x,1/2+y,z
1/2+x,1/2-y,z
loop_
_atom_site_type_symbol
_atom_site_label
_atom_site_fract_x
_atom_site_fract_y
_atom_site_fract_z
Si Si1 0.808286 0.422281 0.193545
Si Si2 0.189142 0.673209 0.895731
Si Si3 0.688557 0.326771 0.608139
Si Si4 0.312445 0.672730 0.000000
Si Si5 0.689755 0.326983 0.500000
Si Si6 0.189824 0.578157 0.694717
O O1 0.759913 0.500000 0.184640
O O2 0.756417 0.371976 0.150476
O O3 0.759250 0.402830 0.249334
O O4 0.000000 0.421768 0.193276
O O5 0.250000 0.750000 0.890629
O O6 0.249346 0.644036 0.948221
O O7 0.000000 0.674811 0.896982
O O8 0.500000 0.324704 0.608786
O O9 0.750000 0.250000 0.613135
O O10 0.740536 0.354547 0.553692
O O11 0.746867 0.373006 0.652643
O O12 0.250000 0.750000 0.000000
O O13 0.500000 0.672974 0.000000
O O14 0.500000 0.327442 0.500000
O O15 0.750000 0.250000 0.500000
O O16 0.237004 0.500000 0.686369
O O17 0.000000 0.580417 0.693834
#
# Coordination Sequence:
#
# PCOD9483713 Si02
#       6
#    16  16  16   8   8  16
#     4   8  16  32  52  71  93 125 162 197 234 278
#     4  10  18  30  50  73  96 122 156 195 233 277
#     4  10  19  32  51  74  99 127 163 203 244 290
#     4  10  18  30  47  68  97 127 155 189 233 280
#     4   8  16  30  47  68  95 127 159 197 243 288
#     4   9  18  34  53  72  98 131 164 200 244 290
#
# _framework density 17.624624000000001
#
# number of rings (size 3 to 8) (size 9 to 14) (size 15 to 20)
#    0.000    2.800    0.000    4.500    0.000    2.000 
#    0.000    5.000    0.000   10.800    0.000    0.000 
#    0.000    0.000    0.000    0.000    0.000    0.000 
#
# Total GULP energy -222812.161509 kJ/mol
# GULP energy per Si atom -5570.304038 kJ/mol
# Density = 1.758451 g / cm^3
# Si number density = 17.624624 Si / 1000 Ang^3
#
#
#
# Elastic Constant Matrix: (Units=GPa)
#
#
# Indices 1 2 3 4 5 6 
#
# 1 38.4389 20.1574 37.2415 0.0000 0.0000 0.0000
# 2 20.1574 67.1544 98.9147 0.0000 0.0000 0.0000
# 3 37.2415 98.9147 222.6365 0.0000 0.0000 0.0000
# 4 0.0000 0.0000 0.0000 -31.5215 0.0000 0.0000
# 5 0.0000 0.0000 0.0000 0.0000 24.0837 0.0000
# 6 0.0000 0.0000 0.0000 0.0000 0.0000 19.7239
#
#
#
# Elastic Compliance Matrix: (Units=1/GPa)
#
#
# Indices 1 2 3 4 5 6 
#
# 1 0.031598 -0.004917 -0.003101 0.000000 0.000000 0.000000
# 2 -0.004917 0.043854 -0.018661 0.000000 0.000000 0.000000
# 3 -0.003101 -0.018661 0.013301 0.000000 0.000000 0.000000
# 4 0.000000 0.000000 0.000000 -0.031724 0.000000 0.000000
# 5 0.000000 0.000000 0.000000 0.000000 0.041522 0.000000
# 6 0.000000 0.000000 0.000000 0.000000 0.000000 0.050700
#
#
# Mechanical properties :
#
#
# Convention : Reuss Voigt Hill
#
# Bulk Modulus (GPa) = 28.25274 71.20635 49.72954
# Shear Modulus (GPa) = 23.32000 13.91829 18.61914
#
# Velocity S-wave (km/s) = 3.64146 2.81322 3.25380
# Velocity P-wave (km/s) = 5.80907 7.14434 6.51103
#
# Compressibility (1/GPa) = 0.03539480
#
# Stress axis : x y z
#
# Youngs Moduli (GPa) = 31.64737 22.80288 75.18031
#
# Poissons Ratio (x) = 0.11212 0.23313
# Poissons Ratio (y) = 0.15561 1.40297
# Poissons Ratio (z) = 0.09814 0.42553
#
# Static dielectric constant tensor:
#      x y z
#    x 1.610960 0.000000 0.000000 
#    y 0.000000 1.562250 0.000000 
#    z 0.000000 0.000000 1.643430 
# 
# From -- ./inp_files/67322.got.cif
#   From: 2010.05.17/outbox.cif.g08.bks.cpg/sg65_34_cif.got.tgz:67322.got - 2010.06.03 17:01:31.
