data_PCOD9483647
_publ_section_title
;
Structure prediction by ZEFSAII (Michael W. Deem and Ramdas Pophale) SiO2 
 PCOD9483647
Probable space group: C M M M
;
_chemical_formula_sum "Si O2"
_cell_formula_units_Z 72
_cell_length_a 9.139636
_cell_length_b 25.736516
_cell_length_c 17.398881
_cell_angle_alpha 90.000000
_cell_angle_beta 90.000000
_cell_angle_gamma 90.000000
_cell_volume 4092.606340
_symmetry_space_group_name_H-M "C M M M"
_symmetry_group_IT_number 65
_symmetry_cell_setting 'orthorhombic'
loop_
_space_group_symop_operation_xyz
x,y,z
-x,-y,z
x,-y,-z
-x,y,-z
-x,-y,-z
x,y,-z
-x,y,z
x,-y,z
1/2+x,1/2+y,z
1/2-x,1/2-y,z
1/2+x,1/2-y,-z
1/2-x,1/2+y,-z
1/2-x,1/2-y,-z
1/2+x,1/2+y,-z
1/2-x,1/2+y,z
1/2+x,1/2-y,z
loop_
_atom_site_type_symbol
_atom_site_label
_atom_site_fract_x
_atom_site_fract_y
_atom_site_fract_z
Si Si1 0.829024 0.000000 0.215255
Si Si2 0.326546 0.000000 0.622613
Si Si3 0.825318 0.106431 0.621329
Si Si4 0.329076 0.614292 0.196443
Si Si5 0.324203 0.693788 0.500000
Si Si6 0.826204 0.304856 0.911351
O O1 0.809672 0.945907 0.172057
O O2 0.720451 0.000000 0.287398
O O3 0.000000 0.000000 0.244200
O O4 0.256177 0.054094 0.594174
O O5 0.500000 0.000000 0.611882
O O6 0.796994 0.115308 0.712053
O O7 0.785085 0.157378 0.572837
O O8 0.000000 0.098070 0.612331
O O9 0.500000 0.628052 0.186827
O O10 0.231446 0.652314 0.147146
O O11 0.500000 0.700734 0.500000
O O12 0.250000 0.750000 0.500000
O O13 0.750000 0.250000 0.894562
O O14 0.000000 0.299113 0.905508
O O15 0.789923 0.318736 0.000000
#
# Coordination Sequence:
#
# PCOD9483647 Si02
#       6
#     8   8  16  16   8  16
#     4   8  16  32  52  76 108 140 167 201 248 305
#     4  10  18  29  51  81 106 131 168 216 259 294
#     4   9  19  36  55  76 104 139 173 206 253 310
#     4   9  17  32  55  79 103 133 170 208 248 301
#     4  10  22  39  56  73 101 140 176 214 259 304
#     4  10  21  36  53  74 101 133 170 213 258 302
#
# _framework density 17.592700000000001
#
# number of rings (size 3 to 8) (size 9 to 14) (size 15 to 20)
#    0.000    2.667    0.000    3.000    0.000    7.111 
#    0.000    5.000    0.000    3.333    0.000    0.000 
#    0.000    0.000    0.000    0.000    0.000    0.000 
#
# Total GULP energy -200706.393958 kJ/mol
# GULP energy per Si atom -5575.177610 kJ/mol
# Density = 1.755266 g / cm^3
# Si number density = 17.592700 Si / 1000 Ang^3
#
#
#
# Elastic Constant Matrix: (Units=GPa)
#
#
# Indices 1 2 3 4 5 6 
#
# 1 65.9599 78.2538 47.8379 0.0000 0.0000 0.0000
# 2 78.2538 174.0409 74.4932 0.0000 0.0000 0.0000
# 3 47.8379 74.4932 63.7152 0.0000 0.0000 0.0000
# 4 0.0000 0.0000 0.0000 46.0232 0.0000 0.0000
# 5 0.0000 0.0000 0.0000 0.0000 19.0272 0.0000
# 6 0.0000 0.0000 0.0000 0.0000 0.0000 38.8548
#
#
#
# Elastic Compliance Matrix: (Units=1/GPa)
#
#
# Indices 1 2 3 4 5 6 
#
# 1 0.041133 -0.010561 -0.018536 0.000000 0.000000 0.000000
# 2 -0.010561 0.014213 -0.008688 0.000000 0.000000 0.000000
# 3 -0.018536 -0.008688 0.039769 0.000000 0.000000 0.000000
# 4 0.000000 0.000000 0.000000 0.021728 0.000000 0.000000
# 5 0.000000 0.000000 0.000000 0.000000 0.052556 0.000000
# 6 0.000000 0.000000 0.000000 0.000000 0.000000 0.025737
#
#
# Mechanical properties :
#
#
# Convention : Reuss Voigt Hill
#
# Bulk Modulus (GPa) = 51.16095 78.32064 64.74080
# Shear Modulus (GPa) = 18.03615 27.65644 22.84630
#
# Velocity S-wave (km/s) = 3.20536 3.96920 3.60755
# Velocity P-wave (km/s) = 6.54546 8.10071 7.36426
#
# Compressibility (1/GPa) = 0.01954616
#
# Stress axis : x y z
#
# Youngs Moduli (GPa) = 24.31116 70.35853 25.14525
#
# Poissons Ratio (x) = 0.74306 0.46608
# Poissons Ratio (y) = 0.25675 0.21846
# Poissons Ratio (z) = 0.45062 0.61126
#
# Static dielectric constant tensor:
#      x y z
#    x 1.588150 0.000000 0.000000 
#    y 0.000000 1.593850 0.000000 
#    z 0.000000 0.000000 1.602730 
# 
# From -- ./inp_files/59564.got.cif
#   From: 2010.05.17/outbox.cif.g08.bks.cpg/sg65_30_cif.got.tgz:59564.got - 2010.06.03 17:01:31.
