data_PCOD9483930
_publ_section_title
;
Structure prediction by ZEFSAII (Michael W. Deem and Ramdas Pophale) SiO2 
 PCOD9483930
Probable space group: C M M M
;
_chemical_formula_sum "Si O2"
_cell_formula_units_Z 88
_cell_length_a 7.603553
_cell_length_b 28.043257
_cell_length_c 23.555173
_cell_angle_alpha 90.000000
_cell_angle_beta 90.000000
_cell_angle_gamma 90.000000
_cell_volume 5022.631636
_symmetry_space_group_name_H-M "C M M M"
_symmetry_group_IT_number 65
_symmetry_cell_setting 'orthorhombic'
loop_
_space_group_symop_operation_xyz
x,y,z
-x,-y,z
x,-y,-z
-x,y,-z
-x,-y,-z
x,y,-z
-x,y,z
x,-y,z
1/2+x,1/2+y,z
1/2-x,1/2-y,z
1/2+x,1/2-y,-z
1/2-x,1/2+y,-z
1/2-x,1/2-y,-z
1/2+x,1/2+y,-z
1/2-x,1/2+y,z
1/2+x,1/2-y,z
loop_
_atom_site_type_symbol
_atom_site_label
_atom_site_fract_x
_atom_site_fract_y
_atom_site_fract_z
Si Si1 0.790699 0.805439 0.664899
Si Si2 0.789652 0.693708 0.000000
Si Si3 0.000000 0.555462 0.612272
Si Si4 0.289184 0.806479 0.875450
Si Si5 0.000000 0.555794 0.250650
Si Si6 0.789838 0.125579 0.433640
Si Si7 0.796662 0.129545 0.230825
O O1 0.750000 0.750000 0.669505
O O2 0.735654 0.829925 0.606034
O O3 0.726671 0.837080 0.717673
O O4 0.000000 0.808965 0.667222
O O5 0.750000 0.750000 0.000000
O O6 0.724970 0.677317 0.938226
O O7 0.000000 0.687067 0.000000
O O8 0.828575 0.581842 0.587494
O O9 0.000000 0.500000 0.596847
O O10 0.000000 0.559288 0.680624
O O11 0.500000 0.811489 0.873566
O O12 0.250000 0.750000 0.868236
O O13 0.212251 0.838245 0.825435
O O14 0.829461 0.584029 0.228151
O O15 0.000000 0.500000 0.235664
O O16 0.758479 0.134610 0.500000
O O17 0.000000 0.116933 0.426157
O O18 0.000000 0.116304 0.241818
#
# Coordination Sequence:
#
# PCOD9483930 Si02
#       7
#    16   8   8  16   8  16  16
#     4  10  22  35  54  80 110 148 187 226 272 326
#     4   8  16  28  44  72 116 159 196 233 271 323
#     4  11  23  40  65  88 107 142 188 235 293 342
#     4  10  18  30  50  81 120 161 197 233 278 332
#     4  11  24  41  64  86 112 147 183 239 299 341
#     4  10  22  40  57  80 116 148 182 229 278 336
#     4  11  22  38  58  84 114 146 189 234 283 342
#
# _framework density 17.520696000000001
#
# number of rings (size 3 to 8) (size 9 to 14) (size 15 to 20)
#    0.000    1.818    2.727    1.364    2.545    4.000 
#    0.000    2.727    0.000    0.000    0.000    1.273 
#    0.000    1.455    0.000    0.000    0.000    0.000 
#
# Total GULP energy -245480.194076 kJ/mol
# GULP energy per Si atom -5579.095320 kJ/mol
# Density = 1.748082 g / cm^3
# Si number density = 17.520696 Si / 1000 Ang^3
#
#
#
# Elastic Constant Matrix: (Units=GPa)
#
#
# Indices 1 2 3 4 5 6 
#
# 1 75.2550 40.3982 23.8504 0.0000 0.0000 0.0000
# 2 40.3982 128.5931 53.2596 0.0000 0.0000 0.0000
# 3 23.8504 53.2596 110.0358 0.0000 0.0000 0.0000
# 4 0.0000 0.0000 0.0000 20.0946 0.0000 0.0000
# 5 0.0000 0.0000 0.0000 0.0000 22.0188 0.0000
# 6 0.0000 0.0000 0.0000 0.0000 0.0000 24.7475
#
#
#
# Elastic Compliance Matrix: (Units=1/GPa)
#
#
# Indices 1 2 3 4 5 6 
#
# 1 0.016132 -0.004527 -0.001305 0.000000 0.000000 0.000000
# 2 -0.004527 0.010997 -0.004341 0.000000 0.000000 0.000000
# 3 -0.001305 -0.004341 0.011472 0.000000 0.000000 0.000000
# 4 0.000000 0.000000 0.000000 0.049765 0.000000 0.000000
# 5 0.000000 0.000000 0.000000 0.000000 0.045416 0.000000
# 6 0.000000 0.000000 0.000000 0.000000 0.000000 0.040408
#
#
# Mechanical properties :
#
#
# Convention : Reuss Voigt Hill
#
# Bulk Modulus (GPa) = 54.78530 60.98891 57.88711
# Shear Modulus (GPa) = 24.92244 26.46388 25.69316
#
# Velocity S-wave (km/s) = 3.77564 3.89065 3.83358
# Velocity P-wave (km/s) = 7.09535 7.42079 7.25989
#
# Compressibility (1/GPa) = 0.01825307
#
# Stress axis : x y z
#
# Youngs Moduli (GPa) = 61.98770 90.93518 87.16727
#
# Poissons Ratio (x) = 0.41170 0.11378
# Poissons Ratio (y) = 0.28064 0.37843
# Poissons Ratio (z) = 0.08091 0.39478
#
# Static dielectric constant tensor:
#      x y z
#    x 1.617460 0.000000 0.000000 
#    y 0.000000 1.562690 0.000000 
#    z 0.000000 0.000000 1.629980 
# 
# From -- ./inp_files/59870.got.cif
#   From: 2010.05.17/outbox.cif.g08.bks.cpg/sg65_30_cif.got.tgz:59870.got - 2010.06.03 17:01:31.
