data_PCOD9483627
_publ_section_title
;
Structure prediction by ZEFSAII (Michael W. Deem and Ramdas Pophale) SiO2 
 PCOD9483627
Probable space group: C M M M
;
_chemical_formula_sum "Si O2"
_cell_formula_units_Z 88
_cell_length_a 10.365071
_cell_length_b 24.418706
_cell_length_c 20.714108
_cell_angle_alpha 90.000000
_cell_angle_beta 90.000000
_cell_angle_gamma 90.000000
_cell_volume 5242.774321
_symmetry_space_group_name_H-M "C M M M"
_symmetry_group_IT_number 65
_symmetry_cell_setting 'orthorhombic'
loop_
_space_group_symop_operation_xyz
x,y,z
-x,-y,z
x,-y,-z
-x,y,-z
-x,-y,-z
x,y,-z
-x,y,z
x,-y,z
1/2+x,1/2+y,z
1/2-x,1/2-y,z
1/2+x,1/2-y,-z
1/2-x,1/2+y,-z
1/2-x,1/2-y,-z
1/2+x,1/2+y,-z
1/2-x,1/2+y,z
1/2+x,1/2-y,z
loop_
_atom_site_type_symbol
_atom_site_label
_atom_site_fract_x
_atom_site_fract_y
_atom_site_fract_z
Si Si1 0.355910 0.361755 0.131751
Si Si2 0.155050 0.118605 0.621427
Si Si3 0.656027 0.302608 0.500000
Si Si4 0.842513 0.000000 0.576060
Si Si5 0.346364 0.300508 0.734939
Si Si6 0.146995 0.565459 0.075214
Si Si7 0.138526 0.793031 0.000000
O O1 0.500000 0.385633 0.139842
O O2 0.333434 0.321774 0.191850
O O3 0.246620 0.406795 0.123147
O O4 0.354585 0.328727 0.064642
O O5 0.183963 0.159467 0.562191
O O6 0.203506 0.056867 0.608436
O O7 0.190847 0.149763 0.687028
O O8 0.000000 0.113704 0.622750
O O9 0.500000 0.289557 0.500000
O O10 0.750000 0.250000 0.500000
O O11 0.808988 0.000000 0.500000
O O12 0.000000 0.000000 0.578619
O O13 0.500000 0.287358 0.724152
O O14 0.250000 0.250000 0.723564
O O15 0.151388 0.500000 0.080640
O O16 0.000000 0.583597 0.087049
O O17 0.177880 0.578525 0.000000
O O18 0.250000 0.750000 0.000000
O O19 0.000000 0.764041 0.000000
#
# Coordination Sequence:
#
# PCOD9483627 Si02
#       7
#    16  16   8   8  16  16   8
#     4  10  20  34  50  72 102 132 169 215 261 309
#     4   9  17  30  49  75 106 135 170 212 255 306
#     4  10  18  29  49  77 105 134 169 210 250 298
#     4   9  14  26  50  78 106 135 167 212 263 302
#     4  10  21  36  52  75 106 139 175 215 260 314
#     4   9  18  33  53  76 100 128 166 209 254 310
#     4  10  20  32  47  68  93 123 162 207 253 304
#
# _framework density 16.785007
#
# number of rings (size 3 to 8) (size 9 to 14) (size 15 to 20)
#    0.000    2.455    1.818    1.636    0.000    1.818 
#    1.636    0.909    0.000    0.000    0.000    2.545 
#    0.000    0.000    0.000    0.000    0.000    0.000 
#
# Total GULP energy -245063.665728 kJ/mol
# GULP energy per Si atom -5569.628767 kJ/mol
# Density = 1.674680 g / cm^3
# Si number density = 16.785007 Si / 1000 Ang^3
#
#
#
# Elastic Constant Matrix: (Units=GPa)
#
#
# Indices 1 2 3 4 5 6 
#
# 1 69.9496 58.7938 18.3223 0.0000 0.0000 0.0000
# 2 58.7938 115.5571 51.4069 0.0000 0.0000 0.0000
# 3 18.3223 51.4069 97.8812 0.0000 0.0000 0.0000
# 4 0.0000 0.0000 0.0000 20.3882 0.0000 0.0000
# 5 0.0000 0.0000 0.0000 0.0000 7.8491 0.0000
# 6 0.0000 0.0000 0.0000 0.0000 0.0000 32.7437
#
#
#
# Elastic Compliance Matrix: (Units=1/GPa)
#
#
# Indices 1 2 3 4 5 6 
#
# 1 0.025498 -0.014158 0.002663 0.000000 0.000000 0.000000
# 2 -0.014158 0.019153 -0.007409 0.000000 0.000000 0.000000
# 3 0.002663 -0.007409 0.013609 0.000000 0.000000 0.000000
# 4 0.000000 0.000000 0.000000 0.049048 0.000000 0.000000
# 5 0.000000 0.000000 0.000000 0.000000 0.127404 0.000000
# 6 0.000000 0.000000 0.000000 0.000000 0.000000 0.030540
#
#
# Mechanical properties :
#
#
# Convention : Reuss Voigt Hill
#
# Bulk Modulus (GPa) = 48.89398 60.04822 54.47110
# Shear Modulus (GPa) = 16.13541 22.52052 19.32797
#
# Velocity S-wave (km/s) = 3.10385 3.66690 3.39706
# Velocity P-wave (km/s) = 6.48367 7.33354 6.92166
#
# Compressibility (1/GPa) = 0.02045242
#
# Stress axis : x y z
#
# Youngs Moduli (GPa) = 39.21825 52.21157 73.47989
#
# Poissons Ratio (x) = 0.73919 -0.19564
# Poissons Ratio (y) = 0.55524 0.54440
# Poissons Ratio (z) = -0.10442 0.38683
#
# Static dielectric constant tensor:
#      x y z
#    x 1.577860 0.000000 0.000000 
#    y 0.000000 1.562680 0.000000 
#    z 0.000000 0.000000 1.586100 
# 
# From -- ./inp_files/51482.got.cif
#   From: 2010.05.17/outbox.cif.g08.bks.cpg/sg65_26_cif.got.tgz:51482.got - 2010.06.03 17:01:31.
