data_PCOD9483249
_publ_section_title
;
Structure prediction by ZEFSAII (Michael W. Deem and Ramdas Pophale) SiO2 
 PCOD9483249
Probable space group: C M M M
;
_chemical_formula_sum "Si O2"
_cell_formula_units_Z 104
_cell_length_a 14.411884
_cell_length_b 27.788469
_cell_length_c 12.251025
_cell_angle_alpha 90.000000
_cell_angle_beta 90.000000
_cell_angle_gamma 90.000000
_cell_volume 4906.341845
_symmetry_space_group_name_H-M "C M M M"
_symmetry_group_IT_number 65
_symmetry_cell_setting 'orthorhombic'
loop_
_space_group_symop_operation_xyz
x,y,z
-x,-y,z
x,-y,-z
-x,y,-z
-x,-y,-z
x,y,-z
-x,y,z
x,-y,z
1/2+x,1/2+y,z
1/2-x,1/2-y,z
1/2+x,1/2-y,-z
1/2-x,1/2+y,-z
1/2-x,1/2-y,-z
1/2+x,1/2+y,-z
1/2-x,1/2+y,z
1/2+x,1/2-y,z
loop_
_atom_site_type_symbol
_atom_site_label
_atom_site_fract_x
_atom_site_fract_y
_atom_site_fract_z
Si Si1 0.316089 0.945764 0.500000
Si Si2 0.360561 0.760077 0.737578
Si Si3 0.150873 0.648854 0.124665
Si Si4 0.602404 0.266779 0.500000
Si Si5 0.600572 0.417569 0.278939
Si Si6 0.183601 0.446693 0.742271
Si Si7 0.628907 0.331489 0.876221
Si Si8 0.155594 0.130778 0.500000
O O1 0.360247 0.943377 0.379775
O O2 0.248833 0.900206 0.500000
O O3 0.270704 0.000000 0.500000
O O4 0.250000 0.750000 0.738615
O O5 0.388513 0.808038 0.801846
O O6 0.387766 0.762009 0.611333
O O7 0.397718 0.713003 0.799724
O O8 0.148806 0.597185 0.183830
O O9 0.259630 0.663334 0.120343
O O10 0.116326 0.647520 0.000000
O O11 0.500000 0.289727 0.500000
O O12 0.671201 0.312296 0.500000
O O13 0.500000 0.443696 0.281465
O O14 0.702557 0.442626 0.271721
O O15 0.597989 0.381034 0.177889
O O16 0.606070 0.385945 0.389453
O O17 0.164098 0.500000 0.786541
O O18 0.598878 0.324296 0.000000
#
# Coordination Sequence:
#
# PCOD9483249 Si02
#       8
#     8  16  16   8  16  16  16   8
#     4   8  16  29  45  64  92 130 173 216 256 298
#     4  10  20  33  51  74  98 130 170 211 252 307
#     4   9  18  32  50  70  92 123 165 210 257 307
#     4  12  23  34  49  75 108 137 166 207 262 314
#     4  10  18  28  43  63  92 135 179 213 248 294
#     4   9  18  31  47  69  98 130 166 216 265 300
#     4   9  17  29  44  63  90 123 163 213 257 289
#     4  10  18  29  46  63  91 131 174 221 258 293
#
# _framework density 21.197057000000001
#
# number of rings (size 3 to 8) (size 9 to 14) (size 15 to 20)
#    0.000    2.462    1.538    1.385    2.154    3.385 
#    0.000    0.000    0.000    7.154    0.000    4.308 
#    0.000    1.231    0.000    1.385    0.000    0.000 
#
# Total GULP energy -289782.044112 kJ/mol
# GULP energy per Si atom -5572.731618 kJ/mol
# Density = 2.114881 g / cm^3
# Si number density = 21.197057 Si / 1000 Ang^3
#
#
#
# Elastic Constant Matrix: (Units=GPa)
#
#
# Indices 1 2 3 4 5 6 
#
# 1 31.1323 -6.2463 -0.9364 0.0000 0.0000 0.0000
# 2 -6.2463 138.7647 78.9890 0.0000 0.0000 0.0000
# 3 -0.9364 78.9890 172.6391 0.0000 0.0000 0.0000
# 4 0.0000 0.0000 0.0000 15.8109 0.0000 0.0000
# 5 0.0000 0.0000 0.0000 0.0000 32.9903 0.0000
# 6 0.0000 0.0000 0.0000 0.0000 0.0000 -7.2455
#
#
#
# Elastic Compliance Matrix: (Units=1/GPa)
#
#
# Indices 1 2 3 4 5 6 
#
# 1 0.032470 0.001841 -0.000666 0.000000 0.000000 0.000000
# 2 0.001841 0.009849 -0.004496 0.000000 0.000000 0.000000
# 3 -0.000666 -0.004496 0.007846 0.000000 0.000000 0.000000
# 4 0.000000 0.000000 0.000000 0.063247 0.000000 0.000000
# 5 0.000000 0.000000 0.000000 0.000000 0.030312 0.000000
# 6 0.000000 0.000000 0.000000 0.000000 0.000000 -0.138016
#
#
# Mechanical properties :
#
#
# Convention : Reuss Voigt Hill
#
# Bulk Modulus (GPa) = 22.97693 54.01653 38.49673
# Shear Modulus (GPa) = 186.16340 26.35979 106.26160
#
# Velocity S-wave (km/s) = 9.38167 3.53024 7.08796
# Velocity P-wave (km/s) = 11.32332 6.49270 9.22965
#
# Compressibility (1/GPa) = 0.04352191
#
# Stress axis : x y z
#
# Youngs Moduli (GPa) = 30.79742 101.53680 127.45381
#
# Poissons Ratio (x) = -0.18691 0.08490
# Poissons Ratio (y) = -0.05669 0.57305
# Poissons Ratio (z) = 0.02051 0.45652
#
# Static dielectric constant tensor:
#      x y z
#    x 1.850430 0.000000 0.000000 
#    y 0.000000 1.733190 0.000000 
#    z 0.000000 0.000000 1.751830 
# 
# From -- ./inp_files/27548.got.cif
#   From: 2010.05.17/outbox.cif.g08.bks.cpg/sg65_14_cif.got.tgz:27548.got - 2010.06.03 17:01:31.
