data_PCOD9483571
_publ_section_title
;
Structure prediction by ZEFSAII (Michael W. Deem and Ramdas Pophale) SiO2 
 PCOD9483571
Probable space group: C M M M
;
_chemical_formula_sum "Si O2"
_cell_formula_units_Z 96
_cell_length_a 8.470286
_cell_length_b 28.328975
_cell_length_c 24.508488
_cell_angle_alpha 90.000000
_cell_angle_beta 90.000000
_cell_angle_gamma 90.000000
_cell_volume 5880.922482
_symmetry_space_group_name_H-M "C M M M"
_symmetry_group_IT_number 65
_symmetry_cell_setting 'orthorhombic'
loop_
_space_group_symop_operation_xyz
x,y,z
-x,-y,z
x,-y,-z
-x,y,-z
-x,-y,-z
x,y,-z
-x,y,z
x,-y,z
1/2+x,1/2+y,z
1/2-x,1/2-y,z
1/2+x,1/2-y,-z
1/2-x,1/2+y,-z
1/2-x,1/2-y,-z
1/2+x,1/2+y,-z
1/2-x,1/2+y,z
1/2+x,1/2-y,z
loop_
_atom_site_type_symbol
_atom_site_label
_atom_site_fract_x
_atom_site_fract_y
_atom_site_fract_z
Si Si1 0.688840 0.111710 0.666110
Si Si2 0.812582 0.802416 0.268751
Si Si3 0.690725 0.802636 0.061941
Si Si4 0.188552 0.054317 0.768715
Si Si5 0.692410 0.945820 0.438179
Si Si6 0.689151 0.139506 0.834139
O O1 0.500000 0.117635 0.664690
O O2 0.765695 0.161057 0.683630
O O3 0.731230 0.074987 0.714251
O O4 0.744488 0.089704 0.608923
O O5 0.750000 0.750000 0.278489
O O6 0.737244 0.824079 0.213677
O O7 0.000000 0.801853 0.262241
O O8 0.500000 0.801786 0.062596
O O9 0.750000 0.750000 0.075080
O O10 0.742891 0.839283 0.108115
O O11 0.742170 0.813916 0.000000
O O12 0.238036 0.089464 0.817129
O O13 0.000000 0.057143 0.761535
O O14 0.233080 0.000000 0.777835
O O15 0.741830 0.933964 0.500000
O O16 0.500000 0.945638 0.437601
O O17 0.740849 0.000000 0.426509
O O18 0.500000 0.135213 0.834295
#
# Coordination Sequence:
#
# PCOD9483571 Si02
#       6
#    16  16  16  16  16  16
#     4  10  18  29  48  72  95 121 154 189 227 273
#     4  11  21  33  48  67  94 123 153 190 230 273
#     4   9  18  31  47  69  95 121 149 183 224 270
#     4  10  20  32  46  66  94 125 155 190 231 272
#     4   8  14  25  43  69  98 124 150 183 223 267
#     4  10  19  31  49  71  94 121 153 188 227 273
#
# _framework density 16.323969999999999
#
# number of rings (size 3 to 8) (size 9 to 14) (size 15 to 20)
#    0.000    2.333    0.000    6.500    0.000    4.667 
#    0.000    0.000    0.000    3.000    0.000    9.333 
#    0.000    0.000    0.000    0.000    0.000    0.000 
#
# Total GULP energy -267732.000328 kJ/mol
# GULP energy per Si atom -5577.750007 kJ/mol
# Density = 1.628682 g / cm^3
# Si number density = 16.323970 Si / 1000 Ang^3
#
#
#
# Elastic Constant Matrix: (Units=GPa)
#
#
# Indices 1 2 3 4 5 6 
#
# 1 21.5128 5.0255 -6.6306 0.0000 0.0000 0.0000
# 2 5.0255 122.5430 53.2623 0.0000 0.0000 0.0000
# 3 -6.6306 53.2623 79.9856 0.0000 0.0000 0.0000
# 4 0.0000 0.0000 0.0000 23.2997 0.0000 0.0000
# 5 0.0000 0.0000 0.0000 0.0000 6.2695 0.0000
# 6 0.0000 0.0000 0.0000 0.0000 0.0000 24.4165
#
#
#
# Elastic Compliance Matrix: (Units=1/GPa)
#
#
# Indices 1 2 3 4 5 6 
#
# 1 0.050152 -0.005437 0.007778 0.000000 0.000000 0.000000
# 2 -0.005437 0.012074 -0.008491 0.000000 0.000000 0.000000
# 3 0.007778 -0.008491 0.018801 0.000000 0.000000 0.000000
# 4 0.000000 0.000000 0.000000 0.042919 0.000000 0.000000
# 5 0.000000 0.000000 0.000000 0.000000 0.159502 0.000000
# 6 0.000000 0.000000 0.000000 0.000000 0.000000 0.040956
#
#
# Mechanical properties :
#
#
# Convention : Reuss Voigt Hill
#
# Bulk Modulus (GPa) = 14.55042 36.37285 25.46164
# Shear Modulus (GPa) = 13.90388 22.28942 18.09665
#
# Velocity S-wave (km/s) = 2.92163 3.69920 3.33317
# Velocity P-wave (km/s) = 4.50712 6.36990 5.51769
#
# Compressibility (1/GPa) = 0.06872652
#
# Stress axis : x y z
#
# Youngs Moduli (GPa) = 19.93957 82.82406 53.18871
#
# Poissons Ratio (x) = 0.45035 -0.41371
# Poissons Ratio (y) = 0.10842 0.45161
# Poissons Ratio (z) = -0.15509 0.70323
#
# Static dielectric constant tensor:
#      x y z
#    x 1.552980 0.000000 0.000000 
#    y 0.000000 1.531900 0.000000 
#    z 0.000000 0.000000 1.552370 
# 
# From -- ./inp_files/68067.got.cif
#   From: 2010.05.17/outbox.cif.g08.bks.cpg/sg65_35_cif.got.tgz:68067.got - 2010.06.03 17:01:31.
