data_PCOD9483618
_publ_section_title
;
Structure prediction by ZEFSAII (Michael W. Deem and Ramdas Pophale) SiO2 
 PCOD9483618
Probable space group: C M M M
;
_chemical_formula_sum "Si O2"
_cell_formula_units_Z 96
_cell_length_a 14.767371
_cell_length_b 15.506590
_cell_length_c 20.197606
_cell_angle_alpha 90.000000
_cell_angle_beta 90.000000
_cell_angle_gamma 90.000000
_cell_volume 4625.081457
_symmetry_space_group_name_H-M "C M M M"
_symmetry_group_IT_number 65
_symmetry_cell_setting 'orthorhombic'
loop_
_space_group_symop_operation_xyz
x,y,z
-x,-y,z
x,-y,-z
-x,y,-z
-x,-y,-z
x,y,-z
-x,y,z
x,-y,z
1/2+x,1/2+y,z
1/2-x,1/2-y,z
1/2+x,1/2-y,-z
1/2-x,1/2+y,-z
1/2-x,1/2-y,-z
1/2+x,1/2+y,-z
1/2-x,1/2+y,z
1/2+x,1/2-y,z
loop_
_atom_site_type_symbol
_atom_site_label
_atom_site_fract_x
_atom_site_fract_y
_atom_site_fract_z
Si Si1 0.898645 0.721237 0.821712
Si Si2 0.359235 0.752555 0.331287
Si Si3 0.858269 0.595437 0.575669
Si Si4 0.301481 0.899488 0.073336
Si Si5 0.899813 0.904410 0.887654
Si Si6 0.862305 0.900871 0.575421
O O1 0.883362 0.723252 0.743443
O O2 0.833964 0.663275 0.867936
O O3 0.893802 0.821840 0.841059
O O4 0.000000 0.689899 0.836319
O O5 0.250000 0.750000 0.332955
O O6 0.391289 0.829300 0.378150
O O7 0.390773 0.663836 0.366246
O O8 0.886853 0.607102 0.500000
O O9 0.884739 0.500000 0.598144
O O10 0.747957 0.598617 0.575575
O O11 0.192086 0.898611 0.071094
O O12 0.327734 0.000000 0.085168
O O13 0.335430 0.873092 0.000000
O O14 0.000000 0.899535 0.920167
O O15 0.896312 0.000000 0.855368
O O16 0.888440 0.874134 0.500000
O O17 0.891082 0.000000 0.585326
#
# Coordination Sequence:
#
# PCOD9483618 Si02
#       6
#    16  16  16  16  16  16
#     4  11  24  39  55  80 116 159 204 246 287 334
#     4  10  18  29  49  75 102 137 183 235 290 342
#     4   8  14  25  43  70 101 131 170 225 288 349
#     4  10  22  41  65  90 115 147 189 238 292 350
#     4   9  19  37  61  90 122 150 178 222 285 354
#     4   8  14  25  44  74 108 138 174 226 288 351
#
# _framework density 20.756391000000001
#
# number of rings (size 3 to 8) (size 9 to 14) (size 15 to 20)
#    0.000    2.667    0.000    3.000    0.000    5.667 
#    0.000    7.500    0.000    2.000    0.000    2.333 
#    0.000    0.000    0.000    0.000    0.000    0.000 
#
# Total GULP energy -267515.582816 kJ/mol
# GULP energy per Si atom -5573.241309 kJ/mol
# Density = 2.070915 g / cm^3
# Si number density = 20.756391 Si / 1000 Ang^3
#
#
#
# Elastic Constant Matrix: (Units=GPa)
#
#
# Indices 1 2 3 4 5 6 
#
# 1 91.2715 30.1894 24.1789 0.0000 0.0000 0.0000
# 2 30.1894 135.5349 94.1118 0.0000 0.0000 0.0000
# 3 24.1789 94.1118 121.5423 0.0000 0.0000 0.0000
# 4 0.0000 0.0000 0.0000 12.8316 0.0000 0.0000
# 5 0.0000 0.0000 0.0000 0.0000 2.4528 0.0000
# 6 0.0000 0.0000 0.0000 0.0000 0.0000 9.9049
#
#
#
# Elastic Compliance Matrix: (Units=1/GPa)
#
#
# Indices 1 2 3 4 5 6 
#
# 1 0.011854 -0.002169 -0.000678 0.000000 0.000000 0.000000
# 2 -0.002169 0.016355 -0.012233 0.000000 0.000000 0.000000
# 3 -0.000678 -0.012233 0.017834 0.000000 0.000000 0.000000
# 4 0.000000 0.000000 0.000000 0.077933 0.000000 0.000000
# 5 0.000000 0.000000 0.000000 0.000000 0.407698 0.000000
# 6 0.000000 0.000000 0.000000 0.000000 0.000000 0.100960
#
#
# Mechanical properties :
#
#
# Convention : Reuss Voigt Hill
#
# Bulk Modulus (GPa) = 62.96119 71.70099 67.33109
# Shear Modulus (GPa) = 7.48403 18.36243 12.92323
#
# Velocity S-wave (km/s) = 1.90091 2.97756 2.49793
# Velocity P-wave (km/s) = 5.93441 6.81470 6.38973
#
# Compressibility (1/GPa) = 0.01588280
#
# Stress axis : x y z
#
# Youngs Moduli (GPa) = 84.36296 61.14195 56.07118
#
# Poissons Ratio (x) = 0.13263 0.03804
# Poissons Ratio (y) = 0.18300 0.68590
# Poissons Ratio (z) = 0.05723 0.74793
#
# Static dielectric constant tensor:
#      x y z
#    x 1.796950 0.000000 0.000000 
#    y 0.000000 1.731370 0.000000 
#    z 0.000000 0.000000 1.714120 
# 
# From -- ./inp_files/62599.got.cif
#   From: 2010.05.17/outbox.cif.g08.bks.cpg/sg65_32_cif.got.tgz:62599.got - 2010.06.03 17:01:31.
