data_PCOD9483934
_publ_section_title
;
Structure prediction by ZEFSAII (Michael W. Deem and Ramdas Pophale) SiO2 
 PCOD9483934
Probable space group: C M M M
;
_chemical_formula_sum "Si O2"
_cell_formula_units_Z 88
_cell_length_a 18.871032
_cell_length_b 8.525674
_cell_length_c 30.259811
_cell_angle_alpha 90.000000
_cell_angle_beta 90.000000
_cell_angle_gamma 90.000000
_cell_volume 4868.448548
_symmetry_space_group_name_H-M "C M M M"
_symmetry_group_IT_number 65
_symmetry_cell_setting 'orthorhombic'
loop_
_space_group_symop_operation_xyz
x,y,z
-x,-y,z
x,-y,-z
-x,y,-z
-x,-y,-z
x,y,-z
-x,y,z
x,-y,z
1/2+x,1/2+y,z
1/2-x,1/2-y,z
1/2+x,1/2-y,-z
1/2-x,1/2+y,-z
1/2-x,1/2-y,-z
1/2+x,1/2+y,-z
1/2-x,1/2+y,z
1/2+x,1/2-y,z
loop_
_atom_site_type_symbol
_atom_site_label
_atom_site_fract_x
_atom_site_fract_y
_atom_site_fract_z
Si Si1 0.169800 0.310373 0.225274
Si Si2 0.418246 0.188957 0.140833
Si Si3 0.915384 0.187840 0.952049
Si Si4 0.918601 0.191526 0.500000
Si Si5 0.830488 0.187853 0.585610
Si Si6 0.830859 0.312014 0.322045
O O1 0.171370 0.500000 0.224295
O O2 0.250000 0.250000 0.222030
O O3 0.124974 0.254662 0.183364
O O4 0.139582 0.265960 0.273803
O O5 0.500000 0.243210 0.143774
O O6 0.387422 0.241445 0.093515
O O7 0.418760 0.000000 0.141518
O O8 0.000000 0.222532 0.952357
O O9 0.907938 0.000000 0.950373
O O10 0.887205 0.242516 0.000000
O O11 0.876834 0.241300 0.543967
O O12 0.000000 0.243396 0.500000
O O13 0.918645 0.000000 0.500000
O O14 0.750000 0.250000 0.581390
O O15 0.861596 0.244036 0.632662
O O16 0.827566 0.000000 0.585888
O O17 0.830452 0.500000 0.325125
O O18 0.750000 0.250000 0.321316
#
# Coordination Sequence:
#
# PCOD9483934 Si02
#       6
#    16  16  16   8  16  16
#     4   9  18  31  47  67  91 121 152 183 222 266
#     4   9  17  29  45  66  91 117 147 183 223 268
#     4   8  14  25  41  62  88 116 146 182 224 266
#     4   9  19  34  49  67  94 127 156 182 220 269
#     4  10  18  30  51  73  92 116 150 191 227 262
#     4   9  16  28  46  68  93 118 149 187 224 263
#
# _framework density 18.075574
#
# number of rings (size 3 to 8) (size 9 to 14) (size 15 to 20)
#    0.000    3.000    0.000    3.000    0.000    1.818 
#    0.000    4.091    0.000    6.000    0.000    0.000 
#    0.000    0.000    0.000    0.000    0.000    0.000 
#
# Total GULP energy -244949.547425 kJ/mol
# GULP energy per Si atom -5567.035169 kJ/mol
# Density = 1.803443 g / cm^3
# Si number density = 18.075574 Si / 1000 Ang^3
#
#
#
# Elastic Constant Matrix: (Units=GPa)
#
#
# Indices 1 2 3 4 5 6 
#
# 1 43.2986 9.1852 64.9300 0.0000 0.0000 0.0000
# 2 9.1852 20.1798 33.3468 0.0000 0.0000 0.0000
# 3 64.9300 33.3468 239.9379 0.0000 0.0000 0.0000
# 4 0.0000 0.0000 0.0000 54.4025 0.0000 0.0000
# 5 0.0000 0.0000 0.0000 0.0000 38.6841 0.0000
# 6 0.0000 0.0000 0.0000 0.0000 0.0000 10.9100
#
#
#
# Elastic Compliance Matrix: (Units=1/GPa)
#
#
# Indices 1 2 3 4 5 6 
#
# 1 0.038871 -0.000403 -0.010463 0.000000 0.000000 0.000000
# 2 -0.000403 0.064333 -0.008832 0.000000 0.000000 0.000000
# 3 -0.010463 -0.008832 0.008227 0.000000 0.000000 0.000000
# 4 0.000000 0.000000 0.000000 0.018382 0.000000 0.000000
# 5 0.000000 0.000000 0.000000 0.000000 0.025850 0.000000
# 6 0.000000 0.000000 0.000000 0.000000 0.000000 0.091659
#
#
# Mechanical properties :
#
#
# Convention : Reuss Voigt Hill
#
# Bulk Modulus (GPa) = 13.88227 57.59337 35.73782
# Shear Modulus (GPa) = 16.09120 33.86292 24.97706
#
# Velocity S-wave (km/s) = 2.98689 4.33298 3.72131
# Velocity P-wave (km/s) = 4.42630 7.54750 6.18696
#
# Compressibility (1/GPa) = 0.07203431
#
# Stress axis : x y z
#
# Youngs Moduli (GPa) = 25.72610 15.54423 121.55680
#
# Poissons Ratio (x) = 0.00627 1.27184
# Poissons Ratio (y) = 0.01037 1.07358
# Poissons Ratio (z) = 0.26917 0.13729
#
# Static dielectric constant tensor:
#      x y z
#    x 1.592490 0.000000 0.000000 
#    y 0.000000 1.619890 0.000000 
#    z 0.000000 0.000000 1.687730 
# 
# From -- ./inp_files/78146.got.cif
#   From: 2010.05.17/outbox.cif.g08.bks.cpg/sg65_40_cif.got.tgz:78146.got - 2010.06.03 17:01:31.
