data_PCOD9483628
_publ_section_title
;
Structure prediction by ZEFSAII (Michael W. Deem and Ramdas Pophale) SiO2 
 PCOD9483628
Probable space group: C M M M
;
_chemical_formula_sum "Si O2"
_cell_formula_units_Z 104
_cell_length_a 8.554151
_cell_length_b 29.389095
_cell_length_c 23.772208
_cell_angle_alpha 90.000000
_cell_angle_beta 90.000000
_cell_angle_gamma 90.000000
_cell_volume 5976.303528
_symmetry_space_group_name_H-M "C M M M"
_symmetry_group_IT_number 65
_symmetry_cell_setting 'orthorhombic'
loop_
_space_group_symop_operation_xyz
x,y,z
-x,-y,z
x,-y,-z
-x,y,-z
-x,-y,-z
x,y,-z
-x,y,z
x,-y,z
1/2+x,1/2+y,z
1/2-x,1/2-y,z
1/2+x,1/2-y,-z
1/2-x,1/2+y,-z
1/2-x,1/2-y,-z
1/2+x,1/2+y,-z
1/2-x,1/2+y,z
1/2+x,1/2-y,z
loop_
_atom_site_type_symbol
_atom_site_label
_atom_site_fract_x
_atom_site_fract_y
_atom_site_fract_z
Si Si1 0.311661 0.299049 0.849419
Si Si2 0.812777 0.895689 0.891141
Si Si3 0.186955 0.799092 0.281326
Si Si4 0.809398 0.552422 0.436431
Si Si5 0.187097 0.552489 0.000000
Si Si6 0.311106 0.946950 0.781423
Si Si7 0.688865 0.109133 0.329503
O O1 0.500000 0.297741 0.849984
O O2 0.250000 0.250000 0.868457
O O3 0.260245 0.343097 0.884487
O O4 0.261709 0.305694 0.784072
O O5 0.744196 0.921223 0.944795
O O6 0.762164 0.921789 0.834682
O O7 0.000000 0.895917 0.895131
O O8 0.250000 0.750000 0.299498
O O9 0.249238 0.840548 0.318072
O O10 0.000000 0.798836 0.282053
O O11 0.759931 0.564328 0.500000
O O12 0.763584 0.500000 0.425011
O O13 0.756233 0.585931 0.387310
O O14 0.000000 0.552958 0.436021
O O15 0.243444 0.500000 0.000000
O O16 0.000000 0.551553 0.000000
O O17 0.500000 0.944401 0.785968
O O18 0.264596 0.922008 0.723758
O O19 0.267475 0.000000 0.780430
O O20 0.500000 0.110370 0.330488
#
# Coordination Sequence:
#
# PCOD9483628 Si02
#       7
#    16  16  16  16   8  16  16
#     4   9  19  34  54  79 106 134 168 209 255 310
#     4  11  22  38  57  80 106 136 174 216 260 309
#     4  10  19  33  51  75 106 137 171 212 261 316
#     4   8  14  26  46  73 105 141 181 222 260 304
#     4  11  25  43  60  79 104 139 182 219 254 305
#     4  10  20  32  48  74 107 139 171 211 258 309
#     4  10  18  29  49  77 106 137 174 216 264 312
#
# _framework density 17.402059999999999
#
# number of rings (size 3 to 8) (size 9 to 14) (size 15 to 20)
#    0.000    2.231    1.538    2.538    0.000    6.462 
#    0.000    0.385    0.000    2.308    0.000    1.077 
#    0.000    0.000    0.000    0.000    0.000    0.000 
#
# Total GULP energy -290181.551549 kJ/mol
# GULP energy per Si atom -5580.414453 kJ/mol
# Density = 1.736245 g / cm^3
# Si number density = 17.402060 Si / 1000 Ang^3
#
#
#
# Elastic Constant Matrix: (Units=GPa)
#
#
# Indices 1 2 3 4 5 6 
#
# 1 16.3502 33.4300 29.4883 0.0000 0.0000 0.0000
# 2 33.4300 189.4751 102.8912 0.0000 0.0000 0.0000
# 3 29.4883 102.8912 132.5411 0.0000 0.0000 0.0000
# 4 0.0000 0.0000 0.0000 29.6884 0.0000 0.0000
# 5 0.0000 0.0000 0.0000 0.0000 -3.4041 0.0000
# 6 0.0000 0.0000 0.0000 0.0000 0.0000 25.7102
#
#
#
# Elastic Compliance Matrix: (Units=1/GPa)
#
#
# Indices 1 2 3 4 5 6 
#
# 1 0.113944 -0.010956 -0.016846 0.000000 0.000000 0.000000
# 2 -0.010956 0.010177 -0.005463 0.000000 0.000000 0.000000
# 3 -0.016846 -0.005463 0.015534 0.000000 0.000000 0.000000
# 4 0.000000 0.000000 0.000000 0.033683 0.000000 0.000000
# 5 0.000000 0.000000 0.000000 0.000000 -0.293762 0.000000
# 6 0.000000 0.000000 0.000000 0.000000 0.000000 0.038895
#
#
# Mechanical properties :
#
#
# Convention : Reuss Voigt Hill
#
# Bulk Modulus (GPa) = 13.67508 74.44284 44.05896
# Shear Modulus (GPa) = 533.22412 21.90268 277.56340
#
# Velocity S-wave (km/s) = 17.52369 3.55156 12.64304
# Velocity P-wave (km/s) = 20.42828 7.72588 15.44351
#
# Compressibility (1/GPa) = 0.07312571
#
# Stress axis : x y z
#
# Youngs Moduli (GPa) = 8.77622 98.25662 64.37575
#
# Poissons Ratio (x) = 1.07649 1.08446
# Poissons Ratio (y) = 0.09615 0.35170
# Poissons Ratio (z) = 0.14784 0.53679
#
# Static dielectric constant tensor:
#      x y z
#    x 1.592790 0.000000 0.000000 
#    y 0.000000 1.583340 0.000000 
#    z 0.000000 0.000000 1.573670 
# 
# From -- ./inp_files/68177.got.cif
#   From: 2010.05.17/outbox.cif.g08.bks.cpg/sg65_35_cif.got.tgz:68177.got - 2010.06.03 17:01:31.
