data_PCOD9483314
_publ_section_title
;
Structure prediction by ZEFSAII (Michael W. Deem and Ramdas Pophale) SiO2 
 PCOD9483314
Probable space group: C M M M
;
_chemical_formula_sum "Si O2"
_cell_formula_units_Z 96
_cell_length_a 26.810199
_cell_length_b 9.928921
_cell_length_c 23.030543
_cell_angle_alpha 90.000000
_cell_angle_beta 90.000000
_cell_angle_gamma 90.000000
_cell_volume 6130.646436
_symmetry_space_group_name_H-M "C M M M"
_symmetry_group_IT_number 65
_symmetry_cell_setting 'orthorhombic'
loop_
_space_group_symop_operation_xyz
x,y,z
-x,-y,z
x,-y,-z
-x,y,-z
-x,-y,-z
x,y,-z
-x,y,z
x,-y,z
1/2+x,1/2+y,z
1/2-x,1/2-y,z
1/2+x,1/2-y,-z
1/2-x,1/2+y,-z
1/2-x,1/2-y,-z
1/2+x,1/2+y,-z
1/2-x,1/2+y,z
1/2+x,1/2-y,z
loop_
_atom_site_type_symbol
_atom_site_label
_atom_site_fract_x
_atom_site_fract_y
_atom_site_fract_z
Si Si1 0.560170 0.753663 0.354620
Si Si2 0.388685 0.839322 0.235505
Si Si3 0.200194 0.837311 0.816497
Si Si4 0.060324 0.500000 0.435233
Si Si5 0.939409 0.000000 0.567600
Si Si6 0.356862 0.656658 0.935065
Si Si7 0.057627 0.342745 0.113062
O O1 0.500000 0.751138 0.346308
O O2 0.585507 0.782519 0.293259
O O3 0.574111 0.873135 0.397678
O O4 0.575033 0.624853 0.392204
O O5 0.342707 0.741246 0.219508
O O6 0.426348 0.831686 0.180684
O O7 0.375800 0.000000 0.241861
O O8 0.250000 0.750000 0.807566
O O9 0.183010 0.823734 0.883825
O O10 0.204184 0.000000 0.804275
O O11 0.080530 0.500000 0.500000
O O12 0.000000 0.500000 0.439385
O O13 0.922111 0.000000 0.500000
O O14 0.000000 0.000000 0.563848
O O15 0.372472 0.500000 0.931778
O O16 0.403990 0.751087 0.922063
O O17 0.337487 0.682343 0.000000
O O18 0.063215 0.500000 0.096772
O O19 0.000000 0.304323 0.105328
#
# Coordination Sequence:
#
# PCOD9483314 Si02
#       7
#    16  16  16   8   8  16  16
#     4  10  18  28  45  69 100 139 175 206 239 280
#     4  10  19  32  50  72  99 128 165 207 248 292
#     4  10  21  37  56  75  97 123 153 197 252 302
#     4   9  16  26  42  66  97 135 176 209 235 269
#     4   9  18  30  42  62  99 143 178 207 241 279
#     4   9  19  35  52  72  98 127 160 197 239 291
#     4   9  18  31  47  68  98 134 168 204 241 278
#
# _framework density 15.659034
#
# number of rings (size 3 to 8) (size 9 to 14) (size 15 to 20)
#    0.000    2.500    0.833    1.500    1.167    4.667 
#    0.000    1.667    0.000    0.000    0.000    0.000 
#    0.000    4.000    0.000    0.000    0.000    0.000 
#
# Total GULP energy -267214.951010 kJ/mol
# GULP energy per Si atom -5566.978146 kJ/mol
# Density = 1.562339 g / cm^3
# Si number density = 15.659034 Si / 1000 Ang^3
#
#
#
# Elastic Constant Matrix: (Units=GPa)
#
#
# Indices 1 2 3 4 5 6 
#
# 1 50.5755 29.9368 15.5392 0.0000 0.0000 0.0000
# 2 29.9368 113.2897 46.2464 0.0000 0.0000 0.0000
# 3 15.5392 46.2464 105.2905 0.0000 0.0000 0.0000
# 4 0.0000 0.0000 0.0000 28.8871 0.0000 0.0000
# 5 0.0000 0.0000 0.0000 0.0000 9.0750 0.0000
# 6 0.0000 0.0000 0.0000 0.0000 0.0000 23.6413
#
#
#
# Elastic Compliance Matrix: (Units=1/GPa)
#
#
# Indices 1 2 3 4 5 6 
#
# 1 0.023509 -0.005844 -0.000903 0.000000 0.000000 0.000000
# 2 -0.005844 0.012208 -0.004500 0.000000 0.000000 0.000000
# 3 -0.000903 -0.004500 0.011607 0.000000 0.000000 0.000000
# 4 0.000000 0.000000 0.000000 0.034617 0.000000 0.000000
# 5 0.000000 0.000000 0.000000 0.000000 0.110193 0.000000
# 6 0.000000 0.000000 0.000000 0.000000 0.000000 0.042299
#
#
# Mechanical properties :
#
#
# Convention : Reuss Voigt Hill
#
# Bulk Modulus (GPa) = 40.27118 50.28893 45.28005
# Shear Modulus (GPa) = 18.85354 24.14959 21.50157
#
# Velocity S-wave (km/s) = 3.47364 3.93136 3.70957
# Velocity P-wave (km/s) = 6.47005 7.26582 6.87945
#
# Compressibility (1/GPa) = 0.02483165
#
# Stress axis : x y z
#
# Youngs Moduli (GPa) = 42.53728 81.91409 86.15398
#
# Poissons Ratio (x) = 0.47868 0.07778
# Poissons Ratio (y) = 0.24857 0.38766
# Poissons Ratio (z) = 0.03840 0.36858
#
# Static dielectric constant tensor:
#      x y z
#    x 1.494810 0.000000 0.000000 
#    y 0.000000 1.498600 0.000000 
#    z 0.000000 0.000000 1.521480 
# 
# From -- ./inp_files/71449.got.cif
#   From: 2010.05.17/outbox.cif.g08.bks.cpg/sg65_36_cif.got.tgz:71449.got - 2010.06.03 17:01:31.
