data_PCOD9483056
_publ_section_title
;
Structure prediction by ZEFSAII (Michael W. Deem and Ramdas Pophale) SiO2 
 PCOD9483056
Probable space group: C M M M
;
_chemical_formula_sum "Si O2"
_cell_formula_units_Z 128
_cell_length_a 21.500556
_cell_length_b 14.609730
_cell_length_c 19.395492
_cell_angle_alpha 90.000000
_cell_angle_beta 90.000000
_cell_angle_gamma 90.000000
_cell_volume 6092.459929
_symmetry_space_group_name_H-M "C M M M"
_symmetry_group_IT_number 65
_symmetry_cell_setting 'orthorhombic'
loop_
_space_group_symop_operation_xyz
x,y,z
-x,-y,z
x,-y,-z
-x,y,-z
-x,-y,-z
x,y,-z
-x,y,z
x,-y,z
1/2+x,1/2+y,z
1/2-x,1/2-y,z
1/2+x,1/2-y,-z
1/2-x,1/2+y,-z
1/2-x,1/2-y,-z
1/2+x,1/2+y,-z
1/2-x,1/2+y,z
1/2+x,1/2-y,z
loop_
_atom_site_type_symbol
_atom_site_label
_atom_site_fract_x
_atom_site_fract_y
_atom_site_fract_z
Si Si1 0.615543 0.858366 0.074928
Si Si2 0.239005 0.106321 0.922601
Si Si3 0.434571 0.895508 0.216683
Si Si4 0.929328 0.388940 0.580052
Si Si5 0.703493 0.612701 0.768221
Si Si6 0.928339 0.157784 0.074438
Si Si7 0.173800 0.388392 0.309965
Si Si8 0.431211 0.604346 0.771605
O O1 0.686287 0.890084 0.081898
O O2 0.573843 0.894987 0.135644
O O3 0.612557 0.748449 0.078827
O O4 0.592429 0.885587 0.000000
O O5 0.216732 0.142662 0.847796
O O6 0.219055 0.000000 0.924444
O O7 0.223628 0.144975 0.000000
O O8 0.500000 0.850922 0.234875
O O9 0.371427 0.858785 0.247662
O O10 0.437218 0.000000 0.241850
O O11 0.922634 0.362320 0.500000
O O12 0.929753 0.500000 0.582764
O O13 0.869074 0.359542 0.624691
O O14 0.000000 0.360846 0.602781
O O15 0.703733 0.500000 0.770086
O O16 0.757401 0.640789 0.714408
O O17 0.634318 0.644087 0.746439
O O18 0.923148 0.102973 0.144907
O O19 0.000000 0.189728 0.073300
O O20 0.917314 0.111636 0.000000
O O21 0.178217 0.500000 0.314080
O O22 0.500000 0.644338 0.757563
O O23 0.433322 0.500000 0.747007
#
# Coordination Sequence:
#
# PCOD9483056 Si02
#       8
#    16  16  16  16  16  16  16  16
#     4  10  18  28  40  54  76 108 142 175 209 248
#     4   9  16  26  40  56  77 108 143 176 208 243
#     4  10  18  25  36  55  78 109 150 187 208 226
#     4   8  13  21  34  54  83 119 153 180 203 226
#     4   9  16  27  43  61  80 102 130 171 219 256
#     4   9  18  31  44  58  77 101 129 168 223 273
#     4   9  15  24  37  55  80 109 142 176 207 239
#     4   9  18  32  49  65  76  89 119 167 222 281
#
# _framework density 21.009575999999999
#
# number of rings (size 3 to 8) (size 9 to 14) (size 15 to 20)
#    0.000    2.875    1.250    1.500    0.000    3.750 
#    0.000    3.750    0.000    2.250    0.000    0.000 
#    0.000    0.500    0.000    9.250    0.000    9.875 
#
# Total GULP energy -356447.753160 kJ/mol
# GULP energy per Si atom -5569.496143 kJ/mol
# Density = 2.096176 g / cm^3
# Si number density = 21.009576 Si / 1000 Ang^3
#
#
#
# Elastic Constant Matrix: (Units=GPa)
#
#
# Indices 1 2 3 4 5 6 
#
# 1 197.7283 9.3975 61.6122 0.0000 0.0000 0.0000
# 2 9.3975 53.2737 -1.3384 0.0000 0.0000 0.0000
# 3 61.6122 -1.3384 95.3733 0.0000 0.0000 0.0000
# 4 0.0000 0.0000 0.0000 20.5100 0.0000 0.0000
# 5 0.0000 0.0000 0.0000 0.0000 13.9379 0.0000
# 6 0.0000 0.0000 0.0000 0.0000 0.0000 -107.5745
#
#
#
# Elastic Compliance Matrix: (Units=1/GPa)
#
#
# Indices 1 2 3 4 5 6 
#
# 1 0.006412 -0.001236 -0.004160 0.000000 0.000000 0.000000
# 2 -0.001236 0.019016 0.001065 0.000000 0.000000 0.000000
# 3 -0.004160 0.001065 0.013187 0.000000 0.000000 0.000000
# 4 0.000000 0.000000 0.000000 0.048757 0.000000 0.000000
# 5 0.000000 0.000000 0.000000 0.000000 0.071747 0.000000
# 6 0.000000 0.000000 0.000000 0.000000 0.000000 -0.009296
#
#
# Mechanical properties :
#
#
# Convention : Reuss Voigt Hill
#
# Bulk Modulus (GPa) = 33.38374 53.96865 43.67619
# Shear Modulus (GPa) = 29.67911 3.82162 16.75036
#
# Velocity S-wave (km/s) = 3.76260 1.35016 2.82667
# Velocity P-wave (km/s) = 5.89919 5.30792 5.61135
#
# Compressibility (1/GPa) = 0.02995470
#
# Stress axis : x y z
#
# Youngs Moduli (GPa) = 155.94863 52.58810 75.83031
#
# Poissons Ratio (x) = 0.06498 0.31544
# Poissons Ratio (y) = 0.19270 -0.08077
# Poissons Ratio (z) = 0.64872 -0.05601
#
# Static dielectric constant tensor:
#      x y z
#    x 1.815550 0.000000 0.000000 
#    y 0.000000 1.791700 0.000000 
#    z 0.000000 0.000000 1.751710 
# 
# From -- ./inp_files/64861.got.cif
#   From: 2010.05.17/outbox.cif.g08.bks.cpg/sg65_33_cif.got.tgz:64861.got - 2010.06.03 17:01:31.
