data_PCOD9483322
_publ_section_title
;
Structure prediction by ZEFSAII (Michael W. Deem and Ramdas Pophale) SiO2 
 PCOD9483322
Probable space group: C M M M
;
_chemical_formula_sum "Si O2"
_cell_formula_units_Z 120
_cell_length_a 17.667797
_cell_length_b 23.859030
_cell_length_c 18.081791
_cell_angle_alpha 90.000000
_cell_angle_beta 90.000000
_cell_angle_gamma 90.000000
_cell_volume 7622.134868
_symmetry_space_group_name_H-M "C M M M"
_symmetry_group_IT_number 65
_symmetry_cell_setting 'orthorhombic'
loop_
_space_group_symop_operation_xyz
x,y,z
-x,-y,z
x,-y,-z
-x,y,-z
-x,-y,-z
x,y,-z
-x,y,z
x,-y,z
1/2+x,1/2+y,z
1/2-x,1/2-y,z
1/2+x,1/2-y,-z
1/2-x,1/2+y,-z
1/2-x,1/2-y,-z
1/2+x,1/2+y,-z
1/2-x,1/2+y,z
1/2+x,1/2-y,z
loop_
_atom_site_type_symbol
_atom_site_label
_atom_site_fract_x
_atom_site_fract_y
_atom_site_fract_z
Si Si1 0.290490 0.189239 0.582712
Si Si2 0.349561 0.389007 0.853554
Si Si3 0.088759 0.227047 0.911866
Si Si4 0.648204 0.170775 0.179420
Si Si5 0.298786 0.331883 0.276178
Si Si6 0.586520 0.770578 0.687688
Si Si7 0.000000 0.934677 0.918438
Si Si8 0.807987 0.433888 0.912418
O O1 0.291647 0.165583 0.500000
O O2 0.250000 0.250000 0.579245
O O3 0.241983 0.157336 0.645495
O O4 0.372951 0.202135 0.616576
O O5 0.364220 0.325798 0.882388
O O6 0.337156 0.383552 0.765754
O O7 0.425762 0.419116 0.874863
O O8 0.279273 0.418325 0.893885
O O9 0.127515 0.282900 0.881133
O O10 0.000000 0.223440 0.887364
O O11 0.089483 0.226894 0.000000
O O12 0.729902 0.181373 0.218794
O O13 0.591617 0.183762 0.246733
O O14 0.648002 0.110123 0.140370
O O15 0.359431 0.281730 0.287527
O O16 0.500000 0.753388 0.675866
O O17 0.000000 0.000000 0.928656
O O18 0.000000 0.906280 0.000000
O O19 0.821428 0.500000 0.897643
O O20 0.822189 0.424004 0.000000
#
# Coordination Sequence:
#
# PCOD9483322 Si02
#       8
#    16  16  16  16  16  16   8  16
#     4   8  15  29  46  66  97 132 160 186 226 288
#     4  11  20  31  47  68  95 125 164 206 247 298
#     4  11  21  30  45  72  99 124 158 204 255 298
#     4  10  19  32  48  67  95 126 162 202 248 296
#     4   9  19  30  46  70  96 128 161 197 245 288
#     4  10  18  28  45  70  99 128 157 190 236 290
#     4  11  22  34  46  64  99 143 176 208 251 291
#     4  10  21  35  49  64  85 120 168 216 254 288
#
# _framework density 15.74362
#
# number of rings (size 3 to 8) (size 9 to 14) (size 15 to 20)
#    0.000    2.067    2.000    3.600    2.800    1.333 
#    0.000    2.000    0.000    1.600    0.000    4.667 
#    0.000   53.867    0.000   10.800    0.000    0.000 
#
# Total GULP energy -334113.775445 kJ/mol
# GULP energy per Si atom -5568.562924 kJ/mol
# Density = 1.570779 g / cm^3
# Si number density = 15.743620 Si / 1000 Ang^3
#
#
#
# Elastic Constant Matrix: (Units=GPa)
#
#
# Indices 1 2 3 4 5 6 
#
# 1 63.5572 13.8812 30.7811 0.0000 0.0000 0.0000
# 2 13.8812 69.8053 30.4697 0.0000 0.0000 0.0000
# 3 30.7811 30.4697 110.5651 0.0000 0.0000 0.0000
# 4 0.0000 0.0000 0.0000-5113.5181 0.0000 0.0000
# 5 0.0000 0.0000 0.0000 0.0000 11.1429 0.0000
# 6 0.0000 0.0000 0.0000 0.0000 0.0000 -0.8876
#
#
#
# Elastic Compliance Matrix: (Units=1/GPa)
#
#
# Indices 1 2 3 4 5 6 
#
# 1 0.018344 -0.001613 -0.004663 0.000000 0.000000 0.000000
# 2 -0.001613 0.016426 -0.004078 0.000000 0.000000 0.000000
# 3 -0.004663 -0.004078 0.011466 0.000000 0.000000 0.000000
# 4 0.000000 0.000000 0.000000 -0.000196 0.000000 0.000000
# 5 0.000000 0.000000 0.000000 0.000000 0.089743 0.000000
# 6 0.000000 0.000000 0.000000 0.000000 0.000000 -1.126572
#
#
# Mechanical properties :
#
#
# Convention : Reuss Voigt Hill
#
# Bulk Modulus (GPa) = 39.16870 43.79906 41.48388
# Shear Modulus (GPa) = -5.19982 -1009.39952 -507.29967
#
# Velocity S-wave (km/s) = -1.81934 -25.34838 -17.97012
# Velocity P-wave (km/s) = 4.52988 28.78958 20.10373
#
# Compressibility (1/GPa) = 0.02553059
#
# Stress axis : x y z
#
# Youngs Moduli (GPa) = 54.51322 60.87844 87.21248
#
# Poissons Ratio (x) = 0.09818 0.40663
# Poissons Ratio (y) = 0.08791 0.35563
# Poissons Ratio (z) = 0.25417 0.24825
#
# Static dielectric constant tensor:
#      x y z
#    x 1.563220 0.000000 0.000000 
#    y 0.000000 1.522330 0.000000 
#    z 0.000000 0.000000 1.562440 
# 
# From -- ./inp_files/54964.got.cif
#   From: 2010.05.17/outbox.cif.g08.bks.cpg/sg65_28_cif.got.tgz:54964.got - 2010.06.03 17:01:31.
