data_PCOD9483667
_publ_section_title
;
Structure prediction by ZEFSAII (Michael W. Deem and Ramdas Pophale) SiO2 
 PCOD9483667
Probable space group: C M M M
;
_chemical_formula_sum "Si O2"
_cell_formula_units_Z 96
_cell_length_a 26.262297
_cell_length_b 29.716796
_cell_length_c 9.180833
_cell_angle_alpha 90.000000
_cell_angle_beta 90.000000
_cell_angle_gamma 90.000000
_cell_volume 7165.009639
_symmetry_space_group_name_H-M "C M M M"
_symmetry_group_IT_number 65
_symmetry_cell_setting 'orthorhombic'
loop_
_space_group_symop_operation_xyz
x,y,z
-x,-y,z
x,-y,-z
-x,y,-z
-x,-y,-z
x,y,-z
-x,y,z
x,-y,z
1/2+x,1/2+y,z
1/2-x,1/2-y,z
1/2+x,1/2-y,-z
1/2-x,1/2+y,-z
1/2-x,1/2-y,-z
1/2+x,1/2+y,-z
1/2-x,1/2+y,z
1/2+x,1/2-y,z
loop_
_atom_site_type_symbol
_atom_site_label
_atom_site_fract_x
_atom_site_fract_y
_atom_site_fract_z
Si Si1 0.855197 0.197134 0.172017
Si Si2 0.215788 0.049657 0.176686
Si Si3 0.251982 0.144520 0.827042
Si Si4 0.095433 0.948533 0.174292
Si Si5 0.695996 0.223230 0.667679
Si Si6 0.441669 0.360527 0.327194
O O1 0.804201 0.166677 0.190229
O O2 0.842396 0.245160 0.243552
O O3 0.901633 0.172123 0.249247
O O4 0.864241 0.201395 0.000000
O O5 0.246934 0.093159 0.226128
O O6 0.155750 0.055168 0.209859
O O7 0.232035 0.000000 0.227718
O O8 0.218495 0.049711 0.000000
O O9 0.291609 0.175751 0.742481
O O10 0.263192 0.145369 0.000000
O O11 0.066439 0.910279 0.261317
O O12 0.079606 0.000000 0.205193
O O13 0.090156 0.941257 0.000000
O O14 0.680459 0.218392 0.500000
O O15 0.750000 0.250000 0.669974
O O16 0.432119 0.361251 0.500000
O O17 0.500000 0.346535 0.302026
#
# Coordination Sequence:
#
# PCOD9483667 Si02
#       6
#    16  16  16  16  16  16
#     4  10  18  30  46  61  76  98 130 169 203 239
#     4   8  13  23  40  60  80 102 130 165 203 237
#     4   9  15  25  42  62  80 101 130 163 197 236
#     4   9  17  31  48  61  73  96 134 175 212 248
#     4   9  17  27  40  60  83 104 123 152 197 244
#     4  11  23  34  43  57  79 105 131 165 213 260
#
# _framework density 13.398447000000001
#
# number of rings (size 3 to 8) (size 9 to 14) (size 15 to 20)
#    0.000    2.667    1.667    2.500    0.000    4.667 
#    0.000    1.667    0.000    0.500    0.000    0.000 
#    0.000    0.000    0.000    0.000    0.000    0.833 
#
# Total GULP energy -267428.200638 kJ/mol
# GULP energy per Si atom -5571.420847 kJ/mol
# Density = 1.336795 g / cm^3
# Si number density = 13.398447 Si / 1000 Ang^3
#
#
#
# Elastic Constant Matrix: (Units=GPa)
#
#
# Indices 1 2 3 4 5 6 
#
# 1 44.8884 43.5001 42.6413 0.0000 0.0000 0.0000
# 2 43.5001 100.5059 54.7156 0.0000 0.0000 0.0000
# 3 42.6413 54.7156 69.5186 0.0000 0.0000 0.0000
# 4 0.0000 0.0000 0.0000 10.4601 0.0000 0.0000
# 5 0.0000 0.0000 0.0000 0.0000 16.6402 0.0000
# 6 0.0000 0.0000 0.0000 0.0000 0.0000 12.3737
#
#
#
# Elastic Compliance Matrix: (Units=1/GPa)
#
#
# Indices 1 2 3 4 5 6 
#
# 1 0.058777 -0.010170 -0.028048 0.000000 0.000000 0.000000
# 2 -0.010170 0.019169 -0.008849 0.000000 0.000000 0.000000
# 3 -0.028048 -0.008849 0.038554 0.000000 0.000000 0.000000
# 4 0.000000 0.000000 0.000000 0.095602 0.000000 0.000000
# 5 0.000000 0.000000 0.000000 0.000000 0.060096 0.000000
# 6 0.000000 0.000000 0.000000 0.000000 0.000000 0.080817
#
#
# Mechanical properties :
#
#
# Convention : Reuss Voigt Hill
#
# Bulk Modulus (GPa) = 44.71264 55.18076 49.94670
# Shear Modulus (GPa) = 10.99862 12.83184 11.91523
#
# Velocity S-wave (km/s) = 2.86822 3.09805 2.98535
# Velocity P-wave (km/s) = 6.66430 7.35330 7.01726
#
# Compressibility (1/GPa) = 0.02236504
#
# Stress axis : x y z
#
# Youngs Moduli (GPa) = 17.01349 52.16829 25.93791
#
# Poissons Ratio (x) = 0.53054 0.72751
# Poissons Ratio (y) = 0.17302 0.22953
# Poissons Ratio (z) = 0.47720 0.46164
#
# Static dielectric constant tensor:
#      x y z
#    x 1.408590 0.000000 0.000000 
#    y 0.000000 1.453440 0.000000 
#    z 0.000000 0.000000 1.442180 
# 
# From -- ./inp_files/14606.got.cif
#   From: 2010.05.17/outbox.cif.g08.bks.cpg/sg65_8_cif.got.tgz:14606.got - 2010.06.03 17:01:31.
