data_PCOD9483422
_publ_section_title
;
Structure prediction by ZEFSAII (Michael W. Deem and Ramdas Pophale) SiO2 
 PCOD9483422
Probable space group: C M M M
;
_chemical_formula_sum "Si O2"
_cell_formula_units_Z 80
_cell_length_a 24.098905
_cell_length_b 26.401718
_cell_length_c 9.265018
_cell_angle_alpha 90.000000
_cell_angle_beta 90.000000
_cell_angle_gamma 90.000000
_cell_volume 5894.890809
_symmetry_space_group_name_H-M "C M M M"
_symmetry_group_IT_number 65
_symmetry_cell_setting 'orthorhombic'
loop_
_space_group_symop_operation_xyz
x,y,z
-x,-y,z
x,-y,-z
-x,y,-z
-x,-y,-z
x,y,-z
-x,y,z
x,-y,z
1/2+x,1/2+y,z
1/2-x,1/2-y,z
1/2+x,1/2-y,-z
1/2-x,1/2+y,-z
1/2-x,1/2-y,-z
1/2+x,1/2+y,-z
1/2-x,1/2+y,z
1/2+x,1/2-y,z
loop_
_atom_site_type_symbol
_atom_site_label
_atom_site_fract_x
_atom_site_fract_y
_atom_site_fract_z
Si Si1 0.000000 0.607135 0.327419
Si Si2 0.381363 0.941054 0.673052
Si Si3 0.284792 0.302750 0.333920
Si Si4 0.878827 0.748324 0.171204
Si Si5 0.000000 0.715548 0.826301
Si Si6 0.811194 0.644006 0.171350
O O1 0.944219 0.576344 0.292164
O O2 0.000000 0.660655 0.247025
O O3 0.000000 0.615927 0.500000
O O4 0.374195 0.935026 0.500000
O O5 0.339632 0.904228 0.755849
O O6 0.373766 0.000000 0.708669
O O7 0.291299 0.318271 0.500000
O O8 0.250000 0.250000 0.332277
O O9 0.342730 0.288567 0.259263
O O10 0.247204 0.341720 0.244603
O O11 0.943275 0.744324 0.212062
O O12 0.851545 0.692721 0.195339
O O13 0.874076 0.758684 0.000000
O O14 0.000000 0.708608 0.000000
O O15 0.805134 0.637680 0.000000
#
# Coordination Sequence:
#
# PCOD9483422 Si02
#       6
#     8  16  16  16   8  16
#     4  10  19  30  44  58  78 110 148 185 219 253
#     4  10  20  32  44  59  81 110 145 184 223 257
#     4   9  17  28  43  61  81 103 133 170 210 255
#     4   9  17  28  42  60  83 109 138 170 209 252
#     4  10  18  29  43  61  86 114 141 175 214 251
#     4  10  18  29  45  61  80 105 138 177 216 256
#
# _framework density 13.571075
#
# number of rings (size 3 to 8) (size 9 to 14) (size 15 to 20)
#    0.000    2.400    2.000    1.500    0.000    5.600 
#    0.000    0.000    0.000    1.800    0.000    0.000 
#    0.000    0.000    0.000    0.900    0.000   17.400 
#
# Total GULP energy -222984.890174 kJ/mol
# GULP energy per Si atom -5574.622254 kJ/mol
# Density = 1.354019 g / cm^3
# Si number density = 13.571075 Si / 1000 Ang^3
#
#
#
# Elastic Constant Matrix: (Units=GPa)
#
#
# Indices 1 2 3 4 5 6 
#
# 1 122.3933 65.2671 65.5100 0.0000 0.0000 0.0000
# 2 65.2671 70.7652 50.4025 0.0000 0.0000 0.0000
# 3 65.5100 50.4025 61.0860 0.0000 0.0000 0.0000
# 4 0.0000 0.0000 0.0000 19.3179 0.0000 0.0000
# 5 0.0000 0.0000 0.0000 0.0000 22.4412 0.0000
# 6 0.0000 0.0000 0.0000 0.0000 0.0000 13.7294
#
#
#
# Elastic Compliance Matrix: (Units=1/GPa)
#
#
# Indices 1 2 3 4 5 6 
#
# 1 0.020908 -0.008036 -0.015792 0.000000 0.000000 0.000000
# 2 -0.008036 0.037361 -0.022209 0.000000 0.000000 0.000000
# 3 -0.015792 -0.022209 0.051631 0.000000 0.000000 0.000000
# 4 0.000000 0.000000 0.000000 0.051766 0.000000 0.000000
# 5 0.000000 0.000000 0.000000 0.000000 0.044561 0.000000
# 6 0.000000 0.000000 0.000000 0.000000 0.000000 0.072836
#
#
# Mechanical properties :
#
#
# Convention : Reuss Voigt Hill
#
# Bulk Modulus (GPa) = 56.09662 68.51149 62.30406
# Shear Modulus (GPa) = 13.25985 15.96869 14.61427
#
# Velocity S-wave (km/s) = 3.12920 3.43399 3.28513
# Velocity P-wave (km/s) = 7.38112 8.14347 7.77165
#
# Compressibility (1/GPa) = 0.01782639
#
# Stress axis : x y z
#
# Youngs Moduli (GPa) = 47.82873 26.76568 19.36834
#
# Poissons Ratio (x) = 0.21509 0.30586
# Poissons Ratio (y) = 0.38435 0.43016
# Poissons Ratio (z) = 0.75530 0.59444
#
# Static dielectric constant tensor:
#      x y z
#    x 1.442960 0.000000 0.000000 
#    y 0.000000 1.407630 0.000000 
#    z 0.000000 0.000000 1.451980 
# 
# From -- ./inp_files/11569.got.cif
#   From: 2010.05.17/outbox.cif.g08.bks.cpg/sg65_6_cif.got.tgz:11569.got - 2010.06.03 17:01:31.
