data_PCOD9483127
_publ_section_title
;
Structure prediction by ZEFSAII (Michael W. Deem and Ramdas Pophale) SiO2 
 PCOD9483127
Probable space group: C M M M
;
_chemical_formula_sum "Si O2"
_cell_formula_units_Z 88
_cell_length_a 27.004288
_cell_length_b 28.770728
_cell_length_c 7.382642
_cell_angle_alpha 90.000000
_cell_angle_beta 90.000000
_cell_angle_gamma 90.000000
_cell_volume 5735.818381
_symmetry_space_group_name_H-M "C M M M"
_symmetry_group_IT_number 65
_symmetry_cell_setting 'orthorhombic'
loop_
_space_group_symop_operation_xyz
x,y,z
-x,-y,z
x,-y,-z
-x,y,-z
-x,-y,-z
x,y,-z
-x,y,z
x,-y,z
1/2+x,1/2+y,z
1/2-x,1/2-y,z
1/2+x,1/2-y,-z
1/2-x,1/2+y,-z
1/2-x,1/2-y,-z
1/2+x,1/2+y,-z
1/2-x,1/2+y,z
1/2+x,1/2-y,z
loop_
_atom_site_type_symbol
_atom_site_label
_atom_site_fract_x
_atom_site_fract_y
_atom_site_fract_z
Si Si1 0.237412 0.947181 0.215644
Si Si2 0.058221 0.242431 0.500000
Si Si3 0.311130 0.690338 0.212712
Si Si4 0.350261 0.446935 0.500000
Si Si5 0.867930 0.716098 0.786492
Si Si6 0.791028 0.355148 0.780533
Si Si7 0.614763 0.350488 0.500000
O O1 0.186998 0.941209 0.328921
O O2 0.276510 0.907556 0.270604
O O3 0.254727 0.000000 0.248777
O O4 0.228175 0.942073 0.000000
O O5 0.086024 0.265877 0.670832
O O6 0.070717 0.187056 0.500000
O O7 0.000000 0.250058 0.500000
O O8 0.325526 0.744169 0.233695
O O9 0.256493 0.675805 0.273388
O O10 0.351330 0.662598 0.327773
O O11 0.315069 0.679104 0.000000
O O12 0.368961 0.500000 0.500000
O O13 0.390600 0.405995 0.500000
O O14 0.841915 0.668692 0.720993
O O15 0.880062 0.713217 0.000000
O O16 0.793231 0.353526 0.000000
#
# Coordination Sequence:
#
# PCOD9483127 Si02
#       7
#    16   8  16   8  16  16   8
#     4   9  17  27  39  59  91 126 151 170 196 234
#     4  10  22  36  48  63  82 107 142 186 232 269
#     4   9  16  26  40  62  91 117 141 168 200 246
#     4  10  18  27  41  61  84 114 151 181 205 241
#     4   9  18  30  45  65  87 112 142 173 211 259
#     4   9  15  25  42  63  91 121 143 168 201 244
#     4  10  18  29  45  62  82 113 147 180 215 254
#
# _framework density 15.342188
#
# number of rings (size 3 to 8) (size 9 to 14) (size 15 to 20)
#    0.000    2.727    1.818    0.545    0.000    4.000 
#    0.000    2.727    0.000    0.273    0.000    0.000 
#    0.000    1.455    0.000   20.727    0.000    0.000 
#
# Total GULP energy -245041.333287 kJ/mol
# GULP energy per Si atom -5569.121211 kJ/mol
# Density = 1.530727 g / cm^3
# Si number density = 15.342188 Si / 1000 Ang^3
#
#
#
# Elastic Constant Matrix: (Units=GPa)
#
#
# Indices 1 2 3 4 5 6 
#
# 1 78.5876 43.0033 22.6919 0.0000 0.0000 0.0000
# 2 43.0033 71.0902 26.2879 0.0000 0.0000 0.0000
# 3 22.6919 26.2879 60.5071 0.0000 0.0000 0.0000
# 4 0.0000 0.0000 0.0000 11.1301 0.0000 0.0000
# 5 0.0000 0.0000 0.0000 0.0000 10.5050 0.0000
# 6 0.0000 0.0000 0.0000 0.0000 0.0000 12.0118
#
#
#
# Elastic Compliance Matrix: (Units=1/GPa)
#
#
# Indices 1 2 3 4 5 6 
#
# 1 0.019355 -0.010751 -0.002588 0.000000 0.000000 0.000000
# 2 -0.010751 0.022731 -0.005844 0.000000 0.000000 0.000000
# 3 -0.002588 -0.005844 0.020036 0.000000 0.000000 0.000000
# 4 0.000000 0.000000 0.000000 0.089847 0.000000 0.000000
# 5 0.000000 0.000000 0.000000 0.000000 0.095193 0.000000
# 6 0.000000 0.000000 0.000000 0.000000 0.000000 0.083251
#
#
# Mechanical properties :
#
#
# Convention : Reuss Voigt Hill
#
# Bulk Modulus (GPa) = 42.09269 43.79457 42.94363
# Shear Modulus (GPa) = 13.27327 14.60950 13.94139
#
# Velocity S-wave (km/s) = 2.94453 3.08919 3.01773
# Velocity P-wave (km/s) = 6.24947 6.42894 6.33984
#
# Compressibility (1/GPa) = 0.02375710
#
# Stress axis : x y z
#
# Youngs Moduli (GPa) = 51.66654 43.99271 49.90938
#
# Poissons Ratio (x) = 0.47297 0.12915
# Poissons Ratio (y) = 0.55547 0.29166
# Poissons Ratio (z) = 0.13370 0.25708
#
# Static dielectric constant tensor:
#      x y z
#    x 1.455460 0.000000 0.000000 
#    y 0.000000 1.560650 0.000000 
#    z 0.000000 0.000000 1.504980 
# 
# From -- ./inp_files/12694.got.cif
#   From: 2010.05.17/outbox.cif.g08.bks.cpg/sg65_7_cif.got.tgz:12694.got - 2010.06.03 17:01:31.
