data_PCOD9483308
_publ_section_title
;
Structure prediction by ZEFSAII (Michael W. Deem and Ramdas Pophale) SiO2 
 PCOD9483308
Probable space group: C M M M
;
_chemical_formula_sum "Si O2"
_cell_formula_units_Z 112
_cell_length_a 14.930236
_cell_length_b 16.131254
_cell_length_c 27.011815
_cell_angle_alpha 90.000000
_cell_angle_beta 90.000000
_cell_angle_gamma 90.000000
_cell_volume 6505.618153
_symmetry_space_group_name_H-M "C M M M"
_symmetry_group_IT_number 65
_symmetry_cell_setting 'orthorhombic'
loop_
_space_group_symop_operation_xyz
x,y,z
-x,-y,z
x,-y,-z
-x,y,-z
-x,-y,-z
x,y,-z
-x,y,z
x,-y,z
1/2+x,1/2+y,z
1/2-x,1/2-y,z
1/2+x,1/2-y,-z
1/2-x,1/2+y,-z
1/2-x,1/2-y,-z
1/2+x,1/2+y,-z
1/2-x,1/2+y,z
1/2+x,1/2-y,z
loop_
_atom_site_type_symbol
_atom_site_label
_atom_site_fract_x
_atom_site_fract_y
_atom_site_fract_z
Si Si1 0.731687 0.096221 0.944683
Si Si2 0.900402 0.836665 0.106912
Si Si3 0.604118 0.101239 0.661218
Si Si4 0.597830 0.403128 0.213689
Si Si5 0.891369 0.401981 0.446672
Si Si6 0.603247 0.147765 0.857544
Si Si7 0.209790 0.601121 0.758722
O O1 0.818734 0.148661 0.929667
O O2 0.656156 0.107475 0.903229
O O3 0.758907 0.000000 0.944543
O O4 0.700147 0.117994 0.000000
O O5 0.890687 0.896288 0.154426
O O6 0.895690 0.745296 0.130250
O O7 0.000000 0.848308 0.085215
O O8 0.500000 0.125089 0.667856
O O9 0.637517 0.130821 0.607072
O O10 0.662342 0.127221 0.708040
O O11 0.605412 0.000000 0.659892
O O12 0.500000 0.365422 0.225566
O O13 0.594267 0.500000 0.227056
O O14 0.687838 0.367848 0.237500
O O15 0.861330 0.366549 0.500000
O O16 0.869198 0.500000 0.447446
O O17 0.000000 0.397356 0.445838
O O18 0.500000 0.120109 0.854199
O O19 0.654917 0.130012 0.806728
O O20 0.210813 0.500000 0.760355
#
# Coordination Sequence:
#
# PCOD9483308 Si02
#       7
#    16  16  16  16  16  16  16
#     4  11  24  40  57  76  96 120 153 191 228 271
#     4  10  21  37  56  76  96 118 148 188 234 278
#     4   8  13  20  31  52  83 117 154 192 225 265
#     4   9  17  30  49  70  90 114 147 187 230 275
#     4   7   9  14  25  42  69 109 153 192 228 263
#     4  11  23  36  52  74  99 128 155 181 223 278
#     4  10  18  28  45  67  92 124 157 189 226 272
#
# _framework density 17.215889000000001
#
# number of rings (size 3 to 8) (size 9 to 14) (size 15 to 20)
#    0.000    2.571    1.429    3.000    0.000    4.286 
#    0.000    2.857    0.000    0.000    0.000    0.000 
#    0.000    0.571    0.000   10.571    0.000   17.571 
#
# Total GULP energy -311906.206318 kJ/mol
# GULP energy per Si atom -5569.753684 kJ/mol
# Density = 1.717671 g / cm^3
# Si number density = 17.215889 Si / 1000 Ang^3
#
#
#
# Elastic Constant Matrix: (Units=GPa)
#
#
# Indices 1 2 3 4 5 6 
#
# 1 104.8523 9.2815 71.1948 0.0000 0.0000 0.0000
# 2 9.2815 16.2024 7.1272 0.0000 0.0000 0.0000
# 3 71.1948 7.1272 156.3373 0.0000 0.0000 0.0000
# 4 0.0000 0.0000 0.0000 2.2318 0.0000 0.0000
# 5 0.0000 0.0000 0.0000 0.0000 10.9622 0.0000
# 6 0.0000 0.0000 0.0000 0.0000 0.0000 16.6153
#
#
#
# Elastic Compliance Matrix: (Units=1/GPa)
#
#
# Indices 1 2 3 4 5 6 
#
# 1 0.014258 -0.005420 -0.006246 0.000000 0.000000 0.000000
# 2 -0.005420 0.065043 -0.000497 0.000000 0.000000 0.000000
# 3 -0.006246 -0.000497 0.009263 0.000000 0.000000 0.000000
# 4 0.000000 0.000000 0.000000 0.448071 0.000000 0.000000
# 5 0.000000 0.000000 0.000000 0.000000 0.091223 0.000000
# 6 0.000000 0.000000 0.000000 0.000000 0.000000 0.060185
#
#
# Mechanical properties :
#
#
# Convention : Reuss Voigt Hill
#
# Bulk Modulus (GPa) = 15.56705 50.28876 32.92791
# Shear Modulus (GPa) = 6.81401 18.61443 12.71422
#
# Velocity S-wave (km/s) = 1.99163 3.29178 2.72051
# Velocity P-wave (km/s) = 3.78823 6.61225 5.38853
#
# Compressibility (1/GPa) = 0.06423824
#
# Stress axis : x y z
#
# Youngs Moduli (GPa) = 70.13621 15.37451 107.95168
#
# Poissons Ratio (x) = 0.08333 0.67425
# Poissons Ratio (y) = 0.38015 0.05364
# Poissons Ratio (z) = 0.43806 0.00764
#
# Static dielectric constant tensor:
#      x y z
#    x 1.601600 0.000000 0.000000 
#    y 0.000000 1.611090 0.000000 
#    z 0.000000 0.000000 1.604000 
# 
# From -- ./inp_files/70057.got.cif
#   From: 2010.05.17/outbox.cif.g08.bks.cpg/sg65_36_cif.got.tgz:70057.got - 2010.06.03 17:01:31.
