data_PCOD9483580
_publ_section_title
;
Structure prediction by ZEFSAII (Michael W. Deem and Ramdas Pophale) SiO2 
 PCOD9483580
Probable space group: C M M M
;
_chemical_formula_sum "Si O2"
_cell_formula_units_Z 64
_cell_length_a 25.727534
_cell_length_b 15.294799
_cell_length_c 7.459832
_cell_angle_alpha 90.000000
_cell_angle_beta 90.000000
_cell_angle_gamma 90.000000
_cell_volume 2935.424954
_symmetry_space_group_name_H-M "C M M M"
_symmetry_group_IT_number 65
_symmetry_cell_setting 'orthorhombic'
loop_
_space_group_symop_operation_xyz
x,y,z
-x,-y,z
x,-y,-z
-x,y,-z
-x,-y,-z
x,y,-z
-x,y,z
x,-y,z
1/2+x,1/2+y,z
1/2-x,1/2-y,z
1/2+x,1/2-y,-z
1/2-x,1/2+y,-z
1/2-x,1/2-y,-z
1/2+x,1/2+y,-z
1/2-x,1/2+y,z
1/2+x,1/2-y,z
loop_
_atom_site_type_symbol
_atom_site_label
_atom_site_fract_x
_atom_site_fract_y
_atom_site_fract_z
Si Si1 0.500000 0.333094 0.208756
Si Si2 0.688543 0.500000 0.279806
Si Si3 0.500000 0.867300 0.702310
Si Si4 0.112568 0.352721 0.279849
Si Si5 0.192293 0.500000 0.718563
Si Si6 0.113623 0.847511 0.286392
O O1 0.500000 0.239104 0.305976
O O2 0.554500 0.378472 0.251570
O O3 0.500000 0.312670 0.000000
O O4 0.688377 0.500000 0.500000
O O5 0.748228 0.500000 0.222024
O O6 0.656434 0.414973 0.219622
O O7 0.500000 0.901670 0.500000
O O8 0.443799 0.888097 0.782316
O O9 0.110538 0.352373 0.500000
O O10 0.159444 0.415062 0.226155
O O11 0.118561 0.252254 0.219883
O O12 0.192935 0.500000 0.500000
O O13 0.119796 0.843018 0.500000
#
# Coordination Sequence:
#
# PCOD9483580 Si02
#       6
#     8   8   8  16   8  16
#     4  10  18  29  48  73  93 114 146 189 229 271
#     4   9  18  29  43  63  91 123 158 189 220 262
#     4   8  14  27  45  69  97 124 147 175 222 279
#     4   8  14  24  41  64  95 123 146 181 227 267
#     4   9  16  25  39  69  98 117 150 195 226 254
#     4   9  17  31  47  66  92 123 149 180 226 275
#
# _framework density 21.802634999999999
#
# number of rings (size 3 to 8) (size 9 to 14) (size 15 to 20)
#    0.000    3.250    0.000    2.625    0.000    2.000 
#    0.000   10.625    0.000    0.000    0.000   49.000 
#    0.000    0.000    0.000    0.000    0.000    0.000 
#
# Total GULP energy -178528.085656 kJ/mol
# GULP energy per Si atom -5579.002677 kJ/mol
# Density = 2.175301 g / cm^3
# Si number density = 21.802635 Si / 1000 Ang^3
#
#
#
# Elastic Constant Matrix: (Units=GPa)
#
#
# Indices 1 2 3 4 5 6 
#
# 1 261.0630 119.8656 -4.3590 0.0000 0.0000 0.0000
# 2 119.8656 127.1524 8.5251 0.0000 0.0000 0.0000
# 3 -4.3590 8.5251 66.6011 0.0000 0.0000 0.0000
# 4 0.0000 0.0000 0.0000 -18.9331 0.0000 0.0000
# 5 0.0000 0.0000 0.0000 0.0000 -23.7529 0.0000
# 6 0.0000 0.0000 0.0000 0.0000 0.0000 41.9012
#
#
#
# Elastic Compliance Matrix: (Units=1/GPa)
#
#
# Indices 1 2 3 4 5 6 
#
# 1 0.006862 -0.006555 0.001288 0.000000 0.000000 0.000000
# 2 -0.006555 0.014194 -0.002246 0.000000 0.000000 0.000000
# 3 0.001288 -0.002246 0.015387 0.000000 0.000000 0.000000
# 4 0.000000 0.000000 0.000000 -0.052817 0.000000 0.000000
# 5 0.000000 0.000000 0.000000 0.000000 -0.042100 0.000000
# 6 0.000000 0.000000 0.000000 0.000000 0.000000 0.023866
#
#
# Mechanical properties :
#
#
# Convention : Reuss Voigt Hill
#
# Bulk Modulus (GPa) = 46.69111 78.09776 62.39443
# Shear Modulus (GPa) = -401.75025 21.89535 -189.92745
#
# Velocity S-wave (km/s) = -13.58922 3.17243 -9.34351
# Velocity P-wave (km/s) = 14.99202 7.02262 9.36599
#
# Compressibility (1/GPa) = 0.02141735
#
# Stress axis : x y z
#
# Youngs Moduli (GPa) = 145.73965 70.45121 64.99181
#
# Poissons Ratio (x) = 0.46179 -0.08372
# Poissons Ratio (y) = 0.95528 0.14596
# Poissons Ratio (z) = -0.18773 0.15823
#
# Static dielectric constant tensor:
#      x y z
#    x 1.780480 0.000000 0.000000 
#    y 0.000000 1.781610 0.000000 
#    z 0.000000 0.000000 1.800480 
# 
# From -- ./inp_files/15672.got.cif
#   From: 2010.05.17/outbox.cif.g08.bks.cpg/sg65_8_cif.got.tgz:15672.got - 2010.06.03 17:01:31.
