data_PCOD9483019
_publ_section_title
;
Structure prediction by ZEFSAII (Michael W. Deem and Ramdas Pophale) SiO2 
 PCOD9483019
Probable space group: C M M M
;
_chemical_formula_sum "Si O2"
_cell_formula_units_Z 80
_cell_length_a 8.508876
_cell_length_b 24.476738
_cell_length_c 20.920777
_cell_angle_alpha 90.000000
_cell_angle_beta 90.000000
_cell_angle_gamma 90.000000
_cell_volume 4357.160362
_symmetry_space_group_name_H-M "C M M M"
_symmetry_group_IT_number 65
_symmetry_cell_setting 'orthorhombic'
loop_
_space_group_symop_operation_xyz
x,y,z
-x,-y,z
x,-y,-z
-x,y,-z
-x,-y,-z
x,y,-z
-x,y,z
x,-y,z
1/2+x,1/2+y,z
1/2-x,1/2-y,z
1/2+x,1/2-y,-z
1/2-x,1/2+y,-z
1/2-x,1/2-y,-z
1/2+x,1/2+y,-z
1/2-x,1/2+y,z
1/2+x,1/2-y,z
loop_
_atom_site_type_symbol
_atom_site_label
_atom_site_fract_x
_atom_site_fract_y
_atom_site_fract_z
Si Si1 0.188440 0.381577 0.312553
Si Si2 0.811096 0.188414 0.192909
Si Si3 0.191647 0.882347 0.928574
Si Si4 0.689914 0.500000 0.122888
Si Si5 0.311816 0.310036 0.573625
Si Si6 0.310130 0.000000 0.267840
O O1 0.250906 0.346109 0.253163
O O2 0.248515 0.354740 0.377650
O O3 0.240240 0.444208 0.302314
O O4 0.000000 0.379905 0.311883
O O5 0.750000 0.250000 0.195728
O O6 0.757941 0.158287 0.127701
O O7 0.000000 0.188615 0.194263
O O8 0.241261 0.944154 0.911319
O O9 0.000000 0.882109 0.928520
O O10 0.243803 0.867391 0.000000
O O11 0.500000 0.500000 0.122769
O O12 0.747066 0.500000 0.195681
O O13 0.262195 0.319665 0.500000
O O14 0.500000 0.309257 0.575942
O O15 0.250000 0.250000 0.592559
O O16 0.500000 0.000000 0.265174
#
# Coordination Sequence:
#
# PCOD9483019 Si02
#       6
#    16  16  16   8  16   8
#     4  11  22  38  59  83 113 148 186 228 274 327
#     4  11  22  36  55  79 109 145 187 232 280 332
#     4   9  18  32  53  81 109 139 180 230 282 335
#     4  10  17  32  58  83 105 137 182 232 279 332
#     4  10  21  38  61  89 119 150 185 226 271 320
#     4  10  22  37  56  82 114 146 180 227 280 328
#
# _framework density 18.360582000000001
#
# number of rings (size 3 to 8) (size 9 to 14) (size 15 to 20)
#    0.000    1.800    2.000    2.700    0.000    3.600 
#    0.000    0.500    0.000    8.400    0.000    0.000 
#    0.000    0.000    0.000    0.000    0.000    0.000 
#
# Total GULP energy -223427.404779 kJ/mol
# GULP energy per Si atom -5585.685119 kJ/mol
# Density = 1.831879 g / cm^3
# Si number density = 18.360582 Si / 1000 Ang^3
#
#
#
# Elastic Constant Matrix: (Units=GPa)
#
#
# Indices 1 2 3 4 5 6 
#
# 1 30.0254 28.8600 23.9363 0.0000 0.0000 0.0000
# 2 28.8600 162.8477 82.7960 0.0000 0.0000 0.0000
# 3 23.9363 82.7960 121.8403 0.0000 0.0000 0.0000
# 4 0.0000 0.0000 0.0000 30.7689 0.0000 0.0000
# 5 0.0000 0.0000 0.0000 0.0000 12.5746 0.0000
# 6 0.0000 0.0000 0.0000 0.0000 0.0000 10.5798
#
#
#
# Elastic Compliance Matrix: (Units=1/GPa)
#
#
# Indices 1 2 3 4 5 6 
#
# 1 0.041955 -0.004958 -0.004874 0.000000 0.000000 0.000000
# 2 -0.004958 0.009968 -0.005800 0.000000 0.000000 0.000000
# 3 -0.004874 -0.005800 0.013106 0.000000 0.000000 0.000000
# 4 0.000000 0.000000 0.000000 0.032500 0.000000 0.000000
# 5 0.000000 0.000000 0.000000 0.000000 0.079526 0.000000
# 6 0.000000 0.000000 0.000000 0.000000 0.000000 0.094519
#
#
# Mechanical properties :
#
#
# Convention : Reuss Voigt Hill
#
# Bulk Modulus (GPa) = 29.61399 65.09978 47.35689
# Shear Modulus (GPa) = 15.91887 22.72606 19.32246
#
# Velocity S-wave (km/s) = 2.94770 3.52200 3.24757
# Velocity P-wave (km/s) = 5.26777 7.21613 6.31751
#
# Compressibility (1/GPa) = 0.03376782
#
# Stress axis : x y z
#
# Youngs Moduli (GPa) = 23.83484 100.32039 76.30017
#
# Poissons Ratio (x) = 0.49734 0.37185
# Poissons Ratio (y) = 0.11816 0.44253
# Poissons Ratio (z) = 0.11616 0.58184
#
# Static dielectric constant tensor:
#      x y z
#    x 1.626140 0.000000 0.000000 
#    y 0.000000 1.612630 0.000000 
#    z 0.000000 0.000000 1.613450 
# 
# From -- ./inp_files/59651.got.cif
#   From: 2010.05.17/outbox.cif.g08.bks.cpg/sg65_30_cif.got.tgz:59651.got - 2010.06.03 17:01:31.
