data_PCOD9483754
_publ_section_title
;
Structure prediction by ZEFSAII (Michael W. Deem and Ramdas Pophale) SiO2 
 PCOD9483754
Probable space group: C M M M
;
_chemical_formula_sum "Si O2"
_cell_formula_units_Z 80
_cell_length_a 9.204406
_cell_length_b 25.944854
_cell_length_c 22.795996
_cell_angle_alpha 90.000000
_cell_angle_beta 90.000000
_cell_angle_gamma 90.000000
_cell_volume 5443.842729
_symmetry_space_group_name_H-M "C M M M"
_symmetry_group_IT_number 65
_symmetry_cell_setting 'orthorhombic'
loop_
_space_group_symop_operation_xyz
x,y,z
-x,-y,z
x,-y,-z
-x,y,-z
-x,-y,-z
x,y,-z
-x,y,z
x,-y,z
1/2+x,1/2+y,z
1/2-x,1/2-y,z
1/2+x,1/2-y,-z
1/2-x,1/2+y,-z
1/2-x,1/2-y,-z
1/2+x,1/2+y,-z
1/2-x,1/2+y,z
1/2+x,1/2-y,z
loop_
_atom_site_type_symbol
_atom_site_label
_atom_site_fract_x
_atom_site_fract_y
_atom_site_fract_z
Si Si1 0.167489 0.937144 0.500000
Si Si2 0.667236 0.937263 0.382485
Si Si3 0.672996 0.804793 0.931065
Si Si4 0.324510 0.603120 0.136916
Si Si5 0.173236 0.060894 0.263538
Si Si6 0.823539 0.000000 0.932926
O O1 0.248190 0.920272 0.559234
O O2 0.000000 0.921241 0.500000
O O3 0.169908 0.000000 0.500000
O O4 0.500000 0.921073 0.384295
O O5 0.743893 0.921920 0.321919
O O6 0.670104 0.000000 0.383028
O O7 0.500000 0.800897 0.921686
O O8 0.750000 0.750000 0.920429
O O9 0.744331 0.848332 0.890799
O O10 0.697091 0.817867 0.000000
O O11 0.500000 0.608969 0.131682
O O12 0.290524 0.592384 0.205048
O O13 0.281010 0.551689 0.101134
O O14 0.000000 0.064414 0.273348
O O15 0.205028 0.000000 0.252948
O O16 0.000000 0.000000 0.933549
O O17 0.772427 0.000000 0.000000
#
# Coordination Sequence:
#
# PCOD9483754 Si02
#       6
#     8  16  16  16  16   8
#     4   9  15  23  35  51  71 101 142 185 224 257
#     4   9  16  24  35  52  76 107 144 183 221 257
#     4  10  21  36  52  69  88 112 145 186 232 279
#     4  10  18  30  48  69  91 118 150 185 222 266
#     4   9  16  27  41  59  85 116 150 181 213 259
#     4   9  16  26  43  67  91 116 147 180 217 263
#
# _framework density 14.695503
#
# number of rings (size 3 to 8) (size 9 to 14) (size 15 to 20)
#    0.000    2.600    1.000    2.100    0.000    6.400 
#    0.000    0.500    0.000    1.800    0.000    0.000 
#    0.000    0.000    0.000    0.900    0.000   12.100 
#
# Total GULP energy -222930.223979 kJ/mol
# GULP energy per Si atom -5573.255599 kJ/mol
# Density = 1.466206 g / cm^3
# Si number density = 14.695503 Si / 1000 Ang^3
#
#
#
# Elastic Constant Matrix: (Units=GPa)
#
#
# Indices 1 2 3 4 5 6 
#
# 1 83.0406 44.6565 87.3025 0.0000 0.0000 0.0000
# 2 44.6565 62.5224 62.1499 0.0000 0.0000 0.0000
# 3 87.3025 62.1499 162.5800 0.0000 0.0000 0.0000
# 4 0.0000 0.0000 0.0000 11.3090 0.0000 0.0000
# 5 0.0000 0.0000 0.0000 0.0000 23.3462 0.0000
# 6 0.0000 0.0000 0.0000 0.0000 0.0000 18.4362
#
#
#
# Elastic Compliance Matrix: (Units=1/GPa)
#
#
# Indices 1 2 3 4 5 6 
#
# 1 0.030417 -0.008854 -0.012949 0.000000 0.000000 0.000000
# 2 -0.008854 0.028374 -0.006092 0.000000 0.000000 0.000000
# 3 -0.012949 -0.006092 0.015433 0.000000 0.000000 0.000000
# 4 0.000000 0.000000 0.000000 0.088425 0.000000 0.000000
# 5 0.000000 0.000000 0.000000 0.000000 0.042834 0.000000
# 6 0.000000 0.000000 0.000000 0.000000 0.000000 0.054241
#
#
# Mechanical properties :
#
#
# Convention : Reuss Voigt Hill
#
# Bulk Modulus (GPa) = 54.24648 77.37342 65.80995
# Shear Modulus (GPa) = 15.54445 18.22056 16.88250
#
# Velocity S-wave (km/s) = 3.25587 3.52500 3.39310
# Velocity P-wave (km/s) = 7.15039 8.32664 7.76083
#
# Compressibility (1/GPa) = 0.01843438
#
# Stress axis : x y z
#
# Youngs Moduli (GPa) = 32.87648 35.24352 64.79591
#
# Poissons Ratio (x) = 0.31203 0.83903
# Poissons Ratio (y) = 0.29107 0.39476
# Poissons Ratio (z) = 0.42571 0.21472
#
# Static dielectric constant tensor:
#      x y z
#    x 1.490260 0.000000 0.000000 
#    y 0.000000 1.449530 0.000000 
#    z 0.000000 0.000000 1.485130 
# 
# From -- ./inp_files/60058.got.cif
#   From: 2010.05.17/outbox.cif.g08.bks.cpg/sg65_31_cif.got.tgz:60058.got - 2010.06.03 17:01:31.
