data_PCOD9483183
_publ_section_title
;
Structure prediction by ZEFSAII (Michael W. Deem and Ramdas Pophale) SiO2 
 PCOD9483183
Probable space group: C M M M
;
_chemical_formula_sum "Si O2"
_cell_formula_units_Z 88
_cell_length_a 13.850945
_cell_length_b 16.742008
_cell_length_c 21.720190
_cell_angle_alpha 90.000000
_cell_angle_beta 90.000000
_cell_angle_gamma 90.000000
_cell_volume 5036.752027
_symmetry_space_group_name_H-M "C M M M"
_symmetry_group_IT_number 65
_symmetry_cell_setting 'orthorhombic'
loop_
_space_group_symop_operation_xyz
x,y,z
-x,-y,z
x,-y,-z
-x,y,-z
-x,-y,-z
x,y,-z
-x,y,z
x,-y,z
1/2+x,1/2+y,z
1/2-x,1/2-y,z
1/2+x,1/2-y,-z
1/2-x,1/2+y,-z
1/2-x,1/2-y,-z
1/2+x,1/2+y,-z
1/2-x,1/2+y,z
1/2+x,1/2-y,z
loop_
_atom_site_type_symbol
_atom_site_label
_atom_site_fract_x
_atom_site_fract_y
_atom_site_fract_z
Si Si1 0.388347 0.627715 0.707677
Si Si2 0.226608 0.343818 0.618962
Si Si3 0.610899 0.816412 0.260730
Si Si4 0.609207 0.597161 0.070555
Si Si5 0.612562 0.095371 0.500000
Si Si6 0.242954 0.090698 0.819311
O O1 0.500000 0.606256 0.700415
O O2 0.325779 0.617985 0.645351
O O3 0.381932 0.721487 0.727406
O O4 0.336109 0.586071 0.764655
O O5 0.250000 0.250000 0.609221
O O6 0.154140 0.352892 0.676641
O O7 0.173268 0.376954 0.559438
O O8 0.500000 0.837457 0.252007
O O9 0.675499 0.849860 0.205565
O O10 0.500000 0.623094 0.087123
O O11 0.608507 0.500000 0.071878
O O12 0.688171 0.621704 0.120201
O O13 0.628664 0.621085 0.000000
O O14 0.500000 0.124893 0.500000
O O15 0.608243 0.000000 0.500000
O O16 0.279522 0.000000 0.829719
#
# Coordination Sequence:
#
# PCOD9483183 Si02
#       6
#    16  16  16  16   8  16
#     4   9  18  33  52  72  95 123 155 192 236 285
#     4   9  18  34  53  72  92 121 163 199 227 270
#     4   9  18  33  51  69  93 126 160 192 229 278
#     4   8  14  25  41  63  93 127 161 197 237 281
#     4  11  23  36  51  73 101 129 156 193 240 282
#     4  10  18  27  45  73  99 121 152 197 243 284
#
# _framework density 17.471577
#
# number of rings (size 3 to 8) (size 9 to 14) (size 15 to 20)
#    0.000    2.818    0.000    3.545    0.000    5.091 
#    0.000    0.455    0.000    3.273    0.000    5.091 
#    0.000    0.000    0.000    0.000    0.000    0.000 
#
# Total GULP energy -245149.787352 kJ/mol
# GULP energy per Si atom -5571.586076 kJ/mol
# Density = 1.743181 g / cm^3
# Si number density = 17.471577 Si / 1000 Ang^3
#
#
#
# Elastic Constant Matrix: (Units=GPa)
#
#
# Indices 1 2 3 4 5 6 
#
# 1 145.5673 31.5536 67.4079 0.0000 0.0000 0.0000
# 2 31.5536 21.0148 21.7429 0.0000 0.0000 0.0000
# 3 67.4079 21.7429 105.4235 0.0000 0.0000 0.0000
# 4 0.0000 0.0000 0.0000 20.3677 0.0000 0.0000
# 5 0.0000 0.0000 0.0000 0.0000 90.9862 0.0000
# 6 0.0000 0.0000 0.0000 0.0000 0.0000 21.3099
#
#
#
# Elastic Compliance Matrix: (Units=1/GPa)
#
#
# Indices 1 2 3 4 5 6 
#
# 1 0.011959 -0.012770 -0.005013 0.000000 0.000000 0.000000
# 2 -0.012770 0.074130 -0.007124 0.000000 0.000000 0.000000
# 3 -0.005013 -0.007124 0.014160 0.000000 0.000000 0.000000
# 4 0.000000 0.000000 0.000000 0.049097 0.000000 0.000000
# 5 0.000000 0.000000 0.000000 0.000000 0.010991 0.000000
# 6 0.000000 0.000000 0.000000 0.000000 0.000000 0.046927
#
#
# Mechanical properties :
#
#
# Convention : Reuss Voigt Hill
#
# Bulk Modulus (GPa) = 19.82709 57.04605 38.43657
# Shear Modulus (GPa) = 18.25559 36.61952 27.43755
#
# Velocity S-wave (km/s) = 3.23596 4.58312 3.96714
# Velocity P-wave (km/s) = 5.03336 7.79284 6.55984
#
# Compressibility (1/GPa) = 0.05043603
#
# Stress axis : x y z
#
# Youngs Moduli (GPa) = 83.61873 13.48981 70.62121
#
# Poissons Ratio (x) = 0.17226 0.35402
# Poissons Ratio (y) = 1.06780 0.50309
# Poissons Ratio (z) = 0.41918 0.09610
#
# Static dielectric constant tensor:
#      x y z
#    x 1.605880 0.000000 0.000000 
#    y 0.000000 1.627460 0.000000 
#    z 0.000000 0.000000 1.582040 
# 
# From -- ./inp_files/62490.got.cif
#   From: 2010.05.17/outbox.cif.g08.bks.cpg/sg65_32_cif.got.tgz:62490.got - 2010.06.03 17:01:31.
