data_PCOD9483995
_publ_section_title
;
Structure prediction by ZEFSAII (Michael W. Deem and Ramdas Pophale) SiO2 
 PCOD9483995
Probable space group: C M M M
;
_chemical_formula_sum "Si O2"
_cell_formula_units_Z 56
_cell_length_a 8.706469
_cell_length_b 23.803252
_cell_length_c 15.825694
_cell_angle_alpha 90.000000
_cell_angle_beta 90.000000
_cell_angle_gamma 90.000000
_cell_volume 3279.752838
_symmetry_space_group_name_H-M "C M M M"
_symmetry_group_IT_number 65
_symmetry_cell_setting 'orthorhombic'
loop_
_space_group_symop_operation_xyz
x,y,z
-x,-y,z
x,-y,-z
-x,y,-z
-x,-y,-z
x,y,-z
-x,y,z
x,-y,z
1/2+x,1/2+y,z
1/2-x,1/2-y,z
1/2+x,1/2-y,-z
1/2-x,1/2+y,-z
1/2-x,1/2-y,-z
1/2+x,1/2+y,-z
1/2-x,1/2+y,z
1/2+x,1/2-y,z
loop_
_atom_site_type_symbol
_atom_site_label
_atom_site_fract_x
_atom_site_fract_y
_atom_site_fract_z
Si Si1 0.683493 0.812355 0.500000
Si Si2 0.815973 0.186927 0.175410
Si Si3 0.815457 0.500000 0.399875
Si Si4 0.684167 0.617858 0.656199
Si Si5 0.816535 0.313400 0.000000
O O1 0.500000 0.811305 0.500000
O O2 0.750000 0.750000 0.500000
O O3 0.743870 0.844813 0.582002
O O4 0.750000 0.250000 0.189063
O O5 0.779246 0.147305 0.254611
O O6 0.746416 0.162932 0.088189
O O7 0.000000 0.191516 0.167095
O O8 0.772582 0.500000 0.500000
O O9 0.749656 0.444422 0.356040
O O10 0.000000 0.500000 0.395810
O O11 0.500000 0.616801 0.647099
O O12 0.750000 0.250000 0.000000
O O13 0.000000 0.312415 0.000000
#
# Coordination Sequence:
#
# PCOD9483995 Si02
#       5
#     8  16   8  16   8
#     4  12  24  37  54  79 112 146 180 222 274 328
#     4  10  20  34  54  82 113 145 181 222 272 325
#     4  11  23  39  59  82 106 143 188 232 277 323
#     4  11  23  38  58  81 108 145 185 229 275 324
#     4  10  18  30  52  79 110 147 180 218 268 322
#
# _framework density 17.074459000000001
#
# number of rings (size 3 to 8) (size 9 to 14) (size 15 to 20)
#    0.000    1.286    1.429    7.286    0.000    7.429 
#    0.000    0.000    0.000    0.857    0.000    6.000 
#    0.000    0.000    0.000    0.000    0.000    0.000 
#
# Total GULP energy -156433.596579 kJ/mol
# GULP energy per Si atom -5586.914164 kJ/mol
# Density = 1.703560 g / cm^3
# Si number density = 17.074459 Si / 1000 Ang^3
#
#
#
# Elastic Constant Matrix: (Units=GPa)
#
#
# Indices 1 2 3 4 5 6 
#
# 1 106.9268 58.0775 92.1539 0.0000 0.0000 0.0000
# 2 58.0775 137.9627 88.2814 0.0000 0.0000 0.0000
# 3 92.1539 88.2814 189.6727 0.0000 0.0000 0.0000
# 4 0.0000 0.0000 0.0000 -5.2501 0.0000 0.0000
# 5 0.0000 0.0000 0.0000 0.0000 23.5664 0.0000
# 6 0.0000 0.0000 0.0000 0.0000 0.0000 29.1887
#
#
#
# Elastic Compliance Matrix: (Units=1/GPa)
#
#
# Indices 1 2 3 4 5 6 
#
# 1 0.016730 -0.002623 -0.006908 0.000000 0.000000 0.000000
# 2 -0.002623 0.010734 -0.003722 0.000000 0.000000 0.000000
# 3 -0.006908 -0.003722 0.010361 0.000000 0.000000 0.000000
# 4 0.000000 0.000000 0.000000 -0.190473 0.000000 0.000000
# 5 0.000000 0.000000 0.000000 0.000000 0.042433 0.000000
# 6 0.000000 0.000000 0.000000 0.000000 0.000000 0.034260
#
#
# Mechanical properties :
#
#
# Convention : Reuss Voigt Hill
#
# Bulk Modulus (GPa) = 88.33610 101.28755 94.81183
# Shear Modulus (GPa) = -109.46341 22.57096 -43.44623
#
# Velocity S-wave (km/s) = -8.01552 3.63976 -5.04979
# Velocity P-wave (km/s) = 5.81521 8.78144 4.65279
#
# Compressibility (1/GPa) = 0.01132040
#
# Stress axis : x y z
#
# Youngs Moduli (GPa) = 59.77282 93.16278 96.51839
#
# Poissons Ratio (x) = 0.24432 0.66673
# Poissons Ratio (y) = 0.15676 0.35922
# Poissons Ratio (z) = 0.41290 0.34674
#
# Static dielectric constant tensor:
#      x y z
#    x 1.570580 0.000000 0.000000 
#    y 0.000000 1.551440 0.000000 
#    z 0.000000 0.000000 1.596500 
# 
# From -- ./inp_files/35582.got.cif
#   From: 2010.05.17/outbox.cif.g08.bks.cpg/sg65_18_cif.got.tgz:35582.got - 2010.06.03 17:01:31.
