data_PCOD9483073
_publ_section_title
;
Structure prediction by ZEFSAII (Michael W. Deem and Ramdas Pophale) SiO2 
 PCOD9483073
Probable space group: C M M M
;
_chemical_formula_sum "Si O2"
_cell_formula_units_Z 88
_cell_length_a 22.252223
_cell_length_b 21.095925
_cell_length_c 13.184505
_cell_angle_alpha 90.000000
_cell_angle_beta 90.000000
_cell_angle_gamma 90.000000
_cell_volume 6189.218366
_symmetry_space_group_name_H-M "C M M M"
_symmetry_group_IT_number 65
_symmetry_cell_setting 'orthorhombic'
loop_
_space_group_symop_operation_xyz
x,y,z
-x,-y,z
x,-y,-z
-x,y,-z
-x,-y,-z
x,y,-z
-x,y,z
x,-y,z
1/2+x,1/2+y,z
1/2-x,1/2-y,z
1/2+x,1/2-y,-z
1/2-x,1/2+y,-z
1/2-x,1/2-y,-z
1/2+x,1/2+y,-z
1/2-x,1/2+y,z
1/2+x,1/2-y,z
loop_
_atom_site_type_symbol
_atom_site_label
_atom_site_fract_x
_atom_site_fract_y
_atom_site_fract_z
Si Si1 0.500000 0.075467 0.121493
Si Si2 0.652597 0.777685 0.384906
Si Si3 0.218486 0.149935 0.615081
Si Si4 0.742994 0.924696 0.804439
Si Si5 0.654448 0.224559 0.000000
Si Si6 0.219185 0.147990 0.000000
Si Si7 0.884166 0.649862 0.806674
O O1 0.558786 0.106536 0.170778
O O2 0.500000 0.000000 0.135838
O O3 0.500000 0.087590 0.000000
O O4 0.628896 0.781880 0.500000
O O5 0.717072 0.813836 0.384441
O O6 0.669527 0.704610 0.362046
O O7 0.614104 0.811615 0.298606
O O8 0.208823 0.126692 0.500000
O O9 0.224361 0.097598 0.701416
O O10 0.777920 0.894765 0.899919
O O11 0.676309 0.893250 0.805733
O O12 0.738496 0.000000 0.812010
O O13 0.718911 0.188667 0.000000
O O14 0.667344 0.299255 0.000000
O O15 0.622411 0.199587 0.101025
#
# Coordination Sequence:
#
# PCOD9483073 Si02
#       7
#     8  16  16  16   8   8  16
#     4  11  22  34  45  59  83 115 152 190 220 244
#     4   8  14  26  45  63  80 103 135 176 218 255
#     4   8  14  25  41  62  83 106 137 170 205 251
#     4  10  18  26  38  58  86 118 143 167 201 249
#     4   9  16  27  43  60  74  98 135 182 223 251
#     4   9  17  26  38  58  81 102 132 171 215 263
#     4  10  18  30  44  60  79 108 150 187 213 245
#
# _framework density 14.218273
#
# number of rings (size 3 to 8) (size 9 to 14) (size 15 to 20)
#    0.000    2.818    0.909    3.000    0.000    4.727 
#    0.000    0.455    0.000    2.182    0.000    0.000 
#    0.000    0.000    0.000   33.545    0.000   27.273 
#
# Total GULP energy -244959.642097 kJ/mol
# GULP energy per Si atom -5567.264593 kJ/mol
# Density = 1.418591 g / cm^3
# Si number density = 14.218273 Si / 1000 Ang^3
#
#
#
# Elastic Constant Matrix: (Units=GPa)
#
#
# Indices 1 2 3 4 5 6 
#
# 1 40.7384 35.9915 41.6285 0.0000 0.0000 0.0000
# 2 35.9915 99.1489 72.1994 0.0000 0.0000 0.0000
# 3 41.6285 72.1994 123.4722 0.0000 0.0000 0.0000
# 4 0.0000 0.0000 0.0000 12.8721 0.0000 0.0000
# 5 0.0000 0.0000 0.0000 0.0000 10.3333 0.0000
# 6 0.0000 0.0000 0.0000 0.0000 0.0000 21.0072
#
#
#
# Elastic Compliance Matrix: (Units=1/GPa)
#
#
# Indices 1 2 3 4 5 6 
#
# 1 0.041119 -0.008414 -0.008943 0.000000 0.000000 0.000000
# 2 -0.008414 0.019287 -0.008441 0.000000 0.000000 0.000000
# 3 -0.008943 -0.008441 0.016050 0.000000 0.000000 0.000000
# 4 0.000000 0.000000 0.000000 0.077688 0.000000 0.000000
# 5 0.000000 0.000000 0.000000 0.000000 0.096774 0.000000
# 6 0.000000 0.000000 0.000000 0.000000 0.000000 0.047603
#
#
# Mechanical properties :
#
#
# Convention : Reuss Voigt Hill
#
# Bulk Modulus (GPa) = 40.22630 62.55538 51.39084
# Shear Modulus (GPa) = 13.95074 16.41185 15.18130
#
# Velocity S-wave (km/s) = 3.13578 3.40115 3.27116
# Velocity P-wave (km/s) = 6.43927 7.71465 7.10563
#
# Compressibility (1/GPa) = 0.02485936
#
# Stress axis : x y z
#
# Youngs Moduli (GPa) = 24.31960 51.84872 62.30519
#
# Poissons Ratio (x) = 0.43626 0.55721
# Poissons Ratio (y) = 0.20463 0.52592
# Poissons Ratio (z) = 0.21750 0.43766
#
# Static dielectric constant tensor:
#      x y z
#    x 1.444980 0.000000 0.000000 
#    y 0.000000 1.453510 0.000000 
#    z 0.000000 0.000000 1.486870 
# 
# From -- ./inp_files/44357.got.cif
#   From: 2010.05.17/outbox.cif.g08.bks.cpg/sg65_23_cif.got.tgz:44357.got - 2010.06.03 17:01:31.
