data_PCOD9483843
_publ_section_title
;
Structure prediction by ZEFSAII (Michael W. Deem and Ramdas Pophale) SiO2 
 PCOD9483843
Probable space group: C M M M
;
_chemical_formula_sum "Si O2"
_cell_formula_units_Z 104
_cell_length_a 18.263846
_cell_length_b 14.814083
_cell_length_c 20.251152
_cell_angle_alpha 90.000000
_cell_angle_beta 90.000000
_cell_angle_gamma 90.000000
_cell_volume 5479.194831
_symmetry_space_group_name_H-M "C M M M"
_symmetry_group_IT_number 65
_symmetry_cell_setting 'orthorhombic'
loop_
_space_group_symop_operation_xyz
x,y,z
-x,-y,z
x,-y,-z
-x,y,-z
-x,-y,-z
x,y,-z
-x,y,z
x,-y,z
1/2+x,1/2+y,z
1/2-x,1/2-y,z
1/2+x,1/2-y,-z
1/2-x,1/2+y,-z
1/2-x,1/2-y,-z
1/2+x,1/2+y,-z
1/2-x,1/2+y,z
1/2+x,1/2-y,z
loop_
_atom_site_type_symbol
_atom_site_label
_atom_site_fract_x
_atom_site_fract_y
_atom_site_fract_z
Si Si1 0.218639 0.393992 0.276324
Si Si2 0.920614 0.288167 0.266479
Si Si3 0.381280 0.605681 0.317184
Si Si4 0.280734 0.895470 0.121276
Si Si5 0.078073 0.295968 0.886342
Si Si6 0.615760 0.400386 0.922806
Si Si7 0.500000 0.391586 0.426026
O O1 0.199474 0.500000 0.278486
O O2 0.150115 0.334134 0.298739
O O3 0.293621 0.382357 0.316836
O O4 0.233482 0.370632 0.198718
O O5 0.910193 0.180325 0.266501
O O6 0.921742 0.321084 0.191072
O O7 0.000000 0.309325 0.296562
O O8 0.395242 0.500000 0.300841
O O9 0.427188 0.628694 0.383235
O O10 0.345508 0.837101 0.089458
O O11 0.203232 0.889507 0.085459
O O12 0.304175 0.000000 0.120602
O O13 0.081427 0.188210 0.891891
O O14 0.000000 0.326809 0.915157
O O15 0.596789 0.500000 0.895187
O O16 0.596943 0.400345 0.000000
O O17 0.500000 0.500000 0.431367
O O18 0.500000 0.353466 0.500000
#
# Coordination Sequence:
#
# PCOD9483843 Si02
#       7
#    16  16  16  16  16  16   8
#     4   9  18  31  50  74 101 132 165 204 246 292
#     4  10  19  31  48  73 103 134 162 199 248 298
#     4  10  18  30  49  74 101 130 165 202 245 292
#     4   9  18  34  53  72  95 125 161 202 246 291
#     4  10  21  33  48  73 100 125 158 197 246 298
#     4  10  21  36  52  68  89 124 167 204 243 297
#     4   9  18  32  50  74 105 139 170 204 249 294
#
# _framework density 18.980889999999999
#
# number of rings (size 3 to 8) (size 9 to 14) (size 15 to 20)
#    0.000    2.385    0.769    1.846    0.000    6.769 
#    0.000    5.385    0.000    1.846    0.000    3.231 
#    0.000    0.615    0.000    0.000    0.000    0.000 
#
# Total GULP energy -289720.046871 kJ/mol
# GULP energy per Si atom -5571.539363 kJ/mol
# Density = 1.893769 g / cm^3
# Si number density = 18.980890 Si / 1000 Ang^3
#
#
#
# Elastic Constant Matrix: (Units=GPa)
#
#
# Indices 1 2 3 4 5 6 
#
# 1 126.2267 42.4569 22.4416 0.0000 0.0000 0.0000
# 2 42.4569 51.4038 6.5456 0.0000 0.0000 0.0000
# 3 22.4416 6.5456 38.2350 0.0000 0.0000 0.0000
# 4 0.0000 0.0000 0.0000 7.7135 0.0000 0.0000
# 5 0.0000 0.0000 0.0000 0.0000 16.5385 0.0000
# 6 0.0000 0.0000 0.0000 0.0000 0.0000 15.5614
#
#
#
# Elastic Compliance Matrix: (Units=1/GPa)
#
#
# Indices 1 2 3 4 5 6 
#
# 1 0.011990 -0.009208 -0.005461 0.000000 0.000000 0.000000
# 2 -0.009208 0.026959 0.000789 0.000000 0.000000 0.000000
# 3 -0.005461 0.000789 0.029224 0.000000 0.000000 0.000000
# 4 0.000000 0.000000 0.000000 0.129643 0.000000 0.000000
# 5 0.000000 0.000000 0.000000 0.000000 0.060465 0.000000
# 6 0.000000 0.000000 0.000000 0.000000 0.000000 0.064262
#
#
# Mechanical properties :
#
#
# Convention : Reuss Voigt Hill
#
# Bulk Modulus (GPa) = 24.74416 39.86154 32.30285
# Shear Modulus (GPa) = 13.74479 17.59077 15.66778
#
# Velocity S-wave (km/s) = 2.69390 3.04758 2.87618
# Velocity P-wave (km/s) = 4.76873 5.78188 5.29957
#
# Compressibility (1/GPa) = 0.04041358
#
# Stress axis : x y z
#
# Youngs Moduli (GPa) = 83.40037 37.09387 34.21808
#
# Poissons Ratio (x) = 0.34156 0.18687
# Poissons Ratio (y) = 0.76795 -0.02701
# Poissons Ratio (z) = 0.45547 -0.02928
#
# Static dielectric constant tensor:
#      x y z
#    x 1.728150 0.000000 0.000000 
#    y 0.000000 1.685630 0.000000 
#    z 0.000000 0.000000 1.650710 
# 
# From -- ./inp_files/62886.got.cif
#   From: 2010.05.17/outbox.cif.g08.bks.cpg/sg65_32_cif.got.tgz:62886.got - 2010.06.03 17:01:31.
