data_PCOD9483605
_publ_section_title
;
Structure prediction by ZEFSAII (Michael W. Deem and Ramdas Pophale) SiO2 
 PCOD9483605
Probable space group: C M M M
;
_chemical_formula_sum "Si O2"
_cell_formula_units_Z 80
_cell_length_a 18.795731
_cell_length_b 8.580959
_cell_length_c 26.870266
_cell_angle_alpha 90.000000
_cell_angle_beta 90.000000
_cell_angle_gamma 90.000000
_cell_volume 4333.781522
_symmetry_space_group_name_H-M "C M M M"
_symmetry_group_IT_number 65
_symmetry_cell_setting 'orthorhombic'
loop_
_space_group_symop_operation_xyz
x,y,z
-x,-y,z
x,-y,-z
-x,y,-z
-x,-y,-z
x,y,-z
-x,y,z
x,-y,z
1/2+x,1/2+y,z
1/2-x,1/2-y,z
1/2+x,1/2-y,-z
1/2-x,1/2+y,-z
1/2-x,1/2-y,-z
1/2+x,1/2+y,-z
1/2-x,1/2+y,z
1/2+x,1/2-y,z
loop_
_atom_site_type_symbol
_atom_site_label
_atom_site_fract_x
_atom_site_fract_y
_atom_site_fract_z
Si Si1 0.581679 0.809849 0.745213
Si Si2 0.831054 0.813160 0.054173
Si Si3 0.669419 0.813158 0.157798
Si Si4 0.417435 0.312029 0.443289
Si Si5 0.670452 0.813477 0.351235
O O1 0.500000 0.757463 0.744432
O O2 0.622750 0.761696 0.795180
O O3 0.624123 0.758908 0.696144
O O4 0.581194 0.000000 0.745018
O O5 0.750000 0.750000 0.053363
O O6 0.861905 0.744834 0.105062
O O7 0.829327 0.000000 0.057645
O O8 0.862902 0.770781 0.000000
O O9 0.750000 0.750000 0.162819
O O10 0.672674 0.000000 0.156902
O O11 0.399147 0.265651 0.500000
O O12 0.500000 0.267943 0.434280
O O13 0.413498 0.500000 0.440920
O O14 0.367145 0.240902 0.401796
O O15 0.750000 0.750000 0.347862
O O16 0.672537 0.000000 0.350212
#
# Coordination Sequence:
#
# PCOD9483605 Si02
#       5
#    16  16  16  16  16
#     4   9  19  35  53  74 100 131 168 210 256 304
#     4   9  16  26  42  66  97 129 161 200 244 291
#     4  10  18  29  49  73  99 129 161 203 249 296
#     4   9  19  37  59  82 110 142 175 214 259 306
#     4  11  22  36  56  80 108 140 175 217 261 308
#
# _framework density 18.459629
#
# number of rings (size 3 to 8) (size 9 to 14) (size 15 to 20)
#    0.000    2.400    0.000    4.800    0.000    3.200 
#    0.000    4.000    0.000    7.800    0.000    4.200 
#    0.000    0.000    0.000    0.000    0.000    0.000 
#
# Total GULP energy -223127.463424 kJ/mol
# GULP energy per Si atom -5578.186586 kJ/mol
# Density = 1.841761 g / cm^3
# Si number density = 18.459629 Si / 1000 Ang^3
#
#
#
# Elastic Constant Matrix: (Units=GPa)
#
#
# Indices 1 2 3 4 5 6 
#
# 1 115.4103 28.5244 108.7268 0.0000 0.0000 0.0000
# 2 28.5244 39.9044 41.0941 0.0000 0.0000 0.0000
# 3 108.7268 41.0941 203.0344 0.0000 0.0000 0.0000
# 4 0.0000 0.0000 0.0000 18.1066 0.0000 0.0000
# 5 0.0000 0.0000 0.0000 0.0000 -18.5242 0.0000
# 6 0.0000 0.0000 0.0000 0.0000 0.0000 3.0572
#
#
#
# Elastic Compliance Matrix: (Units=1/GPa)
#
#
# Indices 1 2 3 4 5 6 
#
# 1 0.017908 -0.003695 -0.008842 0.000000 0.000000 0.000000
# 2 -0.003695 0.032421 -0.004583 0.000000 0.000000 0.000000
# 3 -0.008842 -0.004583 0.010588 0.000000 0.000000 0.000000
# 4 0.000000 0.000000 0.000000 0.055228 0.000000 0.000000
# 5 0.000000 0.000000 0.000000 0.000000 -0.053983 0.000000
# 6 0.000000 0.000000 0.000000 0.000000 0.000000 0.327096
#
#
# Mechanical properties :
#
#
# Convention : Reuss Voigt Hill
#
# Bulk Modulus (GPa) = 37.48679 79.44888 58.46784
# Shear Modulus (GPa) = 11.56359 12.52816 12.04588
#
# Velocity S-wave (km/s) = 2.50557 2.60797 2.55728
# Velocity P-wave (km/s) = 5.35929 7.22505 6.36095
#
# Compressibility (1/GPa) = 0.02667606
#
# Stress axis : x y z
#
# Youngs Moduli (GPa) = 55.84099 30.84403 94.44792
#
# Poissons Ratio (x) = 0.11398 0.83510
# Poissons Ratio (y) = 0.20636 0.43287
# Poissons Ratio (z) = 0.49374 0.14136
#
# Static dielectric constant tensor:
#      x y z
#    x 1.606780 0.000000 0.000000 
#    y 0.000000 1.616500 0.000000 
#    z 0.000000 0.000000 1.661570 
# 
# From -- ./inp_files/75014.got.cif
#   From: 2010.05.17/outbox.cif.g08.bks.cpg/sg65_38_cif.got.tgz:75014.got - 2010.06.03 17:01:31.
