data_PCOD9483161
_publ_section_title
;
Structure prediction by ZEFSAII (Michael W. Deem and Ramdas Pophale) SiO2 
 PCOD9483161
Probable space group: C M M M
;
_chemical_formula_sum "Si O2"
_cell_formula_units_Z 112
_cell_length_a 29.582233
_cell_length_b 22.498497
_cell_length_c 7.283324
_cell_angle_alpha 90.000000
_cell_angle_beta 90.000000
_cell_angle_gamma 90.000000
_cell_volume 4847.458389
_symmetry_space_group_name_H-M "C M M M"
_symmetry_group_IT_number 65
_symmetry_cell_setting 'orthorhombic'
loop_
_space_group_symop_operation_xyz
x,y,z
-x,-y,z
x,-y,-z
-x,y,-z
-x,-y,-z
x,y,-z
-x,y,z
x,-y,z
1/2+x,1/2+y,z
1/2-x,1/2-y,z
1/2+x,1/2-y,-z
1/2-x,1/2+y,-z
1/2-x,1/2-y,-z
1/2+x,1/2+y,-z
1/2-x,1/2+y,z
1/2+x,1/2-y,z
loop_
_atom_site_type_symbol
_atom_site_label
_atom_site_fract_x
_atom_site_fract_y
_atom_site_fract_z
Si Si1 0.951944 0.070793 0.222066
Si Si2 0.896612 0.433438 0.275853
Si Si3 0.286278 0.336852 0.706455
Si Si4 0.310034 0.870518 0.290097
Si Si5 0.855032 0.069030 0.221363
Si Si6 0.448181 0.186563 0.275713
Si Si7 0.636377 0.746932 0.290179
O O1 0.903607 0.095547 0.281823
O O2 0.000000 0.095853 0.286868
O O3 0.951880 0.000000 0.265791
O O4 0.951906 0.073971 0.000000
O O5 0.895883 0.432060 0.500000
O O6 0.910364 0.500000 0.221138
O O7 0.845125 0.418824 0.214353
O O8 0.928899 0.378573 0.220434
O O9 0.277591 0.312420 0.500000
O O10 0.237708 0.350247 0.792912
O O11 0.312437 0.398577 0.698087
O O12 0.324822 0.294842 0.793843
O O13 0.299140 0.889071 0.500000
O O14 0.340403 0.811489 0.296468
O O15 0.854989 0.000000 0.268227
O O16 0.852705 0.073530 0.000000
O O17 0.446705 0.187590 0.500000
O O18 0.500000 0.194643 0.219873
O O19 0.413160 0.237981 0.213031
O O20 0.630287 0.725385 0.500000
#
# Coordination Sequence:
#
# PCOD9483161 Si02
#       7
#    16  16  16  16  16  16  16
#     4   7  10  20  40  59  70  89 127 164 187 219
#     4   8  13  20  30  48  75 104 137 177 212 242
#     4  10  18  27  43  64  82 106 143 180 209 243
#     4   8  14  24  38  55  76 104 138 176 212 242
#     4   9  18  31  44  60  85 112 134 163 209 259
#     4   8  13  21  33  49  73 107 139 166 206 260
#     4   8  14  25  39  55  75 101 138 179 211 243
#
# _framework density 23.104892
#
# number of rings (size 3 to 8) (size 9 to 14) (size 15 to 20)
#    0.000    3.714    0.000    3.429    0.000    2.857 
#    0.000    3.571    0.000    3.000    0.000    2.000 
#    0.000    0.000    0.000    0.429    0.000    0.857 
#
# Total GULP energy -311908.424884 kJ/mol
# GULP energy per Si atom -5569.793301 kJ/mol
# Density = 2.305230 g / cm^3
# Si number density = 23.104892 Si / 1000 Ang^3
#
#
#
# Elastic Constant Matrix: (Units=GPa)
#
#
# Indices 1 2 3 4 5 6 
#
# 1 182.3152 5.5328 7.9769 0.0000 0.0000 0.0000
# 2 5.5328 9.4299 1.4471 0.0000 0.0000 0.0000
# 3 7.9769 1.4471 94.0073 0.0000 0.0000 0.0000
# 4 0.0000 0.0000 0.0000 -2.8535 0.0000 0.0000
# 5 0.0000 0.0000 0.0000 0.0000 -15.5852 0.0000
# 6 0.0000 0.0000 0.0000 0.0000 0.0000 22.6911
#
#
#
# Elastic Compliance Matrix: (Units=1/GPa)
#
#
# Indices 1 2 3 4 5 6 
#
# 1 0.005601 -0.003221 -0.000426 0.000000 0.000000 0.000000
# 2 -0.003221 0.108149 -0.001391 0.000000 0.000000 0.000000
# 3 -0.000426 -0.001391 0.010695 0.000000 0.000000 0.000000
# 4 0.000000 0.000000 0.000000 -0.350445 0.000000 0.000000
# 5 0.000000 0.000000 0.000000 0.000000 -0.064163 0.000000
# 6 0.000000 0.000000 0.000000 0.000000 0.000000 0.044070
#
#
# Mechanical properties :
#
#
# Convention : Reuss Voigt Hill
#
# Bulk Modulus (GPa) = 8.74364 35.07400 21.90882
# Shear Modulus (GPa) = -25.26611 18.90351 -3.18130
#
# Velocity S-wave (km/s) = -3.31046 2.86345 -1.17468
# Velocity P-wave (km/s) = 3.28932 5.11329 2.76823
#
# Compressibility (1/GPa) = 0.11436878
#
# Stress axis : x y z
#
# Youngs Moduli (GPa) = 178.52712 9.24649 93.50152
#
# Poissons Ratio (x) = 0.02978 0.03980
# Poissons Ratio (y) = 0.57507 0.13010
# Poissons Ratio (z) = 0.07600 0.01287
#
# Static dielectric constant tensor:
#      x y z
#    x 1.891940 0.000000 0.000000 
#    y 0.000000 1.849320 0.000000 
#    z 0.000000 0.000000 1.915510 
# 
# From -- ./inp_files/32765.got.cif
#   From: 2010.05.17/outbox.cif.g08.bks.cpg/sg65_17_cif.got.tgz:32765.got - 2010.06.03 17:01:31.
