data_PCOD9483070
_publ_section_title
;
Structure prediction by ZEFSAII (Michael W. Deem and Ramdas Pophale) SiO2 
 PCOD9483070
Probable space group: C M M M
;
_chemical_formula_sum "Si O2"
_cell_formula_units_Z 104
_cell_length_a 28.001715
_cell_length_b 8.574407
_cell_length_c 27.899159
_cell_angle_alpha 90.000000
_cell_angle_beta 90.000000
_cell_angle_gamma 90.000000
_cell_volume 6698.535098
_symmetry_space_group_name_H-M "C M M M"
_symmetry_group_IT_number 65
_symmetry_cell_setting 'orthorhombic'
loop_
_space_group_symop_operation_xyz
x,y,z
-x,-y,z
x,-y,-z
-x,y,-z
-x,-y,-z
x,y,-z
-x,y,z
x,-y,z
1/2+x,1/2+y,z
1/2-x,1/2-y,z
1/2+x,1/2-y,-z
1/2-x,1/2+y,-z
1/2-x,1/2-y,-z
1/2+x,1/2+y,-z
1/2-x,1/2+y,z
1/2+x,1/2-y,z
loop_
_atom_site_type_symbol
_atom_site_label
_atom_site_fract_x
_atom_site_fract_y
_atom_site_fract_z
Si Si1 0.600230 0.188391 0.445910
Si Si2 0.552986 0.311970 0.648204
Si Si3 0.150018 0.188632 0.303050
Si Si4 0.698792 0.813777 0.396968
Si Si5 0.304111 0.686976 0.796471
Si Si6 0.195515 0.312755 0.103721
Si Si7 0.304343 0.188064 0.000000
O O1 0.589486 0.238579 0.500000
O O2 0.566189 0.257613 0.405311
O O3 0.654459 0.232279 0.430970
O O4 0.597218 0.000000 0.443924
O O5 0.500000 0.257183 0.661692
O O6 0.553022 0.500000 0.649093
O O7 0.596710 0.259312 0.681978
O O8 0.185224 0.251365 0.344163
O O9 0.166537 0.237510 0.250328
O O10 0.151448 0.000000 0.304747
O O11 0.750000 0.750000 0.412269
O O12 0.700719 0.000000 0.395515
O O13 0.302119 0.500000 0.797751
O O14 0.250000 0.750000 0.792025
O O15 0.325234 0.746315 0.846981
O O16 0.196329 0.500000 0.106621
O O17 0.250000 0.250000 0.103082
O O18 0.174257 0.265403 0.051730
O O19 0.250000 0.250000 0.000000
O O20 0.302482 0.000000 0.000000
#
# Coordination Sequence:
#
# PCOD9483070 Si02
#       7
#    16  16  16  16  16  16   8
#     4   9  19  34  48  64  87 111 134 161 195 237
#     4   9  18  33  51  68  84 103 130 164 202 243
#     4   9  18  31  45  61  82 107 134 166 202 241
#     4  10  19  30  45  63  83 109 139 167 196 233
#     4  10  18  26  37  55  79 106 136 166 197 232
#     4   9  15  23  34  49  71 100 135 170 201 230
#     4   8  14  22  32  46  66  96 133 170 201 229
#
# _framework density 15.525783000000001
#
# number of rings (size 3 to 8) (size 9 to 14) (size 15 to 20)
#    0.000    2.769    0.000    2.769    0.000    4.923 
#    0.000    1.538    0.000    0.000    0.000    0.000 
#    0.000    0.000    0.000    0.692    0.000   16.077 
#
# Total GULP energy -289583.011879 kJ/mol
# GULP energy per Si atom -5568.904075 kJ/mol
# Density = 1.549045 g / cm^3
# Si number density = 15.525783 Si / 1000 Ang^3
#
#
#
# Elastic Constant Matrix: (Units=GPa)
#
#
# Indices 1 2 3 4 5 6 
#
# 1 55.4718 7.9283 18.2090 0.0000 0.0000 0.0000
# 2 7.9283 15.9744 16.4560 0.0000 0.0000 0.0000
# 3 18.2090 16.4560 120.4598 0.0000 0.0000 0.0000
# 4 0.0000 0.0000 0.0000 18.5322 0.0000 0.0000
# 5 0.0000 0.0000 0.0000 0.0000 7.3899 0.0000
# 6 0.0000 0.0000 0.0000 0.0000 0.0000 13.1491
#
#
#
# Elastic Compliance Matrix: (Units=1/GPa)
#
#
# Indices 1 2 3 4 5 6 
#
# 1 0.019777 -0.007839 -0.001919 0.000000 0.000000 0.000000
# 2 -0.007839 0.075960 -0.009192 0.000000 0.000000 0.000000
# 3 -0.001919 -0.009192 0.009847 0.000000 0.000000 0.000000
# 4 0.000000 0.000000 0.000000 0.053960 0.000000 0.000000
# 5 0.000000 0.000000 0.000000 0.000000 0.135319 0.000000
# 6 0.000000 0.000000 0.000000 0.000000 0.000000 0.076051
#
#
# Mechanical properties :
#
#
# Convention : Reuss Voigt Hill
#
# Bulk Modulus (GPa) = 14.77432 30.78804 22.78118
# Shear Modulus (GPa) = 11.59081 17.76843 14.67962
#
# Velocity S-wave (km/s) = 2.73528 3.38664 3.07823
# Velocity P-wave (km/s) = 4.41727 5.93007 5.22867
#
# Compressibility (1/GPa) = 0.06768502
#
# Stress axis : x y z
#
# Youngs Moduli (GPa) = 50.56269 13.16484 101.55119
#
# Poissons Ratio (x) = 0.10320 0.19484
# Poissons Ratio (y) = 0.39637 0.93344
# Poissons Ratio (z) = 0.09701 0.12101
#
# Static dielectric constant tensor:
#      x y z
#    x 1.503930 0.000000 0.000000 
#    y 0.000000 1.534050 0.000000 
#    z 0.000000 0.000000 1.555520 
# 
# From -- ./inp_files/76216.got.cif
#   From: 2010.05.17/outbox.cif.g08.bks.cpg/sg65_39_cif.got.tgz:76216.got - 2010.06.03 17:01:31.
