data_PCOD9483237
_publ_section_title
;
Structure prediction by ZEFSAII (Michael W. Deem and Ramdas Pophale) SiO2 
 PCOD9483237
Probable space group: C M M M
;
_chemical_formula_sum "Si O2"
_cell_formula_units_Z 80
_cell_length_a 9.129060
_cell_length_b 37.167100
_cell_length_c 17.320867
_cell_angle_alpha 90.000000
_cell_angle_beta 90.000000
_cell_angle_gamma 90.000000
_cell_volume 5876.982054
_symmetry_space_group_name_H-M "C M M M"
_symmetry_group_IT_number 65
_symmetry_cell_setting 'orthorhombic'
loop_
_space_group_symop_operation_xyz
x,y,z
-x,-y,z
x,-y,-z
-x,y,-z
-x,-y,-z
x,y,-z
-x,y,z
x,-y,z
1/2+x,1/2+y,z
1/2-x,1/2-y,z
1/2+x,1/2-y,-z
1/2-x,1/2+y,-z
1/2-x,1/2-y,-z
1/2+x,1/2+y,-z
1/2-x,1/2+y,z
1/2+x,1/2-y,z
loop_
_atom_site_type_symbol
_atom_site_label
_atom_site_fract_x
_atom_site_fract_y
_atom_site_fract_z
Si Si1 0.831659 0.713897 0.406086
Si Si2 0.175821 0.860113 0.409829
Si Si3 0.677053 0.430539 0.687924
Si Si4 0.677948 0.500000 0.412024
Si Si5 0.174687 0.457031 0.158974
Si Si6 0.831265 0.956335 0.000000
O O1 0.829854 0.714757 0.500000
O O2 0.750000 0.750000 0.379551
O O3 0.751138 0.676976 0.384721
O O4 0.000000 0.713843 0.381199
O O5 0.214379 0.867308 0.500000
O O6 0.215169 0.893774 0.356206
O O7 0.000000 0.855718 0.407233
O O8 0.500000 0.431675 0.697319
O O9 0.720766 0.464285 0.634093
O O10 0.753848 0.436091 0.769810
O O11 0.500000 0.500000 0.414747
O O12 0.731113 0.500000 0.500000
O O13 0.204080 0.500000 0.169746
O O14 0.247372 0.445772 0.077971
O O15 0.000000 0.452373 0.156392
O O16 0.000000 0.944250 0.000000
O O17 0.832134 0.000000 0.000000
#
# Coordination Sequence:
#
# PCOD9483237 Si02
#       6
#    16  16  16   8  16   8
#     4   9  16  26  41  59  78 102 132 168 210 256
#     4   9  17  28  41  59  82 108 141 180 217 250
#     4  10  18  28  43  60  80 108 144 181 213 247
#     4   9  16  26  41  58  75 102 145 189 218 239
#     4  10  19  30  43  60  83 107 133 168 213 258
#     4   9  17  29  47  65  79  97 128 167 208 255
#
# _framework density 13.612428
#
# number of rings (size 3 to 8) (size 9 to 14) (size 15 to 20)
#    0.000    2.600    1.000    2.100    0.000    7.600 
#    0.000    0.000    0.000    2.400    0.000    0.000 
#    0.000    0.000    0.000    0.900    0.000   12.000 
#
# Total GULP energy -222905.583488 kJ/mol
# GULP energy per Si atom -5572.639587 kJ/mol
# Density = 1.358145 g / cm^3
# Si number density = 13.612428 Si / 1000 Ang^3
#
#
#
# Elastic Constant Matrix: (Units=GPa)
#
#
# Indices 1 2 3 4 5 6 
#
# 1 55.1262 53.7143 47.5168 0.0000 0.0000 0.0000
# 2 53.7143 115.4904 59.3735 0.0000 0.0000 0.0000
# 3 47.5168 59.3735 106.1914 0.0000 0.0000 0.0000
# 4 0.0000 0.0000 0.0000 4.0954 0.0000 0.0000
# 5 0.0000 0.0000 0.0000 0.0000 13.5195 0.0000
# 6 0.0000 0.0000 0.0000 0.0000 0.0000 19.8191
#
#
#
# Elastic Compliance Matrix: (Units=1/GPa)
#
#
# Indices 1 2 3 4 5 6 
#
# 1 0.040146 -0.013243 -0.010559 0.000000 0.000000 0.000000
# 2 -0.013243 0.016520 -0.003311 0.000000 0.000000 0.000000
# 3 -0.010559 -0.003311 0.015993 0.000000 0.000000 0.000000
# 4 0.000000 0.000000 0.000000 0.244177 0.000000 0.000000
# 5 0.000000 0.000000 0.000000 0.000000 0.073967 0.000000
# 6 0.000000 0.000000 0.000000 0.000000 0.000000 0.050456
#
#
# Mechanical properties :
#
#
# Convention : Reuss Voigt Hill
#
# Bulk Modulus (GPa) = 54.25247 66.44636 60.34941
# Shear Modulus (GPa) = 9.96748 15.23369 12.60059
#
# Velocity S-wave (km/s) = 2.70892 3.34893 3.04578
# Velocity P-wave (km/s) = 7.05166 7.99204 7.53653
#
# Compressibility (1/GPa) = 0.01843234
#
# Stress axis : x y z
#
# Youngs Moduli (GPa) = 24.90908 60.53162 62.52714
#
# Poissons Ratio (x) = 0.80164 0.66024
# Poissons Ratio (y) = 0.32988 0.20702
# Poissons Ratio (z) = 0.26302 0.20041
#
# Static dielectric constant tensor:
#      x y z
#    x 1.454910 0.000000 0.000000 
#    y 0.000000 1.429390 0.000000 
#    z 0.000000 0.000000 1.425050 
# 
# From -- ./inp_files/50187.got.cif
#   From: 2010.05.17/outbox.cif.g08.bks.cpg/sg65_26_cif.got.tgz:50187.got - 2010.06.03 17:01:31.
