data_PCOD9483370
_publ_section_title
;
Structure prediction by ZEFSAII (Michael W. Deem and Ramdas Pophale) SiO2 
 PCOD9483370
Probable space group: C M M M
;
_chemical_formula_sum "Si O2"
_cell_formula_units_Z 104
_cell_length_a 19.269674
_cell_length_b 8.738757
_cell_length_c 34.856588
_cell_angle_alpha 90.000000
_cell_angle_beta 90.000000
_cell_angle_gamma 90.000000
_cell_volume 5869.605373
_symmetry_space_group_name_H-M "C M M M"
_symmetry_group_IT_number 65
_symmetry_cell_setting 'orthorhombic'
loop_
_space_group_symop_operation_xyz
x,y,z
-x,-y,z
x,-y,-z
-x,y,-z
-x,-y,-z
x,y,-z
-x,y,z
x,-y,z
1/2+x,1/2+y,z
1/2-x,1/2-y,z
1/2+x,1/2-y,-z
1/2-x,1/2+y,-z
1/2-x,1/2-y,-z
1/2+x,1/2+y,-z
1/2-x,1/2+y,z
1/2+x,1/2-y,z
loop_
_atom_site_type_symbol
_atom_site_label
_atom_site_fract_x
_atom_site_fract_y
_atom_site_fract_z
Si Si1 0.079516 0.813426 0.193846
Si Si2 0.173341 0.184631 0.735316
Si Si3 0.581533 0.182520 0.580575
Si Si4 0.915714 0.177741 0.500000
Si Si5 0.328269 0.183531 0.958074
Si Si6 0.326669 0.683316 0.351849
Si Si7 0.827958 0.816121 0.121011
O O1 0.119408 0.763914 0.232341
O O2 0.124222 0.768998 0.156665
O O3 0.000000 0.760823 0.192355
O O4 0.078332 0.000000 0.194232
O O5 0.250000 0.250000 0.742842
O O6 0.152701 0.227168 0.691800
O O7 0.177502 0.000000 0.736837
O O8 0.500000 0.222984 0.583799
O O9 0.607595 0.244037 0.539446
O O10 0.622650 0.253230 0.615917
O O11 0.587564 0.000000 0.581062
O O12 0.000000 0.188963 0.500000
O O13 0.896745 0.000000 0.500000
O O14 0.250000 0.250000 0.959112
O O15 0.358403 0.255381 0.919377
O O16 0.325291 0.000000 0.954434
O O17 0.359911 0.220074 0.000000
O O18 0.324438 0.500000 0.353923
O O19 0.250000 0.750000 0.358151
O O20 0.750000 0.750000 0.125609
O O21 0.823420 0.000000 0.119687
#
# Coordination Sequence:
#
# PCOD9483370 Si02
#       7
#    16  16  16   8  16  16  16
#     4   9  18  32  49  71  98 127 161 200 241 284
#     4   9  18  33  54  75  97 128 163 202 244 291
#     4  10  20  34  53  77 106 139 173 211 255 300
#     4   9  17  31  52  77 104 135 174 215 251 295
#     4   9  16  26  42  65  93 122 153 193 237 280
#     4  10  20  34  53  77 104 135 170 208 253 302
#     4  10  18  28  47  71  95 125 158 196 239 285
#
# _framework density 17.718399000000002
#
# number of rings (size 3 to 8) (size 9 to 14) (size 15 to 20)
#    0.000    2.538    0.000    3.462    0.000    4.000 
#    0.000    2.692    0.000    4.615    0.000    3.231 
#    0.000    0.000    0.000    0.000    0.000    0.000 
#
# Total GULP energy -289900.247441 kJ/mol
# GULP energy per Si atom -5575.004758 kJ/mol
# Density = 1.767807 g / cm^3
# Si number density = 17.718399 Si / 1000 Ang^3
#
#
#
# Elastic Constant Matrix: (Units=GPa)
#
#
# Indices 1 2 3 4 5 6 
#
# 1 76.7167 31.2620 98.0838 0.0000 0.0000 0.0000
# 2 31.2620 40.6321 54.9002 0.0000 0.0000 0.0000
# 3 98.0838 54.9002 205.0664 0.0000 0.0000 0.0000
# 4 0.0000 0.0000 0.0000 22.2062 0.0000 0.0000
# 5 0.0000 0.0000 0.0000 0.0000 5.6469 0.0000
# 6 0.0000 0.0000 0.0000 0.0000 0.0000 20.1602
#
#
#
# Elastic Compliance Matrix: (Units=1/GPa)
#
#
# Indices 1 2 3 4 5 6 
#
# 1 0.034677 -0.006690 -0.014795 0.000000 0.000000 0.000000
# 2 -0.006690 0.039849 -0.007469 0.000000 0.000000 0.000000
# 3 -0.014795 -0.007469 0.013952 0.000000 0.000000 0.000000
# 4 0.000000 0.000000 0.000000 0.045033 0.000000 0.000000
# 5 0.000000 0.000000 0.000000 0.000000 0.177090 0.000000
# 6 0.000000 0.000000 0.000000 0.000000 0.000000 0.049603
#
#
# Mechanical properties :
#
#
# Convention : Reuss Voigt Hill
#
# Bulk Modulus (GPa) = 32.70991 76.76746 54.73868
# Shear Modulus (GPa) = 11.67403 18.81393 15.24398
#
# Velocity S-wave (km/s) = 2.56962 3.26211 2.93635
# Velocity P-wave (km/s) = 5.22542 7.59006 6.51590
#
# Compressibility (1/GPa) = 0.03057178
#
# Stress axis : x y z
#
# Youngs Moduli (GPa) = 28.83785 25.09445 71.67183
#
# Poissons Ratio (x) = 0.16787 1.06038
# Poissons Ratio (y) = 0.19291 0.53530
# Poissons Ratio (z) = 0.42666 0.18743
#
# Static dielectric constant tensor:
#      x y z
#    x 1.576020 0.000000 0.000000 
#    y 0.000000 1.607500 0.000000 
#    z 0.000000 0.000000 1.631300 
# 
# From -- ./inp_files/78245.got.cif
#   From: 2010.05.17/outbox.cif.g08.bks.cpg/sg65_40_cif.got.tgz:78245.got - 2010.06.03 17:01:31.
