data_PCOD9483042
_publ_section_title
;
Structure prediction by ZEFSAII (Michael W. Deem and Ramdas Pophale) SiO2 
 PCOD9483042
Probable space group: C M M M
;
_chemical_formula_sum "Si O2"
_cell_formula_units_Z 64
_cell_length_a 9.372217
_cell_length_b 30.041963
_cell_length_c 11.997356
_cell_angle_alpha 90.000000
_cell_angle_beta 90.000000
_cell_angle_gamma 90.000000
_cell_volume 3377.973112
_symmetry_space_group_name_H-M "C M M M"
_symmetry_group_IT_number 65
_symmetry_cell_setting 'orthorhombic'
loop_
_space_group_symop_operation_xyz
x,y,z
-x,-y,z
x,-y,-z
-x,y,-z
-x,-y,-z
x,y,-z
-x,y,z
x,-y,z
1/2+x,1/2+y,z
1/2-x,1/2-y,z
1/2+x,1/2-y,-z
1/2-x,1/2+y,-z
1/2-x,1/2-y,-z
1/2+x,1/2+y,-z
1/2-x,1/2+y,z
1/2+x,1/2-y,z
loop_
_atom_site_type_symbol
_atom_site_label
_atom_site_fract_x
_atom_site_fract_y
_atom_site_fract_z
Si Si1 0.333003 0.623731 0.366824
Si Si2 0.202932 0.698245 0.000000
Si Si3 0.170186 0.396462 0.000000
Si Si4 0.832019 0.447386 0.768456
Si Si5 0.660053 0.205085 0.739916
O O1 0.320554 0.625111 0.500000
O O2 0.500000 0.627580 0.337044
O O3 0.265944 0.578629 0.318256
O O4 0.244009 0.664060 0.313230
O O5 0.250000 0.750000 0.000000
O O6 0.267711 0.647893 0.000000
O O7 0.146087 0.697155 0.872950
O O8 0.192009 0.425497 0.110193
O O9 0.000000 0.382382 0.000000
O O10 0.805253 0.500000 0.771543
O O11 0.000000 0.440465 0.741500
O O12 0.500000 0.209085 0.693940
O O13 0.750000 0.250000 0.722317
#
# Coordination Sequence:
#
# PCOD9483042 Si02
#       5
#    16   8   8  16  16
#     4  11  25  43  61  84 117 160 207 253 302 353
#     4  10  20  33  59  96 128 159 193 236 295 360
#     4  10  17  34  62  92 125 158 192 237 298 361
#     4  10  21  38  64  94 121 154 198 248 302 361
#     4  11  22  39  63  92 125 160 198 242 295 357
#
# _framework density 18.946273000000001
#
# number of rings (size 3 to 8) (size 9 to 14) (size 15 to 20)
#    0.000    1.500    2.500    3.000    0.000    5.000 
#    0.000    6.250    0.000    1.500    0.000    0.000 
#    0.000    0.000    0.000    0.000    0.000    0.000 
#
# Total GULP energy -178226.457983 kJ/mol
# GULP energy per Si atom -5569.576812 kJ/mol
# Density = 1.890315 g / cm^3
# Si number density = 18.946273 Si / 1000 Ang^3
#
#
#
# Elastic Constant Matrix: (Units=GPa)
#
#
# Indices 1 2 3 4 5 6 
#
# 1 126.6599 87.5222 63.0047 0.0000 0.0000 0.0000
# 2 87.5222 162.3248 51.6494 0.0000 0.0000 0.0000
# 3 63.0047 51.6494 80.5897 0.0000 0.0000 0.0000
# 4 0.0000 0.0000 0.0000 6.3498 0.0000 0.0000
# 5 0.0000 0.0000 0.0000 0.0000 6.8783 0.0000
# 6 0.0000 0.0000 0.0000 0.0000 0.0000 27.3887
#
#
#
# Elastic Compliance Matrix: (Units=1/GPa)
#
#
# Indices 1 2 3 4 5 6 
#
# 1 0.016610 -0.006060 -0.009102 0.000000 0.000000 0.000000
# 2 -0.006060 0.009949 -0.001639 0.000000 0.000000 0.000000
# 3 -0.009102 -0.001639 0.020575 0.000000 0.000000 0.000000
# 4 0.000000 0.000000 0.000000 0.157485 0.000000 0.000000
# 5 0.000000 0.000000 0.000000 0.000000 0.145385 0.000000
# 6 0.000000 0.000000 0.000000 0.000000 0.000000 0.036511
#
#
# Mechanical properties :
#
#
# Convention : Reuss Voigt Hill
#
# Bulk Modulus (GPa) = 73.89471 85.99188 79.94330
# Shear Modulus (GPa) = 11.77501 19.28323 15.52912
#
# Velocity S-wave (km/s) = 2.49568 3.19374 2.86604
# Velocity P-wave (km/s) = 6.88415 7.68672 7.29648
#
# Compressibility (1/GPa) = 0.01353277
#
# Stress axis : x y z
#
# Youngs Moduli (GPa) = 60.20450 100.51030 48.60290
#
# Poissons Ratio (x) = 0.60906 0.44239
# Poissons Ratio (y) = 0.36482 0.07966
# Poissons Ratio (z) = 0.54799 0.16473
#
# Static dielectric constant tensor:
#      x y z
#    x 1.675750 0.000000 0.000000 
#    y 0.000000 1.629140 0.000000 
#    z 0.000000 0.000000 1.630000 
# 
# From -- ./inp_files/21037.got.cif
#   From: 2010.05.17/outbox.cif.g08.bks.cpg/sg65_11_cif.got.tgz:21037.got - 2010.06.03 17:01:31.
