data_PCOD9483228
_publ_section_title
;
Structure prediction by ZEFSAII (Michael W. Deem and Ramdas Pophale) SiO2 
 PCOD9483228
Probable space group: C M M M
;
_chemical_formula_sum "Si O2"
_cell_formula_units_Z 96
_cell_length_a 23.879046
_cell_length_b 7.364702
_cell_length_c 26.925894
_cell_angle_alpha 90.000000
_cell_angle_beta 90.000000
_cell_angle_gamma 90.000000
_cell_volume 4735.243128
_symmetry_space_group_name_H-M "C M M M"
_symmetry_group_IT_number 65
_symmetry_cell_setting 'orthorhombic'
loop_
_space_group_symop_operation_xyz
x,y,z
-x,-y,z
x,-y,-z
-x,y,-z
-x,-y,-z
x,y,-z
-x,y,z
x,-y,z
1/2+x,1/2+y,z
1/2-x,1/2-y,z
1/2+x,1/2-y,-z
1/2-x,1/2+y,-z
1/2-x,1/2-y,-z
1/2+x,1/2+y,-z
1/2-x,1/2+y,z
1/2+x,1/2-y,z
loop_
_atom_site_type_symbol
_atom_site_label
_atom_site_fract_x
_atom_site_fract_y
_atom_site_fract_z
Si Si1 0.000000 0.721088 0.635426
Si Si2 0.816647 0.717502 0.108554
Si Si3 0.000000 0.721095 0.248429
Si Si4 0.880902 0.277862 0.205958
Si Si5 0.815497 0.715971 0.302745
Si Si6 0.379202 0.777828 0.599178
Si Si7 0.183373 0.283673 0.000000
Si Si8 0.316623 0.782977 0.500000
O O1 0.056476 0.777026 0.607317
O O2 0.000000 0.500000 0.636644
O O3 0.000000 0.778438 0.693525
O O4 0.822666 0.500000 0.107225
O O5 0.750000 0.750000 0.115993
O O6 0.853765 0.784518 0.154358
O O7 0.834981 0.786925 0.053980
O O8 0.056064 0.777122 0.219688
O O9 0.000000 0.500000 0.249852
O O10 0.880428 0.500000 0.204774
O O11 0.842515 0.216500 0.251891
O O12 0.824856 0.500000 0.302589
O O13 0.750000 0.750000 0.304484
O O14 0.845630 0.784162 0.352140
O O15 0.347821 0.715869 0.549535
O O16 0.378512 0.000000 0.598435
O O17 0.250000 0.250000 0.000000
O O18 0.173304 0.500000 0.000000
O O19 0.250000 0.750000 0.500000
O O20 0.323048 0.000000 0.500000
#
# Coordination Sequence:
#
# PCOD9483228 Si02
#       8
#     8  16   8  16  16  16   8   8
#     4   9  14  25  44  65  88 111 138 179 221 247
#     4   9  16  26  40  61  86 111 140 173 209 251
#     4   9  14  24  41  61  85 112 140 173 213 253
#     4   9  16  25  40  61  84 109 140 175 210 250
#     4  10  18  28  42  63  87 111 138 170 209 252
#     4   9  17  28  44  65  89 113 140 176 214 249
#     4   8  14  24  38  55  81 113 139 168 207 246
#     4  10  20  33  47  67  93 118 143 172 210 258
#
# _framework density 20.273512
#
# number of rings (size 3 to 8) (size 9 to 14) (size 15 to 20)
#    0.000    2.833    1.667    1.000    0.000    0.333 
#    0.000    1.667    0.000    0.500    0.000    9.917 
#    0.000    0.000    0.000   12.250    0.000    8.500 
#
# Total GULP energy -267837.065195 kJ/mol
# GULP energy per Si atom -5579.938858 kJ/mol
# Density = 2.022737 g / cm^3
# Si number density = 20.273512 Si / 1000 Ang^3
#
#
#
# Elastic Constant Matrix: (Units=GPa)
#
#
# Indices 1 2 3 4 5 6 
#
# 1 187.0152 -2.1775 129.2263 0.0000 0.0000 0.0000
# 2 -2.1775 74.7364 12.0207 0.0000 0.0000 0.0000
# 3 129.2263 12.0207 243.4522 0.0000 0.0000 0.0000
# 4 0.0000 0.0000 0.0000 -12.7777 0.0000 0.0000
# 5 0.0000 0.0000 0.0000 0.0000 15.5990 0.0000
# 6 0.0000 0.0000 0.0000 0.0000 0.0000 12.3478
#
#
#
# Elastic Compliance Matrix: (Units=1/GPa)
#
#
# Indices 1 2 3 4 5 6 
#
# 1 0.008515 0.000983 -0.004569 0.000000 0.000000 0.000000
# 2 0.000983 0.013601 -0.001193 0.000000 0.000000 0.000000
# 3 -0.004569 -0.001193 0.006592 0.000000 0.000000 0.000000
# 4 0.000000 0.000000 0.000000 -0.078262 0.000000 0.000000
# 5 0.000000 0.000000 0.000000 0.000000 0.064106 0.000000
# 6 0.000000 0.000000 0.000000 0.000000 0.000000 0.080986
#
#
# Mechanical properties :
#
#
# Convention : Reuss Voigt Hill
#
# Bulk Modulus (GPa) = 52.21934 87.03809 69.62871
# Shear Modulus (GPa) = 44.85084 27.44278 36.14681
#
# Velocity S-wave (km/s) = 4.70860 3.68316 4.22709
# Velocity P-wave (km/s) = 7.44141 7.81746 7.63175
#
# Compressibility (1/GPa) = 0.01914999
#
# Stress axis : x y z
#
# Youngs Moduli (GPa) = 117.43310 73.52433 151.70918
#
# Poissons Ratio (x) = -0.07227 0.69310
# Poissons Ratio (y) = -0.11543 0.18104
# Poissons Ratio (z) = 0.53651 0.08774
#
# Static dielectric constant tensor:
#      x y z
#    x 1.648620 0.000000 0.000000 
#    y 0.000000 1.796310 0.000000 
#    z 0.000000 0.000000 1.724520 
# 
# From -- ./inp_files/69127.got.cif
#   From: 2010.05.17/outbox.cif.g08.bks.cpg/sg65_35_cif.got.tgz:69127.got - 2010.06.03 17:01:31.
