data_PCOD9483432
_publ_section_title
;
Structure prediction by ZEFSAII (Michael W. Deem and Ramdas Pophale) SiO2 
 PCOD9483432
Probable space group: C M M M
;
_chemical_formula_sum "Si O2"
_cell_formula_units_Z 80
_cell_length_a 36.983981
_cell_length_b 9.119511
_cell_length_c 17.398078
_cell_angle_alpha 90.000000
_cell_angle_beta 90.000000
_cell_angle_gamma 90.000000
_cell_volume 5867.951051
_symmetry_space_group_name_H-M "C M M M"
_symmetry_group_IT_number 65
_symmetry_cell_setting 'orthorhombic'
loop_
_space_group_symop_operation_xyz
x,y,z
-x,-y,z
x,-y,-z
-x,y,-z
-x,-y,-z
x,y,-z
-x,y,z
x,-y,z
1/2+x,1/2+y,z
1/2-x,1/2-y,z
1/2+x,1/2-y,-z
1/2-x,1/2+y,-z
1/2-x,1/2-y,-z
1/2+x,1/2+y,-z
1/2-x,1/2+y,z
1/2+x,1/2-y,z
loop_
_atom_site_type_symbol
_atom_site_label
_atom_site_fract_x
_atom_site_fract_y
_atom_site_fract_z
Si Si1 0.861400 0.175243 0.908928
Si Si2 0.042558 0.675663 0.343183
Si Si3 0.713599 0.168813 0.093398
Si Si4 0.500000 0.821813 0.912149
Si Si5 0.956062 0.831078 0.500000
Si Si6 0.072452 0.322621 0.821451
O O1 0.822842 0.244811 0.886351
O O2 0.893209 0.246311 0.859326
O O3 0.860479 0.000000 0.900276
O O4 0.867343 0.207584 0.000000
O O5 0.044097 0.500000 0.352597
O O6 0.055151 0.751714 0.421478
O O7 0.065150 0.715108 0.267532
O O8 0.000000 0.712527 0.329864
O O9 0.750000 0.250000 0.119852
O O10 0.712395 0.000000 0.119005
O O11 0.714879 0.167454 0.000000
O O12 0.536328 0.778366 0.868023
O O13 0.500000 0.000000 0.912676
O O14 0.500000 0.770576 0.000000
O O15 0.000000 0.825087 0.500000
O O16 0.945011 0.000000 0.500000
O O17 0.075988 0.500000 0.826965
#
# Coordination Sequence:
#
# PCOD9483432 Si02
#       6
#    16  16  16   8   8  16
#     4  10  20  31  41  57  83 113 144 177 213 252
#     4   9  16  28  44  61  80 102 133 172 213 256
#     4   9  16  27  44  63  81 103 133 170 211 254
#     4   9  16  26  41  58  75 100 140 185 219 247
#     4   9  17  27  41  61  81 101 128 161 206 259
#     4  10  18  29  44  61  79 105 142 181 218 253
#
# _framework density 13.633379
#
# number of rings (size 3 to 8) (size 9 to 14) (size 15 to 20)
#    0.000    2.600    1.000    2.100    0.000    6.400 
#    0.000    0.500    0.000    1.800    0.000    0.000 
#    0.000    0.000    0.000    0.900    0.000   11.800 
#
# Total GULP energy -222904.867415 kJ/mol
# GULP energy per Si atom -5572.621685 kJ/mol
# Density = 1.360235 g / cm^3
# Si number density = 13.633379 Si / 1000 Ang^3
#
#
#
# Elastic Constant Matrix: (Units=GPa)
#
#
# Indices 1 2 3 4 5 6 
#
# 1 115.3935 52.9296 60.5548 0.0000 0.0000 0.0000
# 2 52.9296 59.5672 50.8238 0.0000 0.0000 0.0000
# 3 60.5548 50.8238 103.2026 0.0000 0.0000 0.0000
# 4 0.0000 0.0000 0.0000 15.0652 0.0000 0.0000
# 5 0.0000 0.0000 0.0000 0.0000 3.0813 0.0000
# 6 0.0000 0.0000 0.0000 0.0000 0.0000 22.4202
#
#
#
# Elastic Compliance Matrix: (Units=1/GPa)
#
#
# Indices 1 2 3 4 5 6 
#
# 1 0.015528 -0.010389 -0.003995 0.000000 0.000000 0.000000
# 2 -0.010389 0.035904 -0.011586 0.000000 0.000000 0.000000
# 3 -0.003995 -0.011586 0.017739 0.000000 0.000000 0.000000
# 4 0.000000 0.000000 0.000000 0.066378 0.000000 0.000000
# 5 0.000000 0.000000 0.000000 0.000000 0.324535 0.000000
# 6 0.000000 0.000000 0.000000 0.000000 0.000000 0.044603
#
#
# Mechanical properties :
#
#
# Convention : Reuss Voigt Hill
#
# Bulk Modulus (GPa) = 58.03133 67.41998 62.72566
# Shear Modulus (GPa) = 8.89095 15.70369 12.29732
#
# Velocity S-wave (km/s) = 2.55648 3.39758 3.00659
# Velocity P-wave (km/s) = 7.16744 8.05921 7.62637
#
# Compressibility (1/GPa) = 0.01723207
#
# Stress axis : x y z
#
# Youngs Moduli (GPa) = 64.40146 27.85175 56.37228
#
# Poissons Ratio (x) = 0.28935 0.22519
# Poissons Ratio (y) = 0.66907 0.65312
# Poissons Ratio (z) = 0.25726 0.32269
#
# Static dielectric constant tensor:
#      x y z
#    x 1.426510 0.000000 0.000000 
#    y 0.000000 1.456460 0.000000 
#    z 0.000000 0.000000 1.432490 
# 
# From -- ./inp_files/57874.got.cif
#   From: 2010.05.17/outbox.cif.g08.bks.cpg/sg65_29_cif.got.tgz:57874.got - 2010.06.03 17:01:31.
