data_PCOD9483750
_publ_section_title
;
Structure prediction by ZEFSAII (Michael W. Deem and Ramdas Pophale) SiO2 
 PCOD9483750
Probable space group: C M M M
;
_chemical_formula_sum "Si O2"
_cell_formula_units_Z 96
_cell_length_a 23.356518
_cell_length_b 28.485308
_cell_length_c 8.586621
_cell_angle_alpha 90.000000
_cell_angle_beta 90.000000
_cell_angle_gamma 90.000000
_cell_volume 5712.830153
_symmetry_space_group_name_H-M "C M M M"
_symmetry_group_IT_number 65
_symmetry_cell_setting 'orthorhombic'
loop_
_space_group_symop_operation_xyz
x,y,z
-x,-y,z
x,-y,-z
-x,y,-z
-x,-y,-z
x,y,-z
-x,y,z
x,-y,z
1/2+x,1/2+y,z
1/2-x,1/2-y,z
1/2+x,1/2-y,-z
1/2-x,1/2+y,-z
1/2-x,1/2-y,-z
1/2+x,1/2+y,-z
1/2-x,1/2+y,z
1/2+x,1/2-y,z
loop_
_atom_site_type_symbol
_atom_site_label
_atom_site_fract_x
_atom_site_fract_y
_atom_site_fract_z
Si Si1 0.189958 0.197695 0.315761
Si Si2 0.118599 0.284578 0.690374
Si Si3 0.201493 0.360918 0.311195
Si Si4 0.730620 0.446371 0.813604
Si Si5 0.000000 0.869420 0.184353
Si Si6 0.000000 0.237427 0.311149
Si Si7 0.118858 0.104183 0.682932
O O1 0.199981 0.205462 0.500000
O O2 0.164612 0.245834 0.253159
O O3 0.248078 0.174599 0.255739
O O4 0.142005 0.157566 0.300447
O O5 0.118639 0.283309 0.500000
O O6 0.142051 0.335954 0.733926
O O7 0.056546 0.266026 0.739107
O O8 0.204192 0.363373 0.500000
O O9 0.220364 0.411219 0.247667
O O10 0.739508 0.500000 0.762945
O O11 0.669063 0.427787 0.753462
O O12 0.730110 0.444561 0.000000
O O13 0.943039 0.896388 0.239508
O O14 0.000000 0.816351 0.253551
O O15 0.000000 0.865397 0.000000
O O16 0.000000 0.235093 0.500000
O O17 0.114034 0.094080 0.500000
#
# Coordination Sequence:
#
# PCOD9483750 Si02
#       7
#    16  16  16  16   8   8  16
#     4   8  13  23  43  68  94 123 158 199 238 278
#     4   9  15  25  44  71 100 130 168 206 239 280
#     4   9  17  28  47  73  97 126 164 205 245 291
#     4  10  21  37  54  73  99 126 153 199 264 316
#     4  12  22  32  47  71 106 141 173 207 244 284
#     4  10  18  30  48  69 100 143 182 207 234 284
#     4  10  19  33  54  74  95 130 174 212 241 284
#
# _framework density 16.804279999999999
#
# number of rings (size 3 to 8) (size 9 to 14) (size 15 to 20)
#    0.000    2.500    1.667    3.250    0.000    3.333 
#    0.000    1.250    0.000    4.500    0.000    0.583 
#    0.000    4.667    0.000    0.000    0.000    0.000 
#
# Total GULP energy -267438.412496 kJ/mol
# GULP energy per Si atom -5571.633594 kJ/mol
# Density = 1.676603 g / cm^3
# Si number density = 16.804280 Si / 1000 Ang^3
#
#
#
# Elastic Constant Matrix: (Units=GPa)
#
#
# Indices 1 2 3 4 5 6 
#
# 1 35.7948 47.9912 9.9348 0.0000 0.0000 0.0000
# 2 47.9912 123.0330 24.1420 0.0000 0.0000 0.0000
# 3 9.9348 24.1420 26.2686 0.0000 0.0000 0.0000
# 4 0.0000 0.0000 0.000012558.9873 0.0000 0.0000
# 5 0.0000 0.0000 0.0000 0.0000 8.3615 0.0000
# 6 0.0000 0.0000 0.0000 0.0000 0.0000 9.9909
#
#
#
# Elastic Compliance Matrix: (Units=1/GPa)
#
#
# Indices 1 2 3 4 5 6 
#
# 1 0.058608 -0.022584 -0.001409 0.000000 0.000000 0.000000
# 2 -0.022584 0.018619 -0.008570 0.000000 0.000000 0.000000
# 3 -0.001409 -0.008570 0.046478 0.000000 0.000000 0.000000
# 4 0.000000 0.000000 0.000000 0.000080 0.000000 0.000000
# 5 0.000000 0.000000 0.000000 0.000000 0.119595 0.000000
# 6 0.000000 0.000000 0.000000 0.000000 0.000000 0.100091
#
#
# Mechanical properties :
#
#
# Convention : Reuss Voigt Hill
#
# Bulk Modulus (GPa) = 17.07174 38.80360 27.93767
# Shear Modulus (GPa) = 11.67887 2522.33652 1267.00770
#
# Velocity S-wave (km/s) = 2.63913 38.78488 27.48847
# Velocity P-wave (km/s) = 4.41225 45.04254 32.00233
#
# Compressibility (1/GPa) = 0.05857633
#
# Stress axis : x y z
#
# Youngs Moduli (GPa) = 17.06261 53.70853 21.51569
#
# Poissons Ratio (x) = 1.21297 0.03032
# Poissons Ratio (y) = 0.38535 0.18440
# Poissons Ratio (z) = 0.02405 0.46030
#
# Static dielectric constant tensor:
#      x y z
#    x 1.585310 0.000000 0.000000 
#    y 0.000000 1.572640 0.000000 
#    z 0.000000 0.000000 1.575010 
# 
# From -- ./inp_files/14648.got.cif
#   From: 2010.05.17/outbox.cif.g08.bks.cpg/sg65_8_cif.got.tgz:14648.got - 2010.06.03 17:01:31.
