data_PCOD9483382
_publ_section_title
;
Structure prediction by ZEFSAII (Michael W. Deem and Ramdas Pophale) SiO2 
 PCOD9483382
Probable space group: C M M M
;
_chemical_formula_sum "Si O2"
_cell_formula_units_Z 96
_cell_length_a 32.229418
_cell_length_b 9.002457
_cell_length_c 19.440324
_cell_angle_alpha 90.000000
_cell_angle_beta 90.000000
_cell_angle_gamma 90.000000
_cell_volume 5640.492388
_symmetry_space_group_name_H-M "C M M M"
_symmetry_group_IT_number 65
_symmetry_cell_setting 'orthorhombic'
loop_
_space_group_symop_operation_xyz
x,y,z
-x,-y,z
x,-y,-z
-x,y,-z
-x,-y,-z
x,y,-z
-x,y,z
x,-y,z
1/2+x,1/2+y,z
1/2-x,1/2-y,z
1/2+x,1/2-y,-z
1/2-x,1/2+y,-z
1/2-x,1/2-y,-z
1/2+x,1/2+y,-z
1/2-x,1/2+y,z
1/2+x,1/2-y,z
loop_
_atom_site_type_symbol
_atom_site_label
_atom_site_fract_x
_atom_site_fract_y
_atom_site_fract_z
Si Si1 0.118056 0.821211 0.171257
Si Si2 0.546567 0.180611 0.579245
Si Si3 0.952277 0.324237 0.918111
Si Si4 0.378632 0.179147 0.678477
Si Si5 0.292440 0.327881 0.326527
Si Si6 0.708479 0.329905 0.158843
O O1 0.080555 0.770937 0.123615
O O2 0.113882 0.745976 0.245841
O O3 0.162781 0.771448 0.140320
O O4 0.119694 0.000000 0.179186
O O5 0.553138 0.226655 0.500000
O O6 0.500000 0.228040 0.600495
O O7 0.583728 0.226433 0.628887
O O8 0.546462 0.000000 0.579692
O O9 0.946010 0.500000 0.904116
O O10 0.000000 0.288272 0.899879
O O11 0.947733 0.302514 0.000000
O O12 0.334234 0.241665 0.653483
O O13 0.376997 0.000000 0.681894
O O14 0.294021 0.500000 0.347333
O O15 0.250000 0.250000 0.350149
O O16 0.291460 0.325337 0.242640
O O17 0.711051 0.500000 0.137052
O O18 0.750000 0.250000 0.134653
#
# Coordination Sequence:
#
# PCOD9483382 Si02
#       6
#    16  16  16  16  16  16
#     4  10  20  32  47  72 103 130 159 197 239 285
#     4   8  15  29  48  69  93 123 161 202 242 288
#     4   9  19  36  55  73  94 123 161 202 243 291
#     4  10  18  28  47  74 100 127 160 200 245 287
#     4   9  16  27  43  65  95 127 159 196 238 286
#     4   8  15  26  41  63  91 122 154 188 226 270
#
# _framework density 17.019791000000001
#
# number of rings (size 3 to 8) (size 9 to 14) (size 15 to 20)
#    0.000    3.000    0.000    3.500    0.000    6.000 
#    0.000    2.500    0.000    4.500    0.000    4.667 
#    0.000    0.000    0.000    0.000    0.000    0.000 
#
# Total GULP energy -267320.497235 kJ/mol
# GULP energy per Si atom -5569.177026 kJ/mol
# Density = 1.698105 g / cm^3
# Si number density = 17.019791 Si / 1000 Ang^3
#
#
#
# Elastic Constant Matrix: (Units=GPa)
#
#
# Indices 1 2 3 4 5 6 
#
# 1 177.8793 67.8129 56.1729 0.0000 0.0000 0.0000
# 2 67.8129 64.3141 27.6065 0.0000 0.0000 0.0000
# 3 56.1729 27.6065 26.8380 0.0000 0.0000 0.0000
# 4 0.0000 0.0000 0.0000 3.1802 0.0000 0.0000
# 5 0.0000 0.0000 0.0000 0.0000 -13.7099 0.0000
# 6 0.0000 0.0000 0.0000 0.0000 0.0000 32.6722
#
#
#
# Elastic Compliance Matrix: (Units=1/GPa)
#
#
# Indices 1 2 3 4 5 6 
#
# 1 0.017390 -0.004857 -0.031401 0.000000 0.000000 0.000000
# 2 -0.004857 0.029198 -0.019869 0.000000 0.000000 0.000000
# 3 -0.031401 -0.019869 0.123422 0.000000 0.000000 0.000000
# 4 0.000000 0.000000 0.000000 0.314448 0.000000 0.000000
# 5 0.000000 0.000000 0.000000 0.000000 -0.072940 0.000000
# 6 0.000000 0.000000 0.000000 0.000000 0.000000 0.030607
#
#
# Mechanical properties :
#
#
# Convention : Reuss Voigt Hill
#
# Bulk Modulus (GPa) = 17.31412 63.57955 40.44684
# Shear Modulus (GPa) = 8.71641 12.25777 10.48709
#
# Velocity S-wave (km/s) = 2.26549 2.68658 2.48497
# Velocity P-wave (km/s) = 4.12775 6.86010 5.66124
#
# Compressibility (1/GPa) = 0.05775632
#
# Stress axis : x y z
#
# Youngs Moduli (GPa) = 57.50569 34.24843 8.10228
#
# Poissons Ratio (x) = 0.16634 0.25442
# Poissons Ratio (y) = 0.27930 0.16098
# Poissons Ratio (z) = 1.80574 0.68048
#
# Static dielectric constant tensor:
#      x y z
#    x 1.595740 0.000000 0.000000 
#    y 0.000000 1.575050 0.000000 
#    z 0.000000 0.000000 1.552520 
# 
# From -- ./inp_files/71667.got.cif
#   From: 2010.05.17/outbox.cif.g08.bks.cpg/sg65_36_cif.got.tgz:71667.got - 2010.06.03 17:01:31.
