data_PCOD9483617
_publ_section_title
;
Structure prediction by ZEFSAII (Michael W. Deem and Ramdas Pophale) SiO2 
 PCOD9483617
Probable space group: C M M M
;
_chemical_formula_sum "Si O2"
_cell_formula_units_Z 104
_cell_length_a 18.825117
_cell_length_b 14.099910
_cell_length_c 22.455065
_cell_angle_alpha 90.000000
_cell_angle_beta 90.000000
_cell_angle_gamma 90.000000
_cell_volume 5960.303040
_symmetry_space_group_name_H-M "C M M M"
_symmetry_group_IT_number 65
_symmetry_cell_setting 'orthorhombic'
loop_
_space_group_symop_operation_xyz
x,y,z
-x,-y,z
x,-y,-z
-x,y,-z
-x,-y,-z
x,y,-z
-x,y,z
x,-y,z
1/2+x,1/2+y,z
1/2-x,1/2-y,z
1/2+x,1/2-y,-z
1/2-x,1/2+y,-z
1/2-x,1/2-y,-z
1/2+x,1/2+y,-z
1/2-x,1/2+y,z
1/2+x,1/2-y,z
loop_
_atom_site_type_symbol
_atom_site_label
_atom_site_fract_x
_atom_site_fract_y
_atom_site_fract_z
Si Si1 0.835994 0.609103 0.722404
Si Si2 0.688922 0.613955 0.669512
Si Si3 0.284539 0.107908 0.140544
Si Si4 0.136469 0.789033 0.882459
Si Si5 0.580640 0.384644 0.568813
Si Si6 0.584093 0.392606 0.000000
Si Si7 0.420212 0.287481 0.247818
O O1 0.855570 0.500000 0.708555
O O2 0.770941 0.642378 0.680101
O O3 0.804040 0.610281 0.789410
O O4 0.899655 0.683997 0.725919
O O5 0.691342 0.500000 0.667747
O O6 0.643882 0.647779 0.612137
O O7 0.640113 0.645355 0.724750
O O8 0.206307 0.149931 0.133419
O O9 0.337182 0.181200 0.108357
O O10 0.289314 0.000000 0.119709
O O11 0.105226 0.835743 0.941019
O O12 0.087891 0.788249 0.823614
O O13 0.591650 0.356812 0.500000
O O14 0.500000 0.355304 0.586515
O O15 0.580752 0.500000 0.570537
O O16 0.614729 0.500000 0.000000
O O17 0.500000 0.400949 0.000000
O O18 0.500000 0.315409 0.264190
#
# Coordination Sequence:
#
# PCOD9483617 Si02
#       7
#    16  16  16  16  16   8  16
#     4   9  18  33  51  71  98 132 167 210 255 295
#     4  10  18  29  49  75 102 132 165 202 251 305
#     4   9  17  32  55  78  98 124 163 208 253 297
#     4  10  20  35  53  73 100 131 164 205 252 308
#     4   8  14  25  41  66 104 142 170 201 247 304
#     4  11  24  39  53  71 101 137 165 200 260 323
#     4  11  21  32  50  75 101 131 168 210 254 302
#
# _framework density 17.448778000000001
#
# number of rings (size 3 to 8) (size 9 to 14) (size 15 to 20)
#    0.000    2.385    1.538    2.308    0.000    3.077 
#    0.000    1.154    0.000    3.692    0.000    0.000 
#    0.000    0.000    0.000    9.231    0.000    0.154 
#
# Total GULP energy -289736.300799 kJ/mol
# GULP energy per Si atom -5571.851938 kJ/mol
# Density = 1.740906 g / cm^3
# Si number density = 17.448778 Si / 1000 Ang^3
#
#
#
# Elastic Constant Matrix: (Units=GPa)
#
#
# Indices 1 2 3 4 5 6 
#
# 1 36.9803 -0.5695 16.8286 0.0000 0.0000 0.0000
# 2 -0.5695 66.9509 16.8258 0.0000 0.0000 0.0000
# 3 16.8286 16.8258 70.6279 0.0000 0.0000 0.0000
# 4 0.0000 0.0000 0.0000 22.6663 0.0000 0.0000
# 5 0.0000 0.0000 0.0000 0.0000 18.3042 0.0000
# 6 0.0000 0.0000 0.0000 0.0000 0.0000 17.7976
#
#
#
# Elastic Compliance Matrix: (Units=1/GPa)
#
#
# Indices 1 2 3 4 5 6 
#
# 1 0.030640 0.002229 -0.007832 0.000000 0.000000 0.000000
# 2 0.002229 0.016050 -0.004355 0.000000 0.000000 0.000000
# 3 -0.007832 -0.004355 0.017062 0.000000 0.000000 0.000000
# 4 0.000000 0.000000 0.000000 0.044118 0.000000 0.000000
# 5 0.000000 0.000000 0.000000 0.000000 0.054632 0.000000
# 6 0.000000 0.000000 0.000000 0.000000 0.000000 0.056187
#
#
# Mechanical properties :
#
#
# Convention : Reuss Voigt Hill
#
# Bulk Modulus (GPa) = 22.81189 26.74766 24.77978
# Shear Modulus (GPa) = 19.74597 21.18523 20.46560
#
# Velocity S-wave (km/s) = 3.36766 3.48823 3.42847
# Velocity P-wave (km/s) = 5.31258 5.62016 5.46853
#
# Compressibility (1/GPa) = 0.04383679
#
# Stress axis : x y z
#
# Youngs Moduli (GPa) = 32.63748 62.30668 58.60934
#
# Poissons Ratio (x) = -0.13887 0.45900
# Poissons Ratio (y) = -0.07274 0.25522
# Poissons Ratio (z) = 0.25560 0.27132
#
# Static dielectric constant tensor:
#      x y z
#    x 1.588330 0.000000 0.000000 
#    y 0.000000 1.615180 0.000000 
#    z 0.000000 0.000000 1.592340 
# 
# From -- ./inp_files/70542.got.cif
#   From: 2010.05.17/outbox.cif.g08.bks.cpg/sg65_36_cif.got.tgz:70542.got - 2010.06.03 17:01:31.
