data_PCOD9483956
_publ_section_title
;
Structure prediction by ZEFSAII (Michael W. Deem and Ramdas Pophale) SiO2 
 PCOD9483956
Probable space group: C M M M
;
_chemical_formula_sum "Si O2"
_cell_formula_units_Z 64
_cell_length_a 7.578500
_cell_length_b 25.875393
_cell_length_c 15.462430
_cell_angle_alpha 90.000000
_cell_angle_beta 90.000000
_cell_angle_gamma 90.000000
_cell_volume 3032.130969
_symmetry_space_group_name_H-M "C M M M"
_symmetry_group_IT_number 65
_symmetry_cell_setting 'orthorhombic'
loop_
_space_group_symop_operation_xyz
x,y,z
-x,-y,z
x,-y,-z
-x,y,-z
-x,-y,-z
x,y,-z
-x,y,z
x,-y,z
1/2+x,1/2+y,z
1/2-x,1/2-y,z
1/2+x,1/2-y,-z
1/2-x,1/2+y,-z
1/2-x,1/2-y,-z
1/2+x,1/2+y,-z
1/2-x,1/2+y,z
1/2+x,1/2-y,z
loop_
_atom_site_type_symbol
_atom_site_label
_atom_site_fract_x
_atom_site_fract_y
_atom_site_fract_z
Si Si1 0.788159 0.061482 0.091359
Si Si2 0.783585 0.000000 0.599100
Si Si3 0.708876 0.591493 0.276618
Si Si4 0.288369 0.811684 0.000000
Si Si5 0.708968 0.810220 0.192847
O O1 0.711975 0.077472 0.183014
O O2 0.000000 0.070012 0.091618
O O3 0.764388 0.000000 0.088427
O O4 0.717126 0.082952 0.000000
O O5 0.725737 0.948008 0.650372
O O6 0.724568 0.000000 0.500000
O O7 0.000000 0.000000 0.597419
O O8 0.500000 0.580966 0.273359
O O9 0.729584 0.653309 0.271811
O O10 0.250000 0.750000 0.000000
O O11 0.218643 0.826896 0.903274
O O12 0.500000 0.817788 0.000000
O O13 0.500000 0.815020 0.187884
O O14 0.750000 0.750000 0.205605
#
# Coordination Sequence:
#
# PCOD9483956 Si02
#       5
#    16   8  16   8  16
#     4   8  13  22  38  64  98 131 165 205 243 287
#     4   9  18  34  56  82 109 134 167 213 264 318
#     4  10  18  30  51  77 102 135 176 214 255 304
#     4   8  16  30  46  65  96 139 181 214 248 292
#     4  10  20  34  50  72 104 141 179 217 255 300
#
# _framework density 21.107267
#
# number of rings (size 3 to 8) (size 9 to 14) (size 15 to 20)
#    0.000    2.875    1.250    1.500    1.750    1.000 
#    0.000    0.625    0.000    2.250    0.000    4.375 
#    0.000    0.000    0.000    0.000    0.000    0.000 
#
# Total GULP energy -178272.284718 kJ/mol
# GULP energy per Si atom -5571.008897 kJ/mol
# Density = 2.105923 g / cm^3
# Si number density = 21.107267 Si / 1000 Ang^3
#
#
#
# Elastic Constant Matrix: (Units=GPa)
#
#
# Indices 1 2 3 4 5 6 
#
# 1 58.3820 7.6134 7.8749 0.0000 0.0000 0.0000
# 2 7.6134 130.6180 90.1772 0.0000 0.0000 0.0000
# 3 7.8749 90.1772 152.0322 0.0000 0.0000 0.0000
# 4 0.0000 0.0000 0.0000 26.8667 0.0000 0.0000
# 5 0.0000 0.0000 0.0000 0.0000 6.3360 0.0000
# 6 0.0000 0.0000 0.0000 0.0000 0.0000 13.6470
#
#
#
# Elastic Compliance Matrix: (Units=1/GPa)
#
#
# Indices 1 2 3 4 5 6 
#
# 1 0.017283 -0.000659 -0.000504 0.000000 0.000000 0.000000
# 2 -0.000659 0.012990 -0.007671 0.000000 0.000000 0.000000
# 3 -0.000504 -0.007671 0.011154 0.000000 0.000000 0.000000
# 4 0.000000 0.000000 0.000000 0.037221 0.000000 0.000000
# 5 0.000000 0.000000 0.000000 0.000000 0.157828 0.000000
# 6 0.000000 0.000000 0.000000 0.000000 0.000000 0.073276
#
#
# Mechanical properties :
#
#
# Convention : Reuss Voigt Hill
#
# Bulk Modulus (GPa) = 42.09164 61.37368 51.73266
# Shear Modulus (GPa) = 14.91025 25.06105 19.98565
#
# Velocity S-wave (km/s) = 2.66071 3.44949 3.08045
# Velocity P-wave (km/s) = 5.42441 6.70861 6.10040
#
# Compressibility (1/GPa) = 0.02375769
#
# Stress axis : x y z
#
# Youngs Moduli (GPa) = 57.86180 76.98040 89.65647
#
# Poissons Ratio (x) = 0.05075 0.04520
# Poissons Ratio (y) = 0.03815 0.68775
# Poissons Ratio (z) = 0.02917 0.59052
#
# Static dielectric constant tensor:
#      x y z
#    x 1.761680 0.000000 0.000000 
#    y 0.000000 1.926870 0.000000 
#    z 0.000000 0.000000 1.772690 
# 
# From -- ./inp_files/36028.got.cif
#   From: 2010.05.17/outbox.cif.g08.bks.cpg/sg65_19_cif.got.tgz:36028.got - 2010.06.03 17:01:31.
