data_PCOD9483491
_publ_section_title
;
Structure prediction by ZEFSAII (Michael W. Deem and Ramdas Pophale) SiO2 
 PCOD9483491
Probable space group: C M M M
;
_chemical_formula_sum "Si O2"
_cell_formula_units_Z 88
_cell_length_a 28.564204
_cell_length_b 7.664787
_cell_length_c 19.014454
_cell_angle_alpha 90.000000
_cell_angle_beta 90.000000
_cell_angle_gamma 90.000000
_cell_volume 4162.996788
_symmetry_space_group_name_H-M "C M M M"
_symmetry_group_IT_number 65
_symmetry_cell_setting 'orthorhombic'
loop_
_space_group_symop_operation_xyz
x,y,z
-x,-y,z
x,-y,-z
-x,y,-z
-x,-y,-z
x,y,-z
-x,y,z
x,-y,z
1/2+x,1/2+y,z
1/2-x,1/2-y,z
1/2+x,1/2-y,-z
1/2-x,1/2+y,-z
1/2-x,1/2-y,-z
1/2+x,1/2+y,-z
1/2-x,1/2+y,z
1/2+x,1/2-y,z
loop_
_atom_site_type_symbol
_atom_site_label
_atom_site_fract_x
_atom_site_fract_y
_atom_site_fract_z
Si Si1 0.000000 0.711359 0.917393
Si Si2 0.197281 0.299697 0.839767
Si Si3 0.596445 0.794874 0.149124
Si Si4 0.552621 0.711238 0.292263
Si Si5 0.801588 0.207961 0.324009
Si Si6 0.112569 0.786965 0.579874
O O1 0.951162 0.779714 0.884972
O O2 0.000000 0.500000 0.906046
O O3 0.000000 0.743908 0.000000
O O4 0.193676 0.500000 0.858902
O O5 0.250000 0.250000 0.861759
O O6 0.148092 0.217504 0.866368
O O7 0.195780 0.282794 0.754796
O O8 0.587228 0.779071 0.232519
O O9 0.597310 0.000000 0.130023
O O10 0.500000 0.771102 0.277387
O O11 0.553620 0.500000 0.288658
O O12 0.569675 0.762474 0.369641
O O13 0.750000 0.250000 0.351825
O O14 0.841236 0.269382 0.377567
O O15 0.806707 0.000000 0.315877
O O16 0.110344 0.724613 0.500000
O O17 0.113486 0.000000 0.577444
#
# Coordination Sequence:
#
# PCOD9483491 Si02
#       6
#     8  16  16  16  16  16
#     4   9  18  34  57  85 112 137 166 202 245 295
#     4  10  19  30  48  75 103 132 169 210 254 299
#     4  10  19  32  54  80 105 135 169 208 251 296
#     4  10  19  31  50  74  97 128 169 209 254 305
#     4  10  18  29  46  66  92 125 162 208 258 302
#     4   9  18  31  45  64  93 128 167 211 256 301
#
# _framework density 21.138618000000001
#
# number of rings (size 3 to 8) (size 9 to 14) (size 15 to 20)
#    0.000    2.273    2.727    2.182    0.000    1.455 
#    0.000    1.818    0.000    6.000    0.000    1.273 
#    0.000    0.000    0.000    0.000    0.000    0.727 
#
# Total GULP energy -245329.420250 kJ/mol
# GULP energy per Si atom -5575.668642 kJ/mol
# Density = 2.109051 g / cm^3
# Si number density = 21.138618 Si / 1000 Ang^3
#
#
#
# Elastic Constant Matrix: (Units=GPa)
#
#
# Indices 1 2 3 4 5 6 
#
# 1 202.7607 15.1744 32.9492 0.0000 0.0000 0.0000
# 2 15.1744 35.2464 -6.3557 0.0000 0.0000 0.0000
# 3 32.9492 -6.3557 36.8583 0.0000 0.0000 0.0000
# 4 0.0000 0.0000 0.0000 6.7945 0.0000 0.0000
# 5 0.0000 0.0000 0.0000 0.0000 17.9714 0.0000
# 6 0.0000 0.0000 0.0000 0.0000 0.0000 -31.4031
#
#
#
# Elastic Compliance Matrix: (Units=1/GPa)
#
#
# Indices 1 2 3 4 5 6 
#
# 1 0.006228 -0.003803 -0.006223 0.000000 0.000000 0.000000
# 2 -0.003803 0.031605 0.008850 0.000000 0.000000 0.000000
# 3 -0.006223 0.008850 0.034220 0.000000 0.000000 0.000000
# 4 0.000000 0.000000 0.000000 0.147178 0.000000 0.000000
# 5 0.000000 0.000000 0.000000 0.000000 0.055644 0.000000
# 6 0.000000 0.000000 0.000000 0.000000 0.000000 -0.031844
#
#
# Mechanical properties :
#
#
# Convention : Reuss Voigt Hill
#
# Bulk Modulus (GPa) = 14.34730 39.82236 27.08483
# Shear Modulus (GPa) = 18.61380 14.21240 16.41310
#
# Velocity S-wave (km/s) = 2.97064 2.59577 2.78951
# Velocity P-wave (km/s) = 4.30909 5.27860 4.81829
#
# Compressibility (1/GPa) = 0.06969953
#
# Stress axis : x y z
#
# Youngs Moduli (GPa) = 160.56885 31.64060 29.22255
#
# Poissons Ratio (x) = 0.12034 0.18186
# Poissons Ratio (y) = 0.61071 -0.25862
# Poissons Ratio (z) = 0.99925 -0.28002
#
# Static dielectric constant tensor:
#      x y z
#    x 1.825100 0.000000 0.000000 
#    y 0.000000 1.784760 0.000000 
#    z 0.000000 0.000000 1.715260 
# 
# From -- ./inp_files/57973.got.cif
#   From: 2010.05.17/outbox.cif.g08.bks.cpg/sg65_29_cif.got.tgz:57973.got - 2010.06.03 17:01:31.
