data_PCOD9483879
_publ_section_title
;
Structure prediction by ZEFSAII (Michael W. Deem and Ramdas Pophale) SiO2 
 PCOD9483879
Probable space group: C M M M
;
_chemical_formula_sum "Si O2"
_cell_formula_units_Z 88
_cell_length_a 19.924250
_cell_length_b 28.727450
_cell_length_c 7.625431
_cell_angle_alpha 90.000000
_cell_angle_beta 90.000000
_cell_angle_gamma 90.000000
_cell_volume 4364.590022
_symmetry_space_group_name_H-M "C M M M"
_symmetry_group_IT_number 65
_symmetry_cell_setting 'orthorhombic'
loop_
_space_group_symop_operation_xyz
x,y,z
-x,-y,z
x,-y,-z
-x,y,-z
-x,-y,-z
x,y,-z
-x,y,z
x,-y,z
1/2+x,1/2+y,z
1/2-x,1/2-y,z
1/2+x,1/2-y,-z
1/2-x,1/2+y,-z
1/2-x,1/2-y,-z
1/2+x,1/2+y,-z
1/2-x,1/2+y,z
1/2+x,1/2-y,z
loop_
_atom_site_type_symbol
_atom_site_label
_atom_site_fract_x
_atom_site_fract_y
_atom_site_fract_z
Si Si1 0.796768 0.184253 0.203445
Si Si2 0.166480 0.914756 0.794993
Si Si3 0.423763 0.870511 0.714892
Si Si4 0.848310 0.281041 0.700988
Si Si5 0.315972 0.947164 0.712583
Si Si6 0.577700 0.500000 0.784566
O O1 0.831179 0.137835 0.277156
O O2 0.841158 0.230764 0.212079
O O3 0.726104 0.196041 0.294024
O O4 0.779663 0.175565 0.000000
O O5 0.242295 0.933592 0.778452
O O6 0.116743 0.953838 0.721654
O O7 0.148629 0.910372 0.000000
O O8 0.421851 0.869842 0.500000
O O9 0.500000 0.879738 0.767828
O O10 0.397995 0.819922 0.774884
O O11 0.371446 0.910055 0.771392
O O12 0.866806 0.272322 0.500000
O O13 0.313567 0.945608 0.500000
O O14 0.332064 0.000000 0.764958
O O15 0.500000 0.500000 0.735348
O O16 0.581156 0.500000 0.000000
#
# Coordination Sequence:
#
# PCOD9483879 Si02
#       6
#    16  16  16  16  16   8
#     4  10  19  30  48  75 103 127 161 211 257 293
#     4  10  19  32  53  77 101 132 166 207 253 298
#     4   9  18  32  49  72 104 138 173 211 250 297
#     4  10  18  30  50  73  98 132 170 206 249 297
#     4  10  19  31  51  78 103 131 169 212 253 294
#     4   9  18  34  55  77 100 131 170 204 245 307
#
# _framework density 20.162258999999999
#
# number of rings (size 3 to 8) (size 9 to 14) (size 15 to 20)
#    0.000    2.273    2.727    2.182    0.000    1.091 
#    0.000    2.727    0.000    7.091    0.000    1.273 
#    0.000    0.000    0.000    0.000    0.000    0.000 
#
# Total GULP energy -245537.811192 kJ/mol
# GULP energy per Si atom -5580.404800 kJ/mol
# Density = 2.011637 g / cm^3
# Si number density = 20.162259 Si / 1000 Ang^3
#
#
#
# Elastic Constant Matrix: (Units=GPa)
#
#
# Indices 1 2 3 4 5 6 
#
# 1 121.4418 76.7391 -10.9699 0.0000 0.0000 0.0000
# 2 76.7391 177.7562 -2.4459 0.0000 0.0000 0.0000
# 3 -10.9699 -2.4459 39.8159 0.0000 0.0000 0.0000
# 4 0.0000 0.0000 0.0000 108.1154 0.0000 0.0000
# 5 0.0000 0.0000 0.0000 0.0000 18.2257 0.0000
# 6 0.0000 0.0000 0.0000 0.0000 0.0000 31.5283
#
#
#
# Elastic Compliance Matrix: (Units=1/GPa)
#
#
# Indices 1 2 3 4 5 6 
#
# 1 0.011649 -0.004989 0.002903 0.000000 0.000000 0.000000
# 2 -0.004989 0.007767 -0.000897 0.000000 0.000000 0.000000
# 3 0.002903 -0.000897 0.025860 0.000000 0.000000 0.000000
# 4 0.000000 0.000000 0.000000 0.009249 0.000000 0.000000
# 5 0.000000 0.000000 0.000000 0.000000 0.054867 0.000000
# 6 0.000000 0.000000 0.000000 0.000000 0.000000 0.031718
#
#
# Mechanical properties :
#
#
# Convention : Reuss Voigt Hill
#
# Bulk Modulus (GPa) = 25.43898 51.74006 38.58952
# Shear Modulus (GPa) = 31.21457 49.95326 40.58392
#
# Velocity S-wave (km/s) = 3.93895 4.98291 4.49136
# Velocity P-wave (km/s) = 5.77335 7.66964 6.78804
#
# Compressibility (1/GPa) = 0.03930976
#
# Stress axis : x y z
#
# Youngs Moduli (GPa) = 85.84209 128.74634 38.66925
#
# Poissons Ratio (x) = 0.64234 -0.11226
# Poissons Ratio (y) = 0.42828 0.03470
# Poissons Ratio (z) = -0.24921 0.11554
#
# Static dielectric constant tensor:
#      x y z
#    x 1.663000 0.000000 0.000000 
#    y 0.000000 1.738290 0.000000 
#    z 0.000000 0.000000 1.766440 
# 
# From -- ./inp_files/10106.got.cif
#   From: 2010.05.17/outbox.cif.g08.bks.cpg/sg65_6_cif.got.tgz:10106.got - 2010.06.03 17:01:31.
