data_PCOD9483910
_publ_section_title
;
Structure prediction by ZEFSAII (Michael W. Deem and Ramdas Pophale) SiO2 
 PCOD9483910
Probable space group: C M M M
;
_chemical_formula_sum "Si O2"
_cell_formula_units_Z 64
_cell_length_a 27.025072
_cell_length_b 9.539275
_cell_length_c 13.517735
_cell_angle_alpha 90.000000
_cell_angle_beta 90.000000
_cell_angle_gamma 90.000000
_cell_volume 3484.866591
_symmetry_space_group_name_H-M "C M M M"
_symmetry_group_IT_number 65
_symmetry_cell_setting 'orthorhombic'
loop_
_space_group_symop_operation_xyz
x,y,z
-x,-y,z
x,-y,-z
-x,y,-z
-x,-y,-z
x,y,-z
-x,y,z
x,-y,z
1/2+x,1/2+y,z
1/2-x,1/2-y,z
1/2+x,1/2-y,-z
1/2-x,1/2+y,-z
1/2-x,1/2-y,-z
1/2+x,1/2+y,-z
1/2-x,1/2+y,z
1/2+x,1/2-y,z
loop_
_atom_site_type_symbol
_atom_site_label
_atom_site_fract_x
_atom_site_fract_y
_atom_site_fract_z
Si Si1 0.250000 0.750000 0.727375
Si Si2 0.820913 0.348528 0.888622
Si Si3 0.595250 0.668959 0.197968
Si Si4 0.000000 0.666105 0.119251
Si Si5 0.847286 0.166471 0.389582
O O1 0.221000 0.652364 0.805064
O O2 0.206699 0.808728 0.658011
O O3 0.847555 0.500000 0.881979
O O4 0.858454 0.222565 0.867254
O O5 0.801172 0.337377 0.000000
O O6 0.589342 0.500000 0.192268
O O7 0.547552 0.752576 0.161919
O O8 0.611898 0.711873 0.309342
O O9 0.000000 0.500000 0.143833
O O10 0.000000 0.677477 0.000000
O O11 0.851043 0.227595 0.500000
O O12 0.853352 0.000000 0.396973
#
# Coordination Sequence:
#
# PCOD9483910 Si02
#       5
#     8  16  16   8  16
#     4  10  18  30  50  76 104 140 186 226 258 304
#     4  10  20  33  49  73 109 148 181 218 267 317
#     4  10  21  36  56  81 107 137 176 219 261 312
#     4  11  23  39  60  83 108 138 169 207 260 317
#     4   9  18  33  52  75 104 138 177 220 264 308
#
# _framework density 18.365122
#
# number of rings (size 3 to 8) (size 9 to 14) (size 15 to 20)
#    0.000    2.125    0.000    3.375    0.000    5.500 
#    0.000    0.625    0.000   18.750    0.000    0.000 
#    0.000    0.000    0.000    0.000    0.000    0.000 
#
# Total GULP energy -178228.801215 kJ/mol
# GULP energy per Si atom -5569.650038 kJ/mol
# Density = 1.832332 g / cm^3
# Si number density = 18.365122 Si / 1000 Ang^3
#
#
#
# Elastic Constant Matrix: (Units=GPa)
#
#
# Indices 1 2 3 4 5 6 
#
# 1 101.7120 51.7828 52.2106 0.0000 0.0000 0.0000
# 2 51.7828 89.8484 42.5971 0.0000 0.0000 0.0000
# 3 52.2106 42.5971 145.9333 0.0000 0.0000 0.0000
# 4 0.0000 0.0000 0.0000 -14.8125 0.0000 0.0000
# 5 0.0000 0.0000 0.0000 0.0000 15.5908 0.0000
# 6 0.0000 0.0000 0.0000 0.0000 0.0000 23.0379
#
#
#
# Elastic Compliance Matrix: (Units=1/GPa)
#
#
# Indices 1 2 3 4 5 6 
#
# 1 0.015202 -0.007176 -0.003344 0.000000 0.000000 0.000000
# 2 -0.007176 0.016305 -0.002192 0.000000 0.000000 0.000000
# 3 -0.003344 -0.002192 0.008689 0.000000 0.000000 0.000000
# 4 0.000000 0.000000 0.000000 -0.067510 0.000000 0.000000
# 5 0.000000 0.000000 0.000000 0.000000 0.064140 0.000000
# 6 0.000000 0.000000 0.000000 0.000000 0.000000 0.043407
#
#
# Mechanical properties :
#
#
# Convention : Reuss Voigt Hill
#
# Bulk Modulus (GPa) = 67.69893 70.07497 68.88695
# Shear Modulus (GPa) = 45.21650 17.49011 31.35330
#
# Velocity S-wave (km/s) = 4.96732 3.08937 4.13633
# Velocity P-wave (km/s) = 8.35714 7.13898 7.77196
#
# Compressibility (1/GPa) = 0.01477128
#
# Stress axis : x y z
#
# Youngs Moduli (GPa) = 65.78279 61.33192 115.09214
#
# Poissons Ratio (x) = 0.44010 0.38488
# Poissons Ratio (y) = 0.47204 0.25228
# Poissons Ratio (z) = 0.21998 0.13444
#
# Static dielectric constant tensor:
#      x y z
#    x 1.625810 0.000000 0.000000 
#    y 0.000000 1.651630 0.000000 
#    z 0.000000 0.000000 1.669320 
# 
# From -- ./inp_files/46410.got.cif
#   From: 2010.05.17/outbox.cif.g08.bks.cpg/sg65_24_cif.got.tgz:46410.got - 2010.06.03 17:01:31.
