data_PCOD9483694
_publ_section_title
;
Structure prediction by ZEFSAII (Michael W. Deem and Ramdas Pophale) SiO2 
 PCOD9483694
Probable space group: C M M M
;
_chemical_formula_sum "Si O2"
_cell_formula_units_Z 104
_cell_length_a 28.154030
_cell_length_b 8.529227
_cell_length_c 27.483392
_cell_angle_alpha 90.000000
_cell_angle_beta 90.000000
_cell_angle_gamma 90.000000
_cell_volume 6599.644989
_symmetry_space_group_name_H-M "C M M M"
_symmetry_group_IT_number 65
_symmetry_cell_setting 'orthorhombic'
loop_
_space_group_symop_operation_xyz
x,y,z
-x,-y,z
x,-y,-z
-x,y,-z
-x,-y,-z
x,y,-z
-x,y,z
x,-y,z
1/2+x,1/2+y,z
1/2-x,1/2-y,z
1/2+x,1/2-y,-z
1/2-x,1/2+y,-z
1/2-x,1/2-y,-z
1/2+x,1/2+y,-z
1/2-x,1/2+y,z
1/2+x,1/2-y,z
loop_
_atom_site_type_symbol
_atom_site_label
_atom_site_fract_x
_atom_site_fract_y
_atom_site_fract_z
Si Si1 0.554282 0.189764 0.748737
Si Si2 0.353623 0.313303 0.697892
Si Si3 0.055321 0.308811 0.945724
Si Si4 0.104859 0.690549 0.848405
Si Si5 0.804073 0.186843 0.500000
Si Si6 0.197886 0.311712 0.793494
Si Si7 0.303991 0.186670 0.602287
O O1 0.500000 0.236617 0.739541
O O2 0.593371 0.259790 0.712551
O O3 0.570454 0.234833 0.803550
O O4 0.557152 0.000000 0.746043
O O5 0.350978 0.500000 0.695730
O O6 0.319967 0.252147 0.741524
O O7 0.335210 0.241979 0.647591
O O8 0.056877 0.500000 0.945551
O O9 0.086357 0.252243 0.900365
O O10 0.000000 0.266233 0.938688
O O11 0.070109 0.257882 0.000000
O O12 0.104320 0.500000 0.850062
O O13 0.157765 0.737873 0.832452
O O14 0.750000 0.250000 0.500000
O O15 0.824053 0.249337 0.449034
O O16 0.803850 0.000000 0.500000
O O17 0.198198 0.500000 0.791098
O O18 0.250000 0.250000 0.804737
O O19 0.250000 0.250000 0.608397
O O20 0.301628 0.000000 0.600231
#
# Coordination Sequence:
#
# PCOD9483694 Si02
#       7
#    16  16  16  16   8  16  16
#     4   9  17  30  47  66  90 120 152 185 223 269
#     4  11  21  32  46  67  93 120 151 187 227 270
#     4   8  12  18  32  57  86 112 139 175 220 267
#     4   8  14  24  39  59  84 115 147 179 219 267
#     4  10  18  30  46  68  95 124 157 190 228 268
#     4  10  19  31  45  62  85 115 150 186 225 270
#     4  11  20  32  48  68  95 126 158 190 227 269
#
# _framework density 15.758424
#
# number of rings (size 3 to 8) (size 9 to 14) (size 15 to 20)
#    0.000    2.462    0.000    7.154    0.000    2.154 
#    0.000    0.000    0.000    0.462    0.000    0.538 
#    0.000   19.077    0.000   49.385    0.000   45.231 
#
# Total GULP energy -289901.793877 kJ/mol
# GULP energy per Si atom -5575.034498 kJ/mol
# Density = 1.572256 g / cm^3
# Si number density = 15.758424 Si / 1000 Ang^3
#
#
#
# Elastic Constant Matrix: (Units=GPa)
#
#
# Indices 1 2 3 4 5 6 
#
# 1 105.3618 34.4081 76.3152 0.0000 0.0000 0.0000
# 2 34.4081 78.0194 41.3011 0.0000 0.0000 0.0000
# 3 76.3152 41.3011 164.1775 0.0000 0.0000 0.0000
# 4 0.0000 0.0000 0.0000 8.6866 0.0000 0.0000
# 5 0.0000 0.0000 0.0000 0.0000 14.9737 0.0000
# 6 0.0000 0.0000 0.0000 0.0000 0.0000 19.9264
#
#
#
# Elastic Compliance Matrix: (Units=1/GPa)
#
#
# Indices 1 2 3 4 5 6 
#
# 1 0.015045 -0.003384 -0.006142 0.000000 0.000000 0.000000
# 2 -0.003384 0.015547 -0.002338 0.000000 0.000000 0.000000
# 3 -0.006142 -0.002338 0.009534 0.000000 0.000000 0.000000
# 4 0.000000 0.000000 0.000000 0.115120 0.000000 0.000000
# 5 0.000000 0.000000 0.000000 0.000000 0.066784 0.000000
# 6 0.000000 0.000000 0.000000 0.000000 0.000000 0.050185
#
#
# Mechanical properties :
#
#
# Convention : Reuss Voigt Hill
#
# Bulk Modulus (GPa) = 60.98172 72.40082 66.69127
# Shear Modulus (GPa) = 16.58872 21.75295 19.17084
#
# Velocity S-wave (km/s) = 3.24804 3.71941 3.49169
# Velocity P-wave (km/s) = 7.26968 8.03052 7.65955
#
# Compressibility (1/GPa) = 0.01639836
#
# Stress axis : x y z
#
# Youngs Moduli (GPa) = 66.46716 64.31930 104.88422
#
# Poissons Ratio (x) = 0.21763 0.64422
# Poissons Ratio (y) = 0.22490 0.24525
# Poissons Ratio (z) = 0.40826 0.15040
#
# Static dielectric constant tensor:
#      x y z
#    x 1.509570 0.000000 0.000000 
#    y 0.000000 1.561650 0.000000 
#    z 0.000000 0.000000 1.534780 
# 
# From -- ./inp_files/76045.got.cif
#   From: 2010.05.17/outbox.cif.g08.bks.cpg/sg65_39_cif.got.tgz:76045.got - 2010.06.03 17:01:31.
