data_PCOD9483464
_publ_section_title
;
Structure prediction by ZEFSAII (Michael W. Deem and Ramdas Pophale) SiO2 
 PCOD9483464
Probable space group: C M M M
;
_chemical_formula_sum "Si O2"
_cell_formula_units_Z 104
_cell_length_a 14.806955
_cell_length_b 20.350592
_cell_length_c 19.712605
_cell_angle_alpha 90.000000
_cell_angle_beta 90.000000
_cell_angle_gamma 90.000000
_cell_volume 5940.005178
_symmetry_space_group_name_H-M "C M M M"
_symmetry_group_IT_number 65
_symmetry_cell_setting 'orthorhombic'
loop_
_space_group_symop_operation_xyz
x,y,z
-x,-y,z
x,-y,-z
-x,y,-z
-x,-y,-z
x,y,-z
-x,y,z
x,-y,z
1/2+x,1/2+y,z
1/2-x,1/2-y,z
1/2+x,1/2-y,-z
1/2-x,1/2+y,-z
1/2-x,1/2-y,-z
1/2+x,1/2+y,-z
1/2-x,1/2+y,z
1/2+x,1/2-y,z
loop_
_atom_site_type_symbol
_atom_site_label
_atom_site_fract_x
_atom_site_fract_y
_atom_site_fract_z
Si Si1 0.896660 0.390119 0.925749
Si Si2 0.109933 0.000000 0.076262
Si Si3 0.604896 0.379997 0.829372
Si Si4 0.222925 0.080214 0.703191
Si Si5 0.642811 0.738470 0.074745
Si Si6 0.897620 0.422116 0.223180
Si Si7 0.897164 0.920227 0.422416
O O1 0.898068 0.311067 0.922219
O O2 0.858842 0.411941 0.853198
O O3 0.000000 0.415019 0.926349
O O4 0.856019 0.407448 0.000000
O O5 0.136639 0.064691 0.117285
O O6 0.000000 0.000000 0.073404
O O7 0.144515 0.000000 0.000000
O O8 0.500000 0.392756 0.814001
O O9 0.661796 0.388770 0.761885
O O10 0.613937 0.310260 0.866421
O O11 0.325306 0.100997 0.721224
O O12 0.178851 0.099544 0.631511
O O13 0.218184 0.000000 0.708399
O O14 0.750000 0.750000 0.078147
O O15 0.620589 0.710015 0.000000
O O16 0.905389 0.500000 0.232241
O O17 0.000000 0.394131 0.226937
O O18 0.880358 0.898962 0.500000
O O19 0.000000 0.900294 0.403077
O O20 0.897427 0.000000 0.422758
#
# Coordination Sequence:
#
# PCOD9483464 Si02
#       7
#    16   8  16  16  16  16  16
#     4   9  17  30  46  61  79 109 153 202 247 284
#     4   9  18  30  42  60  90 126 160 189 224 280
#     4  11  20  30  46  68  93 123 157 193 237 286
#     4  10  18  29  45  65  95 124 152 188 234 283
#     4  10  20  32  45  60  84 119 160 201 239 278
#     4   9  18  31  47  66  89 119 157 201 249 293
#     4   8  14  25  43  67  93 122 152 179 215 273
#
# _framework density 17.508402
#
# number of rings (size 3 to 8) (size 9 to 14) (size 15 to 20)
#    0.000    2.538    0.769    2.769    0.000    2.462 
#    0.000    2.308    0.000    0.462    0.000    3.231 
#    0.000    5.538    0.000    7.692    0.000    3.231 
#
# Total GULP energy -289761.574454 kJ/mol
# GULP energy per Si atom -5572.337970 kJ/mol
# Density = 1.746855 g / cm^3
# Si number density = 17.508402 Si / 1000 Ang^3
#
#
#
# Elastic Constant Matrix: (Units=GPa)
#
#
# Indices 1 2 3 4 5 6 
#
# 1 98.8527 6.9331 61.4194 0.0000 0.0000 0.0000
# 2 6.9331 17.6532 6.6713 0.0000 0.0000 0.0000
# 3 61.4194 6.6713 115.7333 0.0000 0.0000 0.0000
# 4 0.0000 0.0000 0.0000 5.8322 0.0000 0.0000
# 5 0.0000 0.0000 0.0000 0.0000 22.8670 0.0000
# 6 0.0000 0.0000 0.0000 0.0000 0.0000 9.7738
#
#
#
# Elastic Compliance Matrix: (Units=1/GPa)
#
#
# Indices 1 2 3 4 5 6 
#
# 1 0.015246 -0.002995 -0.007918 0.000000 0.000000 0.000000
# 2 -0.002995 0.058497 -0.001782 0.000000 0.000000 0.000000
# 3 -0.007918 -0.001782 0.012946 0.000000 0.000000 0.000000
# 4 0.000000 0.000000 0.000000 0.171463 0.000000 0.000000
# 5 0.000000 0.000000 0.000000 0.000000 0.043731 0.000000
# 6 0.000000 0.000000 0.000000 0.000000 0.000000 0.102314
#
#
# Mechanical properties :
#
#
# Convention : Reuss Voigt Hill
#
# Bulk Modulus (GPa) = 16.31420 42.47632 29.39526
# Shear Modulus (GPa) = 11.11059 18.17563 14.64311
#
# Velocity S-wave (km/s) = 2.52183 3.22547 2.89510
# Velocity P-wave (km/s) = 4.22110 6.17938 5.29162
#
# Compressibility (1/GPa) = 0.06129629
#
# Stress axis : x y z
#
# Youngs Moduli (GPa) = 65.59108 17.09496 77.24658
#
# Poissons Ratio (x) = 0.05120 0.61167
# Poissons Ratio (y) = 0.19646 0.13769
# Poissons Ratio (z) = 0.51937 0.03047
#
# Static dielectric constant tensor:
#      x y z
#    x 1.654850 0.000000 0.000000 
#    y 0.000000 1.583750 0.000000 
#    z 0.000000 0.000000 1.596360 
# 
# From -- ./inp_files/53471.got.cif
#   From: 2010.05.17/outbox.cif.g08.bks.cpg/sg65_27_cif.got.tgz:53471.got - 2010.06.03 17:01:31.
