data_PCOD9483220
_publ_section_title
;
Structure prediction by ZEFSAII (Michael W. Deem and Ramdas Pophale) SiO2 
 PCOD9483220
Probable space group: C M M M
;
_chemical_formula_sum "Si O2"
_cell_formula_units_Z 96
_cell_length_a 28.024641
_cell_length_b 8.498646
_cell_length_c 24.780773
_cell_angle_alpha 90.000000
_cell_angle_beta 90.000000
_cell_angle_gamma 90.000000
_cell_volume 5902.073954
_symmetry_space_group_name_H-M "C M M M"
_symmetry_group_IT_number 65
_symmetry_cell_setting 'orthorhombic'
loop_
_space_group_symop_operation_xyz
x,y,z
-x,-y,z
x,-y,-z
-x,y,-z
-x,-y,-z
x,y,-z
-x,y,z
x,-y,z
1/2+x,1/2+y,z
1/2-x,1/2-y,z
1/2+x,1/2-y,-z
1/2-x,1/2+y,-z
1/2-x,1/2-y,-z
1/2+x,1/2+y,-z
1/2-x,1/2+y,z
1/2+x,1/2-y,z
loop_
_atom_site_type_symbol
_atom_site_label
_atom_site_fract_x
_atom_site_fract_y
_atom_site_fract_z
Si Si1 0.149653 0.690243 0.225098
Si Si2 0.304515 0.687163 0.000000
Si Si3 0.899086 0.809703 0.612535
Si Si4 0.555388 0.307815 0.500000
Si Si5 0.801909 0.811838 0.332249
Si Si6 0.695720 0.188903 0.886837
Si Si7 0.446855 0.809990 0.719910
O O1 0.151252 0.500000 0.226578
O O2 0.183830 0.752118 0.272579
O O3 0.166882 0.740461 0.166124
O O4 0.096095 0.741648 0.240895
O O5 0.250000 0.750000 0.000000
O O6 0.325061 0.749005 0.056491
O O7 0.303866 0.500000 0.000000
O O8 0.917765 0.756611 0.554375
O O9 0.845229 0.760655 0.628450
O O10 0.932785 0.748076 0.660335
O O11 0.900399 0.000000 0.613451
O O12 0.555546 0.500000 0.500000
O O13 0.500000 0.258512 0.500000
O O14 0.750000 0.750000 0.347702
O O15 0.800944 0.000000 0.331460
O O16 0.750000 0.250000 0.881660
O O17 0.696937 0.000000 0.888874
O O18 0.500000 0.756049 0.734549
O O19 0.446710 0.000000 0.719635
#
# Coordination Sequence:
#
# PCOD9483220 Si02
#       7
#    16   8  16   8  16  16  16
#     4   9  18  30  45  66  90 117 148 180 216 259
#     4  10  18  28  42  60  85 116 147 177 212 253
#     4   9  18  31  47  67  88 113 147 182 217 260
#     4   9  16  28  48  69  87 109 141 183 224 261
#     4  10  19  30  45  64  88 117 147 181 218 259
#     4  10  18  28  42  61  87 116 146 178 211 250
#     4   9  17  30  47  67  92 118 142 175 221 266
#
# _framework density 16.265467999999998
#
# number of rings (size 3 to 8) (size 9 to 14) (size 15 to 20)
#    0.000    2.583    0.000    3.750    0.000    4.333 
#    0.000    0.833    0.000    1.500    0.000    0.583 
#    0.000    4.667    0.000    0.000    0.000    0.000 
#
# Total GULP energy -267561.316893 kJ/mol
# GULP energy per Si atom -5574.194102 kJ/mol
# Density = 1.622845 g / cm^3
# Si number density = 16.265468 Si / 1000 Ang^3
#
#
#
# Elastic Constant Matrix: (Units=GPa)
#
#
# Indices 1 2 3 4 5 6 
#
# 1 107.7326 16.7021 67.0468 0.0000 0.0000 0.0000
# 2 16.7021 22.3442 24.0674 0.0000 0.0000 0.0000
# 3 67.0468 24.0674 155.2504 0.0000 0.0000 0.0000
# 4 0.0000 0.0000 0.0000 19.7433 0.0000 0.0000
# 5 0.0000 0.0000 0.0000 0.0000 16.3382 0.0000
# 6 0.0000 0.0000 0.0000 0.0000 0.0000 14.3938
#
#
#
# Elastic Compliance Matrix: (Units=1/GPa)
#
#
# Indices 1 2 3 4 5 6 
#
# 1 0.013048 -0.004422 -0.004949 0.000000 0.000000 0.000000
# 2 -0.004422 0.055224 -0.006651 0.000000 0.000000 0.000000
# 3 -0.004949 -0.006651 0.009610 0.000000 0.000000 0.000000
# 4 0.000000 0.000000 0.000000 0.050650 0.000000 0.000000
# 5 0.000000 0.000000 0.000000 0.000000 0.061206 0.000000
# 6 0.000000 0.000000 0.000000 0.000000 0.000000 0.069474
#
#
# Mechanical properties :
#
#
# Convention : Reuss Voigt Hill
#
# Bulk Modulus (GPa) = 21.81678 55.66222 38.73950
# Shear Modulus (GPa) = 16.31123 21.92911 19.12017
#
# Velocity S-wave (km/s) = 3.17016 3.67577 3.43229
# Velocity P-wave (km/s) = 5.18092 7.23259 6.29096
#
# Compressibility (1/GPa) = 0.04583628
#
# Stress axis : x y z
#
# Youngs Moduli (GPa) = 76.63962 18.10799 104.06067
#
# Poissons Ratio (x) = 0.08008 0.51504
# Poissons Ratio (y) = 0.33892 0.69213
# Poissons Ratio (z) = 0.37932 0.12044
#
# Static dielectric constant tensor:
#      x y z
#    x 1.548470 0.000000 0.000000 
#    y 0.000000 1.564300 0.000000 
#    z 0.000000 0.000000 1.547610 
# 
# From -- ./inp_files/71701.got.cif
#   From: 2010.05.17/outbox.cif.g08.bks.cpg/sg65_36_cif.got.tgz:71701.got - 2010.06.03 17:01:31.
