data_PCOD9483052
_publ_section_title
;
Structure prediction by ZEFSAII (Michael W. Deem and Ramdas Pophale) SiO2 
 PCOD9483052
Probable space group: C M M M
;
_chemical_formula_sum "Si O2"
_cell_formula_units_Z 88
_cell_length_a 10.455907
_cell_length_b 28.875145
_cell_length_c 20.839353
_cell_angle_alpha 90.000000
_cell_angle_beta 90.000000
_cell_angle_gamma 90.000000
_cell_volume 6291.730573
_symmetry_space_group_name_H-M "C M M M"
_symmetry_group_IT_number 65
_symmetry_cell_setting 'orthorhombic'
loop_
_space_group_symop_operation_xyz
x,y,z
-x,-y,z
x,-y,-z
-x,y,-z
-x,-y,-z
x,y,-z
-x,y,z
x,-y,z
1/2+x,1/2+y,z
1/2-x,1/2-y,z
1/2+x,1/2-y,-z
1/2-x,1/2+y,-z
1/2-x,1/2-y,-z
1/2+x,1/2+y,-z
1/2-x,1/2+y,z
1/2+x,1/2-y,z
loop_
_atom_site_type_symbol
_atom_site_label
_atom_site_fract_x
_atom_site_fract_y
_atom_site_fract_z
Si Si1 0.750953 0.149664 0.576801
Si Si2 0.655227 0.205217 0.000000
Si Si3 0.500000 0.199363 0.370890
Si Si4 0.648907 0.051101 0.577883
Si Si5 0.500000 0.804234 0.221905
Si Si6 0.500000 0.310305 0.644918
Si Si7 0.500000 0.307939 0.795229
Si Si8 0.761181 0.306447 0.861753
O O1 0.768541 0.151006 0.500000
O O2 0.625639 0.179392 0.594890
O O3 0.725489 0.096513 0.597511
O O4 0.873650 0.169630 0.612180
O O5 0.750000 0.250000 0.000000
O O6 0.694326 0.180629 0.066463
O O7 0.500000 0.215317 0.000000
O O8 0.500000 0.184258 0.296500
O O9 0.500000 0.254998 0.367196
O O10 0.650374 0.051002 0.500000
O O11 0.500000 0.056335 0.596684
O O12 0.693821 0.000000 0.598917
O O13 0.500000 0.748347 0.211195
O O14 0.627649 0.820812 0.186917
O O15 0.500000 0.322096 0.720721
O O16 0.625148 0.322562 0.834889
O O17 0.750000 0.250000 0.861378
#
# Coordination Sequence:
#
# PCOD9483052 Si02
#       8
#    16   8   8  16   8   8   8  16
#     4  11  21  33  47  66  86 109 144 190 236 276
#     4  10  18  24  36  58  80  98 124 172 231 268
#     4  11  21  32  47  60  81 117 162 190 218 262
#     4   8  14  28  50  70  85 103 131 172 223 278
#     4   9  16  28  40  53  70 103 141 183 211 242
#     4  11  23  34  43  60  89 119 150 188 230 264
#     4   9  18  30  40  51  70 109 145 173 207 252
#     4   9  16  25  39  53  74  96 132 174 218 253
#
# _framework density 13.986611999999999
#
# number of rings (size 3 to 8) (size 9 to 14) (size 15 to 20)
#    0.000    2.364    1.818    2.727    3.818    5.091 
#    0.000    0.455    0.000    2.182    0.000    0.000 
#    0.000    0.000    0.000    0.000    0.000    0.000 
#
# Total GULP energy -244948.796269 kJ/mol
# GULP energy per Si atom -5567.018097 kJ/mol
# Density = 1.395478 g / cm^3
# Si number density = 13.986612 Si / 1000 Ang^3
#
#
#
# Elastic Constant Matrix: (Units=GPa)
#
#
# Indices 1 2 3 4 5 6 
#
# 1 136.1779 34.1199 58.9320 0.0000 0.0000 0.0000
# 2 34.1199 62.9837 23.0788 0.0000 0.0000 0.0000
# 3 58.9320 23.0788 91.5621 0.0000 0.0000 0.0000
# 4 0.0000 0.0000 0.0000 -0.9971 0.0000 0.0000
# 5 0.0000 0.0000 0.0000 0.0000 22.4130 0.0000
# 6 0.0000 0.0000 0.0000 0.0000 0.0000 8.1658
#
#
#
# Elastic Compliance Matrix: (Units=1/GPa)
#
#
# Indices 1 2 3 4 5 6 
#
# 1 0.010899 -0.003673 -0.006089 0.000000 0.000000 0.000000
# 2 -0.003673 0.018731 -0.002357 0.000000 0.000000 0.000000
# 3 -0.006089 -0.002357 0.015435 0.000000 0.000000 0.000000
# 4 0.000000 0.000000 0.000000 -1.002940 0.000000 0.000000
# 5 0.000000 0.000000 0.000000 0.000000 0.044617 0.000000
# 6 0.000000 0.000000 0.000000 0.000000 0.000000 0.122462
#
#
# Mechanical properties :
#
#
# Convention : Reuss Voigt Hill
#
# Bulk Modulus (GPa) = 48.01710 58.10947 53.06328
# Shear Modulus (GPa) = -6.58226 17.55587 5.48681
#
# Velocity S-wave (km/s) = -2.17171 3.54671 1.98278
# Velocity P-wave (km/s) = 5.30253 7.64257 6.57745
#
# Compressibility (1/GPa) = 0.02082591
#
# Stress axis : x y z
#
# Youngs Moduli (GPa) = 91.75481 53.38867 64.78925
#
# Poissons Ratio (x) = 0.19609 0.39449
# Poissons Ratio (y) = 0.33701 0.15272
# Poissons Ratio (z) = 0.55868 0.12584
#
# Static dielectric constant tensor:
#      x y z
#    x 1.571690 0.000000 0.000000 
#    y 0.000000 1.445610 0.000000 
#    z 0.000000 0.000000 1.469720 
# 
# From -- ./inp_files/68460.got.cif
#   From: 2010.05.17/outbox.cif.g08.bks.cpg/sg65_35_cif.got.tgz:68460.got - 2010.06.03 17:01:31.
