data_PCOD9483163
_publ_section_title
;
Structure prediction by ZEFSAII (Michael W. Deem and Ramdas Pophale) SiO2 
 PCOD9483163
Probable space group: C M M M
;
_chemical_formula_sum "Si O2"
_cell_formula_units_Z 104
_cell_length_a 14.684190
_cell_length_b 22.702693
_cell_length_c 18.087665
_cell_angle_alpha 90.000000
_cell_angle_beta 90.000000
_cell_angle_gamma 90.000000
_cell_volume 6029.896774
_symmetry_space_group_name_H-M "C M M M"
_symmetry_group_IT_number 65
_symmetry_cell_setting 'orthorhombic'
loop_
_space_group_symop_operation_xyz
x,y,z
-x,-y,z
x,-y,-z
-x,y,-z
-x,-y,-z
x,y,-z
-x,y,z
x,-y,z
1/2+x,1/2+y,z
1/2-x,1/2-y,z
1/2+x,1/2-y,-z
1/2-x,1/2+y,-z
1/2-x,1/2-y,-z
1/2+x,1/2+y,-z
1/2-x,1/2+y,z
1/2+x,1/2-y,z
loop_
_atom_site_type_symbol
_atom_site_label
_atom_site_fract_x
_atom_site_fract_y
_atom_site_fract_z
Si Si1 0.891231 0.836136 0.292000
Si Si2 0.599742 0.137423 0.147097
Si Si3 0.802234 0.873936 0.143447
Si Si4 0.395502 0.570206 0.000000
Si Si5 0.101229 0.301713 0.694995
Si Si6 0.601195 0.266792 0.086799
Si Si7 0.253770 0.321643 0.583842
O O1 0.845226 0.874219 0.226090
O O2 0.873744 0.765343 0.281189
O O3 0.841255 0.844716 0.370861
O O4 0.000000 0.845348 0.293510
O O5 0.500000 0.109706 0.131387
O O6 0.697051 0.106668 0.139234
O O7 0.598989 0.160434 0.231081
O O8 0.606130 0.197307 0.099417
O O9 0.852682 0.906799 0.076586
O O10 0.820036 0.805203 0.123023
O O11 0.390497 0.500000 0.000000
O O12 0.500000 0.589495 0.000000
O O13 0.168054 0.331743 0.637046
O O14 0.000000 0.297168 0.662711
O O15 0.500000 0.285132 0.116410
O O16 0.603572 0.278540 0.000000
O O17 0.248841 0.343801 0.500000
O O18 0.250000 0.250000 0.579347
#
# Coordination Sequence:
#
# PCOD9483163 Si02
#       7
#    16  16  16   8  16  16  16
#     4  10  18  27  43  65  88 123 169 205 239 285
#     4  10  20  30  43  70 103 128 156 195 235 279
#     4  12  20  32  54  69  91 129 165 198 244 293
#     4  11  26  44  58  75  97 119 154 206 252 295
#     4   9  16  27  40  59  93 131 166 202 232 266
#     4  10  19  28  42  69  99 124 154 192 238 288
#     4   9  17  27  38  57  89 131 172 203 234 271
#
# _framework density 17.247392999999999
#
# number of rings (size 3 to 8) (size 9 to 14) (size 15 to 20)
#    0.000    1.923    3.846    1.846    1.077    1.231 
#    0.000    3.077    0.000    0.923    0.000    0.000 
#    0.000    0.615    0.000    3.231    0.000    5.077 
#
# Total GULP energy -289471.855923 kJ/mol
# GULP energy per Si atom -5566.766460 kJ/mol
# Density = 1.720814 g / cm^3
# Si number density = 17.247393 Si / 1000 Ang^3
#
#
#
# Elastic Constant Matrix: (Units=GPa)
#
#
# Indices 1 2 3 4 5 6 
#
# 1 133.5353 11.0321 48.4945 0.0000 0.0000 0.0000
# 2 11.0321 12.7862 14.2639 0.0000 0.0000 0.0000
# 3 48.4945 14.2639 102.6858 0.0000 0.0000 0.0000
# 4 0.0000 0.0000 0.0000 4.3633 0.0000 0.0000
# 5 0.0000 0.0000 0.0000 0.0000 16.2430 0.0000
# 6 0.0000 0.0000 0.0000 0.0000 0.0000 6.2310
#
#
#
# Elastic Compliance Matrix: (Units=1/GPa)
#
#
# Indices 1 2 3 4 5 6 
#
# 1 0.009181 -0.003650 -0.003829 0.000000 0.000000 0.000000
# 2 -0.003650 0.094002 -0.011334 0.000000 0.000000 0.000000
# 3 -0.003829 -0.011334 0.013121 0.000000 0.000000 0.000000
# 4 0.000000 0.000000 0.000000 0.229182 0.000000 0.000000
# 5 0.000000 0.000000 0.000000 0.000000 0.061565 0.000000
# 6 0.000000 0.000000 0.000000 0.000000 0.000000 0.160489
#
#
# Mechanical properties :
#
#
# Convention : Reuss Voigt Hill
#
# Bulk Modulus (GPa) = 12.70993 44.06536 28.38765
# Shear Modulus (GPa) = 7.91902 17.04859 12.48380
#
# Velocity S-wave (km/s) = 2.14509 3.14741 2.69329
# Velocity P-wave (km/s) = 3.67701 6.22999 5.11533
#
# Compressibility (1/GPa) = 0.07867866
#
# Stress axis : x y z
#
# Youngs Moduli (GPa) = 108.92533 10.63803 76.21412
#
# Poissons Ratio (x) = 0.03883 0.29179
# Poissons Ratio (y) = 0.39758 0.86381
# Poissons Ratio (z) = 0.41703 0.12057
#
# Static dielectric constant tensor:
#      x y z
#    x 1.677920 0.000000 0.000000 
#    y 0.000000 1.580310 0.000000 
#    z 0.000000 0.000000 1.600230 
# 
# From -- ./inp_files/53507.got.cif
#   From: 2010.05.17/outbox.cif.g08.bks.cpg/sg65_27_cif.got.tgz:53507.got - 2010.06.03 17:01:31.
