data_PCOD9483636
_publ_section_title
;
Structure prediction by ZEFSAII (Michael W. Deem and Ramdas Pophale) SiO2 
 PCOD9483636
Probable space group: C M M M
;
_chemical_formula_sum "Si O2"
_cell_formula_units_Z 96
_cell_length_a 14.816837
_cell_length_b 23.206670
_cell_length_c 13.484312
_cell_angle_alpha 90.000000
_cell_angle_beta 90.000000
_cell_angle_gamma 90.000000
_cell_volume 4636.573220
_symmetry_space_group_name_H-M "C M M M"
_symmetry_group_IT_number 65
_symmetry_cell_setting 'orthorhombic'
loop_
_space_group_symop_operation_xyz
x,y,z
-x,-y,z
x,-y,-z
-x,y,-z
-x,-y,-z
x,y,-z
-x,y,z
x,-y,z
1/2+x,1/2+y,z
1/2-x,1/2-y,z
1/2+x,1/2-y,-z
1/2-x,1/2+y,-z
1/2-x,1/2-y,-z
1/2+x,1/2+y,-z
1/2-x,1/2+y,z
1/2+x,1/2-y,z
loop_
_atom_site_type_symbol
_atom_site_label
_atom_site_fract_x
_atom_site_fract_y
_atom_site_fract_z
Si Si1 0.396806 0.880217 0.309910
Si Si2 0.108074 0.862553 0.306963
Si Si3 0.131363 0.565485 0.111775
Si Si4 0.848394 0.934073 0.887609
Si Si5 0.610656 0.566174 0.500000
Si Si6 0.889804 0.258144 0.384682
Si Si7 0.106411 0.500000 0.617441
O O1 0.500000 0.881033 0.349100
O O2 0.398668 0.888248 0.191955
O O3 0.357154 0.820093 0.345681
O O4 0.352352 0.939949 0.345521
O O5 0.126811 0.891882 0.201584
O O6 0.140121 0.900780 0.400444
O O7 0.140808 0.797046 0.321859
O O8 0.000000 0.860546 0.316774
O O9 0.102837 0.500000 0.139193
O O10 0.239764 0.564862 0.110520
O O11 0.101190 0.576827 0.000000
O O12 0.879382 0.000000 0.867672
O O13 0.878595 0.918429 0.000000
O O14 0.641156 0.500000 0.500000
O O15 0.500000 0.565747 0.500000
O O16 0.865980 0.250249 0.500000
O O17 0.000000 0.259245 0.379666
O O18 0.108608 0.500000 0.500000
O O19 0.000000 0.500000 0.648556
#
# Coordination Sequence:
#
# PCOD9483636 Si02
#       7
#    16  16  16  16   8  16   8
#     4  10  18  29  50  77 100 128 168 211 250 293
#     4  10  18  31  52  76 103 134 169 208 248 297
#     4   9  18  34  53  71  98 133 165 206 261 311
#     4   9  19  35  54  74  99 135 171 206 256 309
#     4   9  16  26  46  76 101 123 158 206 257 297
#     4   9  17  31  50  73 103 140 171 197 244 307
#     4   9  16  26  43  71 101 125 155 202 252 294
#
# _framework density 20.704947000000001
#
# number of rings (size 3 to 8) (size 9 to 14) (size 15 to 20)
#    0.000    2.667    1.667    2.000    0.000    3.667 
#    0.000    3.333    3.667    6.000    0.000    0.000 
#    0.000    0.000    0.000    0.000    0.000    0.000 
#
# Total GULP energy -267862.889717 kJ/mol
# GULP energy per Si atom -5580.476869 kJ/mol
# Density = 2.065782 g / cm^3
# Si number density = 20.704947 Si / 1000 Ang^3
#
#
#
# Elastic Constant Matrix: (Units=GPa)
#
#
# Indices 1 2 3 4 5 6 
#
# 1 44.8290 11.6108 -2.6587 0.0000 0.0000 0.0000
# 2 11.6108 201.4126 108.8226 0.0000 0.0000 0.0000
# 3 -2.6587 108.8226 152.0574 0.0000 0.0000 0.0000
# 4 0.0000 0.0000 0.0000 37.0590 0.0000 0.0000
# 5 0.0000 0.0000 0.0000 0.0000 29.9671 0.0000
# 6 0.0000 0.0000 0.0000 0.0000 0.0000 3.1304
#
#
#
# Elastic Compliance Matrix: (Units=1/GPa)
#
#
# Indices 1 2 3 4 5 6 
#
# 1 0.023092 -0.002526 0.002212 0.000000 0.000000 0.000000
# 2 -0.002526 0.008371 -0.006035 0.000000 0.000000 0.000000
# 3 0.002212 -0.006035 0.010934 0.000000 0.000000 0.000000
# 4 0.000000 0.000000 0.000000 0.026984 0.000000 0.000000
# 5 0.000000 0.000000 0.000000 0.000000 0.033370 0.000000
# 6 0.000000 0.000000 0.000000 0.000000 0.000000 0.319452
#
#
# Mechanical properties :
#
#
# Convention : Reuss Voigt Hill
#
# Bulk Modulus (GPa) = 33.67163 70.42761 52.04962
# Shear Modulus (GPa) = 11.24093 32.73292 21.98692
#
# Velocity S-wave (km/s) = 2.33257 3.98040 3.26224
# Velocity P-wave (km/s) = 4.85308 7.43057 6.27558
#
# Compressibility (1/GPa) = 0.02969860
#
# Stress axis : x y z
#
# Youngs Moduli (GPa) = 43.30428 119.45398 91.45427
#
# Poissons Ratio (x) = 0.30176 -0.20226
# Poissons Ratio (y) = 0.10939 0.55196
# Poissons Ratio (z) = -0.09577 0.72094
#
# Static dielectric constant tensor:
#      x y z
#    x 1.795720 0.000000 0.000000 
#    y 0.000000 1.744720 0.000000 
#    z 0.000000 0.000000 1.736320 
# 
# From -- ./inp_files/29055.got.cif
#   From: 2010.05.17/outbox.cif.g08.bks.cpg/sg65_15_cif.got.tgz:29055.got - 2010.06.03 17:01:31.
