data_PCOD9483094
_publ_section_title
;
Structure prediction by ZEFSAII (Michael W. Deem and Ramdas Pophale) SiO2 
 PCOD9483094
Probable space group: C M M M
;
_chemical_formula_sum "Si O2"
_cell_formula_units_Z 80
_cell_length_a 18.477236
_cell_length_b 20.918312
_cell_length_c 12.857349
_cell_angle_alpha 90.000000
_cell_angle_beta 90.000000
_cell_angle_gamma 90.000000
_cell_volume 4969.527231
_symmetry_space_group_name_H-M "C M M M"
_symmetry_group_IT_number 65
_symmetry_cell_setting 'orthorhombic'
loop_
_space_group_symop_operation_xyz
x,y,z
-x,-y,z
x,-y,-z
-x,y,-z
-x,-y,-z
x,y,-z
-x,y,z
x,-y,z
1/2+x,1/2+y,z
1/2-x,1/2-y,z
1/2+x,1/2-y,-z
1/2-x,1/2+y,-z
1/2-x,1/2-y,-z
1/2+x,1/2+y,-z
1/2-x,1/2+y,z
1/2+x,1/2-y,z
loop_
_atom_site_type_symbol
_atom_site_label
_atom_site_fract_x
_atom_site_fract_y
_atom_site_fract_z
Si Si1 0.584482 0.888273 0.500000
Si Si2 0.285714 0.928118 0.877892
Si Si3 0.915940 0.243209 0.291087
Si Si4 0.582101 0.897973 0.270084
Si Si5 0.809388 0.805836 0.122619
Si Si6 0.836074 0.745126 0.500000
O O1 0.500000 0.864467 0.500000
O O2 0.593424 0.921808 0.388916
O O3 0.638618 0.828738 0.500000
O O4 0.357011 0.921288 0.808023
O O5 0.228801 0.872868 0.850286
O O6 0.256557 0.000000 0.866101
O O7 0.304227 0.918577 0.000000
O O8 0.912926 0.320393 0.275833
O O9 0.877446 0.210111 0.193900
O O10 0.871322 0.227088 0.395281
O O11 0.000000 0.226216 0.302177
O O12 0.500000 0.914529 0.238543
O O13 0.750000 0.750000 0.139988
O O14 0.827428 0.805903 0.000000
O O15 0.750000 0.750000 0.500000
#
# Coordination Sequence:
#
# PCOD9483094 Si02
#       6
#     8  16  16  16  16   8
#     4   8  16  30  45  67 101 136 165 199 239 286
#     4  10  21  35  50  70 100 135 168 207 254 302
#     4  10  19  31  49  76 107 134 165 206 252 299
#     4   9  17  30  49  71 101 136 168 201 244 299
#     4  10  19  33  52  74 100 129 167 214 257 295
#     4  10  18  26  46  76 107 136 162 198 248 297
#
# _framework density 16.098112
#
# number of rings (size 3 to 8) (size 9 to 14) (size 15 to 20)
#    0.000    2.400    2.000    2.700    2.800    1.200 
#    0.000    3.500    0.000    2.400    0.000    2.800 
#    0.000    1.600    0.000    0.000    0.000    0.000 
#
# Total GULP energy -222985.302588 kJ/mol
# GULP energy per Si atom -5574.632565 kJ/mol
# Density = 1.606147 g / cm^3
# Si number density = 16.098112 Si / 1000 Ang^3
#
#
#
# Elastic Constant Matrix: (Units=GPa)
#
#
# Indices 1 2 3 4 5 6 
#
# 1 117.5084 38.7655 65.2399 0.0000 0.0000 0.0000
# 2 38.7655 74.8760 35.0142 0.0000 0.0000 0.0000
# 3 65.2399 35.0142 73.8002 0.0000 0.0000 0.0000
# 4 0.0000 0.0000 0.0000 2.6494 0.0000 0.0000
# 5 0.0000 0.0000 0.0000 0.0000 26.8904 0.0000
# 6 0.0000 0.0000 0.0000 0.0000 0.0000 14.0077
#
#
#
# Elastic Compliance Matrix: (Units=1/GPa)
#
#
# Indices 1 2 3 4 5 6 
#
# 1 0.017010 -0.002281 -0.013955 0.000000 0.000000 0.000000
# 2 -0.002281 0.017469 -0.006272 0.000000 0.000000 0.000000
# 3 -0.013955 -0.006272 0.028862 0.000000 0.000000 0.000000
# 4 0.000000 0.000000 0.000000 0.377451 0.000000 0.000000
# 5 0.000000 0.000000 0.000000 0.000000 0.037188 0.000000
# 6 0.000000 0.000000 0.000000 0.000000 0.000000 0.071390
#
#
# Mechanical properties :
#
#
# Convention : Reuss Voigt Hill
#
# Bulk Modulus (GPa) = 54.56734 60.46932 57.51833
# Shear Modulus (GPa) = 8.32648 17.18715 12.75682
#
# Velocity S-wave (km/s) = 2.27674 3.27104 2.81809
# Velocity P-wave (km/s) = 6.39388 7.20491 6.81148
#
# Compressibility (1/GPa) = 0.01832598
#
# Stress axis : x y z
#
# Youngs Moduli (GPa) = 58.78827 57.24354 34.64760
#
# Poissons Ratio (x) = 0.13057 0.48351
# Poissons Ratio (y) = 0.13409 0.21730
# Poissons Ratio (z) = 0.82039 0.35902
#
# Static dielectric constant tensor:
#      x y z
#    x 1.503420 0.000000 0.000000 
#    y 0.000000 1.557430 0.000000 
#    z 0.000000 0.000000 1.563460 
# 
# From -- ./inp_files/26715.got.cif
#   From: 2010.05.17/outbox.cif.g08.bks.cpg/sg65_14_cif.got.tgz:26715.got - 2010.06.03 17:01:31.
