data_PCOD9483235
_publ_section_title
;
Structure prediction by ZEFSAII (Michael W. Deem and Ramdas Pophale) SiO2 
 PCOD9483235
Probable space group: C M M M
;
_chemical_formula_sum "Si O2"
_cell_formula_units_Z 104
_cell_length_a 24.419132
_cell_length_b 18.885558
_cell_length_c 14.666133
_cell_angle_alpha 90.000000
_cell_angle_beta 90.000000
_cell_angle_gamma 90.000000
_cell_volume 6763.564917
_symmetry_space_group_name_H-M "C M M M"
_symmetry_group_IT_number 65
_symmetry_cell_setting 'orthorhombic'
loop_
_space_group_symop_operation_xyz
x,y,z
-x,-y,z
x,-y,-z
-x,y,-z
-x,-y,-z
x,y,-z
-x,y,z
x,-y,z
1/2+x,1/2+y,z
1/2-x,1/2-y,z
1/2+x,1/2-y,-z
1/2-x,1/2+y,-z
1/2-x,1/2-y,-z
1/2+x,1/2+y,-z
1/2-x,1/2+y,z
1/2+x,1/2-y,z
loop_
_atom_site_type_symbol
_atom_site_label
_atom_site_fract_x
_atom_site_fract_y
_atom_site_fract_z
Si Si1 0.500000 0.913795 0.104279
Si Si2 0.262765 0.418425 0.607599
Si Si3 0.310592 0.714260 0.296631
Si Si4 0.708144 0.084161 0.895848
Si Si5 0.856925 0.653917 0.605441
Si Si6 0.799711 0.193683 0.899444
Si Si7 0.395180 0.914476 0.222546
O O1 0.445621 0.892996 0.158858
O O2 0.500000 0.000000 0.101545
O O3 0.500000 0.888979 0.000000
O O4 0.276556 0.416070 0.500000
O O5 0.265465 0.500000 0.638977
O O6 0.300550 0.363244 0.661573
O O7 0.200349 0.389827 0.614510
O O8 0.250000 0.750000 0.292116
O O9 0.344717 0.766357 0.360995
O O10 0.332139 0.710331 0.192740
O O11 0.766343 0.121049 0.882674
O O12 0.661882 0.108515 0.825345
O O13 0.712918 0.000000 0.888087
O O14 0.690256 0.100570 0.000000
O O15 0.873256 0.651689 0.500000
O O16 0.897465 0.618128 0.677315
O O17 0.750000 0.250000 0.904830
O O18 0.826247 0.192779 0.000000
O O19 0.394542 0.000000 0.227672
#
# Coordination Sequence:
#
# PCOD9483235 Si02
#       7
#     8  16  16  16  16  16  16
#     4   9  18  32  47  63  83 103 125 158 200 244
#     4   9  16  25  38  56  77 104 140 177 205 228
#     4   9  16  26  38  52  74 104 134 166 204 238
#     4   9  16  25  38  56  76  99 130 166 199 231
#     4  10  19  29  40  55  76 103 137 173 203 233
#     4   9  16  24  34  50  72  96 124 159 195 230
#     4  10  18  28  43  60  77 100 130 162 198 237
#
# _framework density 15.376507
#
# number of rings (size 3 to 8) (size 9 to 14) (size 15 to 20)
#    0.000    2.692    0.000    4.154    0.000    6.462 
#    0.000    1.154    0.000    1.385    0.000    0.000 
#    0.000    0.000    0.000    0.692    0.000    7.000 
#
# Total GULP energy -289686.382171 kJ/mol
# GULP energy per Si atom -5570.891965 kJ/mol
# Density = 1.534151 g / cm^3
# Si number density = 15.376507 Si / 1000 Ang^3
#
#
#
# Elastic Constant Matrix: (Units=GPa)
#
#
# Indices 1 2 3 4 5 6 
#
# 1 9.1458 6.8142 20.1935 0.0000 0.0000 0.0000
# 2 6.8142 74.6710 37.6996 0.0000 0.0000 0.0000
# 3 20.1935 37.6996 129.3244 0.0000 0.0000 0.0000
# 4 0.0000 0.0000 0.0000 23.0391 0.0000 0.0000
# 5 0.0000 0.0000 0.0000 0.0000 16.5653 0.0000
# 6 0.0000 0.0000 0.0000 0.0000 0.0000 6.5882
#
#
#
# Elastic Compliance Matrix: (Units=1/GPa)
#
#
# Indices 1 2 3 4 5 6 
#
# 1 0.167247 -0.002436 -0.025405 0.000000 0.000000 0.000000
# 2 -0.002436 0.015739 -0.004208 0.000000 0.000000 0.000000
# 3 -0.025405 -0.004208 0.012926 0.000000 0.000000 0.000000
# 4 0.000000 0.000000 0.000000 0.043404 0.000000 0.000000
# 5 0.000000 0.000000 0.000000 0.000000 0.060367 0.000000
# 6 0.000000 0.000000 0.000000 0.000000 0.000000 0.151787
#
#
# Mechanical properties :
#
#
# Convention : Reuss Voigt Hill
#
# Bulk Modulus (GPa) = 7.58640 38.06173 22.82407
# Shear Modulus (GPa) = 8.93646 19.13412 14.03529
#
# Velocity S-wave (km/s) = 2.41337 3.53139 3.02449
# Velocity P-wave (km/s) = 3.56515 6.43697 5.20312
#
# Compressibility (1/GPa) = 0.13181483
#
# Stress axis : x y z
#
# Youngs Moduli (GPa) = 5.97917 63.53754 77.36380
#
# Poissons Ratio (x) = 0.15478 1.96542
# Poissons Ratio (y) = 0.01457 0.32552
# Poissons Ratio (z) = 0.15190 0.26734
#
# Static dielectric constant tensor:
#      x y z
#    x 1.476550 0.000000 0.000000 
#    y 0.000000 1.553160 0.000000 
#    z 0.000000 0.000000 1.572830 
# 
# From -- ./inp_files/45934.got.cif
#   From: 2010.05.17/outbox.cif.g08.bks.cpg/sg65_23_cif.got.tgz:45934.got - 2010.06.03 17:01:31.
