data_PCOD9483151
_publ_section_title
;
Structure prediction by ZEFSAII (Michael W. Deem and Ramdas Pophale) SiO2 
 PCOD9483151
Probable space group: C M M M
;
_chemical_formula_sum "Si O2"
_cell_formula_units_Z 88
_cell_length_a 14.261709
_cell_length_b 15.318378
_cell_length_c 22.361877
_cell_angle_alpha 90.000000
_cell_angle_beta 90.000000
_cell_angle_gamma 90.000000
_cell_volume 4885.315397
_symmetry_space_group_name_H-M "C M M M"
_symmetry_group_IT_number 65
_symmetry_cell_setting 'orthorhombic'
loop_
_space_group_symop_operation_xyz
x,y,z
-x,-y,z
x,-y,-z
-x,y,-z
-x,-y,-z
x,y,-z
-x,y,z
x,-y,z
1/2+x,1/2+y,z
1/2-x,1/2-y,z
1/2+x,1/2-y,-z
1/2-x,1/2+y,-z
1/2-x,1/2-y,-z
1/2+x,1/2+y,-z
1/2-x,1/2+y,z
1/2+x,1/2-y,z
loop_
_atom_site_type_symbol
_atom_site_label
_atom_site_fract_x
_atom_site_fract_y
_atom_site_fract_z
Si Si1 0.739716 0.598542 0.762267
Si Si2 0.393533 0.834804 0.675470
Si Si3 0.106035 0.873180 0.347093
Si Si4 0.235812 0.355720 0.567275
Si Si5 0.613530 0.599558 0.000000
Si Si6 0.108872 0.892799 0.868263
O O1 0.771180 0.500000 0.776635
O O2 0.826462 0.648522 0.732169
O O3 0.661674 0.593465 0.710242
O O4 0.684162 0.636019 0.819111
O O5 0.500000 0.865368 0.683896
O O6 0.395298 0.731589 0.662359
O O7 0.343311 0.875412 0.616863
O O8 0.167639 0.891993 0.405535
O O9 0.000000 0.903135 0.350665
O O10 0.215013 0.384259 0.500000
O O11 0.250000 0.250000 0.565922
O O12 0.636465 0.637903 0.064912
O O13 0.649839 0.500000 0.000000
O O14 0.500000 0.594622 0.000000
O O15 0.000000 0.867736 0.855237
O O16 0.108839 0.000000 0.868406
#
# Coordination Sequence:
#
# PCOD9483151 Si02
#       6
#    16  16  16  16   8  16
#     4  10  18  27  42  64  87 109 136 170 205 242
#     4   9  18  31  44  59  81 110 143 174 204 240
#     4   9  17  29  44  62  85 110 134 164 205 253
#     4   8  14  25  42  64  84 100 127 171 215 249
#     4   7  10  18  32  52  82 113 133 155 195 246
#     4   8  13  21  35  58  86 111 133 161 202 248
#
# _framework density 18.013165999999998
#
# number of rings (size 3 to 8) (size 9 to 14) (size 15 to 20)
#    0.000    3.364    0.000    3.273    0.000    2.182 
#    0.000    3.636    0.000    8.727    0.000   13.364 
#    0.000    6.545    0.000    0.000    0.000    0.000 
#
# Total GULP energy -244936.145407 kJ/mol
# GULP energy per Si atom -5566.730577 kJ/mol
# Density = 1.797217 g / cm^3
# Si number density = 18.013166 Si / 1000 Ang^3
#
#
#
# Elastic Constant Matrix: (Units=GPa)
#
#
# Indices 1 2 3 4 5 6 
#
# 1 139.7765 17.5505 72.6214 0.0000 0.0000 0.0000
# 2 17.5505 24.8612 6.4737 0.0000 0.0000 0.0000
# 3 72.6214 6.4737 151.2346 0.0000 0.0000 0.0000
# 4 0.0000 0.0000 0.0000 12.2122 0.0000 0.0000
# 5 0.0000 0.0000 0.0000 0.0000 18.9163 0.0000
# 6 0.0000 0.0000 0.0000 0.0000 0.0000 4.9120
#
#
#
# Elastic Compliance Matrix: (Units=1/GPa)
#
#
# Indices 1 2 3 4 5 6 
#
# 1 0.010371 -0.006093 -0.004719 0.000000 0.000000 0.000000
# 2 -0.006093 0.044256 0.001031 0.000000 0.000000 0.000000
# 3 -0.004719 0.001031 0.008834 0.000000 0.000000 0.000000
# 4 0.000000 0.000000 0.000000 0.081885 0.000000 0.000000
# 5 0.000000 0.000000 0.000000 0.000000 0.052865 0.000000
# 6 0.000000 0.000000 0.000000 0.000000 0.000000 0.203583
#
#
# Mechanical properties :
#
#
# Convention : Reuss Voigt Hill
#
# Bulk Modulus (GPa) = 22.77911 56.57371 39.67641
# Shear Modulus (GPa) = 11.46818 21.82321 16.64570
#
# Velocity S-wave (km/s) = 2.52594 3.48446 3.04317
# Velocity P-wave (km/s) = 4.60222 6.90389 5.86703
#
# Compressibility (1/GPa) = 0.04389987
#
# Stress axis : x y z
#
# Youngs Moduli (GPa) = 96.42055 22.59589 113.19521
#
# Poissons Ratio (x) = 0.13767 0.53421
# Poissons Ratio (y) = 0.58745 -0.11673
# Poissons Ratio (z) = 0.45504 -0.02330
#
# Static dielectric constant tensor:
#      x y z
#    x 1.607920 0.000000 0.000000 
#    y 0.000000 1.694790 0.000000 
#    z 0.000000 0.000000 1.638150 
# 
# From -- ./inp_files/62784.got.cif
#   From: 2010.05.17/outbox.cif.g08.bks.cpg/sg65_32_cif.got.tgz:62784.got - 2010.06.03 17:01:31.
