data_PCOD9483700
_publ_section_title
;
Structure prediction by ZEFSAII (Michael W. Deem and Ramdas Pophale) SiO2 
 PCOD9483700
Probable space group: C M M M
;
_chemical_formula_sum "Si O2"
_cell_formula_units_Z 88
_cell_length_a 23.905374
_cell_length_b 16.821198
_cell_length_c 16.050746
_cell_angle_alpha 90.000000
_cell_angle_beta 90.000000
_cell_angle_gamma 90.000000
_cell_volume 6454.278300
_symmetry_space_group_name_H-M "C M M M"
_symmetry_group_IT_number 65
_symmetry_cell_setting 'orthorhombic'
loop_
_space_group_symop_operation_xyz
x,y,z
-x,-y,z
x,-y,-z
-x,y,-z
-x,-y,-z
x,y,-z
-x,y,z
x,-y,z
1/2+x,1/2+y,z
1/2-x,1/2-y,z
1/2+x,1/2-y,-z
1/2-x,1/2+y,-z
1/2-x,1/2-y,-z
1/2+x,1/2+y,-z
1/2-x,1/2+y,z
1/2+x,1/2-y,z
loop_
_atom_site_type_symbol
_atom_site_label
_atom_site_fract_x
_atom_site_fract_y
_atom_site_fract_z
Si Si1 0.138675 0.348969 0.100213
Si Si2 0.935248 0.096373 0.500000
Si Si3 0.064141 0.500000 0.101190
Si Si4 0.124724 0.173061 0.159229
Si Si5 0.734632 0.594649 0.901515
Si Si6 0.067649 0.094450 0.316428
Si Si7 0.567060 0.407271 0.000000
O O1 0.097957 0.420991 0.125337
O O2 0.125000 0.267361 0.146121
O O3 0.202713 0.375170 0.114827
O O4 0.132804 0.336402 0.000000
O O5 0.912205 0.119037 0.590593
O O6 0.000000 0.122141 0.500000
O O7 0.935685 0.000000 0.500000
O O8 0.000000 0.500000 0.129746
O O9 0.063759 0.500000 0.000000
O O10 0.187799 0.140272 0.150281
O O11 0.096654 0.143880 0.244075
O O12 0.091116 0.133987 0.082182
O O13 0.731616 0.500000 0.887788
O O14 0.723129 0.609148 0.000000
O O15 0.000000 0.103141 0.312987
O O16 0.078945 0.000000 0.304739
O O17 0.583937 0.500000 0.000000
O O18 0.500000 0.402899 0.000000
#
# Coordination Sequence:
#
# PCOD9483700 Si02
#       7
#    16   8   8  16  16  16   8
#     4  10  19  33  44  62  84 115 156 198 228 260
#     4   7  12  26  46  62  81 115 149 183 222 259
#     4   9  18  32  48  60  78 113 155 201 240 264
#     4  12  20  28  43  66  89 119 153 183 222 266
#     4  10  18  30  47  60  83 116 159 195 225 256
#     4   9  17  29  44  64  91 119 150 183 220 265
#     4  11  22  32  37  53  93 131 150 167 204 263
#
# _framework density 13.634368
#
# number of rings (size 3 to 8) (size 9 to 14) (size 15 to 20)
#    0.000    2.091    2.727    3.818    0.000    4.364 
#    0.000    0.000    0.000    0.000    0.000    2.545 
#    0.000    0.727    0.000    4.091    0.000    0.000 
#
# Total GULP energy -245295.594263 kJ/mol
# GULP energy per Si atom -5574.899870 kJ/mol
# Density = 1.360334 g / cm^3
# Si number density = 13.634368 Si / 1000 Ang^3
#
#
#
# Elastic Constant Matrix: (Units=GPa)
#
#
# Indices 1 2 3 4 5 6 
#
# 1 76.3494 51.4372 41.2695 0.0000 0.0000 0.0000
# 2 51.4372 108.8755 52.7884 0.0000 0.0000 0.0000
# 3 41.2695 52.7884 95.1640 0.0000 0.0000 0.0000
# 4 0.0000 0.0000 0.0000 9.9541 0.0000 0.0000
# 5 0.0000 0.0000 0.0000 0.0000 9.0812 0.0000
# 6 0.0000 0.0000 0.0000 0.0000 0.0000 7.4360
#
#
#
# Elastic Compliance Matrix: (Units=1/GPa)
#
#
# Indices 1 2 3 4 5 6 
#
# 1 0.020740 -0.007438 -0.004868 0.000000 0.000000 0.000000
# 2 -0.007438 0.015231 -0.005223 0.000000 0.000000 0.000000
# 3 -0.004868 -0.005223 0.015517 0.000000 0.000000 0.000000
# 4 0.000000 0.000000 0.000000 0.100461 0.000000 0.000000
# 5 0.000000 0.000000 0.000000 0.000000 0.110118 0.000000
# 6 0.000000 0.000000 0.000000 0.000000 0.000000 0.134482
#
#
# Mechanical properties :
#
#
# Convention : Reuss Voigt Hill
#
# Bulk Modulus (GPa) = 60.86836 63.48656 62.17746
# Shear Modulus (GPa) = 11.43942 14.28717 12.86330
#
# Velocity S-wave (km/s) = 2.89972 3.24061 3.07489
# Velocity P-wave (km/s) = 7.48007 7.78889 7.63604
#
# Compressibility (1/GPa) = 0.01642890
#
# Stress axis : x y z
#
# Youngs Moduli (GPa) = 48.21521 65.65371 64.44594
#
# Poissons Ratio (x) = 0.48834 0.31375
# Poissons Ratio (y) = 0.35863 0.33662
# Poissons Ratio (z) = 0.23473 0.34293
#
# Static dielectric constant tensor:
#      x y z
#    x 1.452240 0.000000 0.000000 
#    y 0.000000 1.439150 0.000000 
#    z 0.000000 0.000000 1.435730 
# 
# From -- ./inp_files/45632.got.cif
#   From: 2010.05.17/outbox.cif.g08.bks.cpg/sg65_23_cif.got.tgz:45632.got - 2010.06.03 17:01:31.
