data_PCOD9483541
_publ_section_title
;
Structure prediction by ZEFSAII (Michael W. Deem and Ramdas Pophale) SiO2 
 PCOD9483541
Probable space group: C M M M
;
_chemical_formula_sum "Si O2"
_cell_formula_units_Z 88
_cell_length_a 18.552507
_cell_length_b 29.753509
_cell_length_c 7.599448
_cell_angle_alpha 90.000000
_cell_angle_beta 90.000000
_cell_angle_gamma 90.000000
_cell_volume 4194.911893
_symmetry_space_group_name_H-M "C M M M"
_symmetry_group_IT_number 65
_symmetry_cell_setting 'orthorhombic'
loop_
_space_group_symop_operation_xyz
x,y,z
-x,-y,z
x,-y,-z
-x,y,-z
-x,-y,-z
x,y,-z
-x,y,z
x,-y,z
1/2+x,1/2+y,z
1/2-x,1/2-y,z
1/2+x,1/2-y,-z
1/2-x,1/2+y,-z
1/2-x,1/2-y,-z
1/2+x,1/2+y,-z
1/2-x,1/2+y,z
1/2+x,1/2-y,z
loop_
_atom_site_type_symbol
_atom_site_label
_atom_site_fract_x
_atom_site_fract_y
_atom_site_fract_z
Si Si1 0.912559 0.297372 0.202939
Si Si2 0.218862 0.448322 0.716012
Si Si3 0.641588 0.604942 0.289569
Si Si4 0.080896 0.396955 0.704914
Si Si5 0.582701 0.700325 0.788314
Si Si6 0.500000 0.447955 0.715510
O O1 0.894265 0.344887 0.287793
O O2 0.889675 0.248925 0.277297
O O3 0.000000 0.294697 0.207142
O O4 0.889503 0.300560 0.000000
O O5 0.218070 0.447044 0.500000
O O6 0.229235 0.500000 0.766718
O O7 0.285031 0.417361 0.776179
O O8 0.142921 0.428425 0.780047
O O9 0.641856 0.599500 0.500000
O O10 0.630686 0.657449 0.253219
O O11 0.571290 0.578145 0.223720
O O12 0.074458 0.408929 0.500000
O O13 0.000000 0.399978 0.782655
O O14 0.500000 0.692402 0.725151
O O15 0.578860 0.704455 0.000000
O O16 0.500000 0.500000 0.768317
O O17 0.500000 0.447254 0.500000
#
# Coordination Sequence:
#
# PCOD9483541 Si02
#       6
#    16  16  16  16  16   8
#     4   8  15  29  49  71  95 126 159 190 233 287
#     4   9  18  32  49  70  98 128 156 194 244 287
#     4  10  18  29  47  71  95 124 163 201 234 272
#     4   9  17  30  50  75  97 120 156 199 239 282
#     4   9  17  30  48  70  98 130 160 193 236 283
#     4   9  16  26  43  67  91 117 157 201 232 267
#
# _framework density 20.977795
#
# number of rings (size 3 to 8) (size 9 to 14) (size 15 to 20)
#    0.000    3.000    0.909    1.636    0.000    3.273 
#    0.000    5.455    0.000    9.818    0.000    2.545 
#    0.000    0.000    0.000    0.000    0.000    0.000 
#
# Total GULP energy -245337.056858 kJ/mol
# GULP energy per Si atom -5575.842201 kJ/mol
# Density = 2.093005 g / cm^3
# Si number density = 20.977795 Si / 1000 Ang^3
#
#
#
# Elastic Constant Matrix: (Units=GPa)
#
#
# Indices 1 2 3 4 5 6 
#
# 1 95.9525 38.9857 7.8668 0.0000 0.0000 0.0000
# 2 38.9857 48.1458 -4.7585 0.0000 0.0000 0.0000
# 3 7.8668 -4.7585 41.3493 0.0000 0.0000 0.0000
# 4 0.0000 0.0000 0.0000 34.2719 0.0000 0.0000
# 5 0.0000 0.0000 0.0000 0.0000 -0.5846 0.0000
# 6 0.0000 0.0000 0.0000 0.0000 0.0000 25.7691
#
#
#
# Elastic Compliance Matrix: (Units=1/GPa)
#
#
# Indices 1 2 3 4 5 6 
#
# 1 0.016387 -0.013734 -0.004698 0.000000 0.000000 0.000000
# 2 -0.013734 0.032519 0.006355 0.000000 0.000000 0.000000
# 3 -0.004698 0.006355 0.025809 0.000000 0.000000 0.000000
# 4 0.000000 0.000000 0.000000 0.029178 0.000000 0.000000
# 5 0.000000 0.000000 0.000000 0.000000 -1.710479 0.000000
# 6 0.000000 0.000000 0.000000 0.000000 0.000000 0.038806
#
#
# Mechanical properties :
#
#
# Convention : Reuss Voigt Hill
#
# Bulk Modulus (GPa) = 19.77756 29.95950 24.86853
# Shear Modulus (GPa) = -3.27488 21.44818 9.08665
#
# Velocity S-wave (km/s) = -1.25080 3.20100 2.08350
# Velocity P-wave (km/s) = 2.71336 5.28909 4.20338
#
# Compressibility (1/GPa) = 0.05056236
#
# Stress axis : x y z
#
# Youngs Moduli (GPa) = 61.02400 30.75118 38.74554
#
# Poissons Ratio (x) = 0.42232 0.18203
# Poissons Ratio (y) = 0.83808 -0.24623
# Poissons Ratio (z) = 0.28670 -0.19543
#
# Static dielectric constant tensor:
#      x y z
#    x 1.745740 0.000000 0.000000 
#    y 0.000000 1.750580 0.000000 
#    z 0.000000 0.000000 1.775230 
# 
# From -- ./inp_files/10065.got.cif
#   From: 2010.05.17/outbox.cif.g08.bks.cpg/sg65_6_cif.got.tgz:10065.got - 2010.06.03 17:01:31.
