data_PCOD9483213
_publ_section_title
;
Structure prediction by ZEFSAII (Michael W. Deem and Ramdas Pophale) SiO2 
 PCOD9483213
Probable space group: C M M M
;
_chemical_formula_sum "Si O2"
_cell_formula_units_Z 104
_cell_length_a 7.286128
_cell_length_b 35.669725
_cell_length_c 16.903014
_cell_angle_alpha 90.000000
_cell_angle_beta 90.000000
_cell_angle_gamma 90.000000
_cell_volume 4392.994998
_symmetry_space_group_name_H-M "C M M M"
_symmetry_group_IT_number 65
_symmetry_cell_setting 'orthorhombic'
loop_
_space_group_symop_operation_xyz
x,y,z
-x,-y,z
x,-y,-z
-x,y,-z
-x,-y,-z
x,y,-z
-x,y,z
x,-y,z
1/2+x,1/2+y,z
1/2-x,1/2-y,z
1/2+x,1/2-y,-z
1/2-x,1/2+y,-z
1/2-x,1/2-y,-z
1/2+x,1/2+y,-z
1/2-x,1/2+y,z
1/2+x,1/2-y,z
loop_
_atom_site_type_symbol
_atom_site_label
_atom_site_fract_x
_atom_site_fract_y
_atom_site_fract_z
Si Si1 0.276943 0.905026 0.910149
Si Si2 0.722865 0.042323 0.764324
Si Si3 0.223267 0.348306 0.365913
Si Si4 0.723375 0.817531 0.085823
Si Si5 0.717497 0.206528 0.500000
Si Si6 0.718572 0.790792 0.245609
Si Si7 0.776441 0.431930 0.410474
O O1 0.500000 0.906616 0.909542
O O2 0.216203 0.929049 0.833514
O O3 0.226206 0.861265 0.902409
O O4 0.221607 0.917315 0.000000
O O5 0.500000 0.045256 0.762152
O O6 0.781083 0.048903 0.672523
O O7 0.771641 0.000000 0.787014
O O8 0.285061 0.315916 0.425025
O O9 0.283205 0.329819 0.284220
O O10 0.280688 0.388734 0.396029
O O11 0.000000 0.350849 0.364947
O O12 0.500000 0.817079 0.086031
O O13 0.789337 0.791952 0.156843
O O14 0.786099 0.805228 0.000000
O O15 0.500000 0.201395 0.500000
O O16 0.750000 0.250000 0.500000
O O17 0.500000 0.794046 0.246027
O O18 0.750000 0.750000 0.283999
O O19 0.718364 0.443911 0.500000
O O20 0.000000 0.434120 0.412133
#
# Coordination Sequence:
#
# PCOD9483213 Si02
#       7
#    16  16  16  16   8  16  16
#     4   8  13  22  35  49  67  94 129 168 205 240
#     4   9  16  22  29  46  71  98 130 168 207 244
#     4   9  16  27  41  56  73  97 132 170 202 240
#     4   8  14  25  40  56  73  97 133 174 208 240
#     4  10  18  28  42  60  81 103 131 169 208 244
#     4  10  19  29  42  60  82 107 136 173 215 253
#     4   9  15  24  37  50  67  95 132 170 204 240
#
# _framework density 23.674054000000002
#
# number of rings (size 3 to 8) (size 9 to 14) (size 15 to 20)
#    0.000    3.077    0.769    2.308    0.000    4.615 
#    0.000    3.077    0.000    0.000    0.000    0.000 
#    0.000    0.000    0.000    0.000    0.000   20.000 
#
# Total GULP energy -289902.770375 kJ/mol
# GULP energy per Si atom -5575.053276 kJ/mol
# Density = 2.362017 g / cm^3
# Si number density = 23.674054 Si / 1000 Ang^3
#
#
#
# Elastic Constant Matrix: (Units=GPa)
#
#
# Indices 1 2 3 4 5 6 
#
# 1 98.1764 -7.8780 -0.3169 0.0000 0.0000 0.0000
# 2 -7.8780 43.4821 16.1517 0.0000 0.0000 0.0000
# 3 -0.3169 16.1517 128.1084 0.0000 0.0000 0.0000
# 4 0.0000 0.0000 0.0000 28.9520 0.0000 0.0000
# 5 0.0000 0.0000 0.0000 0.0000 -19.7311 0.0000
# 6 0.0000 0.0000 0.0000 0.0000 0.0000 -4.0378
#
#
#
# Elastic Compliance Matrix: (Units=1/GPa)
#
#
# Indices 1 2 3 4 5 6 
#
# 1 0.010342 0.001956 -0.000221 0.000000 0.000000 0.000000
# 2 0.001956 0.024498 -0.003084 0.000000 0.000000 0.000000
# 3 -0.000221 -0.003084 0.008194 0.000000 0.000000 0.000000
# 4 0.000000 0.000000 0.000000 0.034540 0.000000 0.000000
# 5 0.000000 0.000000 0.000000 0.000000 -0.050682 0.000000
# 6 0.000000 0.000000 0.000000 0.000000 0.000000 -0.247662
#
#
# Mechanical properties :
#
#
# Convention : Reuss Voigt Hill
#
# Bulk Modulus (GPa) = 24.79177 31.74229 28.26703
# Shear Modulus (GPa) = -24.43483 18.49063 -2.97210
#
# Velocity S-wave (km/s) = -3.21617 2.79776 -1.12167
# Velocity P-wave (km/s) = 1.81571 4.88608 3.20757
#
# Compressibility (1/GPa) = 0.04033597
#
# Stress axis : x y z
#
# Youngs Moduli (GPa) = 96.69331 40.81998 122.03833
#
# Poissons Ratio (x) = -0.07984 0.02697
# Poissons Ratio (y) = -0.18912 0.37634
# Poissons Ratio (z) = 0.02137 0.12588
#
# Static dielectric constant tensor:
#      x y z
#    x 1.901800 0.000000 0.000000 
#    y 0.000000 1.789790 0.000000 
#    z 0.000000 0.000000 2.001030 
# 
# From -- ./inp_files/52138.got.cif
#   From: 2010.05.17/outbox.cif.g08.bks.cpg/sg65_27_cif.got.tgz:52138.got - 2010.06.03 17:01:31.
