data_PCOD9483107
_publ_section_title
;
Structure prediction by ZEFSAII (Michael W. Deem and Ramdas Pophale) SiO2 
 PCOD9483107
Probable space group: C M M M
;
_chemical_formula_sum "Si O2"
_cell_formula_units_Z 88
_cell_length_a 31.123264
_cell_length_b 27.687734
_cell_length_c 8.084780
_cell_angle_alpha 90.000000
_cell_angle_beta 90.000000
_cell_angle_gamma 90.000000
_cell_volume 6966.918933
_symmetry_space_group_name_H-M "C M M M"
_symmetry_group_IT_number 65
_symmetry_cell_setting 'orthorhombic'
loop_
_space_group_symop_operation_xyz
x,y,z
-x,-y,z
x,-y,-z
-x,y,-z
-x,-y,-z
x,y,-z
-x,y,z
x,-y,z
1/2+x,1/2+y,z
1/2-x,1/2-y,z
1/2+x,1/2-y,-z
1/2-x,1/2+y,-z
1/2-x,1/2-y,-z
1/2+x,1/2+y,-z
1/2-x,1/2+y,z
1/2+x,1/2-y,z
loop_
_atom_site_type_symbol
_atom_site_label
_atom_site_fract_x
_atom_site_fract_y
_atom_site_fract_z
Si Si1 0.366880 0.753283 0.317166
Si Si2 0.681386 0.724430 0.000000
Si Si3 0.548948 0.198662 0.195074
Si Si4 0.450497 0.000000 0.801558
Si Si5 0.819280 0.357656 0.688943
Si Si6 0.730962 0.171663 0.000000
Si Si7 0.409207 0.100363 0.303843
O O1 0.361293 0.731850 0.500000
O O2 0.347435 0.723480 0.165036
O O3 0.416171 0.768102 0.285531
O O4 0.341411 0.804521 0.315763
O O5 0.705284 0.776909 0.000000
O O6 0.719075 0.685173 0.000000
O O7 0.500000 0.204180 0.252885
O O8 0.564109 0.143248 0.218539
O O9 0.550960 0.209522 0.000000
O O10 0.427146 0.048286 0.741210
O O11 0.500000 0.000000 0.743739
O O12 0.450495 0.000000 0.000000
O O13 0.804664 0.367919 0.500000
O O14 0.784174 0.355377 0.833276
O O15 0.858814 0.392710 0.736152
O O16 0.413029 0.108483 0.500000
#
# Coordination Sequence:
#
# PCOD9483107 Si02
#       7
#    16   8  16   8  16   8  16
#     4   9  16  26  38  51  72  94 111 138 169 202
#     4   9  16  26  35  56  72  86 111 128 164 210
#     4  10  18  27  40  55  70  91 121 151 175 210
#     4  11  23  33  41  55  71  91 119 149 185 227
#     4   8  16  27  39  56  69  85 113 136 165 210
#     4   9  16  24  42  53  69  92 102 131 167 203
#     4  10  20  31  42  54  70  90 113 147 184 220
#
# _framework density 12.631121
#
# number of rings (size 3 to 8) (size 9 to 14) (size 15 to 20)
#    0.000    2.636    0.909    3.000    5.091    5.091 
#    0.000    3.636    0.000    0.000    0.000    0.000 
#    0.000    0.000    0.000    0.000    0.000    0.000 
#
# Total GULP energy -245080.893319 kJ/mol
# GULP energy per Si atom -5570.020303 kJ/mol
# Density = 1.260237 g / cm^3
# Si number density = 12.631121 Si / 1000 Ang^3
#
#
#
# Elastic Constant Matrix: (Units=GPa)
#
#
# Indices 1 2 3 4 5 6 
#
# 1 82.0892 30.5029 54.0980 0.0000 0.0000 0.0000
# 2 30.5029 21.6389 22.1165 0.0000 0.0000 0.0000
# 3 54.0980 22.1165 84.4041 0.0000 0.0000 0.0000
# 4 0.0000 0.0000 0.0000 5.7039 0.0000 0.0000
# 5 0.0000 0.0000 0.0000 0.0000 2.5645 0.0000
# 6 0.0000 0.0000 0.0000 0.0000 0.0000 9.1245
#
#
#
# Elastic Compliance Matrix: (Units=1/GPa)
#
#
# Indices 1 2 3 4 5 6 
#
# 1 0.032691 -0.033689 -0.012125 0.000000 0.000000 0.000000
# 2 -0.033689 0.097835 -0.004043 0.000000 0.000000 0.000000
# 3 -0.012125 -0.004043 0.020679 0.000000 0.000000 0.000000
# 4 0.000000 0.000000 0.000000 0.175319 0.000000 0.000000
# 5 0.000000 0.000000 0.000000 0.000000 0.389940 0.000000
# 6 0.000000 0.000000 0.000000 0.000000 0.000000 0.109595
#
#
# Mechanical properties :
#
#
# Convention : Reuss Voigt Hill
#
# Bulk Modulus (GPa) = 19.42149 44.61855 32.02002
# Shear Modulus (GPa) = 5.30258 8.90623 7.10440
#
# Velocity S-wave (km/s) = 2.05113 2.65826 2.37418
# Velocity P-wave (km/s) = 4.58463 6.69498 5.73766
#
# Compressibility (1/GPa) = 0.05148936
#
# Stress axis : x y z
#
# Youngs Moduli (GPa) = 30.58940 10.22133 48.35883
#
# Poissons Ratio (x) = 0.34435 0.58637
# Poissons Ratio (y) = 1.03054 0.19550
# Poissons Ratio (z) = 0.37091 0.04132
#
# Static dielectric constant tensor:
#      x y z
#    x 1.416370 0.000000 0.000000 
#    y 0.000000 1.371020 0.000000 
#    z 0.000000 0.000000 1.449500 
# 
# From -- ./inp_files/17177.got.cif
#   From: 2010.05.17/outbox.cif.g08.bks.cpg/sg65_9_cif.got.tgz:17177.got - 2010.06.03 17:01:31.
