data_PCOD9483147
_publ_section_title
;
Structure prediction by ZEFSAII (Michael W. Deem and Ramdas Pophale) SiO2 
 PCOD9483147
Probable space group: C M M M
;
_chemical_formula_sum "Si O2"
_cell_formula_units_Z 72
_cell_length_a 35.037190
_cell_length_b 14.947972
_cell_length_c 7.534917
_cell_angle_alpha 90.000000
_cell_angle_beta 90.000000
_cell_angle_gamma 90.000000
_cell_volume 3946.299266
_symmetry_space_group_name_H-M "C M M M"
_symmetry_group_IT_number 65
_symmetry_cell_setting 'orthorhombic'
loop_
_space_group_symop_operation_xyz
x,y,z
-x,-y,z
x,-y,-z
-x,y,-z
-x,-y,-z
x,y,-z
-x,y,z
x,-y,z
1/2+x,1/2+y,z
1/2-x,1/2-y,z
1/2+x,1/2-y,-z
1/2-x,1/2+y,-z
1/2-x,1/2-y,-z
1/2+x,1/2+y,-z
1/2-x,1/2+y,z
1/2+x,1/2-y,z
loop_
_atom_site_type_symbol
_atom_site_label
_atom_site_fract_x
_atom_site_fract_y
_atom_site_fract_z
Si Si1 0.719441 0.602336 0.789739
Si Si2 0.193017 0.601578 0.285738
Si Si3 0.500000 0.391503 0.704245
Si Si4 0.083807 0.103395 0.281671
Si Si5 0.348974 0.729111 0.295753
O O1 0.714737 0.500000 0.724878
O O2 0.763429 0.627695 0.758432
O O3 0.688870 0.668003 0.706122
O O4 0.712640 0.603273 0.000000
O O5 0.190571 0.600587 0.500000
O O6 0.186886 0.500000 0.221923
O O7 0.163773 0.675982 0.216627
O O8 0.500000 0.500000 0.701313
O O9 0.500000 0.360139 0.500000
O O10 0.541422 0.367865 0.779695
O O11 0.083432 0.102611 0.500000
O O12 0.116697 0.170173 0.219051
O O13 0.091025 0.000000 0.229130
O O14 0.359845 0.746431 0.500000
#
# Coordination Sequence:
#
# PCOD9483147 Si02
#       5
#    16  16   8  16  16
#     4  10  20  31  42  58  81 107 132 161 200 242
#     4   9  18  31  43  55  75 105 139 171 201 233
#     4   7  10  18  32  52  80 106 122 145 187 233
#     4   8  13  21  35  57  82 103 124 154 192 233
#     4  10  18  27  42  62  80 102 134 169 201 231
#
# _framework density 18.244942000000002
#
# number of rings (size 3 to 8) (size 9 to 14) (size 15 to 20)
#    0.000    3.000    0.000    3.333    0.000    5.778 
#    0.000    0.000    0.000    0.000    0.000    1.556 
#    0.000   10.667    0.000    0.000    0.000   12.778 
#
# Total GULP energy -200681.821354 kJ/mol
# GULP energy per Si atom -5574.495038 kJ/mol
# Density = 1.820342 g / cm^3
# Si number density = 18.244942 Si / 1000 Ang^3
#
#
#
# Elastic Constant Matrix: (Units=GPa)
#
#
# Indices 1 2 3 4 5 6 
#
# 1 139.8382 89.6810 -1.5579 0.0000 0.0000 0.0000
# 2 89.6810 88.1589 -0.1903 0.0000 0.0000 0.0000
# 3 -1.5579 -0.1903 48.0694 0.0000 0.0000 0.0000
# 4 0.0000 0.0000 0.0000 -1.4118 0.0000 0.0000
# 5 0.0000 0.0000 0.0000 0.0000 -40.2883 0.0000
# 6 0.0000 0.0000 0.0000 0.0000 0.0000 26.2856
#
#
#
# Elastic Compliance Matrix: (Units=1/GPa)
#
#
# Indices 1 2 3 4 5 6 
#
# 1 0.020589 -0.020943 0.000584 0.000000 0.000000 0.000000
# 2 -0.020943 0.032647 -0.000550 0.000000 0.000000 0.000000
# 3 0.000584 -0.000550 0.020820 0.000000 0.000000 0.000000
# 4 0.000000 0.000000 0.000000 -0.708319 0.000000 0.000000
# 5 0.000000 0.000000 0.000000 0.000000 -0.024821 0.000000
# 6 0.000000 0.000000 0.000000 0.000000 0.000000 0.038044
#
#
# Mechanical properties :
#
#
# Convention : Reuss Voigt Hill
#
# Bulk Modulus (GPa) = 31.01829 50.21467 40.61648
# Shear Modulus (GPa) = -8.79540 9.45936 0.33198
#
# Velocity S-wave (km/s) = -2.19800 2.27945 0.42702
# Velocity P-wave (km/s) = 3.25520 5.87453 4.74903
#
# Compressibility (1/GPa) = 0.03223904
#
# Stress axis : x y z
#
# Youngs Moduli (GPa) = 48.57004 30.63106 48.03073
#
# Poissons Ratio (x) = 0.64151 -0.02807
# Poissons Ratio (y) = 1.01720 0.02640
# Poissons Ratio (z) = -0.02838 0.01683
#
# Static dielectric constant tensor:
#      x y z
#    x 1.632540 0.000000 0.000000 
#    y 0.000000 1.638340 0.000000 
#    z 0.000000 0.000000 1.673640 
# 
# From -- ./inp_files/18016.got.cif
#   From: 2010.05.17/outbox.cif.g08.bks.cpg/sg65_10_cif.got.tgz:18016.got - 2010.06.03 17:01:31.
