data_PCOD9483762
_publ_section_title
;
Structure prediction by ZEFSAII (Michael W. Deem and Ramdas Pophale) SiO2 
 PCOD9483762
Probable space group: C M M M
;
_chemical_formula_sum "Si O2"
_cell_formula_units_Z 104
_cell_length_a 28.060772
_cell_length_b 8.004907
_cell_length_c 24.670149
_cell_angle_alpha 90.000000
_cell_angle_beta 90.000000
_cell_angle_gamma 90.000000
_cell_volume 5541.504347
_symmetry_space_group_name_H-M "C M M M"
_symmetry_group_IT_number 65
_symmetry_cell_setting 'orthorhombic'
loop_
_space_group_symop_operation_xyz
x,y,z
-x,-y,z
x,-y,-z
-x,y,-z
-x,-y,-z
x,y,-z
-x,y,z
x,-y,z
1/2+x,1/2+y,z
1/2-x,1/2-y,z
1/2+x,1/2-y,-z
1/2-x,1/2+y,-z
1/2-x,1/2-y,-z
1/2+x,1/2+y,-z
1/2-x,1/2+y,z
1/2+x,1/2-y,z
loop_
_atom_site_type_symbol
_atom_site_label
_atom_site_fract_x
_atom_site_fract_y
_atom_site_fract_z
Si Si1 0.697866 0.799161 0.231284
Si Si2 0.555142 0.796151 0.060927
Si Si3 0.597026 0.809269 0.617882
Si Si4 0.000000 0.197244 0.560306
Si Si5 0.554864 0.697661 0.275275
Si Si6 0.105074 0.702166 0.831297
Si Si7 0.697348 0.202197 0.356341
O O1 0.750000 0.750000 0.211148
O O2 0.655600 0.738274 0.192584
O O3 0.693937 0.737012 0.293575
O O4 0.694804 0.000000 0.233558
O O5 0.500000 0.747842 0.070977
O O6 0.588852 0.738306 0.109600
O O7 0.555951 0.000000 0.060994
O O8 0.568301 0.742142 0.000000
O O9 0.549466 0.738239 0.590546
O O10 0.587101 0.796861 0.682354
O O11 0.650357 0.735721 0.611640
O O12 0.599147 0.000000 0.600016
O O13 0.000000 0.273629 0.500000
O O14 0.000000 0.000000 0.555722
O O15 0.500000 0.737649 0.286625
O O16 0.562021 0.500000 0.284149
O O17 0.567330 0.743339 0.214083
O O18 0.106037 0.500000 0.832771
O O19 0.750000 0.250000 0.376564
O O20 0.694778 0.000000 0.355468
#
# Coordination Sequence:
#
# PCOD9483762 Si02
#       7
#    16  16  16   8  16  16  16
#     4   9  17  29  43  65  96 128 165 203 251 309
#     4   8  14  25  43  68  93 119 158 208 258 306
#     4  11  21  36  58  82 110 143 183 224 261 309
#     4  11  25  43  61  85 117 151 186 221 262 311
#     4  11  22  32  45  72 108 139 168 205 259 318
#     4  10  18  30  48  69  95 128 167 211 258 311
#     4   9  18  32  50  77 108 140 177 218 264 318
#
# _framework density 18.767467
#
# number of rings (size 3 to 8) (size 9 to 14) (size 15 to 20)
#    0.000    2.231    2.308    2.077    0.000    4.000 
#    0.000    0.000    0.000    1.385    0.000    2.154 
#    0.000    0.000    0.000    0.000    0.000    0.000 
#
# Total GULP energy -289882.682857 kJ/mol
# GULP energy per Si atom -5574.666978 kJ/mol
# Density = 1.872475 g / cm^3
# Si number density = 18.767467 Si / 1000 Ang^3
#
#
#
# Elastic Constant Matrix: (Units=GPa)
#
#
# Indices 1 2 3 4 5 6 
#
# 1 156.5972 19.7508 45.2525 0.0000 0.0000 0.0000
# 2 19.7508 11.4696 1.5527 0.0000 0.0000 0.0000
# 3 45.2525 1.5527 65.7012 0.0000 0.0000 0.0000
# 4 0.0000 0.0000 0.0000 8.4966 0.0000 0.0000
# 5 0.0000 0.0000 0.0000 0.0000 8.3089 0.0000
# 6 0.0000 0.0000 0.0000 0.0000 0.0000 20.4127
#
#
#
# Elastic Compliance Matrix: (Units=1/GPa)
#
#
# Indices 1 2 3 4 5 6 
#
# 1 0.010537 -0.017218 -0.006851 0.000000 0.000000 0.000000
# 2 -0.017218 0.115601 0.009127 0.000000 0.000000 0.000000
# 3 -0.006851 0.009127 0.019723 0.000000 0.000000 0.000000
# 4 0.000000 0.000000 0.000000 0.117694 0.000000 0.000000
# 5 0.000000 0.000000 0.000000 0.000000 0.120353 0.000000
# 6 0.000000 0.000000 0.000000 0.000000 0.000000 0.048989
#
#
# Mechanical properties :
#
#
# Convention : Reuss Voigt Hill
#
# Bulk Modulus (GPa) = 8.62230 40.76445 24.69338
# Shear Modulus (GPa) = 9.97130 18.59110 14.28120
#
# Velocity S-wave (km/s) = 2.30751 3.15080 2.76153
# Velocity P-wave (km/s) = 3.42107 5.91647 4.83262
#
# Compressibility (1/GPa) = 0.11597828
#
# Stress axis : x y z
#
# Youngs Moduli (GPa) = 94.90335 8.65047 50.70175
#
# Poissons Ratio (x) = 0.14894 0.34734
# Poissons Ratio (y) = 1.63401 -0.46275
# Poissons Ratio (z) = 0.65015 -0.07895
#
# Static dielectric constant tensor:
#      x y z
#    x 1.684670 0.000000 0.000000 
#    y 0.000000 1.673470 0.000000 
#    z 0.000000 0.000000 1.643040 
# 
# From -- ./inp_files/71841.got.cif
#   From: 2010.05.17/outbox.cif.g08.bks.cpg/sg65_36_cif.got.tgz:71841.got - 2010.06.03 17:01:31.
