data_PCOD9483224
_publ_section_title
;
Structure prediction by ZEFSAII (Michael W. Deem and Ramdas Pophale) SiO2 
 PCOD9483224
Probable space group: C M M M
;
_chemical_formula_sum "Si O2"
_cell_formula_units_Z 104
_cell_length_a 28.232144
_cell_length_b 8.715903
_cell_length_c 27.194632
_cell_angle_alpha 90.000000
_cell_angle_beta 90.000000
_cell_angle_gamma 90.000000
_cell_volume 6691.745801
_symmetry_space_group_name_H-M "C M M M"
_symmetry_group_IT_number 65
_symmetry_cell_setting 'orthorhombic'
loop_
_space_group_symop_operation_xyz
x,y,z
-x,-y,z
x,-y,-z
-x,y,-z
-x,-y,-z
x,y,-z
-x,y,z
x,-y,z
1/2+x,1/2+y,z
1/2-x,1/2-y,z
1/2+x,1/2-y,-z
1/2-x,1/2+y,-z
1/2-x,1/2-y,-z
1/2+x,1/2+y,-z
1/2-x,1/2+y,z
1/2+x,1/2-y,z
loop_
_atom_site_type_symbol
_atom_site_label
_atom_site_fract_x
_atom_site_fract_y
_atom_site_fract_z
Si Si1 0.890760 0.316470 0.148165
Si Si2 0.803308 0.815081 0.397891
Si Si3 0.357389 0.315478 0.298962
Si Si4 0.944913 0.184866 0.056223
Si Si5 0.302040 0.683715 0.799494
Si Si6 0.446027 0.184942 0.246937
Si Si7 0.303558 0.183730 0.500000
O O1 0.887367 0.500000 0.148301
O O2 0.912081 0.258894 0.097179
O O3 0.839971 0.245458 0.161353
O O4 0.925738 0.270112 0.193182
O O5 0.750000 0.750000 0.391434
O O6 0.834739 0.770833 0.350905
O O7 0.823731 0.747669 0.448848
O O8 0.800615 0.000000 0.401176
O O9 0.360660 0.500000 0.298017
O O10 0.322695 0.268805 0.254083
O O11 0.408655 0.247634 0.286388
O O12 0.000000 0.227391 0.064869
O O13 0.941932 0.000000 0.059476
O O14 0.932968 0.228405 0.000000
O O15 0.300631 0.500000 0.801147
O O16 0.250000 0.750000 0.806687
O O17 0.500000 0.237967 0.253426
O O18 0.445683 0.000000 0.248925
O O19 0.250000 0.250000 0.500000
O O20 0.302704 0.000000 0.500000
#
# Coordination Sequence:
#
# PCOD9483224 Si02
#       7
#    16  16  16  16  16  16   8
#     4  10  19  31  48  70  95 123 155 189 226 269
#     4  10  18  29  44  64  91 120 151 186 224 264
#     4   9  19  31  45  67  92 120 153 187 224 268
#     4   9  18  32  49  70  96 124 153 187 229 274
#     4  10  19  32  48  68  94 123 156 190 226 268
#     4   9  18  31  46  66  93 122 151 185 224 266
#     4  10  18  28  42  62  87 118 153 184 222 267
#
# _framework density 15.541534
#
# number of rings (size 3 to 8) (size 9 to 14) (size 15 to 20)
#    0.000    2.462    0.000    4.385    0.000    4.000 
#    0.000    0.769    0.000    0.462    0.000    0.538 
#    0.000    4.308    0.000    0.000    0.000    0.000 
#
# Total GULP energy -289968.283968 kJ/mol
# GULP energy per Si atom -5576.313153 kJ/mol
# Density = 1.550616 g / cm^3
# Si number density = 15.541534 Si / 1000 Ang^3
#
#
#
# Elastic Constant Matrix: (Units=GPa)
#
#
# Indices 1 2 3 4 5 6 
#
# 1 131.7713 39.2446 81.0579 0.0000 0.0000 0.0000
# 2 39.2446 46.2355 43.5405 0.0000 0.0000 0.0000
# 3 81.0579 43.5405 136.2932 0.0000 0.0000 0.0000
# 4 0.0000 0.0000 0.0000 24.5057 0.0000 0.0000
# 5 0.0000 0.0000 0.0000 0.0000 24.5846 0.0000
# 6 0.0000 0.0000 0.0000 0.0000 0.0000 25.4789
#
#
#
# Elastic Compliance Matrix: (Units=1/GPa)
#
#
# Indices 1 2 3 4 5 6 
#
# 1 0.012812 -0.005291 -0.005930 0.000000 0.000000 0.000000
# 2 -0.005291 0.033120 -0.007434 0.000000 0.000000 0.000000
# 3 -0.005930 -0.007434 0.013238 0.000000 0.000000 0.000000
# 4 0.000000 0.000000 0.000000 0.040807 0.000000 0.000000
# 5 0.000000 0.000000 0.000000 0.000000 0.040676 0.000000
# 6 0.000000 0.000000 0.000000 0.000000 0.000000 0.039248
#
#
# Mechanical properties :
#
#
# Convention : Reuss Voigt Hill
#
# Bulk Modulus (GPa) = 45.74192 71.33177 58.53685
# Shear Modulus (GPa) = 22.27197 24.94432 23.60815
#
# Velocity S-wave (km/s) = 3.78969 4.01060 3.90171
# Velocity P-wave (km/s) = 6.97459 8.21241 7.61868
#
# Compressibility (1/GPa) = 0.02186179
#
# Stress axis : x y z
#
# Youngs Moduli (GPa) = 78.05056 30.19325 75.53779
#
# Poissons Ratio (x) = 0.15976 0.44790
# Poissons Ratio (y) = 0.41297 0.56153
# Poissons Ratio (z) = 0.46280 0.22445
#
# Static dielectric constant tensor:
#      x y z
#    x 1.493300 0.000000 0.000000 
#    y 0.000000 1.521770 0.000000 
#    z 0.000000 0.000000 1.524530 
# 
# From -- ./inp_files/76024.got.cif
#   From: 2010.05.17/outbox.cif.g08.bks.cpg/sg65_39_cif.got.tgz:76024.got - 2010.06.03 17:01:31.
