data_PCOD9483414
_publ_section_title
;
Structure prediction by ZEFSAII (Michael W. Deem and Ramdas Pophale) SiO2 
 PCOD9483414
Probable space group: C M M M
;
_chemical_formula_sum "Si O2"
_cell_formula_units_Z 100
_cell_length_a 14.498673
_cell_length_b 18.131609
_cell_length_c 16.950216
_cell_angle_alpha 90.000000
_cell_angle_beta 90.000000
_cell_angle_gamma 90.000000
_cell_volume 4455.945157
_symmetry_space_group_name_H-M "C M M M"
_symmetry_group_IT_number 65
_symmetry_cell_setting 'orthorhombic'
loop_
_space_group_symop_operation_xyz
x,y,z
-x,-y,z
x,-y,-z
-x,y,-z
-x,-y,-z
x,y,-z
-x,y,z
x,-y,z
1/2+x,1/2+y,z
1/2-x,1/2-y,z
1/2+x,1/2-y,-z
1/2-x,1/2+y,-z
1/2-x,1/2-y,-z
1/2+x,1/2+y,-z
1/2-x,1/2+y,z
1/2+x,1/2-y,z
loop_
_atom_site_type_symbol
_atom_site_label
_atom_site_fract_x
_atom_site_fract_y
_atom_site_fract_z
Si Si1 0.357640 0.913703 0.088553
Si Si2 0.642593 0.416486 0.588449
Si Si3 0.142081 0.833992 0.263109
Si Si4 0.634184 0.167948 0.750209
Si Si5 0.637199 0.416686 0.113149
Si Si6 0.500000 0.654644 0.000000
Si Si7 0.866730 0.585892 0.589060
O O1 0.390858 0.873315 0.168089
O O2 0.245785 0.910760 0.094340
O O3 0.383475 0.000000 0.092414
O O4 0.384003 0.885973 0.000000
O O5 0.611418 0.402564 0.500000
O O6 0.616960 0.500000 0.610704
O O7 0.611830 0.356695 0.650430
O O8 0.754706 0.413739 0.588742
O O9 0.253917 0.832045 0.256743
O O10 0.107080 0.753111 0.242865
O O11 0.118130 0.899410 0.203732
O O12 0.603858 0.130399 0.667461
O O13 0.608573 0.500000 0.091444
O O14 0.580281 0.356141 0.066891
O O15 0.894014 0.611180 0.500000
O O16 0.893845 0.500000 0.597010
#
# Coordination Sequence:
#
# PCOD9483414 Si02
#       7
#    16  16  16  16  16   4  16
#     4   9  16  27  41  56  75 104 137 166 197 234
#     4   8  13  22  36  52  72 102 139 169 189 217
#     4   9  17  26  35  55  80 105 130 160 197 235
#     4   9  16  25  35  53  80 110 138 158 190 233
#     4  10  18  29  43  58  75  95 127 170 209 243
#     4  12  21  32  48  62  70  88 129 176 217 244
#     4   8  13  21  34  52  75 107 141 166 186 210
#
# _framework density 22.441928999999998
#
# number of rings (size 3 to 8) (size 9 to 14) (size 15 to 20)
#    0.000    3.040    0.800    2.640    0.000    4.480 
#    1.440    4.800    0.000    0.000    0.000    0.560 
#    0.000    2.560    0.000    6.080    0.000   16.480 
#
# Total GULP energy -278363.810146 kJ/mol
# GULP energy per Si atom -5567.276203 kJ/mol
# Density = 2.239085 g / cm^3
# Si number density = 22.441929 Si / 1000 Ang^3
#
#
#
# Elastic Constant Matrix: (Units=GPa)
#
#
# Indices 1 2 3 4 5 6 
#
# 1 91.8764 -2.1889 1.8801 0.0000 0.0000 0.0000
# 2 -2.1889 76.7511 89.0303 0.0000 0.0000 0.0000
# 3 1.8801 89.0303 195.1912 0.0000 0.0000 0.0000
# 4 0.0000 0.0000 0.0000 23.5393 0.0000 0.0000
# 5 0.0000 0.0000 0.0000 0.0000 -49.1126 0.0000
# 6 0.0000 0.0000 0.0000 0.0000 0.0000 -27.9776
#
#
#
# Elastic Compliance Matrix: (Units=1/GPa)
#
#
# Indices 1 2 3 4 5 6 
#
# 1 0.010917 0.000920 -0.000525 0.000000 0.000000 0.000000
# 2 0.000920 0.027746 -0.012664 0.000000 0.000000 0.000000
# 3 -0.000525 -0.012664 0.010905 0.000000 0.000000 0.000000
# 4 0.000000 0.000000 0.000000 0.042482 0.000000 0.000000
# 5 0.000000 0.000000 0.000000 0.000000 -0.020361 0.000000
# 6 0.000000 0.000000 0.000000 0.000000 0.000000 -0.035743
#
#
# Mechanical properties :
#
#
# Convention : Reuss Voigt Hill
#
# Bulk Modulus (GPa) = 39.95301 60.14020 50.04660
# Shear Modulus (GPa) = 72.64715 7.62964 40.13839
#
# Velocity S-wave (km/s) = 5.69574 1.84583 4.23371
# Velocity P-wave (km/s) = 7.81644 5.60349 6.80058
#
# Compressibility (1/GPa) = 0.02502941
#
# Stress axis : x y z
#
# Youngs Moduli (GPa) = 91.60148 36.04169 91.70442
#
# Poissons Ratio (x) = -0.03317 0.04813
# Poissons Ratio (y) = -0.08429 1.16136
# Poissons Ratio (z) = 0.04808 0.45644
#
# Static dielectric constant tensor:
#      x y z
#    x 1.871040 0.000000 0.000000 
#    y 0.000000 1.789340 0.000000 
#    z 0.000000 0.000000 1.854940 
# 
# From -- ./inp_files/55854.got.cif
#   From: 2010.05.17/outbox.cif.g08.bks.cpg/sg65_28_cif.got.tgz:55854.got - 2010.06.03 17:01:31.
