data_PCOD9483973
_publ_section_title
;
Structure prediction by ZEFSAII (Michael W. Deem and Ramdas Pophale) SiO2 
 PCOD9483973
Probable space group: C M M M
;
_chemical_formula_sum "Si O2"
_cell_formula_units_Z 64
_cell_length_a 18.458213
_cell_length_b 8.595476
_cell_length_c 21.388794
_cell_angle_alpha 90.000000
_cell_angle_beta 90.000000
_cell_angle_gamma 90.000000
_cell_volume 3393.484603
_symmetry_space_group_name_H-M "C M M M"
_symmetry_group_IT_number 65
_symmetry_cell_setting 'orthorhombic'
loop_
_space_group_symop_operation_xyz
x,y,z
-x,-y,z
x,-y,-z
-x,y,-z
-x,-y,-z
x,y,-z
-x,y,z
x,-y,z
1/2+x,1/2+y,z
1/2-x,1/2-y,z
1/2+x,1/2-y,-z
1/2-x,1/2+y,-z
1/2-x,1/2-y,-z
1/2+x,1/2+y,-z
1/2-x,1/2+y,z
1/2+x,1/2-y,z
loop_
_atom_site_type_symbol
_atom_site_label
_atom_site_fract_x
_atom_site_fract_y
_atom_site_fract_z
Si Si1 0.831321 0.686646 0.875703
Si Si2 0.168056 0.186769 0.369679
Si Si3 0.083346 0.689671 0.000000
Si Si4 0.332475 0.185483 0.500000
Si Si5 0.083818 0.812047 0.244082
O O1 0.829234 0.500000 0.875732
O O2 0.750000 0.750000 0.876748
O O3 0.872521 0.743680 0.814050
O O4 0.874676 0.739314 0.937595
O O5 0.250000 0.250000 0.362318
O O6 0.136361 0.252037 0.434776
O O7 0.121372 0.232519 0.309445
O O8 0.171166 0.000000 0.373729
O O9 0.082637 0.500000 0.000000
O O10 0.000000 0.741994 0.000000
O O11 0.250000 0.250000 0.500000
O O12 0.331282 0.000000 0.500000
O O13 0.000000 0.763332 0.242167
O O14 0.086369 0.000000 0.240305
#
# Coordination Sequence:
#
# PCOD9483973 Si02
#       5
#    16  16   8   8  16
#     4  11  22  37  59  84 112 147 186 229 274 323
#     4  10  19  33  54  78 106 140 178 221 270 324
#     4   9  19  36  57  83 114 147 184 225 272 326
#     4  10  18  30  51  78 107 137 175 223 269 318
#     4  10  22  39  57  80 111 145 183 228 277 330
#
# _framework density 18.859670000000001
#
# number of rings (size 3 to 8) (size 9 to 14) (size 15 to 20)
#    0.000    1.875    0.000    6.000    0.000    5.500 
#    0.000    2.500    0.000    8.250    0.000    0.000 
#    0.000    0.000    0.000    0.000    0.000    0.000 
#
# Total GULP energy -178751.961757 kJ/mol
# GULP energy per Si atom -5585.998805 kJ/mol
# Density = 1.881674 g / cm^3
# Si number density = 18.859670 Si / 1000 Ang^3
#
#
#
# Elastic Constant Matrix: (Units=GPa)
#
#
# Indices 1 2 3 4 5 6 
#
# 1 156.5522 36.3783 116.5000 0.0000 0.0000 0.0000
# 2 36.3783 50.0504 55.6383 0.0000 0.0000 0.0000
# 3 116.5000 55.6383 235.8849 0.0000 0.0000 0.0000
# 4 0.0000 0.0000 0.0000 -4.4520 0.0000 0.0000
# 5 0.0000 0.0000 0.0000 0.0000 -28.9199 0.0000
# 6 0.0000 0.0000 0.0000 0.0000 0.0000 10.7878
#
#
#
# Elastic Compliance Matrix: (Units=1/GPa)
#
#
# Indices 1 2 3 4 5 6 
#
# 1 0.010323 -0.002488 -0.004512 0.000000 0.000000 0.000000
# 2 -0.002488 0.027680 -0.005300 0.000000 0.000000 0.000000
# 3 -0.004512 -0.005300 0.007718 0.000000 0.000000 0.000000
# 4 0.000000 0.000000 0.000000 -0.224617 0.000000 0.000000
# 5 0.000000 0.000000 0.000000 0.000000 -0.034578 0.000000
# 6 0.000000 0.000000 0.000000 0.000000 0.000000 0.092697
#
#
# Mechanical properties :
#
#
# Convention : Reuss Voigt Hill
#
# Bulk Modulus (GPa) = 47.34501 95.50230 71.42365
# Shear Modulus (GPa) = -56.09296 11.08123 -22.50586
#
# Velocity S-wave (km/s) = -5.45956 2.42660 -3.45821
# Velocity P-wave (km/s) = 3.81892 7.65503 4.69123
#
# Compressibility (1/GPa) = 0.02112155
#
# Stress axis : x y z
#
# Youngs Moduli (GPa) = 96.86978 36.12710 129.57163
#
# Poissons Ratio (x) = 0.08988 0.58458
# Poissons Ratio (y) = 0.24100 0.68675
# Poissons Ratio (z) = 0.43704 0.19148
#
# Static dielectric constant tensor:
#      x y z
#    x 1.630400 0.000000 0.000000 
#    y 0.000000 1.599310 0.000000 
#    z 0.000000 0.000000 1.656660 
# 
# From -- ./inp_files/63243.got.cif
#   From: 2010.05.17/outbox.cif.g08.bks.cpg/sg65_32_cif.got.tgz:63243.got - 2010.06.03 17:01:31.
