data_PCOD9483426
_publ_section_title
;
Structure prediction by ZEFSAII (Michael W. Deem and Ramdas Pophale) SiO2 
 PCOD9483426
Probable space group: C M M M
;
_chemical_formula_sum "Si O2"
_cell_formula_units_Z 56
_cell_length_a 7.322998
_cell_length_b 21.447920
_cell_length_c 15.602404
_cell_angle_alpha 90.000000
_cell_angle_beta 90.000000
_cell_angle_gamma 90.000000
_cell_volume 2450.561554
_symmetry_space_group_name_H-M "C M M M"
_symmetry_group_IT_number 65
_symmetry_cell_setting 'orthorhombic'
loop_
_space_group_symop_operation_xyz
x,y,z
-x,-y,z
x,-y,-z
-x,y,-z
-x,-y,-z
x,y,-z
-x,y,z
x,-y,z
1/2+x,1/2+y,z
1/2-x,1/2-y,z
1/2+x,1/2-y,-z
1/2-x,1/2+y,-z
1/2-x,1/2-y,-z
1/2+x,1/2+y,-z
1/2-x,1/2+y,z
1/2+x,1/2-y,z
loop_
_atom_site_type_symbol
_atom_site_label
_atom_site_fract_x
_atom_site_fract_y
_atom_site_fract_z
Si Si1 0.778889 0.000000 0.897959
Si Si2 0.285244 0.678702 0.000000
Si Si3 0.777500 0.129291 0.820869
Si Si4 0.222799 0.074128 0.500000
Si Si5 0.217985 0.822753 0.639041
O O1 0.727666 0.941806 0.838952
O O2 0.000000 0.000000 0.905123
O O3 0.718106 0.000000 0.000000
O O4 0.250000 0.750000 0.000000
O O5 0.210519 0.657497 0.909672
O O6 0.500000 0.660624 0.000000
O O7 0.713506 0.163340 0.735233
O O8 0.000000 0.133221 0.818157
O O9 0.280118 0.119317 0.420689
O O10 0.000000 0.071601 0.500000
O O11 0.279874 0.000000 0.500000
O O12 0.250000 0.750000 0.613469
O O13 0.000000 0.828133 0.638786
#
# Coordination Sequence:
#
# PCOD9483426 Si02
#       5
#     8   8  16   8  16
#     4   9  14  24  42  67  97 125 156 202 250 285
#     4  10  18  29  43  65  95 124 157 194 234 282
#     4   9  17  27  44  70  97 124 158 200 244 285
#     4   9  19  34  53  79 104 125 160 210 252 287
#     4  10  20  34  53  76 102 132 164 201 247 296
#
# _framework density 22.851904000000001
#
# number of rings (size 3 to 8) (size 9 to 14) (size 15 to 20)
#    0.000    2.571    1.429    1.286    2.000    0.000 
#    0.000    0.000    0.000    1.714    0.000    4.000 
#    0.000    0.000    0.000    0.000    0.000    0.000 
#
# Total GULP energy -155919.047121 kJ/mol
# GULP energy per Si atom -5568.537397 kJ/mol
# Density = 2.279989 g / cm^3
# Si number density = 22.851904 Si / 1000 Ang^3
#
#
#
# Elastic Constant Matrix: (Units=GPa)
#
#
# Indices 1 2 3 4 5 6 
#
# 1 90.6617 -3.7381 10.2619 0.0000 0.0000 0.0000
# 2 -3.7381 222.2719 94.5260 0.0000 0.0000 0.0000
# 3 10.2619 94.5260 166.1123 0.0000 0.0000 0.0000
# 4 0.0000 0.0000 0.0000 47.4208 0.0000 0.0000
# 5 0.0000 0.0000 0.0000 0.0000 -21.5103 0.0000
# 6 0.0000 0.0000 0.0000 0.0000 0.0000 3.9564
#
#
#
# Elastic Compliance Matrix: (Units=1/GPa)
#
#
# Indices 1 2 3 4 5 6 
#
# 1 0.011175 0.000635 -0.001052 0.000000 0.000000 0.000000
# 2 0.000635 0.005971 -0.003437 0.000000 0.000000 0.000000
# 3 -0.001052 -0.003437 0.008041 0.000000 0.000000 0.000000
# 4 0.000000 0.000000 0.000000 0.021088 0.000000 0.000000
# 5 0.000000 0.000000 0.000000 0.000000 -0.046489 0.000000
# 6 0.000000 0.000000 0.000000 0.000000 0.000000 0.252754
#
#
# Mechanical properties :
#
#
# Convention : Reuss Voigt Hill
#
# Bulk Modulus (GPa) = 57.20847 75.68284 66.44565
# Shear Modulus (GPa) = 18.79169 31.17313 24.98241
#
# Velocity S-wave (km/s) = 2.87073 3.69743 3.30999
# Velocity P-wave (km/s) = 6.00641 7.17068 6.61421
#
# Compressibility (1/GPa) = 0.01747993
#
# Stress axis : x y z
#
# Youngs Moduli (GPa) = 89.48331 167.46312 124.36270
#
# Poissons Ratio (x) = -0.10639 0.13081
# Poissons Ratio (y) = -0.05685 0.42747
# Poissons Ratio (z) = 0.09413 0.57562
#
# Static dielectric constant tensor:
#      x y z
#    x 1.846860 0.000000 0.000000 
#    y 0.000000 1.290850 0.000000 
#    z 0.000000 0.000000 1.822730 
# 
# From -- ./inp_files/35579.got.cif
#   From: 2010.05.17/outbox.cif.g08.bks.cpg/sg65_18_cif.got.tgz:35579.got - 2010.06.03 17:01:31.
