data_PCOD9483637
_publ_section_title
;
Structure prediction by ZEFSAII (Michael W. Deem and Ramdas Pophale) SiO2 
 PCOD9483637
Probable space group: C M M M
;
_chemical_formula_sum "Si O2"
_cell_formula_units_Z 96
_cell_length_a 27.414185
_cell_length_b 23.154757
_cell_length_c 7.519805
_cell_angle_alpha 90.000000
_cell_angle_beta 90.000000
_cell_angle_gamma 90.000000
_cell_volume 4773.337536
_symmetry_space_group_name_H-M "C M M M"
_symmetry_group_IT_number 65
_symmetry_cell_setting 'orthorhombic'
loop_
_space_group_symop_operation_xyz
x,y,z
-x,-y,z
x,-y,-z
-x,y,-z
-x,-y,-z
x,y,-z
-x,y,z
x,-y,z
1/2+x,1/2+y,z
1/2-x,1/2-y,z
1/2+x,1/2-y,-z
1/2-x,1/2+y,-z
1/2-x,1/2-y,-z
1/2+x,1/2+y,-z
1/2-x,1/2+y,z
1/2+x,1/2-y,z
loop_
_atom_site_type_symbol
_atom_site_label
_atom_site_fract_x
_atom_site_fract_y
_atom_site_fract_z
Si Si1 0.393072 0.116865 0.709460
Si Si2 0.000000 0.066108 0.718024
Si Si3 0.942990 0.266310 0.282321
Si Si4 0.706963 0.934288 0.214352
Si Si5 0.443273 0.000000 0.282566
Si Si6 0.182730 0.934801 0.213676
Si Si7 0.590736 0.357760 0.711383
O O1 0.404431 0.117151 0.500000
O O2 0.415629 0.176037 0.780995
O O3 0.335181 0.109106 0.728996
O O4 0.417396 0.058341 0.782642
O O5 0.047970 0.100239 0.778678
O O6 0.000000 0.065567 0.500000
O O7 0.000000 0.000000 0.776317
O O8 0.941832 0.266591 0.500000
O O9 0.917323 0.207172 0.221095
O O10 0.000000 0.266272 0.231954
O O11 0.762116 0.921373 0.274741
O O12 0.695014 0.000000 0.274407
O O13 0.707235 0.934969 0.000000
O O14 0.500000 0.000000 0.235526
O O15 0.440254 0.000000 0.500000
O O16 0.142608 0.887670 0.260010
O O17 0.169771 0.000000 0.276681
O O18 0.184467 0.937426 0.000000
O O19 0.583470 0.354282 0.500000
#
# Coordination Sequence:
#
# PCOD9483637 Si02
#       7
#    16   8  16  16   8  16  16
#     4  10  18  29  50  77 101 128 168 211 247 289
#     4   9  16  26  45  73 101 124 156 201 246 291
#     4   9  17  31  50  73 103 139 169 197 243 303
#     4   9  18  34  53  71  97 133 166 204 259 310
#     4   9  16  26  43  73 105 127 155 204 255 292
#     4   9  19  35  53  73  99 131 166 206 257 308
#     4  10  18  31  51  75 101 132 168 204 244 294
#
# _framework density 20.111715
#
# number of rings (size 3 to 8) (size 9 to 14) (size 15 to 20)
#    0.000    2.667    1.667    2.000    0.000    3.667 
#    0.000    3.750    0.000   10.000    0.000    0.000 
#    0.000    0.000    0.000    0.000    0.000    0.000 
#
# Total GULP energy -267883.611978 kJ/mol
# GULP energy per Si atom -5580.908583 kJ/mol
# Density = 2.006594 g / cm^3
# Si number density = 20.111715 Si / 1000 Ang^3
#
#
#
# Elastic Constant Matrix: (Units=GPa)
#
#
# Indices 1 2 3 4 5 6 
#
# 1 153.1386 123.8041 -7.2001 0.0000 0.0000 0.0000
# 2 123.8041 212.2617 9.7295 0.0000 0.0000 0.0000
# 3 -7.2001 9.7295 48.1820 0.0000 0.0000 0.0000
# 4 0.0000 0.0000 0.0000 4.2749 0.0000 0.0000
# 5 0.0000 0.0000 0.0000 0.0000 32.3694 0.0000
# 6 0.0000 0.0000 0.0000 0.0000 0.0000 28.5163
#
#
#
# Elastic Compliance Matrix: (Units=1/GPa)
#
#
# Indices 1 2 3 4 5 6 
#
# 1 0.012911 -0.007690 0.003482 0.000000 0.000000 0.000000
# 2 -0.007690 0.009335 -0.003034 0.000000 0.000000 0.000000
# 3 0.003482 -0.003034 0.021888 0.000000 0.000000 0.000000
# 4 0.000000 0.000000 0.000000 0.233922 0.000000 0.000000
# 5 0.000000 0.000000 0.000000 0.000000 0.030893 0.000000
# 6 0.000000 0.000000 0.000000 0.000000 0.000000 0.035068
#
#
# Mechanical properties :
#
#
# Convention : Reuss Voigt Hill
#
# Bulk Modulus (GPa) = 33.72712 74.02770 53.87741
# Shear Modulus (GPa) = 13.57281 32.18204 22.87743
#
# Velocity S-wave (km/s) = 2.60065 4.00454 3.37637
# Velocity P-wave (km/s) = 5.08174 7.63348 6.48437
#
# Compressibility (1/GPa) = 0.02964973
#
# Stress axis : x y z
#
# Youngs Moduli (GPa) = 77.45594 107.11867 45.68775
#
# Poissons Ratio (x) = 0.82373 -0.15909
# Poissons Ratio (y) = 0.59562 0.13863
# Poissons Ratio (z) = -0.26971 0.32503
#
# Static dielectric constant tensor:
#      x y z
#    x 1.691740 0.000000 0.000000 
#    y 0.000000 1.700570 0.000000 
#    z 0.000000 0.000000 1.766160 
# 
# From -- ./inp_files/16694.got.cif
#   From: 2010.05.17/outbox.cif.g08.bks.cpg/sg65_9_cif.got.tgz:16694.got - 2010.06.03 17:01:31.
