data_PCOD9483157
_publ_section_title
;
Structure prediction by ZEFSAII (Michael W. Deem and Ramdas Pophale) SiO2 
 PCOD9483157
Probable space group: C M M M
;
_chemical_formula_sum "Si O2"
_cell_formula_units_Z 96
_cell_length_a 27.869975
_cell_length_b 8.721728
_cell_length_c 24.993916
_cell_angle_alpha 90.000000
_cell_angle_beta 90.000000
_cell_angle_gamma 90.000000
_cell_volume 6075.379669
_symmetry_space_group_name_H-M "C M M M"
_symmetry_group_IT_number 65
_symmetry_cell_setting 'orthorhombic'
loop_
_space_group_symop_operation_xyz
x,y,z
-x,-y,z
x,-y,-z
-x,y,-z
-x,-y,-z
x,y,-z
-x,y,z
x,-y,z
1/2+x,1/2+y,z
1/2-x,1/2-y,z
1/2+x,1/2-y,-z
1/2-x,1/2+y,-z
1/2-x,1/2-y,-z
1/2+x,1/2+y,-z
1/2-x,1/2+y,z
1/2+x,1/2-y,z
loop_
_atom_site_type_symbol
_atom_site_label
_atom_site_fract_x
_atom_site_fract_y
_atom_site_fract_z
Si Si1 0.445509 0.316663 0.166212
Si Si2 0.353043 0.183766 0.221106
Si Si3 0.698545 0.183712 0.112300
Si Si4 0.598656 0.814799 0.939392
Si Si5 0.304029 0.315727 0.325129
Si Si6 0.195967 0.184920 0.442511
O O1 0.500000 0.273937 0.180051
O O2 0.440841 0.500000 0.168998
O O3 0.405532 0.240602 0.203793
O O4 0.433522 0.261522 0.106069
O O5 0.317616 0.231425 0.172280
O O6 0.335131 0.252356 0.276574
O O7 0.352562 0.000000 0.223425
O O8 0.750000 0.250000 0.097787
O O9 0.653989 0.226641 0.074235
O O10 0.701840 0.000000 0.111727
O O11 0.594927 0.000000 0.934214
O O12 0.586425 0.772345 0.000000
O O13 0.301768 0.500000 0.322141
O O14 0.250000 0.250000 0.320557
O O15 0.323925 0.270504 0.384227
O O16 0.173763 0.232464 0.500000
O O17 0.250000 0.250000 0.442734
O O18 0.198114 0.000000 0.442552
#
# Coordination Sequence:
#
# PCOD9483157 Si02
#       6
#    16  16  16  16  16  16
#     4  10  21  36  53  72  92 112 138 180 232 279
#     4  10  20  33  48  66  90 119 152 188 225 272
#     4   9  18  30  44  63  87 117 149 180 214 252
#     4   9  19  35  51  68  92 120 150 181 214 262
#     4  10  18  27  42  65  94 127 161 195 229 264
#     4   8  14  24  37  55  83 121 161 195 225 258
#
# _framework density 15.801481000000001
#
# number of rings (size 3 to 8) (size 9 to 14) (size 15 to 20)
#    0.000    2.667    0.000    3.000    0.000    7.667 
#    0.000    1.667    0.000    0.000    0.000    0.000 
#    0.000    0.667    0.000    7.667    0.000    2.167 
#
# Total GULP energy -267419.126706 kJ/mol
# GULP energy per Si atom -5571.231806 kJ/mol
# Density = 1.576552 g / cm^3
# Si number density = 15.801481 Si / 1000 Ang^3
#
#
#
# Elastic Constant Matrix: (Units=GPa)
#
#
# Indices 1 2 3 4 5 6 
#
# 1 54.3913 15.5710 20.2091 0.0000 0.0000 0.0000
# 2 15.5710 25.4114 24.3682 0.0000 0.0000 0.0000
# 3 20.2091 24.3682 118.2251 0.0000 0.0000 0.0000
# 4 0.0000 0.0000 0.0000 18.7189 0.0000 0.0000
# 5 0.0000 0.0000 0.0000 0.0000 9.3796 0.0000
# 6 0.0000 0.0000 0.0000 0.0000 0.0000 22.5600
#
#
#
# Elastic Compliance Matrix: (Units=1/GPa)
#
#
# Indices 1 2 3 4 5 6 
#
# 1 0.022443 -0.012555 -0.001249 0.000000 0.000000 0.000000
# 2 -0.012555 0.056070 -0.009411 0.000000 0.000000 0.000000
# 3 -0.001249 -0.009411 0.010612 0.000000 0.000000 0.000000
# 4 0.000000 0.000000 0.000000 0.053422 0.000000 0.000000
# 5 0.000000 0.000000 0.000000 0.000000 0.106614 0.000000
# 6 0.000000 0.000000 0.000000 0.000000 0.000000 0.044326
#
#
# Mechanical properties :
#
#
# Convention : Reuss Voigt Hill
#
# Bulk Modulus (GPa) = 23.42132 35.36938 29.39535
# Shear Modulus (GPa) = 14.11838 19.32368 16.72103
#
# Velocity S-wave (km/s) = 2.99236 3.50080 3.25652
# Velocity P-wave (km/s) = 5.17623 6.22679 5.72566
#
# Compressibility (1/GPa) = 0.04269613
#
# Stress axis : x y z
#
# Youngs Moduli (GPa) = 44.55645 17.83482 94.23637
#
# Poissons Ratio (x) = 0.22392 0.11767
# Poissons Ratio (y) = 0.55941 0.88685
# Poissons Ratio (z) = 0.05563 0.16784
#
# Static dielectric constant tensor:
#      x y z
#    x 1.502220 0.000000 0.000000 
#    y 0.000000 1.533350 0.000000 
#    z 0.000000 0.000000 1.562760 
# 
# From -- ./inp_files/67832.got.cif
#   From: 2010.05.17/outbox.cif.g08.bks.cpg/sg65_34_cif.got.tgz:67832.got - 2010.06.03 17:01:31.
