data_PCOD9483502
_publ_section_title
;
Structure prediction by ZEFSAII (Michael W. Deem and Ramdas Pophale) SiO2 
 PCOD9483502
Probable space group: C M M M
;
_chemical_formula_sum "Si O2"
_cell_formula_units_Z 104
_cell_length_a 29.602212
_cell_length_b 8.216441
_cell_length_c 24.327857
_cell_angle_alpha 90.000000
_cell_angle_beta 90.000000
_cell_angle_gamma 90.000000
_cell_volume 5917.138843
_symmetry_space_group_name_H-M "C M M M"
_symmetry_group_IT_number 65
_symmetry_cell_setting 'orthorhombic'
loop_
_space_group_symop_operation_xyz
x,y,z
-x,-y,z
x,-y,-z
-x,y,-z
-x,-y,-z
x,y,-z
-x,y,z
x,-y,z
1/2+x,1/2+y,z
1/2-x,1/2-y,z
1/2+x,1/2-y,-z
1/2-x,1/2+y,-z
1/2-x,1/2-y,-z
1/2+x,1/2+y,-z
1/2-x,1/2+y,z
1/2+x,1/2-y,z
loop_
_atom_site_type_symbol
_atom_site_label
_atom_site_fract_x
_atom_site_fract_y
_atom_site_fract_z
Si Si1 0.802110 0.194273 0.882158
Si Si2 0.698310 0.696836 0.666871
Si Si3 0.949686 0.197035 0.271155
Si Si4 0.855942 0.801086 0.775590
Si Si5 0.697846 0.807351 0.000000
Si Si6 0.550546 0.194185 0.602616
Si Si7 0.355229 0.694729 0.559972
O O1 0.750000 0.250000 0.876676
O O2 0.831902 0.255934 0.831218
O O3 0.820724 0.245931 0.941840
O O4 0.801609 0.000000 0.880603
O O5 0.696374 0.500000 0.666502
O O6 0.750000 0.750000 0.667892
O O7 0.672286 0.750853 0.721869
O O8 0.673076 0.758122 0.611981
O O9 0.907774 0.249506 0.233738
O O10 0.943496 0.262283 0.333020
O O11 0.000000 0.245263 0.252399
O O12 0.948442 0.000000 0.274614
O O13 0.855366 0.000000 0.776616
O O14 0.750000 0.750000 0.000000
O O15 0.696977 0.000000 0.000000
O O16 0.500000 0.250359 0.586566
O O17 0.592083 0.270136 0.570213
O O18 0.552193 0.000000 0.596148
O O19 0.341516 0.759285 0.500000
O O20 0.349219 0.500000 0.559378
#
# Coordination Sequence:
#
# PCOD9483502 Si02
#       7
#    16  16  16  16   8  16  16
#     4  10  18  29  46  69 100 133 166 198 237 281
#     4  10  20  35  51  70  97 124 159 200 244 288
#     4   9  16  30  53  75  97 128 161 193 236 291
#     4   9  17  30  49  74 100 126 157 200 241 282
#     4  10  18  30  46  66  97 132 169 203 236 275
#     4  10  20  33  50  74 101 125 151 193 248 298
#     4  10  21  37  55  71  91 124 165 203 239 291
#
# _framework density 17.576063000000001
#
# number of rings (size 3 to 8) (size 9 to 14) (size 15 to 20)
#    0.000    2.308    1.538    3.000    0.000    2.462 
#    0.000    3.846    0.000    0.000    0.000    0.538 
#    0.000    4.308    0.000    0.000    0.000    0.000 
#
# Total GULP energy -290027.022142 kJ/mol
# GULP energy per Si atom -5577.442733 kJ/mol
# Density = 1.753606 g / cm^3
# Si number density = 17.576063 Si / 1000 Ang^3
#
#
#
# Elastic Constant Matrix: (Units=GPa)
#
#
# Indices 1 2 3 4 5 6 
#
# 1 103.5718 3.5075 72.1020 0.0000 0.0000 0.0000
# 2 3.5075 17.2670 13.8813 0.0000 0.0000 0.0000
# 3 72.1020 13.8813 154.7439 0.0000 0.0000 0.0000
# 4 0.0000 0.0000 0.0000 7.8450 0.0000 0.0000
# 5 0.0000 0.0000 0.0000 0.0000 23.4903 0.0000
# 6 0.0000 0.0000 0.0000 0.0000 0.0000 20.0189
#
#
#
# Elastic Compliance Matrix: (Units=1/GPa)
#
#
# Indices 1 2 3 4 5 6 
#
# 1 0.014403 0.002661 -0.006950 0.000000 0.000000 0.000000
# 2 0.002661 0.062907 -0.006883 0.000000 0.000000 0.000000
# 3 -0.006950 -0.006883 0.010318 0.000000 0.000000 0.000000
# 4 0.000000 0.000000 0.000000 0.127469 0.000000 0.000000
# 5 0.000000 0.000000 0.000000 0.000000 0.042571 0.000000
# 6 0.000000 0.000000 0.000000 0.000000 0.000000 0.049953
#
#
# Mechanical properties :
#
#
# Convention : Reuss Voigt Hill
#
# Bulk Modulus (GPa) = 15.31753 50.50714 32.91234
# Shear Modulus (GPa) = 14.21565 22.67699 18.44632
#
# Velocity S-wave (km/s) = 2.84704 3.59586 3.24313
# Velocity P-wave (km/s) = 4.42057 6.78520 5.72627
#
# Compressibility (1/GPa) = 0.06528466
#
# Stress axis : x y z
#
# Youngs Moduli (GPa) = 69.42941 15.89657 96.91866
#
# Poissons Ratio (x) = -0.04231 0.67356
# Poissons Ratio (y) = -0.18477 0.66709
# Poissons Ratio (z) = 0.48252 0.10942
#
# Static dielectric constant tensor:
#      x y z
#    x 1.593900 0.000000 0.000000 
#    y 0.000000 1.585160 0.000000 
#    z 0.000000 0.000000 1.619190 
# 
# From -- ./inp_files/71783.got.cif
#   From: 2010.05.17/outbox.cif.g08.bks.cpg/sg65_36_cif.got.tgz:71783.got - 2010.06.03 17:01:31.
