data_PCOD9483206
_publ_section_title
;
Structure prediction by ZEFSAII (Michael W. Deem and Ramdas Pophale) SiO2 
 PCOD9483206
Probable space group: C M M M
;
_chemical_formula_sum "Si O2"
_cell_formula_units_Z 104
_cell_length_a 17.149314
_cell_length_b 30.219946
_cell_length_c 12.801315
_cell_angle_alpha 90.000000
_cell_angle_beta 90.000000
_cell_angle_gamma 90.000000
_cell_volume 6634.298691
_symmetry_space_group_name_H-M "C M M M"
_symmetry_group_IT_number 65
_symmetry_cell_setting 'orthorhombic'
loop_
_space_group_symop_operation_xyz
x,y,z
-x,-y,z
x,-y,-z
-x,y,-z
-x,-y,-z
x,y,-z
-x,y,z
x,-y,z
1/2+x,1/2+y,z
1/2-x,1/2-y,z
1/2+x,1/2-y,-z
1/2-x,1/2+y,-z
1/2-x,1/2-y,-z
1/2+x,1/2+y,-z
1/2-x,1/2+y,z
1/2+x,1/2-y,z
loop_
_atom_site_type_symbol
_atom_site_label
_atom_site_fract_x
_atom_site_fract_y
_atom_site_fract_z
Si Si1 0.413350 0.948286 0.288117
Si Si2 0.319253 0.601099 0.817692
Si Si3 0.094092 0.813239 0.875716
Si Si4 0.910501 0.052820 0.000000
Si Si5 0.643674 0.880355 0.120959
Si Si6 0.590565 0.215161 0.126504
Si Si7 0.754668 0.947305 0.618577
O O1 0.500000 0.942293 0.334769
O O2 0.403085 0.915049 0.191356
O O3 0.338042 0.940052 0.360590
O O4 0.407828 0.000000 0.255137
O O5 0.363362 0.647918 0.814465
O O6 0.234292 0.607958 0.868365
O O7 0.302952 0.578728 0.706159
O O8 0.368351 0.570859 0.896824
O O9 0.119314 0.763828 0.841425
O O10 0.000000 0.815604 0.866267
O O11 0.112009 0.818898 0.000000
O O12 0.000000 0.068599 0.000000
O O13 0.908947 0.000000 0.000000
O O14 0.632585 0.829782 0.158982
O O15 0.619090 0.882685 0.000000
O O16 0.500000 0.211217 0.156958
O O17 0.593089 0.216488 0.000000
O O18 0.773783 0.934714 0.500000
O O19 0.767959 0.000000 0.630797
#
# Coordination Sequence:
#
# PCOD9483206 Si02
#       7
#    16  16  16   8  16  16  16
#     4   9  18  30  45  68  94 125 167 206 238 278
#     4  11  19  31  48  73  96 122 160 199 243 293
#     4   9  16  28  46  68  95 125 157 198 239 277
#     4  11  22  34  50  71  97 129 159 192 239 296
#     4  10  18  28  41  66 102 137 162 190 237 286
#     4   8  15  26  41  62  93 134 168 190 222 276
#     4   9  19  35  52  69  93 126 161 202 248 286
#
# _framework density 15.676111000000001
#
# number of rings (size 3 to 8) (size 9 to 14) (size 15 to 20)
#    0.000    2.538    1.538    2.308    0.000    2.769 
#    0.000    4.615    0.000    1.846    0.000   14.000 
#    0.000    4.923    0.000    0.000    0.000    0.000 
#
# Total GULP energy -289649.959950 kJ/mol
# GULP energy per Si atom -5570.191537 kJ/mol
# Density = 1.564043 g / cm^3
# Si number density = 15.676111 Si / 1000 Ang^3
#
#
#
# Elastic Constant Matrix: (Units=GPa)
#
#
# Indices 1 2 3 4 5 6 
#
# 1 71.1601 39.6530 32.0451 0.0000 0.0000 0.0000
# 2 39.6530 90.2549 50.8315 0.0000 0.0000 0.0000
# 3 32.0451 50.8315 85.4125 0.0000 0.0000 0.0000
# 4 0.0000 0.0000 0.0000 12.9931 0.0000 0.0000
# 5 0.0000 0.0000 0.0000 0.0000 8.4967 0.0000
# 6 0.0000 0.0000 0.0000 0.0000 0.0000 160.3524
#
#
#
# Elastic Compliance Matrix: (Units=1/GPa)
#
#
# Indices 1 2 3 4 5 6 
#
# 1 0.019202 -0.006587 -0.003284 0.000000 0.000000 0.000000
# 2 -0.006587 0.018925 -0.008792 0.000000 0.000000 0.000000
# 3 -0.003284 -0.008792 0.018172 0.000000 0.000000 0.000000
# 4 0.000000 0.000000 0.000000 0.076964 0.000000 0.000000
# 5 0.000000 0.000000 0.000000 0.000000 0.117692 0.000000
# 6 0.000000 0.000000 0.000000 0.000000 0.000000 0.006236
#
#
# Mechanical properties :
#
#
# Convention : Reuss Voigt Hill
#
# Bulk Modulus (GPa) = 52.70330 54.65408 53.67869
# Shear Modulus (GPa) = 16.62002 44.65496 30.63749
#
# Velocity S-wave (km/s) = 3.25962 5.34302 4.42566
# Velocity P-wave (km/s) = 6.91809 8.54424 7.77380
#
# Compressibility (1/GPa) = 0.01897414
#
# Stress axis : x y z
#
# Youngs Moduli (GPa) = 52.07750 52.84022 55.02874
#
# Poissons Ratio (x) = 0.34804 0.18074
# Poissons Ratio (y) = 0.34301 0.48379
# Poissons Ratio (z) = 0.17104 0.46455
#
# Static dielectric constant tensor:
#      x y z
#    x 1.539210 0.000000 0.000000 
#    y 0.000000 1.542890 0.000000 
#    z 0.000000 0.000000 1.489310 
# 
# From -- ./inp_files/25543.got.cif
#   From: 2010.05.17/outbox.cif.g08.bks.cpg/sg65_13_cif.got.tgz:25543.got - 2010.06.03 17:01:31.
