data_PCOD9483196
_publ_section_title
;
Structure prediction by ZEFSAII (Michael W. Deem and Ramdas Pophale) SiO2 
 PCOD9483196
Probable space group: C M M M
;
_chemical_formula_sum "Si O2"
_cell_formula_units_Z 112
_cell_length_a 33.052330
_cell_length_b 32.428157
_cell_length_c 9.231914
_cell_angle_alpha 90.000000
_cell_angle_beta 90.000000
_cell_angle_gamma 90.000000
_cell_volume 9895.006807
_symmetry_space_group_name_H-M "C M M M"
_symmetry_group_IT_number 65
_symmetry_cell_setting 'orthorhombic'
loop_
_space_group_symop_operation_xyz
x,y,z
-x,-y,z
x,-y,-z
-x,y,-z
-x,-y,-z
x,y,-z
-x,y,z
x,-y,z
1/2+x,1/2+y,z
1/2-x,1/2-y,z
1/2+x,1/2-y,-z
1/2-x,1/2+y,-z
1/2-x,1/2-y,-z
1/2+x,1/2+y,-z
1/2-x,1/2+y,z
1/2+x,1/2-y,z
loop_
_atom_site_type_symbol
_atom_site_label
_atom_site_fract_x
_atom_site_fract_y
_atom_site_fract_z
Si Si1 0.579158 0.500000 0.671723
Si Si2 0.953041 0.081720 0.826685
Si Si3 0.336521 0.710806 0.666462
Si Si4 0.381635 0.358342 0.171086
Si Si5 0.323826 0.500000 0.672466
Si Si6 0.697441 0.415799 0.828079
Si Si7 0.790558 0.278620 0.832757
Si Si8 0.244308 0.846526 0.332625
O O1 0.571487 0.500000 0.500000
O O2 0.560408 0.459466 0.744496
O O3 0.627559 0.500000 0.694763
O O4 0.922925 0.118848 0.786521
O O5 0.000000 0.090713 0.798177
O O6 0.948175 0.074935 0.000000
O O7 0.345781 0.720450 0.500000
O O8 0.370335 0.682283 0.739886
O O9 0.324943 0.751402 0.756282
O O10 0.295823 0.682544 0.667693
O O11 0.345099 0.391228 0.191633
O O12 0.382718 0.348485 0.000000
O O13 0.316408 0.500000 0.500000
O O14 0.306343 0.540839 0.747372
O O15 0.731516 0.386812 0.756822
O O16 0.703681 0.420773 0.000000
O O17 0.750000 0.250000 0.831635
O O18 0.778712 0.319488 0.744717
O O19 0.799918 0.287413 0.000000
O O20 0.253792 0.855648 0.500000
#
# Coordination Sequence:
#
# PCOD9483196 Si02
#       8
#     8  16  16  16   8  16  16  16
#     4  11  22  32  43  56  70  82 102 136 176 216
#     4  10  20  33  46  56  67  85 108 135 171 215
#     4   9  16  24  36  52  69  88 106 126 154 187
#     4   9  17  28  40  53  67  83 105 132 162 200
#     4  11  21  30  40  53  68  86 108 138 174 210
#     4  10  18  28  41  53  65  85 110 136 165 200
#     4   9  15  23  35  51  70  90 110 128 147 178
#     4   9  16  25  36  51  71  89 106 129 156 188
#
# _framework density 11.31884
#
# number of rings (size 3 to 8) (size 9 to 14) (size 15 to 20)
#    0.000    2.429    1.429    2.357    0.000    8.000 
#    0.000    0.000    0.000    0.000    0.000    0.000 
#    0.000    0.000    0.000    0.000    0.000    0.000 
#
# Total GULP energy -312100.108469 kJ/mol
# GULP energy per Si atom -5573.216223 kJ/mol
# Density = 1.129308 g / cm^3
# Si number density = 11.318840 Si / 1000 Ang^3
#
#
#
# Elastic Constant Matrix: (Units=GPa)
#
#
# Indices 1 2 3 4 5 6 
#
# 1 44.3549 48.3602 39.5659 0.0000 0.0000 0.0000
# 2 48.3602 75.3365 59.4826 0.0000 0.0000 0.0000
# 3 39.5659 59.4826 88.1734 0.0000 0.0000 0.0000
# 4 0.0000 0.0000 0.0000 15.7258 0.0000 0.0000
# 5 0.0000 0.0000 0.0000 0.0000 11.0967 0.0000
# 6 0.0000 0.0000 0.0000 0.0000 0.0000 6.5778
#
#
#
# Elastic Compliance Matrix: (Units=1/GPa)
#
#
# Indices 1 2 3 4 5 6 
#
# 1 0.075386 -0.046395 -0.002529 0.000000 0.000000 0.000000
# 2 -0.046395 0.056955 -0.017603 0.000000 0.000000 0.000000
# 3 -0.002529 -0.017603 0.024352 0.000000 0.000000 0.000000
# 4 0.000000 0.000000 0.000000 0.063590 0.000000 0.000000
# 5 0.000000 0.000000 0.000000 0.000000 0.090117 0.000000
# 6 0.000000 0.000000 0.000000 0.000000 0.000000 0.152026
#
#
# Mechanical properties :
#
#
# Convention : Reuss Voigt Hill
#
# Bulk Modulus (GPa) = 42.30659 55.85357 49.08008
# Shear Modulus (GPa) = 8.28693 10.71047 9.49870
#
# Velocity S-wave (km/s) = 2.70874 3.07946 2.90003
# Velocity P-wave (km/s) = 6.87323 7.88016 7.39385
#
# Compressibility (1/GPa) = 0.02363698
#
# Stress axis : x y z
#
# Youngs Moduli (GPa) = 13.26504 17.55783 41.06476
#
# Poissons Ratio (x) = 0.81459 0.10387
# Poissons Ratio (y) = 0.61543 0.72288
# Poissons Ratio (z) = 0.03355 0.30908
#
# Static dielectric constant tensor:
#      x y z
#    x 1.340680 0.000000 0.000000 
#    y 0.000000 1.348310 0.000000 
#    z 0.000000 0.000000 1.378300 
# 
# From -- ./inp_files/19242.got.cif
#   From: 2010.05.17/outbox.cif.g08.bks.cpg/sg65_10_cif.got.tgz:19242.got - 2010.06.03 17:01:31.
