data_PCOD9483413
_publ_section_title
;
Structure prediction by ZEFSAII (Michael W. Deem and Ramdas Pophale) SiO2 
 PCOD9483413
Probable space group: C M M M
;
_chemical_formula_sum "Si O2"
_cell_formula_units_Z 104
_cell_length_a 27.752266
_cell_length_b 10.261854
_cell_length_c 23.995524
_cell_angle_alpha 90.000000
_cell_angle_beta 90.000000
_cell_angle_gamma 90.000000
_cell_volume 6833.678126
_symmetry_space_group_name_H-M "C M M M"
_symmetry_group_IT_number 65
_symmetry_cell_setting 'orthorhombic'
loop_
_space_group_symop_operation_xyz
x,y,z
-x,-y,z
x,-y,-z
-x,y,-z
-x,-y,-z
x,y,-z
-x,y,z
x,-y,z
1/2+x,1/2+y,z
1/2-x,1/2-y,z
1/2+x,1/2-y,-z
1/2-x,1/2+y,-z
1/2-x,1/2-y,-z
1/2+x,1/2+y,-z
1/2-x,1/2+y,z
1/2+x,1/2-y,z
loop_
_atom_site_type_symbol
_atom_site_label
_atom_site_fract_x
_atom_site_fract_y
_atom_site_fract_z
Si Si1 0.384590 0.654556 0.289650
Si Si2 0.941881 0.851677 0.403852
Si Si3 0.441596 0.653845 0.939976
Si Si4 0.941420 0.652828 0.500000
Si Si5 0.055935 0.840862 0.181870
Si Si6 0.809496 0.000000 0.436822
Si Si7 0.307378 0.000000 0.563963
Si Si8 0.307764 0.750126 0.363967
O O1 0.373107 0.500000 0.284445
O O2 0.420558 0.667745 0.342317
O O3 0.410789 0.698286 0.233333
O O4 0.337207 0.733690 0.307257
O O5 0.926225 0.738606 0.446442
O O6 0.000000 0.847755 0.401140
O O7 0.928946 0.000000 0.422425
O O8 0.500000 0.660526 0.939214
O O9 0.429381 0.500000 0.940742
O O10 0.426615 0.705364 0.879302
O O11 0.425481 0.709781 0.000000
O O12 0.927659 0.500000 0.500000
O O13 0.000000 0.653637 0.500000
O O14 0.000000 0.802032 0.190258
O O15 0.055798 0.000000 0.180768
O O16 0.751057 0.000000 0.439328
O O17 0.822350 0.126586 0.401734
O O18 0.827255 0.000000 0.500000
O O19 0.321103 0.125045 0.599687
O O20 0.323827 0.000000 0.500000
O O21 0.250000 0.750000 0.355641
#
# Coordination Sequence:
#
# PCOD9483413 Si02
#       8
#    16  16  16   8  16   8   8  16
#     4  10  18  29  42  61  80 105 138 170 203 241
#     4   9  17  30  46  61  78 101 131 168 204 241
#     4   7   9  14  26  48  80 115 142 161 190 234
#     4   9  17  31  47  59  76 103 134 169 208 241
#     4   8  13  21  36  58  84 112 142 173 199 232
#     4   9  16  30  50  64  77  97 124 165 215 265
#     4   9  18  32  48  62  77  99 126 163 219 271
#     4  10  19  32  46  62  82 104 131 167 211 257
#
# _framework density 15.218743
#
# number of rings (size 3 to 8) (size 9 to 14) (size 15 to 20)
#    0.000    3.154    0.769    2.538    0.000    4.615 
#    4.154    0.000    0.000    0.000    0.000    0.000 
#    0.000    0.615    0.000    0.692    0.154    6.846 
#
# Total GULP energy -289512.498617 kJ/mol
# GULP energy per Si atom -5567.548050 kJ/mol
# Density = 1.518410 g / cm^3
# Si number density = 15.218743 Si / 1000 Ang^3
#
#
#
# Elastic Constant Matrix: (Units=GPa)
#
#
# Indices 1 2 3 4 5 6 
#
# 1 54.8061 19.4103 45.5264 0.0000 0.0000 0.0000
# 2 19.4103 70.4238 41.8963 0.0000 0.0000 0.0000
# 3 45.5264 41.8963 151.8844 0.0000 0.0000 0.0000
# 4 0.0000 0.0000 0.0000 7.7477 0.0000 0.0000
# 5 0.0000 0.0000 0.0000 0.0000 13.3093 0.0000
# 6 0.0000 0.0000 0.0000 0.0000 0.0000 10.1042
#
#
#
# Elastic Compliance Matrix: (Units=1/GPa)
#
#
# Indices 1 2 3 4 5 6 
#
# 1 0.024776 -0.002884 -0.006631 0.000000 0.000000 0.000000
# 2 -0.002884 0.017323 -0.003914 0.000000 0.000000 0.000000
# 3 -0.006631 -0.003914 0.009651 0.000000 0.000000 0.000000
# 4 0.000000 0.000000 0.000000 0.129070 0.000000 0.000000
# 5 0.000000 0.000000 0.000000 0.000000 0.075135 0.000000
# 6 0.000000 0.000000 0.000000 0.000000 0.000000 0.098969
#
#
# Mechanical properties :
#
#
# Convention : Reuss Voigt Hill
#
# Bulk Modulus (GPa) = 40.17293 54.53114 47.35204
# Shear Modulus (GPa) = 12.81791 17.58433 15.20112
#
# Velocity S-wave (km/s) = 2.90529 3.40286 3.16387
# Velocity P-wave (km/s) = 6.14073 7.16580 6.67298
#
# Compressibility (1/GPa) = 0.02489238
#
# Stress axis : x y z
#
# Youngs Moduli (GPa) = 40.36222 57.72625 103.61439
#
# Poissons Ratio (x) = 0.16648 0.68705
# Poissons Ratio (y) = 0.11640 0.40555
# Poissons Ratio (z) = 0.26764 0.22594
#
# Static dielectric constant tensor:
#      x y z
#    x 1.533570 0.000000 0.000000 
#    y 0.000000 1.504110 0.000000 
#    z 0.000000 0.000000 1.525630 
# 
# From -- ./inp_files/72198.got.cif
#   From: 2010.05.17/outbox.cif.g08.bks.cpg/sg65_37_cif.got.tgz:72198.got - 2010.06.03 17:01:31.
