data_PCOD9483625
_publ_section_title
;
Structure prediction by ZEFSAII (Michael W. Deem and Ramdas Pophale) SiO2 
 PCOD9483625
Probable space group: C M M M
;
_chemical_formula_sum "Si O2"
_cell_formula_units_Z 68
_cell_length_a 13.827323
_cell_length_b 22.341940
_cell_length_c 13.585430
_cell_angle_alpha 90.000000
_cell_angle_beta 90.000000
_cell_angle_gamma 90.000000
_cell_volume 4196.936304
_symmetry_space_group_name_H-M "C M M M"
_symmetry_group_IT_number 65
_symmetry_cell_setting 'orthorhombic'
loop_
_space_group_symop_operation_xyz
x,y,z
-x,-y,z
x,-y,-z
-x,y,-z
-x,-y,-z
x,y,-z
-x,y,z
x,-y,z
1/2+x,1/2+y,z
1/2-x,1/2-y,z
1/2+x,1/2-y,-z
1/2-x,1/2+y,-z
1/2-x,1/2-y,-z
1/2+x,1/2+y,-z
1/2-x,1/2+y,z
1/2+x,1/2-y,z
loop_
_atom_site_type_symbol
_atom_site_label
_atom_site_fract_x
_atom_site_fract_y
_atom_site_fract_z
Si Si1 0.383415 0.000000 0.618250
Si Si2 0.281249 0.819063 0.500000
Si Si3 0.782353 0.819662 0.887652
Si Si4 0.000000 0.294877 0.292870
Si Si5 0.500000 0.711387 0.892781
Si Si6 0.000000 0.713466 0.500000
Si Si7 0.691833 0.125285 0.697659
O O1 0.338269 0.058387 0.669305
O O2 0.500000 0.000000 0.629542
O O3 0.364096 0.000000 0.500000
O O4 0.250000 0.750000 0.500000
O O5 0.399563 0.823493 0.500000
O O6 0.250315 0.848851 0.602639
O O7 0.750000 0.750000 0.867826
O O8 0.898822 0.823044 0.886940
O O9 0.743462 0.861867 0.801194
O O10 0.749241 0.833066 0.000000
O O11 0.000000 0.256722 0.196072
O O12 0.905912 0.335876 0.294561
O O13 0.000000 0.255672 0.393748
O O14 0.500000 0.742378 0.000000
#
# Coordination Sequence:
#
# PCOD9483625 Si02
#       7
#     8   8  16   8   8   4  16
#     4  11  22  36  57  80 111 152 193 221 264 323
#     4  10  20  31  48  77 107 140 176 217 265 321
#     4  10  20  34  54  80 110 143 179 224 278 334
#     4  10  18  29  49  76 109 141 179 217 258 322
#     4  10  20  34  53  79 110 147 181 214 275 341
#     4   8  20  28  40  67 108 139 162 206 254 304
#     4  11  20  34  52  78 110 147 182 222 266 320
#
# _framework density 16.202296
#
# number of rings (size 3 to 8) (size 9 to 14) (size 15 to 20)
#    0.000    1.765    4.706    0.706    3.294    0.000 
#    0.000    0.588    0.000    1.412    0.000    3.294 
#    0.000    0.000    0.000    0.000    0.000    0.000 
#
# Total GULP energy -189270.475391 kJ/mol
# GULP energy per Si atom -5566.778688 kJ/mol
# Density = 1.616542 g / cm^3
# Si number density = 16.202296 Si / 1000 Ang^3
#
#
#
# Elastic Constant Matrix: (Units=GPa)
#
#
# Indices 1 2 3 4 5 6 
#
# 1 63.4055 17.1275 43.1084 0.0000 0.0000 0.0000
# 2 17.1275 89.8098 81.0989 0.0000 0.0000 0.0000
# 3 43.1084 81.0989 193.9624 0.0000 0.0000 0.0000
# 4 0.0000 0.0000 0.0000 -327.0393 0.0000 0.0000
# 5 0.0000 0.0000 0.0000 0.0000 24.0940 0.0000
# 6 0.0000 0.0000 0.0000 0.0000 0.0000 19.6317
#
#
#
# Elastic Compliance Matrix: (Units=1/GPa)
#
#
# Indices 1 2 3 4 5 6 
#
# 1 0.018584 0.000298 -0.004255 0.000000 0.000000 0.000000
# 2 0.000298 0.017894 -0.007548 0.000000 0.000000 0.000000
# 3 -0.004255 -0.007548 0.009257 0.000000 0.000000 0.000000
# 4 0.000000 0.000000 0.000000 -0.003058 0.000000 0.000000
# 5 0.000000 0.000000 0.000000 0.000000 0.041504 0.000000
# 6 0.000000 0.000000 0.000000 0.000000 0.000000 0.050938
#
#
# Mechanical properties :
#
#
# Convention : Reuss Voigt Hill
#
# Bulk Modulus (GPa) = 44.00390 69.98304 56.99347
# Shear Modulus (GPa) = 30.17443 -42.93984 -6.38270
#
# Velocity S-wave (km/s) = 4.32018 -5.15363 -1.98694
# Velocity P-wave (km/s) = 7.21826 2.80605 5.47619
#
# Compressibility (1/GPa) = 0.02272526
#
# Stress axis : x y z
#
# Youngs Moduli (GPa) = 53.81025 55.88604 108.02421
#
# Poissons Ratio (x) = -0.01666 0.45964
# Poissons Ratio (y) = -0.01604 0.81535
# Poissons Ratio (z) = 0.22896 0.42182
#
# Static dielectric constant tensor:
#      x y z
#    x 1.578370 0.000000 0.000000 
#    y 0.000000 1.516090 0.000000 
#    z 0.000000 0.000000 1.598240 
# 
# From -- ./inp_files/24567.got.cif
#   From: 2010.05.17/outbox.cif.g08.bks.cpg/sg65_13_cif.got.tgz:24567.got - 2010.06.03 17:01:31.
