data_PCOD9483088
_publ_section_title
;
Structure prediction by ZEFSAII (Michael W. Deem and Ramdas Pophale) SiO2 
 PCOD9483088
Probable space group: C M M M
;
_chemical_formula_sum "Si O2"
_cell_formula_units_Z 80
_cell_length_a 35.464972
_cell_length_b 14.820778
_cell_length_c 7.423973
_cell_angle_alpha 90.000000
_cell_angle_beta 90.000000
_cell_angle_gamma 90.000000
_cell_volume 3902.177380
_symmetry_space_group_name_H-M "C M M M"
_symmetry_group_IT_number 65
_symmetry_cell_setting 'orthorhombic'
loop_
_space_group_symop_operation_xyz
x,y,z
-x,-y,z
x,-y,-z
-x,y,-z
-x,-y,-z
x,y,-z
-x,y,z
x,-y,z
1/2+x,1/2+y,z
1/2-x,1/2-y,z
1/2+x,1/2-y,-z
1/2-x,1/2+y,-z
1/2-x,1/2-y,-z
1/2+x,1/2+y,-z
1/2-x,1/2+y,z
1/2+x,1/2-y,z
loop_
_atom_site_type_symbol
_atom_site_label
_atom_site_fract_x
_atom_site_fract_y
_atom_site_fract_z
Si Si1 0.042394 0.601282 0.284329
Si Si2 0.733347 0.389789 0.791706
Si Si3 0.815044 0.604882 0.779290
Si Si4 0.849785 0.102454 0.779196
Si Si5 0.114152 0.279082 0.214318
O O1 0.040426 0.596332 0.500000
O O2 0.052549 0.500000 0.219051
O O3 0.074447 0.673331 0.244524
O O4 0.000000 0.622724 0.219239
O O5 0.734570 0.500000 0.790524
O O6 0.773860 0.360648 0.716904
O O7 0.692175 0.367360 0.717601
O O8 0.732672 0.359965 0.000000
O O9 0.819201 0.500000 0.728313
O O10 0.851023 0.660680 0.716812
O O11 0.813952 0.606972 0.000000
O O12 0.879839 0.176939 0.721508
O O13 0.856857 0.000000 0.720553
O O14 0.848461 0.099791 0.000000
O O15 0.119120 0.276027 0.000000
#
# Coordination Sequence:
#
# PCOD9483088 Si02
#       5
#    16  16  16  16  16
#     4   9  19  36  54  69  88 115 141 165 205 270
#     4   7  10  18  31  48  79 123 157 178 209 253
#     4   8  13  20  31  54  89 119 143 179 223 259
#     4   8  14  24  37  57  89 126 159 187 215 250
#     4  10  18  26  43  71  95 115 144 186 228 257
#
# _framework density 20.501373999999998
#
# number of rings (size 3 to 8) (size 9 to 14) (size 15 to 20)
#    0.000    3.600    0.000    3.600    0.000    2.400 
#    0.000    5.000    0.000    1.200    0.000    7.000 
#    0.000    4.800    0.000    0.000    0.000    0.000 
#
# Total GULP energy -222991.107784 kJ/mol
# GULP energy per Si atom -5574.777695 kJ/mol
# Density = 2.045471 g / cm^3
# Si number density = 20.501374 Si / 1000 Ang^3
#
#
#
# Elastic Constant Matrix: (Units=GPa)
#
#
# Indices 1 2 3 4 5 6 
#
# 1 158.6141 111.4452 1.3286 0.0000 0.0000 0.0000
# 2 111.4452 130.9000 4.6700 0.0000 0.0000 0.0000
# 3 1.3286 4.6700 61.1031 0.0000 0.0000 0.0000
# 4 0.0000 0.0000 0.0000 109.8293 0.0000 0.0000
# 5 0.0000 0.0000 0.0000 0.0000 34.7772 0.0000
# 6 0.0000 0.0000 0.0000 0.0000 0.0000 33.4652
#
#
#
# Elastic Compliance Matrix: (Units=1/GPa)
#
#
# Indices 1 2 3 4 5 6 
#
# 1 0.015719 -0.013407 0.000683 0.000000 0.000000 0.000000
# 2 -0.013407 0.019096 -0.001168 0.000000 0.000000 0.000000
# 3 0.000683 -0.001168 0.016440 0.000000 0.000000 0.000000
# 4 0.000000 0.000000 0.000000 0.009105 0.000000 0.000000
# 5 0.000000 0.000000 0.000000 0.000000 0.028754 0.000000
# 6 0.000000 0.000000 0.000000 0.000000 0.000000 0.029882
#
#
# Mechanical properties :
#
#
# Convention : Reuss Voigt Hill
#
# Bulk Modulus (GPa) = 42.60672 65.05609 53.83141
# Shear Modulus (GPa) = 32.34068 51.15924 41.74996
#
# Velocity S-wave (km/s) = 3.97607 5.00082 4.51760
# Velocity P-wave (km/s) = 6.47351 8.07129 7.31615
#
# Compressibility (1/GPa) = 0.02347047
#
# Stress axis : x y z
#
# Youngs Moduli (GPa) = 63.61720 52.36797 60.82648
#
# Poissons Ratio (x) = 0.70211 -0.04154
# Poissons Ratio (y) = 0.85293 0.07104
# Poissons Ratio (z) = -0.04344 0.06116
#
# Static dielectric constant tensor:
#      x y z
#    x 1.728590 0.000000 0.000000 
#    y 0.000000 1.748650 0.000000 
#    z 0.000000 0.000000 1.813850 
# 
# From -- ./inp_files/24980.got.cif
#   From: 2010.05.17/outbox.cif.g08.bks.cpg/sg65_13_cif.got.tgz:24980.got - 2010.06.03 17:01:31.
