data_PCOD9483904
_publ_section_title
;
Structure prediction by ZEFSAII (Michael W. Deem and Ramdas Pophale) SiO2 
 PCOD9483904
Probable space group: C M M M
;
_chemical_formula_sum "Si O2"
_cell_formula_units_Z 112
_cell_length_a 15.308147
_cell_length_b 16.755571
_cell_length_c 23.423810
_cell_angle_alpha 90.000000
_cell_angle_beta 90.000000
_cell_angle_gamma 90.000000
_cell_volume 6008.130996
_symmetry_space_group_name_H-M "C M M M"
_symmetry_group_IT_number 65
_symmetry_cell_setting 'orthorhombic'
loop_
_space_group_symop_operation_xyz
x,y,z
-x,-y,z
x,-y,-z
-x,y,-z
-x,-y,-z
x,y,-z
-x,y,z
x,-y,z
1/2+x,1/2+y,z
1/2-x,1/2-y,z
1/2+x,1/2-y,-z
1/2-x,1/2+y,-z
1/2-x,1/2-y,-z
1/2+x,1/2+y,-z
1/2-x,1/2+y,z
1/2+x,1/2-y,z
loop_
_atom_site_type_symbol
_atom_site_label
_atom_site_fract_x
_atom_site_fract_y
_atom_site_fract_z
Si Si1 0.148508 0.755496 0.364383
Si Si2 0.398223 0.912947 0.630227
Si Si3 0.105353 0.913067 0.566669
Si Si4 0.280059 0.911383 0.743096
Si Si5 0.394265 0.909163 0.064826
Si Si6 0.404037 0.331661 0.748242
Si Si7 0.602451 0.809411 0.173388
O O1 0.250000 0.750000 0.349889
O O2 0.118870 0.674498 0.396510
O O3 0.136420 0.835536 0.400573
O O4 0.098576 0.768930 0.304682
O O5 0.500000 0.912413 0.648389
O O6 0.331644 0.911622 0.683246
O O7 0.385043 0.000000 0.600546
O O8 0.129600 0.908413 0.500000
O O9 0.000000 0.913113 0.569720
O O10 0.135926 0.000000 0.589126
O O11 0.179285 0.886716 0.737795
O O12 0.331978 0.852974 0.784144
O O13 0.285583 0.000000 0.767156
O O14 0.500000 0.910698 0.062827
O O15 0.372486 0.840851 0.110609
O O16 0.367245 0.000000 0.081669
O O17 0.363458 0.894245 0.000000
O O18 0.500000 0.370277 0.747244
O O19 0.393076 0.282797 0.807278
O O20 0.500000 0.832503 0.182784
#
# Coordination Sequence:
#
# PCOD9483904 Si02
#       7
#    16  16  16  16  16  16  16
#     4  12  21  35  58  80 112 145 179 228 278 329
#     4  10  20  34  52  77 109 141 176 217 263 324
#     4   9  20  39  61  85 111 142 187 236 275 319
#     4  11  21  33  49  72 102 137 179 221 262 317
#     4   8  14  25  43  71 105 138 173 213 262 321
#     4  11  22  36  51  72 104 143 182 220 267 324
#     4  10  18  30  50  75 107 139 170 213 268 327
#
# _framework density 18.641404000000001
#
# number of rings (size 3 to 8) (size 9 to 14) (size 15 to 20)
#    0.000    1.857    2.857    3.429    0.000    3.143 
#    0.000    0.000    0.000    2.143    0.000    2.000 
#    0.000    0.000    0.000    8.571    0.000    0.143 
#
# Total GULP energy -311964.940820 kJ/mol
# GULP energy per Si atom -5570.802515 kJ/mol
# Density = 1.859898 g / cm^3
# Si number density = 18.641404 Si / 1000 Ang^3
#
#
#
# Elastic Constant Matrix: (Units=GPa)
#
#
# Indices 1 2 3 4 5 6 
#
# 1 91.3741 14.7595 0.8683 0.0000 0.0000 0.0000
# 2 14.7595 63.1237 26.6701 0.0000 0.0000 0.0000
# 3 0.8683 26.6701 46.0297 0.0000 0.0000 0.0000
# 4 0.0000 0.0000 0.0000 26.8951 0.0000 0.0000
# 5 0.0000 0.0000 0.0000 0.0000 -19.4083 0.0000
# 6 0.0000 0.0000 0.0000 0.0000 0.0000 24.5151
#
#
#
# Elastic Compliance Matrix: (Units=1/GPa)
#
#
# Indices 1 2 3 4 5 6 
#
# 1 0.011482 -0.003434 0.001773 0.000000 0.000000 0.000000
# 2 -0.003434 0.022004 -0.012685 0.000000 0.000000 0.000000
# 3 0.001773 -0.012685 0.029041 0.000000 0.000000 0.000000
# 4 0.000000 0.000000 0.000000 0.037181 0.000000 0.000000
# 5 0.000000 0.000000 0.000000 0.000000 -0.051524 0.000000
# 6 0.000000 0.000000 0.000000 0.000000 0.000000 0.040791
#
#
# Mechanical properties :
#
#
# Convention : Reuss Voigt Hill
#
# Bulk Modulus (GPa) = 29.55401 31.68036 30.61718
# Shear Modulus (GPa) = 38.77612 16.94902 27.86257
#
# Velocity S-wave (km/s) = 4.56577 3.01859 3.87028
# Velocity P-wave (km/s) = 6.60934 5.40191 6.03589
#
# Compressibility (1/GPa) = 0.03383635
#
# Stress axis : x y z
#
# Youngs Moduli (GPa) = 87.09419 45.44596 34.43368
#
# Poissons Ratio (x) = 0.15605 -0.06105
# Poissons Ratio (y) = 0.29906 0.43678
# Poissons Ratio (z) = -0.15441 0.57647
#
# Static dielectric constant tensor:
#      x y z
#    x 1.643100 0.000000 0.000000 
#    y 0.000000 1.702690 0.000000 
#    z 0.000000 0.000000 1.656190 
# 
# From -- ./inp_files/74881.got.cif
#   From: 2010.05.17/outbox.cif.g08.bks.cpg/sg65_38_cif.got.tgz:74881.got - 2010.06.03 17:01:31.
