data_PCOD9483949
_publ_section_title
;
Structure prediction by ZEFSAII (Michael W. Deem and Ramdas Pophale) SiO2 
 PCOD9483949
Probable space group: C M M M
;
_chemical_formula_sum "Si O2"
_cell_formula_units_Z 104
_cell_length_a 26.778912
_cell_length_b 9.410505
_cell_length_c 24.906700
_cell_angle_alpha 90.000000
_cell_angle_beta 90.000000
_cell_angle_gamma 90.000000
_cell_volume 6276.565244
_symmetry_space_group_name_H-M "C M M M"
_symmetry_group_IT_number 65
_symmetry_cell_setting 'orthorhombic'
loop_
_space_group_symop_operation_xyz
x,y,z
-x,-y,z
x,-y,-z
-x,y,-z
-x,-y,-z
x,y,-z
-x,y,z
x,-y,z
1/2+x,1/2+y,z
1/2-x,1/2-y,z
1/2+x,1/2-y,-z
1/2-x,1/2+y,-z
1/2-x,1/2-y,-z
1/2+x,1/2+y,-z
1/2-x,1/2+y,z
1/2+x,1/2-y,z
loop_
_atom_site_type_symbol
_atom_site_label
_atom_site_fract_x
_atom_site_fract_y
_atom_site_fract_z
Si Si1 0.939518 0.668743 0.267533
Si Si2 0.098179 0.828163 0.371366
Si Si3 0.295279 0.841511 0.064807
Si Si4 0.558432 0.659523 0.836690
Si Si5 0.000000 0.172175 0.560758
Si Si6 0.301354 0.329957 0.563109
Si Si7 0.409608 0.828840 0.062318
O O1 0.930393 0.500000 0.266640
O O2 0.911254 0.746813 0.315906
O O3 0.922698 0.741629 0.211696
O O4 0.000000 0.687882 0.274311
O O5 0.150345 0.793260 0.400920
O O6 0.050677 0.788394 0.408546
O O7 0.096771 0.000000 0.363332
O O8 0.250000 0.750000 0.086329
O O9 0.351504 0.790428 0.072305
O O10 0.291863 0.000000 0.086428
O O11 0.289712 0.849204 0.000000
O O12 0.500000 0.644207 0.825283
O O13 0.580409 0.500000 0.838175
O O14 0.562156 0.739740 0.893310
O O15 0.000000 0.226053 0.500000
O O16 0.000000 0.000000 0.558776
O O17 0.311871 0.298706 0.500000
O O18 0.293856 0.500000 0.567453
O O19 0.250000 0.250000 0.577793
O O20 0.415233 0.000000 0.068977
O O21 0.422068 0.797722 0.000000
#
# Coordination Sequence:
#
# PCOD9483949 Si02
#       7
#    16  16  16  16   8  16  16
#     4  10  20  34  52  73  98 128 164 203 250 309
#     4  10  18  30  51  76 102 133 171 213 253 298
#     4   8  14  25  42  65  92 121 152 185 223 274
#     4  10  21  35  51  71  96 127 166 209 249 292
#     4   9  16  26  45  75 107 135 162 199 248 297
#     4   9  18  32  50  74 104 140 181 218 253 299
#     4   9  18  32  49  71 100 131 162 197 243 300
#
# _framework density 16.569571
#
# number of rings (size 3 to 8) (size 9 to 14) (size 15 to 20)
#    0.000    2.692    0.769    2.308    0.000    5.231 
#    0.000    3.077    0.000    2.769    0.000    6.462 
#    0.000    0.000    0.000    0.000    0.000    0.000 
#
# Total GULP energy -289505.816158 kJ/mol
# GULP energy per Si atom -5567.419541 kJ/mol
# Density = 1.653186 g / cm^3
# Si number density = 16.569571 Si / 1000 Ang^3
#
#
#
# Elastic Constant Matrix: (Units=GPa)
#
#
# Indices 1 2 3 4 5 6 
#
# 1 71.4913 44.9709 44.3410 0.0000 0.0000 0.0000
# 2 44.9709 63.5490 62.5890 0.0000 0.0000 0.0000
# 3 44.3410 62.5890 110.8896 0.0000 0.0000 0.0000
# 4 0.0000 0.0000 0.0000 20.4704 0.0000 0.0000
# 5 0.0000 0.0000 0.0000 0.0000 19.2076 0.0000
# 6 0.0000 0.0000 0.0000 0.0000 0.0000 26.5535
#
#
#
# Elastic Compliance Matrix: (Units=1/GPa)
#
#
# Indices 1 2 3 4 5 6 
#
# 1 0.025210 -0.017815 -0.000025 0.000000 0.000000 0.000000
# 2 -0.017815 0.048022 -0.019982 0.000000 0.000000 0.000000
# 3 -0.000025 -0.019982 0.020306 0.000000 0.000000 0.000000
# 4 0.000000 0.000000 0.000000 0.048851 0.000000 0.000000
# 5 0.000000 0.000000 0.000000 0.000000 0.052063 0.000000
# 6 0.000000 0.000000 0.000000 0.000000 0.000000 0.037660
#
#
# Mechanical properties :
#
#
# Convention : Reuss Voigt Hill
#
# Bulk Modulus (GPa) = 55.88210 61.08132 58.48171
# Shear Modulus (GPa) = 15.93775 19.51489 17.72632
#
# Velocity S-wave (km/s) = 3.10476 3.43557 3.27435
# Velocity P-wave (km/s) = 6.83021 7.25817 7.04744
#
# Compressibility (1/GPa) = 0.01789482
#
# Stress axis : x y z
#
# Youngs Moduli (GPa) = 39.66723 20.82358 49.24597
#
# Poissons Ratio (x) = 0.37097 0.00125
# Poissons Ratio (y) = 0.70667 0.98401
# Poissons Ratio (z) = 0.00100 0.41609
#
# Static dielectric constant tensor:
#      x y z
#    x 1.584140 0.000000 0.000000 
#    y 0.000000 1.571410 0.000000 
#    z 0.000000 0.000000 1.542120 
# 
# From -- ./inp_files/60860.got.cif
#   From: 2010.05.17/outbox.cif.g08.bks.cpg/sg65_31_cif.got.tgz:60860.got - 2010.06.03 17:01:31.
