data_PCOD9483978
_publ_section_title
;
Structure prediction by ZEFSAII (Michael W. Deem and Ramdas Pophale) SiO2 
 PCOD9483978
Probable space group: C M M M
;
_chemical_formula_sum "Si O2"
_cell_formula_units_Z 120
_cell_length_a 16.188151
_cell_length_b 19.993402
_cell_length_c 19.265433
_cell_angle_alpha 90.000000
_cell_angle_beta 90.000000
_cell_angle_gamma 90.000000
_cell_volume 6235.377040
_symmetry_space_group_name_H-M "C M M M"
_symmetry_group_IT_number 65
_symmetry_cell_setting 'orthorhombic'
loop_
_space_group_symop_operation_xyz
x,y,z
-x,-y,z
x,-y,-z
-x,y,-z
-x,-y,-z
x,y,-z
-x,y,z
x,-y,z
1/2+x,1/2+y,z
1/2-x,1/2-y,z
1/2+x,1/2-y,-z
1/2-x,1/2+y,-z
1/2-x,1/2-y,-z
1/2+x,1/2+y,-z
1/2-x,1/2+y,z
1/2+x,1/2-y,z
loop_
_atom_site_type_symbol
_atom_site_label
_atom_site_fract_x
_atom_site_fract_y
_atom_site_fract_z
Si Si1 0.090072 0.418896 0.418446
Si Si2 0.750000 0.750000 0.126320
Si Si3 0.593129 0.780581 0.223541
Si Si4 0.245567 0.102486 0.921231
Si Si5 0.093197 0.837647 0.312943
Si Si6 0.256337 0.577845 0.341179
Si Si7 0.650172 0.073456 0.209299
Si Si8 0.091661 0.925213 0.174051
O O1 0.095345 0.402671 0.500000
O O2 0.089055 0.500000 0.412868
O O3 0.173117 0.398370 0.379631
O O4 0.000000 0.395077 0.392196
O O5 0.668253 0.757708 0.174067
O O6 0.754034 0.817186 0.082503
O O7 0.500000 0.762619 0.199549
O O8 0.606033 0.740495 0.295455
O O9 0.598489 0.860791 0.226550
O O10 0.317765 0.078165 0.869480
O O11 0.160804 0.081778 0.883978
O O12 0.253130 0.079679 0.000000
O O13 0.166170 0.874231 0.353631
O O14 0.096935 0.872934 0.236805
O O15 0.000000 0.847763 0.340036
O O16 0.273330 0.500000 0.359553
O O17 0.229796 0.578623 0.259965
O O18 0.612858 0.000000 0.222708
O O19 0.000000 0.918453 0.143140
O O20 0.098056 0.000000 0.204920
#
# Coordination Sequence:
#
# PCOD9483978 Si02
#       8
#    16   8  16  16  16  16  16  16
#     4   8  15  29  50  79 116 153 186 224 272 320
#     4  10  19  36  54  74  98 128 179 226 267 334
#     4  10  20  35  56  76 100 136 175 223 278 325
#     4  11  21  33  51  72 100 138 176 221 277 332
#     4  10  18  31  51  74 102 138 181 225 267 315
#     4  10  18  30  51  78 109 145 183 222 267 316
#     4  10  21  35  51  76 105 132 173 224 272 327
#     4  10  19  31  48  70  98 130 168 220 275 321
#
# _framework density 19.245027
#
# number of rings (size 3 to 8) (size 9 to 14) (size 15 to 20)
#    0.000    2.133    2.667    2.200    0.000    2.933 
#    0.000    2.000    0.000   10.000    0.000    7.467 
#    0.000    1.067    0.000    0.000    0.000    0.000 
#
# Total GULP energy -334505.085286 kJ/mol
# GULP energy per Si atom -5575.084755 kJ/mol
# Density = 1.920122 g / cm^3
# Si number density = 19.245027 Si / 1000 Ang^3
#
#
#
# Elastic Constant Matrix: (Units=GPa)
#
#
# Indices 1 2 3 4 5 6 
#
# 1 148.4308 38.3665 36.0963 0.0000 0.0000 0.0000
# 2 38.3665 108.1297 6.1178 0.0000 0.0000 0.0000
# 3 36.0963 6.1178 39.5880 0.0000 0.0000 0.0000
# 4 0.0000 0.0000 0.0000 8.5823 0.0000 0.0000
# 5 0.0000 0.0000 0.0000 0.0000 20.3876 0.0000
# 6 0.0000 0.0000 0.0000 0.0000 0.0000 26.5020
#
#
#
# Elastic Compliance Matrix: (Units=1/GPa)
#
#
# Indices 1 2 3 4 5 6 
#
# 1 0.009480 -0.002900 -0.008195 0.000000 0.000000 0.000000
# 2 -0.002900 0.010217 0.001065 0.000000 0.000000 0.000000
# 3 -0.008195 0.001065 0.032568 0.000000 0.000000 0.000000
# 4 0.000000 0.000000 0.000000 0.116520 0.000000 0.000000
# 5 0.000000 0.000000 0.000000 0.000000 0.049049 0.000000
# 6 0.000000 0.000000 0.000000 0.000000 0.000000 0.037733
#
#
# Mechanical properties :
#
#
# Convention : Reuss Voigt Hill
#
# Bulk Modulus (GPa) = 31.05159 50.81219 40.93189
# Shear Modulus (GPa) = 17.46044 25.46558 21.46301
#
# Velocity S-wave (km/s) = 3.01536 3.64157 3.34316
# Velocity P-wave (km/s) = 5.31912 6.64390 6.01808
#
# Compressibility (1/GPa) = 0.03220447
#
# Stress axis : x y z
#
# Youngs Moduli (GPa) = 105.48811 97.87779 30.70486
#
# Poissons Ratio (x) = 0.28384 0.25164
# Poissons Ratio (y) = 0.30591 -0.03271
# Poissons Ratio (z) = 0.86452 -0.10427
#
# Static dielectric constant tensor:
#      x y z
#    x 1.697050 0.000000 0.000000 
#    y 0.000000 1.729240 0.000000 
#    z 0.000000 0.000000 1.656260 
# 
# From -- ./inp_files/63020.got.cif
#   From: 2010.05.17/outbox.cif.g08.bks.cpg/sg65_32_cif.got.tgz:63020.got - 2010.06.03 17:01:31.
