data_PCOD9483789
_publ_section_title
;
Structure prediction by ZEFSAII (Michael W. Deem and Ramdas Pophale) SiO2 
 PCOD9483789
Probable space group: C M M M
;
_chemical_formula_sum "Si O2"
_cell_formula_units_Z 72
_cell_length_a 24.771266
_cell_length_b 18.244194
_cell_length_c 7.333053
_cell_angle_alpha 90.000000
_cell_angle_beta 90.000000
_cell_angle_gamma 90.000000
_cell_volume 3314.039714
_symmetry_space_group_name_H-M "C M M M"
_symmetry_group_IT_number 65
_symmetry_cell_setting 'orthorhombic'
loop_
_space_group_symop_operation_xyz
x,y,z
-x,-y,z
x,-y,-z
-x,y,-z
-x,-y,-z
x,y,-z
-x,y,z
x,-y,z
1/2+x,1/2+y,z
1/2-x,1/2-y,z
1/2+x,1/2-y,-z
1/2-x,1/2+y,-z
1/2-x,1/2-y,-z
1/2+x,1/2+y,-z
1/2-x,1/2+y,z
1/2+x,1/2-y,z
loop_
_atom_site_type_symbol
_atom_site_label
_atom_site_fract_x
_atom_site_fract_y
_atom_site_fract_z
Si Si1 0.561954 0.711500 0.723216
Si Si2 0.937996 0.500000 0.781660
Si Si3 0.237255 0.585101 0.722239
Si Si4 0.641628 0.584068 0.721931
Si Si5 0.872669 0.351898 0.712655
O O1 0.561092 0.712135 0.500000
O O2 0.500000 0.709998 0.782403
O O3 0.596295 0.640868 0.780371
O O4 0.592659 0.784695 0.786707
O O5 0.906369 0.427150 0.723537
O O6 0.000000 0.500000 0.716476
O O7 0.938912 0.500000 0.000000
O O8 0.236333 0.586289 0.500000
O O9 0.228881 0.500000 0.774540
O O10 0.297680 0.606768 0.777808
O O11 0.186979 0.632705 0.788686
O O12 0.641542 0.583816 0.500000
O O13 0.632575 0.500000 0.779168
O O14 0.864450 0.334458 0.500000
#
# Coordination Sequence:
#
# PCOD9483789 Si02
#       5
#    16   8  16  16  16
#     4   9  17  26  37  60  92 125 161 193 227 277
#     4  11  23  35  47  67  95 127 162 191 224 278
#     4   8  13  23  40  63  88 113 150 192 230 272
#     4   8  14  24  38  59  92 125 151 190 238 278
#     4  10  18  30  49  69  93 124 157 196 233 269
#
# _framework density 21.725750999999999
#
# number of rings (size 3 to 8) (size 9 to 14) (size 15 to 20)
#    0.000    3.000    1.111    2.333    0.000    3.111 
#    0.000    6.667    0.000    0.000    0.000    3.111 
#    0.000    0.000    0.000    4.667    0.000    4.444 
#
# Total GULP energy -201015.723553 kJ/mol
# GULP energy per Si atom -5583.770099 kJ/mol
# Density = 2.167630 g / cm^3
# Si number density = 21.725751 Si / 1000 Ang^3
#
#
#
# Elastic Constant Matrix: (Units=GPa)
#
#
# Indices 1 2 3 4 5 6 
#
# 1 236.2632 143.3386 7.2681 0.0000 0.0000 0.0000
# 2 143.3386 153.4492 -3.5210 0.0000 0.0000 0.0000
# 3 7.2681 -3.5210 84.1369 0.0000 0.0000 0.0000
# 4 0.0000 0.0000 0.0000 -35.0694 0.0000 0.0000
# 5 0.0000 0.0000 0.0000 0.0000 -42.8276 0.0000
# 6 0.0000 0.0000 0.0000 0.0000 0.0000 102.6943
#
#
#
# Elastic Compliance Matrix: (Units=1/GPa)
#
#
# Indices 1 2 3 4 5 6 
#
# 1 0.009897 -0.009273 -0.001243 0.000000 0.000000 0.000000
# 2 -0.009273 0.015212 0.001438 0.000000 0.000000 0.000000
# 3 -0.001243 0.001438 0.012053 0.000000 0.000000 0.000000
# 4 0.000000 0.000000 0.000000 -0.028515 0.000000 0.000000
# 5 0.000000 0.000000 0.000000 0.000000 -0.023349 0.000000
# 6 0.000000 0.000000 0.000000 0.000000 0.000000 0.009738
#
#
# Mechanical properties :
#
#
# Convention : Reuss Voigt Hill
#
# Bulk Modulus (GPa) = 52.61875 85.33563 68.97719
# Shear Modulus (GPa) = 256.05642 26.74371 141.40006
#
# Velocity S-wave (km/s) = 10.86804 3.51232 8.07622
# Velocity P-wave (km/s) = 13.48176 7.47077 10.89886
#
# Compressibility (1/GPa) = 0.01900463
#
# Stress axis : x y z
#
# Youngs Moduli (GPa) = 101.04307 65.73755 82.96735
#
# Poissons Ratio (x) = 0.60960 0.10313
# Poissons Ratio (y) = 0.93699 -0.11928
# Poissons Ratio (z) = 0.12560 -0.09451
#
# Static dielectric constant tensor:
#      x y z
#    x 1.765130 0.000000 0.000000 
#    y 0.000000 1.748770 0.000000 
#    z 0.000000 0.000000 1.810280 
# 
# From -- ./inp_files/9269.got.cif
#   From: 2010.05.17/outbox.cif.g08.bks.cpg/sg65_5_cif.got.tgz:9269.got - 2010.06.03 17:01:31.
