data_PCOD9483587
_publ_section_title
;
Structure prediction by ZEFSAII (Michael W. Deem and Ramdas Pophale) SiO2 
 PCOD9483587
Probable space group: C M M M
;
_chemical_formula_sum "Si O2"
_cell_formula_units_Z 72
_cell_length_a 13.944679
_cell_length_b 32.522411
_cell_length_c 7.604058
_cell_angle_alpha 90.000000
_cell_angle_beta 90.000000
_cell_angle_gamma 90.000000
_cell_volume 3448.551183
_symmetry_space_group_name_H-M "C M M M"
_symmetry_group_IT_number 65
_symmetry_cell_setting 'orthorhombic'
loop_
_space_group_symop_operation_xyz
x,y,z
-x,-y,z
x,-y,-z
-x,y,-z
-x,-y,-z
x,y,-z
-x,y,z
x,-y,z
1/2+x,1/2+y,z
1/2-x,1/2-y,z
1/2+x,1/2-y,-z
1/2-x,1/2+y,-z
1/2-x,1/2-y,-z
1/2+x,1/2+y,-z
1/2-x,1/2+y,z
1/2+x,1/2-y,z
loop_
_atom_site_type_symbol
_atom_site_label
_atom_site_fract_x
_atom_site_fract_y
_atom_site_fract_z
Si Si1 0.611785 0.500000 0.713543
Si Si2 0.304205 0.587470 0.715280
Si Si3 0.109277 0.629754 0.706145
Si Si4 0.000000 0.127983 0.303226
Si Si5 0.500000 0.284363 0.191960
Si Si6 0.828424 0.278931 0.203692
O O1 0.500000 0.500000 0.772632
O O2 0.608345 0.500000 0.500000
O O3 0.668453 0.458966 0.765818
O O4 0.300013 0.590058 0.500000
O O5 0.200552 0.604001 0.778399
O O6 0.397679 0.613808 0.773904
O O7 0.102331 0.619330 0.500000
O O8 0.140484 0.677582 0.719603
O O9 0.000000 0.624990 0.779658
O O10 0.000000 0.176920 0.315771
O O11 0.000000 0.109027 0.500000
O O12 0.586033 0.253071 0.203685
O O13 0.500000 0.304601 0.000000
O O14 0.750000 0.250000 0.293088
O O15 0.700625 0.212220 0.000000
#
# Coordination Sequence:
#
# PCOD9483587 Si02
#       6
#     8  16  16   8   8  16
#     4   9  14  26  49  75 103 130 158 199 255 305
#     4   9  17  29  47  74 102 128 163 205 247 297
#     4  10  20  33  48  70 103 137 166 201 249 301
#     4  10  18  29  48  74 100 124 161 211 252 288
#     4  10  20  32  45  67  97 125 161 204 243 288
#     4  10  20  34  51  69  92 127 172 215 249 288
#
# _framework density 20.878332
#
# number of rings (size 3 to 8) (size 9 to 14) (size 15 to 20)
#    0.000    2.333    2.222    1.333    0.000    1.333 
#    0.000    0.556    0.000    3.333    0.000    3.889 
#    0.000    1.778    0.000    0.000    0.000    0.000 
#
# Total GULP energy -200494.624486 kJ/mol
# GULP energy per Si atom -5569.295125 kJ/mol
# Density = 2.083081 g / cm^3
# Si number density = 20.878332 Si / 1000 Ang^3
#
#
#
# Elastic Constant Matrix: (Units=GPa)
#
#
# Indices 1 2 3 4 5 6 
#
# 1 207.2165 83.9706 16.4482 0.0000 0.0000 0.0000
# 2 83.9706 141.9408 3.8524 0.0000 0.0000 0.0000
# 3 16.4482 3.8524 44.1621 0.0000 0.0000 0.0000
# 4 0.0000 0.0000 0.0000 286.3123 0.0000 0.0000
# 5 0.0000 0.0000 0.0000 0.0000 0.1529 0.0000
# 6 0.0000 0.0000 0.0000 0.0000 0.0000 86.1720
#
#
#
# Elastic Compliance Matrix: (Units=1/GPa)
#
#
# Indices 1 2 3 4 5 6 
#
# 1 0.006537 -0.003810 -0.002102 0.000000 0.000000 0.000000
# 2 -0.003810 0.009283 0.000609 0.000000 0.000000 0.000000
# 3 -0.002102 0.000609 0.023374 0.000000 0.000000 0.000000
# 4 0.000000 0.000000 0.000000 0.003493 0.000000 0.000000
# 5 0.000000 0.000000 0.000000 0.000000 6.539677 0.000000
# 6 0.000000 0.000000 0.000000 0.000000 0.000000 0.011605
#
#
# Mechanical properties :
#
#
# Convention : Reuss Voigt Hill
#
# Bulk Modulus (GPa) = 34.98086 66.87355 50.92720
# Shear Modulus (GPa) = 0.75596 93.79734 47.27665
#
# Velocity S-wave (km/s) = 0.60238 6.70993 4.76372
# Velocity P-wave (km/s) = 4.15630 9.59847 7.39613
#
# Compressibility (1/GPa) = 0.02858706
#
# Stress axis : x y z
#
# Youngs Moduli (GPa) = 152.98361 107.72868 42.78321
#
# Poissons Ratio (x) = 0.41044 0.08994
# Poissons Ratio (y) = 0.58286 -0.02607
# Poissons Ratio (z) = 0.32160 -0.06563
#
# Static dielectric constant tensor:
#      x y z
#    x 1.746110 0.000000 0.000000 
#    y 0.000000 1.690520 0.000000 
#    z 0.000000 0.000000 1.849710 
# 
# From -- ./inp_files/7372.got.cif
#   From: 2010.05.17/outbox.cif.g08.bks.cpg/sg65_4_cif.got.tgz:7372.got - 2010.06.03 17:01:31.
