data_PCOD9483613
_publ_section_title
;
Structure prediction by ZEFSAII (Michael W. Deem and Ramdas Pophale) SiO2 
 PCOD9483613
Probable space group: C M M M
;
_chemical_formula_sum "Si O2"
_cell_formula_units_Z 112
_cell_length_a 24.083114
_cell_length_b 29.912801
_cell_length_c 7.404705
_cell_angle_alpha 90.000000
_cell_angle_beta 90.000000
_cell_angle_gamma 90.000000
_cell_volume 5334.300585
_symmetry_space_group_name_H-M "C M M M"
_symmetry_group_IT_number 65
_symmetry_cell_setting 'orthorhombic'
loop_
_space_group_symop_operation_xyz
x,y,z
-x,-y,z
x,-y,-z
-x,y,-z
-x,-y,-z
x,y,-z
-x,y,z
x,-y,z
1/2+x,1/2+y,z
1/2-x,1/2-y,z
1/2+x,1/2-y,-z
1/2-x,1/2+y,-z
1/2-x,1/2-y,-z
1/2+x,1/2+y,-z
1/2-x,1/2+y,z
1/2+x,1/2-y,z
loop_
_atom_site_type_symbol
_atom_site_label
_atom_site_fract_x
_atom_site_fract_y
_atom_site_fract_z
Si Si1 0.662050 0.642490 0.713648
Si Si2 0.891815 0.698454 0.718050
Si Si3 0.709594 0.550548 0.783196
Si Si4 0.060268 0.604784 0.788455
Si Si5 0.733892 0.800705 0.719828
Si Si6 0.563305 0.295449 0.720842
Si Si7 0.833657 0.447825 0.218914
O O1 0.662520 0.651251 0.500000
O O2 0.666998 0.589596 0.738293
O O3 0.718182 0.665994 0.785450
O O4 0.606932 0.666963 0.782270
O O5 0.891051 0.699131 0.500000
O O6 0.930330 0.657706 0.774986
O O7 0.828706 0.689787 0.781179
O O8 0.913741 0.746820 0.776320
O O9 0.697503 0.500000 0.719540
O O10 0.771558 0.564013 0.717369
O O11 0.712405 0.548367 0.000000
O O12 0.115187 0.581258 0.711555
O O13 0.000000 0.592673 0.711163
O O14 0.058792 0.592603 0.000000
O O15 0.732867 0.802553 0.500000
O O16 0.750000 0.750000 0.768180
O O17 0.562598 0.295536 0.500000
O O18 0.500000 0.302082 0.779889
O O19 0.842499 0.500000 0.260519
O O20 0.832461 0.443704 0.000000
#
# Coordination Sequence:
#
# PCOD9483613 Si02
#       7
#    16  16  16  16  16  16  16
#     4  10  18  29  49  74  97 122 154 194 233 270
#     4  10  18  30  49  68  92 127 162 191 225 278
#     4   9  18  33  52  72  95 122 150 186 237 291
#     4  10  20  31  44  66  95 124 157 200 239 266
#     4   9  15  26  45  71  98 121 150 192 237 273
#     4   9  17  29  46  68  93 124 161 193 220 263
#     4   8  15  30  50  68  88 119 157 193 232 280
#
# _framework density 20.996192000000001
#
# number of rings (size 3 to 8) (size 9 to 14) (size 15 to 20)
#    0.000    2.714    1.429    2.143    0.000    1.429 
#    0.000    2.143    0.000    3.857    0.000    4.000 
#    0.000    0.000    0.000    0.000    0.000    0.000 
#
# Total GULP energy -312678.354886 kJ/mol
# GULP energy per Si atom -5583.542052 kJ/mol
# Density = 2.094840 g / cm^3
# Si number density = 20.996192 Si / 1000 Ang^3
#
#
#
# Elastic Constant Matrix: (Units=GPa)
#
#
# Indices 1 2 3 4 5 6 
#
# 1 137.0955 63.9848 5.7590 0.0000 0.0000 0.0000
# 2 63.9848 100.2507 -6.3390 0.0000 0.0000 0.0000
# 3 5.7590 -6.3390 69.0251 0.0000 0.0000 0.0000
# 4 0.0000 0.0000 0.0000 11.8726 0.0000 0.0000
# 5 0.0000 0.0000 0.0000 0.0000 27.4949 0.0000
# 6 0.0000 0.0000 0.0000 0.0000 0.0000 16.9526
#
#
#
# Elastic Compliance Matrix: (Units=1/GPa)
#
#
# Indices 1 2 3 4 5 6 
#
# 1 0.010542 -0.006824 -0.001506 0.000000 0.000000 0.000000
# 2 -0.006824 0.014450 0.001896 0.000000 0.000000 0.000000
# 3 -0.001506 0.001896 0.014787 0.000000 0.000000 0.000000
# 4 0.000000 0.000000 0.000000 0.084228 0.000000 0.000000
# 5 0.000000 0.000000 0.000000 0.000000 0.036370 0.000000
# 6 0.000000 0.000000 0.000000 0.000000 0.000000 0.058988
#
#
# Mechanical properties :
#
#
# Convention : Reuss Voigt Hill
#
# Bulk Modulus (GPa) = 37.15762 48.13124 42.64443
# Shear Modulus (GPa) = 20.72934 27.46177 24.09555
#
# Velocity S-wave (km/s) = 3.14553 3.62047 3.39132
# Velocity P-wave (km/s) = 5.56131 6.36008 5.97406
#
# Compressibility (1/GPa) = 0.02691238
#
# Stress axis : x y z
#
# Youngs Moduli (GPa) = 94.85643 69.20329 67.62554
#
# Poissons Ratio (x) = 0.47223 0.10186
# Poissons Ratio (y) = 0.64728 -0.12824
# Poissons Ratio (z) = 0.14288 -0.13124
#
# Static dielectric constant tensor:
#      x y z
#    x 1.752700 0.000000 0.000000 
#    y 0.000000 1.729470 0.000000 
#    z 0.000000 0.000000 1.840150 
# 
# From -- ./inp_files/31078.got.cif
#   From: 2010.05.17/outbox.cif.g08.bks.cpg/sg65_16_cif.got.tgz:31078.got - 2010.06.03 17:01:31.
