data_PCOD9483696
_publ_section_title
;
Structure prediction by ZEFSAII (Michael W. Deem and Ramdas Pophale) SiO2 
 PCOD9483696
Probable space group: C M M M
;
_chemical_formula_sum "Si O2"
_cell_formula_units_Z 88
_cell_length_a 8.556925
_cell_length_b 28.101391
_cell_length_c 22.086740
_cell_angle_alpha 90.000000
_cell_angle_beta 90.000000
_cell_angle_gamma 90.000000
_cell_volume 5311.010524
_symmetry_space_group_name_H-M "C M M M"
_symmetry_group_IT_number 65
_symmetry_cell_setting 'orthorhombic'
loop_
_space_group_symop_operation_xyz
x,y,z
-x,-y,z
x,-y,-z
-x,y,-z
-x,-y,-z
x,y,-z
-x,y,z
x,-y,z
1/2+x,1/2+y,z
1/2-x,1/2-y,z
1/2+x,1/2-y,-z
1/2-x,1/2+y,-z
1/2-x,1/2-y,-z
1/2+x,1/2+y,-z
1/2-x,1/2+y,z
1/2+x,1/2-y,z
loop_
_atom_site_type_symbol
_atom_site_label
_atom_site_fract_x
_atom_site_fract_y
_atom_site_fract_z
Si Si1 0.310989 0.606149 0.932020
Si Si2 0.813767 0.696000 0.373196
Si Si3 0.690106 0.553071 0.188440
Si Si4 0.688143 0.649179 0.747485
Si Si5 0.813600 0.804167 0.500000
Si Si6 0.686359 0.801806 0.132472
O O1 0.500000 0.609212 0.930026
O O2 0.263294 0.569603 0.879189
O O3 0.243899 0.657372 0.913278
O O4 0.264530 0.592733 0.000000
O O5 0.750000 0.750000 0.366425
O O6 0.757244 0.666162 0.315775
O O7 0.748972 0.675544 0.436720
O O8 0.000000 0.698115 0.375836
O O9 0.500000 0.552163 0.189290
O O10 0.746105 0.500000 0.202585
O O11 0.736754 0.595652 0.233332
O O12 0.500000 0.651368 0.745473
O O13 0.746549 0.682993 0.801852
O O14 0.750000 0.750000 0.500000
O O15 0.000000 0.803740 0.500000
O O16 0.500000 0.801151 0.135040
O O17 0.750000 0.750000 0.115968
#
# Coordination Sequence:
#
# PCOD9483696 Si02
#       6
#    16  16  16  16   8  16
#     4   9  18  32  49  70  95 121 152 190 232 282
#     4  11  20  31  47  70 101 135 168 198 232 273
#     4   8  15  29  50  74  96 118 149 193 240 283
#     4  10  19  32  49  71  97 124 158 197 236 280
#     4  10  18  30  46  68  99 134 169 200 232 269
#     4  11  21  33  48  66  91 123 158 195 235 279
#
# _framework density 16.569351000000001
#
# number of rings (size 3 to 8) (size 9 to 14) (size 15 to 20)
#    0.000    2.182    0.000    7.364    0.000    1.091 
#    0.000    1.818    0.000   13.636    0.000    5.727 
#    0.000    5.091    0.000    0.000    0.000    0.000 
#
# Total GULP energy -245465.530086 kJ/mol
# GULP energy per Si atom -5578.762047 kJ/mol
# Density = 1.653164 g / cm^3
# Si number density = 16.569351 Si / 1000 Ang^3
#
#
#
# Elastic Constant Matrix: (Units=GPa)
#
#
# Indices 1 2 3 4 5 6 
#
# 1 81.3513 13.8936 34.0799 0.0000 0.0000 0.0000
# 2 13.8936 80.1812 31.1765 0.0000 0.0000 0.0000
# 3 34.0799 31.1765 122.1987 0.0000 0.0000 0.0000
# 4 0.0000 0.0000 0.0000 9.9373 0.0000 0.0000
# 5 0.0000 0.0000 0.0000 0.0000 25.4576 0.0000
# 6 0.0000 0.0000 0.0000 0.0000 0.0000 14.3647
#
#
#
# Elastic Compliance Matrix: (Units=1/GPa)
#
#
# Indices 1 2 3 4 5 6 
#
# 1 0.013991 -0.001007 -0.003645 0.000000 0.000000 0.000000
# 2 -0.001007 0.013918 -0.003270 0.000000 0.000000 0.000000
# 3 -0.003645 -0.003270 0.010034 0.000000 0.000000 0.000000
# 4 0.000000 0.000000 0.000000 0.100631 0.000000 0.000000
# 5 0.000000 0.000000 0.000000 0.000000 0.039281 0.000000
# 6 0.000000 0.000000 0.000000 0.000000 0.000000 0.069615
#
#
# Mechanical properties :
#
#
# Convention : Reuss Voigt Hill
#
# Bulk Modulus (GPa) = 45.25088 49.11459 47.18274
# Shear Modulus (GPa) = 18.47193 23.59066 21.03130
#
# Velocity S-wave (km/s) = 3.34252 3.77736 3.56657
# Velocity P-wave (km/s) = 6.50122 6.98074 6.74524
#
# Compressibility (1/GPa) = 0.02209902
#
# Stress axis : x y z
#
# Youngs Moduli (GPa) = 71.47261 71.85090 99.65877
#
# Poissons Ratio (x) = 0.07236 0.36327
# Poissons Ratio (y) = 0.07198 0.32588
# Poissons Ratio (z) = 0.26053 0.23495
#
# Static dielectric constant tensor:
#      x y z
#    x 1.564550 0.000000 0.000000 
#    y 0.000000 1.540890 0.000000 
#    z 0.000000 0.000000 1.567540 
# 
# From -- ./inp_files/60305.got.cif
#   From: 2010.05.17/outbox.cif.g08.bks.cpg/sg65_31_cif.got.tgz:60305.got - 2010.06.03 17:01:31.
