data_PCOD9483785
_publ_section_title
;
Structure prediction by ZEFSAII (Michael W. Deem and Ramdas Pophale) SiO2 
 PCOD9483785
Probable space group: C M M M
;
_chemical_formula_sum "Si O2"
_cell_formula_units_Z 104
_cell_length_a 8.728524
_cell_length_b 29.208073
_cell_length_c 23.959190
_cell_angle_alpha 90.000000
_cell_angle_beta 90.000000
_cell_angle_gamma 90.000000
_cell_volume 6108.236549
_symmetry_space_group_name_H-M "C M M M"
_symmetry_group_IT_number 65
_symmetry_cell_setting 'orthorhombic'
loop_
_space_group_symop_operation_xyz
x,y,z
-x,-y,z
x,-y,-z
-x,y,-z
-x,-y,-z
x,y,-z
-x,y,z
x,-y,z
1/2+x,1/2+y,z
1/2-x,1/2-y,z
1/2+x,1/2-y,-z
1/2-x,1/2+y,-z
1/2-x,1/2-y,-z
1/2+x,1/2+y,-z
1/2-x,1/2+y,z
1/2+x,1/2-y,z
loop_
_atom_site_type_symbol
_atom_site_label
_atom_site_fract_x
_atom_site_fract_y
_atom_site_fract_z
Si Si1 0.183452 0.300808 0.333539
Si Si2 0.317165 0.052110 0.603735
Si Si3 0.315706 0.140369 0.224879
Si Si4 0.683303 0.698293 0.000000
Si Si5 0.817202 0.144413 0.562258
Si Si6 0.315925 0.801311 0.884389
Si Si7 0.181378 0.947905 0.272664
O O1 0.250000 0.250000 0.330629
O O2 0.230794 0.329855 0.279022
O O3 0.240505 0.326318 0.388946
O O4 0.000000 0.298703 0.334066
O O5 0.500000 0.057327 0.598705
O O6 0.234341 0.091888 0.570053
O O7 0.269036 0.057847 0.668487
O O8 0.276228 0.000000 0.587305
O O9 0.500000 0.135158 0.226558
O O10 0.276388 0.167683 0.168772
O O11 0.238946 0.091010 0.231138
O O12 0.750000 0.750000 0.000000
O O13 0.746819 0.678821 0.941897
O O14 0.500000 0.699216 0.000000
O O15 0.773563 0.160053 0.500000
O O16 0.000000 0.147456 0.567848
O O17 0.500000 0.798178 0.889246
O O18 0.250000 0.750000 0.876410
O O19 0.000000 0.942781 0.283079
O O20 0.209223 0.000000 0.253306
#
# Coordination Sequence:
#
# PCOD9483785 Si02
#       7
#    16  16  16   8  16  16  16
#     4  11  23  39  58  79 104 136 174 216 265 314
#     4  10  20  35  56  80 106 135 168 209 261 320
#     4  10  21  35  54  81 109 140 176 216 262 314
#     4  10  18  30  48  72 105 146 187 222 262 303
#     4  11  24  40  57  78 103 134 174 218 265 318
#     4  10  19  32  50  76 110 146 184 220 260 306
#     4  10  20  33  53  80 108 139 173 211 259 313
#
# _framework density 17.026192000000002
#
# number of rings (size 3 to 8) (size 9 to 14) (size 15 to 20)
#    0.000    1.692    1.538    4.385    0.000    5.538 
#    0.000    1.538    0.000    0.000    0.000    0.538 
#    0.000    4.308    0.000    0.000    0.000    0.000 
#
# Total GULP energy -290403.177850 kJ/mol
# GULP energy per Si atom -5584.676497 kJ/mol
# Density = 1.698744 g / cm^3
# Si number density = 17.026192 Si / 1000 Ang^3
#
#
#
# Elastic Constant Matrix: (Units=GPa)
#
#
# Indices 1 2 3 4 5 6 
#
# 1 52.9576 30.2153 44.5248 0.0000 0.0000 0.0000
# 2 30.2153 87.7198 55.3362 0.0000 0.0000 0.0000
# 3 44.5248 55.3362 132.2806 0.0000 0.0000 0.0000
# 4 0.0000 0.0000 0.0000 22.5469 0.0000 0.0000
# 5 0.0000 0.0000 0.0000 0.0000 24.6615 0.0000
# 6 0.0000 0.0000 0.0000 0.0000 0.0000 31.7197
#
#
#
# Elastic Compliance Matrix: (Units=1/GPa)
#
#
# Indices 1 2 3 4 5 6 
#
# 1 0.027862 -0.005001 -0.007286 0.000000 0.000000 0.000000
# 2 -0.005001 0.016384 -0.005171 0.000000 0.000000 0.000000
# 3 -0.007286 -0.005171 0.012175 0.000000 0.000000 0.000000
# 4 0.000000 0.000000 0.000000 0.044352 0.000000 0.000000
# 5 0.000000 0.000000 0.000000 0.000000 0.040549 0.000000
# 6 0.000000 0.000000 0.000000 0.000000 0.000000 0.031526
#
#
# Mechanical properties :
#
#
# Convention : Reuss Voigt Hill
#
# Bulk Modulus (GPa) = 46.49821 59.23450 52.86636
# Shear Modulus (GPa) = 23.26300 25.31107 24.28704
#
# Velocity S-wave (km/s) = 3.70037 3.85982 3.78094
# Velocity P-wave (km/s) = 6.75471 7.39798 7.08365
#
# Compressibility (1/GPa) = 0.02150620
#
# Stress axis : x y z
#
# Youngs Moduli (GPa) = 35.89068 61.03398 82.13382
#
# Poissons Ratio (x) = 0.30522 0.59845
# Poissons Ratio (y) = 0.17948 0.42469
# Poissons Ratio (z) = 0.26151 0.31559
#
# Static dielectric constant tensor:
#      x y z
#    x 1.571110 0.000000 0.000000 
#    y 0.000000 1.567180 0.000000 
#    z 0.000000 0.000000 1.583960 
# 
# From -- ./inp_files/60887.got.cif
#   From: 2010.05.17/outbox.cif.g08.bks.cpg/sg65_31_cif.got.tgz:60887.got - 2010.06.03 17:01:31.
