data_PCOD9483029
_publ_section_title
;
Structure prediction by ZEFSAII (Michael W. Deem and Ramdas Pophale) SiO2 
 PCOD9483029
Probable space group: C M M M
;
_chemical_formula_sum "Si O2"
_cell_formula_units_Z 104
_cell_length_a 17.465180
_cell_length_b 27.578246
_cell_length_c 12.444988
_cell_angle_alpha 90.000000
_cell_angle_beta 90.000000
_cell_angle_gamma 90.000000
_cell_volume 5994.240854
_symmetry_space_group_name_H-M "C M M M"
_symmetry_group_IT_number 65
_symmetry_cell_setting 'orthorhombic'
loop_
_space_group_symop_operation_xyz
x,y,z
-x,-y,z
x,-y,-z
-x,y,-z
-x,-y,-z
x,y,-z
-x,y,z
x,-y,z
1/2+x,1/2+y,z
1/2-x,1/2-y,z
1/2+x,1/2-y,-z
1/2-x,1/2+y,-z
1/2-x,1/2-y,-z
1/2+x,1/2+y,-z
1/2-x,1/2+y,z
1/2+x,1/2-y,z
loop_
_atom_site_type_symbol
_atom_site_label
_atom_site_fract_x
_atom_site_fract_y
_atom_site_fract_z
Si Si1 0.086120 0.364151 0.237369
Si Si2 0.801163 0.944166 0.000000
Si Si3 0.244776 0.338080 0.000000
Si Si4 0.744782 0.192934 0.764455
Si Si5 0.912746 0.056026 0.795376
Si Si6 0.664266 0.055322 0.373103
Si Si7 0.581949 0.851110 0.000000
Si Si8 0.822269 0.887043 0.626290
O O1 0.156781 0.326403 0.246686
O O2 0.107598 0.409534 0.310309
O O3 0.000000 0.345958 0.261788
O O4 0.085724 0.379341 0.111801
O O5 0.854542 0.938773 0.894774
O O6 0.746303 0.897079 0.000000
O O7 0.770373 0.000000 0.000000
O O8 0.275087 0.320744 0.115221
O O9 0.157317 0.318708 0.000000
O O10 0.750000 0.250000 0.749602
O O11 0.793732 0.163231 0.677599
O O12 0.889186 0.090857 0.698560
O O13 0.000000 0.064637 0.831040
O O14 0.907433 0.000000 0.759018
O O15 0.647339 0.056784 0.500000
O O16 0.749772 0.076533 0.359305
O O17 0.660794 0.000000 0.335704
O O18 0.500000 0.824705 0.000000
O O19 0.839260 0.883440 0.500000
#
# Coordination Sequence:
#
# PCOD9483029 Si02
#       8
#    16   8   8  16  16  16   8  16
#     4   9  18  33  52  73 101 134 167 206 256 309
#     4  10  19  33  55  82 111 141 177 219 268 329
#     4  10  17  33  58  82 103 135 177 223 266 315
#     4  10  20  35  56  79 103 137 180 228 269 315
#     4  10  20  34  54  79 109 145 179 217 271 331
#     4   9  18  32  51  75 102 132 168 211 255 302
#     4   8  16  31  48  70 101 133 161 196 245 301
#     4  10  20  35  53  75 105 140 179 223 267 314
#
# _framework density 17.349986999999999
#
# number of rings (size 3 to 8) (size 9 to 14) (size 15 to 20)
#    0.000    2.462    1.538    0.923    0.000    3.077 
#    0.000    2.692    0.000    2.538    0.000    0.000 
#    0.000    0.000    0.000    0.000    0.000    0.000 
#
# Total GULP energy -289495.128261 kJ/mol
# GULP energy per Si atom -5567.214005 kJ/mol
# Density = 1.731050 g / cm^3
# Si number density = 17.349987 Si / 1000 Ang^3
#
#
#
# Elastic Constant Matrix: (Units=GPa)
#
#
# Indices 1 2 3 4 5 6 
#
# 1 40.1955 27.1800 7.4857 0.0000 0.0000 0.0000
# 2 27.1800 121.1025 33.2497 0.0000 0.0000 0.0000
# 3 7.4857 33.2497 58.0794 0.0000 0.0000 0.0000
# 4 0.0000 0.0000 0.0000 15.2951 0.0000 0.0000
# 5 0.0000 0.0000 0.0000 0.0000 13.6387 0.0000
# 6 0.0000 0.0000 0.0000 0.0000 0.0000 11.9655
#
#
#
# Elastic Compliance Matrix: (Units=1/GPa)
#
#
# Indices 1 2 3 4 5 6 
#
# 1 0.029330 -0.006579 -0.000014 0.000000 0.000000 0.000000
# 2 -0.006579 0.011273 -0.005606 0.000000 0.000000 0.000000
# 3 -0.000014 -0.005606 0.020429 0.000000 0.000000 0.000000
# 4 0.000000 0.000000 0.000000 0.065381 0.000000 0.000000
# 5 0.000000 0.000000 0.000000 0.000000 0.073321 0.000000
# 6 0.000000 0.000000 0.000000 0.000000 0.000000 0.083574
#
#
# Mechanical properties :
#
#
# Convention : Reuss Voigt Hill
#
# Bulk Modulus (GPa) = 27.29672 39.46757 33.38214
# Shear Modulus (GPa) = 15.62914 18.27732 16.95323
#
# Velocity S-wave (km/s) = 3.00461 3.24921 3.12930
# Velocity P-wave (km/s) = 5.27296 6.07238 5.68673
#
# Compressibility (1/GPa) = 0.03663443
#
# Stress axis : x y z
#
# Youngs Moduli (GPa) = 34.09527 88.70660 48.95047
#
# Poissons Ratio (x) = 0.58359 0.00068
# Poissons Ratio (y) = 0.22431 0.27440
# Poissons Ratio (z) = 0.00048 0.49727
#
# Static dielectric constant tensor:
#      x y z
#    x 1.620100 0.000000 0.000000 
#    y 0.000000 1.562400 0.000000 
#    z 0.000000 0.000000 1.603660 
# 
# From -- ./inp_files/27554.got.cif
#   From: 2010.05.17/outbox.cif.g08.bks.cpg/sg65_14_cif.got.tgz:27554.got - 2010.06.03 17:01:31.
