data_PCOD9483318
_publ_section_title
;
Structure prediction by ZEFSAII (Michael W. Deem and Ramdas Pophale) SiO2 
 PCOD9483318
Probable space group: C M M M
;
_chemical_formula_sum "Si O2"
_cell_formula_units_Z 96
_cell_length_a 26.131529
_cell_length_b 24.630945
_cell_length_c 7.355220
_cell_angle_alpha 90.000000
_cell_angle_beta 90.000000
_cell_angle_gamma 90.000000
_cell_volume 4734.145087
_symmetry_space_group_name_H-M "C M M M"
_symmetry_group_IT_number 65
_symmetry_cell_setting 'orthorhombic'
loop_
_space_group_symop_operation_xyz
x,y,z
-x,-y,z
x,-y,-z
-x,y,-z
-x,-y,-z
x,y,-z
-x,y,z
x,-y,z
1/2+x,1/2+y,z
1/2-x,1/2-y,z
1/2+x,1/2-y,-z
1/2-x,1/2+y,-z
1/2-x,1/2-y,-z
1/2+x,1/2+y,-z
1/2-x,1/2+y,z
1/2+x,1/2-y,z
loop_
_atom_site_type_symbol
_atom_site_label
_atom_site_fract_x
_atom_site_fract_y
_atom_site_fract_z
Si Si1 0.058056 0.938995 0.718200
Si Si2 0.154684 0.866425 0.785350
Si Si3 0.558247 0.938050 0.778582
Si Si4 0.309824 0.250060 0.221842
Si Si5 0.749388 0.562143 0.222070
Si Si6 0.347268 0.866752 0.221791
O O1 0.056303 0.941149 0.500000
O O2 0.099648 0.893914 0.764030
O O3 0.000000 0.927934 0.781544
O O4 0.072887 0.000000 0.781505
O O5 0.163094 0.805453 0.715607
O O6 0.198483 0.906912 0.714694
O O7 0.164303 0.862388 0.000000
O O8 0.500000 0.926453 0.721670
O O9 0.600411 0.895118 0.717864
O O10 0.571213 0.000000 0.724696
O O11 0.558484 0.937689 0.000000
O O12 0.250000 0.250000 0.274825
O O13 0.337199 0.194775 0.281325
O O14 0.310281 0.249124 0.000000
O O15 0.751018 0.500000 0.282194
O O16 0.799193 0.596120 0.275943
O O17 0.748965 0.561299 0.000000
O O18 0.347903 0.866377 0.000000
#
# Coordination Sequence:
#
# PCOD9483318 Si02
#       6
#    16  16  16  16  16  16
#     4   9  19  36  54  69  89 121 156 187 228 285
#     4  10  18  28  45  70  96 119 149 190 232 268
#     4   8  13  20  29  42  63  95 136 179 217 250
#     4   9  15  25  38  56  85 123 153 174 213 269
#     4   9  15  21  33  57  85 109 140 185 229 266
#     4   9  14  21  33  49  73 109 147 176 211 262
#
# _framework density 20.278213000000001
#
# number of rings (size 3 to 8) (size 9 to 14) (size 15 to 20)
#    0.000    3.000    1.667    2.000    0.000    3.333 
#    0.000    1.667    0.000    3.500    0.000    0.000 
#    0.000    0.000    0.000    0.000    0.000    0.167 
#
# Total GULP energy -267921.410505 kJ/mol
# GULP energy per Si atom -5581.696052 kJ/mol
# Density = 2.023206 g / cm^3
# Si number density = 20.278213 Si / 1000 Ang^3
#
#
#
# Elastic Constant Matrix: (Units=GPa)
#
#
# Indices 1 2 3 4 5 6 
#
# 1 156.3861 136.1951 -1.7966 0.0000 0.0000 0.0000
# 2 136.1951 238.8659 6.7828 0.0000 0.0000 0.0000
# 3 -1.7966 6.7828 72.3819 0.0000 0.0000 0.0000
# 4 0.0000 0.0000 0.0000 -6.2036 0.0000 0.0000
# 5 0.0000 0.0000 0.0000 0.0000 21.3359 0.0000
# 6 0.0000 0.0000 0.0000 0.0000 0.0000 26.4758
#
#
#
# Elastic Compliance Matrix: (Units=1/GPa)
#
#
# Indices 1 2 3 4 5 6 
#
# 1 0.012774 -0.007312 0.001002 0.000000 0.000000 0.000000
# 2 -0.007312 0.008383 -0.000967 0.000000 0.000000 0.000000
# 3 0.001002 -0.000967 0.013931 0.000000 0.000000 0.000000
# 4 0.000000 0.000000 0.000000 -0.161197 0.000000 0.000000
# 5 0.000000 0.000000 0.000000 0.000000 0.046869 0.000000
# 6 0.000000 0.000000 0.000000 0.000000 0.000000 0.037770
#
#
# Mechanical properties :
#
#
# Convention : Reuss Voigt Hill
#
# Bulk Modulus (GPa) = 48.69826 83.33297 66.01562
# Shear Modulus (GPa) = -249.09755 30.08513 -109.50621
#
# Velocity S-wave (km/s) = -11.09534 3.85596 -7.35657
# Velocity P-wave (km/s) = 11.83533 7.81080 6.28755
#
# Compressibility (1/GPa) = 0.02053461
#
# Stress axis : x y z
#
# Youngs Moduli (GPa) = 78.28685 119.29206 71.78183
#
# Poissons Ratio (x) = 0.87222 -0.07194
# Poissons Ratio (y) = 0.57240 0.06941
# Poissons Ratio (z) = -0.07846 0.11536
#
# Static dielectric constant tensor:
#      x y z
#    x 1.681930 0.000000 0.000000 
#    y 0.000000 1.695570 0.000000 
#    z 0.000000 0.000000 1.783930 
# 
# From -- ./inp_files/16652.got.cif
#   From: 2010.05.17/outbox.cif.g08.bks.cpg/sg65_9_cif.got.tgz:16652.got - 2010.06.03 17:01:31.
