data_PCOD9483706
_publ_section_title
;
Structure prediction by ZEFSAII (Michael W. Deem and Ramdas Pophale) SiO2 
 PCOD9483706
Probable space group: C M M M
;
_chemical_formula_sum "Si O2"
_cell_formula_units_Z 88
_cell_length_a 29.235398
_cell_length_b 16.401167
_cell_length_c 11.849258
_cell_angle_alpha 90.000000
_cell_angle_beta 90.000000
_cell_angle_gamma 90.000000
_cell_volume 5681.655757
_symmetry_space_group_name_H-M "C M M M"
_symmetry_group_IT_number 65
_symmetry_cell_setting 'orthorhombic'
loop_
_space_group_symop_operation_xyz
x,y,z
-x,-y,z
x,-y,-z
-x,y,-z
-x,-y,-z
x,y,-z
-x,y,z
x,-y,z
1/2+x,1/2+y,z
1/2-x,1/2-y,z
1/2+x,1/2-y,-z
1/2-x,1/2+y,-z
1/2-x,1/2-y,-z
1/2+x,1/2+y,-z
1/2-x,1/2+y,z
1/2+x,1/2-y,z
loop_
_atom_site_type_symbol
_atom_site_label
_atom_site_fract_x
_atom_site_fract_y
_atom_site_fract_z
Si Si1 0.947291 0.665142 0.755989
Si Si2 0.819157 0.594024 0.000000
Si Si3 0.444787 0.000000 0.626031
Si Si4 0.720422 0.334025 0.371809
Si Si5 0.199597 0.404715 0.751951
Si Si6 0.428976 0.904397 0.000000
Si Si7 0.863755 0.272267 0.364838
O O1 0.933478 0.581128 0.693194
O O2 0.910180 0.727884 0.707613
O O3 0.000000 0.685176 0.728118
O O4 0.944217 0.642666 0.887749
O O5 0.803651 0.628702 0.119971
O O6 0.874029 0.594308 0.000000
O O7 0.803086 0.500000 0.000000
O O8 0.500000 0.000000 0.618367
O O9 0.425510 0.000000 0.500000
O O10 0.720658 0.365277 0.500000
O O11 0.750000 0.250000 0.371389
O O12 0.748929 0.393393 0.292551
O O13 0.669478 0.304834 0.342109
O O14 0.186121 0.500000 0.750632
O O15 0.165769 0.351019 0.674991
O O16 0.444301 0.000000 0.000000
O O17 0.871971 0.276630 0.500000
#
# Coordination Sequence:
#
# PCOD9483706 Si02
#       7
#    16   8   8  16  16   8  16
#     4  11  21  31  44  60  81 114 152 186 217 254
#     4   9  18  29  42  62  88 114 145 183 218 254
#     4   9  18  29  39  57  81 102 135 183 221 245
#     4   8  16  31  46  62  86 113 139 175 224 270
#     4  10  18  30  47  66  86 112 148 183 215 260
#     4  11  19  32  44  56  83 119 153 187 227 256
#     4  10  20  32  45  62  89 117 142 181 227 265
#
# _framework density 15.488443
#
# number of rings (size 3 to 8) (size 9 to 14) (size 15 to 20)
#    0.000    2.273    2.727    2.455    1.273    2.909 
#    0.000    5.000    0.000    0.000    0.000    0.000 
#    0.000    0.727    0.000    4.000    0.000    7.455 
#
# Total GULP energy -245088.549411 kJ/mol
# GULP energy per Si atom -5570.194305 kJ/mol
# Density = 1.545319 g / cm^3
# Si number density = 15.488443 Si / 1000 Ang^3
#
#
#
# Elastic Constant Matrix: (Units=GPa)
#
#
# Indices 1 2 3 4 5 6 
#
# 1 104.8390 12.9182 38.8973 0.0000 0.0000 0.0000
# 2 12.9182 9.8397 9.1465 0.0000 0.0000 0.0000
# 3 38.8973 9.1465 87.1794 0.0000 0.0000 0.0000
# 4 0.0000 0.0000 0.0000 19.7475 0.0000 0.0000
# 5 0.0000 0.0000 0.0000 0.0000 11.0927 0.0000
# 6 0.0000 0.0000 0.0000 0.0000 0.0000 20.2986
#
#
#
# Elastic Compliance Matrix: (Units=1/GPa)
#
#
# Indices 1 2 3 4 5 6 
#
# 1 0.012708 -0.012647 -0.004343 0.000000 0.000000 0.000000
# 2 -0.012647 0.125197 -0.007492 0.000000 0.000000 0.000000
# 3 -0.004343 -0.007492 0.014195 0.000000 0.000000 0.000000
# 4 0.000000 0.000000 0.000000 0.050639 0.000000 0.000000
# 5 0.000000 0.000000 0.000000 0.000000 0.090150 0.000000
# 6 0.000000 0.000000 0.000000 0.000000 0.000000 0.049264
#
#
# Mechanical properties :
#
#
# Convention : Reuss Voigt Hill
#
# Bulk Modulus (GPa) = 9.69605 35.97580 22.83593
# Shear Modulus (GPa) = 11.75097 19.62083 15.68590
#
# Velocity S-wave (km/s) = 2.75743 3.56308 3.18582
# Velocity P-wave (km/s) = 4.05113 6.34077 5.32057
#
# Compressibility (1/GPa) = 0.10313481
#
# Stress axis : x y z
#
# Youngs Moduli (GPa) = 78.68926 7.98739 70.44976
#
# Poissons Ratio (x) = 0.10102 0.30598
# Poissons Ratio (y) = 0.99518 0.52784
# Poissons Ratio (z) = 0.34176 0.05985
#
# Static dielectric constant tensor:
#      x y z
#    x 1.547530 0.000000 0.000000 
#    y 0.000000 1.497520 0.000000 
#    z 0.000000 0.000000 1.549680 
# 
# From -- ./inp_files/34101.got.cif
#   From: 2010.05.17/outbox.cif.g08.bks.cpg/sg65_18_cif.got.tgz:34101.got - 2010.06.03 17:01:31.
