data_PCOD9483678
_publ_section_title
;
Structure prediction by ZEFSAII (Michael W. Deem and Ramdas Pophale) SiO2 
 PCOD9483678
Probable space group: C M M M
;
_chemical_formula_sum "Si O2"
_cell_formula_units_Z 60
_cell_length_a 25.857748
_cell_length_b 5.425768
_cell_length_c 22.335809
_cell_angle_alpha 90.000000
_cell_angle_beta 90.000000
_cell_angle_gamma 90.000000
_cell_volume 3133.672495
_symmetry_space_group_name_H-M "C M M M"
_symmetry_group_IT_number 65
_symmetry_cell_setting 'orthorhombic'
loop_
_space_group_symop_operation_xyz
x,y,z
-x,-y,z
x,-y,-z
-x,y,-z
-x,-y,-z
x,y,-z
-x,y,z
x,-y,z
1/2+x,1/2+y,z
1/2-x,1/2-y,z
1/2+x,1/2-y,-z
1/2-x,1/2+y,-z
1/2-x,1/2-y,-z
1/2+x,1/2+y,-z
1/2-x,1/2+y,z
1/2+x,1/2-y,z
loop_
_atom_site_type_symbol
_atom_site_label
_atom_site_fract_x
_atom_site_fract_y
_atom_site_fract_z
Si Si1 0.060059 0.000000 0.411668
Si Si2 0.780965 0.500000 0.428344
Si Si3 0.783877 0.000000 0.264487
Si Si4 0.714926 0.500000 0.000000
Si Si5 0.216097 0.000000 0.871292
Si Si6 0.103993 0.500000 0.401863
Si Si7 0.897354 0.000000 0.721175
Si Si8 0.061441 0.500000 0.266964
O O1 0.086880 0.249001 0.432874
O O2 0.067891 0.000000 0.339270
O O3 0.000000 0.000000 0.425766
O O4 0.791671 0.500000 0.500000
O O5 0.750000 0.250000 0.414941
O O6 0.834880 0.500000 0.394243
O O7 0.750000 0.750000 0.272787
O O8 0.805834 0.000000 0.195824
O O9 0.837700 0.000000 0.300232
O O10 0.750000 0.250000 0.000000
O O11 0.686643 0.500000 0.935289
O O12 0.250000 0.250000 0.872317
O O13 0.075483 0.500000 0.337760
O O14 0.912235 0.750779 0.755495
O O15 0.000000 0.500000 0.258716
#
# Coordination Sequence:
#
# PCOD9483678 Si02
#       8
#     8   8   8   4   8   8   8   8
#     4  10  19  33  51  70  92 116 144 184 227 260
#     4  10  21  37  54  72  96 124 150 177 209 248
#     4  10  19  30  40  57  89 124 150 176 211 254
#     4   8  12  20  34  52  68  94 141 182 209 246
#     4   8  14  23  36  51  73 106 142 177 212 247
#     4  10  18  32  53  73  90 117 150 178 215 258
#     4  10  18  30  46  65  86 120 152 174 216 264
#     4  10  19  33  50  68  89 113 143 185 228 259
#
# _framework density 19.146863
#
# number of rings (size 3 to 8) (size 9 to 14) (size 15 to 20)
#    0.000    2.400    0.000    5.600    0.000    0.000 
#    0.000   16.000    0.000    4.400    0.000    0.000 
#    0.000    0.000    0.000    6.600    0.000    2.267 
#
# Total GULP energy -167188.415039 kJ/mol
# GULP energy per Si atom -5572.947168 kJ/mol
# Density = 1.910328 g / cm^3
# Si number density = 19.146863 Si / 1000 Ang^3
#
#
#
# Elastic Constant Matrix: (Units=GPa)
#
#
# Indices 1 2 3 4 5 6 
#
# 1 119.2614 65.4732 -17.1999 0.0000 0.0000 0.0000
# 2 65.4732 223.9752 -15.7941 0.0000 0.0000 0.0000
# 3 -17.1999 -15.7941 52.1342 0.0000 0.0000 0.0000
# 4 0.0000 0.0000 0.0000 -54.7925 0.0000 0.0000
# 5 0.0000 0.0000 0.0000 0.0000 4.8591 0.0000
# 6 0.0000 0.0000 0.0000 0.0000 0.0000 31.6998
#
#
#
# Elastic Compliance Matrix: (Units=1/GPa)
#
#
# Indices 1 2 3 4 5 6 
#
# 1 0.010307 -0.002834 0.002542 0.000000 0.000000 0.000000
# 2 -0.002834 0.005341 0.000683 0.000000 0.000000 0.000000
# 3 0.002542 0.000683 0.020227 0.000000 0.000000 0.000000
# 4 0.000000 0.000000 0.000000 -0.018251 0.000000 0.000000
# 5 0.000000 0.000000 0.000000 0.000000 0.205798 0.000000
# 6 0.000000 0.000000 0.000000 0.000000 0.000000 0.031546
#
#
# Mechanical properties :
#
#
# Convention : Reuss Voigt Hill
#
# Bulk Modulus (GPa) = 27.27878 51.14767 39.21323
# Shear Modulus (GPa) = 18.76836 20.54606 19.65721
#
# Velocity S-wave (km/s) = 3.13426 3.27934 3.20762
# Velocity P-wave (km/s) = 5.23223 6.41171 5.85176
#
# Compressibility (1/GPa) = 0.03665853
#
# Stress axis : x y z
#
# Youngs Moduli (GPa) = 97.01878 187.21873 49.43906
#
# Poissons Ratio (x) = 0.53054 -0.12568
# Poissons Ratio (y) = 0.27493 -0.03378
# Poissons Ratio (z) = -0.24663 -0.12792
#
# Static dielectric constant tensor:
#      x y z
#    x 1.611180 0.000000 0.000000 
#    y 0.000000 1.904050 0.000000 
#    z 0.000000 0.000000 1.757480 
# 
# From -- ./inp_files/71317.got.cif
#   From: 2010.05.17/outbox.cif.g08.bks.cpg/sg65_36_cif.got.tgz:71317.got - 2010.06.03 17:01:31.
