data_PCOD9483850
_publ_section_title
;
Structure prediction by ZEFSAII (Michael W. Deem and Ramdas Pophale) SiO2 
 PCOD9483850
Probable space group: C M M M
;
_chemical_formula_sum "Si O2"
_cell_formula_units_Z 80
_cell_length_a 18.711490
_cell_length_b 8.429924
_cell_length_c 27.043736
_cell_angle_alpha 90.000000
_cell_angle_beta 90.000000
_cell_angle_gamma 90.000000
_cell_volume 4265.782604
_symmetry_space_group_name_H-M "C M M M"
_symmetry_group_IT_number 65
_symmetry_cell_setting 'orthorhombic'
loop_
_space_group_symop_operation_xyz
x,y,z
-x,-y,z
x,-y,-z
-x,y,-z
-x,-y,-z
x,y,-z
-x,y,z
x,-y,z
1/2+x,1/2+y,z
1/2-x,1/2-y,z
1/2+x,1/2-y,-z
1/2-x,1/2+y,-z
1/2-x,1/2-y,-z
1/2+x,1/2+y,-z
1/2-x,1/2+y,z
1/2+x,1/2-y,z
loop_
_atom_site_type_symbol
_atom_site_label
_atom_site_fract_x
_atom_site_fract_y
_atom_site_fract_z
Si Si1 0.583024 0.807614 0.107871
Si Si2 0.413054 0.183950 0.000000
Si Si3 0.831556 0.190165 0.395686
Si Si4 0.417880 0.693694 0.298824
Si Si5 0.169275 0.809888 0.797864
Si Si6 0.168058 0.311453 0.500000
O O1 0.500000 0.760293 0.115412
O O2 0.607484 0.747830 0.053423
O O3 0.631138 0.748522 0.152389
O O4 0.584354 0.000000 0.106496
O O5 0.500000 0.182870 0.000000
O O6 0.389687 0.000000 0.000000
O O7 0.750000 0.250000 0.390655
O O8 0.877573 0.243901 0.348722
O O9 0.862335 0.249430 0.448159
O O10 0.829848 0.000000 0.396757
O O11 0.500000 0.746056 0.297632
O O12 0.417912 0.500000 0.298785
O O13 0.375225 0.745733 0.250109
O O14 0.250000 0.750000 0.795126
O O15 0.169311 0.000000 0.797677
O O16 0.168278 0.500000 0.500000
O O17 0.250000 0.250000 0.500000
#
# Coordination Sequence:
#
# PCOD9483850 Si02
#       6
#    16   8  16  16  16   8
#     4   9  17  32  55  81 107 136 172 212 256 308
#     4   7  12  26  50  77 104 135 169 207 252 303
#     4  10  18  31  53  77 102 132 168 207 246 294
#     4   9  19  35  54  76 101 131 168 210 256 306
#     4  11  22  36  54  76 105 138 174 216 262 310
#     4  10  18  30  49  74 105 135 167 205 245 292
#
# _framework density 18.753886000000001
#
# number of rings (size 3 to 8) (size 9 to 14) (size 15 to 20)
#    0.000    2.500    0.000    5.700    0.000    1.200 
#    0.000    4.500    0.000   12.000    0.000    0.000 
#    0.000    0.000    0.000    0.000    0.000    0.000 
#
# Total GULP energy -223095.956167 kJ/mol
# GULP energy per Si atom -5577.398904 kJ/mol
# Density = 1.871120 g / cm^3
# Si number density = 18.753886 Si / 1000 Ang^3
#
#
#
# Elastic Constant Matrix: (Units=GPa)
#
#
# Indices 1 2 3 4 5 6 
#
# 1 115.0857 20.7951 105.5274 0.0000 0.0000 0.0000
# 2 20.7951 40.3073 33.5406 0.0000 0.0000 0.0000
# 3 105.5274 33.5406 237.6023 0.0000 0.0000 0.0000
# 4 0.0000 0.0000 0.0000 13.5659 0.0000 0.0000
# 5 0.0000 0.0000 0.0000 0.0000 33.1201 0.0000
# 6 0.0000 0.0000 0.0000 0.0000 0.0000 1.4307
#
#
#
# Elastic Compliance Matrix: (Units=1/GPa)
#
#
# Indices 1 2 3 4 5 6 
#
# 1 0.014872 -0.002466 -0.006257 0.000000 0.000000 0.000000
# 2 -0.002466 0.028520 -0.002931 0.000000 0.000000 0.000000
# 3 -0.006257 -0.002931 0.007401 0.000000 0.000000 0.000000
# 4 0.000000 0.000000 0.000000 0.073714 0.000000 0.000000
# 5 0.000000 0.000000 0.000000 0.000000 0.030193 0.000000
# 6 0.000000 0.000000 0.000000 0.000000 0.000000 0.698958
#
#
# Mechanical properties :
#
#
# Convention : Reuss Voigt Hill
#
# Bulk Modulus (GPa) = 36.38198 79.19130 57.78664
# Shear Modulus (GPa) = 5.64252 25.16548 15.40400
#
# Velocity S-wave (km/s) = 1.73645 3.66714 2.86908
# Velocity P-wave (km/s) = 4.84377 7.76201 6.46958
#
# Compressibility (1/GPa) = 0.02748613
#
# Stress axis : x y z
#
# Youngs Moduli (GPa) = 67.23920 35.06259 135.10860
#
# Poissons Ratio (x) = 0.08647 0.84540
# Poissons Ratio (y) = 0.16582 0.39597
# Poissons Ratio (z) = 0.42073 0.10276
#
# Static dielectric constant tensor:
#      x y z
#    x 1.617090 0.000000 0.000000 
#    y 0.000000 1.631990 0.000000 
#    z 0.000000 0.000000 1.678580 
# 
# From -- ./inp_files/70826.got.cif
#   From: 2010.05.17/outbox.cif.g08.bks.cpg/sg65_36_cif.got.tgz:70826.got - 2010.06.03 17:01:31.
