data_PCOD9483193
_publ_section_title
;
Structure prediction by ZEFSAII (Michael W. Deem and Ramdas Pophale) SiO2 
 PCOD9483193
Probable space group: C M M M
;
_chemical_formula_sum "Si O2"
_cell_formula_units_Z 88
_cell_length_a 21.878396
_cell_length_b 28.691873
_cell_length_c 7.515194
_cell_angle_alpha 90.000000
_cell_angle_beta 90.000000
_cell_angle_gamma 90.000000
_cell_volume 4717.528958
_symmetry_space_group_name_H-M "C M M M"
_symmetry_group_IT_number 65
_symmetry_cell_setting 'orthorhombic'
loop_
_space_group_symop_operation_xyz
x,y,z
-x,-y,z
x,-y,-z
-x,y,-z
-x,-y,-z
x,y,-z
-x,y,z
x,-y,z
1/2+x,1/2+y,z
1/2-x,1/2-y,z
1/2+x,1/2-y,-z
1/2-x,1/2+y,-z
1/2-x,1/2-y,-z
1/2+x,1/2+y,-z
1/2-x,1/2+y,z
1/2+x,1/2-y,z
loop_
_atom_site_type_symbol
_atom_site_label
_atom_site_fract_x
_atom_site_fract_y
_atom_site_fract_z
Si Si1 0.068656 0.443341 0.500000
Si Si2 0.866979 0.704585 0.786594
Si Si3 0.132372 0.187679 0.218647
Si Si4 0.743908 0.860184 0.216387
Si Si5 0.500000 0.212530 0.704714
Si Si6 0.500000 0.318531 0.200911
Si Si7 0.166925 0.445431 0.789427
O O1 0.064482 0.500000 0.500000
O O2 0.108538 0.431076 0.672716
O O3 0.000000 0.424358 0.500000
O O4 0.860638 0.758251 0.726265
O O5 0.811377 0.673107 0.721174
O O6 0.935591 0.687941 0.741806
O O7 0.862882 0.704997 0.000000
O O8 0.190492 0.157951 0.277271
O O9 0.065961 0.169980 0.281203
O O10 0.130727 0.187736 0.000000
O O11 0.723333 0.912392 0.260924
O O12 0.745417 0.857306 0.000000
O O13 0.500000 0.226081 0.500000
O O14 0.500000 0.261738 0.808322
O O15 0.500000 0.337264 0.000000
O O16 0.179108 0.500000 0.757060
O O17 0.154639 0.439320 0.000000
#
# Coordination Sequence:
#
# PCOD9483193 Si02
#       7
#     8  16  16  16   8   8  16
#     4   9  18  34  54  72  91 121 157 199 244 278
#     4   9  16  28  44  61  83 115 153 187 219 264
#     4   8  13  23  44  69  88 110 147 187 223 264
#     4   9  16  27  45  68  89 114 148 189 230 269
#     4  10  18  28  40  56  85 120 147 180 224 264
#     4   8  14  26  46  66  83 113 150 183 216 264
#     4   9  18  33  51  71  95 122 155 194 235 281
#
# _framework density 18.653834
#
# number of rings (size 3 to 8) (size 9 to 14) (size 15 to 20)
#    0.000    3.182    0.000    2.455    0.000    2.545 
#    3.273    1.818    8.000    4.364    0.000    0.636 
#    0.000    5.091    0.000    3.273    0.000    9.364 
#
# Total GULP energy -245228.835475 kJ/mol
# GULP energy per Si atom -5573.382624 kJ/mol
# Density = 1.861138 g / cm^3
# Si number density = 18.653834 Si / 1000 Ang^3
#
#
#
# Elastic Constant Matrix: (Units=GPa)
#
#
# Indices 1 2 3 4 5 6 
#
# 1 206.9473 76.0500 20.5351 0.0000 0.0000 0.0000
# 2 76.0500 67.3513 19.7094 0.0000 0.0000 0.0000
# 3 20.5351 19.7094 55.7306 0.0000 0.0000 0.0000
# 4 0.0000 0.0000 0.0000 -5.2631 0.0000 0.0000
# 5 0.0000 0.0000 0.0000 0.0000 -32.4535 0.0000
# 6 0.0000 0.0000 0.0000 0.0000 0.0000 13.2150
#
#
#
# Elastic Compliance Matrix: (Units=1/GPa)
#
#
# Indices 1 2 3 4 5 6 
#
# 1 0.008263 -0.009414 0.000284 0.000000 0.000000 0.000000
# 2 -0.009414 0.027286 -0.006181 0.000000 0.000000 0.000000
# 3 0.000284 -0.006181 0.020025 0.000000 0.000000 0.000000
# 4 0.000000 0.000000 0.000000 -0.190003 0.000000 0.000000
# 5 0.000000 0.000000 0.000000 0.000000 -0.030813 0.000000
# 6 0.000000 0.000000 0.000000 0.000000 0.000000 0.075672
#
#
# Mechanical properties :
#
#
# Convention : Reuss Voigt Hill
#
# Bulk Modulus (GPa) = 40.07535 62.51315 51.29425
# Shear Modulus (GPa) = -98.75243 9.34865 -44.70189
#
# Velocity S-wave (km/s) = -7.28385 2.24110 -4.90061
# Velocity P-wave (km/s) = 7.01490 6.34679 2.11272
#
# Compressibility (1/GPa) = 0.02495300
#
# Stress axis : x y z
#
# Youngs Moduli (GPa) = 121.01591 36.64880 49.93854
#
# Poissons Ratio (x) = 0.34501 -0.01420
# Poissons Ratio (y) = 1.13923 0.30867
# Poissons Ratio (z) = -0.03442 0.22653
#
# Static dielectric constant tensor:
#      x y z
#    x 1.668010 0.000000 0.000000 
#    y 0.000000 1.626120 0.000000 
#    z 0.000000 0.000000 1.685490 
# 
# From -- ./inp_files/12703.got.cif
#   From: 2010.05.17/outbox.cif.g08.bks.cpg/sg65_7_cif.got.tgz:12703.got - 2010.06.03 17:01:31.
