data_PCOD9483065
_publ_section_title
;
Structure prediction by ZEFSAII (Michael W. Deem and Ramdas Pophale) SiO2 
 PCOD9483065
Probable space group: C M M M
;
_chemical_formula_sum "Si O2"
_cell_formula_units_Z 80
_cell_length_a 19.784787
_cell_length_b 22.841551
_cell_length_c 7.282003
_cell_angle_alpha 90.000000
_cell_angle_beta 90.000000
_cell_angle_gamma 90.000000
_cell_volume 3290.847997
_symmetry_space_group_name_H-M "C M M M"
_symmetry_group_IT_number 65
_symmetry_cell_setting 'orthorhombic'
loop_
_space_group_symop_operation_xyz
x,y,z
-x,-y,z
x,-y,-z
-x,y,-z
-x,-y,-z
x,y,-z
-x,y,z
x,-y,z
1/2+x,1/2+y,z
1/2-x,1/2-y,z
1/2+x,1/2-y,-z
1/2-x,1/2+y,-z
1/2-x,1/2-y,-z
1/2+x,1/2+y,-z
1/2-x,1/2+y,z
1/2+x,1/2-y,z
loop_
_atom_site_type_symbol
_atom_site_label
_atom_site_fract_x
_atom_site_fract_y
_atom_site_fract_z
Si Si1 0.500000 0.747686 0.781470
Si Si2 0.000000 0.891332 0.709262
Si Si3 0.855460 0.121483 0.275235
Si Si4 0.927602 0.431301 0.722383
Si Si5 0.148780 0.254921 0.712476
Si Si6 0.709349 0.127942 0.724476
O O1 0.500000 0.680402 0.707295
O O2 0.570594 0.776245 0.721130
O O3 0.500000 0.744448 0.000000
O O4 0.073784 0.906352 0.788938
O O5 0.000000 0.913022 0.500000
O O6 0.859374 0.120652 0.500000
O O7 0.853680 0.189431 0.211804
O O8 0.780980 0.099909 0.222653
O O9 0.927234 0.426223 0.500000
O O10 0.926917 0.500000 0.765361
O O11 0.858018 0.404008 0.787844
O O12 0.000000 0.406788 0.786620
O O13 0.167018 0.247349 0.500000
O O14 0.198320 0.304684 0.784777
O O15 0.708993 0.128426 0.500000
#
# Coordination Sequence:
#
# PCOD9483065 Si02
#       6
#     8   8  16  16  16  16
#     4  10  18  26  36  52  77 108 137 160 186 228
#     4   8  14  26  42  54  73 101 131 162 190 221
#     4   8  13  22  35  55  75  95 125 164 197 224
#     4   8  14  23  32  47  77 109 130 155 196 239
#     4   9  16  25  38  55  77 102 131 166 196 225
#     4   9  15  21  36  57  75  97 130 165 199 233
#
# _framework density 24.309844999999999
#
# number of rings (size 3 to 8) (size 9 to 14) (size 15 to 20)
#    0.000    3.400    0.000    3.300    1.400    2.400 
#    0.000    0.000    0.000    9.600    0.000    0.700 
#    0.000    7.200    0.000    0.000    0.000   16.000 
#
# Total GULP energy -223078.138174 kJ/mol
# GULP energy per Si atom -5576.953454 kJ/mol
# Density = 2.425451 g / cm^3
# Si number density = 24.309845 Si / 1000 Ang^3
#
#
#
# Elastic Constant Matrix: (Units=GPa)
#
#
# Indices 1 2 3 4 5 6 
#
# 1 259.0390 23.1185 -3.2340 0.0000 0.0000 0.0000
# 2 23.1185 9.6528 -1.8845 0.0000 0.0000 0.0000
# 3 -3.2340 -1.8845 112.9195 0.0000 0.0000 0.0000
# 4 0.0000 0.0000 0.0000 9.5705 0.0000 0.0000
# 5 0.0000 0.0000 0.0000 0.0000 -37.8671 0.0000
# 6 0.0000 0.0000 0.0000 0.0000 0.0000 24.7637
#
#
#
# Elastic Compliance Matrix: (Units=1/GPa)
#
#
# Indices 1 2 3 4 5 6 
#
# 1 0.004910 -0.011771 -0.000056 0.000000 0.000000 0.000000
# 2 -0.011771 0.132153 0.001868 0.000000 0.000000 0.000000
# 3 -0.000056 0.001868 0.008885 0.000000 0.000000 0.000000
# 4 0.000000 0.000000 0.000000 0.104488 0.000000 0.000000
# 5 0.000000 0.000000 0.000000 0.000000 -0.026408 0.000000
# 6 0.000000 0.000000 0.000000 0.000000 0.000000 0.040382
#
#
# Mechanical properties :
#
#
# Convention : Reuss Voigt Hill
#
# Bulk Modulus (GPa) = 7.93448 46.40126 27.16787
# Shear Modulus (GPa) = 15.32154 23.53417 19.42786
#
# Velocity S-wave (km/s) = 2.51322 3.11479 2.83004
# Velocity P-wave (km/s) = 3.41946 5.66258 4.67747
#
# Compressibility (1/GPa) = 0.12603225
#
# Stress axis : x y z
#
# Youngs Moduli (GPa) = 203.65530 7.56696 112.54351
#
# Poissons Ratio (x) = 0.08907 0.00628
# Poissons Ratio (y) = 2.39723 -0.21027
# Poissons Ratio (z) = 0.01137 -0.01414
#
# Static dielectric constant tensor:
#      x y z
#    x 2.016280 0.000000 0.000000 
#    y 0.000000 1.895440 0.000000 
#    z 0.000000 0.000000 1.948260 
# 
# From -- ./inp_files/9939.got.cif
#   From: 2010.05.17/outbox.cif.g08.bks.cpg/sg65_5_cif.got.tgz:9939.got - 2010.06.03 17:01:31.
