data_PCOD9483024
_publ_section_title
;
Structure prediction by ZEFSAII (Michael W. Deem and Ramdas Pophale) SiO2 
 PCOD9483024
Probable space group: C M M M
;
_chemical_formula_sum "Si O2"
_cell_formula_units_Z 104
_cell_length_a 24.443775
_cell_length_b 8.101613
_cell_length_c 26.615625
_cell_angle_alpha 90.000000
_cell_angle_beta 90.000000
_cell_angle_gamma 90.000000
_cell_volume 5270.798823
_symmetry_space_group_name_H-M "C M M M"
_symmetry_group_IT_number 65
_symmetry_cell_setting 'orthorhombic'
loop_
_space_group_symop_operation_xyz
x,y,z
-x,-y,z
x,-y,-z
-x,y,-z
-x,-y,-z
x,y,-z
-x,y,z
x,-y,z
1/2+x,1/2+y,z
1/2-x,1/2-y,z
1/2+x,1/2-y,-z
1/2-x,1/2+y,-z
1/2-x,1/2-y,-z
1/2+x,1/2+y,-z
1/2-x,1/2+y,z
1/2+x,1/2-y,z
loop_
_atom_site_type_symbol
_atom_site_label
_atom_site_fract_x
_atom_site_fract_y
_atom_site_fract_z
Si Si1 0.689186 0.802536 0.442387
Si Si2 0.000000 0.194160 0.800988
Si Si3 0.119915 0.806768 0.943769
Si Si4 0.312592 0.698825 0.739708
Si Si5 0.380650 0.703183 0.836449
Si Si6 0.886379 0.196591 0.646856
Si Si7 0.000000 0.314493 0.940510
Si Si8 0.500000 0.190202 0.312152
O O1 0.682658 0.743173 0.500000
O O2 0.750000 0.750000 0.425167
O O3 0.642937 0.737242 0.405322
O O4 0.687102 0.000000 0.442428
O O5 0.942720 0.260197 0.823273
O O6 0.000000 0.212578 0.740705
O O7 0.000000 0.000000 0.812768
O O8 0.142129 0.739186 0.890826
O O9 0.055152 0.786713 0.932474
O O10 0.133597 0.000000 0.946770
O O11 0.130921 0.735455 0.000000
O O12 0.314984 0.500000 0.739295
O O13 0.250000 0.750000 0.737073
O O14 0.342066 0.755105 0.790728
O O15 0.346913 0.758300 0.691674
O O16 0.381590 0.500000 0.837535
O O17 0.945974 0.270543 0.656106
O O18 0.891602 0.000000 0.651526
O O19 0.000000 0.500000 0.918031
O O20 0.000000 0.338213 0.000000
O O21 0.500000 0.000000 0.297559
#
# Coordination Sequence:
#
# PCOD9483024 Si02
#       8
#    16   8  16  16  16  16   8   8
#     4  10  21  38  61  91 126 161 198 242 287 328
#     4  10  17  33  54  72 102 145 184 217 269 337
#     4   9  16  27  46  69  91 124 173 220 259 311
#     4  10  21  36  55  78 105 139 178 225 278 327
#     4   9  17  31  52  75 102 136 174 221 273 325
#     4  11  22  39  62  85 113 153 194 232 281 340
#     4   9  16  25  37  58  93 128 153 190 250 311
#     4  12  24  37  56  84 118 149 184 233 281 336
#
# _framework density 19.731354
#
# number of rings (size 3 to 8) (size 9 to 14) (size 15 to 20)
#    0.000    2.077    1.538    2.769    0.000    5.538 
#    0.000    2.692    0.000    2.769    0.000    0.000 
#    0.000    0.000    0.000    0.000    0.000    0.000 
#
# Total GULP energy -289992.845897 kJ/mol
# GULP energy per Si atom -5576.785498 kJ/mol
# Density = 1.968644 g / cm^3
# Si number density = 19.731354 Si / 1000 Ang^3
#
#
#
# Elastic Constant Matrix: (Units=GPa)
#
#
# Indices 1 2 3 4 5 6 
#
# 1 119.9543 5.6044 62.7688 0.0000 0.0000 0.0000
# 2 5.6044 19.6799 -0.7628 0.0000 0.0000 0.0000
# 3 62.7688 -0.7628 118.9458 0.0000 0.0000 0.0000
# 4 0.0000 0.0000 0.0000 8.3136 0.0000 0.0000
# 5 0.0000 0.0000 0.0000 0.0000 0.8484 0.0000
# 6 0.0000 0.0000 0.0000 0.0000 0.0000 21.7603
#
#
#
# Elastic Compliance Matrix: (Units=1/GPa)
#
#
# Indices 1 2 3 4 5 6 
#
# 1 0.011765 -0.003592 -0.006232 0.000000 0.000000 0.000000
# 2 -0.003592 0.051922 0.002229 0.000000 0.000000 0.000000
# 3 -0.006232 0.002229 0.011710 0.000000 0.000000 0.000000
# 4 0.000000 0.000000 0.000000 0.120285 0.000000 0.000000
# 5 0.000000 0.000000 0.000000 0.000000 1.178728 0.000000
# 6 0.000000 0.000000 0.000000 0.000000 0.000000 0.045955
#
#
# Mechanical properties :
#
#
# Convention : Reuss Voigt Hill
#
# Bulk Modulus (GPa) = 16.60925 43.75565 30.18245
# Shear Modulus (GPa) = 3.43495 18.91575 11.17535
#
# Velocity S-wave (km/s) = 1.32085 3.09959 2.38245
# Velocity P-wave (km/s) = 3.28057 5.91893 4.78518
#
# Compressibility (1/GPa) = 0.06020743
#
# Stress axis : x y z
#
# Youngs Moduli (GPa) = 84.99659 19.25948 85.39728
#
# Poissons Ratio (x) = 0.06918 0.53216
# Poissons Ratio (y) = 0.30531 -0.19031
# Poissons Ratio (z) = 0.52967 -0.04292
#
# Static dielectric constant tensor:
#      x y z
#    x 1.680320 0.000000 0.000000 
#    y 0.000000 1.726450 0.000000 
#    z 0.000000 0.000000 1.739770 
# 
# From -- ./inp_files/75541.got.cif
#   From: 2010.05.17/outbox.cif.g08.bks.cpg/sg65_38_cif.got.tgz:75541.got - 2010.06.03 17:01:31.
