data_PCOD9483939
_publ_section_title
;
Structure prediction by ZEFSAII (Michael W. Deem and Ramdas Pophale) SiO2 
 PCOD9483939
Probable space group: C M M M
;
_chemical_formula_sum "Si O2"
_cell_formula_units_Z 104
_cell_length_a 7.673881
_cell_length_b 29.009378
_cell_length_c 26.247777
_cell_angle_alpha 90.000000
_cell_angle_beta 90.000000
_cell_angle_gamma 90.000000
_cell_volume 5843.136138
_symmetry_space_group_name_H-M "C M M M"
_symmetry_group_IT_number 65
_symmetry_cell_setting 'orthorhombic'
loop_
_space_group_symop_operation_xyz
x,y,z
-x,-y,z
x,-y,-z
-x,y,-z
-x,-y,-z
x,y,-z
-x,y,z
x,-y,z
1/2+x,1/2+y,z
1/2-x,1/2-y,z
1/2+x,1/2-y,-z
1/2-x,1/2+y,-z
1/2-x,1/2-y,-z
1/2+x,1/2+y,-z
1/2-x,1/2+y,z
1/2+x,1/2-y,z
loop_
_atom_site_type_symbol
_atom_site_label
_atom_site_fract_x
_atom_site_fract_y
_atom_site_fract_z
Si Si1 0.706150 0.944744 0.637598
Si Si2 0.204432 0.602520 0.259052
Si Si3 0.207170 0.198131 0.782651
Si Si4 0.295622 0.897029 0.944513
Si Si5 0.000000 0.055837 0.442106
Si Si6 0.292292 0.698122 0.899578
Si Si7 0.786700 0.446432 0.156936
O O1 0.500000 0.935189 0.628858
O O2 0.770912 0.918465 0.688252
O O3 0.828263 0.931614 0.590219
O O4 0.721949 0.000000 0.645991
O O5 0.223311 0.657164 0.252146
O O6 0.277475 0.579477 0.207570
O O7 0.000000 0.590728 0.259678
O O8 0.250000 0.250000 0.765978
O O9 0.274306 0.192923 0.841073
O O10 0.000000 0.193519 0.784550
O O11 0.500000 0.909237 0.946436
O O12 0.281940 0.842596 0.933612
O O13 0.222129 0.922629 0.894913
O O14 0.219188 0.907998 0.000000
O O15 0.000000 0.073267 0.500000
O O16 0.000000 0.000000 0.444535
O O17 0.500000 0.692999 0.898990
O O18 0.250000 0.750000 0.916350
O O19 0.741191 0.500000 0.158541
O O20 0.000000 0.443190 0.156729
#
# Coordination Sequence:
#
# PCOD9483939 Si02
#       7
#    16  16  16  16   8  16  16
#     4   9  18  31  48  75 109 145 184 223 261 303
#     4  10  18  30  51  74 101 134 165 206 254 302
#     4  10  20  32  49  72  98 128 160 197 249 309
#     4  10  20  33  49  69  92 119 156 201 248 298
#     4   9  18  32  50  74 108 150 189 223 261 301
#     4  10  20  34  52  71  92 118 153 194 246 306
#     4   9  17  30  49  71  94 123 160 201 248 300
#
# _framework density 17.798660000000002
#
# number of rings (size 3 to 8) (size 9 to 14) (size 15 to 20)
#    0.000    2.385    1.538    1.385    1.077    4.308 
#    0.000    3.077    0.000    1.385    0.000    1.077 
#    0.000    0.615    0.308    0.000    0.000    0.000 
#
# Total GULP energy -290104.138146 kJ/mol
# GULP energy per Si atom -5578.925734 kJ/mol
# Density = 1.775815 g / cm^3
# Si number density = 17.798660 Si / 1000 Ang^3
#
#
#
# Elastic Constant Matrix: (Units=GPa)
#
#
# Indices 1 2 3 4 5 6 
#
# 1 49.9346 2.2689 34.7046 0.0000 0.0000 0.0000
# 2 2.2689 71.9721 60.9847 0.0000 0.0000 0.0000
# 3 34.7046 60.9847 157.4892 0.0000 0.0000 0.0000
# 4 0.0000 0.0000 0.0000 16.7544 0.0000 0.0000
# 5 0.0000 0.0000 0.0000 0.0000 5.2660 0.0000
# 6 0.0000 0.0000 0.0000 0.0000 0.0000 12.9689
#
#
#
# Elastic Compliance Matrix: (Units=1/GPa)
#
#
# Indices 1 2 3 4 5 6 
#
# 1 0.025185 0.005817 -0.007802 0.000000 0.000000 0.000000
# 2 0.005817 0.022023 -0.009810 0.000000 0.000000 0.000000
# 3 -0.007802 -0.009810 0.011868 0.000000 0.000000 0.000000
# 4 0.000000 0.000000 0.000000 0.059686 0.000000 0.000000
# 5 0.000000 0.000000 0.000000 0.000000 0.189896 0.000000
# 6 0.000000 0.000000 0.000000 0.000000 0.000000 0.077108
#
#
# Mechanical properties :
#
#
# Convention : Reuss Voigt Hill
#
# Bulk Modulus (GPa) = 28.18060 52.81247 40.49653
# Shear Modulus (GPa) = 11.87130 19.09371 15.48251
#
# Velocity S-wave (km/s) = 2.58539 3.27886 2.95255
# Velocity P-wave (km/s) = 4.97792 6.63861 5.86732
#
# Compressibility (1/GPa) = 0.03548541
#
# Stress axis : x y z
#
# Youngs Moduli (GPa) = 39.70693 45.40651 84.26219
#
# Poissons Ratio (x) = -0.26414 0.65744
# Poissons Ratio (y) = -0.23099 0.82661
# Poissons Ratio (z) = 0.30981 0.44544
#
# Static dielectric constant tensor:
#      x y z
#    x 1.653600 0.000000 0.000000 
#    y 0.000000 1.597760 0.000000 
#    z 0.000000 0.000000 1.614900 
# 
# From -- ./inp_files/68495.got.cif
#   From: 2010.05.17/outbox.cif.g08.bks.cpg/sg65_35_cif.got.tgz:68495.got - 2010.06.03 17:01:31.
