data_PCOD9483287
_publ_section_title
;
Structure prediction by ZEFSAII (Michael W. Deem and Ramdas Pophale) SiO2 
 PCOD9483287
Probable space group: C M M M
;
_chemical_formula_sum "Si O2"
_cell_formula_units_Z 88
_cell_length_a 27.991626
_cell_length_b 8.618303
_cell_length_c 22.135053
_cell_angle_alpha 90.000000
_cell_angle_beta 90.000000
_cell_angle_gamma 90.000000
_cell_volume 5339.867143
_symmetry_space_group_name_H-M "C M M M"
_symmetry_group_IT_number 65
_symmetry_cell_setting 'orthorhombic'
loop_
_space_group_symop_operation_xyz
x,y,z
-x,-y,z
x,-y,-z
-x,y,-z
-x,-y,-z
x,y,-z
-x,y,z
x,-y,z
1/2+x,1/2+y,z
1/2-x,1/2-y,z
1/2+x,1/2-y,-z
1/2-x,1/2+y,-z
1/2-x,1/2-y,-z
1/2+x,1/2+y,-z
1/2-x,1/2+y,z
1/2+x,1/2-y,z
loop_
_atom_site_type_symbol
_atom_site_label
_atom_site_fract_x
_atom_site_fract_y
_atom_site_fract_z
Si Si1 0.198337 0.185660 0.369103
Si Si2 0.101418 0.188676 0.432986
Si Si3 0.196061 0.686236 0.125648
Si Si4 0.351880 0.185762 0.748723
Si Si5 0.446061 0.687867 0.691061
Si Si6 0.195740 0.815013 0.000000
O O1 0.250000 0.250000 0.385644
O O2 0.155364 0.233057 0.413952
O O3 0.182461 0.244574 0.302961
O O4 0.199974 0.000000 0.368030
O O5 0.089052 0.244606 0.500000
O O6 0.067539 0.235954 0.377622
O O7 0.100041 0.000000 0.434277
O O8 0.198313 0.500000 0.121353
O O9 0.250000 0.750000 0.132616
O O10 0.166243 0.730545 0.184892
O O11 0.175110 0.752792 0.063049
O O12 0.404951 0.244495 0.733546
O O13 0.350221 0.000000 0.744088
O O14 0.500000 0.734558 0.705924
O O15 0.443203 0.500000 0.693272
O O16 0.250000 0.750000 0.000000
O O17 0.196719 0.000000 0.000000
#
# Coordination Sequence:
#
# PCOD9483287 Si02
#       6
#    16  16  16  16  16   8
#     4  10  19  30  45  65  91 122 155 192 231 273
#     4   8  15  28  45  66  91 118 150 187 228 278
#     4  10  19  30  45  67  96 128 160 190 222 261
#     4  10  20  32  48  69  92 122 157 193 232 273
#     4   9  18  32  50  71  93 117 147 189 239 285
#     4  10  18  28  44  66  95 130 161 188 220 257
#
# _framework density 16.479810000000001
#
# number of rings (size 3 to 8) (size 9 to 14) (size 15 to 20)
#    0.000    2.545    0.000    5.182    0.000    5.455 
#    0.000    1.818    0.000   13.091    0.000    5.727 
#    0.000    5.091    0.000    0.000    0.000    0.000 
#
# Total GULP energy -245311.687663 kJ/mol
# GULP energy per Si atom -5575.265629 kJ/mol
# Density = 1.644230 g / cm^3
# Si number density = 16.479810 Si / 1000 Ang^3
#
#
#
# Elastic Constant Matrix: (Units=GPa)
#
#
# Indices 1 2 3 4 5 6 
#
# 1 67.5214 13.5969 22.3037 0.0000 0.0000 0.0000
# 2 13.5969 38.1334 24.5618 0.0000 0.0000 0.0000
# 3 22.3037 24.5618 114.0182 0.0000 0.0000 0.0000
# 4 0.0000 0.0000 0.0000 18.6103 0.0000 0.0000
# 5 0.0000 0.0000 0.0000 0.0000 10.3104 0.0000
# 6 0.0000 0.0000 0.0000 0.0000 0.0000 22.0221
#
#
#
# Elastic Compliance Matrix: (Units=1/GPa)
#
#
# Indices 1 2 3 4 5 6 
#
# 1 0.016446 -0.004403 -0.002269 0.000000 0.000000 0.000000
# 2 -0.004403 0.031627 -0.005952 0.000000 0.000000 0.000000
# 3 -0.002269 -0.005952 0.010496 0.000000 0.000000 0.000000
# 4 0.000000 0.000000 0.000000 0.053734 0.000000 0.000000
# 5 0.000000 0.000000 0.000000 0.000000 0.096990 0.000000
# 6 0.000000 0.000000 0.000000 0.000000 0.000000 0.045409
#
#
# Mechanical properties :
#
#
# Convention : Reuss Voigt Hill
#
# Bulk Modulus (GPa) = 30.00922 37.84422 33.92672
# Shear Modulus (GPa) = 17.17880 20.80260 18.99070
#
# Velocity S-wave (km/s) = 3.23215 3.55675 3.39833
# Velocity P-wave (km/s) = 5.67259 6.31515 6.00248
#
# Compressibility (1/GPa) = 0.03332309
#
# Stress axis : x y z
#
# Youngs Moduli (GPa) = 60.80464 31.61835 95.27018
#
# Poissons Ratio (x) = 0.13921 0.21614
# Poissons Ratio (y) = 0.26771 0.56704
# Poissons Ratio (z) = 0.13795 0.18819
#
# Static dielectric constant tensor:
#      x y z
#    x 1.537760 0.000000 0.000000 
#    y 0.000000 1.562450 0.000000 
#    z 0.000000 0.000000 1.571820 
# 
# From -- ./inp_files/66183.got.cif
#   From: 2010.05.17/outbox.cif.g08.bks.cpg/sg65_34_cif.got.tgz:66183.got - 2010.06.03 17:01:31.
