data_PCOD9483951
_publ_section_title
;
Structure prediction by ZEFSAII (Michael W. Deem and Ramdas Pophale) SiO2 
 PCOD9483951
Probable space group: C M M M
;
_chemical_formula_sum "Si O2"
_cell_formula_units_Z 72
_cell_length_a 24.067830
_cell_length_b 18.707193
_cell_length_c 7.605412
_cell_angle_alpha 90.000000
_cell_angle_beta 90.000000
_cell_angle_gamma 90.000000
_cell_volume 3424.272418
_symmetry_space_group_name_H-M "C M M M"
_symmetry_group_IT_number 65
_symmetry_cell_setting 'orthorhombic'
loop_
_space_group_symop_operation_xyz
x,y,z
-x,-y,z
x,-y,-z
-x,y,-z
-x,-y,-z
x,y,-z
-x,y,z
x,-y,z
1/2+x,1/2+y,z
1/2-x,1/2-y,z
1/2+x,1/2-y,-z
1/2-x,1/2+y,-z
1/2-x,1/2-y,-z
1/2+x,1/2+y,-z
1/2-x,1/2+y,z
1/2+x,1/2-y,z
loop_
_atom_site_type_symbol
_atom_site_label
_atom_site_fract_x
_atom_site_fract_y
_atom_site_fract_z
Si Si1 0.564541 0.000000 0.715303
Si Si2 0.739793 0.081263 0.790199
Si Si3 0.435730 0.714563 0.715765
Si Si4 0.125003 0.643083 0.708240
Si Si5 0.133721 0.080383 0.291335
O O1 0.595309 0.928468 0.778494
O O2 0.500000 0.000000 0.764498
O O3 0.566820 0.000000 0.500000
O O4 0.690624 0.133235 0.733459
O O5 0.801788 0.101123 0.732920
O O6 0.728621 0.000000 0.723179
O O7 0.739440 0.078694 0.000000
O O8 0.434287 0.713882 0.500000
O O9 0.500000 0.719227 0.767141
O O10 0.401431 0.783878 0.776938
O O11 0.406512 0.641782 0.777890
O O12 0.114170 0.643507 0.500000
O O13 0.123692 0.075851 0.500000
O O14 0.126558 0.000000 0.217955
#
# Coordination Sequence:
#
# PCOD9483951 Si02
#       5
#     8  16  16  16  16
#     4   9  16  26  45  73  99 129 168 203 238 287
#     4  10  20  34  52  74 103 135 170 212 254 298
#     4   9  18  32  51  78 107 131 163 211 257 296
#     4  10  18  30  51  76 103 134 168 207 248 297
#     4   9  18  33  54  77 101 132 169 208 253 305
#
# _framework density 21.026363
#
# number of rings (size 3 to 8) (size 9 to 14) (size 15 to 20)
#    0.000    2.556    1.111    1.333    0.000    4.889 
#    0.000    7.778    0.000    5.333    0.000    3.111 
#    0.000    0.000    0.000    0.000    0.000    0.000 
#
# Total GULP energy -200997.870023 kJ/mol
# GULP energy per Si atom -5583.274167 kJ/mol
# Density = 2.097851 g / cm^3
# Si number density = 21.026363 Si / 1000 Ang^3
#
#
#
# Elastic Constant Matrix: (Units=GPa)
#
#
# Indices 1 2 3 4 5 6 
#
# 1 103.1461 92.3050 -2.5863 0.0000 0.0000 0.0000
# 2 92.3050 153.7226 13.9928 0.0000 0.0000 0.0000
# 3 -2.5863 13.9928 41.5329 0.0000 0.0000 0.0000
# 4 0.0000 0.0000 0.0000 -2.1266 0.0000 0.0000
# 5 0.0000 0.0000 0.0000 0.0000 -73.2510 0.0000
# 6 0.0000 0.0000 0.0000 0.0000 0.0000 39.2508
#
#
#
# Elastic Compliance Matrix: (Units=1/GPa)
#
#
# Indices 1 2 3 4 5 6 
#
# 1 0.022361 -0.013982 0.006103 0.000000 0.000000 0.000000
# 2 -0.013982 0.015454 -0.006077 0.000000 0.000000 0.000000
# 3 0.006103 -0.006077 0.026505 0.000000 0.000000 0.000000
# 4 0.000000 0.000000 0.000000 -0.470236 0.000000 0.000000
# 5 0.000000 0.000000 0.000000 0.000000 -0.013652 0.000000
# 6 0.000000 0.000000 0.000000 0.000000 0.000000 0.025477
#
#
# Mechanical properties :
#
#
# Convention : Reuss Voigt Hill
#
# Bulk Modulus (GPa) = 27.46735 56.20272 41.83503
# Shear Modulus (GPa) = -14.12263 5.75398 -4.18433
#
# Velocity S-wave (km/s) = -2.59446 1.65605 -1.41222
# Velocity P-wave (km/s) = 2.02897 5.51764 4.15698
#
# Compressibility (1/GPa) = 0.03640687
#
# Stress axis : x y z
#
# Youngs Moduli (GPa) = 44.72098 64.70648 37.72890
#
# Poissons Ratio (x) = 0.90476 -0.23027
# Poissons Ratio (y) = 0.62531 0.22929
# Poissons Ratio (z) = -0.27294 0.39325
#
# Static dielectric constant tensor:
#      x y z
#    x 1.712080 0.000000 0.000000 
#    y 0.000000 1.758790 0.000000 
#    z 0.000000 0.000000 1.780560 
# 
# From -- ./inp_files/7222.got.cif
#   From: 2010.05.17/outbox.cif.g08.bks.cpg/sg65_4_cif.got.tgz:7222.got - 2010.06.03 17:01:31.
