data_PCOD9483099
_publ_section_title
;
Structure prediction by ZEFSAII (Michael W. Deem and Ramdas Pophale) SiO2 
 PCOD9483099
Probable space group: C M M M
;
_chemical_formula_sum "Si O2"
_cell_formula_units_Z 96
_cell_length_a 31.977620
_cell_length_b 27.838416
_cell_length_c 9.297886
_cell_angle_alpha 90.000000
_cell_angle_beta 90.000000
_cell_angle_gamma 90.000000
_cell_volume 8277.036585
_symmetry_space_group_name_H-M "C M M M"
_symmetry_group_IT_number 65
_symmetry_cell_setting 'orthorhombic'
loop_
_space_group_symop_operation_xyz
x,y,z
-x,-y,z
x,-y,-z
-x,y,-z
-x,-y,-z
x,y,-z
-x,y,z
x,-y,z
1/2+x,1/2+y,z
1/2-x,1/2-y,z
1/2+x,1/2-y,-z
1/2-x,1/2+y,-z
1/2-x,1/2-y,-z
1/2+x,1/2+y,-z
1/2-x,1/2+y,z
1/2+x,1/2-y,z
loop_
_atom_site_type_symbol
_atom_site_label
_atom_site_fract_x
_atom_site_fract_y
_atom_site_fract_z
Si Si1 0.748962 0.361993 0.834488
Si Si2 0.379452 0.886329 0.328874
Si Si3 0.706305 0.056042 0.328896
Si Si4 0.549029 0.943514 0.170822
Si Si5 0.793777 0.219956 0.666228
Si Si6 0.663616 0.197786 0.166038
O O1 0.760874 0.411690 0.757987
O O2 0.716342 0.329770 0.746004
O O3 0.792308 0.331385 0.834202
O O4 0.736343 0.368256 0.000000
O O5 0.382979 0.879677 0.500000
O O6 0.339795 0.921753 0.302375
O O7 0.420214 0.910818 0.262377
O O8 0.368225 0.836438 0.250789
O O9 0.714088 0.060876 0.500000
O O10 0.707344 0.000000 0.290663
O O11 0.500000 0.934036 0.198789
O O12 0.556633 0.000000 0.201576
O O13 0.556351 0.936357 0.000000
O O14 0.805510 0.213155 0.500000
O O15 0.750000 0.250000 0.666809
O O16 0.826591 0.252794 0.751945
O O17 0.651608 0.205151 0.000000
#
# Coordination Sequence:
#
# PCOD9483099 Si02
#       6
#    16  16  16  16  16  16
#     4   9  16  24  34  48  64  83 107 132 158 191
#     4  10  18  27  39  54  69  84 105 134 168 205
#     4   9  17  27  36  47  65  87 109 135 168 202
#     4   9  18  31  43  53  66  85 108 134 167 207
#     4   9  15  23  35  49  65  84 104 127 156 190
#     4   9  16  25  36  50  67  85 104 127 157 194
#
# _framework density 11.598352999999999
#
# number of rings (size 3 to 8) (size 9 to 14) (size 15 to 20)
#    0.000    2.833    0.000    3.000    0.000    8.333 
#    0.000    0.833    0.000    0.000    0.000    0.000 
#    0.000    0.000    0.000    0.000    0.000    0.000 
#
# Total GULP energy -267359.729739 kJ/mol
# GULP energy per Si atom -5569.994370 kJ/mol
# Density = 1.157196 g / cm^3
# Si number density = 11.598353 Si / 1000 Ang^3
#
#
#
# Elastic Constant Matrix: (Units=GPa)
#
#
# Indices 1 2 3 4 5 6 
#
# 1 40.8086 39.4098 44.2236 0.0000 0.0000 0.0000
# 2 39.4098 67.7948 57.9672 0.0000 0.0000 0.0000
# 3 44.2236 57.9672 94.5389 0.0000 0.0000 0.0000
# 4 0.0000 0.0000 0.0000 20.9323 0.0000 0.0000
# 5 0.0000 0.0000 0.0000 0.0000 15.8642 0.0000
# 6 0.0000 0.0000 0.0000 0.0000 0.0000 21.8153
#
#
#
# Elastic Compliance Matrix: (Units=1/GPa)
#
#
# Indices 1 2 3 4 5 6 
#
# 1 0.064786 -0.024695 -0.015164 0.000000 0.000000 0.000000
# 2 -0.024695 0.040419 -0.013231 0.000000 0.000000 0.000000
# 3 -0.015164 -0.013231 0.025784 0.000000 0.000000 0.000000
# 4 0.000000 0.000000 0.000000 0.047773 0.000000 0.000000
# 5 0.000000 0.000000 0.000000 0.000000 0.063035 0.000000
# 6 0.000000 0.000000 0.000000 0.000000 0.000000 0.045839
#
#
# Mechanical properties :
#
#
# Convention : Reuss Voigt Hill
#
# Bulk Modulus (GPa) = 40.30857 54.03814 47.17336
# Shear Modulus (GPa) = 12.43511 15.82514 14.13012
#
# Velocity S-wave (km/s) = 3.27791 3.69783 3.49418
# Velocity P-wave (km/s) = 7.01109 8.05756 7.55247
#
# Compressibility (1/GPa) = 0.02480862
#
# Stress axis : x y z
#
# Youngs Moduli (GPa) = 15.43540 24.74054 38.78391
#
# Poissons Ratio (x) = 0.61098 0.58810
# Poissons Ratio (y) = 0.38118 0.51317
# Poissons Ratio (z) = 0.23406 0.32735
#
# Static dielectric constant tensor:
#      x y z
#    x 1.343650 0.000000 0.000000 
#    y 0.000000 1.364180 0.000000 
#    z 0.000000 0.000000 1.387940 
# 
# From -- ./inp_files/14599.got.cif
#   From: 2010.05.17/outbox.cif.g08.bks.cpg/sg65_8_cif.got.tgz:14599.got - 2010.06.03 17:01:31.
