data_PCOD9483203
_publ_section_title
;
Structure prediction by ZEFSAII (Michael W. Deem and Ramdas Pophale) SiO2 
 PCOD9483203
Probable space group: C M M M
;
_chemical_formula_sum "Si O2"
_cell_formula_units_Z 80
_cell_length_a 8.001475
_cell_length_b 26.568774
_cell_length_c 24.466340
_cell_angle_alpha 90.000000
_cell_angle_beta 90.000000
_cell_angle_gamma 90.000000
_cell_volume 5201.284075
_symmetry_space_group_name_H-M "C M M M"
_symmetry_group_IT_number 65
_symmetry_cell_setting 'orthorhombic'
loop_
_space_group_symop_operation_xyz
x,y,z
-x,-y,z
x,-y,-z
-x,y,-z
-x,-y,-z
x,y,-z
-x,y,z
x,-y,z
1/2+x,1/2+y,z
1/2-x,1/2-y,z
1/2+x,1/2-y,-z
1/2-x,1/2+y,-z
1/2-x,1/2-y,-z
1/2+x,1/2+y,-z
1/2-x,1/2+y,z
1/2+x,1/2-y,z
loop_
_atom_site_type_symbol
_atom_site_label
_atom_site_fract_x
_atom_site_fract_y
_atom_site_fract_z
Si Si1 0.201436 0.193775 0.937397
Si Si2 0.797594 0.901844 0.130875
Si Si3 0.704123 0.500000 0.937019
Si Si4 0.301386 0.058151 0.245981
Si Si5 0.000000 0.438559 0.563066
Si Si6 0.814861 0.061224 0.365084
O O1 0.250000 0.250000 0.920115
O O2 0.260930 0.149396 0.897907
O O3 0.000000 0.191090 0.938767
O O4 0.261486 0.186325 0.000000
O O5 0.739711 0.909774 0.192718
O O6 0.000000 0.901913 0.130769
O O7 0.742162 0.950040 0.095154
O O8 0.500000 0.500000 0.937374
O O9 0.758630 0.500000 0.000000
O O10 0.500000 0.057526 0.255305
O O11 0.217344 0.075800 0.302152
O O12 0.247524 0.000000 0.235315
O O13 0.165230 0.422039 0.595726
O O14 0.000000 0.500000 0.563516
O O15 0.000000 0.422785 0.500000
O O16 0.000000 0.076851 0.382815
O O17 0.810134 0.000000 0.365120
#
# Coordination Sequence:
#
# PCOD9483203 Si02
#       6
#    16  16   8  16   8  16
#     4   9  18  32  48  64  82 107 142 184 226 274
#     4  10  18  28  44  65  83 106 144 182 222 276
#     4   9  16  26  41  61  85 107 131 174 227 273
#     4  10  18  28  41  58  85 113 143 181 225 270
#     4   9  16  26  38  56  82 110 148 194 228 258
#     4   9  16  26  40  56  78 112 149 186 227 265
#
# _framework density 15.380817
#
# number of rings (size 3 to 8) (size 9 to 14) (size 15 to 20)
#    0.000    2.600    2.000    1.200    0.000    4.400 
#    0.000    2.000    0.000    2.400    0.000    0.000 
#    0.000    0.000    0.000    0.000    0.000    1.000 
#
# Total GULP energy -222973.267065 kJ/mol
# GULP energy per Si atom -5574.331677 kJ/mol
# Density = 1.534581 g / cm^3
# Si number density = 15.380817 Si / 1000 Ang^3
#
#
#
# Elastic Constant Matrix: (Units=GPa)
#
#
# Indices 1 2 3 4 5 6 
#
# 1 64.3275 19.8491 46.7942 0.0000 0.0000 0.0000
# 2 19.8491 65.1799 43.5560 0.0000 0.0000 0.0000
# 3 46.7942 43.5560 122.3200 0.0000 0.0000 0.0000
# 4 0.0000 0.0000 0.0000 9.8779 0.0000 0.0000
# 5 0.0000 0.0000 0.0000 0.0000 19.6581 0.0000
# 6 0.0000 0.0000 0.0000 0.0000 0.0000 12.7874
#
#
#
# Elastic Compliance Matrix: (Units=1/GPa)
#
#
# Indices 1 2 3 4 5 6 
#
# 1 0.021635 -0.001388 -0.007782 0.000000 0.000000 0.000000
# 2 -0.001388 0.020222 -0.006670 0.000000 0.000000 0.000000
# 3 -0.007782 -0.006670 0.013527 0.000000 0.000000 0.000000
# 4 0.000000 0.000000 0.000000 0.101236 0.000000 0.000000
# 5 0.000000 0.000000 0.000000 0.000000 0.050870 0.000000
# 6 0.000000 0.000000 0.000000 0.000000 0.000000 0.078202
#
#
# Mechanical properties :
#
#
# Convention : Reuss Voigt Hill
#
# Bulk Modulus (GPa) = 42.18661 52.46956 47.32808
# Shear Modulus (GPa) = 15.37171 17.90656 16.63913
#
# Velocity S-wave (km/s) = 3.16477 3.41576 3.29266
# Velocity P-wave (km/s) = 6.39077 7.05296 6.73002
#
# Compressibility (1/GPa) = 0.02370420
#
# Stress axis : x y z
#
# Youngs Moduli (GPa) = 46.22171 49.45162 73.92408
#
# Poissons Ratio (x) = 0.06864 0.57530
# Poissons Ratio (y) = 0.06415 0.49305
# Poissons Ratio (z) = 0.35971 0.32983
#
# Static dielectric constant tensor:
#      x y z
#    x 1.554690 0.000000 0.000000 
#    y 0.000000 1.482040 0.000000 
#    z 0.000000 0.000000 1.503140 
# 
# From -- ./inp_files/60546.got.cif
#   From: 2010.05.17/outbox.cif.g08.bks.cpg/sg65_31_cif.got.tgz:60546.got - 2010.06.03 17:01:31.
