data_PCOD9483297
_publ_section_title
;
Structure prediction by ZEFSAII (Michael W. Deem and Ramdas Pophale) SiO2 
 PCOD9483297
Probable space group: C M M M
;
_chemical_formula_sum "Si O2"
_cell_formula_units_Z 120
_cell_length_a 34.756423
_cell_length_b 14.361170
_cell_length_c 14.651887
_cell_angle_alpha 90.000000
_cell_angle_beta 90.000000
_cell_angle_gamma 90.000000
_cell_volume 7313.385357
_symmetry_space_group_name_H-M "C M M M"
_symmetry_group_IT_number 65
_symmetry_cell_setting 'orthorhombic'
loop_
_space_group_symop_operation_xyz
x,y,z
-x,-y,z
x,-y,-z
-x,y,-z
-x,-y,-z
x,y,-z
-x,y,z
x,-y,z
1/2+x,1/2+y,z
1/2-x,1/2-y,z
1/2+x,1/2-y,-z
1/2-x,1/2+y,-z
1/2-x,1/2-y,-z
1/2+x,1/2+y,-z
1/2-x,1/2+y,z
1/2+x,1/2-y,z
loop_
_atom_site_type_symbol
_atom_site_label
_atom_site_fract_x
_atom_site_fract_y
_atom_site_fract_z
Si Si1 0.729203 0.613800 0.104909
Si Si2 0.079305 0.794739 0.891161
Si Si3 0.619498 0.109037 0.107731
Si Si4 0.000000 0.108237 0.110866
Si Si5 0.848837 0.886591 0.208433
Si Si6 0.263964 0.144386 0.398013
Si Si7 0.304091 0.888246 0.785560
Si Si8 0.177711 0.105601 0.601410
O O1 0.729993 0.500000 0.105891
O O2 0.689923 0.641074 0.154910
O O3 0.767283 0.646659 0.157384
O O4 0.729220 0.643388 0.000000
O O5 0.085737 0.684039 0.877426
O O6 0.038483 0.836812 0.861295
O O7 0.113751 0.847184 0.840176
O O8 0.083125 0.811780 0.000000
O O9 0.655683 0.140049 0.169513
O O10 0.610262 0.000000 0.126098
O O11 0.630491 0.114319 0.000000
O O12 0.000000 0.000000 0.140852
O O13 0.000000 0.106950 0.000000
O O14 0.843694 0.851385 0.312458
O O15 0.850183 0.000000 0.208836
O O16 0.275996 0.115214 0.500000
O O17 0.250000 0.250000 0.401326
O O18 0.295380 0.132952 0.319982
O O19 0.223065 0.097440 0.374673
O O20 0.303917 0.000000 0.793938
O O21 0.174936 0.149224 0.500000
O O22 0.163192 0.000000 0.593945
#
# Coordination Sequence:
#
# PCOD9483297 Si02
#       8
#    16  16  16   8  16  16  16  16
#     4   9  16  25  38  59  88 121 158 196 234 278
#     4  10  20  33  51  74  99 128 157 190 238 291
#     4   9  19  34  49  67  94 128 167 207 242 279
#     4   9  18  34  55  79 106 130 151 180 227 293
#     4  10  18  28  44  69  96 124 158 199 245 293
#     4  10  20  30  41  59  85 120 164 213 256 289
#     4  10  18  29  45  62  84 123 165 203 246 283
#     4   9  17  30  45  60  84 120 161 203 246 291
#
# _framework density 16.408270000000002
#
# number of rings (size 3 to 8) (size 9 to 14) (size 15 to 20)
#    0.000    2.467    1.333    1.600    1.867    3.733 
#    0.000    0.333    0.000    5.200    0.000    0.467 
#    0.000    2.667    0.000    0.000    0.000    6.000 
#
# Total GULP energy -334495.578779 kJ/mol
# GULP energy per Si atom -5574.926313 kJ/mol
# Density = 1.637092 g / cm^3
# Si number density = 16.408270 Si / 1000 Ang^3
#
#
#
# Elastic Constant Matrix: (Units=GPa)
#
#
# Indices 1 2 3 4 5 6 
#
# 1 107.3026 48.6765 48.5195 0.0000 0.0000 0.0000
# 2 48.6765 69.0230 24.1352 0.0000 0.0000 0.0000
# 3 48.5195 24.1352 88.2475 0.0000 0.0000 0.0000
# 4 0.0000 0.0000 0.0000 11.0303 0.0000 0.0000
# 5 0.0000 0.0000 0.0000 0.0000 5.3757 0.0000
# 6 0.0000 0.0000 0.0000 0.0000 0.0000 23.0468
#
#
#
# Elastic Compliance Matrix: (Units=1/GPa)
#
#
# Indices 1 2 3 4 5 6 
#
# 1 0.016517 -0.009369 -0.006519 0.000000 0.000000 0.000000
# 2 -0.009369 0.021334 -0.000684 0.000000 0.000000 0.000000
# 3 -0.006519 -0.000684 0.015103 0.000000 0.000000 0.000000
# 4 0.000000 0.000000 0.000000 0.090659 0.000000 0.000000
# 5 0.000000 0.000000 0.000000 0.000000 0.186023 0.000000
# 6 0.000000 0.000000 0.000000 0.000000 0.000000 0.043390
#
#
# Mechanical properties :
#
#
# Convention : Reuss Voigt Hill
#
# Bulk Modulus (GPa) = 50.47638 56.35949 53.41793
# Shear Modulus (GPa) = 12.11320 17.44002 14.77661
#
# Velocity S-wave (km/s) = 2.72000 3.26372 3.00419
# Velocity P-wave (km/s) = 6.37919 6.97318 6.68279
#
# Compressibility (1/GPa) = 0.01981125
#
# Stress axis : x y z
#
# Youngs Moduli (GPa) = 60.54293 46.87341 66.21207
#
# Poissons Ratio (x) = 0.43915 0.43164
# Poissons Ratio (y) = 0.56721 0.04527
# Poissons Ratio (z) = 0.39468 0.03205
#
# Static dielectric constant tensor:
#      x y z
#    x 1.522000 0.000000 0.000000 
#    y 0.000000 1.591720 0.000000 
#    z 0.000000 0.000000 1.580770 
# 
# From -- ./inp_files/48068.got.cif
#   From: 2010.05.17/outbox.cif.g08.bks.cpg/sg65_25_cif.got.tgz:48068.got - 2010.06.03 17:01:31.
