data_PCOD9483336
_publ_section_title
;
Structure prediction by ZEFSAII (Michael W. Deem and Ramdas Pophale) SiO2 
 PCOD9483336
Probable space group: C M M M
;
_chemical_formula_sum "Si O2"
_cell_formula_units_Z 104
_cell_length_a 24.014182
_cell_length_b 27.269483
_cell_length_c 7.323280
_cell_angle_alpha 90.000000
_cell_angle_beta 90.000000
_cell_angle_gamma 90.000000
_cell_volume 4795.681602
_symmetry_space_group_name_H-M "C M M M"
_symmetry_group_IT_number 65
_symmetry_cell_setting 'orthorhombic'
loop_
_space_group_symop_operation_xyz
x,y,z
-x,-y,z
x,-y,-z
-x,y,-z
-x,-y,-z
x,y,-z
-x,y,z
x,-y,z
1/2+x,1/2+y,z
1/2-x,1/2-y,z
1/2+x,1/2-y,-z
1/2-x,1/2+y,-z
1/2-x,1/2-y,-z
1/2+x,1/2+y,-z
1/2-x,1/2+y,z
1/2+x,1/2-y,z
loop_
_atom_site_type_symbol
_atom_site_label
_atom_site_fract_x
_atom_site_fract_y
_atom_site_fract_z
Si Si1 0.935236 0.553765 0.280148
Si Si2 0.437232 0.211825 0.222599
Si Si3 0.063565 0.000000 0.280720
Si Si4 0.141620 0.908872 0.210788
Si Si5 0.149030 0.365178 0.202867
Si Si6 0.937900 0.174145 0.777515
Si Si7 0.762178 0.556176 0.776258
O O1 0.930618 0.557825 0.500000
O O2 0.914171 0.500000 0.226979
O O3 0.901097 0.596194 0.190891
O O4 0.000000 0.556579 0.234381
O O5 0.500000 0.195064 0.279262
O O6 0.383900 0.180802 0.288052
O O7 0.431852 0.268916 0.272787
O O8 0.436747 0.208757 0.000000
O O9 0.096823 0.047688 0.217800
O O10 0.063821 0.000000 0.500000
O O11 0.000000 0.000000 0.217538
O O12 0.110929 0.861221 0.289584
O O13 0.199818 0.929475 0.283761
O O14 0.154021 0.897013 0.000000
O O15 0.197124 0.399750 0.285443
O O16 0.168610 0.350156 0.000000
O O17 0.000000 0.157450 0.720981
O O18 0.937474 0.172478 0.000000
O O19 0.775358 0.500000 0.718714
O O20 0.764941 0.555407 0.000000
#
# Coordination Sequence:
#
# PCOD9483336 Si02
#       7
#    16  16   8  16  16  16  16
#     4   9  18  31  44  61  89 120 151 198 252 289
#     4   8  14  25  41  66  98 123 150 198 248 281
#     4  11  23  35  49  75 107 127 146 193 250 289
#     4  10  18  32  53  72  93 129 168 194 228 282
#     4  10  18  28  46  68  91 125 162 192 236 290
#     4   8  14  25  44  70  95 119 154 199 238 276
#     4   9  17  29  44  66  96 125 156 203 242 262
#
# _framework density 21.686176
#
# number of rings (size 3 to 8) (size 9 to 14) (size 15 to 20)
#    0.000    2.846    0.769    3.000    0.000    3.077 
#    0.000    2.308    0.000    5.538    0.000    4.308 
#    0.000    2.462    0.000    0.000    0.000    0.000 
#
# Total GULP energy -290048.168340 kJ/mol
# GULP energy per Si atom -5577.849391 kJ/mol
# Density = 2.163682 g / cm^3
# Si number density = 21.686176 Si / 1000 Ang^3
#
#
#
# Elastic Constant Matrix: (Units=GPa)
#
#
# Indices 1 2 3 4 5 6 
#
# 1 141.6902 74.1040 -0.5069 0.0000 0.0000 0.0000
# 2 74.1040 107.8263 -4.1811 0.0000 0.0000 0.0000
# 3 -0.5069 -4.1811 81.5861 0.0000 0.0000 0.0000
# 4 0.0000 0.0000 0.0000 4.9359 0.0000 0.0000
# 5 0.0000 0.0000 0.0000 0.0000 5.5266 0.0000
# 6 0.0000 0.0000 0.0000 0.0000 0.0000 16.7572
#
#
#
# Elastic Compliance Matrix: (Units=1/GPa)
#
#
# Indices 1 2 3 4 5 6 
#
# 1 0.011026 -0.007590 -0.000320 0.000000 0.000000 0.000000
# 2 -0.007590 0.014518 0.000697 0.000000 0.000000 0.000000
# 3 -0.000320 0.000697 0.012291 0.000000 0.000000 0.000000
# 4 0.000000 0.000000 0.000000 0.202599 0.000000 0.000000
# 5 0.000000 0.000000 0.000000 0.000000 0.180942 0.000000
# 6 0.000000 0.000000 0.000000 0.000000 0.000000 0.059676
#
#
# Mechanical properties :
#
#
# Convention : Reuss Voigt Hill
#
# Bulk Modulus (GPa) = 42.72266 52.21496 47.46881
# Shear Modulus (GPa) = 9.93480 22.88971 16.41225
#
# Velocity S-wave (km/s) = 2.14269 3.25237 2.75400
# Velocity P-wave (km/s) = 5.08573 6.18334 5.66120
#
# Compressibility (1/GPa) = 0.02340678
#
# Stress axis : x y z
#
# Youngs Moduli (GPa) = 90.69308 68.88183 81.36229
#
# Poissons Ratio (x) = 0.52283 0.02607
# Poissons Ratio (y) = 0.68838 -0.05670
# Poissons Ratio (z) = 0.02906 -0.04800
#
# Static dielectric constant tensor:
#      x y z
#    x 1.784020 0.000000 0.000000 
#    y 0.000000 1.775280 0.000000 
#    z 0.000000 0.000000 1.858320 
# 
# From -- ./inp_files/14770.got.cif
#   From: 2010.05.17/outbox.cif.g08.bks.cpg/sg65_8_cif.got.tgz:14770.got - 2010.06.03 17:01:31.
