data_PCOD9483334
_publ_section_title
;
Structure prediction by ZEFSAII (Michael W. Deem and Ramdas Pophale) SiO2 
 PCOD9483334
Probable space group: C M M M
;
_chemical_formula_sum "Si O2"
_cell_formula_units_Z 72
_cell_length_a 18.776024
_cell_length_b 8.158528
_cell_length_c 24.823435
_cell_angle_alpha 90.000000
_cell_angle_beta 90.000000
_cell_angle_gamma 90.000000
_cell_volume 3802.570879
_symmetry_space_group_name_H-M "C M M M"
_symmetry_group_IT_number 65
_symmetry_cell_setting 'orthorhombic'
loop_
_space_group_symop_operation_xyz
x,y,z
-x,-y,z
x,-y,-z
-x,y,-z
-x,-y,-z
x,y,-z
-x,y,z
x,-y,z
1/2+x,1/2+y,z
1/2-x,1/2-y,z
1/2+x,1/2-y,-z
1/2-x,1/2+y,-z
1/2-x,1/2-y,-z
1/2+x,1/2+y,-z
1/2-x,1/2+y,z
1/2+x,1/2-y,z
loop_
_atom_site_type_symbol
_atom_site_label
_atom_site_fract_x
_atom_site_fract_y
_atom_site_fract_z
Si Si1 0.667611 0.698267 0.617325
Si Si2 0.082031 0.799095 0.277722
Si Si3 0.832723 0.197686 0.500000
Si Si4 0.667802 0.304993 0.826579
Si Si5 0.332879 0.804108 0.058073
O O1 0.665792 0.500000 0.617419
O O2 0.750000 0.750000 0.622823
O O3 0.622290 0.755970 0.668229
O O4 0.639527 0.754456 0.558366
O O5 0.123132 0.742187 0.224211
O O6 0.000000 0.748617 0.277421
O O7 0.083357 0.000000 0.277589
O O8 0.750000 0.250000 0.500000
O O9 0.837095 0.000000 0.500000
O O10 0.667870 0.500000 0.824390
O O11 0.750000 0.250000 0.822701
O O12 0.637236 0.256131 0.885087
O O13 0.250000 0.750000 0.058395
O O14 0.335097 0.000000 0.058726
O O15 0.362907 0.746927 0.000000
#
# Coordination Sequence:
#
# PCOD9483334 Si02
#       5
#    16  16   8  16  16
#     4   9  16  28  47  68  91 117 147 184 221 262
#     4   9  18  31  45  63  89 120 151 184 223 262
#     4   8  14  24  41  67  91 113 143 178 220 262
#     4  10  18  28  46  68  89 115 147 183 220 261
#     4   9  16  26  42  65  92 117 141 175 219 263
#
# _framework density 18.934559
#
# number of rings (size 3 to 8) (size 9 to 14) (size 15 to 20)
#    0.000    2.889    0.000    3.333    0.000    1.333 
#    0.000    1.667    0.000   10.000    0.000    4.667 
#    0.000    8.889    0.000    0.000    0.000    0.000 
#
# Total GULP energy -200470.762543 kJ/mol
# GULP energy per Si atom -5568.632293 kJ/mol
# Density = 1.889146 g / cm^3
# Si number density = 18.934559 Si / 1000 Ang^3
#
#
#
# Elastic Constant Matrix: (Units=GPa)
#
#
# Indices 1 2 3 4 5 6 
#
# 1 65.1096 4.9752 83.7081 0.0000 0.0000 0.0000
# 2 4.9752 18.9366 20.5671 0.0000 0.0000 0.0000
# 3 83.7081 20.5671 260.2588 0.0000 0.0000 0.0000
# 4 0.0000 0.0000 0.0000 18.2323 0.0000 0.0000
# 5 0.0000 0.0000 0.0000 0.0000 -3.6189 0.0000
# 6 0.0000 0.0000 0.0000 0.0000 0.0000 10.9537
#
#
#
# Elastic Compliance Matrix: (Units=1/GPa)
#
#
# Indices 1 2 3 4 5 6 
#
# 1 0.026294 0.002491 -0.008654 0.000000 0.000000 0.000000
# 2 0.002491 0.058002 -0.005385 0.000000 0.000000 0.000000
# 3 -0.008654 -0.005385 0.007051 0.000000 0.000000 0.000000
# 4 0.000000 0.000000 0.000000 0.054848 0.000000 0.000000
# 5 0.000000 0.000000 0.000000 0.000000 -0.276329 0.000000
# 6 0.000000 0.000000 0.000000 0.000000 0.000000 0.091293
#
#
# Mechanical properties :
#
#
# Convention : Reuss Voigt Hill
#
# Bulk Modulus (GPa) = 14.65164 62.53397 38.59281
# Shear Modulus (GPa) = 713.67208 20.78374 367.22791
#
# Velocity S-wave (km/s) = 19.43536 3.31669 13.94155
# Velocity P-wave (km/s) = 22.61414 6.91125 16.72071
#
# Compressibility (1/GPa) = 0.06825173
#
# Stress axis : x y z
#
# Youngs Moduli (GPa) = 38.03083 17.24084 141.81787
#
# Poissons Ratio (x) = -0.04295 1.22730
# Poissons Ratio (y) = -0.09473 0.76366
# Poissons Ratio (z) = 0.32912 0.09284
#
# Static dielectric constant tensor:
#      x y z
#    x 1.600700 0.000000 0.000000 
#    y 0.000000 1.662670 0.000000 
#    z 0.000000 0.000000 1.737230 
# 
# From -- ./inp_files/70738.got.cif
#   From: 2010.05.17/outbox.cif.g08.bks.cpg/sg65_36_cif.got.tgz:70738.got - 2010.06.03 17:01:31.
