data_PCOD9483264
_publ_section_title
;
Structure prediction by ZEFSAII (Michael W. Deem and Ramdas Pophale) SiO2 
 PCOD9483264
Probable space group: C M M M
;
_chemical_formula_sum "Si O2"
_cell_formula_units_Z 72
_cell_length_a 15.282461
_cell_length_b 40.187668
_cell_length_c 7.496516
_cell_angle_alpha 90.000000
_cell_angle_beta 90.000000
_cell_angle_gamma 90.000000
_cell_volume 4604.108761
_symmetry_space_group_name_H-M "C M M M"
_symmetry_group_IT_number 65
_symmetry_cell_setting 'orthorhombic'
loop_
_space_group_symop_operation_xyz
x,y,z
-x,-y,z
x,-y,-z
-x,y,-z
-x,-y,-z
x,y,-z
-x,y,z
x,-y,z
1/2+x,1/2+y,z
1/2-x,1/2-y,z
1/2+x,1/2-y,-z
1/2-x,1/2+y,-z
1/2-x,1/2-y,-z
1/2+x,1/2+y,-z
1/2-x,1/2+y,z
1/2+x,1/2-y,z
loop_
_atom_site_type_symbol
_atom_site_label
_atom_site_fract_x
_atom_site_fract_y
_atom_site_fract_z
Si Si1 0.394202 0.962330 0.000000
Si Si2 0.192253 0.781215 0.790570
Si Si3 0.000000 0.222482 0.202503
Si Si4 0.326552 0.162196 0.715032
Si Si5 0.104296 0.591805 0.287781
Si Si6 0.500000 0.798642 0.716853
O O1 0.371305 0.940375 0.827053
O O2 0.500000 0.964431 0.000000
O O3 0.360050 0.000000 0.000000
O O4 0.250000 0.750000 0.717259
O O5 0.246005 0.815293 0.775234
O O6 0.094597 0.785579 0.713658
O O7 0.179238 0.773310 0.000000
O O8 0.000000 0.262398 0.201712
O O9 0.000000 0.208685 0.000000
O O10 0.325276 0.161926 0.500000
O O11 0.339752 0.123983 0.769746
O O12 0.413794 0.181674 0.771017
O O13 0.114841 0.586636 0.500000
O O14 0.000000 0.598924 0.258813
O O15 0.500000 0.795779 0.500000
#
# Coordination Sequence:
#
# PCOD9483264 Si02
#       6
#     8  16   8  16  16   8
#     4   9  18  30  44  68  93 121 159 183 211 268
#     4  10  20  31  44  61  82 112 149 189 235 276
#     4  10  20  34  42  58  86 110 145 192 238 281
#     4  10  19  30  44  64  86 112 151 193 232 270
#     4   9  17  30  45  65  93 121 150 190 231 263
#     4  10  18  28  44  62  82 109 146 193 234 267
#
# _framework density 15.638204999999999
#
# number of rings (size 3 to 8) (size 9 to 14) (size 15 to 20)
#    0.000    2.333    3.333    0.000    1.556    1.778 
#    0.000    2.222    0.000    0.000    0.000    0.000 
#    0.000    0.000    0.000    2.000    0.000    8.889 
#
# Total GULP energy -200639.563922 kJ/mol
# GULP energy per Si atom -5573.321220 kJ/mol
# Density = 1.560261 g / cm^3
# Si number density = 15.638205 Si / 1000 Ang^3
#
#
#
# Elastic Constant Matrix: (Units=GPa)
#
#
# Indices 1 2 3 4 5 6 
#
# 1 111.2439 48.5792 15.7138 0.0000 0.0000 0.0000
# 2 48.5792 120.9587 24.1223 0.0000 0.0000 0.0000
# 3 15.7138 24.1223 49.3375 0.0000 0.0000 0.0000
# 4 0.0000 0.0000 0.0000 20.8937 0.0000 0.0000
# 5 0.0000 0.0000 0.0000 0.0000 3.9973 0.0000
# 6 0.0000 0.0000 0.0000 0.0000 0.0000 -2.8353
#
#
#
# Elastic Compliance Matrix: (Units=1/GPa)
#
#
# Indices 1 2 3 4 5 6 
#
# 1 0.010999 -0.004121 -0.001488 0.000000 0.000000 0.000000
# 2 -0.004121 0.010704 -0.003921 0.000000 0.000000 0.000000
# 3 -0.001488 -0.003921 0.022660 0.000000 0.000000 0.000000
# 4 0.000000 0.000000 0.000000 0.047861 0.000000 0.000000
# 5 0.000000 0.000000 0.000000 0.000000 0.250169 0.000000
# 6 0.000000 0.000000 0.000000 0.000000 0.000000 -0.352691
#
#
# Mechanical properties :
#
#
# Convention : Reuss Voigt Hill
#
# Bulk Modulus (GPa) = 39.52175 50.93008 45.22591
# Shear Modulus (GPa) = 290.74840 17.28613 154.01726
#
# Velocity S-wave (km/s) = 13.65011 3.32833 9.93487
# Velocity P-wave (km/s) = 16.54574 6.88540 12.67222
#
# Compressibility (1/GPa) = 0.02530253
#
# Stress axis : x y z
#
# Youngs Moduli (GPa) = 90.91817 93.42190 44.13106
#
# Poissons Ratio (x) = 0.38495 0.06569
# Poissons Ratio (y) = 0.37463 0.17304
# Poissons Ratio (z) = 0.13533 0.36632
#
# Static dielectric constant tensor:
#      x y z
#    x 1.526100 0.000000 0.000000 
#    y 0.000000 1.503330 0.000000 
#    z 0.000000 0.000000 1.592360 
# 
# From -- ./inp_files/7735.got.cif
#   From: 2010.05.17/outbox.cif.g08.bks.cpg/sg65_4_cif.got.tgz:7735.got - 2010.06.03 17:01:31.
