data_PCOD9483555
_publ_section_title
;
Structure prediction by ZEFSAII (Michael W. Deem and Ramdas Pophale) SiO2 
 PCOD9483555
Probable space group: C M M M
;
_chemical_formula_sum "Si O2"
_cell_formula_units_Z 112
_cell_length_a 19.285378
_cell_length_b 14.384358
_cell_length_c 19.782641
_cell_angle_alpha 90.000000
_cell_angle_beta 90.000000
_cell_angle_gamma 90.000000
_cell_volume 5487.858548
_symmetry_space_group_name_H-M "C M M M"
_symmetry_group_IT_number 65
_symmetry_cell_setting 'orthorhombic'
loop_
_space_group_symop_operation_xyz
x,y,z
-x,-y,z
x,-y,-z
-x,y,-z
-x,-y,-z
x,y,-z
-x,y,z
x,-y,z
1/2+x,1/2+y,z
1/2-x,1/2-y,z
1/2+x,1/2-y,-z
1/2-x,1/2+y,-z
1/2-x,1/2-y,-z
1/2+x,1/2+y,-z
1/2-x,1/2+y,z
1/2+x,1/2-y,z
loop_
_atom_site_type_symbol
_atom_site_label
_atom_site_fract_x
_atom_site_fract_y
_atom_site_fract_z
Si Si1 0.764791 0.639769 0.571606
Si Si2 0.692772 0.886186 0.922783
Si Si3 0.580991 0.886918 0.810068
Si Si4 0.421454 0.387377 0.724622
Si Si5 0.104800 0.105360 0.425746
Si Si6 0.699595 0.158120 0.283832
Si Si7 0.694725 0.397183 0.176260
O O1 0.797582 0.613167 0.500000
O O2 0.750000 0.750000 0.569703
O O3 0.687823 0.599207 0.575298
O O4 0.803629 0.620014 0.640511
O O5 0.626449 0.861562 0.876561
O O6 0.764160 0.853642 0.886452
O O7 0.695782 0.000000 0.922121
O O8 0.686953 0.855841 0.000000
O O9 0.500000 0.860957 0.813814
O O10 0.623398 0.841575 0.748056
O O11 0.583930 0.000000 0.803244
O O12 0.500000 0.372372 0.745491
O O13 0.409007 0.500000 0.719133
O O14 0.412772 0.350907 0.647288
O O15 0.368683 0.353843 0.782241
O O16 0.086215 0.147153 0.500000
O O17 0.076967 0.000000 0.425692
O O18 0.750000 0.250000 0.286006
O O19 0.744699 0.096895 0.232450
O O20 0.671770 0.500000 0.155072
#
# Coordination Sequence:
#
# PCOD9483555 Si02
#       7
#    16  16  16  16  16  16  16
#     4   9  17  28  43  62  87 118 153 195 238 277
#     4   8  14  25  45  73  98 120 149 190 240 289
#     4   9  18  32  51  75 102 131 160 197 248 299
#     4   9  16  25  38  57  83 115 149 187 229 270
#     4   9  16  25  39  60  85 112 145 187 234 280
#     4  10  18  29  48  69  93 123 160 201 238 286
#     4   9  16  28  45  64  90 122 156 193 234 287
#
# _framework density 20.40869
#
# number of rings (size 3 to 8) (size 9 to 14) (size 15 to 20)
#    0.000    3.000    1.429    1.286    0.000    1.143 
#    0.000    3.571    0.000    7.714    0.000    4.000 
#    0.000    0.000    0.000    0.000    0.000    0.000 
#
# Total GULP energy -311751.515740 kJ/mol
# GULP energy per Si atom -5566.991352 kJ/mol
# Density = 2.036224 g / cm^3
# Si number density = 20.408690 Si / 1000 Ang^3
#
#
#
# Elastic Constant Matrix: (Units=GPa)
#
#
# Indices 1 2 3 4 5 6 
#
# 1 148.1114 4.5546 89.1050 0.0000 0.0000 0.0000
# 2 4.5546 48.6502 -0.2780 0.0000 0.0000 0.0000
# 3 89.1050 -0.2780 188.7161 0.0000 0.0000 0.0000
# 4 0.0000 0.0000 0.0000 4.7694 0.0000 0.0000
# 5 0.0000 0.0000 0.0000 0.0000 18.0180 0.0000
# 6 0.0000 0.0000 0.0000 0.0000 0.0000 -5.4070
#
#
#
# Elastic Compliance Matrix: (Units=1/GPa)
#
#
# Indices 1 2 3 4 5 6 
#
# 1 0.009471 -0.000912 -0.004473 0.000000 0.000000 0.000000
# 2 -0.000912 0.020643 0.000461 0.000000 0.000000 0.000000
# 3 -0.004473 0.000461 0.007412 0.000000 0.000000 0.000000
# 4 0.000000 0.000000 0.000000 0.209671 0.000000 0.000000
# 5 0.000000 0.000000 0.000000 0.000000 0.055500 0.000000
# 6 0.000000 0.000000 0.000000 0.000000 0.000000 -0.184945
#
#
# Mechanical properties :
#
#
# Convention : Reuss Voigt Hill
#
# Bulk Modulus (GPa) = 36.13107 63.58232 49.85670
# Shear Modulus (GPa) = 36.54284 22.94914 29.74599
#
# Velocity S-wave (km/s) = 4.23608 3.35696 3.82188
# Velocity P-wave (km/s) = 6.45508 6.80057 6.63008
#
# Compressibility (1/GPa) = 0.02767701
#
# Stress axis : x y z
#
# Youngs Moduli (GPa) = 105.58782 48.44274 134.92202
#
# Poissons Ratio (x) = 0.04419 0.60352
# Poissons Ratio (y) = 0.09632 -0.06221
# Poissons Ratio (z) = 0.47231 -0.02234
#
# Static dielectric constant tensor:
#      x y z
#    x 1.713090 0.000000 0.000000 
#    y 0.000000 1.817310 0.000000 
#    z 0.000000 0.000000 1.762160 
# 
# From -- ./inp_files/63939.got.cif
#   From: 2010.05.17/outbox.cif.g08.bks.cpg/sg65_32_cif.got.tgz:63939.got - 2010.06.03 17:01:31.
