data_PCOD9483768
_publ_section_title
;
Structure prediction by ZEFSAII (Michael W. Deem and Ramdas Pophale) SiO2 
 PCOD9483768
Probable space group: C M M M
;
_chemical_formula_sum "Si O2"
_cell_formula_units_Z 104
_cell_length_a 8.316282
_cell_length_b 29.615371
_cell_length_c 24.227760
_cell_angle_alpha 90.000000
_cell_angle_beta 90.000000
_cell_angle_gamma 90.000000
_cell_volume 5967.049602
_symmetry_space_group_name_H-M "C M M M"
_symmetry_group_IT_number 65
_symmetry_cell_setting 'orthorhombic'
loop_
_space_group_symop_operation_xyz
x,y,z
-x,-y,z
x,-y,-z
-x,y,-z
-x,-y,-z
x,y,-z
-x,y,z
x,-y,z
1/2+x,1/2+y,z
1/2-x,1/2-y,z
1/2+x,1/2-y,-z
1/2-x,1/2+y,-z
1/2-x,1/2-y,-z
1/2+x,1/2+y,-z
1/2-x,1/2+y,z
1/2+x,1/2-y,z
loop_
_atom_site_type_symbol
_atom_site_label
_atom_site_fract_x
_atom_site_fract_y
_atom_site_fract_z
Si Si1 0.807891 0.449270 0.230814
Si Si2 0.192329 0.198162 0.382303
Si Si3 0.305664 0.357806 0.723835
Si Si4 0.193163 0.049971 0.105464
Si Si5 0.194308 0.801283 0.168983
Si Si6 0.803336 0.145063 0.939122
Si Si7 0.190739 0.698091 0.500000
O O1 0.762101 0.500000 0.249045
O O2 0.751281 0.409046 0.269808
O O3 0.733367 0.442527 0.169864
O O4 0.000000 0.447620 0.225360
O O5 0.250000 0.250000 0.376257
O O6 0.249872 0.167961 0.331123
O O7 0.247467 0.179441 0.441765
O O8 0.000000 0.199151 0.381836
O O9 0.500000 0.357584 0.723797
O O10 0.251129 0.330397 0.778272
O O11 0.249990 0.093468 0.071889
O O12 0.000000 0.048852 0.099856
O O13 0.255111 0.000000 0.089793
O O14 0.250000 0.750000 0.173470
O O15 0.250325 0.824139 0.111877
O O16 0.000000 0.802224 0.168973
O O17 0.000000 0.145093 0.938205
O O18 0.752470 0.160235 0.000000
O O19 0.250000 0.750000 0.500000
O O20 0.000000 0.697595 0.500000
#
# Coordination Sequence:
#
# PCOD9483768 Si02
#       7
#    16  16  16  16  16  16   8
#     4  10  20  32  49  74 101 127 157 196 244 297
#     4  10  19  31  49  74 105 138 174 209 246 288
#     4  10  20  34  52  74  99 130 165 204 246 292
#     4   9  16  29  50  71  93 121 153 193 244 301
#     4  10  20  34  49  68  94 124 161 202 248 292
#     4   9  17  30  48  69  94 122 157 202 245 292
#     4  10  18  30  48  70 103 142 177 208 244 285
#
# _framework density 17.429048000000002
#
# number of rings (size 3 to 8) (size 9 to 14) (size 15 to 20)
#    0.000    2.308    1.538    3.000    0.000    3.385 
#    0.000    1.538    0.000    1.385    0.000    2.692 
#    0.000    4.308    0.000    0.000    0.000    0.000 
#
# Total GULP energy -290024.207813 kJ/mol
# GULP energy per Si atom -5577.388612 kJ/mol
# Density = 1.738938 g / cm^3
# Si number density = 17.429048 Si / 1000 Ang^3
#
#
#
# Elastic Constant Matrix: (Units=GPa)
#
#
# Indices 1 2 3 4 5 6 
#
# 1 15.4665 7.6735 13.7842 0.0000 0.0000 0.0000
# 2 7.6735 102.2636 64.7166 0.0000 0.0000 0.0000
# 3 13.7842 64.7166 138.3709 0.0000 0.0000 0.0000
# 4 0.0000 0.0000 0.0000 22.0189 0.0000 0.0000
# 5 0.0000 0.0000 0.0000 0.0000 8.2968 0.0000
# 6 0.0000 0.0000 0.0000 0.0000 0.0000 21.6145
#
#
#
# Elastic Compliance Matrix: (Units=1/GPa)
#
#
# Indices 1 2 3 4 5 6 
#
# 1 0.071061 -0.001211 -0.006513 0.000000 0.000000 0.000000
# 2 -0.001211 0.013910 -0.006385 0.000000 0.000000 0.000000
# 3 -0.006513 -0.006385 0.010862 0.000000 0.000000 0.000000
# 4 0.000000 0.000000 0.000000 0.045416 0.000000 0.000000
# 5 0.000000 0.000000 0.000000 0.000000 0.120528 0.000000
# 6 0.000000 0.000000 0.000000 0.000000 0.000000 0.046265
#
#
# Mechanical properties :
#
#
# Convention : Reuss Voigt Hill
#
# Bulk Modulus (GPa) = 14.78936 47.60550 31.19743
# Shear Modulus (GPa) = 13.93540 21.71450 17.82495
#
# Velocity S-wave (km/s) = 2.83070 3.53353 3.20146
# Velocity P-wave (km/s) = 4.38038 6.63483 5.62177
#
# Compressibility (1/GPa) = 0.06761618
#
# Stress axis : x y z
#
# Youngs Moduli (GPa) = 14.07242 71.88858 92.06253
#
# Poissons Ratio (x) = 0.08703 0.59957
# Poissons Ratio (y) = 0.01704 0.58785
# Poissons Ratio (z) = 0.09165 0.45903
#
# Static dielectric constant tensor:
#      x y z
#    x 1.604150 0.000000 0.000000 
#    y 0.000000 1.588550 0.000000 
#    z 0.000000 0.000000 1.604010 
# 
# From -- ./inp_files/68544.got.cif
#   From: 2010.05.17/outbox.cif.g08.bks.cpg/sg65_35_cif.got.tgz:68544.got - 2010.06.03 17:01:31.
