data_PCOD9483545
_publ_section_title
;
Structure prediction by ZEFSAII (Michael W. Deem and Ramdas Pophale) SiO2 
 PCOD9483545
Probable space group: C M M M
;
_chemical_formula_sum "Si O2"
_cell_formula_units_Z 112
_cell_length_a 17.514454
_cell_length_b 24.635337
_cell_length_c 15.072886
_cell_angle_alpha 90.000000
_cell_angle_beta 90.000000
_cell_angle_gamma 90.000000
_cell_volume 6503.565599
_symmetry_space_group_name_H-M "C M M M"
_symmetry_group_IT_number 65
_symmetry_cell_setting 'orthorhombic'
loop_
_space_group_symop_operation_xyz
x,y,z
-x,-y,z
x,-y,-z
-x,y,-z
-x,-y,-z
x,y,-z
-x,y,z
x,-y,z
1/2+x,1/2+y,z
1/2-x,1/2-y,z
1/2+x,1/2-y,-z
1/2-x,1/2+y,-z
1/2-x,1/2-y,-z
1/2+x,1/2+y,-z
1/2-x,1/2+y,z
1/2+x,1/2-y,z
loop_
_atom_site_type_symbol
_atom_site_label
_atom_site_fract_x
_atom_site_fract_y
_atom_site_fract_z
Si Si1 0.090542 0.440128 0.359048
Si Si2 0.415464 0.829835 0.099084
Si Si3 0.634931 0.060142 0.153417
Si Si4 0.161214 0.259212 0.767628
Si Si5 0.692297 0.438520 0.894184
Si Si6 0.591671 0.666542 0.104831
Si Si7 0.408086 0.181841 0.400543
O O1 0.120429 0.500000 0.389339
O O2 0.104018 0.438375 0.253529
O O3 0.119153 0.381343 0.392236
O O4 0.000000 0.440768 0.378213
O O5 0.500000 0.813498 0.131083
O O6 0.408149 0.894064 0.099801
O O7 0.352064 0.808737 0.164828
O O8 0.405794 0.808734 0.000000
O O9 0.725965 0.070441 0.151779
O O10 0.623237 0.000000 0.117114
O O11 0.250000 0.250000 0.753583
O O12 0.123228 0.209815 0.823502
O O13 0.123613 0.278965 0.675887
O O14 0.665872 0.500000 0.872813
O O15 0.631850 0.391241 0.875656
O O16 0.707337 0.436810 0.000000
O O17 0.500000 0.663632 0.111366
O O18 0.609477 0.679722 0.000000
O O19 0.389580 0.200823 0.500000
O O20 0.500000 0.180361 0.390840
#
# Coordination Sequence:
#
# PCOD9483545 Si02
#       7
#    16  16  16  16  16  16  16
#     4   9  17  30  51  78 106 137 172 209 251 302
#     4  11  22  34  50  73 104 142 182 220 255 301
#     4  10  18  29  47  72 106 143 176 212 251 302
#     4  12  24  37  55  75 102 137 176 218 269 313
#     4   9  18  32  50  74 104 137 175 216 259 310
#     4  10  21  36  54  77 105 137 176 221 266 314
#     4  10  21  38  59  80 105 137 172 213 261 313
#
# _framework density 17.221323000000002
#
# number of rings (size 3 to 8) (size 9 to 14) (size 15 to 20)
#    0.000    1.857    1.429    3.429    0.000    6.000 
#    0.000    3.571    0.000    0.000    0.000    0.000 
#    0.000    0.571    0.000    3.000    0.000    0.143 
#
# Total GULP energy -312153.281291 kJ/mol
# GULP energy per Si atom -5574.165737 kJ/mol
# Density = 1.718213 g / cm^3
# Si number density = 17.221323 Si / 1000 Ang^3
#
#
#
# Elastic Constant Matrix: (Units=GPa)
#
#
# Indices 1 2 3 4 5 6 
#
# 1 48.2010 34.5910 27.3948 0.0000 0.0000 0.0000
# 2 34.5910 104.1161 45.8833 0.0000 0.0000 0.0000
# 3 27.3948 45.8833 83.6307 0.0000 0.0000 0.0000
# 4 0.0000 0.0000 0.0000 22.6453 0.0000 0.0000
# 5 0.0000 0.0000 0.0000 0.0000 37.9850 0.0000
# 6 0.0000 0.0000 0.0000 0.0000 0.0000 25.5183
#
#
#
# Elastic Compliance Matrix: (Units=1/GPa)
#
#
# Indices 1 2 3 4 5 6 
#
# 1 0.029086 -0.007207 -0.005574 0.000000 0.000000 0.000000
# 2 -0.007207 0.014453 -0.005569 0.000000 0.000000 0.000000
# 3 -0.005574 -0.005569 0.016838 0.000000 0.000000 0.000000
# 4 0.000000 0.000000 0.000000 0.044159 0.000000 0.000000
# 5 0.000000 0.000000 0.000000 0.000000 0.026326 0.000000
# 6 0.000000 0.000000 0.000000 0.000000 0.000000 0.039188
#
#
# Mechanical properties :
#
#
# Convention : Reuss Voigt Hill
#
# Bulk Modulus (GPa) = 42.23203 50.18733 46.20968
# Shear Modulus (GPa) = 23.29447 25.76830 24.53138
#
# Velocity S-wave (km/s) = 3.68183 3.87240 3.77832
# Velocity P-wave (km/s) = 6.53076 7.01426 6.77682
#
# Compressibility (1/GPa) = 0.02367871
#
# Stress axis : x y z
#
# Youngs Moduli (GPa) = 34.38037 69.18833 59.38828
#
# Poissons Ratio (x) = 0.49866 0.33101
# Poissons Ratio (y) = 0.24779 0.33072
# Poissons Ratio (z) = 0.19162 0.38530
#
# Static dielectric constant tensor:
#      x y z
#    x 1.569830 0.000000 0.000000 
#    y 0.000000 1.647110 0.000000 
#    z 0.000000 0.000000 1.580870 
# 
# From -- ./inp_files/40829.got.cif
#   From: 2010.05.17/outbox.cif.g08.bks.cpg/sg65_21_cif.got.tgz:40829.got - 2010.06.03 17:01:31.
