data_PCOD9483257
_publ_section_title
;
Structure prediction by ZEFSAII (Michael W. Deem and Ramdas Pophale) SiO2 
 PCOD9483257
Probable space group: C M M M
;
_chemical_formula_sum "Si O2"
_cell_formula_units_Z 72
_cell_length_a 27.478346
_cell_length_b 7.633243
_cell_length_c 21.646396
_cell_angle_alpha 90.000000
_cell_angle_beta 90.000000
_cell_angle_gamma 90.000000
_cell_volume 4540.307582
_symmetry_space_group_name_H-M "C M M M"
_symmetry_group_IT_number 65
_symmetry_cell_setting 'orthorhombic'
loop_
_space_group_symop_operation_xyz
x,y,z
-x,-y,z
x,-y,-z
-x,y,-z
-x,-y,-z
x,y,-z
-x,y,z
x,-y,z
1/2+x,1/2+y,z
1/2-x,1/2-y,z
1/2+x,1/2-y,-z
1/2-x,1/2+y,-z
1/2-x,1/2-y,-z
1/2+x,1/2+y,-z
1/2-x,1/2+y,z
1/2+x,1/2-y,z
loop_
_atom_site_type_symbol
_atom_site_label
_atom_site_fract_x
_atom_site_fract_y
_atom_site_fract_z
Si Si1 0.806319 0.208577 0.500000
Si Si2 0.692080 0.210862 0.000000
Si Si3 0.192367 0.290072 0.268911
Si Si4 0.807571 0.710176 0.132802
Si Si5 0.057828 0.500000 0.425551
Si Si6 0.371341 0.296275 0.613877
O O1 0.750000 0.250000 0.500000
O O2 0.833687 0.269152 0.438753
O O3 0.810253 0.000000 0.500000
O O4 0.750000 0.250000 0.000000
O O5 0.672772 0.276394 0.933495
O O6 0.686759 0.000000 0.000000
O O7 0.188060 0.500000 0.270223
O O8 0.250000 0.250000 0.278384
O O9 0.176734 0.225303 0.200371
O O10 0.157760 0.217279 0.322022
O O11 0.813845 0.500000 0.133029
O O12 0.750000 0.750000 0.131754
O O13 0.067241 0.500000 0.500000
O O14 0.082846 0.669305 0.394322
O O15 0.000000 0.500000 0.417145
O O16 0.384017 0.500000 0.602795
#
# Coordination Sequence:
#
# PCOD9483257 Si02
#       6
#     8   8  16  16   8  16
#     4  10  22  32  48  73  99 132 164 192 231 282
#     4   8  12  20  32  48  74 114 162 209 240 265
#     4  10  18  28  43  67  99 136 171 204 245 297
#     4   8  14  22  34  53  81 119 165 205 238 276
#     4  11  24  42  64  80  96 125 161 209 257 298
#     4  11  22  37  53  76 103 128 162 203 246 295
#
# _framework density 15.857957000000001
#
# number of rings (size 3 to 8) (size 9 to 14) (size 15 to 20)
#    0.000    2.333    2.222    1.333    1.556    3.111 
#    0.000    1.111    0.000    0.000    0.000    0.000 
#    0.000    0.000    0.000    2.000    0.000    3.111 
#
# Total GULP energy -200435.475614 kJ/mol
# GULP energy per Si atom -5567.652100 kJ/mol
# Density = 1.582186 g / cm^3
# Si number density = 15.857957 Si / 1000 Ang^3
#
#
#
# Elastic Constant Matrix: (Units=GPa)
#
#
# Indices 1 2 3 4 5 6 
#
# 1 70.3979 27.8835 45.8298 0.0000 0.0000 0.0000
# 2 27.8835 70.9008 21.1824 0.0000 0.0000 0.0000
# 3 45.8298 21.1824 160.6550 0.0000 0.0000 0.0000
# 4 0.0000 0.0000 0.0000 30.2013 0.0000 0.0000
# 5 0.0000 0.0000 0.0000 0.0000 3.2050 0.0000
# 6 0.0000 0.0000 0.0000 0.0000 0.0000 16.0090
#
#
#
# Elastic Compliance Matrix: (Units=1/GPa)
#
#
# Indices 1 2 3 4 5 6 
#
# 1 0.019873 -0.006373 -0.004829 0.000000 0.000000 0.000000
# 2 -0.006373 0.016726 -0.000387 0.000000 0.000000 0.000000
# 3 -0.004829 -0.000387 0.007653 0.000000 0.000000 0.000000
# 4 0.000000 0.000000 0.000000 0.033111 0.000000 0.000000
# 5 0.000000 0.000000 0.000000 0.000000 0.312012 0.000000
# 6 0.000000 0.000000 0.000000 0.000000 0.000000 0.062465
#
#
# Mechanical properties :
#
#
# Convention : Reuss Voigt Hill
#
# Bulk Modulus (GPa) = 47.45169 54.63834 51.04501
# Shear Modulus (GPa) = 10.37251 23.68692 17.02971
#
# Velocity S-wave (km/s) = 2.56029 3.86903 3.28058
# Velocity P-wave (km/s) = 6.22319 7.38165 6.82703
#
# Compressibility (1/GPa) = 0.02107406
#
# Stress axis : x y z
#
# Youngs Moduli (GPa) = 50.32026 59.78640 130.66599
#
# Poissons Ratio (x) = 0.38101 0.63096
# Poissons Ratio (y) = 0.32068 0.05062
# Poissons Ratio (z) = 0.24299 0.02316
#
# Static dielectric constant tensor:
#      x y z
#    x 1.483040 0.000000 0.000000 
#    y 0.000000 1.570370 0.000000 
#    z 0.000000 0.000000 1.614850 
# 
# From -- ./inp_files/65030.got.cif
#   From: 2010.05.17/outbox.cif.g08.bks.cpg/sg65_33_cif.got.tgz:65030.got - 2010.06.03 17:01:31.
