data_PCOD9483639
_publ_section_title
;
Structure prediction by ZEFSAII (Michael W. Deem and Ramdas Pophale) SiO2 
 PCOD9483639
Probable space group: C M M M
;
_chemical_formula_sum "Si O2"
_cell_formula_units_Z 112
_cell_length_a 14.867702
_cell_length_b 28.774803
_cell_length_c 14.548628
_cell_angle_alpha 90.000000
_cell_angle_beta 90.000000
_cell_angle_gamma 90.000000
_cell_volume 6224.124141
_symmetry_space_group_name_H-M "C M M M"
_symmetry_group_IT_number 65
_symmetry_cell_setting 'orthorhombic'
loop_
_space_group_symop_operation_xyz
x,y,z
-x,-y,z
x,-y,-z
-x,y,-z
-x,-y,-z
x,y,-z
-x,y,z
x,-y,z
1/2+x,1/2+y,z
1/2-x,1/2-y,z
1/2+x,1/2-y,-z
1/2-x,1/2+y,-z
1/2-x,1/2-y,-z
1/2+x,1/2+y,-z
1/2-x,1/2+y,z
1/2+x,1/2-y,z
loop_
_atom_site_type_symbol
_atom_site_label
_atom_site_fract_x
_atom_site_fract_y
_atom_site_fract_z
Si Si1 0.233633 0.134972 0.610608
Si Si2 0.404556 0.556282 0.891980
Si Si3 0.105102 0.221436 0.391374
Si Si4 0.107253 0.355731 0.897286
Si Si5 0.392670 0.181336 0.292154
Si Si6 0.102768 0.947231 0.388236
Si Si7 0.791057 0.447306 0.111926
O O1 0.243863 0.133501 0.500000
O O2 0.169950 0.179066 0.632735
O O3 0.329560 0.144368 0.656387
O O4 0.178700 0.089146 0.639638
O O5 0.500000 0.572346 0.851523
O O6 0.404325 0.500000 0.888994
O O7 0.307335 0.569537 0.854768
O O8 0.405623 0.569095 0.000000
O O9 0.117183 0.231577 0.500000
O O10 0.124133 0.268167 0.335504
O O11 0.000000 0.208635 0.378082
O O12 0.132138 0.321168 0.815458
O O13 0.138022 0.407372 0.868127
O O14 0.000000 0.355171 0.903335
O O15 0.143712 0.346027 0.000000
O O16 0.500000 0.171837 0.302034
O O17 0.104396 0.948404 0.500000
O O18 0.000000 0.933859 0.363754
O O19 0.118147 0.000000 0.354695
O O20 0.809770 0.500000 0.144147
O O21 0.786316 0.450190 0.000000
#
# Coordination Sequence:
#
# PCOD9483639 Si02
#       7
#    16  16  16  16  16  16  16
#     4  10  18  29  50  78 106 134 161 193 239 291
#     4   7   9  14  27  50  78 102 124 159 216 285
#     4   9  17  30  51  80 108 129 154 193 241 291
#     4   9  18  32  47  61  81 116 162 206 247 291
#     4  10  20  32  46  68  99 132 165 203 247 293
#     4   8  14  26  46  73 104 137 171 202 232 274
#     4   8  13  22  39  62  82 102 139 196 253 293
#
# _framework density 17.994499999999999
#
# number of rings (size 3 to 8) (size 9 to 14) (size 15 to 20)
#    0.000    3.286    0.000    3.000    0.000    4.000 
#    0.000    2.143    0.000    4.714    0.000    4.000 
#    0.000    0.000    0.000    0.000    0.000    1.286 
#
# Total GULP energy -311817.231996 kJ/mol
# GULP energy per Si atom -5568.164857 kJ/mol
# Density = 1.795354 g / cm^3
# Si number density = 17.994500 Si / 1000 Ang^3
#
#
#
# Elastic Constant Matrix: (Units=GPa)
#
#
# Indices 1 2 3 4 5 6 
#
# 1 48.7729 37.7315 31.0536 0.0000 0.0000 0.0000
# 2 37.7315 66.7932 33.6045 0.0000 0.0000 0.0000
# 3 31.0536 33.6045 59.5292 0.0000 0.0000 0.0000
# 4 0.0000 0.0000 0.0000 -12.6235 0.0000 0.0000
# 5 0.0000 0.0000 0.0000 0.0000 1.5024 0.0000
# 6 0.0000 0.0000 0.0000 0.0000 0.0000 14.8787
#
#
#
# Elastic Compliance Matrix: (Units=1/GPa)
#
#
# Indices 1 2 3 4 5 6 
#
# 1 0.041597 -0.017572 -0.011780 0.000000 0.000000 0.000000
# 2 -0.017572 0.028333 -0.006828 0.000000 0.000000 0.000000
# 3 -0.011780 -0.006828 0.026798 0.000000 0.000000 0.000000
# 4 0.000000 0.000000 0.000000 -0.079217 0.000000 0.000000
# 5 0.000000 0.000000 0.000000 0.000000 0.665588 0.000000
# 6 0.000000 0.000000 0.000000 0.000000 0.000000 0.067210
#
#
# Mechanical properties :
#
#
# Convention : Reuss Voigt Hill
#
# Bulk Modulus (GPa) = 41.03549 42.20826 41.62188
# Shear Modulus (GPa) = 6.01836 5.59858 5.80847
#
# Velocity S-wave (km/s) = 1.83080 1.76579 1.79859
# Velocity P-wave (km/s) = 5.22715 5.25970 5.24345
#
# Compressibility (1/GPa) = 0.02436915
#
# Stress axis : x y z
#
# Youngs Moduli (GPa) = 24.04014 35.29463 37.31637
#
# Poissons Ratio (x) = 0.62018 0.43959
# Poissons Ratio (y) = 0.42242 0.25479
# Poissons Ratio (z) = 0.28319 0.24099
#
# Static dielectric constant tensor:
#      x y z
#    x 1.648280 0.000000 0.000000 
#    y 0.000000 1.594320 0.000000 
#    z 0.000000 0.000000 1.668430 
# 
# From -- ./inp_files/41376.got.cif
#   From: 2010.05.17/outbox.cif.g08.bks.cpg/sg65_21_cif.got.tgz:41376.got - 2010.06.03 17:01:31.
