data_PCOD9483145
_publ_section_title
;
Structure prediction by ZEFSAII (Michael W. Deem and Ramdas Pophale) SiO2 
 PCOD9483145
Probable space group: C M M M
;
_chemical_formula_sum "Si O2"
_cell_formula_units_Z 96
_cell_length_a 29.128356
_cell_length_b 32.353409
_cell_length_c 7.780767
_cell_angle_alpha 90.000000
_cell_angle_beta 90.000000
_cell_angle_gamma 90.000000
_cell_volume 7332.607388
_symmetry_space_group_name_H-M "C M M M"
_symmetry_group_IT_number 65
_symmetry_cell_setting 'orthorhombic'
loop_
_space_group_symop_operation_xyz
x,y,z
-x,-y,z
x,-y,-z
-x,y,-z
-x,-y,-z
x,y,-z
-x,y,z
x,-y,z
1/2+x,1/2+y,z
1/2-x,1/2-y,z
1/2+x,1/2-y,-z
1/2-x,1/2+y,-z
1/2-x,1/2-y,-z
1/2+x,1/2+y,-z
1/2-x,1/2+y,z
1/2+x,1/2-y,z
loop_
_atom_site_type_symbol
_atom_site_label
_atom_site_fract_x
_atom_site_fract_y
_atom_site_fract_z
Si Si1 0.089638 0.045604 0.790671
Si Si2 0.551470 0.367066 0.208742
Si Si3 0.639041 0.686064 0.304166
Si Si4 0.696931 0.453759 0.792167
Si Si5 0.769010 0.133182 0.305354
Si Si6 0.268473 0.183115 0.000000
Si Si7 0.825275 0.237631 0.000000
O O1 0.062153 0.085878 0.734346
O O2 0.143225 0.050457 0.742227
O O3 0.073867 0.000000 0.733241
O O4 0.088140 0.045205 0.000000
O O5 0.500000 0.355278 0.259968
O O6 0.591160 0.337197 0.275495
O O7 0.553922 0.366519 0.000000
O O8 0.642732 0.700640 0.500000
O O9 0.680151 0.652808 0.275605
O O10 0.647488 0.722153 0.167275
O O11 0.711837 0.500000 0.741984
O O12 0.725402 0.415729 0.719556
O O13 0.698320 0.451163 0.000000
O O14 0.755598 0.142994 0.500000
O O15 0.736078 0.154384 0.167123
O O16 0.222570 0.211735 0.000000
O O17 0.310787 0.214655 0.000000
#
# Coordination Sequence:
#
# PCOD9483145 Si02
#       7
#    16  16  16  16  16   8   8
#     4   8  14  23  37  55  73  97 131 168 204 242
#     4  10  18  27  42  59  76 101 132 165 204 247
#     4  10  19  30  45  60  76 100 126 155 195 243
#     4   9  15  24  40  57  75 104 136 163 194 233
#     4  10  18  27  43  62  79 101 128 154 191 240
#     4   9  18  30  45  62  80  97 111 151 195 234
#     4   9  18  32  47  60  78  96 116 146 192 246
#
# _framework density 13.092205999999999
#
# number of rings (size 3 to 8) (size 9 to 14) (size 15 to 20)
#    0.000    2.667    3.333    1.000    0.000    1.667 
#    0.000    5.000    0.000    0.500    0.000    1.167 
#    0.000    0.000    0.000    0.000    0.000    0.000 
#
# Total GULP energy -267510.625380 kJ/mol
# GULP energy per Si atom -5573.138029 kJ/mol
# Density = 1.306241 g / cm^3
# Si number density = 13.092206 Si / 1000 Ang^3
#
#
#
# Elastic Constant Matrix: (Units=GPa)
#
#
# Indices 1 2 3 4 5 6 
#
# 1 39.0737 40.6218 26.6098 0.0000 0.0000 0.0000
# 2 40.6218 77.0509 44.9977 0.0000 0.0000 0.0000
# 3 26.6098 44.9977 62.4078 0.0000 0.0000 0.0000
# 4 0.0000 0.0000 0.0000 0.8209 0.0000 0.0000
# 5 0.0000 0.0000 0.0000 0.0000 4.0441 0.0000
# 6 0.0000 0.0000 0.0000 0.0000 0.0000 17.8575
#
#
#
# Elastic Compliance Matrix: (Units=1/GPa)
#
#
# Indices 1 2 3 4 5 6 
#
# 1 0.057383 -0.027575 -0.004585 0.000000 0.000000 0.000000
# 2 -0.027575 0.035670 -0.013961 0.000000 0.000000 0.000000
# 3 -0.004585 -0.013961 0.028045 0.000000 0.000000 0.000000
# 4 0.000000 0.000000 0.000000 1.218132 0.000000 0.000000
# 5 0.000000 0.000000 0.000000 0.000000 0.247275 0.000000
# 6 0.000000 0.000000 0.000000 0.000000 0.000000 0.055999
#
#
# Mechanical properties :
#
#
# Convention : Reuss Voigt Hill
#
# Bulk Modulus (GPa) = 34.65585 44.77678 39.71631
# Shear Modulus (GPa) = 2.86638 8.96470 5.91554
#
# Velocity S-wave (km/s) = 1.48126 2.61958 2.12795
# Velocity P-wave (km/s) = 5.42711 6.58976 6.03649
#
# Compressibility (1/GPa) = 0.02885516
#
# Stress axis : x y z
#
# Youngs Moduli (GPa) = 17.42690 28.03514 35.65719
#
# Poissons Ratio (x) = 0.77307 0.16348
# Poissons Ratio (y) = 0.48055 0.49781
# Poissons Ratio (z) = 0.07990 0.39140
#
# Static dielectric constant tensor:
#      x y z
#    x 1.392420 0.000000 0.000000 
#    y 0.000000 1.423700 0.000000 
#    z 0.000000 0.000000 1.473380 
# 
# From -- ./inp_files/19160.got.cif
#   From: 2010.05.17/outbox.cif.g08.bks.cpg/sg65_10_cif.got.tgz:19160.got - 2010.06.03 17:01:31.
