data_PCOD9483940
_publ_section_title
;
Structure prediction by ZEFSAII (Michael W. Deem and Ramdas Pophale) SiO2 
 PCOD9483940
Probable space group: C M M M
;
_chemical_formula_sum "Si O2"
_cell_formula_units_Z 104
_cell_length_a 24.654232
_cell_length_b 7.798721
_cell_length_c 29.163728
_cell_angle_alpha 90.000000
_cell_angle_beta 90.000000
_cell_angle_gamma 90.000000
_cell_volume 5607.353053
_symmetry_space_group_name_H-M "C M M M"
_symmetry_group_IT_number 65
_symmetry_cell_setting 'orthorhombic'
loop_
_space_group_symop_operation_xyz
x,y,z
-x,-y,z
x,-y,-z
-x,y,-z
-x,-y,-z
x,y,-z
-x,y,z
x,-y,z
1/2+x,1/2+y,z
1/2-x,1/2-y,z
1/2+x,1/2-y,-z
1/2-x,1/2+y,-z
1/2-x,1/2-y,-z
1/2+x,1/2+y,-z
1/2-x,1/2+y,z
1/2+x,1/2-y,z
loop_
_atom_site_type_symbol
_atom_site_label
_atom_site_fract_x
_atom_site_fract_y
_atom_site_fract_z
Si Si1 0.000000 0.207968 0.202234
Si Si2 0.889387 0.205751 0.356068
Si Si3 0.000000 0.208149 0.309917
Si Si4 0.618966 0.296375 0.188685
Si Si5 0.686155 0.793827 0.000000
Si Si6 0.313565 0.794986 0.900229
Si Si7 0.061537 0.293923 0.551834
Si Si8 0.313009 0.706741 0.276488
O O1 0.000000 0.245858 0.256332
O O2 0.942262 0.272849 0.183802
O O3 0.000000 0.000000 0.196354
O O4 0.945309 0.271932 0.333500
O O5 0.895182 0.245870 0.409613
O O6 0.840030 0.267807 0.324265
O O7 0.889498 0.000000 0.352295
O O8 0.000000 0.000000 0.313763
O O9 0.613598 0.500000 0.196909
O O10 0.653171 0.271605 0.142793
O O11 0.651620 0.228396 0.233114
O O12 0.750000 0.750000 0.000000
O O13 0.666237 0.730550 0.950344
O O14 0.680275 0.000000 0.000000
O O15 0.250000 0.750000 0.895566
O O16 0.317712 0.000000 0.900141
O O17 0.073552 0.234547 0.500000
O O18 0.059158 0.500000 0.550784
O O19 0.000000 0.232102 0.563739
O O20 0.316420 0.500000 0.275893
O O21 0.250000 0.750000 0.272127
#
# Coordination Sequence:
#
# PCOD9483940 Si02
#       8
#     8  16   8  16   8  16  16  16
#     4   9  16  30  51  71  97 133 167 195 236 291
#     4  10  18  30  51  74  95 123 161 201 235 276
#     4   9  14  26  48  72  94 121 158 197 236 277
#     4  10  19  32  51  74 100 131 164 199 241 290
#     4   8  16  30  48  69  94 125 161 202 248 292
#     4  10  19  32  50  73 100 129 163 204 248 292
#     4   9  18  31  46  69 102 132 154 184 236 294
#     4  10  21  34  49  71  99 130 163 197 237 285
#
# _framework density 18.547076000000001
#
# number of rings (size 3 to 8) (size 9 to 14) (size 15 to 20)
#    0.000    2.462    2.308    1.385    0.000    3.385 
#    0.000    1.154    0.000    1.846    0.000    3.231 
#    0.000    0.000    0.000    0.000    0.000    0.000 
#
# Total GULP energy -289807.505498 kJ/mol
# GULP energy per Si atom -5573.221260 kJ/mol
# Density = 1.850486 g / cm^3
# Si number density = 18.547076 Si / 1000 Ang^3
#
#
#
# Elastic Constant Matrix: (Units=GPa)
#
#
# Indices 1 2 3 4 5 6 
#
# 1 124.7430 7.7216 79.2235 0.0000 0.0000 0.0000
# 2 7.7216 23.0292 -0.4998 0.0000 0.0000 0.0000
# 3 79.2235 -0.4998 142.0504 0.0000 0.0000 0.0000
# 4 0.0000 0.0000 0.0000 17.3033 0.0000 0.0000
# 5 0.0000 0.0000 0.0000 0.0000 24.6254 0.0000
# 6 0.0000 0.0000 0.0000 0.0000 0.0000 15.3846
#
#
#
# Elastic Compliance Matrix: (Units=1/GPa)
#
#
# Indices 1 2 3 4 5 6 
#
# 1 0.012857 -0.004467 -0.007186 0.000000 0.000000 0.000000
# 2 -0.004467 0.044978 0.002649 0.000000 0.000000 0.000000
# 3 -0.007186 0.002649 0.011057 0.000000 0.000000 0.000000
# 4 0.000000 0.000000 0.000000 0.057793 0.000000 0.000000
# 5 0.000000 0.000000 0.000000 0.000000 0.040608 0.000000
# 6 0.000000 0.000000 0.000000 0.000000 0.000000 0.065000
#
#
# Mechanical properties :
#
#
# Convention : Reuss Voigt Hill
#
# Bulk Modulus (GPa) = 19.65217 51.41259 35.53238
# Shear Modulus (GPa) = 18.70824 25.02114 21.86469
#
# Velocity S-wave (km/s) = 3.17943 3.67694 3.43720
# Velocity P-wave (km/s) = 4.90889 6.76807 5.91202
#
# Compressibility (1/GPa) = 0.05088497
#
# Stress axis : x y z
#
# Youngs Moduli (GPa) = 77.77938 22.23297 90.44116
#
# Poissons Ratio (x) = 0.09931 0.64993
# Poissons Ratio (y) = 0.34742 -0.23962
# Poissons Ratio (z) = 0.55894 -0.05890
#
# Static dielectric constant tensor:
#      x y z
#    x 1.627490 0.000000 0.000000 
#    y 0.000000 1.696380 0.000000 
#    z 0.000000 0.000000 1.669270 
# 
# From -- ./inp_files/75807.got.cif
#   From: 2010.05.17/outbox.cif.g08.bks.cpg/sg65_38_cif.got.tgz:75807.got - 2010.06.03 17:01:31.
