data_PCOD9483679
_publ_section_title
;
Structure prediction by ZEFSAII (Michael W. Deem and Ramdas Pophale) SiO2 
 PCOD9483679
Probable space group: C M M M
;
_chemical_formula_sum "Si O2"
_cell_formula_units_Z 56
_cell_length_a 8.612658
_cell_length_b 25.033868
_cell_length_c 14.915328
_cell_angle_alpha 90.000000
_cell_angle_beta 90.000000
_cell_angle_gamma 90.000000
_cell_volume 3215.866180
_symmetry_space_group_name_H-M "C M M M"
_symmetry_group_IT_number 65
_symmetry_cell_setting 'orthorhombic'
loop_
_space_group_symop_operation_xyz
x,y,z
-x,-y,z
x,-y,-z
-x,y,-z
-x,-y,-z
x,y,-z
-x,y,z
x,-y,z
1/2+x,1/2+y,z
1/2-x,1/2-y,z
1/2+x,1/2-y,-z
1/2-x,1/2+y,-z
1/2-x,1/2-y,-z
1/2+x,1/2+y,-z
1/2-x,1/2+y,z
1/2+x,1/2-y,z
loop_
_atom_site_type_symbol
_atom_site_label
_atom_site_fract_x
_atom_site_fract_y
_atom_site_fract_z
Si Si1 0.816087 0.809646 0.812434
Si Si2 0.311234 0.000000 0.601744
Si Si3 0.811080 0.500000 0.104020
Si Si4 0.312382 0.913542 0.252757
Si Si5 0.184994 0.310155 0.000000
O O1 0.750000 0.750000 0.796557
O O2 0.762269 0.855231 0.744718
O O3 0.000000 0.805287 0.818545
O O4 0.748767 0.831612 0.907024
O O5 0.267673 0.948657 0.660969
O O6 0.500000 0.000000 0.599226
O O7 0.253999 0.000000 0.500000
O O8 0.766452 0.448670 0.164771
O O9 0.000000 0.500000 0.101265
O O10 0.757651 0.500000 0.000000
O O11 0.500000 0.908533 0.250069
O O12 0.250000 0.250000 0.000000
O O13 0.000000 0.311310 0.000000
#
# Coordination Sequence:
#
# PCOD9483679 Si02
#       5
#    16   8   8  16   8
#     4  11  21  33  48  70 102 137 174 213 254 297
#     4   8  15  31  56  82 105 129 164 209 256 311
#     4   8  15  27  44  68  96 130 166 200 242 294
#     4   9  17  30  50  76 101 131 171 208 249 303
#     4  10  18  30  46  65  92 131 176 212 242 284
#
# _framework density 17.41366
#
# number of rings (size 3 to 8) (size 9 to 14) (size 15 to 20)
#    0.000    2.571    0.000    7.286    2.000    0.000 
#    0.000    2.857    0.000    3.429    0.000    0.000 
#    0.000    0.000    0.000    0.000    0.000    0.000 
#
# Total GULP energy -155999.996696 kJ/mol
# GULP energy per Si atom -5571.428453 kJ/mol
# Density = 1.737403 g / cm^3
# Si number density = 17.413660 Si / 1000 Ang^3
#
#
#
# Elastic Constant Matrix: (Units=GPa)
#
#
# Indices 1 2 3 4 5 6 
#
# 1 88.3948 45.5481 27.8342 0.0000 0.0000 0.0000
# 2 45.5481 140.6280 62.3667 0.0000 0.0000 0.0000
# 3 27.8342 62.3667 120.5734 0.0000 0.0000 0.0000
# 4 0.0000 0.0000 0.0000 12.5625 0.0000 0.0000
# 5 0.0000 0.0000 0.0000 0.0000 9.4541 0.0000
# 6 0.0000 0.0000 0.0000 0.0000 0.0000 23.3081
#
#
#
# Elastic Compliance Matrix: (Units=1/GPa)
#
#
# Indices 1 2 3 4 5 6 
#
# 1 0.013696 -0.003937 -0.001125 0.000000 0.000000 0.000000
# 2 -0.003937 0.010359 -0.004450 0.000000 0.000000 0.000000
# 3 -0.001125 -0.004450 0.010855 0.000000 0.000000 0.000000
# 4 0.000000 0.000000 0.000000 0.079602 0.000000 0.000000
# 5 0.000000 0.000000 0.000000 0.000000 0.105774 0.000000
# 6 0.000000 0.000000 0.000000 0.000000 0.000000 0.042904
#
#
# Mechanical properties :
#
#
# Convention : Reuss Voigt Hill
#
# Bulk Modulus (GPa) = 62.94570 69.01047 65.97808
# Shear Modulus (GPa) = 17.39079 23.32144 20.35612
#
# Velocity S-wave (km/s) = 3.16363 3.66356 3.42274
# Velocity P-wave (km/s) = 7.04063 7.59024 7.32059
#
# Compressibility (1/GPa) = 0.01588671
#
# Stress axis : x y z
#
# Youngs Moduli (GPa) = 73.01493 96.53053 92.12317
#
# Poissons Ratio (x) = 0.38003 0.10367
# Poissons Ratio (y) = 0.28745 0.40991
# Poissons Ratio (z) = 0.08216 0.42952
#
# Static dielectric constant tensor:
#      x y z
#    x 1.583190 0.000000 0.000000 
#    y 0.000000 1.599700 0.000000 
#    z 0.000000 0.000000 1.635700 
# 
# From -- ./inp_files/35528.got.cif
#   From: 2010.05.17/outbox.cif.g08.bks.cpg/sg65_18_cif.got.tgz:35528.got - 2010.06.03 17:01:31.
