data_PCOD9483680
_publ_section_title
;
Structure prediction by ZEFSAII (Michael W. Deem and Ramdas Pophale) SiO2 
 PCOD9483680
Probable space group: C M M M
;
_chemical_formula_sum "Si O2"
_cell_formula_units_Z 56
_cell_length_a 26.249990
_cell_length_b 9.868813
_cell_length_c 13.609155
_cell_angle_alpha 90.000000
_cell_angle_beta 90.000000
_cell_angle_gamma 90.000000
_cell_volume 3525.536559
_symmetry_space_group_name_H-M "C M M M"
_symmetry_group_IT_number 65
_symmetry_cell_setting 'orthorhombic'
loop_
_space_group_symop_operation_xyz
x,y,z
-x,-y,z
x,-y,-z
-x,y,-z
-x,-y,-z
x,y,-z
-x,y,z
x,-y,z
1/2+x,1/2+y,z
1/2-x,1/2-y,z
1/2+x,1/2-y,-z
1/2-x,1/2+y,-z
1/2-x,1/2-y,-z
1/2+x,1/2+y,-z
1/2-x,1/2+y,z
1/2+x,1/2-y,z
loop_
_atom_site_type_symbol
_atom_site_label
_atom_site_fract_x
_atom_site_fract_y
_atom_site_fract_z
Si Si1 0.560068 0.663237 0.612793
Si Si2 0.290783 0.000000 0.242457
Si Si3 0.793345 0.000000 0.614758
Si Si4 0.849583 0.777628 0.255869
Si Si5 0.686198 0.500000 0.883733
O O1 0.574122 0.700232 0.500000
O O2 0.500000 0.690113 0.624898
O O3 0.567339 0.500000 0.621173
O O4 0.594929 0.731518 0.695200
O O5 0.264692 0.000000 0.349828
O O6 0.323693 0.864955 0.234337
O O7 0.242624 0.000000 0.167018
O O8 0.818481 0.867041 0.663611
O O9 0.800498 0.000000 0.500000
O O10 0.843893 0.870416 0.159214
O O11 0.690362 0.500000 0.000000
#
# Coordination Sequence:
#
# PCOD9483680 Si02
#       5
#    16   8   8  16   8
#     4   9  16  29  52  76  97 129 170 206 239 279
#     4  10  22  32  45  71 102 133 158 195 251 297
#     4  10  18  30  46  65  94 133 169 197 230 283
#     4  10  19  33  49  71 100 127 162 204 245 291
#     4  10  20  36  56  74  93 124 169 210 243 294
#
# _framework density 15.884107
#
# number of rings (size 3 to 8) (size 9 to 14) (size 15 to 20)
#    0.000    2.571    2.857    5.143    0.000    5.714 
#    0.000    0.714    0.000    3.429    0.000    0.000 
#    0.000    3.429    0.000    0.000    0.000    0.000 
#
# Total GULP energy -155998.073701 kJ/mol
# GULP energy per Si atom -5571.359775 kJ/mol
# Density = 1.584795 g / cm^3
# Si number density = 15.884107 Si / 1000 Ang^3
#
#
#
# Elastic Constant Matrix: (Units=GPa)
#
#
# Indices 1 2 3 4 5 6 
#
# 1 81.8330 27.7499 38.5706 0.0000 0.0000 0.0000
# 2 27.7499 82.8458 30.5387 0.0000 0.0000 0.0000
# 3 38.5706 30.5387 119.7850 0.0000 0.0000 0.0000
# 4 0.0000 0.0000 0.0000 1.9669 0.0000 0.0000
# 5 0.0000 0.0000 0.0000 0.0000 16.7527 0.0000
# 6 0.0000 0.0000 0.0000 0.0000 0.0000 -84.2370
#
#
#
# Elastic Compliance Matrix: (Units=1/GPa)
#
#
# Indices 1 2 3 4 5 6 
#
# 1 0.015352 -0.003665 -0.004009 0.000000 0.000000 0.000000
# 2 -0.003665 0.014197 -0.002440 0.000000 0.000000 0.000000
# 3 -0.004009 -0.002440 0.010261 0.000000 0.000000 0.000000
# 4 0.000000 0.000000 0.000000 0.508415 0.000000 0.000000
# 5 0.000000 0.000000 0.000000 0.000000 0.059692 0.000000
# 6 0.000000 0.000000 0.000000 0.000000 0.000000 -0.011871
#
#
# Mechanical properties :
#
#
# Convention : Reuss Voigt Hill
#
# Bulk Modulus (GPa) = 51.06127 53.13136 52.09632
# Shear Modulus (GPa) = 8.02824 -0.59652 3.71586
#
# Velocity S-wave (km/s) = 2.25061 -0.61348 1.53116
# Velocity P-wave (km/s) = 6.24256 5.74632 5.99957
#
# Compressibility (1/GPa) = 0.01958431
#
# Stress axis : x y z
#
# Youngs Moduli (GPa) = 65.13677 70.43555 97.45449
#
# Poissons Ratio (x) = 0.25811 0.39071
# Poissons Ratio (y) = 0.23870 0.23775
# Poissons Ratio (z) = 0.26114 0.17183
#
# Static dielectric constant tensor:
#      x y z
#    x 1.566320 0.000000 0.000000 
#    y 0.000000 1.529040 0.000000 
#    z 0.000000 0.000000 1.524110 
# 
# From -- ./inp_files/36271.got.cif
#   From: 2010.05.17/outbox.cif.g08.bks.cpg/sg65_19_cif.got.tgz:36271.got - 2010.06.03 17:01:31.
