data_PCOD9483518
_publ_section_title
;
Structure prediction by ZEFSAII (Michael W. Deem and Ramdas Pophale) SiO2 
 PCOD9483518
Probable space group: C M M M
;
_chemical_formula_sum "Si O2"
_cell_formula_units_Z 72
_cell_length_a 19.630317
_cell_length_b 28.518636
_cell_length_c 8.937009
_cell_angle_alpha 90.000000
_cell_angle_beta 90.000000
_cell_angle_gamma 90.000000
_cell_volume 5003.204543
_symmetry_space_group_name_H-M "C M M M"
_symmetry_group_IT_number 65
_symmetry_cell_setting 'orthorhombic'
loop_
_space_group_symop_operation_xyz
x,y,z
-x,-y,z
x,-y,-z
-x,y,-z
-x,-y,-z
x,y,-z
-x,y,z
x,-y,z
1/2+x,1/2+y,z
1/2-x,1/2-y,z
1/2+x,1/2-y,-z
1/2-x,1/2+y,-z
1/2-x,1/2-y,-z
1/2+x,1/2+y,-z
1/2-x,1/2+y,z
1/2+x,1/2-y,z
loop_
_atom_site_type_symbol
_atom_site_label
_atom_site_fract_x
_atom_site_fract_y
_atom_site_fract_z
Si Si1 0.000000 0.339995 0.827953
Si Si2 0.920433 0.500000 0.678890
Si Si3 0.357670 0.271179 0.180703
Si Si4 0.132017 0.405778 0.823135
Si Si5 0.277469 0.822995 0.181774
Si Si6 0.000000 0.759259 0.323497
O O1 0.934160 0.372434 0.809071
O O2 0.000000 0.295851 0.719974
O O3 0.000000 0.321864 0.000000
O O4 0.920770 0.500000 0.500000
O O5 0.883340 0.546375 0.738682
O O6 0.000000 0.500000 0.730519
O O7 0.328091 0.219727 0.224194
O O8 0.298550 0.307796 0.225323
O O9 0.430724 0.279271 0.252571
O O10 0.363361 0.271549 0.000000
O O11 0.194104 0.373083 0.767932
O O12 0.140992 0.415810 0.000000
O O13 0.278990 0.823683 0.000000
O O14 0.000000 0.765413 0.500000
#
# Coordination Sequence:
#
# PCOD9483518 Si02
#       6
#     8   8  16  16  16   8
#     4  10  18  29  47  64  83 116 155 191 228 259
#     4  11  23  33  41  61  93 124 151 184 223 259
#     4   9  16  30  48  65  86 114 148 185 223 265
#     4  10  18  31  49  66  83 112 155 194 224 259
#     4   8  15  28  49  69  83 107 149 193 227 260
#     4  12  22  28  39  65  96 123 152 182 216 263
#
# _framework density 14.390777
#
# number of rings (size 3 to 8) (size 9 to 14) (size 15 to 20)
#    0.000    2.333    3.333    2.667    0.000    1.333 
#    0.000    3.333    0.000    0.000    0.000    0.000 
#    0.000    0.889    0.000   10.222    0.000    4.000 
#
# Total GULP energy -200660.275021 kJ/mol
# GULP energy per Si atom -5573.896528 kJ/mol
# Density = 1.435802 g / cm^3
# Si number density = 14.390777 Si / 1000 Ang^3
#
#
#
# Elastic Constant Matrix: (Units=GPa)
#
#
# Indices 1 2 3 4 5 6 
#
# 1 123.6584 55.9429 38.3976 0.0000 0.0000 0.0000
# 2 55.9429 93.7104 29.3535 0.0000 0.0000 0.0000
# 3 38.3976 29.3535 35.6174 0.0000 0.0000 0.0000
# 4 0.0000 0.0000 0.0000 4.9427 0.0000 0.0000
# 5 0.0000 0.0000 0.0000 0.0000 6.8563 0.0000
# 6 0.0000 0.0000 0.0000 0.0000 0.0000 16.3808
#
#
#
# Elastic Compliance Matrix: (Units=1/GPa)
#
#
# Indices 1 2 3 4 5 6 
#
# 1 0.013555 -0.004738 -0.010709 0.000000 0.000000 0.000000
# 2 -0.004738 0.016041 -0.008112 0.000000 0.000000 0.000000
# 3 -0.010709 -0.008112 0.046306 0.000000 0.000000 0.000000
# 4 0.000000 0.000000 0.000000 0.202319 0.000000 0.000000
# 5 0.000000 0.000000 0.000000 0.000000 0.145852 0.000000
# 6 0.000000 0.000000 0.000000 0.000000 0.000000 0.061047
#
#
# Mechanical properties :
#
#
# Convention : Reuss Voigt Hill
#
# Bulk Modulus (GPa) = 34.74037 55.59714 45.16875
# Shear Modulus (GPa) = 9.22794 14.25543 11.74169
#
# Velocity S-wave (km/s) = 2.53502 3.15079 2.85953
# Velocity P-wave (km/s) = 5.72377 7.20794 6.50830
#
# Compressibility (1/GPa) = 0.02878496
#
# Stress axis : x y z
#
# Youngs Moduli (GPa) = 73.77099 62.34216 21.59535
#
# Poissons Ratio (x) = 0.29537 0.23126
# Poissons Ratio (y) = 0.34952 0.17518
# Poissons Ratio (z) = 0.79001 0.50571
#
# Static dielectric constant tensor:
#      x y z
#    x 1.490620 0.000000 0.000000 
#    y 0.000000 1.461650 0.000000 
#    z 0.000000 0.000000 1.478950 
# 
# From -- ./inp_files/12067.got.cif
#   From: 2010.05.17/outbox.cif.g08.bks.cpg/sg65_7_cif.got.tgz:12067.got - 2010.06.03 17:01:31.
