data_PCOD9483514
_publ_section_title
;
Structure prediction by ZEFSAII (Michael W. Deem and Ramdas Pophale) SiO2 
 PCOD9483514
Probable space group: C M M M
;
_chemical_formula_sum "Si O2"
_cell_formula_units_Z 112
_cell_length_a 13.754408
_cell_length_b 28.960049
_cell_length_c 14.076767
_cell_angle_alpha 90.000000
_cell_angle_beta 90.000000
_cell_angle_gamma 90.000000
_cell_volume 5607.175086
_symmetry_space_group_name_H-M "C M M M"
_symmetry_group_IT_number 65
_symmetry_cell_setting 'orthorhombic'
loop_
_space_group_symop_operation_xyz
x,y,z
-x,-y,z
x,-y,-z
-x,y,-z
-x,-y,-z
x,y,-z
-x,y,z
x,-y,z
1/2+x,1/2+y,z
1/2-x,1/2-y,z
1/2+x,1/2-y,-z
1/2-x,1/2+y,-z
1/2-x,1/2-y,-z
1/2+x,1/2+y,-z
1/2-x,1/2+y,z
1/2+x,1/2-y,z
loop_
_atom_site_type_symbol
_atom_site_label
_atom_site_fract_x
_atom_site_fract_y
_atom_site_fract_z
Si Si1 0.882158 0.677113 0.394547
Si Si2 0.616207 0.370021 0.253008
Si Si3 0.298920 0.552083 0.387841
Si Si4 0.385752 0.916597 0.715111
Si Si5 0.146283 0.274923 0.104478
Si Si6 0.211487 0.380669 0.110444
Si Si7 0.891848 0.768862 0.696829
O O1 0.846768 0.665599 0.500000
O O2 0.864421 0.635348 0.323197
O O3 0.845600 0.726969 0.361448
O O4 0.000000 0.680371 0.397431
O O5 0.500000 0.368074 0.234304
O O6 0.641665 0.410249 0.327581
O O7 0.682503 0.377893 0.159906
O O8 0.649347 0.320137 0.294412
O O9 0.299577 0.562387 0.500000
O O10 0.336972 0.500000 0.374227
O O11 0.188681 0.553744 0.347111
O O12 0.500000 0.926744 0.703771
O O13 0.352250 0.914906 0.824489
O O14 0.250000 0.250000 0.102312
O O15 0.162595 0.329666 0.115414
O O16 0.100103 0.252354 0.197065
O O17 0.102734 0.266745 0.000000
O O18 0.217421 0.393262 0.000000
O O19 0.000000 0.775890 0.656602
#
# Coordination Sequence:
#
# PCOD9483514 Si02
#       7
#    16  16  16  16  16  16  16
#     4   9  17  29  46  72 110 153 189 221 264 328
#     4  10  22  38  58  84 116 154 198 247 295 345
#     4  10  23  43  65  90 116 143 186 244 303 357
#     4  10  20  36  59  88 122 155 189 230 282 350
#     4  10  18  29  46  71 110 156 196 234 278 325
#     4  10  20  34  55  83 120 162 201 241 283 335
#     4  10  19  31  48  75 112 153 195 234 276 335
#
# _framework density 19.974406999999999
#
# number of rings (size 3 to 8) (size 9 to 14) (size 15 to 20)
#    0.000    2.143    2.857    0.429    0.000    3.143 
#    0.000    5.714    0.000    9.857    0.000    8.000 
#    0.000    0.000    0.000    0.000    0.000    0.000 
#
# Total GULP energy -312312.017558 kJ/mol
# GULP energy per Si atom -5577.000314 kJ/mol
# Density = 1.992894 g / cm^3
# Si number density = 19.974407 Si / 1000 Ang^3
#
#
#
# Elastic Constant Matrix: (Units=GPa)
#
#
# Indices 1 2 3 4 5 6 
#
# 1 71.5119 8.9430 -0.1008 0.0000 0.0000 0.0000
# 2 8.9430 66.4099 50.6053 0.0000 0.0000 0.0000
# 3 -0.1008 50.6053 114.5445 0.0000 0.0000 0.0000
# 4 0.0000 0.0000 0.0000 22.7579 0.0000 0.0000
# 5 0.0000 0.0000 0.0000 0.0000 15.0418 0.0000
# 6 0.0000 0.0000 0.0000 0.0000 0.0000 -894.0761
#
#
#
# Elastic Compliance Matrix: (Units=1/GPa)
#
#
# Indices 1 2 3 4 5 6 
#
# 1 0.014352 -0.002928 0.001306 0.000000 0.000000 0.000000
# 2 -0.002928 0.023297 -0.010295 0.000000 0.000000 0.000000
# 3 0.001306 -0.010295 0.013280 0.000000 0.000000 0.000000
# 4 0.000000 0.000000 0.000000 0.043941 0.000000 0.000000
# 5 0.000000 0.000000 0.000000 0.000000 0.066481 0.000000
# 6 0.000000 0.000000 0.000000 0.000000 0.000000 -0.001118
#
#
# Mechanical properties :
#
#
# Convention : Reuss Voigt Hill
#
# Bulk Modulus (GPa) = 36.90750 41.26237 39.08493
# Shear Modulus (GPa) = 25.89353 -158.38736 -66.24691
#
# Velocity S-wave (km/s) = 3.60437 -8.91444 -5.76523
# Velocity P-wave (km/s) = 5.98661 9.23331 4.97063
#
# Compressibility (1/GPa) = 0.02709476
#
# Stress axis : x y z
#
# Youngs Moduli (GPa) = 69.67824 42.92312 75.30232
#
# Poissons Ratio (x) = 0.12568 -0.09836
# Poissons Ratio (y) = 0.20402 0.77526
# Poissons Ratio (z) = -0.09101 0.44191
#
# Static dielectric constant tensor:
#      x y z
#    x 1.728770 0.000000 0.000000 
#    y 0.000000 1.702580 0.000000 
#    z 0.000000 0.000000 1.709960 
# 
# From -- ./inp_files/40840.got.cif
#   From: 2010.05.17/outbox.cif.g08.bks.cpg/sg65_21_cif.got.tgz:40840.got - 2010.06.03 17:01:31.
