data_PCOD9483838
_publ_section_title
;
Structure prediction by ZEFSAII (Michael W. Deem and Ramdas Pophale) SiO2 
 PCOD9483838
Probable space group: C M M M
;
_chemical_formula_sum "Si O2"
_cell_formula_units_Z 88
_cell_length_a 7.641645
_cell_length_b 29.895478
_cell_length_c 18.398660
_cell_angle_alpha 90.000000
_cell_angle_beta 90.000000
_cell_angle_gamma 90.000000
_cell_volume 4203.185468
_symmetry_space_group_name_H-M "C M M M"
_symmetry_group_IT_number 65
_symmetry_cell_setting 'orthorhombic'
loop_
_space_group_symop_operation_xyz
x,y,z
-x,-y,z
x,-y,-z
-x,y,-z
-x,-y,-z
x,y,-z
-x,y,z
x,-y,z
1/2+x,1/2+y,z
1/2-x,1/2-y,z
1/2+x,1/2-y,-z
1/2-x,1/2+y,-z
1/2-x,1/2-y,-z
1/2+x,1/2+y,-z
1/2-x,1/2+y,z
1/2+x,1/2-y,z
loop_
_atom_site_type_symbol
_atom_site_label
_atom_site_fract_x
_atom_site_fract_y
_atom_site_fract_z
Si Si1 0.714582 0.052034 0.000000
Si Si2 0.709149 0.202536 0.416678
Si Si3 0.213775 0.395609 0.416296
Si Si4 0.707469 0.300004 0.082792
Si Si5 0.792279 0.605545 0.858170
Si Si6 0.714393 0.949270 0.279454
O O1 0.775443 0.078713 0.928606
O O2 0.500000 0.052641 0.000000
O O3 0.766464 0.000000 0.000000
O O4 0.777593 0.204683 0.500000
O O5 0.500000 0.200480 0.420211
O O6 0.750000 0.250000 0.380151
O O7 0.767426 0.154125 0.389026
O O8 0.270163 0.401662 0.500000
O O9 0.271810 0.432011 0.358335
O O10 0.000000 0.396462 0.417746
O O11 0.500000 0.303150 0.077928
O O12 0.750000 0.250000 0.109133
O O13 0.766467 0.341726 0.130687
O O14 0.780577 0.304399 0.000000
O O15 0.724772 0.584112 0.783803
O O16 0.000000 0.597863 0.857523
O O17 0.500000 0.948745 0.280080
O O18 0.768297 0.000000 0.264623
#
# Coordination Sequence:
#
# PCOD9483838 Si02
#       6
#     8  16  16  16  16  16
#     4   9  16  26  44  69  94 125 166 207 244 285
#     4   8  13  22  38  60  85 113 144 180 227 281
#     4   8  14  25  41  63  93 127 162 204 254 302
#     4  10  20  34  54  78 104 133 168 205 244 294
#     4  10  18  30  49  73 102 133 167 207 249 293
#     4   9  17  28  44  68  96 128 168 212 255 299
#
# _framework density 20.936501
#
# number of rings (size 3 to 8) (size 9 to 14) (size 15 to 20)
#    0.000    3.000    0.909    2.182    0.000    3.273 
#    0.000    2.727    0.000    6.000    0.000    0.000 
#    0.000    0.000    0.000    8.727    0.000    9.091 
#
# Total GULP energy -245259.790696 kJ/mol
# GULP energy per Si atom -5574.086152 kJ/mol
# Density = 2.088885 g / cm^3
# Si number density = 20.936501 Si / 1000 Ang^3
#
#
#
# Elastic Constant Matrix: (Units=GPa)
#
#
# Indices 1 2 3 4 5 6 
#
# 1 35.1050 -7.0466 5.4065 0.0000 0.0000 0.0000
# 2 -7.0466 170.3121 85.3091 0.0000 0.0000 0.0000
# 3 5.4065 85.3091 111.5819 0.0000 0.0000 0.0000
# 4 0.0000 0.0000 0.0000 34.8634 0.0000 0.0000
# 5 0.0000 0.0000 0.0000 0.0000 -2.2684 0.0000
# 6 0.0000 0.0000 0.0000 0.0000 0.0000 14.1939
#
#
#
# Elastic Compliance Matrix: (Units=1/GPa)
#
#
# Indices 1 2 3 4 5 6 
#
# 1 0.029714 0.003161 -0.003857 0.000000 0.000000 0.000000
# 2 0.003161 0.009852 -0.007685 0.000000 0.000000 0.000000
# 3 -0.003857 -0.007685 0.015025 0.000000 0.000000 0.000000
# 4 0.000000 0.000000 0.000000 0.028683 0.000000 0.000000
# 5 0.000000 0.000000 0.000000 0.000000 -0.440840 0.000000
# 6 0.000000 0.000000 0.000000 0.000000 0.000000 0.070453
#
#
# Mechanical properties :
#
#
# Convention : Reuss Voigt Hill
#
# Bulk Modulus (GPa) = 26.43443 53.81523 40.12483
# Shear Modulus (GPa) = -19.39936 24.91310 2.75687
#
# Velocity S-wave (km/s) = -3.04728 3.45329 1.14875
# Velocity P-wave (km/s) = 0.52171 6.45446 4.57888
#
# Compressibility (1/GPa) = 0.03782945
#
# Stress axis : x y z
#
# Youngs Moduli (GPa) = 33.65366 101.50238 66.55693
#
# Poissons Ratio (x) = -0.32087 0.25668
# Poissons Ratio (y) = -0.10639 0.51152
# Poissons Ratio (z) = 0.12979 0.78009
#
# Static dielectric constant tensor:
#      x y z
#    x 1.792560 0.000000 0.000000 
#    y 0.000000 1.773240 0.000000 
#    z 0.000000 0.000000 1.743220 
# 
# From -- ./inp_files/50365.got.cif
#   From: 2010.05.17/outbox.cif.g08.bks.cpg/sg65_26_cif.got.tgz:50365.got - 2010.06.03 17:01:31.
