data_PCOD9483429
_publ_section_title
;
Structure prediction by ZEFSAII (Michael W. Deem and Ramdas Pophale) SiO2 
 PCOD9483429
Probable space group: C M M M
;
_chemical_formula_sum "Si O2"
_cell_formula_units_Z 88
_cell_length_a 30.966456
_cell_length_b 24.661180
_cell_length_c 8.859822
_cell_angle_alpha 90.000000
_cell_angle_beta 90.000000
_cell_angle_gamma 90.000000
_cell_volume 6765.974467
_symmetry_space_group_name_H-M "C M M M"
_symmetry_group_IT_number 65
_symmetry_cell_setting 'orthorhombic'
loop_
_space_group_symop_operation_xyz
x,y,z
-x,-y,z
x,-y,-z
-x,y,-z
-x,-y,-z
x,y,-z
-x,y,z
x,-y,z
1/2+x,1/2+y,z
1/2-x,1/2-y,z
1/2+x,1/2-y,-z
1/2-x,1/2+y,-z
1/2-x,1/2-y,-z
1/2+x,1/2+y,-z
1/2-x,1/2+y,z
1/2+x,1/2-y,z
loop_
_atom_site_type_symbol
_atom_site_label
_atom_site_fract_x
_atom_site_fract_y
_atom_site_fract_z
Si Si1 0.250903 0.120090 0.182669
Si Si2 0.758394 0.000000 0.821369
Si Si3 0.161255 0.180830 0.180442
Si Si4 0.296117 0.781208 0.673650
Si Si5 0.861749 0.000000 0.822006
Si Si6 0.500000 0.563271 0.683484
Si Si7 0.906832 0.104485 0.318787
O O1 0.202936 0.143052 0.222645
O O2 0.285798 0.161685 0.248345
O O3 0.256674 0.058393 0.238494
O O4 0.252770 0.120823 0.000000
O O5 0.810218 0.000000 0.809283
O O6 0.747905 0.000000 0.000000
O O7 0.171957 0.240935 0.239167
O O8 0.118298 0.155797 0.252004
O O9 0.158327 0.180060 0.000000
O O10 0.309213 0.787896 0.500000
O O11 0.250000 0.750000 0.675701
O O12 0.881159 0.052476 0.742672
O O13 0.872443 0.000000 0.000000
O O14 0.500000 0.500000 0.734597
O O15 0.500000 0.561100 0.500000
O O16 0.543585 0.594278 0.728756
O O17 0.905147 0.106059 0.500000
#
# Coordination Sequence:
#
# PCOD9483429 Si02
#       7
#    16   8  16  16   8   8  16
#     4   9  16  27  41  56  77 105 130 157 197 240
#     4   9  16  27  40  56  79 106 132 159 197 244
#     4  10  18  29  44  59  76  99 129 165 204 243
#     4   9  17  28  40  57  78  98 126 163 197 233
#     4  11  19  30  42  57  78 102 132 168 205 245
#     4   9  18  32  44  56  78 106 132 161 206 255
#     4  11  20  31  45  59  75 101 134 169 207 247
#
# _framework density 13.006257
#
# number of rings (size 3 to 8) (size 9 to 14) (size 15 to 20)
#    0.000    2.273    2.727    1.909    0.000    2.909 
#    0.000    2.727    0.000    0.000    0.000    0.000 
#    0.000    0.000    0.000    0.000    0.000    0.909 
#
# Total GULP energy -245149.119495 kJ/mol
# GULP energy per Si atom -5571.570898 kJ/mol
# Density = 1.297665 g / cm^3
# Si number density = 13.006257 Si / 1000 Ang^3
#
#
#
# Elastic Constant Matrix: (Units=GPa)
#
#
# Indices 1 2 3 4 5 6 
#
# 1 58.7633 47.6812 24.7528 0.0000 0.0000 0.0000
# 2 47.6812 113.4468 31.6633 0.0000 0.0000 0.0000
# 3 24.7528 31.6633 39.3390 0.0000 0.0000 0.0000
# 4 0.0000 0.0000 0.0000 20.3402 0.0000 0.0000
# 5 0.0000 0.0000 0.0000 0.0000 11.8512 0.0000
# 6 0.0000 0.0000 0.0000 0.0000 0.0000 85.6396
#
#
#
# Elastic Compliance Matrix: (Units=1/GPa)
#
#
# Indices 1 2 3 4 5 6 
#
# 1 0.029046 -0.009166 -0.010898 0.000000 0.000000 0.000000
# 2 -0.009166 0.014261 -0.005711 0.000000 0.000000 0.000000
# 3 -0.010898 -0.005711 0.036874 0.000000 0.000000 0.000000
# 4 0.000000 0.000000 0.000000 0.049164 0.000000 0.000000
# 5 0.000000 0.000000 0.000000 0.000000 0.084379 0.000000
# 6 0.000000 0.000000 0.000000 0.000000 0.000000 0.011677
#
#
# Mechanical properties :
#
#
# Convention : Reuss Voigt Hill
#
# Bulk Modulus (GPa) = 34.92849 46.63818 40.78334
# Shear Modulus (GPa) = 17.45230 30.72965 24.09098
#
# Velocity S-wave (km/s) = 3.66709 4.86602 4.30846
# Velocity P-wave (km/s) = 6.69653 8.21626 7.49501
#
# Compressibility (1/GPa) = 0.02862992
#
# Stress axis : x y z
#
# Youngs Moduli (GPa) = 34.42873 70.12082 27.11914
#
# Poissons Ratio (x) = 0.64272 0.29556
# Poissons Ratio (y) = 0.31557 0.15488
# Poissons Ratio (z) = 0.37522 0.40047
#
# Static dielectric constant tensor:
#      x y z
#    x 1.406030 0.000000 0.000000 
#    y 0.000000 1.446000 0.000000 
#    z 0.000000 0.000000 1.436370 
# 
# From -- ./inp_files/18824.got.cif
#   From: 2010.05.17/outbox.cif.g08.bks.cpg/sg65_10_cif.got.tgz:18824.got - 2010.06.03 17:01:31.
