data_PCOD9483047
_publ_section_title
;
Structure prediction by ZEFSAII (Michael W. Deem and Ramdas Pophale) SiO2 
 PCOD9483047
Probable space group: C M M M
;
_chemical_formula_sum "Si O2"
_cell_formula_units_Z 84
_cell_length_a 21.792609
_cell_length_b 19.815330
_cell_length_c 11.786644
_cell_angle_alpha 90.000000
_cell_angle_beta 90.000000
_cell_angle_gamma 90.000000
_cell_volume 5089.799828
_symmetry_space_group_name_H-M "C M M M"
_symmetry_group_IT_number 65
_symmetry_cell_setting 'orthorhombic'
loop_
_space_group_symop_operation_xyz
x,y,z
-x,-y,z
x,-y,-z
-x,y,-z
-x,-y,-z
x,y,-z
-x,y,z
x,-y,z
1/2+x,1/2+y,z
1/2-x,1/2-y,z
1/2+x,1/2-y,-z
1/2-x,1/2+y,-z
1/2-x,1/2-y,-z
1/2+x,1/2+y,-z
1/2-x,1/2+y,z
1/2+x,1/2-y,z
loop_
_atom_site_type_symbol
_atom_site_label
_atom_site_fract_x
_atom_site_fract_y
_atom_site_fract_z
Si Si1 0.573195 0.795138 0.751236
Si Si2 0.500000 0.635141 0.000000
Si Si3 0.387409 0.659839 0.363615
Si Si4 0.628493 0.921628 0.636247
Si Si5 0.930344 0.268654 0.000000
Si Si6 0.269806 0.423571 0.637484
Si Si7 0.000000 0.079661 0.748685
O O1 0.500000 0.781080 0.753049
O O2 0.603857 0.736297 0.677307
O O3 0.586554 0.867613 0.698266
O O4 0.597259 0.789906 0.880427
O O5 0.557198 0.687930 0.000000
O O6 0.500000 0.594173 0.883681
O O7 0.392842 0.656228 0.500000
O O8 0.321779 0.629001 0.328183
O O9 0.440775 0.615260 0.306676
O O10 0.623460 0.913610 0.500000
O O11 0.699648 0.908502 0.669575
O O12 0.614668 0.000000 0.661980
O O13 0.000000 0.298244 0.000000
O O14 0.269925 0.424642 0.500000
O O15 0.285104 0.500000 0.675148
O O16 0.000000 0.000000 0.726583
#
# Coordination Sequence:
#
# PCOD9483047 Si02
#       7
#    16   4  16  16   8  16   8
#     4  11  20  34  54  76 101 136 173 214 259 306
#     4  10  17  40  52  68  95 144 184 212 243 292
#     4  11  20  31  50  78 110 139 166 206 260 309
#     4   9  19  35  54  77 104 134 168 208 257 314
#     4   8  16  35  55  66  96 136 175 212 251 293
#     4   8  16  32  50  70 103 142 172 201 245 306
#     4  12  22  32  51  79 106 138 178 213 251 301
#
# _framework density 16.503596999999999
#
# number of rings (size 3 to 8) (size 9 to 14) (size 15 to 20)
#    0.286    1.905    2.857    2.714    0.000    3.810 
#    0.000    4.286    0.000    5.143    0.000    2.667 
#    0.000    0.000    0.000    0.000    0.000    0.000 
#
# Total GULP energy -233991.761649 kJ/mol
# GULP energy per Si atom -5571.232420 kJ/mol
# Density = 1.646603 g / cm^3
# Si number density = 16.503597 Si / 1000 Ang^3
#
#
#
# Elastic Constant Matrix: (Units=GPa)
#
#
# Indices 1 2 3 4 5 6 
#
# 1 15.8309 13.1817 8.1329 0.0000 0.0000 0.0000
# 2 13.1817 79.1229 31.4526 0.0000 0.0000 0.0000
# 3 8.1329 31.4526 74.5350 0.0000 0.0000 0.0000
# 4 0.0000 0.0000 0.0000 21.8751 0.0000 0.0000
# 5 0.0000 0.0000 0.0000 0.0000 -2.1223 0.0000
# 6 0.0000 0.0000 0.0000 0.0000 0.0000 30.9336
#
#
#
# Elastic Compliance Matrix: (Units=1/GPa)
#
#
# Indices 1 2 3 4 5 6 
#
# 1 0.074074 -0.010967 -0.003455 0.000000 0.000000 0.000000
# 2 -0.010967 0.016810 -0.005897 0.000000 0.000000 0.000000
# 3 -0.003455 -0.005897 0.016282 0.000000 0.000000 0.000000
# 4 0.000000 0.000000 0.000000 0.045714 0.000000 0.000000
# 5 0.000000 0.000000 0.000000 0.000000 -0.471177 0.000000
# 6 0.000000 0.000000 0.000000 0.000000 0.000000 0.032327
#
#
# Mechanical properties :
#
#
# Convention : Reuss Voigt Hill
#
# Bulk Modulus (GPa) = 15.03113 30.55814 22.79464
# Shear Modulus (GPa) = -22.40581 17.91871 -2.24355
#
# Velocity S-wave (km/s) = -3.68860 3.29864 -1.16721
# Velocity P-wave (km/s) = 3.00225 5.75016 3.46777
#
# Compressibility (1/GPa) = 0.06652861
#
# Stress axis : x y z
#
# Youngs Moduli (GPa) = 13.49992 59.48924 61.41832
#
# Poissons Ratio (x) = 0.65244 0.21217
# Poissons Ratio (y) = 0.14806 0.36217
# Poissons Ratio (z) = 0.04664 0.35079
#
# Static dielectric constant tensor:
#      x y z
#    x 1.562190 0.000000 0.000000 
#    y 0.000000 1.546200 0.000000 
#    z 0.000000 0.000000 1.547700 
# 
# From -- ./inp_files/28987.got.cif
#   From: 2010.05.17/outbox.cif.g08.bks.cpg/sg65_15_cif.got.tgz:28987.got - 2010.06.03 17:01:31.
