data_PCOD9483948
_publ_section_title
;
Structure prediction by ZEFSAII (Michael W. Deem and Ramdas Pophale) SiO2 
 PCOD9483948
Probable space group: C M M M
;
_chemical_formula_sum "Si O2"
_cell_formula_units_Z 104
_cell_length_a 8.714772
_cell_length_b 29.613679
_cell_length_c 24.055147
_cell_angle_alpha 90.000000
_cell_angle_beta 90.000000
_cell_angle_gamma 90.000000
_cell_volume 6208.067196
_symmetry_space_group_name_H-M "C M M M"
_symmetry_group_IT_number 65
_symmetry_cell_setting 'orthorhombic'
loop_
_space_group_symop_operation_xyz
x,y,z
-x,-y,z
x,-y,-z
-x,y,-z
-x,-y,-z
x,y,-z
-x,y,z
x,-y,z
1/2+x,1/2+y,z
1/2-x,1/2-y,z
1/2+x,1/2-y,-z
1/2-x,1/2+y,-z
1/2-x,1/2-y,-z
1/2+x,1/2+y,-z
1/2-x,1/2+y,z
1/2+x,1/2-y,z
loop_
_atom_site_type_symbol
_atom_site_label
_atom_site_fract_x
_atom_site_fract_y
_atom_site_fract_z
Si Si1 0.314754 0.390558 0.938266
Si Si2 0.184939 0.947647 0.382735
Si Si3 0.316703 0.798239 0.235697
Si Si4 0.314277 0.390637 0.275706
Si Si5 0.683428 0.798190 0.895143
Si Si6 0.177300 0.445245 0.500000
Si Si7 0.312814 0.448158 0.167774
O O1 0.500000 0.388667 0.935851
O O2 0.251117 0.340589 0.927534
O O3 0.262389 0.423064 0.888421
O O4 0.270704 0.406282 0.000000
O O5 0.234735 0.916473 0.331570
O O6 0.244075 0.931128 0.442493
O O7 0.000000 0.947893 0.383735
O O8 0.234515 0.000000 0.374352
O O9 0.500000 0.797410 0.239205
O O10 0.250000 0.750000 0.253764
O O11 0.250586 0.840549 0.268947
O O12 0.274240 0.803986 0.170269
O O13 0.500000 0.388634 0.275413
O O14 0.265622 0.419817 0.221868
O O15 0.500000 0.797521 0.899547
O O16 0.750000 0.750000 0.913595
O O17 0.186773 0.500000 0.500000
O O18 0.000000 0.432129 0.500000
O O19 0.500000 0.448589 0.167658
O O20 0.261747 0.500000 0.170360
#
# Coordination Sequence:
#
# PCOD9483948 Si02
#       7
#    16  16  16  16  16   8  16
#     4  10  20  33  50  72  97 126 162 203 247 296
#     4   9  17  29  47  73 104 138 175 210 244 287
#     4  10  20  33  51  74  99 127 160 199 247 300
#     4  10  18  30  51  76 102 131 164 204 249 293
#     4  10  20  34  53  73  95 123 156 197 248 303
#     4   9  17  29  45  67 100 141 178 211 249 287
#     4   9  17  30  49  72  98 127 161 203 246 288
#
# _framework density 16.752396000000001
#
# number of rings (size 3 to 8) (size 9 to 14) (size 15 to 20)
#    0.000    2.385    1.538    1.615    0.000    5.538 
#    0.000    1.538    0.000    2.769    0.000    1.615 
#    0.000    0.000    0.000    0.000    0.000    0.000 
#
# Total GULP energy -290076.740556 kJ/mol
# GULP energy per Si atom -5578.398857 kJ/mol
# Density = 1.671427 g / cm^3
# Si number density = 16.752396 Si / 1000 Ang^3
#
#
#
# Elastic Constant Matrix: (Units=GPa)
#
#
# Indices 1 2 3 4 5 6 
#
# 1 10.5429 19.5204 28.7374 0.0000 0.0000 0.0000
# 2 19.5204 120.2975 75.8332 0.0000 0.0000 0.0000
# 3 28.7374 75.8332 141.2079 0.0000 0.0000 0.0000
# 4 0.0000 0.0000 0.0000 24.8955 0.0000 0.0000
# 5 0.0000 0.0000 0.0000 0.0000 12.3573 0.0000
# 6 0.0000 0.0000 0.0000 0.0000 0.0000 21.4035
#
#
#
# Elastic Compliance Matrix: (Units=1/GPa)
#
#
# Indices 1 2 3 4 5 6 
#
# 1 0.222987 -0.011454 -0.039229 0.000000 0.000000 0.000000
# 2 -0.011454 0.013156 -0.004734 0.000000 0.000000 0.000000
# 3 -0.039229 -0.004734 0.017607 0.000000 0.000000 0.000000
# 4 0.000000 0.000000 0.000000 0.040168 0.000000 0.000000
# 5 0.000000 0.000000 0.000000 0.000000 0.080924 0.000000
# 6 0.000000 0.000000 0.000000 0.000000 0.000000 0.046721
#
#
# Mechanical properties :
#
#
# Convention : Reuss Voigt Hill
#
# Bulk Modulus (GPa) = 6.99714 57.80335 32.40024
# Shear Modulus (GPa) = 8.62015 21.59508 15.10761
#
# Velocity S-wave (km/s) = 2.27086 3.59426 3.00629
# Velocity P-wave (km/s) = 3.32590 7.19753 5.60651
#
# Compressibility (1/GPa) = 0.14291560
#
# Stress axis : x y z
#
# Youngs Moduli (GPa) = 4.48457 76.01370 56.79401
#
# Poissons Ratio (x) = 0.87069 2.22797
# Poissons Ratio (y) = 0.05137 0.26885
# Poissons Ratio (z) = 0.17592 0.35984
#
# Static dielectric constant tensor:
#      x y z
#    x 1.565190 0.000000 0.000000 
#    y 0.000000 1.541240 0.000000 
#    z 0.000000 0.000000 1.568410 
# 
# From -- ./inp_files/66402.got.cif
#   From: 2010.05.17/outbox.cif.g08.bks.cpg/sg65_34_cif.got.tgz:66402.got - 2010.06.03 17:01:31.
