data_PCOD9483980
_publ_section_title
;
Structure prediction by ZEFSAII (Michael W. Deem and Ramdas Pophale) SiO2 
 PCOD9483980
Probable space group: C M M M
;
_chemical_formula_sum "Si O2"
_cell_formula_units_Z 64
_cell_length_a 21.660522
_cell_length_b 21.342245
_cell_length_c 8.150606
_cell_angle_alpha 90.000000
_cell_angle_beta 90.000000
_cell_angle_gamma 90.000000
_cell_volume 3767.896108
_symmetry_space_group_name_H-M "C M M M"
_symmetry_group_IT_number 65
_symmetry_cell_setting 'orthorhombic'
loop_
_space_group_symop_operation_xyz
x,y,z
-x,-y,z
x,-y,-z
-x,y,-z
-x,-y,-z
x,y,-z
-x,y,z
x,-y,z
1/2+x,1/2+y,z
1/2-x,1/2-y,z
1/2+x,1/2-y,-z
1/2-x,1/2+y,-z
1/2-x,1/2-y,-z
1/2+x,1/2+y,-z
1/2-x,1/2+y,z
1/2+x,1/2-y,z
loop_
_atom_site_type_symbol
_atom_site_label
_atom_site_fract_x
_atom_site_fract_y
_atom_site_fract_z
Si Si1 0.266847 0.570469 0.198261
Si Si2 0.826763 0.252951 0.000000
Si Si3 0.933997 0.154599 0.000000
Si Si4 0.092362 0.927587 0.313292
Si Si5 0.198860 0.693919 0.678851
O O1 0.241700 0.500000 0.226897
O O2 0.334125 0.572648 0.280282
O O3 0.229808 0.627899 0.275533
O O4 0.271572 0.578473 0.000000
O O5 0.750000 0.250000 0.000000
O O6 0.842790 0.288055 0.167356
O O7 0.868953 0.191635 0.000000
O O8 0.933370 0.112940 0.835431
O O9 0.000000 0.190401 0.000000
O O10 0.079647 0.906010 0.500000
O O11 0.072405 0.000000 0.300334
O O12 0.169359 0.691099 0.500000
O O13 0.250000 0.750000 0.670483
#
# Coordination Sequence:
#
# PCOD9483980 Si02
#       5
#    16   8   8  16  16
#     4  10  18  30  51  79 111 144 179 226 274 314
#     4  10  20  35  54  73  98 131 174 218 259 319
#     4  12  25  38  54  76 105 138 178 231 278 315
#     4  10  20  34  52  73 101 143 191 228 260 306
#     4  10  19  30  48  73 102 138 177 218 266 318
#
# _framework density 16.985606000000001
#
# number of rings (size 3 to 8) (size 9 to 14) (size 15 to 20)
#    0.000    1.750    2.500    4.125    0.000    6.000 
#    0.000    1.250    0.000    0.000    0.000    0.000 
#    0.000    2.000    0.000    2.250    0.000    0.000 
#
# Total GULP energy -178231.841837 kJ/mol
# GULP energy per Si atom -5569.745057 kJ/mol
# Density = 1.694695 g / cm^3
# Si number density = 16.985606 Si / 1000 Ang^3
#
#
#
# Elastic Constant Matrix: (Units=GPa)
#
#
# Indices 1 2 3 4 5 6 
#
# 1 41.0104 29.1566 26.5927 0.0000 0.0000 0.0000
# 2 29.1566 100.5829 48.5007 0.0000 0.0000 0.0000
# 3 26.5927 48.5007 176.4327 0.0000 0.0000 0.0000
# 4 0.0000 0.0000 0.0000 -31.0169 0.0000 0.0000
# 5 0.0000 0.0000 0.0000 0.0000 -13.1976 0.0000
# 6 0.0000 0.0000 0.0000 0.0000 0.0000 2.4360
#
#
#
# Elastic Compliance Matrix: (Units=1/GPa)
#
#
# Indices 1 2 3 4 5 6 
#
# 1 0.031714 -0.007941 -0.002597 0.000000 0.000000 0.000000
# 2 -0.007941 0.013450 -0.002500 0.000000 0.000000 0.000000
# 3 -0.002597 -0.002500 0.006747 0.000000 0.000000 0.000000
# 4 0.000000 0.000000 0.000000 -0.032241 0.000000 0.000000
# 5 0.000000 0.000000 0.000000 0.000000 -0.075771 0.000000
# 6 0.000000 0.000000 0.000000 0.000000 0.000000 0.410513
#
#
# Mechanical properties :
#
#
# Convention : Reuss Voigt Hill
#
# Bulk Modulus (GPa) = 38.70954 58.50288 48.60621
# Shear Modulus (GPa) = 12.85020 5.89603 9.37312
#
# Velocity S-wave (km/s) = 2.75350 1.86514 2.35165
# Velocity P-wave (km/s) = 5.74004 6.25745 6.00432
#
# Compressibility (1/GPa) = 0.02583343
#
# Stress axis : x y z
#
# Youngs Moduli (GPa) = 31.53215 74.35196 148.22106
#
# Poissons Ratio (x) = 0.59041 0.38495
# Poissons Ratio (y) = 0.25039 0.37061
# Poissons Ratio (z) = 0.08189 0.18591
#
# Static dielectric constant tensor:
#      x y z
#    x 1.557940 0.000000 0.000000 
#    y 0.000000 1.608860 0.000000 
#    z 0.000000 0.000000 1.629650 
# 
# From -- ./inp_files/10837.got.cif
#   From: 2010.05.17/outbox.cif.g08.bks.cpg/sg65_6_cif.got.tgz:10837.got - 2010.06.03 17:01:31.
