data_PCOD9483873
_publ_section_title
;
Structure prediction by ZEFSAII (Michael W. Deem and Ramdas Pophale) SiO2 
 PCOD9483873
Probable space group: C M M M
;
_chemical_formula_sum "Si O2"
_cell_formula_units_Z 104
_cell_length_a 7.896269
_cell_length_b 30.552629
_cell_length_c 23.938560
_cell_angle_alpha 90.000000
_cell_angle_beta 90.000000
_cell_angle_gamma 90.000000
_cell_volume 5775.220145
_symmetry_space_group_name_H-M "C M M M"
_symmetry_group_IT_number 65
_symmetry_cell_setting 'orthorhombic'
loop_
_space_group_symop_operation_xyz
x,y,z
-x,-y,z
x,-y,-z
-x,y,-z
-x,-y,-z
x,y,-z
-x,y,z
x,-y,z
1/2+x,1/2+y,z
1/2-x,1/2-y,z
1/2+x,1/2-y,-z
1/2-x,1/2+y,-z
1/2-x,1/2-y,-z
1/2+x,1/2+y,-z
1/2-x,1/2+y,z
1/2+x,1/2-y,z
loop_
_atom_site_type_symbol
_atom_site_label
_atom_site_fract_x
_atom_site_fract_y
_atom_site_fract_z
Si Si1 0.204460 0.049684 0.334568
Si Si2 0.203589 0.449424 0.211311
Si Si3 0.703782 0.892700 0.107158
Si Si4 0.707229 0.608792 0.564581
Si Si5 0.292804 0.949044 0.000000
Si Si6 0.797373 0.795377 0.563941
Si Si7 0.201502 0.201252 0.936190
O O1 0.252923 0.066806 0.273466
O O2 0.266765 0.075229 0.388860
O O3 0.000000 0.049400 0.337119
O O4 0.266899 0.000000 0.336743
O O5 0.266198 0.500000 0.204862
O O6 0.266289 0.416672 0.163303
O O7 0.000000 0.451477 0.206870
O O8 0.500000 0.895259 0.107532
O O9 0.762737 0.921773 0.054341
O O10 0.746282 0.841673 0.098348
O O11 0.760692 0.601746 0.500000
O O12 0.500000 0.607399 0.563302
O O13 0.758644 0.657404 0.584610
O O14 0.500000 0.949580 0.000000
O O15 0.239261 0.000000 0.000000
O O16 0.731106 0.793635 0.500000
O O17 0.750000 0.750000 0.592710
O O18 0.000000 0.796403 0.561407
O O19 0.250000 0.250000 0.915542
O O20 0.000000 0.200390 0.939377
O O21 0.271165 0.196963 0.000000
#
# Coordination Sequence:
#
# PCOD9483873 Si02
#       7
#    16  16  16  16   8  16  16
#     4   9  17  29  46  67  89 117 155 194 231 275
#     4   9  18  32  49  69  94 126 161 194 231 280
#     4  10  18  30  50  73  96 124 160 199 238 278
#     4   8  14  25  42  65  91 116 145 186 235 281
#     4   9  16  26  44  71  98 121 150 191 234 277
#     4   8  13  22  37  57  82 110 137 168 209 258
#     4  10  20  33  50  72 100 130 161 196 238 286
#
# _framework density 18.007971999999999
#
# number of rings (size 3 to 8) (size 9 to 14) (size 15 to 20)
#    0.000    3.000    0.769    1.846    0.000    3.385 
#    0.000    2.308    0.000    4.154    0.000    6.462 
#    0.000    0.000    0.000    0.000    0.000    0.000 
#
# Total GULP energy -289488.763702 kJ/mol
# GULP energy per Si atom -5567.091610 kJ/mol
# Density = 1.796699 g / cm^3
# Si number density = 18.007972 Si / 1000 Ang^3
#
#
#
# Elastic Constant Matrix: (Units=GPa)
#
#
# Indices 1 2 3 4 5 6 
#
# 1 17.1014 6.8689 7.9817 0.0000 0.0000 0.0000
# 2 6.8689 139.1839 93.3354 0.0000 0.0000 0.0000
# 3 7.9817 93.3354 130.9123 0.0000 0.0000 0.0000
# 4 0.0000 0.0000 0.0000 7.7675 0.0000 0.0000
# 5 0.0000 0.0000 0.0000 0.0000 14.5249 0.0000
# 6 0.0000 0.0000 0.0000 0.0000 0.0000 18.4797
#
#
#
# Elastic Compliance Matrix: (Units=1/GPa)
#
#
# Indices 1 2 3 4 5 6 
#
# 1 0.060257 -0.000977 -0.002977 0.000000 0.000000 0.000000
# 2 -0.000977 0.013782 -0.009767 0.000000 0.000000 0.000000
# 3 -0.002977 -0.009767 0.014784 0.000000 0.000000 0.000000
# 4 0.000000 0.000000 0.000000 0.128741 0.000000 0.000000
# 5 0.000000 0.000000 0.000000 0.000000 0.068847 0.000000
# 6 0.000000 0.000000 0.000000 0.000000 0.000000 0.054113
#
#
# Mechanical properties :
#
#
# Convention : Reuss Voigt Hill
#
# Bulk Modulus (GPa) = 16.29187 55.95217 36.12202
# Shear Modulus (GPa) = 12.87244 20.08854 16.48049
#
# Velocity S-wave (km/s) = 2.67651 3.34359 3.02847
# Velocity P-wave (km/s) = 4.31489 6.78560 5.68606
#
# Compressibility (1/GPa) = 0.06138031
#
# Stress axis : x y z
#
# Youngs Moduli (GPa) = 16.59569 72.55588 67.64279
#
# Poissons Ratio (x) = 0.07091 0.20137
# Poissons Ratio (y) = 0.01622 0.66065
# Poissons Ratio (z) = 0.04941 0.70864
#
# Static dielectric constant tensor:
#      x y z
#    x 1.652900 0.000000 0.000000 
#    y 0.000000 1.650110 0.000000 
#    z 0.000000 0.000000 1.600420 
# 
# From -- ./inp_files/68567.got.cif
#   From: 2010.05.17/outbox.cif.g08.bks.cpg/sg65_35_cif.got.tgz:68567.got - 2010.06.03 17:01:31.
