data_PCOD9483999
_publ_section_title
;
Structure prediction by ZEFSAII (Michael W. Deem and Ramdas Pophale) SiO2 
 PCOD9483999
Probable space group: C M M M
;
_chemical_formula_sum "Si O2"
_cell_formula_units_Z 90
_cell_length_a 24.269048
_cell_length_b 8.009578
_cell_length_c 23.172617
_cell_angle_alpha 90.000000
_cell_angle_beta 90.000000
_cell_angle_gamma 90.000000
_cell_volume 4504.405284
_symmetry_space_group_name_H-M "C M M M"
_symmetry_group_IT_number 65
_symmetry_cell_setting 'orthorhombic'
loop_
_space_group_symop_operation_xyz
x,y,z
-x,-y,z
x,-y,-z
-x,y,-z
-x,-y,-z
x,y,-z
-x,y,z
x,-y,z
1/2+x,1/2+y,z
1/2-x,1/2-y,z
1/2+x,1/2-y,-z
1/2-x,1/2+y,-z
1/2-x,1/2-y,-z
1/2+x,1/2+y,-z
1/2-x,1/2+y,z
1/2+x,1/2-y,z
loop_
_atom_site_type_symbol
_atom_site_label
_atom_site_fract_x
_atom_site_fract_y
_atom_site_fract_z
Si Si1 0.880609 0.799644 0.700035
Si Si2 0.613054 0.697369 0.831491
Si Si3 0.500000 0.310682 0.686672
Si Si4 0.813618 0.699373 0.062926
Si Si5 0.097690 0.708593 0.500000
Si Si6 0.311760 0.197283 0.403780
Si Si7 0.500000 0.186896 0.187973
Si Si8 0.000000 0.000000 0.500000
O O1 0.873044 0.742186 0.766250
O O2 0.829923 0.757948 0.659366
O O3 0.939665 0.734209 0.674412
O O4 0.886678 0.000000 0.701303
O O5 0.604798 0.500000 0.827842
O O6 0.656327 0.733015 0.880941
O O7 0.555175 0.782021 0.846738
O O8 0.500000 0.500000 0.662562
O O9 0.500000 0.309560 0.756778
O O10 0.817789 0.500000 0.064012
O O11 0.750000 0.750000 0.065517
O O12 0.835133 0.758596 0.000000
O O13 0.084900 0.500000 0.500000
O O14 0.138399 0.745740 0.553864
O O15 0.048343 0.845743 0.500000
O O16 0.250000 0.250000 0.420425
O O17 0.311045 0.000000 0.403466
O O18 0.500000 0.000000 0.212003
#
# Coordination Sequence:
#
# PCOD9483999 Si02
#       8
#    16  16   8  16   8  16   8   2
#     4   9  19  35  57  88 121 156 206 250 305 371
#     4  10  20  36  57  82 116 155 196 250 300 360
#     4   8  16  33  53  77 114 155 193 241 293 364
#     4  10  21  37  57  81 109 145 191 242 298 365
#     4  10  26  48  69 106 136 169 224 272 325 393
#     4  11  24  42  65  91 130 169 216 269 310 381
#     4  10  18  30  52  80 110 147 189 236 289 357
#     4  12  26  44  84 102 136 184 206 278 342 382
#
# _framework density 19.980442
#
# number of rings (size 3 to 8) (size 9 to 14) (size 15 to 20)
#    0.000    2.133    0.000    3.867    2.489    6.044 
#    1.600    1.333    0.000    2.667    0.000    0.000 
#    0.000    0.000    0.000    0.000    0.000    0.000 
#
# Total GULP energy -250508.038898 kJ/mol
# GULP energy per Si atom -5566.845309 kJ/mol
# Density = 1.993497 g / cm^3
# Si number density = 19.980442 Si / 1000 Ang^3
#
#
#
# Elastic Constant Matrix: (Units=GPa)
#
#
# Indices 1 2 3 4 5 6 
#
# 1 120.0235 39.3795 59.0794 0.0000 0.0000 0.0000
# 2 39.3795 68.9968 24.0798 0.0000 0.0000 0.0000
# 3 59.0794 24.0798 93.0182 0.0000 0.0000 0.0000
# 4 0.0000 0.0000 0.0000 17.3789 0.0000 0.0000
# 5 0.0000 0.0000 0.0000 0.0000 9.7931 0.0000
# 6 0.0000 0.0000 0.0000 0.0000 0.0000 20.5326
#
#
#
# Elastic Compliance Matrix: (Units=1/GPa)
#
#
# Indices 1 2 3 4 5 6 
#
# 1 0.013651 -0.005238 -0.007314 0.000000 0.000000 0.000000
# 2 -0.005238 0.017943 -0.001318 0.000000 0.000000 0.000000
# 3 -0.007314 -0.001318 0.015737 0.000000 0.000000 0.000000
# 4 0.000000 0.000000 0.000000 0.057541 0.000000 0.000000
# 5 0.000000 0.000000 0.000000 0.000000 0.102113 0.000000
# 6 0.000000 0.000000 0.000000 0.000000 0.000000 0.048703
#
#
# Mechanical properties :
#
#
# Convention : Reuss Voigt Hill
#
# Bulk Modulus (GPa) = 51.04536 58.56843 54.80689
# Shear Modulus (GPa) = 17.24386 20.17424 18.70905
#
# Velocity S-wave (km/s) = 2.94094 3.18102 3.06333
# Velocity P-wave (km/s) = 6.09387 6.54740 6.32470
#
# Compressibility (1/GPa) = 0.01959042
#
# Stress axis : x y z
#
# Youngs Moduli (GPa) = 73.25715 55.73153 63.54421
#
# Poissons Ratio (x) = 0.29195 0.46476
# Poissons Ratio (y) = 0.38375 0.08374
# Poissons Ratio (z) = 0.53580 0.07345
#
# Static dielectric constant tensor:
#      x y z
#    x 1.555470 0.000000 0.000000 
#    y 0.000000 1.732530 0.000000 
#    z 0.000000 0.000000 1.738610 
# 
# From -- ./inp_files/71125.got.cif
#   From: 2010.05.17/outbox.cif.g08.bks.cpg/sg65_36_cif.got.tgz:71125.got - 2010.06.03 17:01:31.
