data_PCOD9483749
_publ_section_title
;
Structure prediction by ZEFSAII (Michael W. Deem and Ramdas Pophale) SiO2 
 PCOD9483749
Probable space group: C M M M
;
_chemical_formula_sum "Si O2"
_cell_formula_units_Z 104
_cell_length_a 8.894639
_cell_length_b 27.748414
_cell_length_c 24.788556
_cell_angle_alpha 90.000000
_cell_angle_beta 90.000000
_cell_angle_gamma 90.000000
_cell_volume 6118.116191
_symmetry_space_group_name_H-M "C M M M"
_symmetry_group_IT_number 65
_symmetry_cell_setting 'orthorhombic'
loop_
_space_group_symop_operation_xyz
x,y,z
-x,-y,z
x,-y,-z
-x,y,-z
-x,-y,-z
x,y,-z
-x,y,z
x,-y,z
1/2+x,1/2+y,z
1/2-x,1/2-y,z
1/2+x,1/2-y,-z
1/2-x,1/2+y,-z
1/2-x,1/2-y,-z
1/2+x,1/2+y,-z
1/2-x,1/2+y,z
1/2+x,1/2-y,z
loop_
_atom_site_type_symbol
_atom_site_label
_atom_site_fract_x
_atom_site_fract_y
_atom_site_fract_z
Si Si1 0.180710 0.198712 0.650504
Si Si2 0.316438 0.500000 0.437402
Si Si3 0.820495 0.801021 0.778015
Si Si4 0.172642 0.056761 0.745628
Si Si5 0.322711 0.890227 0.839425
Si Si6 0.180612 0.055717 0.937138
Si Si7 0.682872 0.405642 0.628599
O O1 0.250000 0.250000 0.633655
O O2 0.216666 0.191469 0.714341
O O3 0.230703 0.149878 0.619601
O O4 0.000000 0.202105 0.646352
O O5 0.500000 0.500000 0.434324
O O6 0.274075 0.500000 0.500000
O O7 0.265843 0.450319 0.408461
O O8 0.750000 0.750000 0.793432
O O9 0.753904 0.842539 0.815340
O O10 0.000000 0.799973 0.782276
O O11 0.276562 0.069682 0.795398
O O12 0.221795 0.081398 0.690227
O O13 0.000000 0.072651 0.757595
O O14 0.169128 0.000000 0.736045
O O15 0.500000 0.883992 0.842177
O O16 0.258407 0.907949 0.896326
O O17 0.000000 0.058990 0.931060
O O18 0.222535 0.000000 0.924779
O O19 0.216367 0.064603 0.000000
O O20 0.500000 0.405679 0.625786
#
# Coordination Sequence:
#
# PCOD9483749 Si02
#       7
#    16   8  16  16  16  16  16
#     4   9  17  29  47  69  97 132 168 207 253 307
#     4   9  16  26  46  76 105 133 172 221 266 309
#     4  10  19  33  51  72 100 134 170 209 254 308
#     4  10  18  30  48  68  96 136 171 205 256 315
#     4  12  23  32  47  74 107 137 167 207 256 311
#     4   9  19  37  58  76  96 130 176 217 254 304
#     4   9  15  27  45  68  99 133 166 207 261 312
#
# _framework density 16.998697
#
# number of rings (size 3 to 8) (size 9 to 14) (size 15 to 20)
#    0.000    2.231    2.308    2.769    0.000    3.385 
#    0.000    0.769    0.000    0.923    0.000    0.000 
#    0.000    4.308    0.000    0.000    0.000    0.000 
#
# Total GULP energy -289905.186664 kJ/mol
# GULP energy per Si atom -5575.099744 kJ/mol
# Density = 1.696001 g / cm^3
# Si number density = 16.998697 Si / 1000 Ang^3
#
#
#
# Elastic Constant Matrix: (Units=GPa)
#
#
# Indices 1 2 3 4 5 6 
#
# 1 27.2134 26.1449 16.6148 0.0000 0.0000 0.0000
# 2 26.1449 143.6887 45.5401 0.0000 0.0000 0.0000
# 3 16.6148 45.5401 51.2520 0.0000 0.0000 0.0000
# 4 0.0000 0.0000 0.0000 12.9427 0.0000 0.0000
# 5 0.0000 0.0000 0.0000 0.0000 3.7096 0.0000
# 6 0.0000 0.0000 0.0000 0.0000 0.0000 25.5711
#
#
#
# Elastic Compliance Matrix: (Units=1/GPa)
#
#
# Indices 1 2 3 4 5 6 
#
# 1 0.048609 -0.005360 -0.010996 0.000000 0.000000 0.000000
# 2 -0.005360 0.010279 -0.007396 0.000000 0.000000 0.000000
# 3 -0.010996 -0.007396 0.029647 0.000000 0.000000 0.000000
# 4 0.000000 0.000000 0.000000 0.077263 0.000000 0.000000
# 5 0.000000 0.000000 0.000000 0.000000 0.269570 0.000000
# 6 0.000000 0.000000 0.000000 0.000000 0.000000 0.039107
#
#
# Mechanical properties :
#
#
# Convention : Reuss Voigt Hill
#
# Bulk Modulus (GPa) = 24.37050 44.30597 34.33824
# Shear Modulus (GPa) = 9.33436 17.36832 13.35134
#
# Velocity S-wave (km/s) = 2.34588 3.19994 2.80560
# Velocity P-wave (km/s) = 4.65890 6.30664 5.54432
#
# Compressibility (1/GPa) = 0.04103321
#
# Stress axis : x y z
#
# Youngs Moduli (GPa) = 20.57221 97.28896 33.72986
#
# Poissons Ratio (x) = 0.52145 0.37088
# Poissons Ratio (y) = 0.11026 0.24945
# Poissons Ratio (z) = 0.22620 0.71951
#
# Static dielectric constant tensor:
#      x y z
#    x 1.568470 0.000000 0.000000 
#    y 0.000000 1.609090 0.000000 
#    z 0.000000 0.000000 1.552790 
# 
# From -- ./inp_files/68244.got.cif
#   From: 2010.05.17/outbox.cif.g08.bks.cpg/sg65_35_cif.got.tgz:68244.got - 2010.06.03 17:01:31.
