data_PCOD9483077
_publ_section_title
;
Structure prediction by ZEFSAII (Michael W. Deem and Ramdas Pophale) SiO2 
 PCOD9483077
Probable space group: C M M M
;
_chemical_formula_sum "Si O2"
_cell_formula_units_Z 104
_cell_length_a 13.891053
_cell_length_b 18.707152
_cell_length_c 16.981491
_cell_angle_alpha 90.000000
_cell_angle_beta 90.000000
_cell_angle_gamma 90.000000
_cell_volume 4412.844892
_symmetry_space_group_name_H-M "C M M M"
_symmetry_group_IT_number 65
_symmetry_cell_setting 'orthorhombic'
loop_
_space_group_symop_operation_xyz
x,y,z
-x,-y,z
x,-y,-z
-x,y,-z
-x,-y,-z
x,y,-z
-x,y,z
x,-y,z
1/2+x,1/2+y,z
1/2-x,1/2-y,z
1/2+x,1/2-y,-z
1/2-x,1/2+y,-z
1/2-x,1/2-y,-z
1/2+x,1/2+y,-z
1/2-x,1/2+y,z
1/2+x,1/2-y,z
loop_
_atom_site_type_symbol
_atom_site_label
_atom_site_fract_x
_atom_site_fract_y
_atom_site_fract_z
Si Si1 0.617949 0.134276 0.830830
Si Si2 0.117673 0.918742 0.710042
Si Si3 0.140884 0.775255 0.000000
Si Si4 0.616486 0.846271 0.661066
Si Si5 0.893264 0.389316 0.000000
Si Si6 0.617539 0.080555 0.500000
Si Si7 0.888707 0.799468 0.169699
Si Si8 0.383255 0.301957 0.410058
O O1 0.500000 0.131393 0.836734
O O2 0.643907 0.113064 0.741489
O O3 0.649398 0.217988 0.829420
O O4 0.652186 0.098128 0.912922
O O5 0.150150 0.864022 0.778530
O O6 0.142657 0.876832 0.629915
O O7 0.000000 0.921844 0.713679
O O8 0.152415 0.000000 0.715238
O O9 0.250000 0.750000 0.000000
O O10 0.116080 0.817879 0.922087
O O11 0.093473 0.696923 0.000000
O O12 0.500000 0.846624 0.662620
O O13 0.647463 0.882283 0.580264
O O14 0.644429 0.763201 0.648170
O O15 0.000000 0.421809 0.000000
O O16 0.500000 0.081952 0.500000
O O17 0.650688 0.000000 0.500000
O O18 0.000000 0.790765 0.194921
O O19 0.349540 0.292987 0.500000
O O20 0.500000 0.299348 0.413440
#
# Coordination Sequence:
#
# PCOD9483077 Si02
#       8
#    16  16   8  16   8   8  16  16
#     4   8  12  19  34  52  69  98 140 177 205 249
#     4   9  16  24  35  54  82 118 159 193 215 251
#     4  10  18  26  39  60  84 109 141 185 237 267
#     4   9  13  19  31  46  66  99 142 177 208 256
#     4   8  14  24  38  59  83 106 139 176 214 261
#     4   9  16  22  28  44  73 105 134 169 218 278
#     4   9  15  26  41  57  84 120 152 181 223 272
#     4   9  14  20  31  48  74 112 152 186 218 255
#
# _framework density 23.567561999999999
#
# number of rings (size 3 to 8) (size 9 to 14) (size 15 to 20)
#    0.000    3.154    2.308    1.615    0.000    0.308 
#    0.000    1.923    0.000    1.846    0.000    0.538 
#    0.000   14.769    0.769    4.000    7.538    6.462 
#
# Total GULP energy -290025.010403 kJ/mol
# GULP energy per Si atom -5577.404046 kJ/mol
# Density = 2.351392 g / cm^3
# Si number density = 23.567562 Si / 1000 Ang^3
#
#
#
# Elastic Constant Matrix: (Units=GPa)
#
#
# Indices 1 2 3 4 5 6 
#
# 1 75.4780 1.3483 -8.8188 0.0000 0.0000 0.0000
# 2 1.3483 87.8679 39.5857 0.0000 0.0000 0.0000
# 3 -8.8188 39.5857 209.3037 0.0000 0.0000 0.0000
# 4 0.0000 0.0000 0.0000 -128.8483 0.0000 0.0000
# 5 0.0000 0.0000 0.0000 0.0000 -15.0206 0.0000
# 6 0.0000 0.0000 0.0000 0.0000 0.0000 -0.8584
#
#
#
# Elastic Compliance Matrix: (Units=1/GPa)
#
#
# Indices 1 2 3 4 5 6 
#
# 1 0.013335 -0.000500 0.000656 0.000000 0.000000 0.000000
# 2 -0.000500 0.012460 -0.002378 0.000000 0.000000 0.000000
# 3 0.000656 -0.002378 0.005255 0.000000 0.000000 0.000000
# 4 0.000000 0.000000 0.000000 -0.007761 0.000000 0.000000
# 5 0.000000 0.000000 0.000000 0.000000 -0.066575 0.000000
# 6 0.000000 0.000000 0.000000 0.000000 0.000000 -1.164943
#
#
# Mechanical properties :
#
#
# Convention : Reuss Voigt Hill
#
# Bulk Modulus (GPa) = 37.58520 48.54223 43.06371
# Shear Modulus (GPa) = -4.18439 -6.24317 -5.21378
#
# Velocity S-wave (km/s) = -1.33392 -1.62936 -1.48898
# Velocity P-wave (km/s) = 3.68918 4.13546 3.91868
#
# Compressibility (1/GPa) = 0.02660622
#
# Stress axis : x y z
#
# Youngs Moduli (GPa) = 74.99328 80.25985 190.29224
#
# Poissons Ratio (x) = 0.04016 -0.12492
# Poissons Ratio (y) = 0.03752 0.45243
# Poissons Ratio (z) = -0.04923 0.19082
#
# Static dielectric constant tensor:
#      x y z
#    x 2.013700 0.000000 0.000000 
#    y 0.000000 1.843430 0.000000 
#    z 0.000000 0.000000 2.044060 
# 
# From -- ./inp_files/54658.got.cif
#   From: 2010.05.17/outbox.cif.g08.bks.cpg/sg65_28_cif.got.tgz:54658.got - 2010.06.03 17:01:31.
