data_PCOD9483941
_publ_section_title
;
Structure prediction by ZEFSAII (Michael W. Deem and Ramdas Pophale) SiO2 
 PCOD9483941
Probable space group: C M M M
;
_chemical_formula_sum "Si O2"
_cell_formula_units_Z 88
_cell_length_a 19.132481
_cell_length_b 8.544089
_cell_length_c 29.501735
_cell_angle_alpha 90.000000
_cell_angle_beta 90.000000
_cell_angle_gamma 90.000000
_cell_volume 4822.637423
_symmetry_space_group_name_H-M "C M M M"
_symmetry_group_IT_number 65
_symmetry_cell_setting 'orthorhombic'
loop_
_space_group_symop_operation_xyz
x,y,z
-x,-y,z
x,-y,-z
-x,y,-z
-x,-y,-z
x,y,-z
-x,y,z
x,-y,z
1/2+x,1/2+y,z
1/2-x,1/2-y,z
1/2+x,1/2-y,-z
1/2-x,1/2+y,-z
1/2-x,1/2-y,-z
1/2+x,1/2+y,-z
1/2-x,1/2+y,z
1/2+x,1/2-y,z
loop_
_atom_site_type_symbol
_atom_site_label
_atom_site_fract_x
_atom_site_fract_y
_atom_site_fract_z
Si Si1 0.170584 0.187487 0.413353
Si Si2 0.329549 0.187580 0.318570
Si Si3 0.080224 0.689326 0.133156
Si Si4 0.829134 0.689022 0.781126
Si Si5 0.580475 0.308951 0.500000
Si Si6 0.672558 0.687492 0.948027
O O1 0.250000 0.250000 0.418280
O O2 0.140372 0.243469 0.364939
O O3 0.122866 0.240143 0.455245
O O4 0.174047 0.000000 0.413162
O O5 0.250000 0.250000 0.317805
O O6 0.357904 0.233006 0.268910
O O7 0.329349 0.000000 0.321951
O O8 0.081228 0.500000 0.133194
O O9 0.123313 0.743139 0.177325
O O10 0.118160 0.747608 0.088032
O O11 0.000000 0.741053 0.134990
O O12 0.826273 0.500000 0.782136
O O13 0.750000 0.750000 0.785947
O O14 0.579943 0.500000 0.500000
O O15 0.500000 0.256832 0.500000
O O16 0.673475 0.500000 0.946105
O O17 0.750000 0.750000 0.937027
O O18 0.656649 0.735202 0.000000
#
# Coordination Sequence:
#
# PCOD9483941 Si02
#       6
#    16  16  16  16   8  16
#     4  10  18  30  51  74  96 123 158 201 244 289
#     4   9  16  28  47  72 100 126 158 201 246 291
#     4  10  21  36  53  75 105 140 175 209 249 299
#     4   9  18  32  51  74  99 130 166 205 248 293
#     4   9  19  34  49  67  94 129 164 196 236 287
#     4  10  21  37  57  80 105 133 168 211 257 304
#
# _framework density 18.247278000000001
#
# number of rings (size 3 to 8) (size 9 to 14) (size 15 to 20)
#    0.000    2.455    0.000    3.545    0.000    4.727 
#    0.000    4.091    0.000    5.455    0.000    0.000 
#    0.000    0.000    0.000    0.000    0.000    0.000 
#
# Total GULP energy -245364.505606 kJ/mol
# GULP energy per Si atom -5576.466037 kJ/mol
# Density = 1.820575 g / cm^3
# Si number density = 18.247278 Si / 1000 Ang^3
#
#
#
# Elastic Constant Matrix: (Units=GPa)
#
#
# Indices 1 2 3 4 5 6 
#
# 1 108.1544 21.2072 105.6222 0.0000 0.0000 0.0000
# 2 21.2072 27.7568 31.1808 0.0000 0.0000 0.0000
# 3 105.6222 31.1808 181.1731 0.0000 0.0000 0.0000
# 4 0.0000 0.0000 0.0000 -63.4420 0.0000 0.0000
# 5 0.0000 0.0000 0.0000 0.0000 -2.4207 0.0000
# 6 0.0000 0.0000 0.0000 0.0000 0.0000 16.1568
#
#
#
# Elastic Compliance Matrix: (Units=1/GPa)
#
#
# Indices 1 2 3 4 5 6 
#
# 1 0.021660 -0.002930 -0.012123 0.000000 0.000000 0.000000
# 2 -0.002930 0.045058 -0.006046 0.000000 0.000000 0.000000
# 3 -0.012123 -0.006046 0.013628 0.000000 0.000000 0.000000
# 4 0.000000 0.000000 0.000000 -0.015762 0.000000 0.000000
# 5 0.000000 0.000000 0.000000 0.000000 -0.413110 0.000000
# 6 0.000000 0.000000 0.000000 0.000000 0.000000 0.061894
#
#
# Mechanical properties :
#
#
# Convention : Reuss Voigt Hill
#
# Bulk Modulus (GPa) = 26.21481 70.34495 48.27988
# Shear Modulus (GPa) = -21.57809 0.66376 -10.45716
#
# Velocity S-wave (km/s) = -3.44253 0.60378 -2.39651
# Velocity P-wave (km/s) = 1.18481 6.25465 4.34263
#
# Compressibility (1/GPa) = 0.03814637
#
# Stress axis : x y z
#
# Youngs Moduli (GPa) = 46.16792 22.19343 73.37856
#
# Poissons Ratio (x) = 0.06503 0.88959
# Poissons Ratio (y) = 0.13529 0.44368
# Poissons Ratio (z) = 0.55971 0.13419
#
# Static dielectric constant tensor:
#      x y z
#    x 1.582220 0.000000 0.000000 
#    y 0.000000 1.657110 0.000000 
#    z 0.000000 0.000000 1.663640 
# 
# From -- ./inp_files/76535.got.cif
#   From: 2010.05.17/outbox.cif.g08.bks.cpg/sg65_39_cif.got.tgz:76535.got - 2010.06.03 17:01:31.
