data_PCOD9483670
_publ_section_title
;
Structure prediction by ZEFSAII (Michael W. Deem and Ramdas Pophale) SiO2 
 PCOD9483670
Probable space group: C M M M
;
_chemical_formula_sum "Si O2"
_cell_formula_units_Z 72
_cell_length_a 7.647087
_cell_length_b 29.868447
_cell_length_c 16.174762
_cell_angle_alpha 90.000000
_cell_angle_beta 90.000000
_cell_angle_gamma 90.000000
_cell_volume 3694.422601
_symmetry_space_group_name_H-M "C M M M"
_symmetry_group_IT_number 65
_symmetry_cell_setting 'orthorhombic'
loop_
_space_group_symop_operation_xyz
x,y,z
-x,-y,z
x,-y,-z
-x,y,-z
-x,-y,-z
x,y,-z
-x,y,z
x,-y,z
1/2+x,1/2+y,z
1/2-x,1/2-y,z
1/2+x,1/2-y,-z
1/2-x,1/2+y,-z
1/2-x,1/2-y,-z
1/2+x,1/2+y,-z
1/2-x,1/2+y,z
1/2+x,1/2-y,z
loop_
_atom_site_type_symbol
_atom_site_label
_atom_site_fract_x
_atom_site_fract_y
_atom_site_fract_z
Si Si1 0.799104 0.697865 0.817620
Si Si2 0.784392 0.391310 0.250828
Si Si3 0.712843 0.947760 0.091453
Si Si4 0.213291 0.448541 0.406720
Si Si5 0.293151 0.303000 0.000000
O O1 0.750000 0.750000 0.813209
O O2 0.718468 0.659523 0.760399
O O3 0.000000 0.698190 0.796493
O O4 0.779085 0.680914 0.912514
O O5 0.728955 0.419198 0.169777
O O6 0.727743 0.415755 0.334351
O O7 0.000000 0.391633 0.250927
O O8 0.500000 0.946520 0.091298
O O9 0.762355 0.000000 0.100192
O O10 0.770497 0.931959 0.000000
O O11 0.268681 0.436672 0.500000
O O12 0.265396 0.500000 0.390111
O O13 0.000000 0.448111 0.406386
O O14 0.250000 0.250000 0.000000
O O15 0.500000 0.308623 0.000000
#
# Coordination Sequence:
#
# PCOD9483670 Si02
#       5
#    16  16  16  16   8
#     4  10  19  30  44  62  87 118 152 190 225 258
#     4   9  16  23  36  57  82 113 147 180 217 264
#     4   8  13  20  30  47  75 107 133 163 208 258
#     4   8  13  22  37  58  86 117 144 175 222 276
#     4  10  18  30  46  62  83 112 149 189 228 265
#
# _framework density 19.488837
#
# number of rings (size 3 to 8) (size 9 to 14) (size 15 to 20)
#    0.000    3.111    0.000    5.000    1.556    2.667 
#    0.000    0.000    0.000    0.667    0.000    0.000 
#    0.000   20.444    0.000    9.778    0.000    9.778 
#
# Total GULP energy -200638.635410 kJ/mol
# GULP energy per Si atom -5573.295428 kJ/mol
# Density = 1.944448 g / cm^3
# Si number density = 19.488837 Si / 1000 Ang^3
#
#
#
# Elastic Constant Matrix: (Units=GPa)
#
#
# Indices 1 2 3 4 5 6 
#
# 1 27.6246 7.4742 -0.0137 0.0000 0.0000 0.0000
# 2 7.4742 130.9504 114.4790 0.0000 0.0000 0.0000
# 3 -0.0137 114.4790 159.6491 0.0000 0.0000 0.0000
# 4 0.0000 0.0000 0.0000 36.1500 0.0000 0.0000
# 5 0.0000 0.0000 0.0000 0.0000 -1.8302 0.0000
# 6 0.0000 0.0000 0.0000 0.0000 0.0000 1.0855
#
#
#
# Elastic Compliance Matrix: (Units=1/GPa)
#
#
# Indices 1 2 3 4 5 6 
#
# 1 0.037767 -0.005785 0.004151 0.000000 0.000000 0.000000
# 2 -0.005785 0.021352 -0.015311 0.000000 0.000000 0.000000
# 3 0.004151 -0.015311 0.017243 0.000000 0.000000 0.000000
# 4 0.000000 0.000000 0.000000 0.027663 0.000000 0.000000
# 5 0.000000 0.000000 0.000000 0.000000 -0.546383 0.000000
# 6 0.000000 0.000000 0.000000 0.000000 0.000000 0.921205
#
#
# Mechanical properties :
#
#
# Convention : Reuss Voigt Hill
#
# Bulk Modulus (GPa) = 23.54453 62.45589 43.00021
# Shear Modulus (GPa) = 9.48957 20.16669 14.82813
#
# Velocity S-wave (km/s) = 2.20903 3.22029 2.76135
# Velocity P-wave (km/s) = 4.31436 6.77817 5.68143
#
# Compressibility (1/GPa) = 0.04247271
#
# Stress axis : x y z
#
# Youngs Moduli (GPa) = 26.47824 46.83372 57.99325
#
# Poissons Ratio (x) = 0.27092 -0.24075
# Poissons Ratio (y) = 0.15317 0.88796
# Poissons Ratio (z) = -0.10992 0.71709
#
# Static dielectric constant tensor:
#      x y z
#    x 1.873950 0.000000 0.000000 
#    y 0.000000 1.736970 0.000000 
#    z 0.000000 0.000000 1.663870 
# 
# From -- ./inp_files/49767.got.cif
#   From: 2010.05.17/outbox.cif.g08.bks.cpg/sg65_25_cif.got.tgz:49767.got - 2010.06.03 17:01:31.
