data_PCOD9483311
_publ_section_title
;
Structure prediction by ZEFSAII (Michael W. Deem and Ramdas Pophale) SiO2 
 PCOD9483311
Probable space group: C M M M
;
_chemical_formula_sum "Si O2"
_cell_formula_units_Z 88
_cell_length_a 23.052738
_cell_length_b 19.231898
_cell_length_c 13.825775
_cell_angle_alpha 90.000000
_cell_angle_beta 90.000000
_cell_angle_gamma 90.000000
_cell_volume 6129.628393
_symmetry_space_group_name_H-M "C M M M"
_symmetry_group_IT_number 65
_symmetry_cell_setting 'orthorhombic'
loop_
_space_group_symop_operation_xyz
x,y,z
-x,-y,z
x,-y,-z
-x,y,-z
-x,-y,-z
x,y,-z
-x,y,z
x,-y,z
1/2+x,1/2+y,z
1/2-x,1/2-y,z
1/2+x,1/2-y,-z
1/2-x,1/2+y,-z
1/2-x,1/2-y,-z
1/2+x,1/2+y,-z
1/2-x,1/2+y,z
1/2+x,1/2-y,z
loop_
_atom_site_type_symbol
_atom_site_label
_atom_site_fract_x
_atom_site_fract_y
_atom_site_fract_z
Si Si1 0.930901 0.302744 0.886184
Si Si2 0.231663 0.829664 0.116349
Si Si3 0.569660 0.580623 0.386353
Si Si4 0.341913 0.921281 0.117041
Si Si5 0.892924 0.838567 0.792900
Si Si6 0.500000 0.420462 0.884667
O O1 0.896967 0.372985 0.860374
O O2 0.909464 0.240777 0.817764
O O3 0.000000 0.310030 0.879819
O O4 0.916834 0.285686 0.000000
O O5 0.250000 0.750000 0.137925
O O6 0.283692 0.880707 0.146415
O O7 0.171339 0.849050 0.166075
O O8 0.224507 0.834094 0.000000
O O9 0.581627 0.590984 0.500000
O O10 0.500000 0.588018 0.372822
O O11 0.584300 0.500000 0.362304
O O12 0.601143 0.635079 0.316835
O O13 0.345223 0.000000 0.153909
O O14 0.340013 0.924746 0.000000
O O15 0.942281 0.882952 0.847738
O O16 0.500000 0.500000 0.851219
O O17 0.500000 0.418394 0.000000
#
# Coordination Sequence:
#
# PCOD9483311 Si02
#       6
#    16  16  16  16  16   8
#     4  10  18  28  45  68  93 123 156 193 239 284
#     4  10  19  31  47  67  95 133 168 193 225 280
#     4   9  18  33  50  68  94 126 160 200 245 292
#     4   9  18  31  44  62  90 124 164 202 228 264
#     4  12  19  29  49  69  93 126 163 195 234 283
#     4  11  22  30  39  67 106 132 153 188 231 283
#
# _framework density 14.356498999999999
#
# number of rings (size 3 to 8) (size 9 to 14) (size 15 to 20)
#    0.000    1.909    3.636    2.727    0.000    1.818 
#    0.000    3.636    0.000    0.545    0.000    0.000 
#    0.000    0.727    0.000    3.818    0.000    0.182 
#
# Total GULP energy -245308.580817 kJ/mol
# GULP energy per Si atom -5575.195019 kJ/mol
# Density = 1.432382 g / cm^3
# Si number density = 14.356499 Si / 1000 Ang^3
#
#
#
# Elastic Constant Matrix: (Units=GPa)
#
#
# Indices 1 2 3 4 5 6 
#
# 1 73.2689 41.8420 27.3574 0.0000 0.0000 0.0000
# 2 41.8420 121.0998 37.4063 0.0000 0.0000 0.0000
# 3 27.3574 37.4063 56.2460 0.0000 0.0000 0.0000
# 4 0.0000 0.0000 0.0000 7.6031 0.0000 0.0000
# 5 0.0000 0.0000 0.0000 0.0000 13.9986 0.0000
# 6 0.0000 0.0000 0.0000 0.0000 0.0000 21.2497
#
#
#
# Elastic Compliance Matrix: (Units=1/GPa)
#
#
# Indices 1 2 3 4 5 6 
#
# 1 0.018467 -0.004538 -0.005964 0.000000 0.000000 0.000000
# 2 -0.004538 0.011508 -0.005446 0.000000 0.000000 0.000000
# 3 -0.005964 -0.005446 0.024302 0.000000 0.000000 0.000000
# 4 0.000000 0.000000 0.000000 0.131525 0.000000 0.000000
# 5 0.000000 0.000000 0.000000 0.000000 0.071436 0.000000
# 6 0.000000 0.000000 0.000000 0.000000 0.000000 0.047059
#
#
# Mechanical properties :
#
#
# Convention : Reuss Voigt Hill
#
# Bulk Modulus (GPa) = 44.68252 51.53623 48.10938
# Shear Modulus (GPa) = 14.54956 18.17088 16.36022
#
# Velocity S-wave (km/s) = 3.18692 3.56151 3.37941
# Velocity P-wave (km/s) = 6.68828 7.27241 6.98645
#
# Compressibility (1/GPa) = 0.02238012
#
# Stress axis : x y z
#
# Youngs Moduli (GPa) = 54.15076 86.89659 41.14970
#
# Poissons Ratio (x) = 0.39438 0.24541
# Poissons Ratio (y) = 0.24576 0.22410
# Poissons Ratio (z) = 0.32294 0.47323
#
# Static dielectric constant tensor:
#      x y z
#    x 1.463850 0.000000 0.000000 
#    y 0.000000 1.484290 0.000000 
#    z 0.000000 0.000000 1.465110 
# 
# From -- ./inp_files/42998.got.cif
#   From: 2010.05.17/outbox.cif.g08.bks.cpg/sg65_22_cif.got.tgz:42998.got - 2010.06.03 17:01:31.
