data_PCOD9483333
_publ_section_title
;
Structure prediction by ZEFSAII (Michael W. Deem and Ramdas Pophale) SiO2 
 PCOD9483333
Probable space group: C M M M
;
_chemical_formula_sum "Si O2"
_cell_formula_units_Z 80
_cell_length_a 7.643467
_cell_length_b 29.139861
_cell_length_c 20.771001
_cell_angle_alpha 90.000000
_cell_angle_beta 90.000000
_cell_angle_gamma 90.000000
_cell_volume 4626.316037
_symmetry_space_group_name_H-M "C M M M"
_symmetry_group_IT_number 65
_symmetry_cell_setting 'orthorhombic'
loop_
_space_group_symop_operation_xyz
x,y,z
-x,-y,z
x,-y,-z
-x,y,-z
-x,-y,-z
x,y,-z
-x,y,z
x,-y,z
1/2+x,1/2+y,z
1/2-x,1/2-y,z
1/2+x,1/2-y,-z
1/2-x,1/2+y,-z
1/2-x,1/2-y,-z
1/2+x,1/2+y,-z
1/2-x,1/2+y,z
1/2+x,1/2-y,z
loop_
_atom_site_type_symbol
_atom_site_label
_atom_site_fract_x
_atom_site_fract_y
_atom_site_fract_z
Si Si1 0.210064 0.303380 0.640813
Si Si2 0.199019 0.053662 0.829474
Si Si3 0.287183 0.946160 0.428965
Si Si4 0.209588 0.695678 0.500000
Si Si5 0.000000 0.555759 0.926703
Si Si6 0.287449 0.106121 0.299798
O O1 0.250000 0.250000 0.652187
O O2 0.276598 0.319052 0.569886
O O3 0.267757 0.340856 0.692380
O O4 0.000000 0.306234 0.637560
O O5 0.331859 0.069249 0.884690
O O6 0.220613 0.081884 0.764028
O O7 0.000000 0.056519 0.852186
O O8 0.238230 0.000000 0.814840
O O9 0.229808 0.929150 0.500000
O O10 0.500000 0.943502 0.429323
O O11 0.229709 0.919704 0.365222
O O12 0.240855 0.000000 0.424247
O O13 0.250000 0.750000 0.500000
O O14 0.000000 0.687583 0.500000
O O15 0.000000 0.500000 0.929786
O O16 0.000000 0.572652 0.000000
O O17 0.500000 0.103776 0.297511
#
# Coordination Sequence:
#
# PCOD9483333 Si02
#       6
#    16  16  16   8   8  16
#     4   9  18  29  43  62  87 122 163 215 265 314
#     4  10  20  33  51  77 108 141 172 203 245 296
#     4   8  14  23  37  60  86 115 161 215 258 297
#     4   8  14  26  40  56  79 110 155 207 263 310
#     4   9  18  34  56  80 109 141 169 201 238 286
#     4  10  18  28  46  67  93 131 169 213 258 308
#
# _framework density 17.292376000000001
#
# number of rings (size 3 to 8) (size 9 to 14) (size 15 to 20)
#    0.000    2.900    1.000    1.200    1.400    2.000 
#    0.000    2.000    0.000    0.600    0.000    2.800 
#    0.000    0.800    0.400    0.000    0.000    0.000 
#
# Total GULP energy -222958.951434 kJ/mol
# GULP energy per Si atom -5573.973786 kJ/mol
# Density = 1.725302 g / cm^3
# Si number density = 17.292376 Si / 1000 Ang^3
#
#
#
# Elastic Constant Matrix: (Units=GPa)
#
#
# Indices 1 2 3 4 5 6 
#
# 1 54.6889 22.4960 39.1739 0.0000 0.0000 0.0000
# 2 22.4960 67.3555 58.2088 0.0000 0.0000 0.0000
# 3 39.1739 58.2088 138.5256 0.0000 0.0000 0.0000
# 4 0.0000 0.0000 0.0000 12.3097 0.0000 0.0000
# 5 0.0000 0.0000 0.0000 0.0000 -5.2933 0.0000
# 6 0.0000 0.0000 0.0000 0.0000 0.0000 10.4441
#
#
#
# Elastic Compliance Matrix: (Units=1/GPa)
#
#
# Indices 1 2 3 4 5 6 
#
# 1 0.023385 -0.003290 -0.005231 0.000000 0.000000 0.000000
# 2 -0.003290 0.023775 -0.009060 0.000000 0.000000 0.000000
# 3 -0.005231 -0.009060 0.012505 0.000000 0.000000 0.000000
# 4 0.000000 0.000000 0.000000 0.081237 0.000000 0.000000
# 5 0.000000 0.000000 0.000000 0.000000 -0.188916 0.000000
# 6 0.000000 0.000000 0.000000 0.000000 0.000000 0.095748
#
#
# Mechanical properties :
#
#
# Convention : Reuss Voigt Hill
#
# Bulk Modulus (GPa) = 40.80950 55.59192 48.20071
# Shear Modulus (GPa) = 54.90713 12.87152 33.88932
#
# Velocity S-wave (km/s) = 5.64102 2.73123 4.43175
# Velocity P-wave (km/s) = 8.12891 6.49340 7.35674
#
# Compressibility (1/GPa) = 0.02450410
#
# Stress axis : x y z
#
# Youngs Moduli (GPa) = 42.76178 42.06084 79.96752
#
# Poissons Ratio (x) = 0.13838 0.41828
# Poissons Ratio (y) = 0.14069 0.72450
# Poissons Ratio (z) = 0.22367 0.38107
#
# Static dielectric constant tensor:
#      x y z
#    x 1.687020 0.000000 0.000000 
#    y 0.000000 1.597190 0.000000 
#    z 0.000000 0.000000 1.564310 
# 
# From -- ./inp_files/50176.got.cif
#   From: 2010.05.17/outbox.cif.g08.bks.cpg/sg65_26_cif.got.tgz:50176.got - 2010.06.03 17:01:31.
