data_PCOD9483063
_publ_section_title
;
Structure prediction by ZEFSAII (Michael W. Deem and Ramdas Pophale) SiO2 
 PCOD9483063
Probable space group: C M M M
;
_chemical_formula_sum "Si O2"
_cell_formula_units_Z 72
_cell_length_a 7.353247
_cell_length_b 29.514627
_cell_length_c 19.310247
_cell_angle_alpha 90.000000
_cell_angle_beta 90.000000
_cell_angle_gamma 90.000000
_cell_volume 4190.870899
_symmetry_space_group_name_H-M "C M M M"
_symmetry_group_IT_number 65
_symmetry_cell_setting 'orthorhombic'
loop_
_space_group_symop_operation_xyz
x,y,z
-x,-y,z
x,-y,-z
-x,y,-z
-x,-y,-z
x,y,-z
-x,y,z
x,-y,z
1/2+x,1/2+y,z
1/2-x,1/2-y,z
1/2+x,1/2-y,-z
1/2-x,1/2+y,-z
1/2-x,1/2-y,-z
1/2+x,1/2+y,-z
1/2-x,1/2+y,z
1/2+x,1/2-y,z
loop_
_atom_site_type_symbol
_atom_site_label
_atom_site_fract_x
_atom_site_fract_y
_atom_site_fract_z
Si Si1 0.282850 0.195864 0.574516
Si Si2 0.717569 0.803815 0.274318
Si Si3 0.277318 0.855067 0.862210
Si Si4 0.216505 0.303391 0.000000
Si Si5 0.778920 0.550544 0.919653
O O1 0.212742 0.178497 0.500000
O O2 0.500000 0.188597 0.574324
O O3 0.250000 0.250000 0.574263
O O4 0.212725 0.180956 0.649819
O O5 0.500000 0.809399 0.276037
O O6 0.750000 0.750000 0.265458
O O7 0.785444 0.831705 0.208488
O O8 0.500000 0.854136 0.861550
O O9 0.216654 0.826777 0.929624
O O10 0.221068 0.907046 0.873733
O O11 0.250000 0.250000 0.000000
O O12 0.000000 0.310628 0.000000
O O13 0.719747 0.500000 0.899041
O O14 0.000000 0.550399 0.919188
O O15 0.726019 0.558062 0.000000
#
# Coordination Sequence:
#
# PCOD9483063 Si02
#       5
#    16  16  16   8  16
#     4   8  13  21  32  45  61  83 111 138 162 188
#     4   9  16  24  34  48  68  92 114 137 163 192
#     4   9  15  23  33  47  67  89 111 136 167 198
#     4  10  18  26  35  47  67  93 116 136 157 188
#     4   8  12  19  32  48  65  84 106 135 173 208
#
# _framework density 17.180199999999999
#
# number of rings (size 3 to 8) (size 9 to 14) (size 15 to 20)
#    0.000    3.333    1.111    1.333    0.000    0.000 
#    0.000    0.000    0.000    0.000    0.000    0.000 
#    0.000    5.333    0.000   12.444    0.000    0.000 
#
# Total GULP energy -200506.280611 kJ/mol
# GULP energy per Si atom -5569.618906 kJ/mol
# Density = 1.714110 g / cm^3
# Si number density = 17.180200 Si / 1000 Ang^3
#
#
#
# Elastic Constant Matrix: (Units=GPa)
#
#
# Indices 1 2 3 4 5 6 
#
# 1 65.7262 -0.5549 10.9938 0.0000 0.0000 0.0000
# 2 -0.5549 109.2956 88.6950 0.0000 0.0000 0.0000
# 3 10.9938 88.6950 200.8880 0.0000 0.0000 0.0000
# 4 0.0000 0.0000 0.0000 4.9970 0.0000 0.0000
# 5 0.0000 0.0000 0.0000 0.0000 -1.8977 0.0000
# 6 0.0000 0.0000 0.0000 0.0000 0.0000 4.6089
#
#
#
# Elastic Compliance Matrix: (Units=1/GPa)
#
#
# Indices 1 2 3 4 5 6 
#
# 1 0.015454 0.001192 -0.001372 0.000000 0.000000 0.000000
# 2 0.001192 0.014350 -0.006401 0.000000 0.000000 0.000000
# 3 -0.001372 -0.006401 0.007879 0.000000 0.000000 0.000000
# 4 0.000000 0.000000 0.000000 0.200118 0.000000 0.000000
# 5 0.000000 0.000000 0.000000 0.000000 -0.526951 0.000000
# 6 0.000000 0.000000 0.000000 0.000000 0.000000 0.216969
#
#
# Mechanical properties :
#
#
# Convention : Reuss Voigt Hill
#
# Bulk Modulus (GPa) = 40.78117 63.79751 52.28934
# Shear Modulus (GPa) = -98.33977 19.99338 -39.17319
#
# Velocity S-wave (km/s) = -7.57393 3.41507 -4.78026
# Velocity P-wave (km/s) = 7.25928 7.26397 0.18460
#
# Compressibility (1/GPa) = 0.02452112
#
# Stress axis : x y z
#
# Youngs Moduli (GPa) = 64.70741 69.68617 126.91791
#
# Poissons Ratio (x) = -0.08305 0.17413
# Poissons Ratio (y) = -0.07712 0.81240
# Poissons Ratio (z) = 0.08878 0.44606
#
# Static dielectric constant tensor:
#      x y z
#    x 1.611280 0.000000 0.000000 
#    y 0.000000 1.559430 0.000000 
#    z 0.000000 0.000000 1.624780 
# 
# From -- ./inp_files/49731.got.cif
#   From: 2010.05.17/outbox.cif.g08.bks.cpg/sg65_25_cif.got.tgz:49731.got - 2010.06.03 17:01:31.
