data_PCOD9483140
_publ_section_title
;
Structure prediction by ZEFSAII (Michael W. Deem and Ramdas Pophale) SiO2 
 PCOD9483140
Probable space group: C M M M
;
_chemical_formula_sum "Si O2"
_cell_formula_units_Z 88
_cell_length_a 27.025903
_cell_length_b 21.009844
_cell_length_c 9.065717
_cell_angle_alpha 90.000000
_cell_angle_beta 90.000000
_cell_angle_gamma 90.000000
_cell_volume 5147.604824
_symmetry_space_group_name_H-M "C M M M"
_symmetry_group_IT_number 65
_symmetry_cell_setting 'orthorhombic'
loop_
_space_group_symop_operation_xyz
x,y,z
-x,-y,z
x,-y,-z
-x,y,-z
-x,-y,-z
x,y,-z
-x,y,z
x,-y,z
1/2+x,1/2+y,z
1/2-x,1/2-y,z
1/2+x,1/2-y,-z
1/2-x,1/2+y,-z
1/2-x,1/2-y,-z
1/2+x,1/2+y,-z
1/2-x,1/2+y,z
1/2+x,1/2-y,z
loop_
_atom_site_type_symbol
_atom_site_label
_atom_site_fract_x
_atom_site_fract_y
_atom_site_fract_z
Si Si1 0.629897 0.271192 0.676090
Si Si2 0.439712 0.500000 0.332267
Si Si3 0.715152 0.627956 0.675275
Si Si4 0.329991 0.138872 0.678386
Si Si5 0.216228 0.000000 0.824275
Si Si6 0.059173 0.130602 0.173036
Si Si7 0.325023 0.000000 0.321613
O O1 0.620149 0.270168 0.500000
O O2 0.680144 0.311765 0.698094
O O3 0.639523 0.199596 0.731570
O O4 0.587067 0.310103 0.755647
O O5 0.500000 0.500000 0.334753
O O6 0.421552 0.500000 0.500000
O O7 0.425250 0.435286 0.250749
O O8 0.715950 0.613484 0.500000
O O9 0.771897 0.642118 0.721281
O O10 0.695379 0.565923 0.760217
O O11 0.330267 0.143412 0.500000
O O12 0.348936 0.067978 0.716821
O O13 0.272166 0.000000 0.759076
O O14 0.215358 0.000000 0.000000
O O15 0.000000 0.136913 0.191742
O O16 0.069961 0.126418 0.000000
O O17 0.316989 0.000000 0.500000
#
# Coordination Sequence:
#
# PCOD9483140 Si02
#       7
#    16   8  16  16   8  16   8
#     4  10  19  30  48  72  94 119 155 195 231 272
#     4   9  17  32  55  76  91 114 154 200 237 270
#     4   9  17  30  46  64  91 125 156 187 228 276
#     4   8  14  27  48  72  94 119 152 188 227 274
#     4  10  18  27  41  62  89 123 162 197 224 256
#     4  10  21  36  51  68  94 126 156 189 233 280
#     4   8  14  28  49  67  89 122 155 187 228 279
#
# _framework density 17.095329
#
# number of rings (size 3 to 8) (size 9 to 14) (size 15 to 20)
#    0.000    2.818    0.000    3.273    0.000    5.818 
#    0.000    4.545    0.000    5.455    0.000    0.636 
#    0.000    5.091    0.000    0.000    0.000    0.000 
#
# Total GULP energy -245227.803948 kJ/mol
# GULP energy per Si atom -5573.359181 kJ/mol
# Density = 1.705642 g / cm^3
# Si number density = 17.095329 Si / 1000 Ang^3
#
#
#
# Elastic Constant Matrix: (Units=GPa)
#
#
# Indices 1 2 3 4 5 6 
#
# 1 36.9615 45.6890 32.7480 0.0000 0.0000 0.0000
# 2 45.6890 174.3393 67.4438 0.0000 0.0000 0.0000
# 3 32.7480 67.4438 54.6677 0.0000 0.0000 0.0000
# 4 0.0000 0.0000 0.0000 1.5217 0.0000 0.0000
# 5 0.0000 0.0000 0.0000 0.0000 12.7416 0.0000
# 6 0.0000 0.0000 0.0000 0.0000 0.0000 -65.4896
#
#
#
# Elastic Compliance Matrix: (Units=1/GPa)
#
#
# Indices 1 2 3 4 5 6 
#
# 1 0.058694 -0.003405 -0.030959 0.000000 0.000000 0.000000
# 2 -0.003405 0.011170 -0.011741 0.000000 0.000000 0.000000
# 3 -0.030959 -0.011741 0.051323 0.000000 0.000000 0.000000
# 4 0.000000 0.000000 0.000000 0.657154 0.000000 0.000000
# 5 0.000000 0.000000 0.000000 0.000000 0.078483 0.000000
# 6 0.000000 0.000000 0.000000 0.000000 0.000000 -0.015270
#
#
# Mechanical properties :
#
#
# Convention : Reuss Voigt Hill
#
# Bulk Modulus (GPa) = 34.51011 61.97002 48.24006
# Shear Modulus (GPa) = 5.29984 -2.23940 1.53022
#
# Velocity S-wave (km/s) = 1.76264 -1.14577 0.94713
# Velocity P-wave (km/s) = 4.93692 5.88030 5.42914
#
# Compressibility (1/GPa) = 0.02897702
#
# Stress axis : x y z
#
# Youngs Moduli (GPa) = 17.03743 89.52159 19.48453
#
# Poissons Ratio (x) = 0.30486 0.60322
# Poissons Ratio (y) = 0.05802 0.22877
# Poissons Ratio (z) = 0.52746 1.05108
#
# Static dielectric constant tensor:
#      x y z
#    x 1.576480 0.000000 0.000000 
#    y 0.000000 1.614580 0.000000 
#    z 0.000000 0.000000 1.566410 
# 
# From -- ./inp_files/18572.got.cif
#   From: 2010.05.17/outbox.cif.g08.bks.cpg/sg65_10_cif.got.tgz:18572.got - 2010.06.03 17:01:31.
