data_PCOD9483787
_publ_section_title
;
Structure prediction by ZEFSAII (Michael W. Deem and Ramdas Pophale) SiO2 
 PCOD9483787
Probable space group: C M M M
;
_chemical_formula_sum "Si O2"
_cell_formula_units_Z 104
_cell_length_a 7.617572
_cell_length_b 29.355085
_cell_length_c 23.936452
_cell_angle_alpha 90.000000
_cell_angle_beta 90.000000
_cell_angle_gamma 90.000000
_cell_volume 5352.537113
_symmetry_space_group_name_H-M "C M M M"
_symmetry_group_IT_number 65
_symmetry_cell_setting 'orthorhombic'
loop_
_space_group_symop_operation_xyz
x,y,z
-x,-y,z
x,-y,-z
-x,y,-z
-x,-y,-z
x,y,-z
-x,y,z
x,-y,z
1/2+x,1/2+y,z
1/2-x,1/2-y,z
1/2+x,1/2-y,-z
1/2-x,1/2+y,-z
1/2-x,1/2-y,-z
1/2+x,1/2+y,-z
1/2-x,1/2+y,z
1/2+x,1/2-y,z
loop_
_atom_site_type_symbol
_atom_site_label
_atom_site_fract_x
_atom_site_fract_y
_atom_site_fract_z
Si Si1 0.715392 0.947072 0.000000
Si Si2 0.793470 0.601680 0.888296
Si Si3 0.212833 0.552775 0.223873
Si Si4 0.210826 0.800845 0.724981
Si Si5 0.714583 0.447723 0.436664
Si Si6 0.793264 0.890159 0.666689
Si Si7 0.208463 0.199136 0.852787
O O1 0.777776 0.921791 0.944001
O O2 0.500000 0.945507 0.000000
O O3 0.765089 0.000000 0.000000
O O4 0.722579 0.580678 0.830369
O O5 0.774437 0.656069 0.887261
O O6 0.000000 0.590918 0.887517
O O7 0.265562 0.500000 0.220260
O O8 0.275663 0.576140 0.280650
O O9 0.000000 0.554359 0.224886
O O10 0.250000 0.750000 0.704737
O O11 0.280568 0.841651 0.686896
O O12 0.278746 0.804582 0.788898
O O13 0.000000 0.805557 0.728129
O O14 0.767310 0.436011 0.500000
O O15 0.500000 0.447543 0.435617
O O16 0.767724 0.500000 0.425157
O O17 0.779757 0.413999 0.388668
O O18 0.000000 0.883124 0.655931
O O19 0.250000 0.250000 0.873412
O O20 0.000000 0.195035 0.850418
#
# Coordination Sequence:
#
# PCOD9483787 Si02
#       7
#     8  16  16  16  16  16  16
#     4   9  18  34  56  77  98 131 174 209 238 287
#     4  10  19  33  53  75  99 130 166 204 244 287
#     4  10  20  31  45  70 102 130 157 194 242 292
#     4   9  18  30  46  69  96 125 158 194 240 293
#     4   8  14  25  43  68  96 126 161 200 239 280
#     4  10  18  30  48  72  97 124 161 203 245 288
#     4  10  19  33  52  75 102 129 161 201 247 300
#
# _framework density 19.430038
#
# number of rings (size 3 to 8) (size 9 to 14) (size 15 to 20)
#    0.000    2.538    1.538    1.846    0.000    4.000 
#    0.000    0.769    0.000    2.769    0.000    2.154 
#    0.000    0.000    0.000    0.000    0.000    0.000 
#
# Total GULP energy -290170.622814 kJ/mol
# GULP energy per Si atom -5580.204285 kJ/mol
# Density = 1.938581 g / cm^3
# Si number density = 19.430038 Si / 1000 Ang^3
#
#
#
# Elastic Constant Matrix: (Units=GPa)
#
#
# Indices 1 2 3 4 5 6 
#
# 1 36.3499 -12.4625 -3.3112 0.0000 0.0000 0.0000
# 2 -12.4625 151.0171 81.2737 0.0000 0.0000 0.0000
# 3 -3.3112 81.2737 122.4213 0.0000 0.0000 0.0000
# 4 0.0000 0.0000 0.0000 25.4300 0.0000 0.0000
# 5 0.0000 0.0000 0.0000 0.0000 5.7972 0.0000
# 6 0.0000 0.0000 0.0000 0.0000 0.0000 11.3715
#
#
#
# Elastic Compliance Matrix: (Units=1/GPa)
#
#
# Indices 1 2 3 4 5 6 
#
# 1 0.028429 0.003006 -0.001227 0.000000 0.000000 0.000000
# 2 0.003006 0.010621 -0.006970 0.000000 0.000000 0.000000
# 3 -0.001227 -0.006970 0.012762 0.000000 0.000000 0.000000
# 4 0.000000 0.000000 0.000000 0.039324 0.000000 0.000000
# 5 0.000000 0.000000 0.000000 0.000000 0.172496 0.000000
# 6 0.000000 0.000000 0.000000 0.000000 0.000000 0.087939
#
#
# Mechanical properties :
#
#
# Convention : Reuss Voigt Hill
#
# Bulk Modulus (GPa) = 24.13588 48.97649 36.55618
# Shear Modulus (GPa) = 13.30628 24.80564 19.05596
#
# Velocity S-wave (km/s) = 2.61977 3.57692 3.13509
# Velocity P-wave (km/s) = 4.64756 6.50542 5.65333
#
# Compressibility (1/GPa) = 0.04143210
#
# Stress axis : x y z
#
# Youngs Moduli (GPa) = 35.17489 94.15509 78.35528
#
# Poissons Ratio (x) = -0.28307 0.09614
# Poissons Ratio (y) = -0.10575 0.54611
# Poissons Ratio (z) = 0.04316 0.65623
#
# Static dielectric constant tensor:
#      x y z
#    x 1.725310 0.000000 0.000000 
#    y 0.000000 1.681630 0.000000 
#    z 0.000000 0.000000 1.668610 
# 
# From -- ./inp_files/68196.got.cif
#   From: 2010.05.17/outbox.cif.g08.bks.cpg/sg65_35_cif.got.tgz:68196.got - 2010.06.03 17:01:31.
