data_PCOD9483517
_publ_section_title
;
Structure prediction by ZEFSAII (Michael W. Deem and Ramdas Pophale) SiO2 
 PCOD9483517
Probable space group: C M M M
;
_chemical_formula_sum "Si O2"
_cell_formula_units_Z 104
_cell_length_a 31.994244
_cell_length_b 32.058622
_cell_length_c 7.644402
_cell_angle_alpha 90.000000
_cell_angle_beta 90.000000
_cell_angle_gamma 90.000000
_cell_volume 7840.797195
_symmetry_space_group_name_H-M "C M M M"
_symmetry_group_IT_number 65
_symmetry_cell_setting 'orthorhombic'
loop_
_space_group_symop_operation_xyz
x,y,z
-x,-y,z
x,-y,-z
-x,y,-z
-x,-y,-z
x,y,-z
-x,y,z
x,-y,z
1/2+x,1/2+y,z
1/2-x,1/2-y,z
1/2+x,1/2-y,-z
1/2-x,1/2+y,-z
1/2-x,1/2-y,-z
1/2+x,1/2+y,-z
1/2-x,1/2+y,z
1/2+x,1/2-y,z
loop_
_atom_site_type_symbol
_atom_site_label
_atom_site_fract_x
_atom_site_fract_y
_atom_site_fract_z
Si Si1 0.083713 0.086947 0.698580
Si Si2 0.751179 0.818929 0.500000
Si Si3 0.451610 0.674368 0.712187
Si Si4 0.000000 0.951226 0.197330
Si Si5 0.832153 0.046746 0.202506
Si Si6 0.681060 0.244332 0.500000
Si Si7 0.301120 0.636487 0.789333
Si Si8 0.133767 0.210939 0.202720
O O1 0.098415 0.093800 0.500000
O O2 0.068948 0.131014 0.776577
O O3 0.119338 0.060461 0.791263
O O4 0.041012 0.061917 0.702002
O O5 0.704987 0.799565 0.500000
O O6 0.782967 0.779745 0.500000
O O7 0.763945 0.844686 0.327010
O O8 0.452883 0.672371 0.500000
O O9 0.500000 0.679500 0.769843
O O10 0.415863 0.706900 0.765468
O O11 0.000000 0.000000 0.180012
O O12 0.000000 0.932879 0.000000
O O13 0.809777 0.088846 0.269844
O O14 0.826724 0.000000 0.279649
O O15 0.819658 0.043850 0.000000
O O16 0.653494 0.254774 0.669799
O O17 0.341551 0.666938 0.757241
O O18 0.294134 0.637311 0.000000
O O19 0.141887 0.219823 0.000000
#
# Coordination Sequence:
#
# PCOD9483517 Si02
#       8
#    16   8  16   8  16   8  16  16
#     4  11  21  31  44  57  69  93 129 171 211 247
#     4   9  18  30  49  64  82 105 118 151 204 250
#     4  10  19  31  44  58  79 104 133 172 211 248
#     4  11  23  35  41  47  67  93 121 167 217 255
#     4  10  20  32  43  57  79 105 133 167 206 244
#     4   9  18  32  45  66  86  97 120 157 196 254
#     4   9  18  30  45  64  83 105 133 162 198 249
#     4  10  18  29  47  63  80 107 131 160 204 249
#
# _framework density 13.263957
#
# number of rings (size 3 to 8) (size 9 to 14) (size 15 to 20)
#    0.000    2.077    3.077    1.154    1.077    4.308 
#    0.000    3.077    0.000    0.000    0.000    0.000 
#    0.000    0.000    0.000    0.000    0.000    0.000 
#
# Total GULP energy -289532.472758 kJ/mol
# GULP energy per Si atom -5567.932168 kJ/mol
# Density = 1.323377 g / cm^3
# Si number density = 13.263957 Si / 1000 Ang^3
#
#
#
# Elastic Constant Matrix: (Units=GPa)
#
#
# Indices 1 2 3 4 5 6 
#
# 1 61.2686 48.5500 25.2348 0.0000 0.0000 0.0000
# 2 48.5500 64.5785 25.2313 0.0000 0.0000 0.0000
# 3 25.2348 25.2313 54.9193 0.0000 0.0000 0.0000
# 4 0.0000 0.0000 0.0000 9.7741 0.0000 0.0000
# 5 0.0000 0.0000 0.0000 0.0000 7.7883 0.0000
# 6 0.0000 0.0000 0.0000 0.0000 0.0000 38.8400
#
#
#
# Elastic Compliance Matrix: (Units=1/GPa)
#
#
# Indices 1 2 3 4 5 6 
#
# 1 0.041845 -0.029186 -0.005819 0.000000 0.000000 0.000000
# 2 -0.029186 0.039229 -0.004612 0.000000 0.000000 0.000000
# 3 -0.005819 -0.004612 0.023001 0.000000 0.000000 0.000000
# 4 0.000000 0.000000 0.000000 0.102312 0.000000 0.000000
# 5 0.000000 0.000000 0.000000 0.000000 0.128399 0.000000
# 6 0.000000 0.000000 0.000000 0.000000 0.000000 0.025747
#
#
# Mechanical properties :
#
#
# Convention : Reuss Voigt Hill
#
# Bulk Modulus (GPa) = 40.25467 42.08874 41.17171
# Shear Modulus (GPa) = 11.15957 16.73048 13.94503
#
# Velocity S-wave (km/s) = 2.90374 3.55540 3.24597
# Velocity P-wave (km/s) = 6.45423 6.97532 6.71983
#
# Compressibility (1/GPa) = 0.02484184
#
# Stress axis : x y z
#
# Youngs Moduli (GPa) = 23.89755 25.49148 43.47607
#
# Poissons Ratio (x) = 0.74399 0.25298
# Poissons Ratio (y) = 0.69747 0.20052
# Poissons Ratio (z) = 0.13906 0.11757
#
# Static dielectric constant tensor:
#      x y z
#    x 1.422510 0.000000 0.000000 
#    y 0.000000 1.446090 0.000000 
#    z 0.000000 0.000000 1.527940 
# 
# From -- ./inp_files/16860.got.cif
#   From: 2010.05.17/outbox.cif.g08.bks.cpg/sg65_9_cif.got.tgz:16860.got - 2010.06.03 17:01:31.
