data_PCOD9483585
_publ_section_title
;
Structure prediction by ZEFSAII (Michael W. Deem and Ramdas Pophale) SiO2 
 PCOD9483585
Probable space group: C M M M
;
_chemical_formula_sum "Si O2"
_cell_formula_units_Z 104
_cell_length_a 7.824937
_cell_length_b 29.799269
_cell_length_c 24.325095
_cell_angle_alpha 90.000000
_cell_angle_beta 90.000000
_cell_angle_gamma 90.000000
_cell_volume 5672.062469
_symmetry_space_group_name_H-M "C M M M"
_symmetry_group_IT_number 65
_symmetry_cell_setting 'orthorhombic'
loop_
_space_group_symop_operation_xyz
x,y,z
-x,-y,z
x,-y,-z
-x,y,-z
-x,-y,-z
x,y,-z
-x,y,z
x,-y,z
1/2+x,1/2+y,z
1/2-x,1/2-y,z
1/2+x,1/2-y,-z
1/2-x,1/2+y,-z
1/2-x,1/2-y,-z
1/2+x,1/2+y,-z
1/2-x,1/2+y,z
1/2+x,1/2-y,z
loop_
_atom_site_type_symbol
_atom_site_label
_atom_site_fract_x
_atom_site_fract_y
_atom_site_fract_z
Si Si1 0.801661 0.554522 0.500000
Si Si2 0.206374 0.106829 0.060545
Si Si3 0.703837 0.894424 0.273872
Si Si4 0.296920 0.700686 0.233733
Si Si5 0.705425 0.299351 0.107696
Si Si6 0.794529 0.448967 0.168007
Si Si7 0.290234 0.947819 0.379974
O O1 0.801926 0.500000 0.500000
O O2 0.728276 0.567239 0.559460
O O3 0.000000 0.569141 0.500000
O O4 0.266672 0.157432 0.074393
O O5 0.255371 0.074603 0.110355
O O6 0.000000 0.107857 0.059272
O O7 0.267062 0.092917 0.000000
O O8 0.500000 0.901287 0.274256
O O9 0.735302 0.841657 0.268137
O O10 0.771612 0.919246 0.219058
O O11 0.769134 0.917346 0.329557
O O12 0.500000 0.697856 0.230566
O O13 0.250000 0.750000 0.254953
O O14 0.228820 0.697396 0.170762
O O15 0.500000 0.301785 0.109436
O O16 0.750000 0.250000 0.085968
O O17 0.729989 0.500000 0.170328
O O18 0.000000 0.450662 0.172888
O O19 0.500000 0.946966 0.381750
O O20 0.243304 0.000000 0.370976
#
# Coordination Sequence:
#
# PCOD9483585 Si02
#       7
#     8  16  16  16  16  16  16
#     4   7  10  18  34  60  96 133 164 195 230 267
#     4  10  21  37  53  69  91 120 155 193 235 284
#     4  10  18  29  48  73  99 126 157 193 235 278
#     4  10  19  32  50  71  96 123 153 190 235 284
#     4   9  18  32  50  71  93 116 144 182 229 281
#     4  10  21  35  50  69  94 123 156 195 235 274
#     4   8  13  22  39  66 100 134 165 196 230 271
#
# _framework density 18.335481000000001
#
# number of rings (size 3 to 8) (size 9 to 14) (size 15 to 20)
#    0.000    2.692    1.538    1.846    0.000    4.308 
#    0.000    1.538    0.000    1.385    0.000    1.077 
#    0.000    1.846    0.000    0.000    0.000    0.000 
#
# Total GULP energy -289937.707910 kJ/mol
# GULP energy per Si atom -5575.725152 kJ/mol
# Density = 1.829375 g / cm^3
# Si number density = 18.335481 Si / 1000 Ang^3
#
#
#
# Elastic Constant Matrix: (Units=GPa)
#
#
# Indices 1 2 3 4 5 6 
#
# 1 20.3270 1.8217 9.1103 0.0000 0.0000 0.0000
# 2 1.8217 124.2157 85.2366 0.0000 0.0000 0.0000
# 3 9.1103 85.2366 157.7529 0.0000 0.0000 0.0000
# 4 0.0000 0.0000 0.0000 51.3256 0.0000 0.0000
# 5 0.0000 0.0000 0.0000 0.0000 0.1222 0.0000
# 6 0.0000 0.0000 0.0000 0.0000 0.0000 17.0437
#
#
#
# Elastic Compliance Matrix: (Units=1/GPa)
#
#
# Indices 1 2 3 4 5 6 
#
# 1 0.050819 0.002016 -0.004024 0.000000 0.000000 0.000000
# 2 0.002016 0.012874 -0.007073 0.000000 0.000000 0.000000
# 3 -0.004024 -0.007073 0.010393 0.000000 0.000000 0.000000
# 4 0.000000 0.000000 0.000000 0.019483 0.000000 0.000000
# 5 0.000000 0.000000 0.000000 0.000000 8.183957 0.000000
# 6 0.000000 0.000000 0.000000 0.000000 0.000000 0.058673
#
#
# Mechanical properties :
#
#
# Convention : Reuss Voigt Hill
#
# Bulk Modulus (GPa) = 17.88132 54.95921 36.42026
# Shear Modulus (GPa) = 0.59716 27.44009 14.01862
#
# Velocity S-wave (km/s) = 0.57131 3.87273 2.76807
# Velocity P-wave (km/s) = 3.19510 7.07366 5.48841
#
# Compressibility (1/GPa) = 0.05592428
#
# Stress axis : x y z
#
# Youngs Moduli (GPa) = 19.67787 77.67532 96.22021
#
# Poissons Ratio (x) = -0.15660 0.38720
# Poissons Ratio (y) = -0.03967 0.68052
# Poissons Ratio (z) = 0.07919 0.54936
#
# Static dielectric constant tensor:
#      x y z
#    x 1.736120 0.000000 0.000000 
#    y 0.000000 2.757500 0.000000 
#    z 0.000000 0.000000 1.653080 
# 
# From -- ./inp_files/60877.got.cif
#   From: 2010.05.17/outbox.cif.g08.bks.cpg/sg65_31_cif.got.tgz:60877.got - 2010.06.03 17:01:31.
