data_PCOD9483732
_publ_section_title
;
Structure prediction by ZEFSAII (Michael W. Deem and Ramdas Pophale) SiO2 
 PCOD9483732
Probable space group: C M M M
;
_chemical_formula_sum "Si O2"
_cell_formula_units_Z 88
_cell_length_a 8.747383
_cell_length_b 28.869732
_cell_length_c 21.887232
_cell_angle_alpha 90.000000
_cell_angle_beta 90.000000
_cell_angle_gamma 90.000000
_cell_volume 5527.283442
_symmetry_space_group_name_H-M "C M M M"
_symmetry_group_IT_number 65
_symmetry_cell_setting 'orthorhombic'
loop_
_space_group_symop_operation_xyz
x,y,z
-x,-y,z
x,-y,-z
-x,y,-z
-x,-y,-z
x,y,-z
-x,y,z
x,-y,z
1/2+x,1/2+y,z
1/2-x,1/2-y,z
1/2+x,1/2-y,-z
1/2-x,1/2+y,-z
1/2-x,1/2-y,-z
1/2+x,1/2+y,-z
1/2-x,1/2+y,z
1/2+x,1/2-y,z
loop_
_atom_site_type_symbol
_atom_site_label
_atom_site_fract_x
_atom_site_fract_y
_atom_site_fract_z
Si Si1 0.817462 0.555392 0.931907
Si Si2 0.816873 0.697726 0.000000
Si Si3 0.181637 0.555770 0.433399
Si Si4 0.684216 0.553861 0.694171
Si Si5 0.683080 0.301207 0.873095
Si Si6 0.183841 0.106696 0.185436
O O1 0.792371 0.500000 0.927659
O O2 0.742640 0.579972 0.874273
O O3 0.000000 0.563328 0.929846
O O4 0.764084 0.570261 0.000000
O O5 0.750000 0.750000 0.000000
O O6 0.752688 0.678929 0.936467
O O7 0.000000 0.697460 0.000000
O O8 0.236679 0.573056 0.500000
O O9 0.204357 0.500000 0.433979
O O10 0.259188 0.572308 0.371245
O O11 0.000000 0.563840 0.430005
O O12 0.500000 0.554249 0.693869
O O13 0.733162 0.500000 0.700998
O O14 0.739687 0.583120 0.752230
O O15 0.500000 0.297512 0.879647
O O16 0.750000 0.250000 0.862503
O O17 0.722288 0.339098 0.822082
O O18 0.000000 0.103430 0.185159
#
# Coordination Sequence:
#
# PCOD9483732 Si02
#       6
#    16   8  16  16  16  16
#     4   9  19  34  48  64  87 114 148 189 227 264
#     4  10  18  30  48  66  83 104 133 174 226 277
#     4   8  14  25  41  62  89 120 151 180 210 247
#     4   9  17  29  44  64  91 120 150 182 215 254
#     4  10  20  34  49  66  88 112 143 184 230 279
#     4  10  21  33  47  66  89 117 150 187 226 271
#
# _framework density 15.921022000000001
#
# number of rings (size 3 to 8) (size 9 to 14) (size 15 to 20)
#    0.000    2.727    0.000    4.091    1.273    4.000 
#    0.000    4.545    0.000    0.000    0.000    0.000 
#    0.000    0.727    0.000    1.636    0.000    2.909 
#
# Total GULP energy -245134.021603 kJ/mol
# GULP energy per Si atom -5571.227764 kJ/mol
# Density = 1.588479 g / cm^3
# Si number density = 15.921022 Si / 1000 Ang^3
#
#
#
# Elastic Constant Matrix: (Units=GPa)
#
#
# Indices 1 2 3 4 5 6 
#
# 1 24.3886 22.6333 29.9315 0.0000 0.0000 0.0000
# 2 22.6333 57.3176 64.3839 0.0000 0.0000 0.0000
# 3 29.9315 64.3839 158.8914 0.0000 0.0000 0.0000
# 4 0.0000 0.0000 0.0000 12.7289 0.0000 0.0000
# 5 0.0000 0.0000 0.0000 0.0000 24.8805 0.0000
# 6 0.0000 0.0000 0.0000 0.0000 0.0000 14.9825
#
#
#
# Elastic Compliance Matrix: (Units=1/GPa)
#
#
# Indices 1 2 3 4 5 6 
#
# 1 0.065718 -0.022106 -0.003422 0.000000 0.000000 0.000000
# 2 -0.022106 0.039458 -0.011824 0.000000 0.000000 0.000000
# 3 -0.003422 -0.011824 0.011730 0.000000 0.000000 0.000000
# 4 0.000000 0.000000 0.000000 0.078561 0.000000 0.000000
# 5 0.000000 0.000000 0.000000 0.000000 0.040192 0.000000
# 6 0.000000 0.000000 0.000000 0.000000 0.000000 0.066744
#
#
# Mechanical properties :
#
#
# Convention : Reuss Voigt Hill
#
# Bulk Modulus (GPa) = 23.69678 52.72167 38.20922
# Shear Modulus (GPa) = 12.78199 18.76166 15.77182
#
# Velocity S-wave (km/s) = 2.83651 3.43654 3.15084
# Velocity P-wave (km/s) = 5.06399 6.99520 6.10642
#
# Compressibility (1/GPa) = 0.04219982
#
# Stress axis : x y z
#
# Youngs Moduli (GPa) = 15.21654 25.34345 85.25501
#
# Poissons Ratio (x) = 0.56025 0.29175
# Poissons Ratio (y) = 0.33638 1.00808
# Poissons Ratio (z) = 0.05207 0.29967
#
# Static dielectric constant tensor:
#      x y z
#    x 1.540360 0.000000 0.000000 
#    y 0.000000 1.024350 0.000000 
#    z 0.000000 0.000000 1.561030 
# 
# From -- ./inp_files/60672.got.cif
#   From: 2010.05.17/outbox.cif.g08.bks.cpg/sg65_31_cif.got.tgz:60672.got - 2010.06.03 17:01:31.
