data_PCOD9483899
_publ_section_title
;
Structure prediction by ZEFSAII (Michael W. Deem and Ramdas Pophale) SiO2 
 PCOD9483899
Probable space group: C M M M
;
_chemical_formula_sum "Si O2"
_cell_formula_units_Z 104
_cell_length_a 27.667249
_cell_length_b 7.591305
_cell_length_c 22.628764
_cell_angle_alpha 90.000000
_cell_angle_beta 90.000000
_cell_angle_gamma 90.000000
_cell_volume 4752.731198
_symmetry_space_group_name_H-M "C M M M"
_symmetry_group_IT_number 65
_symmetry_cell_setting 'orthorhombic'
loop_
_space_group_symop_operation_xyz
x,y,z
-x,-y,z
x,-y,-z
-x,y,-z
-x,-y,-z
x,y,-z
-x,y,z
x,-y,z
1/2+x,1/2+y,z
1/2-x,1/2-y,z
1/2+x,1/2-y,-z
1/2-x,1/2+y,-z
1/2-x,1/2-y,-z
1/2+x,1/2+y,-z
1/2-x,1/2+y,z
1/2+x,1/2-y,z
loop_
_atom_site_type_symbol
_atom_site_label
_atom_site_fract_x
_atom_site_fract_y
_atom_site_fract_z
Si Si1 0.945410 0.715367 0.882700
Si Si2 0.306258 0.293362 0.189474
Si Si3 0.901826 0.801335 0.371945
Si Si4 0.693068 0.287132 0.320415
Si Si5 0.000000 0.212634 0.430238
Si Si6 0.850678 0.710484 0.062601
Si Si7 0.557783 0.209132 0.750364
O O1 0.946555 0.500000 0.882060
O O2 0.905770 0.773120 0.929160
O O3 0.929059 0.767783 0.816511
O O4 0.000000 0.774878 0.893105
O O5 0.314181 0.500000 0.194330
O O6 0.250000 0.250000 0.186070
O O7 0.320372 0.217858 0.254133
O O8 0.326746 0.242663 0.125828
O O9 0.847649 0.722728 0.367004
O O10 0.917637 0.806275 0.303364
O O11 0.949174 0.718829 0.403267
O O12 0.897268 0.000000 0.396430
O O13 0.688905 0.500000 0.320225
O O14 0.750000 0.250000 0.331448
O O15 0.000000 0.240590 0.500000
O O16 0.000000 0.000000 0.418204
O O17 0.851435 0.500000 0.058347
O O18 0.829975 0.778265 0.000000
O O19 0.500000 0.232379 0.745827
O O20 0.567446 0.000000 0.745176
#
# Coordination Sequence:
#
# PCOD9483899 Si02
#       7
#    16  16  16  16   8  16  16
#     4   8  15  28  45  66  93 124 157 196 239 289
#     4  10  20  35  53  71  94 121 153 196 248 302
#     4  10  18  30  50  75 103 134 170 210 243 285
#     4   9  19  33  51  77 103 128 163 206 256 305
#     4   9  18  32  51  77 109 145 178 205 238 278
#     4  10  20  32  47  68  92 121 161 203 243 291
#     4   9  16  26  43  69  98 126 159 198 249 305
#
# _framework density 21.882155000000001
#
# number of rings (size 3 to 8) (size 9 to 14) (size 15 to 20)
#    0.000    2.692    0.769    2.308    0.000    2.154 
#    0.000    1.538    0.000    1.846    0.000    1.077 
#    0.000    0.000    0.000    0.000    0.000    0.000 
#
# Total GULP energy -289755.282338 kJ/mol
# GULP energy per Si atom -5572.216968 kJ/mol
# Density = 2.183235 g / cm^3
# Si number density = 21.882155 Si / 1000 Ang^3
#
#
#
# Elastic Constant Matrix: (Units=GPa)
#
#
# Indices 1 2 3 4 5 6 
#
# 1 121.7462 3.4236 74.7482 0.0000 0.0000 0.0000
# 2 3.4236 47.2751 -0.7099 0.0000 0.0000 0.0000
# 3 74.7482 -0.7099 63.8033 0.0000 0.0000 0.0000
# 4 0.0000 0.0000 0.0000 9.8153 0.0000 0.0000
# 5 0.0000 0.0000 0.0000 0.0000 11.4657 0.0000
# 6 0.0000 0.0000 0.0000 0.0000 0.0000 -7.9433
#
#
#
# Elastic Compliance Matrix: (Units=1/GPa)
#
#
# Indices 1 2 3 4 5 6 
#
# 1 0.029593 -0.002664 -0.034699 0.000000 0.000000 0.000000
# 2 -0.002664 0.021396 0.003359 0.000000 0.000000 0.000000
# 3 -0.034699 0.003359 0.056361 0.000000 0.000000 0.000000
# 4 0.000000 0.000000 0.000000 0.101882 0.000000 0.000000
# 5 0.000000 0.000000 0.000000 0.000000 0.087216 0.000000
# 6 0.000000 0.000000 0.000000 0.000000 0.000000 -0.125892
#
#
# Mechanical properties :
#
#
# Convention : Reuss Voigt Hill
#
# Bulk Modulus (GPa) = 25.41741 43.08317 34.25029
# Shear Modulus (GPa) = 19.86666 13.02504 16.44585
#
# Velocity S-wave (km/s) = 3.01640 2.44239 2.74444
# Velocity P-wave (km/s) = 4.87569 5.26167 5.07235
#
# Compressibility (1/GPa) = 0.03934311
#
# Stress axis : x y z
#
# Youngs Moduli (GPa) = 33.79234 46.73737 17.74265
#
# Poissons Ratio (x) = 0.12451 0.61564
# Poissons Ratio (y) = 0.09003 -0.05960
# Poissons Ratio (z) = 1.17254 -0.15700
#
# Static dielectric constant tensor:
#      x y z
#    x 1.861610 0.000000 0.000000 
#    y 0.000000 1.849660 0.000000 
#    z 0.000000 0.000000 1.824520 
# 
# From -- ./inp_files/65910.got.cif
#   From: 2010.05.17/outbox.cif.g08.bks.cpg/sg65_33_cif.got.tgz:65910.got - 2010.06.03 17:01:31.
