data_PCOD9483104
_publ_section_title
;
Structure prediction by ZEFSAII (Michael W. Deem and Ramdas Pophale) SiO2 
 PCOD9483104
Probable space group: C M M M
;
_chemical_formula_sum "Si O2"
_cell_formula_units_Z 104
_cell_length_a 8.492663
_cell_length_b 28.049178
_cell_length_c 28.016358
_cell_angle_alpha 90.000000
_cell_angle_beta 90.000000
_cell_angle_gamma 90.000000
_cell_volume 6673.838729
_symmetry_space_group_name_H-M "C M M M"
_symmetry_group_IT_number 65
_symmetry_cell_setting 'orthorhombic'
loop_
_space_group_symop_operation_xyz
x,y,z
-x,-y,z
x,-y,-z
-x,y,-z
-x,-y,-z
x,y,-z
-x,y,z
x,-y,z
1/2+x,1/2+y,z
1/2-x,1/2-y,z
1/2+x,1/2-y,-z
1/2-x,1/2+y,-z
1/2-x,1/2-y,-z
1/2+x,1/2+y,-z
1/2-x,1/2+y,z
1/2+x,1/2-y,z
loop_
_atom_site_type_symbol
_atom_site_label
_atom_site_fract_x
_atom_site_fract_y
_atom_site_fract_z
Si Si1 0.188098 0.801452 0.396115
Si Si2 0.810958 0.804365 0.207228
Si Si3 0.190613 0.195258 0.000000
Si Si4 0.309696 0.399027 0.553865
Si Si5 0.690138 0.695529 0.897271
Si Si6 0.689787 0.947100 0.352434
Si Si7 0.688743 0.149160 0.302523
O O1 0.250000 0.750000 0.411152
O O2 0.235945 0.845245 0.430386
O O3 0.251097 0.815025 0.343582
O O4 0.000000 0.800191 0.394483
O O5 0.750000 0.750000 0.211854
O O6 0.760366 0.823545 0.154682
O O7 0.748571 0.834935 0.251130
O O8 0.000000 0.803239 0.208930
O O9 0.250000 0.250000 0.000000
O O10 0.241837 0.174212 0.948572
O O11 0.000000 0.195651 0.000000
O O12 0.258098 0.409338 0.500000
O O13 0.500000 0.401575 0.555390
O O14 0.242476 0.433712 0.594122
O O15 0.500000 0.695708 0.897322
O O16 0.750000 0.750000 0.897474
O O17 0.500000 0.947105 0.351080
O O18 0.743815 0.903607 0.318755
O O19 0.745876 0.000000 0.339314
O O20 0.500000 0.150100 0.302891
#
# Coordination Sequence:
#
# PCOD9483104 Si02
#       7
#    16  16   8  16  16  16  16
#     4  10  19  31  46  63  85 112 140 168 197 231
#     4  10  18  27  39  58  84 112 142 173 204 237
#     4   8  12  20  32  46  66  96 135 172 203 231
#     4   9  19  34  49  67  90 112 134 161 194 235
#     4   8  14  22  33  49  71 101 136 172 203 232
#     4   9  19  35  52  68  84 103 130 164 202 244
#     4  10  19  31  46  62  81 106 135 167 203 243
#
# _framework density 15.583235
#
# number of rings (size 3 to 8) (size 9 to 14) (size 15 to 20)
#    0.000    2.769    0.000    1.846    0.000    3.077 
#    0.000    1.538    0.000    0.000    0.000    0.000 
#    0.000    0.000    0.000    0.692    0.000   15.615 
#
# Total GULP energy -289529.522661 kJ/mol
# GULP energy per Si atom -5567.875436 kJ/mol
# Density = 1.554777 g / cm^3
# Si number density = 15.583235 Si / 1000 Ang^3
#
#
#
# Elastic Constant Matrix: (Units=GPa)
#
#
# Indices 1 2 3 4 5 6 
#
# 1 16.2736 7.6483 9.4970 0.0000 0.0000 0.0000
# 2 7.6483 57.9675 21.0022 0.0000 0.0000 0.0000
# 3 9.4970 21.0022 122.0209 0.0000 0.0000 0.0000
# 4 0.0000 0.0000 0.0000 9.6485 0.0000 0.0000
# 5 0.0000 0.0000 0.0000 0.0000 12.3493 0.0000
# 6 0.0000 0.0000 0.0000 0.0000 0.0000 13.3142
#
#
#
# Elastic Compliance Matrix: (Units=1/GPa)
#
#
# Indices 1 2 3 4 5 6 
#
# 1 0.067253 -0.007441 -0.003954 0.000000 0.000000 0.000000
# 2 -0.007441 0.019222 -0.002729 0.000000 0.000000 0.000000
# 3 -0.003954 -0.002729 0.008973 0.000000 0.000000 0.000000
# 4 0.000000 0.000000 0.000000 0.103643 0.000000 0.000000
# 5 0.000000 0.000000 0.000000 0.000000 0.080976 0.000000
# 6 0.000000 0.000000 0.000000 0.000000 0.000000 0.075108
#
#
# Mechanical properties :
#
#
# Convention : Reuss Voigt Hill
#
# Bulk Modulus (GPa) = 14.88095 30.28411 22.58253
# Shear Modulus (GPa) = 12.32065 17.60338 14.96202
#
# Velocity S-wave (km/s) = 2.81487 3.36465 3.10197
# Velocity P-wave (km/s) = 4.48718 5.87967 5.22997
#
# Compressibility (1/GPa) = 0.06720000
#
# Stress axis : x y z
#
# Youngs Moduli (GPa) = 14.86912 52.02464 111.44798
#
# Poissons Ratio (x) = 0.38712 0.44063
# Poissons Ratio (y) = 0.11064 0.30417
# Poissons Ratio (z) = 0.05879 0.14199
#
# Static dielectric constant tensor:
#      x y z
#    x 1.531590 0.000000 0.000000 
#    y 0.000000 1.501080 0.000000 
#    z 0.000000 0.000000 1.561360 
# 
# From -- ./inp_files/73752.got.cif
#   From: 2010.05.17/outbox.cif.g08.bks.cpg/sg65_37_cif.got.tgz:73752.got - 2010.06.03 17:01:31.
