data_PCOD9483162
_publ_section_title
;
Structure prediction by ZEFSAII (Michael W. Deem and Ramdas Pophale) SiO2 
 PCOD9483162
Probable space group: C M M M
;
_chemical_formula_sum "Si O2"
_cell_formula_units_Z 80
_cell_length_a 26.799779
_cell_length_b 7.714458
_cell_length_c 24.838946
_cell_angle_alpha 90.000000
_cell_angle_beta 90.000000
_cell_angle_gamma 90.000000
_cell_volume 5135.347004
_symmetry_space_group_name_H-M "C M M M"
_symmetry_group_IT_number 65
_symmetry_cell_setting 'orthorhombic'
loop_
_space_group_symop_operation_xyz
x,y,z
-x,-y,z
x,-y,-z
-x,y,-z
-x,-y,-z
x,y,-z
-x,y,z
x,-y,z
1/2+x,1/2+y,z
1/2-x,1/2-y,z
1/2+x,1/2-y,-z
1/2-x,1/2+y,-z
1/2-x,1/2-y,-z
1/2+x,1/2+y,-z
1/2-x,1/2+y,z
1/2+x,1/2-y,z
loop_
_atom_site_type_symbol
_atom_site_label
_atom_site_fract_x
_atom_site_fract_y
_atom_site_fract_z
Si Si1 0.500000 0.287756 0.062374
Si Si2 0.060860 0.000000 0.438170
Si Si3 0.401621 0.707748 0.874382
Si Si4 0.939265 0.699148 0.358151
Si Si5 0.556827 0.791714 0.238847
Si Si6 0.194068 0.791546 0.061613
O O1 0.500000 0.500000 0.063280
O O2 0.450358 0.227985 0.093294
O O3 0.500000 0.235707 0.000000
O O4 0.076551 0.169611 0.404639
O O5 0.077426 0.000000 0.500000
O O6 0.000000 0.000000 0.438619
O O7 0.401513 0.500000 0.880466
O O8 0.409405 0.745296 0.811649
O O9 0.350542 0.773994 0.900795
O O10 0.922878 0.500000 0.366203
O O11 0.925453 0.763711 0.298151
O O12 0.000000 0.696505 0.357626
O O13 0.500000 0.726192 0.229386
O O14 0.553936 0.000000 0.241856
O O15 0.250000 0.750000 0.080251
O O16 0.190258 0.000000 0.059541
O O17 0.188592 0.726874 0.000000
#
# Coordination Sequence:
#
# PCOD9483162 Si02
#       6
#     8   8  16  16  16  16
#     4   9  16  26  39  59  85 105 125 164 219 264
#     4   9  16  24  36  56  76 104 146 188 218 248
#     4  10  18  27  43  65  80 103 139 175 213 259
#     4   8  15  26  37  52  76 109 141 178 219 252
#     4   9  17  28  40  56  82 110 137 171 212 257
#     4   9  18  32  47  62  80 104 138 178 216 261
#
# _framework density 15.578305
#
# number of rings (size 3 to 8) (size 9 to 14) (size 15 to 20)
#    0.000    3.000    1.000    1.800    1.400    3.600 
#    0.000    2.000    0.000    2.400    0.000    0.000 
#    0.000    0.000    0.000    0.000    0.000    1.000 
#
# Total GULP energy -222842.478647 kJ/mol
# GULP energy per Si atom -5571.061966 kJ/mol
# Density = 1.554285 g / cm^3
# Si number density = 15.578305 Si / 1000 Ang^3
#
#
#
# Elastic Constant Matrix: (Units=GPa)
#
#
# Indices 1 2 3 4 5 6 
#
# 1 79.0146 18.0696 63.5072 0.0000 0.0000 0.0000
# 2 18.0696 42.3413 35.8541 0.0000 0.0000 0.0000
# 3 63.5072 35.8541 147.7314 0.0000 0.0000 0.0000
# 4 0.0000 0.0000 0.0000 -12.2602 0.0000 0.0000
# 5 0.0000 0.0000 0.0000 0.0000 10.1753 0.0000
# 6 0.0000 0.0000 0.0000 0.0000 0.0000 11.2072
#
#
#
# Elastic Compliance Matrix: (Units=1/GPa)
#
#
# Indices 1 2 3 4 5 6 
#
# 1 0.019416 -0.001533 -0.007974 0.000000 0.000000 0.000000
# 2 -0.001533 0.029848 -0.006585 0.000000 0.000000 0.000000
# 3 -0.007974 -0.006585 0.011795 0.000000 0.000000 0.000000
# 4 0.000000 0.000000 0.000000 -0.081565 0.000000 0.000000
# 5 0.000000 0.000000 0.000000 0.000000 0.098277 0.000000
# 6 0.000000 0.000000 0.000000 0.000000 0.000000 0.089228
#
#
# Mechanical properties :
#
#
# Convention : Reuss Voigt Hill
#
# Bulk Modulus (GPa) = 34.63337 55.99434 45.31385
# Shear Modulus (GPa) = 23.94525 11.93489 17.94007
#
# Velocity S-wave (km/s) = 3.92483 2.77089 3.39721
# Velocity P-wave (km/s) = 6.54363 6.80139 6.67376
#
# Compressibility (1/GPa) = 0.02887388
#
# Stress axis : x y z
#
# Youngs Moduli (GPa) = 51.50416 33.50311 84.77975
#
# Poissons Ratio (x) = 0.05137 0.67607
# Poissons Ratio (y) = 0.07897 0.55827
# Poissons Ratio (z) = 0.41072 0.22062
#
# Static dielectric constant tensor:
#      x y z
#    x 1.496100 0.000000 0.000000 
#    y 0.000000 1.572920 0.000000 
#    z 0.000000 0.000000 1.529200 
# 
# From -- ./inp_files/65671.got.cif
#   From: 2010.05.17/outbox.cif.g08.bks.cpg/sg65_33_cif.got.tgz:65671.got - 2010.06.03 17:01:31.
