data_PCOD9483011
_publ_section_title
;
Structure prediction by ZEFSAII (Michael W. Deem and Ramdas Pophale) SiO2 
 PCOD9483011
Probable space group: C M M M
;
_chemical_formula_sum "Si O2"
_cell_formula_units_Z 88
_cell_length_a 7.593076
_cell_length_b 24.173247
_cell_length_c 21.994868
_cell_angle_alpha 90.000000
_cell_angle_beta 90.000000
_cell_angle_gamma 90.000000
_cell_volume 4037.142661
_symmetry_space_group_name_H-M "C M M M"
_symmetry_group_IT_number 65
_symmetry_cell_setting 'orthorhombic'
loop_
_space_group_symop_operation_xyz
x,y,z
-x,-y,z
x,-y,-z
-x,y,-z
-x,-y,-z
x,y,-z
-x,y,z
x,-y,z
1/2+x,1/2+y,z
1/2-x,1/2-y,z
1/2+x,1/2-y,-z
1/2-x,1/2+y,-z
1/2-x,1/2-y,-z
1/2+x,1/2+y,-z
1/2-x,1/2+y,z
1/2+x,1/2-y,z
loop_
_atom_site_type_symbol
_atom_site_label
_atom_site_fract_x
_atom_site_fract_y
_atom_site_fract_z
Si Si1 0.211767 0.000000 0.243107
Si Si2 0.283370 0.379765 0.802480
Si Si3 0.792570 0.500000 0.613383
Si Si4 0.701779 0.623283 0.931808
Si Si5 0.293233 0.379693 0.432965
Si Si6 0.788687 0.814550 0.683460
Si Si7 0.302885 0.000000 0.927913
O O1 0.272921 0.942925 0.212335
O O2 0.256516 0.000000 0.314409
O O3 0.000000 0.000000 0.238562
O O4 0.500000 0.379626 0.804681
O O5 0.219962 0.356414 0.867855
O O6 0.225285 0.343096 0.745459
O O7 0.719050 0.444222 0.584044
O O8 0.000000 0.500000 0.603318
O O9 0.500000 0.642203 0.935557
O O10 0.703496 0.557229 0.918010
O O11 0.779674 0.631833 0.000000
O O12 0.216426 0.369803 0.500000
O O13 0.500000 0.365502 0.436267
O O14 0.217445 0.345055 0.376667
O O15 0.750000 0.750000 0.682117
O O16 0.000000 0.822454 0.683645
O O17 0.500000 0.000000 0.901197
O O18 0.325131 0.000000 0.000000
#
# Coordination Sequence:
#
# PCOD9483011 Si02
#       7
#     8  16   8  16  16  16   8
#     4  10  17  32  55  75 102 144 185 215 254 319
#     4   9  17  31  54  78 102 136 176 218 263 311
#     4  12  23  34  53  85 121 145 170 217 268 304
#     4   9  16  27  46  71  96 127 172 219 256 300
#     4  10  21  39  62  83 106 144 184 211 250 318
#     4  10  21  38  58  79 104 137 179 224 267 312
#     4   9  16  25  37  59  97 138 165 193 247 313
#
# _framework density 21.797595999999999
#
# number of rings (size 3 to 8) (size 9 to 14) (size 15 to 20)
#    0.000    2.273    1.818    1.909    0.000    5.091 
#    0.000    2.727    0.000    0.545    0.000    0.000 
#    0.000    0.000    0.000    0.000    0.000    0.000 
#
# Total GULP energy -245401.684863 kJ/mol
# GULP energy per Si atom -5577.311020 kJ/mol
# Density = 2.174798 g / cm^3
# Si number density = 21.797596 Si / 1000 Ang^3
#
#
#
# Elastic Constant Matrix: (Units=GPa)
#
#
# Indices 1 2 3 4 5 6 
#
# 1 54.3189 -8.3580 7.1433 0.0000 0.0000 0.0000
# 2 -8.3580 93.0269 71.7587 0.0000 0.0000 0.0000
# 3 7.1433 71.7587 257.3692 0.0000 0.0000 0.0000
# 4 0.0000 0.0000 0.0000 -9.7538 0.0000 0.0000
# 5 0.0000 0.0000 0.0000 0.0000 -3.9566 0.0000
# 6 0.0000 0.0000 0.0000 0.0000 0.0000 -1.3141
#
#
#
# Elastic Compliance Matrix: (Units=1/GPa)
#
#
# Indices 1 2 3 4 5 6 
#
# 1 0.018992 0.002692 -0.001278 0.000000 0.000000 0.000000
# 2 0.002692 0.014077 -0.003999 0.000000 0.000000 0.000000
# 3 -0.001278 -0.003999 0.005036 0.000000 0.000000 0.000000
# 4 0.000000 0.000000 0.000000 -0.102524 0.000000 0.000000
# 5 0.000000 0.000000 0.000000 0.000000 -0.252740 0.000000
# 6 0.000000 0.000000 0.000000 0.000000 0.000000 -0.761000
#
#
# Mechanical properties :
#
#
# Convention : Reuss Voigt Hill
#
# Bulk Modulus (GPa) = 30.36366 60.64478 45.50422
# Shear Modulus (GPa) = -4.70805 19.27316 7.28256
#
# Velocity S-wave (km/s) = -1.47125 2.97675 1.82982
# Velocity P-wave (km/s) = 3.32775 6.30055 5.03840
#
# Compressibility (1/GPa) = 0.03293411
#
# Stress axis : x y z
#
# Youngs Moduli (GPa) = 52.65369 71.04017 198.56831
#
# Poissons Ratio (x) = -0.19123 0.25370
# Poissons Ratio (y) = -0.14174 0.79417
# Poissons Ratio (z) = 0.06727 0.28412
#
# Static dielectric constant tensor:
#      x y z
#    x 1.824960 0.000000 0.000000 
#    y 0.000000 1.750960 0.000000 
#    z 0.000000 0.000000 1.865480 
# 
# From -- ./inp_files/59881.got.cif
#   From: 2010.05.17/outbox.cif.g08.bks.cpg/sg65_30_cif.got.tgz:59881.got - 2010.06.03 17:01:31.
