data_PCOD9483900
_publ_section_title
;
Structure prediction by ZEFSAII (Michael W. Deem and Ramdas Pophale) SiO2 
 PCOD9483900
Probable space group: C M M M
;
_chemical_formula_sum "Si O2"
_cell_formula_units_Z 80
_cell_length_a 8.555635
_cell_length_b 18.551629
_cell_length_c 26.910700
_cell_angle_alpha 90.000000
_cell_angle_beta 90.000000
_cell_angle_gamma 90.000000
_cell_volume 4271.292310
_symmetry_space_group_name_H-M "C M M M"
_symmetry_group_IT_number 65
_symmetry_cell_setting 'orthorhombic'
loop_
_space_group_symop_operation_xyz
x,y,z
-x,-y,z
x,-y,-z
-x,y,-z
-x,-y,-z
x,y,-z
-x,y,z
x,-y,z
1/2+x,1/2+y,z
1/2-x,1/2-y,z
1/2+x,1/2-y,-z
1/2-x,1/2+y,-z
1/2-x,1/2-y,-z
1/2+x,1/2+y,-z
1/2-x,1/2+y,z
1/2+x,1/2-y,z
loop_
_atom_site_type_symbol
_atom_site_label
_atom_site_fract_x
_atom_site_fract_y
_atom_site_fract_z
Si Si1 0.687133 0.415247 0.000000
Si Si2 0.690625 0.082726 0.598131
Si Si3 0.812119 0.331748 0.696617
Si Si4 0.313569 0.332213 0.800560
Si Si5 0.689264 0.831106 0.500000
Si Si6 0.186391 0.331802 0.095434
O O1 0.756183 0.377524 0.951211
O O2 0.723486 0.500000 0.000000
O O3 0.500000 0.406213 0.000000
O O4 0.500000 0.082219 0.597678
O O5 0.737666 0.122241 0.648880
O O6 0.740960 0.126809 0.549533
O O7 0.742893 0.000000 0.596324
O O8 0.750000 0.250000 0.691251
O O9 0.748581 0.363236 0.748638
O O10 0.000000 0.329391 0.698962
O O11 0.250000 0.250000 0.800357
O O12 0.250300 0.363088 0.852345
O O13 0.000000 0.168476 0.800875
O O14 0.500000 0.829945 0.500000
O O15 0.750000 0.750000 0.500000
O O16 0.250000 0.250000 0.090221
O O17 0.000000 0.328934 0.097306
#
# Coordination Sequence:
#
# PCOD9483900 Si02
#       6
#     8  16  16  16   8  16
#     4  11  24  41  58  79 111 147 182 223 272 323
#     4   9  18  32  51  75 102 135 175 215 255 304
#     4  10  18  30  50  75 103 134 170 214 260 309
#     4  10  18  31  52  78 107 137 174 219 266 313
#     4  10  19  33  55  79 103 132 170 216 262 310
#     4  11  21  36  59  85 112 142 182 226 270 320
#
# _framework density 18.729693999999999
#
# number of rings (size 3 to 8) (size 9 to 14) (size 15 to 20)
#    0.000    1.900    0.000    8.100    0.000    2.000 
#    0.000    2.000    0.000    9.600    0.000    0.000 
#    0.000    0.000    0.000    0.000    0.000    0.000 
#
# Total GULP energy -223341.324660 kJ/mol
# GULP energy per Si atom -5583.533117 kJ/mol
# Density = 1.868706 g / cm^3
# Si number density = 18.729694 Si / 1000 Ang^3
#
#
#
# Elastic Constant Matrix: (Units=GPa)
#
#
# Indices 1 2 3 4 5 6 
#
# 1 103.4075 39.6018 65.5746 0.0000 0.0000 0.0000
# 2 39.6018 100.3602 95.3033 0.0000 0.0000 0.0000
# 3 65.5746 95.3033 242.0130 0.0000 0.0000 0.0000
# 4 0.0000 0.0000 0.0000 -10.6261 0.0000 0.0000
# 5 0.0000 0.0000 0.0000 0.0000 36.6654 0.0000
# 6 0.0000 0.0000 0.0000 0.0000 0.0000 18.1191
#
#
#
# Elastic Compliance Matrix: (Units=1/GPa)
#
#
# Indices 1 2 3 4 5 6 
#
# 1 0.012104 -0.002654 -0.002234 0.000000 0.000000 0.000000
# 2 -0.002654 0.016498 -0.005778 0.000000 0.000000 0.000000
# 3 -0.002234 -0.005778 0.007013 0.000000 0.000000 0.000000
# 4 0.000000 0.000000 0.000000 -0.094108 0.000000 0.000000
# 5 0.000000 0.000000 0.000000 0.000000 0.027274 0.000000
# 6 0.000000 0.000000 0.000000 0.000000 0.000000 0.055190
#
#
# Mechanical properties :
#
#
# Convention : Reuss Voigt Hill
#
# Bulk Modulus (GPa) = 70.01901 94.08224 82.05062
# Shear Modulus (GPa) = 99.87283 25.18509 62.52896
#
# Velocity S-wave (km/s) = 7.31020 3.67094 5.78424
# Velocity P-wave (km/s) = 10.42675 8.26489 9.40812
#
# Compressibility (1/GPa) = 0.01428184
#
# Stress axis : x y z
#
# Youngs Moduli (GPa) = 82.61797 60.61337 142.60078
#
# Poissons Ratio (x) = 0.16089 0.31861
# Poissons Ratio (y) = 0.21930 0.82389
# Poissons Ratio (z) = 0.18459 0.35020
#
# Static dielectric constant tensor:
#      x y z
#    x 1.635970 0.000000 0.000000 
#    y 0.000000 1.586180 0.000000 
#    z 0.000000 0.000000 1.673100 
# 
# From -- ./inp_files/72879.got.cif
#   From: 2010.05.17/outbox.cif.g08.bks.cpg/sg65_37_cif.got.tgz:72879.got - 2010.06.03 17:01:31.
