data_PCOD9483693
_publ_section_title
;
Structure prediction by ZEFSAII (Michael W. Deem and Ramdas Pophale) SiO2 
 PCOD9483693
Probable space group: C M M M
;
_chemical_formula_sum "Si O2"
_cell_formula_units_Z 88
_cell_length_a 27.658102
_cell_length_b 8.676865
_cell_length_c 21.843803
_cell_angle_alpha 90.000000
_cell_angle_beta 90.000000
_cell_angle_gamma 90.000000
_cell_volume 5242.198545
_symmetry_space_group_name_H-M "C M M M"
_symmetry_group_IT_number 65
_symmetry_cell_setting 'orthorhombic'
loop_
_space_group_symop_operation_xyz
x,y,z
-x,-y,z
x,-y,-z
-x,y,-z
-x,-y,-z
x,y,-z
-x,y,z
x,-y,z
1/2+x,1/2+y,z
1/2-x,1/2-y,z
1/2+x,1/2-y,-z
1/2-x,1/2+y,-z
1/2-x,1/2-y,-z
1/2+x,1/2+y,-z
1/2-x,1/2+y,z
1/2+x,1/2-y,z
loop_
_atom_site_type_symbol
_atom_site_label
_atom_site_fract_x
_atom_site_fract_y
_atom_site_fract_z
Si Si1 0.198208 0.815456 0.125689
Si Si2 0.554966 0.183810 0.191508
Si Si3 0.695230 0.315824 0.500000
Si Si4 0.850926 0.815614 0.252356
Si Si5 0.403363 0.313776 0.069278
Si Si6 0.195642 0.316422 0.626770
O O1 0.250000 0.750000 0.108035
O O2 0.183324 0.768949 0.194974
O O3 0.152610 0.771485 0.083504
O O4 0.201126 0.000000 0.124657
O O5 0.500000 0.222896 0.208398
O O6 0.595314 0.268001 0.232047
O O7 0.565044 0.235442 0.121692
O O8 0.561412 0.000000 0.196470
O O9 0.696197 0.500000 0.500000
O O10 0.750000 0.250000 0.500000
O O11 0.674310 0.252981 0.436294
O O12 0.834233 0.734482 0.314121
O O13 0.847663 0.000000 0.259065
O O14 0.407052 0.500000 0.075888
O O15 0.416410 0.272813 0.000000
O O16 0.198436 0.500000 0.621714
O O17 0.250000 0.250000 0.634023
#
# Coordination Sequence:
#
# PCOD9483693 Si02
#       6
#    16  16   8  16  16  16
#     4   9  18  30  45  66  93 124 158 196 235 279
#     4  10  21  36  53  74  98 121 151 199 255 304
#     4  10  18  30  46  68 101 140 179 212 242 280
#     4  10  20  34  51  72  97 128 166 204 244 293
#     4   9  19  35  51  68  93 125 161 198 238 292
#     4  11  20  31  48  73 106 141 174 207 245 286
#
# _framework density 16.786850000000001
#
# number of rings (size 3 to 8) (size 9 to 14) (size 15 to 20)
#    0.000    2.182    0.000    6.273    0.000    7.636 
#    0.000    1.818    0.000    0.000    0.000    0.636 
#    0.000    5.091    0.000    0.000    0.000    0.000 
#
# Total GULP energy -245529.229570 kJ/mol
# GULP energy per Si atom -5580.209763 kJ/mol
# Density = 1.674864 g / cm^3
# Si number density = 16.786850 Si / 1000 Ang^3
#
#
#
# Elastic Constant Matrix: (Units=GPa)
#
#
# Indices 1 2 3 4 5 6 
#
# 1 49.4639 12.5207 5.8047 0.0000 0.0000 0.0000
# 2 12.5207 73.2345 30.2872 0.0000 0.0000 0.0000
# 3 5.8047 30.2872 92.7108 0.0000 0.0000 0.0000
# 4 0.0000 0.0000 0.0000 26.7587 0.0000 0.0000
# 5 0.0000 0.0000 0.0000 0.0000 7.8900 0.0000
# 6 0.0000 0.0000 0.0000 0.0000 0.0000 25.3352
#
#
#
# Elastic Compliance Matrix: (Units=1/GPa)
#
#
# Indices 1 2 3 4 5 6 
#
# 1 0.021133 -0.003545 -0.000165 0.000000 0.000000 0.000000
# 2 -0.003545 0.016382 -0.005130 0.000000 0.000000 0.000000
# 3 -0.000165 -0.005130 0.012472 0.000000 0.000000 0.000000
# 4 0.000000 0.000000 0.000000 0.037371 0.000000 0.000000
# 5 0.000000 0.000000 0.000000 0.000000 0.126742 0.000000
# 6 0.000000 0.000000 0.000000 0.000000 0.000000 0.039471
#
#
# Mechanical properties :
#
#
# Convention : Reuss Voigt Hill
#
# Bulk Modulus (GPa) = 30.95165 34.73715 32.84440
# Shear Modulus (GPa) = 17.72916 23.11657 20.42286
#
# Velocity S-wave (km/s) = 3.25335 3.71491 3.49176
# Velocity P-wave (km/s) = 5.70880 6.25609 5.98870
#
# Compressibility (1/GPa) = 0.03230846
#
# Stress axis : x y z
#
# Youngs Moduli (GPa) = 47.31838 61.04126 80.17678
#
# Poissons Ratio (x) = 0.21638 0.01324
# Poissons Ratio (y) = 0.16774 0.41130
# Poissons Ratio (z) = 0.00781 0.31314
#
# Static dielectric constant tensor:
#      x y z
#    x 1.553990 0.000000 0.000000 
#    y 0.000000 1.565090 0.000000 
#    z 0.000000 0.000000 1.580240 
# 
# From -- ./inp_files/65769.got.cif
#   From: 2010.05.17/outbox.cif.g08.bks.cpg/sg65_33_cif.got.tgz:65769.got - 2010.06.03 17:01:31.
