data_PCOD9483069
_publ_section_title
;
Structure prediction by ZEFSAII (Michael W. Deem and Ramdas Pophale) SiO2 
 PCOD9483069
Probable space group: C M M M
;
_chemical_formula_sum "Si O2"
_cell_formula_units_Z 104
_cell_length_a 30.667513
_cell_length_b 7.345049
_cell_length_c 24.056637
_cell_angle_alpha 90.000000
_cell_angle_beta 90.000000
_cell_angle_gamma 90.000000
_cell_volume 5418.862989
_symmetry_space_group_name_H-M "C M M M"
_symmetry_group_IT_number 65
_symmetry_cell_setting 'orthorhombic'
loop_
_space_group_symop_operation_xyz
x,y,z
-x,-y,z
x,-y,-z
-x,y,-z
-x,-y,-z
x,y,-z
-x,y,z
x,-y,z
1/2+x,1/2+y,z
1/2-x,1/2-y,z
1/2+x,1/2-y,-z
1/2-x,1/2+y,-z
1/2-x,1/2-y,-z
1/2+x,1/2+y,-z
1/2-x,1/2+y,z
1/2+x,1/2-y,z
loop_
_atom_site_type_symbol
_atom_site_label
_atom_site_fract_x
_atom_site_fract_y
_atom_site_fract_z
Si Si1 0.048850 0.778800 0.565059
Si Si2 0.545995 0.282233 0.933371
Si Si3 0.141328 0.222997 0.064036
Si Si4 0.142683 0.222906 0.393206
Si Si5 0.198483 0.782247 0.288558
Si Si6 0.199023 0.216761 0.834955
Si Si7 0.801885 0.217071 0.500000
O O1 0.053857 0.728265 0.500000
O O2 0.092384 0.720025 0.597562
O O3 0.000000 0.720355 0.583294
O O4 0.048678 0.000000 0.566715
O O5 0.500000 0.210256 0.910969
O O6 0.545719 0.500000 0.924364
O O7 0.593247 0.216524 0.916176
O O8 0.545543 0.255161 0.000000
O O9 0.174689 0.286171 0.110596
O O10 0.141432 0.000000 0.062409
O O11 0.149200 0.279957 0.000000
O O12 0.166689 0.284050 0.337034
O O13 0.172758 0.282122 0.445132
O O14 0.142482 0.000000 0.393072
O O15 0.250000 0.750000 0.299999
O O16 0.187556 0.712335 0.226635
O O17 0.193725 0.000000 0.287010
O O18 0.250000 0.250000 0.841536
O O19 0.191130 0.000000 0.833646
O O20 0.750000 0.250000 0.500000
O O21 0.806995 0.000000 0.500000
#
# Coordination Sequence:
#
# PCOD9483069 Si02
#       7
#    16  16  16  16  16  16   8
#     4   8  12  19  33  53  76 100 126 154 183 220
#     4   7   9  14  26  45  68  92 116 141 171 211
#     4   8  13  21  34  52  73  96 122 153 188 223
#     4   9  15  24  37  54  76 101 125 152 188 221
#     4   9  17  28  41  55  74 101 129 155 184 223
#     4   9  17  28  40  54  73  99 129 156 184 221
#     4  10  18  26  37  55  79 101 122 152 187 220
#
# _framework density 19.192216999999999
#
# number of rings (size 3 to 8) (size 9 to 14) (size 15 to 20)
#    0.000    3.538    0.769    2.308    0.000    0.308 
#    0.000    0.000    0.000    0.923    0.000    6.462 
#    0.000    3.692    0.000   11.538    0.000   11.077 
#
# Total GULP energy -289551.353036 kJ/mol
# GULP energy per Si atom -5568.295251 kJ/mol
# Density = 1.914853 g / cm^3
# Si number density = 19.192217 Si / 1000 Ang^3
#
#
#
# Elastic Constant Matrix: (Units=GPa)
#
#
# Indices 1 2 3 4 5 6 
#
# 1 168.1121 1.2911 120.7327 0.0000 0.0000 0.0000
# 2 1.2911 67.1753 6.8036 0.0000 0.0000 0.0000
# 3 120.7327 6.8036 147.4455 0.0000 0.0000 0.0000
# 4 0.0000 0.0000 0.0000 -5.9170 0.0000 0.0000
# 5 0.0000 0.0000 0.0000 0.0000 10.7193 0.0000
# 6 0.0000 0.0000 0.0000 0.0000 0.0000 -0.0527
#
#
#
# Elastic Compliance Matrix: (Units=1/GPa)
#
#
# Indices 1 2 3 4 5 6 
#
# 1 0.014497 0.000928 -0.011914 0.000000 0.000000 0.000000
# 2 0.000928 0.015016 -0.001453 0.000000 0.000000 0.000000
# 3 -0.011914 -0.001453 0.016604 0.000000 0.000000 0.000000
# 4 0.000000 0.000000 0.000000 -0.169005 0.000000 0.000000
# 5 0.000000 0.000000 0.000000 0.000000 0.093289 0.000000
# 6 0.000000 0.000000 0.000000 0.000000 0.000000-18.959312
#
#
# Mechanical properties :
#
#
# Convention : Reuss Voigt Hill
#
# Bulk Modulus (GPa) = 47.07945 71.15421 59.11683
# Shear Modulus (GPa) = -0.26376 17.87695 8.80660
#
# Velocity S-wave (km/s) = -0.37112 3.05531 2.14443
# Velocity P-wave (km/s) = 4.93965 7.04284 6.08283
#
# Compressibility (1/GPa) = 0.02124069
#
# Stress axis : x y z
#
# Youngs Moduli (GPa) = 68.97870 66.59683 60.22507
#
# Poissons Ratio (x) = -0.06180 0.71750
# Poissons Ratio (y) = -0.06401 0.08749
# Poissons Ratio (z) = 0.82178 0.09675
#
# Static dielectric constant tensor:
#      x y z
#    x 1.681320 0.000000 0.000000 
#    y 0.000000 1.833570 0.000000 
#    z 0.000000 0.000000 1.645400 
# 
# From -- ./inp_files/72192.got.cif
#   From: 2010.05.17/outbox.cif.g08.bks.cpg/sg65_37_cif.got.tgz:72192.got - 2010.06.03 17:01:31.
