data_PCOD9483546
_publ_section_title
;
Structure prediction by ZEFSAII (Michael W. Deem and Ramdas Pophale) SiO2 
 PCOD9483546
Probable space group: C M M M
;
_chemical_formula_sum "Si O2"
_cell_formula_units_Z 104
_cell_length_a 27.972770
_cell_length_b 23.486897
_cell_length_c 7.646465
_cell_angle_alpha 90.000000
_cell_angle_beta 90.000000
_cell_angle_gamma 90.000000
_cell_volume 5023.678321
_symmetry_space_group_name_H-M "C M M M"
_symmetry_group_IT_number 65
_symmetry_cell_setting 'orthorhombic'
loop_
_space_group_symop_operation_xyz
x,y,z
-x,-y,z
x,-y,-z
-x,y,-z
-x,-y,-z
x,y,-z
-x,y,z
x,-y,z
1/2+x,1/2+y,z
1/2-x,1/2-y,z
1/2+x,1/2-y,-z
1/2-x,1/2+y,-z
1/2-x,1/2-y,-z
1/2+x,1/2+y,-z
1/2-x,1/2+y,z
1/2+x,1/2-y,z
loop_
_atom_site_type_symbol
_atom_site_label
_atom_site_fract_x
_atom_site_fract_y
_atom_site_fract_z
Si Si1 0.054300 0.249445 0.710361
Si Si2 0.095405 0.127122 0.210731
Si Si3 0.500000 0.434651 0.786089
Si Si4 0.367602 0.168462 0.710416
Si Si5 0.696540 0.271729 0.300068
Si Si6 0.300078 0.064021 0.209790
Si Si7 0.803673 0.897876 0.197265
O O1 0.051502 0.251202 0.500000
O O2 0.086889 0.194235 0.752906
O O3 0.080487 0.308045 0.768327
O O4 0.000000 0.242595 0.778220
O O5 0.143462 0.096050 0.279325
O O6 0.047594 0.096758 0.274748
O O7 0.097896 0.122019 0.000000
O O8 0.500000 0.500000 0.734836
O O9 0.500000 0.432166 0.000000
O O10 0.367729 0.169979 0.500000
O O11 0.333125 0.219195 0.773197
O O12 0.342201 0.109111 0.754249
O O13 0.680118 0.284794 0.500000
O O14 0.750000 0.250000 0.312331
O O15 0.697517 0.329354 0.193073
O O16 0.246973 0.082374 0.277281
O O17 0.310821 0.000000 0.271212
O O18 0.295853 0.063128 0.000000
O O19 0.805204 0.921805 0.000000
#
# Coordination Sequence:
#
# PCOD9483546 Si02
#       7
#    16  16   8  16  16  16  16
#     4  10  20  34  54  80 108 135 164 210 272 324
#     4  10  19  31  50  77 105 136 176 219 259 302
#     4   9  18  32  49  69  97 137 182 221 252 289
#     4  10  20  34  54  79 104 134 172 212 260 318
#     4  10  18  29  47  73 102 130 162 203 249 298
#     4  10  22  38  53  73 105 143 179 215 257 307
#     4  10  20  31  48  75 105 136 170 210 254 300
#
# _framework density 20.701962999999999
#
# number of rings (size 3 to 8) (size 9 to 14) (size 15 to 20)
#    0.000    2.077    3.846    0.000    0.000    2.462 
#    0.000    3.077    0.000    1.385    0.000    5.385 
#    0.000    0.000    0.000    0.000    0.000    0.000 
#
# Total GULP energy -289788.807842 kJ/mol
# GULP energy per Si atom -5572.861689 kJ/mol
# Density = 2.065484 g / cm^3
# Si number density = 20.701963 Si / 1000 Ang^3
#
#
#
# Elastic Constant Matrix: (Units=GPa)
#
#
# Indices 1 2 3 4 5 6 
#
# 1 95.5258 38.8935 1.4416 0.0000 0.0000 0.0000
# 2 38.8935 118.4094 -2.6205 0.0000 0.0000 0.0000
# 3 1.4416 -2.6205 43.2654 0.0000 0.0000 0.0000
# 4 0.0000 0.0000 0.0000 30.1211 0.0000 0.0000
# 5 0.0000 0.0000 0.0000 0.0000 11.7743 0.0000
# 6 0.0000 0.0000 0.0000 0.0000 0.0000 17.9694
#
#
#
# Elastic Compliance Matrix: (Units=1/GPa)
#
#
# Indices 1 2 3 4 5 6 
#
# 1 0.012102 -0.003990 -0.000645 0.000000 0.000000 0.000000
# 2 -0.003990 0.009772 0.000725 0.000000 0.000000 0.000000
# 3 -0.000645 0.000725 0.023179 0.000000 0.000000 0.000000
# 4 0.000000 0.000000 0.000000 0.033199 0.000000 0.000000
# 5 0.000000 0.000000 0.000000 0.000000 0.084931 0.000000
# 6 0.000000 0.000000 0.000000 0.000000 0.000000 0.055650
#
#
# Mechanical properties :
#
#
# Convention : Reuss Voigt Hill
#
# Bulk Modulus (GPa) = 26.85757 36.95888 31.90822
# Shear Modulus (GPa) = 20.91496 26.60537 23.76017
#
# Velocity S-wave (km/s) = 3.18195 3.58880 3.39148
# Velocity P-wave (km/s) = 5.14795 5.92151 5.54823
#
# Compressibility (1/GPa) = 0.03723345
#
# Stress axis : x y z
#
# Youngs Moduli (GPa) = 82.62790 102.33595 43.14339
#
# Poissons Ratio (x) = 0.40827 0.02782
# Poissons Ratio (y) = 0.32965 -0.03127
# Poissons Ratio (z) = 0.05329 -0.07417
#
# Static dielectric constant tensor:
#      x y z
#    x 1.810770 0.000000 0.000000 
#    y 0.000000 1.723440 0.000000 
#    z 0.000000 0.000000 1.811860 
# 
# From -- ./inp_files/18892.got.cif
#   From: 2010.05.17/outbox.cif.g08.bks.cpg/sg65_10_cif.got.tgz:18892.got - 2010.06.03 17:01:31.
