data_PCOD9483120
_publ_section_title
;
Structure prediction by ZEFSAII (Michael W. Deem and Ramdas Pophale) SiO2 
 PCOD9483120
Probable space group: C M M M
;
_chemical_formula_sum "Si O2"
_cell_formula_units_Z 88
_cell_length_a 27.136641
_cell_length_b 33.385326
_cell_length_c 7.824923
_cell_angle_alpha 90.000000
_cell_angle_beta 90.000000
_cell_angle_gamma 90.000000
_cell_volume 7089.111110
_symmetry_space_group_name_H-M "C M M M"
_symmetry_group_IT_number 65
_symmetry_cell_setting 'orthorhombic'
loop_
_space_group_symop_operation_xyz
x,y,z
-x,-y,z
x,-y,-z
-x,y,-z
-x,-y,-z
x,y,-z
-x,y,z
x,-y,z
1/2+x,1/2+y,z
1/2-x,1/2-y,z
1/2+x,1/2-y,-z
1/2-x,1/2+y,-z
1/2-x,1/2-y,-z
1/2+x,1/2+y,-z
1/2-x,1/2+y,z
1/2+x,1/2-y,z
loop_
_atom_site_type_symbol
_atom_site_label
_atom_site_fract_x
_atom_site_fract_y
_atom_site_fract_z
Si Si1 0.668832 0.346719 0.796861
Si Si2 0.889854 0.236122 0.194106
Si Si3 0.000000 0.774189 0.301917
Si Si4 0.733292 0.315020 0.500000
Si Si5 0.095798 0.085737 0.795429
Si Si6 0.671240 0.232314 0.500000
Si Si7 0.943226 0.000000 0.702342
Si Si8 0.000000 0.134149 0.208970
O O1 0.629283 0.309923 0.777922
O O2 0.713712 0.336879 0.670610
O O3 0.642896 0.388224 0.741401
O O4 0.681235 0.348078 0.000000
O O5 0.862466 0.263415 0.332540
O O6 0.948531 0.238773 0.218039
O O7 0.876353 0.246393 0.000000
O O8 0.000000 0.822128 0.285848
O O9 0.000000 0.762274 0.500000
O O10 0.704547 0.272529 0.500000
O O11 0.790925 0.304503 0.500000
O O12 0.086865 0.039727 0.750897
O O13 0.047699 0.109664 0.735383
O O14 0.096010 0.088369 0.000000
O O15 0.948179 0.000000 0.500000
O O16 0.000000 0.000000 0.774498
O O17 0.000000 0.137746 0.000000
#
# Coordination Sequence:
#
# PCOD9483120 Si02
#       8
#    16  16   8   8  16   8   8   8
#     4   9  18  29  44  62  73  95 129 159 198 239
#     4  10  18  29  42  58  82 102 124 156 187 228
#     4  12  20  26  39  60  83 104 130 157 190 233
#     4   9  18  30  46  55  79  94 114 161 196 238
#     4  10  19  31  43  54  72  97 130 162 196 243
#     4   9  18  31  40  62  74  97 126 143 195 244
#     4  11  23  31  37  55  77  99 129 159 201 251
#     4  10  18  27  41  56  69  97 131 160 193 233
#
# _framework density 12.413403000000001
#
# number of rings (size 3 to 8) (size 9 to 14) (size 15 to 20)
#    0.000    2.091    3.636    1.091    1.273    1.818 
#    0.000    3.636    0.000    0.000    0.000    0.000 
#    0.000    0.000    0.000    0.000    0.000    0.000 
#
# Total GULP energy -245151.240723 kJ/mol
# GULP energy per Si atom -5571.619107 kJ/mol
# Density = 1.238515 g / cm^3
# Si number density = 12.413403 Si / 1000 Ang^3
#
#
#
# Elastic Constant Matrix: (Units=GPa)
#
#
# Indices 1 2 3 4 5 6 
#
# 1 74.2834 42.7116 36.3446 0.0000 0.0000 0.0000
# 2 42.7116 51.8690 26.3991 0.0000 0.0000 0.0000
# 3 36.3446 26.3991 62.8379 0.0000 0.0000 0.0000
# 4 0.0000 0.0000 0.0000 14.6641 0.0000 0.0000
# 5 0.0000 0.0000 0.0000 0.0000 8.9058 0.0000
# 6 0.0000 0.0000 0.0000 0.0000 0.0000 23.6078
#
#
#
# Elastic Compliance Matrix: (Units=1/GPa)
#
#
# Indices 1 2 3 4 5 6 
#
# 1 0.028741 -0.019342 -0.008497 0.000000 0.000000 0.000000
# 2 -0.019342 0.037539 -0.004584 0.000000 0.000000 0.000000
# 3 -0.008497 -0.004584 0.022755 0.000000 0.000000 0.000000
# 4 0.000000 0.000000 0.000000 0.068194 0.000000 0.000000
# 5 0.000000 0.000000 0.000000 0.000000 0.112286 0.000000
# 6 0.000000 0.000000 0.000000 0.000000 0.000000 0.042359
#
#
# Mechanical properties :
#
#
# Convention : Reuss Voigt Hill
#
# Bulk Modulus (GPa) = 41.34202 44.43342 42.88772
# Shear Modulus (GPa) = 12.99440 15.00455 13.99947
#
# Velocity S-wave (km/s) = 3.23894 3.48046 3.36187
# Velocity P-wave (km/s) = 6.88217 7.21276 7.04941
#
# Compressibility (1/GPa) = 0.02418847
#
# Stress axis : x y z
#
# Youngs Moduli (GPa) = 34.79398 26.63884 43.94728
#
# Poissons Ratio (x) = 0.51524 0.37344
# Poissons Ratio (y) = 0.67297 0.20145
# Poissons Ratio (z) = 0.29566 0.12211
#
# Static dielectric constant tensor:
#      x y z
#    x 1.401370 0.000000 0.000000 
#    y 0.000000 1.405430 0.000000 
#    z 0.000000 0.000000 1.434880 
# 
# From -- ./inp_files/15027.got.cif
#   From: 2010.05.17/outbox.cif.g08.bks.cpg/sg65_8_cif.got.tgz:15027.got - 2010.06.03 17:01:31.
