data_PCOD9483030
_publ_section_title
;
Structure prediction by ZEFSAII (Michael W. Deem and Ramdas Pophale) SiO2 
 PCOD9483030
Probable space group: C M M M
;
_chemical_formula_sum "Si O2"
_cell_formula_units_Z 76
_cell_length_a 18.668797
_cell_length_b 13.412471
_cell_length_c 19.181577
_cell_angle_alpha 90.000000
_cell_angle_beta 90.000000
_cell_angle_gamma 90.000000
_cell_volume 4802.965187
_symmetry_space_group_name_H-M "C M M M"
_symmetry_group_IT_number 65
_symmetry_cell_setting 'orthorhombic'
loop_
_space_group_symop_operation_xyz
x,y,z
-x,-y,z
x,-y,-z
-x,y,-z
-x,-y,-z
x,y,-z
-x,y,z
x,-y,z
1/2+x,1/2+y,z
1/2-x,1/2-y,z
1/2+x,1/2-y,-z
1/2-x,1/2+y,-z
1/2-x,1/2-y,-z
1/2+x,1/2+y,-z
1/2-x,1/2+y,z
1/2+x,1/2-y,z
loop_
_atom_site_type_symbol
_atom_site_label
_atom_site_fract_x
_atom_site_fract_y
_atom_site_fract_z
Si Si1 0.000000 0.388985 0.759538
Si Si2 0.083195 0.378683 0.000000
Si Si3 0.856683 0.616147 0.148447
Si Si4 0.500000 0.319930 0.500000
Si Si5 0.250000 0.750000 0.761947
Si Si6 0.500000 0.708100 0.653287
Si Si7 0.842922 0.119780 0.344893
Si Si8 0.340747 0.386497 0.500000
O O1 0.069523 0.380746 0.808121
O O2 0.000000 0.302903 0.702886
O O3 0.000000 0.500000 0.727696
O O4 0.124077 0.348983 0.070352
O O5 0.080729 0.500000 0.000000
O O6 0.000000 0.345265 0.000000
O O7 0.833599 0.500000 0.145524
O O8 0.800127 0.682898 0.189051
O O9 0.500000 0.260233 0.571950
O O10 0.427654 0.384112 0.500000
O O11 0.202674 0.821311 0.712186
O O12 0.572868 0.645752 0.664384
O O13 0.821243 0.154934 0.423756
O O14 0.833391 0.000000 0.340644
O O15 0.315168 0.500000 0.500000
#
# Coordination Sequence:
#
# PCOD9483030 Si02
#       8
#     8   8  16   4   8   8  16   8
#     4  10  18  32  54  76  99 128 168 213 250 285
#     4   9  16  31  56  78  95 123 167 209 243 283
#     4  10  20  34  53  77 102 129 165 207 246 292
#     4   8  15  24  49  72  94 120 166 218 254 282
#     4  12  22  32  48  74 112 136 158 194 254 316
#     4  10  17  34  52  75  96 129 171 215 253 293
#     4  10  20  33  51  73  98 132 171 213 252 295
#     4   8  15  29  47  68  93 124 170 216 251 283
#
# _framework density 15.823558
#
# number of rings (size 3 to 8) (size 9 to 14) (size 15 to 20)
#    0.000    2.211    3.158    1.105    0.000    3.368 
#    0.000    0.263    0.000    0.000    0.000    0.000 
#    0.000    3.368    0.000    0.000    0.000    0.000 
#
# Total GULP energy -211634.422591 kJ/mol
# GULP energy per Si atom -5569.326910 kJ/mol
# Density = 1.578754 g / cm^3
# Si number density = 15.823558 Si / 1000 Ang^3
#
#
#
# Elastic Constant Matrix: (Units=GPa)
#
#
# Indices 1 2 3 4 5 6 
#
# 1 93.8969 43.2133 64.0055 0.0000 0.0000 0.0000
# 2 43.2133 76.8717 67.1196 0.0000 0.0000 0.0000
# 3 64.0055 67.1196 152.7386 0.0000 0.0000 0.0000
# 4 0.0000 0.0000 0.0000 17.9066 0.0000 0.0000
# 5 0.0000 0.0000 0.0000 0.0000 5.1395 0.0000
# 6 0.0000 0.0000 0.0000 0.0000 0.0000 11.8928
#
#
#
# Elastic Compliance Matrix: (Units=1/GPa)
#
#
# Indices 1 2 3 4 5 6 
#
# 1 0.016059 -0.005114 -0.004482 0.000000 0.000000 0.000000
# 2 -0.005114 0.022736 -0.007848 0.000000 0.000000 0.000000
# 3 -0.004482 -0.007848 0.011874 0.000000 0.000000 0.000000
# 4 0.000000 0.000000 0.000000 0.055845 0.000000 0.000000
# 5 0.000000 0.000000 0.000000 0.000000 0.194572 0.000000
# 6 0.000000 0.000000 0.000000 0.000000 0.000000 0.084084
#
#
# Mechanical properties :
#
#
# Convention : Reuss Voigt Hill
#
# Bulk Modulus (GPa) = 63.36915 74.68710 69.02813
# Shear Modulus (GPa) = 11.75588 16.93237 14.34412
#
# Velocity S-wave (km/s) = 2.72864 3.27475 3.01409
# Velocity P-wave (km/s) = 7.07542 7.84863 7.47204
#
# Compressibility (1/GPa) = 0.01578055
#
# Stress axis : x y z
#
# Youngs Moduli (GPa) = 62.27102 43.98327 84.21589
#
# Poissons Ratio (x) = 0.22492 0.37748
# Poissons Ratio (y) = 0.31844 0.66094
# Poissons Ratio (z) = 0.27912 0.34519
#
# Static dielectric constant tensor:
#      x y z
#    x 1.517710 0.000000 0.000000 
#    y 0.000000 1.507120 0.000000 
#    z 0.000000 0.000000 1.540670 
# 
# From -- ./inp_files/54276.got.cif
#   From: 2010.05.17/outbox.cif.g08.bks.cpg/sg65_28_cif.got.tgz:54276.got - 2010.06.03 17:01:31.
