data_PCOD9483959
_publ_section_title
;
Structure prediction by ZEFSAII (Michael W. Deem and Ramdas Pophale) SiO2 
 PCOD9483959
Probable space group: C M M M
;
_chemical_formula_sum "Si O2"
_cell_formula_units_Z 104
_cell_length_a 26.812746
_cell_length_b 10.572470
_cell_length_c 21.105386
_cell_angle_alpha 90.000000
_cell_angle_beta 90.000000
_cell_angle_gamma 90.000000
_cell_volume 5982.890509
_symmetry_space_group_name_H-M "C M M M"
_symmetry_group_IT_number 65
_symmetry_cell_setting 'orthorhombic'
loop_
_space_group_symop_operation_xyz
x,y,z
-x,-y,z
x,-y,-z
-x,y,-z
-x,-y,-z
x,y,-z
-x,y,z
x,-y,z
1/2+x,1/2+y,z
1/2-x,1/2-y,z
1/2+x,1/2-y,-z
1/2-x,1/2+y,-z
1/2-x,1/2-y,-z
1/2+x,1/2+y,-z
1/2-x,1/2+y,z
1/2+x,1/2-y,z
loop_
_atom_site_type_symbol
_atom_site_label
_atom_site_fract_x
_atom_site_fract_y
_atom_site_fract_z
Si Si1 0.368113 0.642187 0.431225
Si Si2 0.707246 0.353587 0.168763
Si Si3 0.095645 0.849630 0.157699
Si Si4 0.058291 0.640327 0.401972
Si Si5 0.058958 0.359147 0.249904
Si Si6 0.789775 0.142775 0.680769
Si Si7 0.000000 0.847432 0.928415
O O1 0.341402 0.650938 0.500000
O O2 0.389197 0.500000 0.427310
O O3 0.409956 0.747619 0.429679
O O4 0.333682 0.658218 0.369804
O O5 0.722830 0.500000 0.156266
O O6 0.750000 0.250000 0.154040
O O7 0.653188 0.331870 0.136529
O O8 0.696763 0.345547 0.244825
O O9 0.086143 0.756165 0.216276
O O10 0.051267 0.816007 0.108544
O O11 0.090555 0.000000 0.173458
O O12 0.075274 0.500000 0.421444
O O13 0.063107 0.647359 0.325637
O O14 0.000000 0.651442 0.417379
O O15 0.076642 0.500000 0.229982
O O16 0.000000 0.350890 0.234920
O O17 0.750000 0.250000 0.667220
O O18 0.769671 0.000000 0.672599
O O19 0.000000 0.000000 0.931661
O O20 0.000000 0.797055 0.000000
#
# Coordination Sequence:
#
# PCOD9483959 Si02
#       7
#    16  16  16  16  16  16   8
#     4  10  21  35  49  67  92 122 159 205 253 299
#     4   9  18  31  49  74 101 129 165 208 258 309
#     4  10  18  30  51  77 104 137 176 213 247 295
#     4   9  19  34  49  67  93 125 160 200 246 300
#     4   9  17  29  46  71 101 128 158 201 257 310
#     4   9  18  33  50  69  95 122 153 198 250 302
#     4   9  18  32  51  79 113 145 178 215 250 283
#
# _framework density 17.382902000000001
#
# number of rings (size 3 to 8) (size 9 to 14) (size 15 to 20)
#    0.000    2.692    0.769    1.846    0.000    4.308 
#    0.000    6.154    0.000    1.385    0.000    0.000 
#    0.000    0.000    0.000    0.000    0.000    0.000 
#
# Total GULP energy -289536.463412 kJ/mol
# GULP energy per Si atom -5568.008912 kJ/mol
# Density = 1.734334 g / cm^3
# Si number density = 17.382902 Si / 1000 Ang^3
#
#
#
# Elastic Constant Matrix: (Units=GPa)
#
#
# Indices 1 2 3 4 5 6 
#
# 1 92.8365 74.3937 31.6220 0.0000 0.0000 0.0000
# 2 74.3937 104.8619 30.5839 0.0000 0.0000 0.0000
# 3 31.6220 30.5839 38.4816 0.0000 0.0000 0.0000
# 4 0.0000 0.0000 0.0000 -21.2447 0.0000 0.0000
# 5 0.0000 0.0000 0.0000 0.0000 6.4277 0.0000
# 6 0.0000 0.0000 0.0000 0.0000 0.0000 31.8168
#
#
#
# Elastic Compliance Matrix: (Units=1/GPa)
#
#
# Indices 1 2 3 4 5 6 
#
# 1 0.027228 -0.016651 -0.009141 0.000000 0.000000 0.000000
# 2 -0.016651 0.022596 -0.004276 0.000000 0.000000 0.000000
# 3 -0.009141 -0.004276 0.036897 0.000000 0.000000 0.000000
# 4 0.000000 0.000000 0.000000 -0.047071 0.000000 0.000000
# 5 0.000000 0.000000 0.000000 0.000000 0.155577 0.000000
# 6 0.000000 0.000000 0.000000 0.000000 0.000000 0.031430
#
#
# Mechanical properties :
#
#
# Convention : Reuss Voigt Hill
#
# Bulk Modulus (GPa) = 37.61508 56.59769 47.10639
# Shear Modulus (GPa) = 16.91159 10.03865 13.47512
#
# Velocity S-wave (km/s) = 3.12250 2.40573 2.78725
# Velocity P-wave (km/s) = 5.88949 6.35192 6.12507
#
# Compressibility (1/GPa) = 0.02658508
#
# Stress axis : x y z
#
# Youngs Moduli (GPa) = 36.72647 44.25491 27.10276
#
# Poissons Ratio (x) = 0.73688 0.24775
# Poissons Ratio (y) = 0.61153 0.11589
# Poissons Ratio (z) = 0.33572 0.18924
#
# Static dielectric constant tensor:
#      x y z
#    x 1.589270 0.000000 0.000000 
#    y 0.000000 1.588670 0.000000 
#    z 0.000000 0.000000 1.605480 
# 
# From -- ./inp_files/65882.got.cif
#   From: 2010.05.17/outbox.cif.g08.bks.cpg/sg65_33_cif.got.tgz:65882.got - 2010.06.03 17:01:31.
