data_PCOD9483722
_publ_section_title
;
Structure prediction by ZEFSAII (Michael W. Deem and Ramdas Pophale) SiO2 
 PCOD9483722
Probable space group: C M M M
;
_chemical_formula_sum "Si O2"
_cell_formula_units_Z 120
_cell_length_a 23.424452
_cell_length_b 15.513916
_cell_length_c 20.629253
_cell_angle_alpha 90.000000
_cell_angle_beta 90.000000
_cell_angle_gamma 90.000000
_cell_volume 7496.773288
_symmetry_space_group_name_H-M "C M M M"
_symmetry_group_IT_number 65
_symmetry_cell_setting 'orthorhombic'
loop_
_space_group_symop_operation_xyz
x,y,z
-x,-y,z
x,-y,-z
-x,y,-z
-x,-y,-z
x,y,-z
-x,y,z
x,-y,z
1/2+x,1/2+y,z
1/2-x,1/2-y,z
1/2+x,1/2-y,-z
1/2-x,1/2+y,-z
1/2-x,1/2-y,-z
1/2+x,1/2+y,-z
1/2-x,1/2+y,z
1/2+x,1/2-y,z
loop_
_atom_site_type_symbol
_atom_site_label
_atom_site_fract_x
_atom_site_fract_y
_atom_site_fract_z
Si Si1 0.436911 0.100583 0.756631
Si Si2 0.432161 0.898985 0.500000
Si Si3 0.164245 0.398223 0.851956
Si Si4 0.122175 0.655219 0.369489
Si Si5 0.182027 0.234243 0.928272
Si Si6 0.693184 0.305512 0.316281
Si Si7 0.297971 0.398799 0.816670
Si Si8 0.757850 0.600285 0.425919
O O1 0.500000 0.140116 0.766523
O O2 0.383564 0.129657 0.800060
O O3 0.416896 0.107941 0.682703
O O4 0.441807 0.000000 0.772324
O O5 0.500000 0.903628 0.500000
O O6 0.410531 0.848412 0.437128
O O7 0.410408 0.000000 0.500000
O O8 0.157536 0.500000 0.869196
O O9 0.158424 0.328196 0.908691
O O10 0.228589 0.389993 0.823258
O O11 0.140831 0.744256 0.335501
O O12 0.182715 0.611622 0.387493
O O13 0.250000 0.250000 0.931291
O O14 0.174947 0.162931 0.871882
O O15 0.162596 0.206915 0.000000
O O16 0.750000 0.250000 0.298947
O O17 0.683975 0.366489 0.254596
O O18 0.710983 0.352944 0.382553
O O19 0.310914 0.500000 0.826007
O O20 0.763152 0.633478 0.500000
O O21 0.744657 0.500000 0.429153
#
# Coordination Sequence:
#
# PCOD9483722 Si02
#       8
#    16   8  16  16  16  16  16  16
#     4  10  19  30  45  65  89 121 165 208 238 269
#     4  11  22  34  47  64  89 121 158 197 236 284
#     4   9  17  29  47  69  98 134 165 193 234 283
#     4  11  20  30  46  63  90 124 157 194 239 286
#     4   9  17  29  46  70 101 131 163 196 229 282
#     4  10  20  29  45  65  92 123 157 196 238 288
#     4  10  18  30  47  69  99 130 163 196 235 287
#     4  10  19  30  45  65  93 124 157 192 233 291
#
# _framework density 16.006886999999999
#
# number of rings (size 3 to 8) (size 9 to 14) (size 15 to 20)
#    0.000    2.067    0.667    5.600    0.933    3.467 
#    0.000    2.667    0.000    0.400    0.000    1.867 
#    0.000   27.200    0.000    4.800    0.000    2.933 
#
# Total GULP energy -334067.840741 kJ/mol
# GULP energy per Si atom -5567.797346 kJ/mol
# Density = 1.597046 g / cm^3
# Si number density = 16.006887 Si / 1000 Ang^3
#
#
#
# Elastic Constant Matrix: (Units=GPa)
#
#
# Indices 1 2 3 4 5 6 
#
# 1 40.4678 17.7231 22.1603 0.0000 0.0000 0.0000
# 2 17.7231 76.0749 41.6988 0.0000 0.0000 0.0000
# 3 22.1603 41.6988 93.2799 0.0000 0.0000 0.0000
# 4 0.0000 0.0000 0.0000 26.5882 0.0000 0.0000
# 5 0.0000 0.0000 0.0000 0.0000 -20.2518 0.0000
# 6 0.0000 0.0000 0.0000 0.0000 0.0000 12.6425
#
#
#
# Elastic Compliance Matrix: (Units=1/GPa)
#
#
# Indices 1 2 3 4 5 6 
#
# 1 0.029292 -0.003987 -0.005177 0.000000 0.000000 0.000000
# 2 -0.003987 0.017954 -0.007079 0.000000 0.000000 0.000000
# 3 -0.005177 -0.007079 0.015115 0.000000 0.000000 0.000000
# 4 0.000000 0.000000 0.000000 0.037611 0.000000 0.000000
# 5 0.000000 0.000000 0.000000 0.000000 -0.049378 0.000000
# 6 0.000000 0.000000 0.000000 0.000000 0.000000 0.079098
#
#
# Mechanical properties :
#
#
# Convention : Reuss Voigt Hill
#
# Bulk Modulus (GPa) = 33.47159 41.44299 37.45729
# Shear Modulus (GPa) = 29.04722 12.34513 20.69618
#
# Velocity S-wave (km/s) = 4.26452 2.78013 3.59967
# Velocity P-wave (km/s) = 6.72341 6.02100 6.38188
#
# Compressibility (1/GPa) = 0.02987609
#
# Stress axis : x y z
#
# Youngs Moduli (GPa) = 34.13940 55.69862 66.16106
#
# Poissons Ratio (x) = 0.22205 0.34249
# Poissons Ratio (y) = 0.13610 0.46834
# Poissons Ratio (z) = 0.17673 0.39428
#
# Static dielectric constant tensor:
#      x y z
#    x 1.539230 0.000000 0.000000 
#    y 0.000000 1.565060 0.000000 
#    z 0.000000 0.000000 1.565720 
# 
# From -- ./inp_files/65575.got.cif
#   From: 2010.05.17/outbox.cif.g08.bks.cpg/sg65_33_cif.got.tgz:65575.got - 2010.06.03 17:01:31.
