data_PCOD9483935
_publ_section_title
;
Structure prediction by ZEFSAII (Michael W. Deem and Ramdas Pophale) SiO2 
 PCOD9483935
Probable space group: C M M M
;
_chemical_formula_sum "Si O2"
_cell_formula_units_Z 88
_cell_length_a 8.029033
_cell_length_b 19.088571
_cell_length_c 29.879138
_cell_angle_alpha 90.000000
_cell_angle_beta 90.000000
_cell_angle_gamma 90.000000
_cell_volume 4579.359350
_symmetry_space_group_name_H-M "C M M M"
_symmetry_group_IT_number 65
_symmetry_cell_setting 'orthorhombic'
loop_
_space_group_symop_operation_xyz
x,y,z
-x,-y,z
x,-y,-z
-x,y,-z
-x,-y,-z
x,y,-z
-x,y,z
x,-y,z
1/2+x,1/2+y,z
1/2-x,1/2-y,z
1/2+x,1/2-y,-z
1/2-x,1/2+y,-z
1/2-x,1/2-y,-z
1/2+x,1/2+y,-z
1/2-x,1/2+y,z
1/2+x,1/2-y,z
loop_
_atom_site_type_symbol
_atom_site_label
_atom_site_fract_x
_atom_site_fract_y
_atom_site_fract_z
Si Si1 0.301479 0.831669 0.181791
Si Si2 0.802695 0.168604 0.914891
Si Si3 0.299036 0.830205 0.449741
Si Si4 0.295329 0.419056 0.000000
Si Si5 0.204165 0.580603 0.634939
Si Si6 0.701270 0.168591 0.720521
O O1 0.500000 0.836066 0.181460
O O2 0.250000 0.750000 0.181258
O O3 0.241304 0.860560 0.134353
O O4 0.240778 0.857815 0.230355
O O5 0.750000 0.250000 0.918425
O O6 0.736922 0.122276 0.955809
O O7 0.000000 0.168574 0.918146
O O8 0.239315 0.848021 0.500000
O O9 0.500000 0.833785 0.450352
O O10 0.250000 0.750000 0.440441
O O11 0.239780 0.880469 0.410214
O O12 0.244254 0.500000 0.000000
O O13 0.500000 0.418349 0.000000
O O14 0.255934 0.500000 0.636080
O O15 0.260611 0.622964 0.678771
O O16 0.000000 0.581737 0.634981
O O17 0.500000 0.165807 0.720672
O O18 0.750000 0.250000 0.715375
#
# Coordination Sequence:
#
# PCOD9483935 Si02
#       6
#    16  16  16   8  16  16
#     4   9  16  27  44  68  94 116 146 186 225 266
#     4  10  18  30  51  73  93 118 149 187 226 265
#     4   9  17  29  47  70  92 116 149 189 230 270
#     4   9  19  34  49  67  92 123 156 184 216 265
#     4   9  17  29  45  66  92 121 153 187 224 268
#     4   9  17  29  47  68  89 118 152 186 224 265
#
# _framework density 19.216663
#
# number of rings (size 3 to 8) (size 9 to 14) (size 15 to 20)
#    0.000    2.818    0.000    3.000    0.000    1.091 
#    0.000    4.091    0.000    7.636    0.000    2.545 
#    0.000    0.000    0.000    0.000    0.000    0.000 
#
# Total GULP energy -245225.825633 kJ/mol
# GULP energy per Si atom -5573.314219 kJ/mol
# Density = 1.917292 g / cm^3
# Si number density = 19.216663 Si / 1000 Ang^3
#
#
#
# Elastic Constant Matrix: (Units=GPa)
#
#
# Indices 1 2 3 4 5 6 
#
# 1 16.1280 5.4836 15.0002 0.0000 0.0000 0.0000
# 2 5.4836 102.5984 117.5365 0.0000 0.0000 0.0000
# 3 15.0002 117.5365 233.9268 0.0000 0.0000 0.0000
# 4 0.0000 0.0000 0.0000 -3.3943 0.0000 0.0000
# 5 0.0000 0.0000 0.0000 0.0000 24.5838 0.0000
# 6 0.0000 0.0000 0.0000 0.0000 0.0000 12.7934
#
#
#
# Elastic Compliance Matrix: (Units=1/GPa)
#
#
# Indices 1 2 3 4 5 6 
#
# 1 0.066360 0.003129 -0.005828 0.000000 0.000000 0.000000
# 2 0.003129 0.023114 -0.011814 0.000000 0.000000 0.000000
# 3 -0.005828 -0.011814 0.010585 0.000000 0.000000 0.000000
# 4 0.000000 0.000000 0.000000 -0.294611 0.000000 0.000000
# 5 0.000000 0.000000 0.000000 0.000000 0.040677 0.000000
# 6 0.000000 0.000000 0.000000 0.000000 0.000000 0.078165
#
#
# Mechanical properties :
#
#
# Convention : Reuss Voigt Hill
#
# Bulk Modulus (GPa) = 14.07787 69.85486 41.96636
# Shear Modulus (GPa) = -217.31968 21.10544 -98.10712
#
# Velocity S-wave (km/s) = -10.64588 3.31764 -7.15290
# Velocity P-wave (km/s) = 11.99046 7.14883 6.80681
#
# Compressibility (1/GPa) = 0.07103347
#
# Stress axis : x y z
#
# Youngs Moduli (GPa) = 15.06932 43.26414 94.47713
#
# Poissons Ratio (x) = -0.13539 0.55057
# Poissons Ratio (y) = -0.04716 1.11617
# Poissons Ratio (z) = 0.08782 0.51113
#
# Static dielectric constant tensor:
#      x y z
#    x 1.668900 0.000000 0.000000 
#    y 0.000000 1.623100 0.000000 
#    z 0.000000 0.000000 1.722450 
# 
# From -- ./inp_files/76637.got.cif
#   From: 2010.05.17/outbox.cif.g08.bks.cpg/sg65_39_cif.got.tgz:76637.got - 2010.06.03 17:01:31.
