data_PCOD9483201
_publ_section_title
;
Structure prediction by ZEFSAII (Michael W. Deem and Ramdas Pophale) SiO2 
 PCOD9483201
Probable space group: C M M M
;
_chemical_formula_sum "Si O2"
_cell_formula_units_Z 80
_cell_length_a 7.337969
_cell_length_b 28.063358
_cell_length_c 19.358836
_cell_angle_alpha 90.000000
_cell_angle_beta 90.000000
_cell_angle_gamma 90.000000
_cell_volume 3986.527368
_symmetry_space_group_name_H-M "C M M M"
_symmetry_group_IT_number 65
_symmetry_cell_setting 'orthorhombic'
loop_
_space_group_symop_operation_xyz
x,y,z
-x,-y,z
x,-y,-z
-x,y,-z
-x,-y,-z
x,y,-z
-x,y,z
x,-y,z
1/2+x,1/2+y,z
1/2-x,1/2-y,z
1/2+x,1/2-y,-z
1/2-x,1/2+y,-z
1/2-x,1/2-y,-z
1/2+x,1/2+y,-z
1/2-x,1/2+y,z
1/2+x,1/2-y,z
loop_
_atom_site_type_symbol
_atom_site_label
_atom_site_fract_x
_atom_site_fract_y
_atom_site_fract_z
Si Si1 0.722648 0.944860 0.000000
Si Si2 0.777952 0.398943 0.143193
Si Si3 0.782491 0.306400 0.500000
Si Si4 0.716675 0.195613 0.214287
Si Si5 0.778393 0.553272 0.286461
Si Si6 0.722533 0.849913 0.356241
O O1 0.783190 0.918888 0.069935
O O2 0.500000 0.944251 0.000000
O O3 0.777458 0.000000 0.000000
O O4 0.717506 0.345379 0.162265
O O5 0.725294 0.431539 0.208668
O O6 0.000000 0.399423 0.141497
O O7 0.750000 0.250000 0.500000
O O8 0.713306 0.330231 0.570540
O O9 0.000000 0.313388 0.500000
O O10 0.500000 0.189554 0.217000
O O11 0.750000 0.250000 0.195296
O O12 0.782544 0.182853 0.291623
O O13 0.716800 0.500000 0.303350
O O14 0.722594 0.596145 0.337034
O O15 0.000000 0.552947 0.287308
O O16 0.500000 0.849092 0.357195
#
# Coordination Sequence:
#
# PCOD9483201 Si02
#       6
#     8  16   8  16  16  16
#     4   9  14  20  33  54  79 103 125 153 192 233
#     4   8  14  22  33  52  77 102 127 157 191 225
#     4  10  18  28  41  57  79 103 128 160 195 226
#     4   9  16  27  41  56  77 104 131 158 190 225
#     4   8  12  20  34  51  74 103 128 150 186 235
#     4   8  15  25  37  55  78 102 127 158 193 226
#
# _framework density 20.067591
#
# number of rings (size 3 to 8) (size 9 to 14) (size 15 to 20)
#    0.000    3.500    0.000    3.600    0.000    2.400 
#    0.000    1.000    0.000    3.000    0.000    0.000 
#    0.000   28.800    0.000    0.000    0.000    0.000 
#
# Total GULP energy -223098.846375 kJ/mol
# GULP energy per Si atom -5577.471159 kJ/mol
# Density = 2.002192 g / cm^3
# Si number density = 20.067591 Si / 1000 Ang^3
#
#
#
# Elastic Constant Matrix: (Units=GPa)
#
#
# Indices 1 2 3 4 5 6 
#
# 1 75.1582 -0.3879 7.6013 0.0000 0.0000 0.0000
# 2 -0.3879 195.1603 114.6496 0.0000 0.0000 0.0000
# 3 7.6013 114.6496 183.9940 0.0000 0.0000 0.0000
# 4 0.0000 0.0000 0.0000 19.8405 0.0000 0.0000
# 5 0.0000 0.0000 0.0000 0.0000 -26.2375 0.0000
# 6 0.0000 0.0000 0.0000 0.0000 0.0000 8.9671
#
#
#
# Elastic Compliance Matrix: (Units=1/GPa)
#
#
# Indices 1 2 3 4 5 6 
#
# 1 0.013399 0.000555 -0.000899 0.000000 0.000000 0.000000
# 2 0.000555 0.008106 -0.005074 0.000000 0.000000 0.000000
# 3 -0.000899 -0.005074 0.008634 0.000000 0.000000 0.000000
# 4 0.000000 0.000000 0.000000 0.050402 0.000000 0.000000
# 5 0.000000 0.000000 0.000000 0.000000 -0.038113 0.000000
# 6 0.000000 0.000000 0.000000 0.000000 0.000000 0.111519
#
#
# Mechanical properties :
#
#
# Convention : Reuss Voigt Hill
#
# Bulk Modulus (GPa) = 51.80755 77.55982 64.68369
# Shear Modulus (GPa) = 29.20284 22.67732 25.94008
#
# Velocity S-wave (km/s) = 3.81888 3.36526 3.59922
# Velocity P-wave (km/s) = 6.73184 7.33711 7.04098
#
# Compressibility (1/GPa) = 0.01930221
#
# Stress axis : x y z
#
# Youngs Moduli (GPa) = 74.63194 123.36947 115.82593
#
# Poissons Ratio (x) = -0.06847 0.10417
# Poissons Ratio (y) = -0.04142 0.58767
# Poissons Ratio (z) = 0.06712 0.62594
#
# Static dielectric constant tensor:
#      x y z
#    x 1.826690 0.000000 0.000000 
#    y 0.000000 1.699230 0.000000 
#    z 0.000000 0.000000 1.674430 
# 
# From -- ./inp_files/49935.got.cif
#   From: 2010.05.17/outbox.cif.g08.bks.cpg/sg65_25_cif.got.tgz:49935.got - 2010.06.03 17:01:31.
