data_PCOD9483037
_publ_section_title
;
Structure prediction by ZEFSAII (Michael W. Deem and Ramdas Pophale) SiO2 
 PCOD9483037
Probable space group: C M M M
;
_chemical_formula_sum "Si O2"
_cell_formula_units_Z 90
_cell_length_a 23.409692
_cell_length_b 8.666559
_cell_length_c 23.086142
_cell_angle_alpha 90.000000
_cell_angle_beta 90.000000
_cell_angle_gamma 90.000000
_cell_volume 4683.750585
_symmetry_space_group_name_H-M "C M M M"
_symmetry_group_IT_number 65
_symmetry_cell_setting 'orthorhombic'
loop_
_space_group_symop_operation_xyz
x,y,z
-x,-y,z
x,-y,-z
-x,y,-z
-x,-y,-z
x,y,-z
-x,y,z
x,-y,z
1/2+x,1/2+y,z
1/2-x,1/2-y,z
1/2+x,1/2-y,-z
1/2-x,1/2+y,-z
1/2-x,1/2-y,-z
1/2+x,1/2+y,-z
1/2-x,1/2+y,z
1/2+x,1/2-y,z
loop_
_atom_site_type_symbol
_atom_site_label
_atom_site_fract_x
_atom_site_fract_y
_atom_site_fract_z
Si Si1 0.686827 0.316097 0.604723
Si Si2 0.500000 0.000000 0.500000
Si Si3 0.379138 0.814806 0.286653
Si Si4 0.384480 0.187958 0.934179
Si Si5 0.880620 0.671094 0.500000
Si Si6 0.000000 0.816363 0.736312
Si Si7 0.500000 0.813406 0.133395
Si Si8 0.812002 0.314452 0.171976
O O1 0.689542 0.500000 0.605720
O O2 0.750000 0.250000 0.593107
O O3 0.663282 0.252970 0.665686
O O4 0.642497 0.258869 0.556105
O O5 0.448136 0.132634 0.500000
O O6 0.442854 0.750234 0.292691
O O7 0.355944 0.772240 0.222845
O O8 0.380244 0.000000 0.291306
O O9 0.444263 0.228394 0.903713
O O10 0.335172 0.239758 0.890256
O O11 0.383044 0.000000 0.936015
O O12 0.379986 0.243838 0.000000
O O13 0.852707 0.500000 0.500000
O O14 0.000000 0.761220 0.803364
O O15 0.000000 0.000000 0.733640
O O16 0.500000 0.000000 0.141688
O O17 0.809523 0.500000 0.170983
O O18 0.750000 0.250000 0.184955
#
# Coordination Sequence:
#
# PCOD9483037 Si02
#       8
#    16   2  16  16   8   8   8  16
#     4  12  25  43  69 105 142 180 228 279 331 391
#     4   8  24  44  78 100 140 184 234 270 330 396
#     4  11  23  42  64  91 125 168 218 268 323 385
#     4   9  17  31  55  84 110 144 196 253 309 376
#     4  10  22  46  72 102 137 186 230 273 327 382
#     4  12  24  38  60  91 124 163 204 260 323 400
#     4  10  17  34  59  83 111 147 197 250 310 381
#     4  10  21  36  56  81 114 155 201 255 313 373
#
# _framework density 19.215368999999999
#
# number of rings (size 3 to 8) (size 9 to 14) (size 15 to 20)
#    0.267    1.244    1.778    4.267    0.000    4.978 
#    0.000    1.778    0.000    2.133    0.000    0.000 
#    0.000    0.000    0.000    0.000    0.000    0.000 
#
# Total GULP energy -251091.386285 kJ/mol
# GULP energy per Si atom -5579.808584 kJ/mol
# Density = 1.917163 g / cm^3
# Si number density = 19.215369 Si / 1000 Ang^3
#
#
#
# Elastic Constant Matrix: (Units=GPa)
#
#
# Indices 1 2 3 4 5 6 
#
# 1 139.6902 37.1455 24.1110 0.0000 0.0000 0.0000
# 2 37.1455 76.5936 30.2397 0.0000 0.0000 0.0000
# 3 24.1110 30.2397 77.7764 0.0000 0.0000 0.0000
# 4 0.0000 0.0000 0.0000 13.6075 0.0000 0.0000
# 5 0.0000 0.0000 0.0000 0.0000 62.8176 0.0000
# 6 0.0000 0.0000 0.0000 0.0000 0.0000 24.6669
#
#
#
# Elastic Compliance Matrix: (Units=1/GPa)
#
#
# Indices 1 2 3 4 5 6 
#
# 1 0.008311 -0.003560 -0.001192 0.000000 0.000000 0.000000
# 2 -0.003560 0.016948 -0.005486 0.000000 0.000000 0.000000
# 3 -0.001192 -0.005486 0.015360 0.000000 0.000000 0.000000
# 4 0.000000 0.000000 0.000000 0.073489 0.000000 0.000000
# 5 0.000000 0.000000 0.000000 0.000000 0.015919 0.000000
# 6 0.000000 0.000000 0.000000 0.000000 0.000000 0.040540
#
#
# Mechanical properties :
#
#
# Convention : Reuss Voigt Hill
#
# Bulk Modulus (GPa) = 49.64526 53.00583 51.32554
# Shear Modulus (GPa) = 25.28344 33.72268 29.50306
#
# Velocity S-wave (km/s) = 3.63132 4.19380 3.92265
# Velocity P-wave (km/s) = 6.59350 7.14812 6.87641
#
# Compressibility (1/GPa) = 0.02014291
#
# Stress axis : x y z
#
# Youngs Moduli (GPa) = 120.32065 59.00322 65.10430
#
# Poissons Ratio (x) = 0.21004 0.07763
# Poissons Ratio (y) = 0.42833 0.35716
# Poissons Ratio (z) = 0.14347 0.32369
#
# Static dielectric constant tensor:
#      x y z
#    x 1.649230 0.000000 0.000000 
#    y 0.000000 1.648760 0.000000 
#    z 0.000000 0.000000 1.674790 
# 
# From -- ./inp_files/65313.got.cif
#   From: 2010.05.17/outbox.cif.g08.bks.cpg/sg65_33_cif.got.tgz:65313.got - 2010.06.03 17:01:31.
