data_PCOD9483729
_publ_section_title
;
Structure prediction by ZEFSAII (Michael W. Deem and Ramdas Pophale) SiO2 
 PCOD9483729
Probable space group: C M M M
;
_chemical_formula_sum "Si O2"
_cell_formula_units_Z 80
_cell_length_a 24.288493
_cell_length_b 26.245697
_cell_length_c 9.037999
_cell_angle_alpha 90.000000
_cell_angle_beta 90.000000
_cell_angle_gamma 90.000000
_cell_volume 5761.439014
_symmetry_space_group_name_H-M "C M M M"
_symmetry_group_IT_number 65
_symmetry_cell_setting 'orthorhombic'
loop_
_space_group_symop_operation_xyz
x,y,z
-x,-y,z
x,-y,-z
-x,y,-z
-x,-y,-z
x,y,-z
-x,y,z
x,-y,z
1/2+x,1/2+y,z
1/2-x,1/2-y,z
1/2+x,1/2-y,-z
1/2-x,1/2+y,-z
1/2-x,1/2-y,-z
1/2+x,1/2+y,-z
1/2-x,1/2+y,z
1/2+x,1/2-y,z
loop_
_atom_site_type_symbol
_atom_site_label
_atom_site_fract_x
_atom_site_fract_y
_atom_site_fract_z
Si Si1 0.283623 0.303530 0.170265
Si Si2 0.380007 0.751298 0.676630
Si Si3 0.686002 0.143025 0.675509
Si Si4 0.888572 0.559557 0.175911
Si Si5 0.000000 0.400029 0.321667
Si Si6 0.000000 0.719651 0.320271
O O1 0.250000 0.250000 0.173278
O O2 0.342009 0.289803 0.242365
O O3 0.245797 0.342338 0.261575
O O4 0.288877 0.319333 0.000000
O O5 0.378313 0.742233 0.500000
O O6 0.352842 0.807202 0.700465
O O7 0.443123 0.754517 0.728106
O O8 0.687959 0.134288 0.500000
O O9 0.658341 0.095860 0.758039
O O10 0.876913 0.500000 0.200875
O O11 0.945596 0.574385 0.255521
O O12 0.894014 0.568007 0.000000
O O13 0.000000 0.403699 0.500000
O O14 0.000000 0.340090 0.280477
O O15 0.000000 0.720759 0.500000
#
# Coordination Sequence:
#
# PCOD9483729 Si02
#       6
#    16  16  16  16   8   8
#     4   9  17  28  42  62  86 108 135 172 216 263
#     4   9  16  28  44  62  84 110 142 177 215 257
#     4  10  18  30  48  64  80 107 145 183 219 260
#     4  11  23  35  45  61  86 114 145 186 233 269
#     4  11  20  34  49  62  80 112 154 191 225 259
#     4   9  16  28  44  63  86 112 143 183 220 251
#
# _framework density 13.88542
#
# number of rings (size 3 to 8) (size 9 to 14) (size 15 to 20)
#    0.000    2.200    2.000    2.400    0.000    6.000 
#    0.000    0.500    0.000    0.000    0.000    0.000 
#    0.000    0.000    0.000    0.900    0.000   17.400 
#
# Total GULP energy -223059.683656 kJ/mol
# GULP energy per Si atom -5576.492091 kJ/mol
# Density = 1.385382 g / cm^3
# Si number density = 13.885420 Si / 1000 Ang^3
#
#
#
# Elastic Constant Matrix: (Units=GPa)
#
#
# Indices 1 2 3 4 5 6 
#
# 1 117.0408 54.7545 57.7242 0.0000 0.0000 0.0000
# 2 54.7545 58.6374 44.3389 0.0000 0.0000 0.0000
# 3 57.7242 44.3389 68.4874 0.0000 0.0000 0.0000
# 4 0.0000 0.0000 0.0000 20.0440 0.0000 0.0000
# 5 0.0000 0.0000 0.0000 0.0000 16.9126 0.0000
# 6 0.0000 0.0000 0.0000 0.0000 0.0000 7.8286
#
#
#
# Elastic Compliance Matrix: (Units=1/GPa)
#
#
# Indices 1 2 3 4 5 6 
#
# 1 0.017155 -0.009963 -0.008009 0.000000 0.000000 0.000000
# 2 -0.009963 0.039195 -0.016978 0.000000 0.000000 0.000000
# 3 -0.008009 -0.016978 0.032343 0.000000 0.000000 0.000000
# 4 0.000000 0.000000 0.000000 0.049890 0.000000 0.000000
# 5 0.000000 0.000000 0.000000 0.000000 0.059128 0.000000
# 6 0.000000 0.000000 0.000000 0.000000 0.000000 0.127737
#
#
# Mechanical properties :
#
#
# Convention : Reuss Voigt Hill
#
# Bulk Modulus (GPa) = 53.20942 61.97787 57.59365
# Shear Modulus (GPa) = 12.44987 14.78025 13.61506
#
# Velocity S-wave (km/s) = 2.99760 3.26612 3.13474
# Velocity P-wave (km/s) = 7.09819 7.67825 7.39391
#
# Compressibility (1/GPa) = 0.01879366
#
# Stress axis : x y z
#
# Youngs Moduli (GPa) = 58.29252 25.51349 30.91883
#
# Poissons Ratio (x) = 0.25419 0.24762
# Poissons Ratio (y) = 0.58077 0.52493
# Poissons Ratio (z) = 0.46685 0.43316
#
# Static dielectric constant tensor:
#      x y z
#    x 1.455300 0.000000 0.000000 
#    y 0.000000 1.428030 0.000000 
#    z 0.000000 0.000000 1.463040 
# 
# From -- ./inp_files/11568.got.cif
#   From: 2010.05.17/outbox.cif.g08.bks.cpg/sg65_6_cif.got.tgz:11568.got - 2010.06.03 17:01:31.
