data_PCOD9483738
_publ_section_title
;
Structure prediction by ZEFSAII (Michael W. Deem and Ramdas Pophale) SiO2 
 PCOD9483738
Probable space group: C M M M
;
_chemical_formula_sum "Si O2"
_cell_formula_units_Z 104
_cell_length_a 24.317775
_cell_length_b 8.759768
_cell_length_c 29.433155
_cell_angle_alpha 90.000000
_cell_angle_beta 90.000000
_cell_angle_gamma 90.000000
_cell_volume 6269.793792
_symmetry_space_group_name_H-M "C M M M"
_symmetry_group_IT_number 65
_symmetry_cell_setting 'orthorhombic'
loop_
_space_group_symop_operation_xyz
x,y,z
-x,-y,z
x,-y,-z
-x,y,-z
-x,-y,-z
x,y,-z
-x,y,z
x,-y,z
1/2+x,1/2+y,z
1/2-x,1/2-y,z
1/2+x,1/2-y,-z
1/2-x,1/2+y,-z
1/2-x,1/2-y,-z
1/2+x,1/2+y,-z
1/2-x,1/2+y,z
1/2+x,1/2-y,z
loop_
_atom_site_type_symbol
_atom_site_label
_atom_site_fract_x
_atom_site_fract_y
_atom_site_fract_z
Si Si1 0.622697 0.686093 0.549308
Si Si2 0.000000 0.185589 0.569463
Si Si3 0.500000 0.685120 0.674258
Si Si4 0.932955 0.676703 0.000000
Si Si5 0.933293 0.825629 0.094243
Si Si6 0.111871 0.184476 0.277724
Si Si7 0.435918 0.181935 0.809747
Si Si8 0.810986 0.814981 0.639641
O O1 0.646510 0.731657 0.500000
O O2 0.622610 0.500000 0.550679
O O3 0.558808 0.735817 0.550579
O O4 0.654373 0.734927 0.594921
O O5 0.000000 0.228803 0.622111
O O6 0.000000 0.000000 0.565471
O O7 0.500000 0.500000 0.675185
O O8 0.444926 0.735698 0.698608
O O9 0.914091 0.755827 0.046524
O O10 0.917486 0.500000 0.000000
O O11 0.000000 0.683538 0.000000
O O12 0.919735 0.732001 0.139468
O O13 0.000000 0.825531 0.092088
O O14 0.915062 0.000000 0.099020
O O15 0.105708 0.249889 0.227305
O O16 0.159482 0.230722 0.313004
O O17 0.112611 0.000000 0.275103
O O18 0.500000 0.235813 0.802007
O O19 0.436337 0.000000 0.806358
O O20 0.750000 0.750000 0.637194
O O21 0.809947 0.000000 0.638973
#
# Coordination Sequence:
#
# PCOD9483738 Si02
#       8
#    16   8   8   8  16  16  16  16
#     4   9  16  26  43  69  97 120 145 183 230 276
#     4   9  13  22  41  69  97 117 140 182 232 273
#     4   9  14  23  43  66  87 109 141 182 227 274
#     4   9  15  23  35  51  77 115 158 203 242 271
#     4   9  16  25  37  54  79 116 160 197 229 272
#     4  10  18  30  48  66  86 115 150 188 231 280
#     4  10  19  28  40  63  92 117 145 186 236 284
#     4  10  21  35  50  68  90 119 155 191 228 275
#
# _framework density 16.587467
#
# number of rings (size 3 to 8) (size 9 to 14) (size 15 to 20)
#    0.000    2.538    2.308    1.385    0.000    5.231 
#    0.000    0.000    0.000    0.000    0.000    0.000 
#    0.000    1.231    0.000    0.692    0.000    9.462 
#
# Total GULP energy -289567.425347 kJ/mol
# GULP energy per Si atom -5568.604334 kJ/mol
# Density = 1.654971 g / cm^3
# Si number density = 16.587467 Si / 1000 Ang^3
#
#
#
# Elastic Constant Matrix: (Units=GPa)
#
#
# Indices 1 2 3 4 5 6 
#
# 1 71.6849 15.9372 50.2170 0.0000 0.0000 0.0000
# 2 15.9372 23.6258 28.9986 0.0000 0.0000 0.0000
# 3 50.2170 28.9986 157.1477 0.0000 0.0000 0.0000
# 4 0.0000 0.0000 0.0000 4.8846 0.0000 0.0000
# 5 0.0000 0.0000 0.0000 0.0000 -17.5706 0.0000
# 6 0.0000 0.0000 0.0000 0.0000 0.0000 16.2212
#
#
#
# Elastic Compliance Matrix: (Units=1/GPa)
#
#
# Indices 1 2 3 4 5 6 
#
# 1 0.018796 -0.006861 -0.004740 0.000000 0.000000 0.000000
# 2 -0.006861 0.057225 -0.008367 0.000000 0.000000 0.000000
# 3 -0.004740 -0.008367 0.009422 0.000000 0.000000 0.000000
# 4 0.000000 0.000000 0.000000 0.204725 0.000000 0.000000
# 5 0.000000 0.000000 0.000000 0.000000 -0.056913 0.000000
# 6 0.000000 0.000000 0.000000 0.000000 0.000000 0.061648
#
#
# Mechanical properties :
#
#
# Convention : Reuss Voigt Hill
#
# Bulk Modulus (GPa) = 21.97509 49.19601 35.58555
# Shear Modulus (GPa) = 14.28542 11.19410 12.73976
#
# Velocity S-wave (km/s) = 2.93783 2.60061 2.77435
# Velocity P-wave (km/s) = 4.97841 6.22419 5.63583
#
# Compressibility (1/GPa) = 0.04550607
#
# Stress axis : x y z
#
# Youngs Moduli (GPa) = 53.20307 17.47494 106.13190
#
# Poissons Ratio (x) = 0.11989 0.50309
# Poissons Ratio (y) = 0.36502 0.88804
# Poissons Ratio (z) = 0.25220 0.14622
#
# Static dielectric constant tensor:
#      x y z
#    x 1.539330 0.000000 0.000000 
#    y 0.000000 1.566980 0.000000 
#    z 0.000000 0.000000 1.586790 
# 
# From -- ./inp_files/75824.got.cif
#   From: 2010.05.17/outbox.cif.g08.bks.cpg/sg65_38_cif.got.tgz:75824.got - 2010.06.03 17:01:31.
