data_PCOD9483211
_publ_section_title
;
Structure prediction by ZEFSAII (Michael W. Deem and Ramdas Pophale) SiO2 
 PCOD9483211
Probable space group: C M M M
;
_chemical_formula_sum "Si O2"
_cell_formula_units_Z 88
_cell_length_a 30.576775
_cell_length_b 18.061512
_cell_length_c 12.147463
_cell_angle_alpha 90.000000
_cell_angle_beta 90.000000
_cell_angle_gamma 90.000000
_cell_volume 6708.591791
_symmetry_space_group_name_H-M "C M M M"
_symmetry_group_IT_number 65
_symmetry_cell_setting 'orthorhombic'
loop_
_space_group_symop_operation_xyz
x,y,z
-x,-y,z
x,-y,-z
-x,y,-z
-x,-y,-z
x,y,-z
-x,y,z
x,-y,z
1/2+x,1/2+y,z
1/2-x,1/2-y,z
1/2+x,1/2-y,-z
1/2-x,1/2+y,-z
1/2-x,1/2-y,-z
1/2+x,1/2+y,-z
1/2-x,1/2+y,z
1/2+x,1/2-y,z
loop_
_atom_site_type_symbol
_atom_site_label
_atom_site_fract_x
_atom_site_fract_y
_atom_site_fract_z
Si Si1 0.093244 0.086247 0.217845
Si Si2 0.247681 0.412111 0.371694
Si Si3 0.697774 0.743977 0.000000
Si Si4 0.846640 0.915858 0.000000
Si Si5 0.659853 0.666365 0.629916
Si Si6 0.500000 0.590215 0.127382
Si Si7 0.702841 0.208298 0.237288
O O1 0.118317 0.132298 0.309536
O O2 0.044631 0.112668 0.187309
O O3 0.090742 0.000000 0.251123
O O4 0.122693 0.089177 0.107329
O O5 0.238748 0.391018 0.500000
O O6 0.245146 0.500000 0.361897
O O7 0.297374 0.385330 0.348270
O O8 0.214985 0.370710 0.288725
O O9 0.750000 0.750000 0.000000
O O10 0.684102 0.783574 0.113868
O O11 0.684003 0.657050 0.000000
O O12 0.826729 0.000000 0.000000
O O13 0.653865 0.670569 0.500000
O O14 0.672272 0.745245 0.681425
O O15 0.500000 0.500000 0.124859
O O16 0.500000 0.614528 0.000000
O O17 0.750000 0.250000 0.236946
#
# Coordination Sequence:
#
# PCOD9483211 Si02
#       7
#    16  16   8   8  16   8  16
#     4  10  18  28  43  62  80 102 137 178 211 244
#     4   9  17  29  43  58  78 108 146 180 203 235
#     4  10  18  30  39  59  86 108 130 172 214 250
#     4  10  18  29  46  62  77 107 151 183 204 235
#     4  10  18  28  42  59  80 107 141 175 207 244
#     4   9  16  28  43  59  79 101 131 171 214 250
#     4   9  17  28  41  57  79 106 136 171 211 246
#
# _framework density 13.117507
#
# number of rings (size 3 to 8) (size 9 to 14) (size 15 to 20)
#    0.000    2.455    2.727    1.091    0.000    3.273 
#    0.000    0.909    0.000    1.636    0.000    0.000 
#    0.000    0.000    0.000    0.818    0.000   10.545 
#
# Total GULP energy -244982.425986 kJ/mol
# GULP energy per Si atom -5567.782409 kJ/mol
# Density = 1.308765 g / cm^3
# Si number density = 13.117507 Si / 1000 Ang^3
#
#
#
# Elastic Constant Matrix: (Units=GPa)
#
#
# Indices 1 2 3 4 5 6 
#
# 1 71.6467 36.0329 46.2015 0.0000 0.0000 0.0000
# 2 36.0329 54.3184 38.8879 0.0000 0.0000 0.0000
# 3 46.2015 38.8879 95.4679 0.0000 0.0000 0.0000
# 4 0.0000 0.0000 0.0000 19.2238 0.0000 0.0000
# 5 0.0000 0.0000 0.0000 0.0000 16.6910 0.0000
# 6 0.0000 0.0000 0.0000 0.0000 0.0000 15.4424
#
#
#
# Elastic Compliance Matrix: (Units=1/GPa)
#
#
# Indices 1 2 3 4 5 6 
#
# 1 0.024046 -0.010757 -0.007255 0.000000 0.000000 0.000000
# 2 -0.010757 0.030801 -0.007341 0.000000 0.000000 0.000000
# 3 -0.007255 -0.007341 0.016976 0.000000 0.000000 0.000000
# 4 0.000000 0.000000 0.000000 0.052019 0.000000 0.000000
# 5 0.000000 0.000000 0.000000 0.000000 0.059913 0.000000
# 6 0.000000 0.000000 0.000000 0.000000 0.000000 0.064757
#
#
# Mechanical properties :
#
#
# Convention : Reuss Voigt Hill
#
# Bulk Modulus (GPa) = 47.35465 51.51972 49.43718
# Shear Modulus (GPa) = 16.32621 16.95883 16.64252
#
# Velocity S-wave (km/s) = 3.53173 3.59951 3.56578
# Velocity P-wave (km/s) = 7.26702 7.52569 7.39749
#
# Compressibility (1/GPa) = 0.02111725
#
# Stress axis : x y z
#
# Youngs Moduli (GPa) = 41.58724 32.46636 58.90666
#
# Poissons Ratio (x) = 0.34924 0.42738
# Poissons Ratio (y) = 0.44735 0.43242
# Poissons Ratio (z) = 0.30172 0.23833
#
# Static dielectric constant tensor:
#      x y z
#    x 1.416150 0.000000 0.000000 
#    y 0.000000 1.418760 0.000000 
#    z 0.000000 0.000000 1.460130 
# 
# From -- ./inp_files/34077.got.cif
#   From: 2010.05.17/outbox.cif.g08.bks.cpg/sg65_18_cif.got.tgz:34077.got - 2010.06.03 17:01:31.
