data_PCOD9483401
_publ_section_title
;
Structure prediction by ZEFSAII (Michael W. Deem and Ramdas Pophale) SiO2 
 PCOD9483401
Probable space group: C M M M
;
_chemical_formula_sum "Si O2"
_cell_formula_units_Z 104
_cell_length_a 20.688554
_cell_length_b 18.486946
_cell_length_c 14.355657
_cell_angle_alpha 90.000000
_cell_angle_beta 90.000000
_cell_angle_gamma 90.000000
_cell_volume 5490.582014
_symmetry_space_group_name_H-M "C M M M"
_symmetry_group_IT_number 65
_symmetry_cell_setting 'orthorhombic'
loop_
_space_group_symop_operation_xyz
x,y,z
-x,-y,z
x,-y,-z
-x,y,-z
-x,-y,-z
x,y,-z
-x,y,z
x,-y,z
1/2+x,1/2+y,z
1/2-x,1/2-y,z
1/2+x,1/2-y,-z
1/2-x,1/2+y,-z
1/2-x,1/2-y,-z
1/2+x,1/2+y,-z
1/2-x,1/2+y,z
1/2+x,1/2-y,z
loop_
_atom_site_type_symbol
_atom_site_label
_atom_site_fract_x
_atom_site_fract_y
_atom_site_fract_z
Si Si1 0.078176 0.000000 0.895921
Si Si2 0.286075 0.917577 0.105225
Si Si3 0.310737 0.200941 0.607662
Si Si4 0.326129 0.237829 0.891300
Si Si5 0.616659 0.342721 0.393177
Si Si6 0.427081 0.348014 0.804314
Si Si7 0.742379 0.583307 0.304476
O O1 0.094354 0.074837 0.845841
O O2 0.000000 0.000000 0.900307
O O3 0.105095 0.000000 0.000000
O O4 0.334017 0.849222 0.115663
O O5 0.237599 0.911251 0.192507
O O6 0.312555 0.000000 0.111162
O O7 0.258399 0.909973 0.000000
O O8 0.299262 0.181476 0.500000
O O9 0.250000 0.250000 0.639063
O O10 0.369511 0.256353 0.610352
O O11 0.305610 0.129410 0.667632
O O12 0.250000 0.250000 0.867311
O O13 0.375614 0.285935 0.832048
O O14 0.334110 0.258121 0.000000
O O15 0.599933 0.361377 0.500000
O O16 0.570812 0.358055 0.307040
O O17 0.682600 0.383751 0.361933
O O18 0.500000 0.331152 0.838435
O O19 0.749073 0.500000 0.328830
#
# Coordination Sequence:
#
# PCOD9483401 Si02
#       7
#     8  16  16  16  16  16  16
#     4   9  20  40  61  83 113 147 189 237 282 335
#     4   9  18  32  50  76 114 152 184 230 291 351
#     4   8  15  29  47  69  98 136 177 227 290 343
#     4  10  20  36  59  88 119 150 190 241 293 344
#     4  10  21  35  51  71 104 145 190 240 286 336
#     4  11  23  39  61  85 114 155 199 240 287 346
#     4  10  18  28  48  75 106 146 190 234 282 341
#
# _framework density 18.941524999999999
#
# number of rings (size 3 to 8) (size 9 to 14) (size 15 to 20)
#    0.000    2.385    0.000    3.692    1.077    3.692 
#    1.385    0.769    0.000    1.846    0.000    2.154 
#    0.000    0.000    0.000   13.231    0.000    0.000 
#
# Total GULP energy -289654.842926 kJ/mol
# GULP energy per Si atom -5570.285441 kJ/mol
# Density = 1.889841 g / cm^3
# Si number density = 18.941525 Si / 1000 Ang^3
#
#
#
# Elastic Constant Matrix: (Units=GPa)
#
#
# Indices 1 2 3 4 5 6 
#
# 1 42.2795 35.3862 35.9857 0.0000 0.0000 0.0000
# 2 35.3862 146.3414 56.8434 0.0000 0.0000 0.0000
# 3 35.9857 56.8434 134.5694 0.0000 0.0000 0.0000
# 4 0.0000 0.0000 0.0000 28.7517 0.0000 0.0000
# 5 0.0000 0.0000 0.0000 0.0000 14.5016 0.0000
# 6 0.0000 0.0000 0.0000 0.0000 0.0000 12.2007
#
#
#
# Elastic Compliance Matrix: (Units=1/GPa)
#
#
# Indices 1 2 3 4 5 6 
#
# 1 0.034100 -0.005627 -0.006742 0.000000 0.000000 0.000000
# 2 -0.005627 0.009103 -0.002341 0.000000 0.000000 0.000000
# 3 -0.006742 -0.002341 0.010223 0.000000 0.000000 0.000000
# 4 0.000000 0.000000 0.000000 0.034781 0.000000 0.000000
# 5 0.000000 0.000000 0.000000 0.000000 0.068958 0.000000
# 6 0.000000 0.000000 0.000000 0.000000 0.000000 0.081963
#
#
# Mechanical properties :
#
#
# Convention : Reuss Voigt Hill
#
# Bulk Modulus (GPa) = 41.65451 64.40234 53.02843
# Shear Modulus (GPa) = 18.08007 24.08912 21.08460
#
# Velocity S-wave (km/s) = 3.09288 3.57005 3.34000
# Velocity P-wave (km/s) = 5.89859 7.14619 6.55216
#
# Compressibility (1/GPa) = 0.02400700
#
# Stress axis : x y z
#
# Youngs Moduli (GPa) = 29.32567 109.85324 97.82170
#
# Poissons Ratio (x) = 0.61812 0.65951
# Poissons Ratio (y) = 0.16501 0.22896
# Poissons Ratio (z) = 0.19771 0.25712
#
# Static dielectric constant tensor:
#      x y z
#    x 1.672360 0.000000 0.000000 
#    y 0.000000 1.695490 0.000000 
#    z 0.000000 0.000000 1.721730 
# 
# From -- ./inp_files/44420.got.cif
#   From: 2010.05.17/outbox.cif.g08.bks.cpg/sg65_23_cif.got.tgz:44420.got - 2010.06.03 17:01:31.
