data_PCOD9483915
_publ_section_title
;
Structure prediction by ZEFSAII (Michael W. Deem and Ramdas Pophale) SiO2 
 PCOD9483915
Probable space group: C M M M
;
_chemical_formula_sum "Si O2"
_cell_formula_units_Z 88
_cell_length_a 29.839796
_cell_length_b 8.206720
_cell_length_c 18.539796
_cell_angle_alpha 90.000000
_cell_angle_beta 90.000000
_cell_angle_gamma 90.000000
_cell_volume 4540.152254
_symmetry_space_group_name_H-M "C M M M"
_symmetry_group_IT_number 65
_symmetry_cell_setting 'orthorhombic'
loop_
_space_group_symop_operation_xyz
x,y,z
-x,-y,z
x,-y,-z
-x,y,-z
-x,-y,-z
x,y,-z
-x,y,z
x,-y,z
1/2+x,1/2+y,z
1/2-x,1/2-y,z
1/2+x,1/2-y,-z
1/2-x,1/2+y,-z
1/2-x,1/2-y,-z
1/2+x,1/2+y,-z
1/2-x,1/2+y,z
1/2+x,1/2-y,z
loop_
_atom_site_type_symbol
_atom_site_label
_atom_site_fract_x
_atom_site_fract_y
_atom_site_fract_z
Si Si1 0.948207 0.199382 0.500000
Si Si2 0.448811 0.696575 0.783459
Si Si3 0.201453 0.194370 0.312806
Si Si4 0.391719 0.197105 0.080617
Si Si5 0.298478 0.194556 0.146423
Si Si6 0.894543 0.800610 0.358079
O O1 0.921790 0.251831 0.571576
O O2 0.000000 0.251782 0.500000
O O3 0.948588 0.000000 0.500000
O O4 0.500000 0.754788 0.778845
O O5 0.449472 0.500000 0.780525
O O6 0.425474 0.747098 0.857598
O O7 0.419654 0.752689 0.714933
O O8 0.250000 0.250000 0.340092
O O9 0.197334 0.248183 0.229314
O O10 0.157221 0.253043 0.354493
O O11 0.201208 0.000000 0.313582
O O12 0.341602 0.253111 0.102283
O O13 0.391387 0.000000 0.080557
O O14 0.403382 0.252742 0.000000
O O15 0.250000 0.250000 0.118649
O O16 0.298841 0.000000 0.146450
O O17 0.894592 0.000000 0.358303
#
# Coordination Sequence:
#
# PCOD9483915 Si02
#       6
#     8  16  16  16  16  16
#     4   9  16  28  49  78 109 139 171 211 262 311
#     4  10  20  35  55  78 103 133 174 221 266 310
#     4  10  18  30  50  76 106 137 172 211 254 305
#     4  10  22  38  53  73 104 139 175 215 260 315
#     4  10  19  32  52  76 102 134 172 213 259 309
#     4   9  17  30  50  77 108 138 169 212 261 308
#
# _framework density 19.382608999999999
#
# number of rings (size 3 to 8) (size 9 to 14) (size 15 to 20)
#    0.000    2.273    1.818    2.727    0.000    4.364 
#    0.000    2.273    0.000    0.000    0.000    5.091 
#    0.000    8.000    0.000    0.000    0.000    0.000 
#
# Total GULP energy -245564.967268 kJ/mol
# GULP energy per Si atom -5581.021983 kJ/mol
# Density = 1.933849 g / cm^3
# Si number density = 19.382609 Si / 1000 Ang^3
#
#
#
# Elastic Constant Matrix: (Units=GPa)
#
#
# Indices 1 2 3 4 5 6 
#
# 1 194.2853 17.9082 100.3034 0.0000 0.0000 0.0000
# 2 17.9082 16.2141 7.2051 0.0000 0.0000 0.0000
# 3 100.3034 7.2051 135.5076 0.0000 0.0000 0.0000
# 4 0.0000 0.0000 0.0000 8.7150 0.0000 0.0000
# 5 0.0000 0.0000 0.0000 0.0000 16.2567 0.0000
# 6 0.0000 0.0000 0.0000 0.0000 0.0000 -60.4259
#
#
#
# Elastic Compliance Matrix: (Units=1/GPa)
#
#
# Indices 1 2 3 4 5 6 
#
# 1 0.009087 -0.007218 -0.006342 0.000000 0.000000 0.000000
# 2 -0.007218 0.068901 0.001679 0.000000 0.000000 0.000000
# 3 -0.006342 0.001679 0.011985 0.000000 0.000000 0.000000
# 4 0.000000 0.000000 0.000000 0.114745 0.000000 0.000000
# 5 0.000000 0.000000 0.000000 0.000000 0.061513 0.000000
# 6 0.000000 0.000000 0.000000 0.000000 0.000000 -0.016549
#
#
# Mechanical properties :
#
#
# Convention : Reuss Voigt Hill
#
# Bulk Modulus (GPa) = 15.10337 66.31561 40.70949
# Shear Modulus (GPa) = 16.91971 7.61517 12.26744
#
# Velocity S-wave (km/s) = 2.95775 1.98429 2.51850
# Velocity P-wave (km/s) = 4.41288 6.28793 5.43193
#
# Compressibility (1/GPa) = 0.06621041
#
# Stress axis : x y z
#
# Youngs Moduli (GPa) = 110.05166 14.51366 83.43829
#
# Poissons Ratio (x) = 0.10476 0.52918
# Poissons Ratio (y) = 0.79433 -0.14010
# Poissons Ratio (z) = 0.69797 -0.02437
#
# Static dielectric constant tensor:
#      x y z
#    x 1.691080 0.000000 0.000000 
#    y 0.000000 1.688840 0.000000 
#    z 0.000000 0.000000 1.647120 
# 
# From -- ./inp_files/57959.got.cif
#   From: 2010.05.17/outbox.cif.g08.bks.cpg/sg65_29_cif.got.tgz:57959.got - 2010.06.03 17:01:31.
