data_PCOD9483443
_publ_section_title
;
Structure prediction by ZEFSAII (Michael W. Deem and Ramdas Pophale) SiO2 
 PCOD9483443
Probable space group: C M M M
;
_chemical_formula_sum "Si O2"
_cell_formula_units_Z 120
_cell_length_a 30.486627
_cell_length_b 15.171361
_cell_length_c 14.817312
_cell_angle_alpha 90.000000
_cell_angle_beta 90.000000
_cell_angle_gamma 90.000000
_cell_volume 6853.356843
_symmetry_space_group_name_H-M "C M M M"
_symmetry_group_IT_number 65
_symmetry_cell_setting 'orthorhombic'
loop_
_space_group_symop_operation_xyz
x,y,z
-x,-y,z
x,-y,-z
-x,y,-z
-x,-y,-z
x,y,-z
-x,y,z
x,-y,z
1/2+x,1/2+y,z
1/2-x,1/2-y,z
1/2+x,1/2-y,-z
1/2-x,1/2+y,-z
1/2-x,1/2-y,-z
1/2+x,1/2+y,-z
1/2-x,1/2+y,z
1/2+x,1/2-y,z
loop_
_atom_site_type_symbol
_atom_site_label
_atom_site_fract_x
_atom_site_fract_y
_atom_site_fract_z
Si Si1 0.198582 0.761181 0.108456
Si Si2 0.105591 0.898905 0.605085
Si Si3 0.856329 0.404121 0.104935
Si Si4 0.053602 0.599770 0.500000
Si Si5 0.549242 0.607136 0.105454
Si Si6 0.551452 0.772228 0.656357
Si Si7 0.549223 0.897792 0.825806
Si Si8 0.861219 0.102558 0.795565
O O1 0.250000 0.750000 0.125869
O O2 0.171305 0.676417 0.142723
O O3 0.176682 0.843696 0.156726
O O4 0.192721 0.770042 0.000000
O O5 0.119123 0.888560 0.500000
O O6 0.072650 0.820977 0.631954
O O7 0.140267 0.890990 0.686873
O O8 0.087838 0.000000 0.613438
O O9 0.846696 0.500000 0.146474
O O10 0.908615 0.390520 0.111003
O O11 0.844277 0.408196 0.000000
O O12 0.069119 0.500000 0.500000
O O13 0.068255 0.654905 0.413970
O O14 0.000000 0.596990 0.500000
O O15 0.500000 0.637350 0.134040
O O16 0.548013 0.500000 0.107916
O O17 0.590850 0.633803 0.166069
O O18 0.555650 0.632517 0.000000
O O19 0.500000 0.760628 0.641378
O O20 0.555858 0.821594 0.751823
O O21 0.500000 0.887289 0.864810
O O22 0.550130 0.000000 0.789174
O O23 0.858192 0.000000 0.819955
#
# Coordination Sequence:
#
# PCOD9483443 Si02
#       8
#    16  16  16   8  16  16  16  16
#     4  10  21  36  55  81 110 135 164 209 262 318
#     4  10  21  35  49  68  97 135 179 221 261 310
#     4   9  18  33  51  71  99 135 170 203 245 300
#     4   9  16  26  41  61  85 115 155 206 260 307
#     4   8  14  26  45  70 101 136 172 210 254 304
#     4  10  18  29  44  64  93 130 170 216 263 305
#     4   9  17  29  48  74 101 131 169 212 256 302
#     4  10  20  34  54  78 105 140 179 219 262 311
#
# _framework density 17.509668000000001
#
# number of rings (size 3 to 8) (size 9 to 14) (size 15 to 20)
#    0.000    2.600    0.667    2.000    0.000    4.000 
#    0.000    5.333    0.000    1.200    0.000    0.000 
#    0.000    0.000    0.000    0.000    0.000    0.000 
#
# Total GULP energy -334018.167705 kJ/mol
# GULP energy per Si atom -5566.969462 kJ/mol
# Density = 1.746982 g / cm^3
# Si number density = 17.509668 Si / 1000 Ang^3
#
#
#
# Elastic Constant Matrix: (Units=GPa)
#
#
# Indices 1 2 3 4 5 6 
#
# 1 77.2027 49.9416 38.4304 0.0000 0.0000 0.0000
# 2 49.9416 105.2584 36.7023 0.0000 0.0000 0.0000
# 3 38.4304 36.7023 57.8352 0.0000 0.0000 0.0000
# 4 0.0000 0.0000 0.0000 19.0491 0.0000 0.0000
# 5 0.0000 0.0000 0.0000 0.0000 9.6398 0.0000
# 6 0.0000 0.0000 0.0000 0.0000 0.0000 19.6130
#
#
#
# Elastic Compliance Matrix: (Units=1/GPa)
#
#
# Indices 1 2 3 4 5 6 
#
# 1 0.022883 -0.007134 -0.010678 0.000000 0.000000 0.000000
# 2 -0.007134 0.014424 -0.004413 0.000000 0.000000 0.000000
# 3 -0.010678 -0.004413 0.027187 0.000000 0.000000 0.000000
# 4 0.000000 0.000000 0.000000 0.052496 0.000000 0.000000
# 5 0.000000 0.000000 0.000000 0.000000 0.103736 0.000000
# 6 0.000000 0.000000 0.000000 0.000000 0.000000 0.050987
#
#
# Mechanical properties :
#
#
# Convention : Reuss Voigt Hill
#
# Bulk Modulus (GPa) = 49.89231 54.49387 52.19309
# Shear Modulus (GPa) = 15.48732 17.34185 16.41459
#
# Velocity S-wave (km/s) = 2.97728 3.15050 3.06512
# Velocity P-wave (km/s) = 6.35413 6.66513 6.51149
#
# Compressibility (1/GPa) = 0.02004317
#
# Stress axis : x y z
#
# Youngs Moduli (GPa) = 43.69993 69.32858 36.78278
#
# Poissons Ratio (x) = 0.49459 0.39278
# Poissons Ratio (y) = 0.31175 0.16233
# Poissons Ratio (z) = 0.46664 0.30596
#
# Static dielectric constant tensor:
#      x y z
#    x 1.573500 0.000000 0.000000 
#    y 0.000000 1.657510 0.000000 
#    z 0.000000 0.000000 1.627990 
# 
# From -- ./inp_files/48083.got.cif
#   From: 2010.05.17/outbox.cif.g08.bks.cpg/sg65_25_cif.got.tgz:48083.got - 2010.06.03 17:01:31.
