data_PCOD9483280
_publ_section_title
;
Structure prediction by ZEFSAII (Michael W. Deem and Ramdas Pophale) SiO2 
 PCOD9483280
Probable space group: C M M M
;
_chemical_formula_sum "Si O2"
_cell_formula_units_Z 64
_cell_length_a 26.819882
_cell_length_b 7.613375
_cell_length_c 17.687016
_cell_angle_alpha 90.000000
_cell_angle_beta 90.000000
_cell_angle_gamma 90.000000
_cell_volume 3611.508598
_symmetry_space_group_name_H-M "C M M M"
_symmetry_group_IT_number 65
_symmetry_cell_setting 'orthorhombic'
loop_
_space_group_symop_operation_xyz
x,y,z
-x,-y,z
x,-y,-z
-x,y,-z
-x,-y,-z
x,y,-z
-x,y,z
x,-y,z
1/2+x,1/2+y,z
1/2-x,1/2-y,z
1/2+x,1/2-y,-z
1/2-x,1/2+y,-z
1/2-x,1/2-y,-z
1/2+x,1/2+y,-z
1/2-x,1/2+y,z
1/2+x,1/2-y,z
loop_
_atom_site_type_symbol
_atom_site_label
_atom_site_fract_x
_atom_site_fract_y
_atom_site_fract_z
Si Si1 0.442972 0.211527 0.164029
Si Si2 0.806012 0.789087 0.413562
Si Si3 0.500000 0.284978 0.587612
Si Si4 0.901626 0.789685 0.676106
Si Si5 0.439323 0.796485 0.000000
O O1 0.500000 0.274099 0.178292
O O2 0.409329 0.253596 0.235613
O O3 0.445541 0.000000 0.157792
O O4 0.425448 0.279761 0.081825
O O5 0.811071 0.722669 0.500000
O O6 0.750000 0.750000 0.387025
O O7 0.850545 0.722375 0.360790
O O8 0.810307 0.000000 0.416897
O O9 0.500000 0.500000 0.588959
O O10 0.500000 0.232466 0.500000
O O11 0.450371 0.224385 0.630953
O O12 0.901553 0.000000 0.667105
O O13 0.500000 0.796658 0.000000
O O14 0.422699 0.000000 0.000000
#
# Coordination Sequence:
#
# PCOD9483280 Si02
#       5
#    16  16   8  16   8
#     4   9  16  27  43  63  89 119 149 178 211 256
#     4   9  18  32  48  65  85 113 151 190 223 257
#     4   9  16  26  41  60  85 118 148 171 203 255
#     4  10  18  28  44  66  90 115 146 181 218 260
#     4   7  12  24  41  59  82 117 152 175 202 252
#
# _framework density 17.721126999999999
#
# number of rings (size 3 to 8) (size 9 to 14) (size 15 to 20)
#    0.000    3.000    1.250    2.250    0.000    4.000 
#    0.000    0.625    0.000    5.250    0.000    0.875 
#    0.000    0.000    0.000    0.000    0.000    0.000 
#
# Total GULP energy -178315.243881 kJ/mol
# GULP energy per Si atom -5572.351371 kJ/mol
# Density = 1.768079 g / cm^3
# Si number density = 17.721127 Si / 1000 Ang^3
#
#
#
# Elastic Constant Matrix: (Units=GPa)
#
#
# Indices 1 2 3 4 5 6 
#
# 1 134.3876 7.4332 99.2871 0.0000 0.0000 0.0000
# 2 7.4332 36.2086 1.4983 0.0000 0.0000 0.0000
# 3 99.2871 1.4983 166.9467 0.0000 0.0000 0.0000
# 4 0.0000 0.0000 0.0000 17.4372 0.0000 0.0000
# 5 0.0000 0.0000 0.0000 0.0000 19.9256 0.0000
# 6 0.0000 0.0000 0.0000 0.0000 0.0000 11.6381
#
#
#
# Elastic Compliance Matrix: (Units=1/GPa)
#
#
# Indices 1 2 3 4 5 6 
#
# 1 0.013485 -0.002437 -0.007998 0.000000 0.000000 0.000000
# 2 -0.002437 0.028069 0.001198 0.000000 0.000000 0.000000
# 3 -0.007998 0.001198 0.010736 0.000000 0.000000 0.000000
# 4 0.000000 0.000000 0.000000 0.057349 0.000000 0.000000
# 5 0.000000 0.000000 0.000000 0.000000 0.050187 0.000000
# 6 0.000000 0.000000 0.000000 0.000000 0.000000 0.085925
#
#
# Mechanical properties :
#
#
# Convention : Reuss Voigt Hill
#
# Bulk Modulus (GPa) = 29.57359 61.55332 45.56346
# Shear Modulus (GPa) = 18.14910 25.08848 21.61879
#
# Velocity S-wave (km/s) = 3.20371 3.76671 3.49656
# Velocity P-wave (km/s) = 5.51448 7.32989 6.48602
#
# Compressibility (1/GPa) = 0.03381395
#
# Stress axis : x y z
#
# Youngs Moduli (GPa) = 74.15685 35.62708 93.14684
#
# Poissons Ratio (x) = 0.08684 0.74498
# Poissons Ratio (y) = 0.18075 -0.11156
# Poissons Ratio (z) = 0.59310 -0.04267
#
# Static dielectric constant tensor:
#      x y z
#    x 1.583470 0.000000 0.000000 
#    y 0.000000 1.678790 0.000000 
#    z 0.000000 0.000000 1.634010 
# 
# From -- ./inp_files/49662.got.cif
#   From: 2010.05.17/outbox.cif.g08.bks.cpg/sg65_25_cif.got.tgz:49662.got - 2010.06.03 17:01:31.
