data_PCOD9483814
_publ_section_title
;
Structure prediction by ZEFSAII (Michael W. Deem and Ramdas Pophale) SiO2 
 PCOD9483814
Probable space group: C M M M
;
_chemical_formula_sum "Si O2"
_cell_formula_units_Z 104
_cell_length_a 8.806485
_cell_length_b 20.022278
_cell_length_c 33.998353
_cell_angle_alpha 90.000000
_cell_angle_beta 90.000000
_cell_angle_gamma 90.000000
_cell_volume 5994.789881
_symmetry_space_group_name_H-M "C M M M"
_symmetry_group_IT_number 65
_symmetry_cell_setting 'orthorhombic'
loop_
_space_group_symop_operation_xyz
x,y,z
-x,-y,z
x,-y,-z
-x,y,-z
-x,-y,-z
x,y,-z
-x,y,z
x,-y,z
1/2+x,1/2+y,z
1/2-x,1/2-y,z
1/2+x,1/2-y,-z
1/2-x,1/2+y,-z
1/2-x,1/2-y,-z
1/2+x,1/2+y,-z
1/2-x,1/2+y,z
1/2+x,1/2-y,z
loop_
_atom_site_type_symbol
_atom_site_label
_atom_site_fract_x
_atom_site_fract_y
_atom_site_fract_z
Si Si1 0.318596 0.677078 0.608365
Si Si2 0.818621 0.577898 0.762540
Si Si3 0.818222 0.176869 0.698700
Si Si4 0.682259 0.422642 0.847112
Si Si5 0.817087 0.175402 0.918748
Si Si6 0.817753 0.325178 0.000000
Si Si7 0.817190 0.422096 0.544769
O O1 0.500000 0.680739 0.606075
O O2 0.250000 0.750000 0.600205
O O3 0.276987 0.659257 0.653504
O O4 0.256888 0.624290 0.577276
O O5 0.777516 0.500000 0.756277
O O6 0.745519 0.624022 0.729485
O O7 0.759935 0.596261 0.806023
O O8 0.000000 0.583832 0.761189
O O9 0.750000 0.250000 0.706772
O O10 0.000000 0.179938 0.701424
O O11 0.500000 0.420107 0.841905
O O12 0.722996 0.500000 0.856103
O O13 0.721246 0.372501 0.882310
O O14 0.750000 0.250000 0.912851
O O15 0.746742 0.146456 0.959198
O O16 0.000000 0.179986 0.922570
O O17 0.750000 0.250000 0.000000
O O18 0.000000 0.323911 0.000000
O O19 0.772915 0.403578 0.500000
O O20 0.777658 0.500000 0.550635
O O21 0.000000 0.416820 0.547198
#
# Coordination Sequence:
#
# PCOD9483814 Si02
#       7
#    16  16  16  16  16   8  16
#     4  10  21  36  55  79 106 138 175 215 261 310
#     4  10  21  36  55  79 106 138 175 213 256 309
#     4  10  21  37  56  78 106 138 173 216 262 309
#     4   9  19  36  55  74 100 136 174 212 255 301
#     4  10  19  32  52  76 101 130 167 209 252 301
#     4  10  18  30  49  72 101 133 165 205 251 298
#     4   9  19  36  56  78 106 140 176 215 260 308
#
# _framework density 17.348396999999999
#
# number of rings (size 3 to 8) (size 9 to 14) (size 15 to 20)
#    0.000    2.308    0.000    3.923    0.000    6.154 
#    0.000    5.769    0.000    2.308    0.000    0.000 
#    0.000    0.000    0.000    0.000    0.000    0.000 
#
# Total GULP energy -290157.604503 kJ/mol
# GULP energy per Si atom -5579.953933 kJ/mol
# Density = 1.730891 g / cm^3
# Si number density = 17.348397 Si / 1000 Ang^3
#
#
#
# Elastic Constant Matrix: (Units=GPa)
#
#
# Indices 1 2 3 4 5 6 
#
# 1 63.1905 52.1876 73.6016 0.0000 0.0000 0.0000
# 2 52.1876 93.2808 115.6135 0.0000 0.0000 0.0000
# 3 73.6016 115.6135 181.7650 0.0000 0.0000 0.0000
# 4 0.0000 0.0000 0.0000 50.6372 0.0000 0.0000
# 5 0.0000 0.0000 0.0000 0.0000 31.7211 0.0000
# 6 0.0000 0.0000 0.0000 0.0000 0.0000 28.6065
#
#
#
# Elastic Compliance Matrix: (Units=1/GPa)
#
#
# Indices 1 2 3 4 5 6 
#
# 1 0.031323 -0.008524 -0.007262 0.000000 0.000000 0.000000
# 2 -0.008524 0.052969 -0.030240 0.000000 0.000000 0.000000
# 3 -0.007262 -0.030240 0.027677 0.000000 0.000000 0.000000
# 4 0.000000 0.000000 0.000000 0.019748 0.000000 0.000000
# 5 0.000000 0.000000 0.000000 0.000000 0.031525 0.000000
# 6 0.000000 0.000000 0.000000 0.000000 0.000000 0.034957
#
#
# Mechanical properties :
#
#
# Convention : Reuss Voigt Hill
#
# Bulk Modulus (GPa) = 50.20732 91.22687 70.71709
# Shear Modulus (GPa) = 16.84132 28.64853 22.74492
#
# Velocity S-wave (km/s) = 3.11910 4.06811 3.62480
# Velocity P-wave (km/s) = 6.47882 8.64670 7.64004
#
# Compressibility (1/GPa) = 0.01991742
#
# Stress axis : x y z
#
# Youngs Moduli (GPa) = 31.92529 18.87907 36.13157
#
# Poissons Ratio (x) = 0.16092 0.26239
# Poissons Ratio (y) = 0.27212 1.09261
# Poissons Ratio (z) = 0.23185 0.57090
#
# Static dielectric constant tensor:
#      x y z
#    x 1.581710 0.000000 0.000000 
#    y 0.000000 1.565180 0.000000 
#    z 0.000000 0.000000 1.587600 
# 
# From -- ./inp_files/76848.got.cif
#   From: 2010.05.17/outbox.cif.g08.bks.cpg/sg65_39_cif.got.tgz:76848.got - 2010.06.03 17:01:31.
