data_PCOD9483747
_publ_section_title
;
Structure prediction by ZEFSAII (Michael W. Deem and Ramdas Pophale) SiO2 
 PCOD9483747
Probable space group: C M M M
;
_chemical_formula_sum "Si O2"
_cell_formula_units_Z 72
_cell_length_a 29.433930
_cell_length_b 8.487682
_cell_length_c 16.147680
_cell_angle_alpha 90.000000
_cell_angle_beta 90.000000
_cell_angle_gamma 90.000000
_cell_volume 4034.107685
_symmetry_space_group_name_H-M "C M M M"
_symmetry_group_IT_number 65
_symmetry_cell_setting 'orthorhombic'
loop_
_space_group_symop_operation_xyz
x,y,z
-x,-y,z
x,-y,-z
-x,y,-z
-x,-y,-z
x,y,-z
-x,y,z
x,-y,z
1/2+x,1/2+y,z
1/2-x,1/2-y,z
1/2+x,1/2-y,-z
1/2-x,1/2+y,-z
1/2-x,1/2-y,-z
1/2+x,1/2+y,-z
1/2-x,1/2+y,z
1/2+x,1/2-y,z
loop_
_atom_site_type_symbol
_atom_site_label
_atom_site_fract_x
_atom_site_fract_y
_atom_site_fract_z
Si Si1 0.801043 0.688064 0.824906
Si Si2 0.947917 0.189990 0.593955
Si Si3 0.053338 0.691622 0.908035
Si Si4 0.301951 0.687905 0.000000
Si Si5 0.608972 0.190235 0.746961
O O1 0.798489 0.500000 0.828181
O O2 0.750000 0.750000 0.812321
O O3 0.838421 0.737539 0.757870
O O4 0.820111 0.745944 0.913810
O O5 0.936430 0.240331 0.500000
O O6 0.914650 0.251354 0.664085
O O7 0.000000 0.240600 0.611176
O O8 0.947432 0.000000 0.595075
O O9 0.056024 0.500000 0.908720
O O10 0.081402 0.746669 0.828483
O O11 0.000000 0.732051 0.898940
O O12 0.068526 0.745677 0.000000
O O13 0.250000 0.750000 0.000000
O O14 0.302645 0.500000 0.000000
O O15 0.607424 0.000000 0.747583
#
# Coordination Sequence:
#
# PCOD9483747 Si02
#       5
#    16  16  16   8  16
#     4  10  20  33  49  71 101 136 174 218 265 308
#     4   9  19  36  56  78 106 138 167 200 252 314
#     4   8  14  25  42  66  97 130 161 195 240 294
#     4  10  18  30  48  68  93 130 175 218 260 301
#     4  10  20  31  51  78 101 131 172 217 259 299
#
# _framework density 17.847814
#
# number of rings (size 3 to 8) (size 9 to 14) (size 15 to 20)
#    0.000    2.667    0.000    5.000    1.556    3.556 
#    0.000    1.111    0.000    0.667    0.000    3.111 
#    0.000    0.000    0.000    0.000    0.000    0.000 
#
# Total GULP energy -200724.220053 kJ/mol
# GULP energy per Si atom -5575.672779 kJ/mol
# Density = 1.780719 g / cm^3
# Si number density = 17.847814 Si / 1000 Ang^3
#
#
#
# Elastic Constant Matrix: (Units=GPa)
#
#
# Indices 1 2 3 4 5 6 
#
# 1 117.0895 28.4797 100.9299 0.0000 0.0000 0.0000
# 2 28.4797 28.7353 25.1485 0.0000 0.0000 0.0000
# 3 100.9299 25.1485 141.9808 0.0000 0.0000 0.0000
# 4 0.0000 0.0000 0.0000 24.1912 0.0000 0.0000
# 5 0.0000 0.0000 0.0000 0.0000 20.2945 0.0000
# 6 0.0000 0.0000 0.0000 0.0000 0.0000 17.5393
#
#
#
# Elastic Compliance Matrix: (Units=1/GPa)
#
#
# Indices 1 2 3 4 5 6 
#
# 1 0.024563 -0.010726 -0.015561 0.000000 0.000000 0.000000
# 2 -0.010726 0.045868 -0.000500 0.000000 0.000000 0.000000
# 3 -0.015561 -0.000500 0.018194 0.000000 0.000000 0.000000
# 4 0.000000 0.000000 0.000000 0.041337 0.000000 0.000000
# 5 0.000000 0.000000 0.000000 0.000000 0.049274 0.000000
# 6 0.000000 0.000000 0.000000 0.000000 0.000000 0.057015
#
#
# Mechanical properties :
#
#
# Convention : Reuss Voigt Hill
#
# Bulk Modulus (GPa) = 28.52969 66.32465 47.42717
# Shear Modulus (GPa) = 16.58327 21.28815 18.93571
#
# Velocity S-wave (km/s) = 3.05150 3.45738 3.26076
# Velocity P-wave (km/s) = 5.33247 7.29245 6.38808
#
# Compressibility (1/GPa) = 0.03505120
#
# Stress axis : x y z
#
# Youngs Moduli (GPa) = 40.71180 21.80170 54.96376
#
# Poissons Ratio (x) = 0.23383 0.85531
# Poissons Ratio (y) = 0.43666 0.02748
# Poissons Ratio (z) = 0.63353 0.01090
#
# Static dielectric constant tensor:
#      x y z
#    x 1.616150 0.000000 0.000000 
#    y 0.000000 1.611330 0.000000 
#    z 0.000000 0.000000 1.611730 
# 
# From -- ./inp_files/36559.got.cif
#   From: 2010.05.17/outbox.cif.g08.bks.cpg/sg65_19_cif.got.tgz:36559.got - 2010.06.03 17:01:31.
