data_PCOD9483982
_publ_section_title
;
Structure prediction by ZEFSAII (Michael W. Deem and Ramdas Pophale) SiO2 
 PCOD9483982
Probable space group: C M M M
;
_chemical_formula_sum "Si O2"
_cell_formula_units_Z 88
_cell_length_a 20.886576
_cell_length_b 8.497027
_cell_length_c 25.847329
_cell_angle_alpha 90.000000
_cell_angle_beta 90.000000
_cell_angle_gamma 90.000000
_cell_volume 4587.223703
_symmetry_space_group_name_H-M "C M M M"
_symmetry_group_IT_number 65
_symmetry_cell_setting 'orthorhombic'
loop_
_space_group_symop_operation_xyz
x,y,z
-x,-y,z
x,-y,-z
-x,y,-z
-x,-y,-z
x,y,-z
-x,y,z
x,-y,z
1/2+x,1/2+y,z
1/2-x,1/2-y,z
1/2+x,1/2-y,-z
1/2-x,1/2+y,-z
1/2-x,1/2-y,-z
1/2+x,1/2+y,-z
1/2-x,1/2+y,z
1/2+x,1/2-y,z
loop_
_atom_site_type_symbol
_atom_site_label
_atom_site_fract_x
_atom_site_fract_y
_atom_site_fract_z
Si Si1 0.873009 0.187838 0.393402
Si Si2 0.180283 0.686812 0.500000
Si Si3 0.676341 0.310971 0.889240
Si Si4 0.000000 0.313128 0.438142
Si Si5 0.075207 0.808476 0.199995
Si Si6 0.322673 0.188028 0.000000
Si Si7 0.320094 0.309870 0.284247
O O1 0.844715 0.241646 0.447372
O O2 0.942359 0.257495 0.402237
O O3 0.834663 0.243350 0.342982
O O4 0.875979 0.000000 0.390120
O O5 0.171070 0.500000 0.500000
O O6 0.250000 0.750000 0.500000
O O7 0.680792 0.500000 0.888962
O O8 0.750000 0.250000 0.879995
O O9 0.622192 0.262514 0.847655
O O10 0.652443 0.253002 0.945519
O O11 0.000000 0.500000 0.443120
O O12 0.000000 0.255094 0.500000
O O13 0.118649 0.761614 0.249549
O O14 0.000000 0.755524 0.198986
O O15 0.072388 0.000000 0.199838
O O16 0.250000 0.250000 0.000000
O O17 0.324263 0.000000 0.000000
O O18 0.317374 0.500000 0.282526
O O19 0.250000 0.250000 0.267057
#
# Coordination Sequence:
#
# PCOD9483982 Si02
#       7
#    16   8  16   8  16   8  16
#     4  11  23  38  60  87 112 147 189 232 282 344
#     4  12  24  39  58  81 112 148 184 234 288 344
#     4  10  18  31  55  84 113 149 189 235 280 330
#     4  11  23  39  59  85 116 152 184 227 284 339
#     4   9  19  36  58  83 113 149 191 234 280 334
#     4  10  18  30  51  80 115 151 187 235 279 328
#     4  10  22  39  62  88 114 147 187 236 287 340
#
# _framework density 19.183717000000001
#
# number of rings (size 3 to 8) (size 9 to 14) (size 15 to 20)
#    0.000    1.727    0.909    5.182    1.273    3.273 
#    0.000    1.364    0.000    7.091    0.000    0.000 
#    0.000    0.000    0.000    0.000    0.000    0.000 
#
# Total GULP energy -245021.304166 kJ/mol
# GULP energy per Si atom -5568.666004 kJ/mol
# Density = 1.914005 g / cm^3
# Si number density = 19.183717 Si / 1000 Ang^3
#
#
#
# Elastic Constant Matrix: (Units=GPa)
#
#
# Indices 1 2 3 4 5 6 
#
# 1 163.2892 17.6878 66.6920 0.0000 0.0000 0.0000
# 2 17.6878 45.3276 16.4371 0.0000 0.0000 0.0000
# 3 66.6920 16.4371 130.9640 0.0000 0.0000 0.0000
# 4 0.0000 0.0000 0.0000 -15.1710 0.0000 0.0000
# 5 0.0000 0.0000 0.0000 0.0000 27.5074 0.0000
# 6 0.0000 0.0000 0.0000 0.0000 0.0000 28.9109
#
#
#
# Elastic Compliance Matrix: (Units=1/GPa)
#
#
# Indices 1 2 3 4 5 6 
#
# 1 0.007854 -0.001691 -0.003787 0.000000 0.000000 0.000000
# 2 -0.001691 0.023478 -0.002085 0.000000 0.000000 0.000000
# 3 -0.003787 -0.002085 0.009826 0.000000 0.000000 0.000000
# 4 0.000000 0.000000 0.000000 -0.065915 0.000000 0.000000
# 5 0.000000 0.000000 0.000000 0.000000 0.036354 0.000000
# 6 0.000000 0.000000 0.000000 0.000000 0.000000 0.034589
#
#
# Mechanical properties :
#
#
# Convention : Reuss Voigt Hill
#
# Bulk Modulus (GPa) = 38.41746 60.13498 49.27622
# Shear Modulus (GPa) = 71.43832 24.16707 47.80270
#
# Velocity S-wave (km/s) = 6.10900 3.55317 4.99725
# Velocity P-wave (km/s) = 8.35640 6.94610 7.68368
#
# Compressibility (1/GPa) = 0.02602983
#
# Stress axis : x y z
#
# Youngs Moduli (GPa) = 127.32038 42.59333 101.76985
#
# Poissons Ratio (x) = 0.07205 0.38544
# Poissons Ratio (y) = 0.21536 0.21222
# Poissons Ratio (z) = 0.48221 0.08882
#
# Static dielectric constant tensor:
#      x y z
#    x 1.573360 0.000000 0.000000 
#    y 0.000000 1.663420 0.000000 
#    z 0.000000 0.000000 1.684400 
# 
# From -- ./inp_files/71040.got.cif
#   From: 2010.05.17/outbox.cif.g08.bks.cpg/sg65_36_cif.got.tgz:71040.got - 2010.06.03 17:01:31.
