data_PCOD9483367
_publ_section_title
;
Structure prediction by ZEFSAII (Michael W. Deem and Ramdas Pophale) SiO2 
 PCOD9483367
Probable space group: C M M M
;
_chemical_formula_sum "Si O2"
_cell_formula_units_Z 64
_cell_length_a 14.817315
_cell_length_b 11.470901
_cell_length_c 18.764415
_cell_angle_alpha 90.000000
_cell_angle_beta 90.000000
_cell_angle_gamma 90.000000
_cell_volume 3189.349215
_symmetry_space_group_name_H-M "C M M M"
_symmetry_group_IT_number 65
_symmetry_cell_setting 'orthorhombic'
loop_
_space_group_symop_operation_xyz
x,y,z
-x,-y,z
x,-y,-z
-x,y,-z
-x,-y,-z
x,y,-z
-x,y,z
x,-y,z
1/2+x,1/2+y,z
1/2-x,1/2-y,z
1/2+x,1/2-y,-z
1/2-x,1/2+y,-z
1/2-x,1/2-y,-z
1/2+x,1/2+y,-z
1/2-x,1/2+y,z
1/2+x,1/2-y,z
loop_
_atom_site_type_symbol
_atom_site_label
_atom_site_fract_x
_atom_site_fract_y
_atom_site_fract_z
Si Si1 0.359568 0.757036 0.154470
Si Si2 0.600378 0.500000 0.710984
Si Si3 0.642856 0.746000 0.678269
Si Si4 0.358289 0.000000 0.917080
Si Si5 0.000000 0.362363 0.580164
Si Si6 0.154189 0.000000 0.135586
O O1 0.250000 0.750000 0.149243
O O2 0.381415 0.767502 0.238415
O O3 0.389712 0.628957 0.124928
O O4 0.389381 0.876760 0.116926
O O5 0.500000 0.500000 0.743492
O O6 0.612981 0.613939 0.665544
O O7 0.669120 0.500000 0.777947
O O8 0.750000 0.750000 0.671079
O O9 0.587370 0.825169 0.625243
O O10 0.249315 0.000000 0.905002
O O11 0.379515 0.000000 0.000000
O O12 0.000000 0.500000 0.575011
O O13 0.000000 0.312692 0.500000
#
# Coordination Sequence:
#
# PCOD9483367 Si02
#       6
#    16   8  16   8   8   8
#     4   8  16  29  48  77 107 144 194 244 287 346
#     4  10  18  36  60  93 117 148 209 267 294 341
#     4  10  21  38  65  89 122 161 207 252 302 360
#     4  10  18  28  46  79 115 148 198 253 296 356
#     4  11  26  43  59  91 131 164 198 244 311 374
#     4   8  16  28  44  71 110 142 180 239 297 344
#
# _framework density 20.066789
#
# number of rings (size 3 to 8) (size 9 to 14) (size 15 to 20)
#    0.000    2.625    1.250    1.500    3.500    5.000 
#    0.000    1.250    0.000    0.375    0.000    1.750 
#    0.000    0.000    0.000    0.000    0.000    0.000 
#
# Total GULP energy -178321.638651 kJ/mol
# GULP energy per Si atom -5572.551208 kJ/mol
# Density = 2.002112 g / cm^3
# Si number density = 20.066789 Si / 1000 Ang^3
#
#
#
# Elastic Constant Matrix: (Units=GPa)
#
#
# Indices 1 2 3 4 5 6 
#
# 1 84.5545 26.6066 36.1004 0.0000 0.0000 0.0000
# 2 26.6066 196.5942 74.8877 0.0000 0.0000 0.0000
# 3 36.1004 74.8877 96.8193 0.0000 0.0000 0.0000
# 4 0.0000 0.0000 0.0000 19.2515 0.0000 0.0000
# 5 0.0000 0.0000 0.0000 0.0000 26.8931 0.0000
# 6 0.0000 0.0000 0.0000 0.0000 0.0000 14.7805
#
#
#
# Elastic Compliance Matrix: (Units=1/GPa)
#
#
# Indices 1 2 3 4 5 6 
#
# 1 0.014068 0.000134 -0.005349 0.000000 0.000000 0.000000
# 2 0.000134 0.007213 -0.005629 0.000000 0.000000 0.000000
# 3 -0.005349 -0.005629 0.016677 0.000000 0.000000 0.000000
# 4 0.000000 0.000000 0.000000 0.051944 0.000000 0.000000
# 5 0.000000 0.000000 0.000000 0.000000 0.037184 0.000000
# 6 0.000000 0.000000 0.000000 0.000000 0.000000 0.067657
#
#
# Mechanical properties :
#
#
# Convention : Reuss Voigt Hill
#
# Bulk Modulus (GPa) = 61.46418 72.57304 67.01861
# Shear Modulus (GPa) = 22.53742 28.20992 25.37367
#
# Velocity S-wave (km/s) = 3.35493 3.75347 3.55978
# Velocity P-wave (km/s) = 6.76045 7.41815 7.09693
#
# Compressibility (1/GPa) = 0.01626964
#
# Stress axis : x y z
#
# Youngs Moduli (GPa) = 71.08143 138.64578 59.96450
#
# Poissons Ratio (x) = -0.01852 0.32074
# Poissons Ratio (y) = -0.00949 0.33752
# Poissons Ratio (z) = 0.38021 0.78038
#
# Static dielectric constant tensor:
#      x y z
#    x 1.738840 0.000000 0.000000 
#    y 0.000000 1.773430 0.000000 
#    z 0.000000 0.000000 1.654840 
# 
# From -- ./inp_files/52582.got.cif
#   From: 2010.05.17/outbox.cif.g08.bks.cpg/sg65_27_cif.got.tgz:52582.got - 2010.06.03 17:01:31.
