data_PCOD9483361
_publ_section_title
;
Structure prediction by ZEFSAII (Michael W. Deem and Ramdas Pophale) SiO2 
 PCOD9483361
Probable space group: C M M M
;
_chemical_formula_sum "Si O2"
_cell_formula_units_Z 64
_cell_length_a 24.540932
_cell_length_b 21.897531
_cell_length_c 7.787463
_cell_angle_alpha 90.000000
_cell_angle_beta 90.000000
_cell_angle_gamma 90.000000
_cell_volume 4184.872184
_symmetry_space_group_name_H-M "C M M M"
_symmetry_group_IT_number 65
_symmetry_cell_setting 'orthorhombic'
loop_
_space_group_symop_operation_xyz
x,y,z
-x,-y,z
x,-y,-z
-x,y,-z
-x,-y,-z
x,y,-z
-x,y,z
x,-y,z
1/2+x,1/2+y,z
1/2-x,1/2-y,z
1/2+x,1/2-y,-z
1/2-x,1/2+y,-z
1/2-x,1/2-y,-z
1/2+x,1/2+y,-z
1/2-x,1/2+y,z
1/2+x,1/2-y,z
loop_
_atom_site_type_symbol
_atom_site_label
_atom_site_fract_x
_atom_site_fract_y
_atom_site_fract_z
Si Si1 0.276924 0.651167 0.805093
Si Si2 0.438138 0.737510 0.802005
Si Si3 0.174136 0.072093 0.500000
Si Si4 0.327934 0.782145 0.705562
Si Si5 0.562141 0.361362 0.500000
O O1 0.298644 0.603869 0.665731
O O2 0.306978 0.716080 0.771438
O O3 0.213321 0.667547 0.777400
O O4 0.286951 0.631900 0.000000
O O5 0.500000 0.760680 0.779341
O O6 0.390573 0.785489 0.761664
O O7 0.431312 0.682421 0.666458
O O8 0.432505 0.717194 0.000000
O O9 0.110238 0.089988 0.500000
O O10 0.181640 0.000000 0.500000
O O11 0.323584 0.781872 0.500000
O O12 0.500000 0.385080 0.500000
#
# Coordination Sequence:
#
# PCOD9483361 Si02
#       5
#    16  16   8  16   8
#     4  11  20  33  51  72  97 126 161 200 252 304
#     4  10  18  28  46  73 103 131 160 195 239 293
#     4  12  24  37  50  69  96 128 174 220 246 281
#     4  11  17  30  52  75 101 127 154 200 249 301
#     4  10  20  34  49  66  92 130 170 209 247 280
#
# _framework density 15.293179
#
# number of rings (size 3 to 8) (size 9 to 14) (size 15 to 20)
#    0.000    1.250    6.250    3.750    0.000    0.750 
#    0.000    0.000    0.000    0.000    0.000    5.250 
#    0.000    2.000    0.000    5.250    0.000    0.000 
#
# Total GULP energy -178513.871222 kJ/mol
# GULP energy per Si atom -5578.558476 kJ/mol
# Density = 1.525837 g / cm^3
# Si number density = 15.293179 Si / 1000 Ang^3
#
#
#
# Elastic Constant Matrix: (Units=GPa)
#
#
# Indices 1 2 3 4 5 6 
#
# 1 112.9381 44.6648 35.0977 0.0000 0.0000 0.0000
# 2 44.6648 59.8550 33.2880 0.0000 0.0000 0.0000
# 3 35.0977 33.2880 142.1158 0.0000 0.0000 0.0000
# 4 0.0000 0.0000 0.0000 -1.7294 0.0000 0.0000
# 5 0.0000 0.0000 0.0000 0.0000 30.0386 0.0000
# 6 0.0000 0.0000 0.0000 0.0000 0.0000 14.1571
#
#
#
# Elastic Compliance Matrix: (Units=1/GPa)
#
#
# Indices 1 2 3 4 5 6 
#
# 1 0.012697 -0.008889 -0.001054 0.000000 0.000000 0.000000
# 2 -0.008889 0.025432 -0.003762 0.000000 0.000000 0.000000
# 3 -0.001054 -0.003762 0.008178 0.000000 0.000000 0.000000
# 4 0.000000 0.000000 0.000000 -0.578220 0.000000 0.000000
# 5 0.000000 0.000000 0.000000 0.000000 0.033291 0.000000
# 6 0.000000 0.000000 0.000000 0.000000 0.000000 0.070636
#
#
# Mechanical properties :
#
#
# Convention : Reuss Voigt Hill
#
# Bulk Modulus (GPa) = 52.91418 60.11223 56.51320
# Shear Modulus (GPa) = -12.68139 21.95048 4.63454
#
# Velocity S-wave (km/s) = -2.88274 3.79266 1.74271
# Velocity P-wave (km/s) = 4.85744 7.65316 6.40959
#
# Compressibility (1/GPa) = 0.01889853
#
# Stress axis : x y z
#
# Youngs Moduli (GPa) = 78.75718 39.32032 122.28112
#
# Poissons Ratio (x) = 0.34951 0.12885
# Poissons Ratio (y) = 0.70006 0.45999
# Poissons Ratio (z) = 0.08299 0.14791
#
# Static dielectric constant tensor:
#      x y z
#    x 1.566810 0.000000 0.000000 
#    y 0.000000 1.448710 0.000000 
#    z 0.000000 0.000000 1.527410 
# 
# From -- ./inp_files/13715.got.cif
#   From: 2010.05.17/outbox.cif.g08.bks.cpg/sg65_7_cif.got.tgz:13715.got - 2010.06.03 17:01:31.
