data_PCOD9483921
_publ_section_title
;
Structure prediction by ZEFSAII (Michael W. Deem and Ramdas Pophale) SiO2 
 PCOD9483921
Probable space group: C M M M
;
_chemical_formula_sum "Si O2"
_cell_formula_units_Z 96
_cell_length_a 29.978105
_cell_length_b 10.050538
_cell_length_c 14.666105
_cell_angle_alpha 90.000000
_cell_angle_beta 90.000000
_cell_angle_gamma 90.000000
_cell_volume 4418.839996
_symmetry_space_group_name_H-M "C M M M"
_symmetry_group_IT_number 65
_symmetry_cell_setting 'orthorhombic'
loop_
_space_group_symop_operation_xyz
x,y,z
-x,-y,z
x,-y,-z
-x,y,-z
-x,-y,-z
x,y,-z
-x,y,z
x,-y,z
1/2+x,1/2+y,z
1/2-x,1/2-y,z
1/2+x,1/2-y,-z
1/2-x,1/2+y,-z
1/2-x,1/2-y,-z
1/2+x,1/2+y,-z
1/2-x,1/2+y,z
1/2+x,1/2-y,z
loop_
_atom_site_type_symbol
_atom_site_label
_atom_site_fract_x
_atom_site_fract_y
_atom_site_fract_z
Si Si1 0.697406 0.000000 0.388008
Si Si2 0.370435 0.652170 0.893520
Si Si3 0.300027 0.500000 0.387899
Si Si4 0.450172 0.151481 0.646797
Si Si5 0.143728 0.246705 0.391279
Si Si6 0.708167 0.155889 0.111599
Si Si7 0.051026 0.351706 0.865542
O O1 0.748724 0.000000 0.359041
O O2 0.669171 0.124711 0.356020
O O3 0.697997 0.000000 0.500000
O O4 0.370869 0.500000 0.856053
O O5 0.335027 0.760034 0.856213
O O6 0.417545 0.729026 0.889973
O O7 0.358571 0.638082 0.000000
O O8 0.299060 0.500000 0.500000
O O9 0.328569 0.376063 0.355338
O O10 0.500000 0.190539 0.615909
O O11 0.408938 0.244997 0.623519
O O12 0.450814 0.145090 0.755949
O O13 0.441364 0.000000 0.613007
O O14 0.149574 0.245695 0.500000
O O15 0.750000 0.250000 0.137049
O O16 0.709925 0.000000 0.141543
O O17 0.707502 0.149841 0.000000
O O18 0.067268 0.500000 0.894654
O O19 0.000000 0.336124 0.897089
#
# Coordination Sequence:
#
# PCOD9483921 Si02
#       7
#     8  16   8  16  16  16  16
#     4   9  16  28  49  75 101 135 175 210 250 304
#     4  10  20  33  51  78 107 132 164 210 259 305
#     4   9  18  30  45  71 109 139 167 212 258 304
#     4   9  18  34  54  75  99 131 175 220 259 306
#     4  10  18  30  50  78 106 136 173 213 259 302
#     4   9  16  27  46  73 104 136 169 203 243 295
#     4   9  19  36  55  73  96 131 171 209 256 314
#
# _framework density 21.725159000000001
#
# number of rings (size 3 to 8) (size 9 to 14) (size 15 to 20)
#    0.000    2.667    0.833    2.500    0.000    6.000 
#    1.500    2.917    0.000    3.500    0.000    0.000 
#    0.000    0.000    0.000    0.000    0.000    0.000 
#
# Total GULP energy -267767.229622 kJ/mol
# GULP energy per Si atom -5578.483950 kJ/mol
# Density = 2.167571 g / cm^3
# Si number density = 21.725159 Si / 1000 Ang^3
#
#
#
# Elastic Constant Matrix: (Units=GPa)
#
#
# Indices 1 2 3 4 5 6 
#
# 1 149.5429 85.2731 -3.1690 0.0000 0.0000 0.0000
# 2 85.2731 188.9434 14.9400 0.0000 0.0000 0.0000
# 3 -3.1690 14.9400 45.7567 0.0000 0.0000 0.0000
# 4 0.0000 0.0000 0.0000 15.4002 0.0000 0.0000
# 5 0.0000 0.0000 0.0000 0.0000 30.8632 0.0000
# 6 0.0000 0.0000 0.0000 0.0000 0.0000 118.7574
#
#
#
# Elastic Compliance Matrix: (Units=1/GPa)
#
#
# Indices 1 2 3 4 5 6 
#
# 1 0.009187 -0.004308 0.002043 0.000000 0.000000 0.000000
# 2 -0.004308 0.007453 -0.002732 0.000000 0.000000 0.000000
# 3 0.002043 -0.002732 0.022888 0.000000 0.000000 0.000000
# 4 0.000000 0.000000 0.000000 0.064934 0.000000 0.000000
# 5 0.000000 0.000000 0.000000 0.000000 0.032401 0.000000
# 6 0.000000 0.000000 0.000000 0.000000 0.000000 0.008421
#
#
# Mechanical properties :
#
#
# Convention : Reuss Voigt Hill
#
# Bulk Modulus (GPa) = 33.85900 64.25902 49.05901
# Shear Modulus (GPa) = 30.28082 52.15075 41.21579
#
# Velocity S-wave (km/s) = 3.73743 4.90478 4.36035
# Velocity P-wave (km/s) = 5.85180 7.85609 6.92682
#
# Compressibility (1/GPa) = 0.02953425
#
# Stress axis : x y z
#
# Youngs Moduli (GPa) = 108.85387 134.18009 43.69082
#
# Poissons Ratio (x) = 0.57799 -0.08925
# Poissons Ratio (y) = 0.46890 0.11935
# Poissons Ratio (z) = -0.22236 0.36654
#
# Static dielectric constant tensor:
#      x y z
#    x 1.783070 0.000000 0.000000 
#    y 0.000000 1.743380 0.000000 
#    z 0.000000 0.000000 1.845540 
# 
# From -- ./inp_files/71487.got.cif
#   From: 2010.05.17/outbox.cif.g08.bks.cpg/sg65_36_cif.got.tgz:71487.got - 2010.06.03 17:01:31.
