data_PCOD9483635
_publ_section_title
;
Structure prediction by ZEFSAII (Michael W. Deem and Ramdas Pophale) SiO2 
 PCOD9483635
Probable space group: C M M M
;
_chemical_formula_sum "Si O2"
_cell_formula_units_Z 104
_cell_length_a 27.291242
_cell_length_b 24.266385
_cell_length_c 7.586610
_cell_angle_alpha 90.000000
_cell_angle_beta 90.000000
_cell_angle_gamma 90.000000
_cell_volume 5024.306711
_symmetry_space_group_name_H-M "C M M M"
_symmetry_group_IT_number 65
_symmetry_cell_setting 'orthorhombic'
loop_
_space_group_symop_operation_xyz
x,y,z
-x,-y,z
x,-y,-z
-x,y,-z
-x,-y,-z
x,y,-z
-x,y,z
x,-y,z
1/2+x,1/2+y,z
1/2-x,1/2-y,z
1/2+x,1/2-y,-z
1/2-x,1/2+y,-z
1/2-x,1/2-y,-z
1/2+x,1/2+y,-z
1/2-x,1/2+y,z
1/2+x,1/2-y,z
loop_
_atom_site_type_symbol
_atom_site_label
_atom_site_fract_x
_atom_site_fract_y
_atom_site_fract_z
Si Si1 0.052640 0.562607 0.285176
Si Si2 0.827484 0.061006 0.711758
Si Si3 0.212631 0.561730 0.791882
Si Si4 0.943318 0.259614 0.283743
Si Si5 0.368577 0.145870 0.289355
Si Si6 0.909461 0.139973 0.293718
Si Si7 0.000000 0.063155 0.212220
O O1 0.054440 0.562394 0.500000
O O2 0.055030 0.500000 0.226982
O O3 0.096967 0.597339 0.218600
O O4 0.000000 0.586522 0.236108
O O5 0.833689 0.060181 0.500000
O O6 0.770010 0.067420 0.748243
O O7 0.861179 0.110377 0.781887
O O8 0.842518 0.000000 0.778015
O O9 0.196722 0.500000 0.719393
O O10 0.184443 0.618073 0.740420
O O11 0.207175 0.557962 0.000000
O O12 0.944767 0.261048 0.500000
O O13 0.898368 0.299801 0.227223
O O14 0.928965 0.198115 0.222935
O O15 0.000000 0.272813 0.230029
O O16 0.371881 0.150003 0.500000
O O17 0.899661 0.150951 0.500000
O O18 0.952538 0.095582 0.277628
O O19 0.000000 0.000000 0.271093
O O20 0.000000 0.064331 0.000000
#
# Coordination Sequence:
#
# PCOD9483635 Si02
#       7
#    16  16  16  16  16  16   8
#     4   8  13  21  36  63  95 122 154 203 259 307
#     4   9  18  33  55  81 104 131 173 220 267 322
#     4  10  21  36  53  74 103 138 174 219 276 327
#     4   9  17  31  53  81 110 140 176 220 265 309
#     4  10  18  29  50  76 101 134 177 220 260 308
#     4  10  19  35  58  82 110 143 177 218 267 316
#     4  11  23  35  51  81 117 147 178 217 260 315
#
# _framework density 20.699373000000001
#
# number of rings (size 3 to 8) (size 9 to 14) (size 15 to 20)
#    0.000    2.538    0.769    2.538    0.000    5.231 
#    0.000    3.077    0.000    6.000    0.000    5.385 
#    0.000    0.000    0.000    0.000    0.000    0.000 
#
# Total GULP energy -289588.687926 kJ/mol
# GULP energy per Si atom -5569.013229 kJ/mol
# Density = 2.065226 g / cm^3
# Si number density = 20.699373 Si / 1000 Ang^3
#
#
#
# Elastic Constant Matrix: (Units=GPa)
#
#
# Indices 1 2 3 4 5 6 
#
# 1 100.5763 71.8388 -5.5399 0.0000 0.0000 0.0000
# 2 71.8388 140.4506 2.4543 0.0000 0.0000 0.0000
# 3 -5.5399 2.4543 46.1455 0.0000 0.0000 0.0000
# 4 0.0000 0.0000 0.0000 1.0098 0.0000 0.0000
# 5 0.0000 0.0000 0.0000 0.0000 -628.5525 0.0000
# 6 0.0000 0.0000 0.0000 0.0000 0.0000 558.0000
#
#
#
# Elastic Compliance Matrix: (Units=1/GPa)
#
#
# Indices 1 2 3 4 5 6 
#
# 1 0.015916 -0.008182 0.002346 0.000000 0.000000 0.000000
# 2 -0.008182 0.011333 -0.001585 0.000000 0.000000 0.000000
# 3 0.002346 -0.001585 0.022037 0.000000 0.000000 0.000000
# 4 0.000000 0.000000 0.000000 0.990293 0.000000 0.000000
# 5 0.000000 0.000000 0.000000 0.000000 -0.001591 0.000000
# 6 0.000000 0.000000 0.000000 0.000000 0.000000 0.001792
#
#
# Mechanical properties :
#
#
# Convention : Reuss Voigt Hill
#
# Bulk Modulus (GPa) = 29.03328 47.18654 38.10991
# Shear Modulus (GPa) = 4.68998 0.65276 2.67137
#
# Velocity S-wave (km/s) = 1.50688 0.56217 1.13726
# Velocity P-wave (km/s) = 4.13330 4.82359 4.49172
#
# Compressibility (1/GPa) = 0.03444324
#
# Stress axis : x y z
#
# Youngs Moduli (GPa) = 62.83009 88.24157 45.37923
#
# Poissons Ratio (x) = 0.72198 -0.10646
# Poissons Ratio (y) = 0.51406 0.07193
# Poissons Ratio (z) = -0.14739 0.13986
#
# Static dielectric constant tensor:
#      x y z
#    x 1.700090 0.000000 0.000000 
#    y 0.000000 1.772320 0.000000 
#    z 0.000000 0.000000 1.795870 
# 
# From -- ./inp_files/16742.got.cif
#   From: 2010.05.17/outbox.cif.g08.bks.cpg/sg65_9_cif.got.tgz:16742.got - 2010.06.03 17:01:31.
