data_PCOD9483851
_publ_section_title
;
Structure prediction by ZEFSAII (Michael W. Deem and Ramdas Pophale) SiO2 
 PCOD9483851
Probable space group: C M M M
;
_chemical_formula_sum "Si O2"
_cell_formula_units_Z 72
_cell_length_a 18.840865
_cell_length_b 8.550664
_cell_length_c 23.982695
_cell_angle_alpha 90.000000
_cell_angle_beta 90.000000
_cell_angle_gamma 90.000000
_cell_volume 3863.657878
_symmetry_space_group_name_H-M "C M M M"
_symmetry_group_IT_number 65
_symmetry_cell_setting 'orthorhombic'
loop_
_space_group_symop_operation_xyz
x,y,z
-x,-y,z
x,-y,-z
-x,y,-z
-x,-y,-z
x,y,-z
-x,y,z
x,-y,z
1/2+x,1/2+y,z
1/2-x,1/2-y,z
1/2+x,1/2-y,-z
1/2-x,1/2+y,-z
1/2-x,1/2-y,-z
1/2+x,1/2+y,-z
1/2-x,1/2+y,z
1/2+x,1/2-y,z
loop_
_atom_site_type_symbol
_atom_site_label
_atom_site_fract_x
_atom_site_fract_y
_atom_site_fract_z
Si Si1 0.582196 0.688686 0.063582
Si Si2 0.169065 0.186458 0.500000
Si Si3 0.669474 0.187905 0.616863
Si Si4 0.081481 0.309236 0.725687
Si Si5 0.670486 0.187146 0.166606
O O1 0.500000 0.733774 0.074136
O O2 0.585724 0.500000 0.066030
O O3 0.633054 0.758806 0.109859
O O4 0.600053 0.735467 0.000000
O O5 0.250000 0.250000 0.500000
O O6 0.138847 0.249354 0.441760
O O7 0.169735 0.000000 0.500000
O O8 0.750000 0.250000 0.623335
O O9 0.622678 0.237589 0.669655
O O10 0.672144 0.000000 0.614459
O O11 0.080836 0.500000 0.726196
O O12 0.124034 0.257471 0.780507
O O13 0.000000 0.256344 0.726452
O O14 0.750000 0.250000 0.170435
O O15 0.672379 0.000000 0.167948
#
# Coordination Sequence:
#
# PCOD9483851 Si02
#       5
#    16   8  16  16  16
#     4   9  19  37  59  82 110 143 178 218 265 317
#     4  10  18  30  49  74 105 135 169 211 253 302
#     4  10  18  31  53  77 103 134 170 211 255 306
#     4   9  19  35  54  77 104 135 173 217 263 313
#     4  11  22  36  56  81 110 142 179 223 268 315
#
# _framework density 18.635190999999999
#
# number of rings (size 3 to 8) (size 9 to 14) (size 15 to 20)
#    0.000    2.222    0.000    5.667    0.000    2.222 
#    0.000    5.000    0.000   11.333    0.000    0.000 
#    0.000    0.000    0.000    0.000    0.000    0.000 
#
# Total GULP energy -200961.814727 kJ/mol
# GULP energy per Si atom -5582.272631 kJ/mol
# Density = 1.859278 g / cm^3
# Si number density = 18.635191 Si / 1000 Ang^3
#
#
#
# Elastic Constant Matrix: (Units=GPa)
#
#
# Indices 1 2 3 4 5 6 
#
# 1 139.0010 32.2087 118.7158 0.0000 0.0000 0.0000
# 2 32.2087 52.1904 41.6966 0.0000 0.0000 0.0000
# 3 118.7158 41.6966 195.2575 0.0000 0.0000 0.0000
# 4 0.0000 0.0000 0.0000 24.1539 0.0000 0.0000
# 5 0.0000 0.0000 0.0000 0.0000 225.9763 0.0000
# 6 0.0000 0.0000 0.0000 0.0000 0.0000 4.5955
#
#
#
# Elastic Compliance Matrix: (Units=1/GPa)
#
#
# Indices 1 2 3 4 5 6 
#
# 1 0.015212 -0.002410 -0.008734 0.000000 0.000000 0.000000
# 2 -0.002410 0.023484 -0.003550 0.000000 0.000000 0.000000
# 3 -0.008734 -0.003550 0.011190 0.000000 0.000000 0.000000
# 4 0.000000 0.000000 0.000000 0.041401 0.000000 0.000000
# 5 0.000000 0.000000 0.000000 0.000000 0.004425 0.000000
# 6 0.000000 0.000000 0.000000 0.000000 0.000000 0.217603
#
#
# Mechanical properties :
#
#
# Convention : Reuss Voigt Hill
#
# Bulk Modulus (GPa) = 48.78499 85.74344 67.26422
# Shear Modulus (GPa) = 14.30468 63.86699 39.08584
#
# Velocity S-wave (km/s) = 2.77360 5.86060 4.58473
# Velocity P-wave (km/s) = 6.04094 9.58681 8.01249
#
# Compressibility (1/GPa) = 0.02049811
#
# Stress axis : x y z
#
# Youngs Moduli (GPa) = 65.73593 42.58252 89.36575
#
# Poissons Ratio (x) = 0.10262 0.78056
# Poissons Ratio (y) = 0.15842 0.31722
# Poissons Ratio (z) = 0.57417 0.15115
#
# Static dielectric constant tensor:
#      x y z
#    x 1.603960 0.000000 0.000000 
#    y 0.000000 1.620580 0.000000 
#    z 0.000000 0.000000 1.652080 
# 
# From -- ./inp_files/70358.got.cif
#   From: 2010.05.17/outbox.cif.g08.bks.cpg/sg65_36_cif.got.tgz:70358.got - 2010.06.03 17:01:31.
