data_PCOD9483294
_publ_section_title
;
Structure prediction by ZEFSAII (Michael W. Deem and Ramdas Pophale) SiO2 
 PCOD9483294
Probable space group: C M M M
;
_chemical_formula_sum "Si O2"
_cell_formula_units_Z 96
_cell_length_a 10.959486
_cell_length_b 27.206850
_cell_length_c 21.719982
_cell_angle_alpha 90.000000
_cell_angle_beta 90.000000
_cell_angle_gamma 90.000000
_cell_volume 6476.314184
_symmetry_space_group_name_H-M "C M M M"
_symmetry_group_IT_number 65
_symmetry_cell_setting 'orthorhombic'
loop_
_space_group_symop_operation_xyz
x,y,z
-x,-y,z
x,-y,-z
-x,y,-z
-x,-y,-z
x,y,-z
-x,y,z
x,-y,z
1/2+x,1/2+y,z
1/2-x,1/2-y,z
1/2+x,1/2-y,-z
1/2-x,1/2+y,-z
1/2-x,1/2-y,-z
1/2+x,1/2+y,-z
1/2-x,1/2+y,z
1/2+x,1/2-y,z
loop_
_atom_site_type_symbol
_atom_site_label
_atom_site_fract_x
_atom_site_fract_y
_atom_site_fract_z
Si Si1 0.357185 0.710891 0.074326
Si Si2 0.000000 0.941628 0.812726
Si Si3 0.240159 0.557916 0.358429
Si Si4 0.269879 0.394667 0.120154
Si Si5 0.000000 0.060412 0.668832
Si Si6 0.500000 0.059858 0.427800
Si Si7 0.355062 0.940955 0.000000
Si Si8 0.641595 0.055252 0.222261
O O1 0.500000 0.722951 0.090546
O O2 0.250000 0.750000 0.089608
O O3 0.316176 0.659648 0.104591
O O4 0.355497 0.705207 0.000000
O O5 0.883609 0.923484 0.850584
O O6 0.000000 0.924546 0.741188
O O7 0.000000 0.000000 0.810311
O O8 0.245386 0.500000 0.374445
O O9 0.376956 0.577609 0.364918
O O10 0.124117 0.578233 0.395257
O O11 0.213609 0.560844 0.285542
O O12 0.212547 0.418939 0.059414
O O13 0.170192 0.402691 0.173491
O O14 0.000000 0.000000 0.669238
O O15 0.500000 0.070769 0.500000
O O16 0.500000 0.000000 0.420780
O O17 0.500000 0.928294 0.000000
O O18 0.346194 0.000000 0.000000
O O19 0.500000 0.055436 0.238526
O O20 0.669052 0.000000 0.196678
#
# Coordination Sequence:
#
# PCOD9483294 Si02
#       8
#    16   8  16  16   8   8   8  16
#     4  10  22  41  58  71  87 113 155 206 251 295
#     4  11  20  29  48  74  99 123 149 183 238 301
#     4   9  15  25  40  58  83 117 154 193 231 270
#     4  12  21  34  50  70  94 120 154 197 245 297
#     4   9  16  26  40  62  90 121 151 185 227 278
#     4   9  16  26  40  58  81 114 161 209 240 261
#     4  11  24  37  46  65 100 130 152 189 247 308
#     4  10  18  28  44  67  95 126 160 193 229 285
#
# _framework density 14.823245
#
# number of rings (size 3 to 8) (size 9 to 14) (size 15 to 20)
#    0.000    1.833    4.167    2.000    0.000    3.000 
#    0.000    1.250    0.000    2.500    0.000    0.000 
#    0.000    0.000    0.000    0.000    0.000    0.833 
#
# Total GULP energy -267265.808783 kJ/mol
# GULP energy per Si atom -5568.037683 kJ/mol
# Density = 1.478951 g / cm^3
# Si number density = 14.823245 Si / 1000 Ang^3
#
#
#
# Elastic Constant Matrix: (Units=GPa)
#
#
# Indices 1 2 3 4 5 6 
#
# 1 135.3730 27.0444 39.7758 0.0000 0.0000 0.0000
# 2 27.0444 45.7819 10.5848 0.0000 0.0000 0.0000
# 3 39.7758 10.5848 38.6695 0.0000 0.0000 0.0000
# 4 0.0000 0.0000 0.0000 2.0646 0.0000 0.0000
# 5 0.0000 0.0000 0.0000 0.0000 360.5223 0.0000
# 6 0.0000 0.0000 0.0000 0.0000 0.0000 14.3713
#
#
#
# Elastic Compliance Matrix: (Units=1/GPa)
#
#
# Indices 1 2 3 4 5 6 
#
# 1 0.011316 -0.004263 -0.010473 0.000000 0.000000 0.000000
# 2 -0.004263 0.024925 -0.002437 0.000000 0.000000 0.000000
# 3 -0.010473 -0.002437 0.037299 0.000000 0.000000 0.000000
# 4 0.000000 0.000000 0.000000 0.484357 0.000000 0.000000
# 5 0.000000 0.000000 0.000000 0.000000 0.002774 0.000000
# 6 0.000000 0.000000 0.000000 0.000000 0.000000 0.069583
#
#
# Mechanical properties :
#
#
# Convention : Reuss Voigt Hill
#
# Bulk Modulus (GPa) = 25.51432 41.62604 33.57018
# Shear Modulus (GPa) = 7.37828 84.88629 46.13229
#
# Velocity S-wave (km/s) = 2.23345 7.57562 5.58472
# Velocity P-wave (km/s) = 4.88885 10.23047 8.01759
#
# Compressibility (1/GPa) = 0.03919368
#
# Stress axis : x y z
#
# Youngs Moduli (GPa) = 88.37232 40.12105 26.81007
#
# Poissons Ratio (x) = 0.17104 0.28077
# Poissons Ratio (y) = 0.37675 0.06534
# Poissons Ratio (z) = 0.92548 0.09779
#
# Static dielectric constant tensor:
#      x y z
#    x 1.596520 0.000000 0.000000 
#    y 0.000000 1.454690 0.000000 
#    z 0.000000 0.000000 1.475690 
# 
# From -- ./inp_files/61683.got.cif
#   From: 2010.05.17/outbox.cif.g08.bks.cpg/sg65_31_cif.got.tgz:61683.got - 2010.06.03 17:01:31.
