data_PCOD9483909
_publ_section_title
;
Structure prediction by ZEFSAII (Michael W. Deem and Ramdas Pophale) SiO2 
 PCOD9483909
Probable space group: C M M M
;
_chemical_formula_sum "Si O2"
_cell_formula_units_Z 104
_cell_length_a 8.934411
_cell_length_b 24.219712
_cell_length_c 28.780158
_cell_angle_alpha 90.000000
_cell_angle_beta 90.000000
_cell_angle_gamma 90.000000
_cell_volume 6227.705618
_symmetry_space_group_name_H-M "C M M M"
_symmetry_group_IT_number 65
_symmetry_cell_setting 'orthorhombic'
loop_
_space_group_symop_operation_xyz
x,y,z
-x,-y,z
x,-y,-z
-x,y,-z
-x,-y,-z
x,y,-z
-x,y,z
x,-y,z
1/2+x,1/2+y,z
1/2-x,1/2-y,z
1/2+x,1/2-y,-z
1/2-x,1/2+y,-z
1/2-x,1/2-y,-z
1/2+x,1/2+y,-z
1/2-x,1/2+y,z
1/2+x,1/2-y,z
loop_
_atom_site_type_symbol
_atom_site_label
_atom_site_fract_x
_atom_site_fract_y
_atom_site_fract_z
Si Si1 0.327922 0.432994 0.000000
Si Si2 0.823964 0.385152 0.807610
Si Si3 0.322298 0.500000 0.657107
Si Si4 0.321389 0.189410 0.447289
Si Si5 0.180746 0.435285 0.096910
Si Si6 0.679351 0.310694 0.270265
Si Si7 0.318693 0.621585 0.636279
Si Si8 0.169925 0.500000 0.247007
O O1 0.246039 0.416770 0.047547
O O2 0.325295 0.500000 0.000000
O O3 0.500000 0.415041 0.000000
O O4 0.771546 0.396714 0.860217
O O5 0.736397 0.341902 0.775861
O O6 0.813567 0.445129 0.783283
O O7 0.000000 0.369741 0.808398
O O8 0.500000 0.500000 0.650156
O O9 0.265364 0.558130 0.637752
O O10 0.286556 0.500000 0.711576
O O11 0.290456 0.169490 0.500000
O O12 0.500000 0.193197 0.441554
O O13 0.250000 0.250000 0.443096
O O14 0.250884 0.151971 0.407620
O O15 0.224147 0.500000 0.104867
O O16 0.000000 0.434638 0.095427
O O17 0.500000 0.306506 0.269456
O O18 0.750000 0.250000 0.273908
O O19 0.722052 0.347247 0.315627
O O20 0.500000 0.622744 0.633357
O O21 0.000000 0.500000 0.266309
#
# Coordination Sequence:
#
# PCOD9483909 Si02
#       8
#     8  16   8  16  16  16  16   8
#     4   9  17  27  39  63  98 133 170 211 253 298
#     4  10  19  32  51  76 104 135 174 213 254 306
#     4  10  20  36  53  77 109 140 174 210 250 304
#     4  10  21  37  58  82 106 134 172 218 264 308
#     4   9  16  28  46  68  97 134 171 207 250 302
#     4  11  23  37  53  75 104 137 173 214 259 304
#     4  10  21  36  56  80 107 139 173 210 254 306
#     4  10  18  30  50  76 104 136 173 211 251 300
#
# _framework density 16.699567999999999
#
# number of rings (size 3 to 8) (size 9 to 14) (size 15 to 20)
#    0.000    2.077    2.308    1.615    0.000    5.538 
#    0.000    0.385    0.000    2.308    0.000    0.538 
#    0.000    0.000    0.000    0.000    0.000    0.000 
#
# Total GULP energy -290023.682079 kJ/mol
# GULP energy per Si atom -5577.378502 kJ/mol
# Density = 1.666156 g / cm^3
# Si number density = 16.699568 Si / 1000 Ang^3
#
#
#
# Elastic Constant Matrix: (Units=GPa)
#
#
# Indices 1 2 3 4 5 6 
#
# 1 29.6088 38.2511 45.4136 0.0000 0.0000 0.0000
# 2 38.2511 104.6631 71.2401 0.0000 0.0000 0.0000
# 3 45.4136 71.2401 154.4184 0.0000 0.0000 0.0000
# 4 0.0000 0.0000 0.0000 12.8764 0.0000 0.0000
# 5 0.0000 0.0000 0.0000 0.0000 23.1438 0.0000
# 6 0.0000 0.0000 0.0000 0.0000 0.0000 16.9877
#
#
#
# Elastic Compliance Matrix: (Units=1/GPa)
#
#
# Indices 1 2 3 4 5 6 
#
# 1 0.082751 -0.019939 -0.015138 0.000000 0.000000 0.000000
# 2 -0.019939 0.018733 -0.002778 0.000000 0.000000 0.000000
# 3 -0.015138 -0.002778 0.012210 0.000000 0.000000 0.000000
# 4 0.000000 0.000000 0.000000 0.077662 0.000000 0.000000
# 5 0.000000 0.000000 0.000000 0.000000 0.043208 0.000000
# 6 0.000000 0.000000 0.000000 0.000000 0.000000 0.058866
#
#
# Mechanical properties :
#
#
# Convention : Reuss Voigt Hill
#
# Bulk Modulus (GPa) = 26.32768 66.50001 46.41385
# Shear Modulus (GPa) = 13.09585 19.52061 16.30823
#
# Velocity S-wave (km/s) = 2.80340 3.42267 3.12840
# Velocity P-wave (km/s) = 5.12625 7.45167 6.39554
#
# Compressibility (1/GPa) = 0.03798283
#
# Stress axis : x y z
#
# Youngs Moduli (GPa) = 12.08444 53.38276 81.90308
#
# Poissons Ratio (x) = 1.06441 1.23983
# Poissons Ratio (y) = 0.24095 0.22754
# Poissons Ratio (z) = 0.18293 0.14831
#
# Static dielectric constant tensor:
#      x y z
#    x 1.564160 0.000000 0.000000 
#    y 0.000000 1.554820 0.000000 
#    z 0.000000 0.000000 1.556500 
# 
# From -- ./inp_files/73613.got.cif
#   From: 2010.05.17/outbox.cif.g08.bks.cpg/sg65_37_cif.got.tgz:73613.got - 2010.06.03 17:01:31.
