data_PCOD9483001
_publ_section_title
;
Structure prediction by ZEFSAII (Michael W. Deem and Ramdas Pophale) SiO2 
 PCOD9483001
Probable space group: C M M M
;
_chemical_formula_sum "Si O2"
_cell_formula_units_Z 88
_cell_length_a 28.533444
_cell_length_b 19.909196
_cell_length_c 9.255595
_cell_angle_alpha 90.000000
_cell_angle_beta 90.000000
_cell_angle_gamma 90.000000
_cell_volume 5257.899241
_symmetry_space_group_name_H-M "C M M M"
_symmetry_group_IT_number 65
_symmetry_cell_setting 'orthorhombic'
loop_
_space_group_symop_operation_xyz
x,y,z
-x,-y,z
x,-y,-z
-x,y,-z
-x,-y,-z
x,y,-z
-x,y,z
x,-y,z
1/2+x,1/2+y,z
1/2-x,1/2-y,z
1/2+x,1/2-y,-z
1/2-x,1/2+y,-z
1/2-x,1/2-y,-z
1/2+x,1/2+y,-z
1/2-x,1/2+y,z
1/2+x,1/2-y,z
loop_
_atom_site_type_symbol
_atom_site_label
_atom_site_fract_x
_atom_site_fract_y
_atom_site_fract_z
Si Si1 0.445156 0.859742 0.328122
Si Si2 0.219415 0.347289 0.336992
Si Si3 0.688862 0.500000 0.162104
Si Si4 0.133061 0.280407 0.171594
Si Si5 0.790424 0.500000 0.266419
Si Si6 0.185325 0.852485 0.826321
Si Si7 0.392625 0.000000 0.327238
O O1 0.440395 0.847033 0.500000
O O2 0.500000 0.859528 0.291744
O O3 0.414920 0.806130 0.240288
O O4 0.422712 0.933229 0.301705
O O5 0.218383 0.321049 0.500000
O O6 0.175126 0.321237 0.247530
O O7 0.216308 0.428441 0.343148
O O8 0.267361 0.330050 0.254351
O O9 0.745951 0.500000 0.158813
O O10 0.674648 0.571750 0.226827
O O11 0.670048 0.500000 0.000000
O O12 0.145255 0.202245 0.197512
O O13 0.133885 0.292279 0.000000
O O14 0.845641 0.500000 0.230735
O O15 0.194533 0.855481 0.000000
O O16 0.379092 0.000000 0.500000
#
# Coordination Sequence:
#
# PCOD9483001 Si02
#       7
#    16  16   8  16   8  16   8
#     4  10  21  37  56  75  95 125 168 213 252 290
#     4  11  20  31  48  71  99 132 171 208 239 280
#     4   8  16  32  51  69  96 129 167 201 234 287
#     4  11  22  34  49  70 100 131 160 199 250 301
#     4  10  18  29  46  70 100 133 170 209 242 276
#     4   9  19  34  50  71  98 130 162 198 245 293
#     4  10  17  32  52  71  96 127 168 212 249 280
#
# _framework density 16.736722
#
# number of rings (size 3 to 8) (size 9 to 14) (size 15 to 20)
#    0.000    2.000    1.818    2.727    0.000    5.818 
#    0.000    0.455    0.000    1.091    0.000    0.636 
#    0.000    5.091    0.000    0.000    0.000    0.000 
#
# Total GULP energy -245228.476593 kJ/mol
# GULP energy per Si atom -5573.374468 kJ/mol
# Density = 1.669863 g / cm^3
# Si number density = 16.736722 Si / 1000 Ang^3
#
#
#
# Elastic Constant Matrix: (Units=GPa)
#
#
# Indices 1 2 3 4 5 6 
#
# 1 93.3618 57.5296 38.0090 0.0000 0.0000 0.0000
# 2 57.5296 112.8306 42.1075 0.0000 0.0000 0.0000
# 3 38.0090 42.1075 50.5763 0.0000 0.0000 0.0000
# 4 0.0000 0.0000 0.0000 5.5115 0.0000 0.0000
# 5 0.0000 0.0000 0.0000 0.0000 24.5539 0.0000
# 6 0.0000 0.0000 0.0000 0.0000 0.0000 22.0427
#
#
#
# Elastic Compliance Matrix: (Units=1/GPa)
#
#
# Indices 1 2 3 4 5 6 
#
# 1 0.017799 -0.005924 -0.008444 0.000000 0.000000 0.000000
# 2 -0.005924 0.014829 -0.007894 0.000000 0.000000 0.000000
# 3 -0.008444 -0.007894 0.032691 0.000000 0.000000 0.000000
# 4 0.000000 0.000000 0.000000 0.181438 0.000000 0.000000
# 5 0.000000 0.000000 0.000000 0.000000 0.040727 0.000000
# 6 0.000000 0.000000 0.000000 0.000000 0.000000 0.045366
#
#
# Mechanical properties :
#
#
# Convention : Reuss Voigt Hill
#
# Bulk Modulus (GPa) = 48.09102 59.11790 53.60446
# Shear Modulus (GPa) = 13.01043 18.36314 15.68679
#
# Velocity S-wave (km/s) = 2.79114 3.31596 3.06480
# Velocity P-wave (km/s) = 6.25967 7.07529 6.67994
#
# Compressibility (1/GPa) = 0.02079391
#
# Stress axis : x y z
#
# Youngs Moduli (GPa) = 56.18217 67.43343 30.58980
#
# Poissons Ratio (x) = 0.39948 0.25831
# Poissons Ratio (y) = 0.33282 0.24148
# Poissons Ratio (z) = 0.47442 0.53234
#
# Static dielectric constant tensor:
#      x y z
#    x 1.535290 0.000000 0.000000 
#    y 0.000000 1.610940 0.000000 
#    z 0.000000 0.000000 1.572800 
# 
# From -- ./inp_files/14067.got.cif
#   From: 2010.05.17/outbox.cif.g08.bks.cpg/sg65_8_cif.got.tgz:14067.got - 2010.06.03 17:01:31.
