data_PCOD9483103
_publ_section_title
;
Structure prediction by ZEFSAII (Michael W. Deem and Ramdas Pophale) SiO2 
 PCOD9483103
Probable space group: C M M M
;
_chemical_formula_sum "Si O2"
_cell_formula_units_Z 64
_cell_length_a 7.376619
_cell_length_b 24.033416
_cell_length_c 19.183800
_cell_angle_alpha 90.000000
_cell_angle_beta 90.000000
_cell_angle_gamma 90.000000
_cell_volume 3401.006757
_symmetry_space_group_name_H-M "C M M M"
_symmetry_group_IT_number 65
_symmetry_cell_setting 'orthorhombic'
loop_
_space_group_symop_operation_xyz
x,y,z
-x,-y,z
x,-y,-z
-x,y,-z
-x,-y,-z
x,y,-z
-x,y,z
x,-y,z
1/2+x,1/2+y,z
1/2-x,1/2-y,z
1/2+x,1/2-y,-z
1/2-x,1/2+y,-z
1/2-x,1/2-y,-z
1/2+x,1/2+y,-z
1/2-x,1/2+y,z
1/2+x,1/2-y,z
loop_
_atom_site_type_symbol
_atom_site_label
_atom_site_fract_x
_atom_site_fract_y
_atom_site_fract_z
Si Si1 0.720777 0.000000 0.081315
Si Si2 0.278116 0.119342 0.863789
Si Si3 0.282873 0.816127 0.272564
Si Si4 0.784219 0.684808 0.000000
Si Si5 0.216553 0.683583 0.425051
O O1 0.776925 0.943876 0.120546
O O2 0.500000 0.000000 0.079689
O O3 0.778124 0.000000 0.000000
O O4 0.500000 0.120107 0.862567
O O5 0.215849 0.147490 0.792086
O O6 0.216866 0.155985 0.929681
O O7 0.500000 0.822287 0.274437
O O8 0.250000 0.750000 0.262366
O O9 0.213513 0.834345 0.349147
O O10 0.750000 0.750000 0.000000
O O11 0.000000 0.675878 0.000000
O O12 0.286357 0.662026 0.500000
O O13 0.250000 0.750000 0.425520
O O14 0.000000 0.674679 0.425203
#
# Coordination Sequence:
#
# PCOD9483103 Si02
#       5
#     8  16  16   8  16
#     4   9  14  24  40  56  73  95 125 164 196 212
#     4   9  16  25  38  56  76  97 124 157 190 219
#     4   9  16  25  37  56  80 101 123 152 185 224
#     4  10  18  27  39  57  79 100 121 146 182 228
#     4   8  13  21  33  49  71  99 125 147 175 213
#
# _framework density 18.817958000000001
#
# number of rings (size 3 to 8) (size 9 to 14) (size 15 to 20)
#    0.000    3.125    1.250    0.750    0.000    0.000 
#    0.000    0.000    0.000    0.000    0.000    5.250 
#    0.000    7.000    0.000    0.000    0.000  116.500 
#
# Total GULP energy -178295.042458 kJ/mol
# GULP energy per Si atom -5571.720077 kJ/mol
# Density = 1.877513 g / cm^3
# Si number density = 18.817958 Si / 1000 Ang^3
#
#
#
# Elastic Constant Matrix: (Units=GPa)
#
#
# Indices 1 2 3 4 5 6 
#
# 1 69.2440 -1.1821 12.1144 0.0000 0.0000 0.0000
# 2 -1.1821 119.6882 102.0070 0.0000 0.0000 0.0000
# 3 12.1144 102.0070 254.6233 0.0000 0.0000 0.0000
# 4 0.0000 0.0000 0.0000 2.7914 0.0000 0.0000
# 5 0.0000 0.0000 0.0000 0.0000 48.2565 0.0000
# 6 0.0000 0.0000 0.0000 0.0000 0.0000 8.0181
#
#
#
# Elastic Compliance Matrix: (Units=1/GPa)
#
#
# Indices 1 2 3 4 5 6 
#
# 1 0.014662 0.001123 -0.001147 0.000000 0.000000 0.000000
# 2 0.001123 0.012773 -0.005170 0.000000 0.000000 0.000000
# 3 -0.001147 -0.005170 0.006053 0.000000 0.000000 0.000000
# 4 0.000000 0.000000 0.000000 0.358241 0.000000 0.000000
# 5 0.000000 0.000000 0.000000 0.000000 0.020723 0.000000
# 6 0.000000 0.000000 0.000000 0.000000 0.000000 0.124718
#
#
# Mechanical properties :
#
#
# Convention : Reuss Voigt Hill
#
# Bulk Modulus (GPa) = 43.29484 74.38157 58.83820
# Shear Modulus (GPa) = 9.00480 33.85428 21.42954
#
# Velocity S-wave (km/s) = 2.18989 4.24611 3.37824
# Velocity P-wave (km/s) = 5.42690 7.97822 6.82288
#
# Compressibility (1/GPa) = 0.02309744
#
# Stress axis : x y z
#
# Youngs Moduli (GPa) = 68.20547 78.29174 165.19846
#
# Poissons Ratio (x) = -0.08789 0.18953
# Poissons Ratio (y) = -0.07657 0.85415
# Poissons Ratio (z) = 0.07825 0.40480
#
# Static dielectric constant tensor:
#      x y z
#    x 1.582000 0.000000 0.000000 
#    y 0.000000 1.550490 0.000000 
#    z 0.000000 0.000000 1.707450 
# 
# From -- ./inp_files/51242.got.cif
#   From: 2010.05.17/outbox.cif.g08.bks.cpg/sg65_26_cif.got.tgz:51242.got - 2010.06.03 17:01:31.
