data_PCOD9483043
_publ_section_title
;
Structure prediction by ZEFSAII (Michael W. Deem and Ramdas Pophale) SiO2 
 PCOD9483043
Probable space group: C M M M
;
_chemical_formula_sum "Si O2"
_cell_formula_units_Z 84
_cell_length_a 11.746328
_cell_length_b 31.216263
_cell_length_c 11.877482
_cell_angle_alpha 90.000000
_cell_angle_beta 90.000000
_cell_angle_gamma 90.000000
_cell_volume 4355.193103
_symmetry_space_group_name_H-M "C M M M"
_symmetry_group_IT_number 65
_symmetry_cell_setting 'orthorhombic'
loop_
_space_group_symop_operation_xyz
x,y,z
-x,-y,z
x,-y,-z
-x,y,-z
-x,-y,-z
x,y,-z
-x,y,z
x,-y,z
1/2+x,1/2+y,z
1/2-x,1/2-y,z
1/2+x,1/2-y,-z
1/2-x,1/2+y,-z
1/2-x,1/2-y,-z
1/2+x,1/2+y,-z
1/2-x,1/2+y,z
1/2+x,1/2-y,z
loop_
_atom_site_type_symbol
_atom_site_label
_atom_site_fract_x
_atom_site_fract_y
_atom_site_fract_z
Si Si1 0.367131 0.189010 0.500000
Si Si2 0.000000 0.332493 0.868115
Si Si3 0.000000 0.574737 0.500000
Si Si4 0.222273 0.702401 0.255411
Si Si5 0.733761 0.047816 0.867184
Si Si6 0.730827 0.904998 0.500000
Si Si7 0.500000 0.925074 0.234576
Si Si8 0.135887 0.883079 0.272453
O O1 0.500000 0.198942 0.500000
O O2 0.310398 0.205593 0.613090
O O3 0.349460 0.137649 0.500000
O O4 0.111957 0.313859 0.810145
O O5 0.000000 0.382519 0.840425
O O6 0.000000 0.324447 0.000000
O O7 0.866000 0.558252 0.500000
O O8 0.000000 0.587930 0.634180
O O9 0.250000 0.750000 0.214395
O O10 0.317085 0.665009 0.249231
O O11 0.615331 0.051029 0.799201
O O12 0.816223 0.084786 0.821930
O O13 0.782087 0.000000 0.850985
O O14 0.710625 0.053574 0.000000
O O15 0.807712 0.900220 0.610846
O O16 0.000000 0.883133 0.279381
#
# Coordination Sequence:
#
# PCOD9483043 Si02
#       8
#     8   8   4  16  16   8   8  16
#     4  10  17  34  63  96 123 159 206 267 323 377
#     4  12  24  41  67  91 125 174 218 270 329 379
#     4  12  18  34  71 102 126 168 202 260 330 392
#     4  11  24  40  64  94 131 168 216 267 323 385
#     4  11  24  43  68  97 129 167 213 269 326 382
#     4  10  19  37  62  94 133 167 209 265 330 386
#     4  12  21  41  69 103 133 160 208 265 336 392
#     4  11  24  41  64  93 130 176 220 264 317 385
#
# _framework density 19.287320000000001
#
# number of rings (size 3 to 8) (size 9 to 14) (size 15 to 20)
#    0.000    0.952    5.238    2.857    1.333    1.905 
#    0.000    3.333    0.000    1.143    0.000    0.000 
#    0.000    0.000    0.000    0.000    0.000    0.000 
#
# Total GULP energy -234301.893583 kJ/mol
# GULP energy per Si atom -5578.616514 kJ/mol
# Density = 1.924342 g / cm^3
# Si number density = 19.287320 Si / 1000 Ang^3
#
#
#
# Elastic Constant Matrix: (Units=GPa)
#
#
# Indices 1 2 3 4 5 6 
#
# 1 153.9721 48.9518 38.4231 0.0000 0.0000 0.0000
# 2 48.9518 99.0191 22.9989 0.0000 0.0000 0.0000
# 3 38.4231 22.9989 101.4772 0.0000 0.0000 0.0000
# 4 0.0000 0.0000 0.0000 20.1255 0.0000 0.0000
# 5 0.0000 0.0000 0.0000 0.0000 -6.4553 0.0000
# 6 0.0000 0.0000 0.0000 0.0000 0.0000 31.4674
#
#
#
# Elastic Compliance Matrix: (Units=1/GPa)
#
#
# Indices 1 2 3 4 5 6 
#
# 1 0.008186 -0.003512 -0.002304 0.000000 0.000000 0.000000
# 2 -0.003512 0.012167 -0.001428 0.000000 0.000000 0.000000
# 3 -0.002304 -0.001428 0.011050 0.000000 0.000000 0.000000
# 4 0.000000 0.000000 0.000000 0.049688 0.000000 0.000000
# 5 0.000000 0.000000 0.000000 0.000000 -0.154912 0.000000
# 6 0.000000 0.000000 0.000000 0.000000 0.000000 0.031779
#
#
# Mechanical properties :
#
#
# Convention : Reuss Voigt Hill
#
# Bulk Modulus (GPa) = 59.11343 63.91289 61.51316
# Shear Modulus (GPa) = -228.14230 25.30050 -101.42090
#
# Velocity S-wave (km/s) = -10.88774 3.62576 -7.25937
# Velocity P-wave (km/s) = 11.28459 7.12302 6.18888
#
# Compressibility (1/GPa) = 0.01691663
#
# Stress axis : x y z
#
# Youngs Moduli (GPa) = 122.15896 82.19057 90.49563
#
# Poissons Ratio (x) = 0.28864 0.20847
# Poissons Ratio (y) = 0.42901 0.12921
# Poissons Ratio (z) = 0.28141 0.11735
#
# Static dielectric constant tensor:
#      x y z
#    x 1.689690 0.000000 0.000000 
#    y 0.000000 1.824150 0.000000 
#    z 0.000000 0.000000 1.652240 
# 
# From -- ./inp_files/23073.got.cif
#   From: 2010.05.17/outbox.cif.g08.bks.cpg/sg65_12_cif.got.tgz:23073.got - 2010.06.03 17:01:31.
