data_PCOD9483472
_publ_section_title
;
Structure prediction by ZEFSAII (Michael W. Deem and Ramdas Pophale) SiO2 
 PCOD9483472
Probable space group: C M M M
;
_chemical_formula_sum "Si O2"
_cell_formula_units_Z 88
_cell_length_a 29.242380
_cell_length_b 14.149404
_cell_length_c 13.093711
_cell_angle_alpha 90.000000
_cell_angle_beta 90.000000
_cell_angle_gamma 90.000000
_cell_volume 5417.683305
_symmetry_space_group_name_H-M "C M M M"
_symmetry_group_IT_number 65
_symmetry_cell_setting 'orthorhombic'
loop_
_space_group_symop_operation_xyz
x,y,z
-x,-y,z
x,-y,-z
-x,y,-z
-x,-y,-z
x,y,-z
-x,y,z
x,-y,z
1/2+x,1/2+y,z
1/2-x,1/2-y,z
1/2+x,1/2-y,-z
1/2-x,1/2+y,-z
1/2-x,1/2-y,-z
1/2+x,1/2+y,-z
1/2-x,1/2+y,z
1/2+x,1/2-y,z
loop_
_atom_site_type_symbol
_atom_site_label
_atom_site_fract_x
_atom_site_fract_y
_atom_site_fract_z
Si Si1 0.500000 0.106570 0.623162
Si Si2 0.924698 0.240814 0.620434
Si Si3 0.049635 0.112525 0.804661
Si Si4 0.759126 0.389799 0.618099
Si Si5 0.148529 0.887717 0.116850
Si Si6 0.678729 0.269482 0.307425
O O1 0.500000 0.100350 0.500000
O O2 0.545153 0.167178 0.649143
O O3 0.500000 0.000000 0.664280
O O4 0.931338 0.222732 0.500000
O O5 0.942794 0.158314 0.693805
O O6 0.871025 0.249333 0.645107
O O7 0.094300 0.134068 0.871421
O O8 0.000000 0.143431 0.845407
O O9 0.048847 0.000000 0.794952
O O10 0.774221 0.379558 0.500000
O O11 0.758686 0.500000 0.644154
O O12 0.708998 0.343902 0.628229
O O13 0.792334 0.326988 0.688151
O O14 0.172773 0.819322 0.197680
O O15 0.154826 0.000000 0.142179
O O16 0.162809 0.873861 0.000000
#
# Coordination Sequence:
#
# PCOD9483472 Si02
#       6
#     8  16  16  16  16  16
#     4   9  18  30  43  63  94 131 167 199 231 274
#     4  10  18  29  45  67  98 132 165 199 241 290
#     4   9  17  28  43  66  96 127 162 202 244 291
#     4  10  20  34  52  76 105 134 164 200 246 302
#     4   9  18  32  50  72  98 130 168 211 257 300
#     4  10  19  33  52  73  99 129 169 211 252 295
#
# _framework density 16.243105
#
# number of rings (size 3 to 8) (size 9 to 14) (size 15 to 20)
#    0.000    2.455    0.909    2.727    0.000    2.182 
#    0.000    6.364    0.000    1.636    0.000    0.000 
#    0.000    3.636    0.000    0.000    0.000    0.000 
#
# Total GULP energy -245011.635755 kJ/mol
# GULP energy per Si atom -5568.446267 kJ/mol
# Density = 1.620614 g / cm^3
# Si number density = 16.243105 Si / 1000 Ang^3
#
#
#
# Elastic Constant Matrix: (Units=GPa)
#
#
# Indices 1 2 3 4 5 6 
#
# 1 88.2446 38.5404 16.1202 0.0000 0.0000 0.0000
# 2 38.5404 79.2407 34.3828 0.0000 0.0000 0.0000
# 3 16.1202 34.3828 64.5574 0.0000 0.0000 0.0000
# 4 0.0000 0.0000 0.0000 18.2134 0.0000 0.0000
# 5 0.0000 0.0000 0.0000 0.0000 10.2553 0.0000
# 6 0.0000 0.0000 0.0000 0.0000 0.0000 20.6142
#
#
#
# Elastic Compliance Matrix: (Units=1/GPa)
#
#
# Indices 1 2 3 4 5 6 
#
# 1 0.014390 -0.007075 0.000175 0.000000 0.000000 0.000000
# 2 -0.007075 0.019891 -0.008827 0.000000 0.000000 0.000000
# 3 0.000175 -0.008827 0.020148 0.000000 0.000000 0.000000
# 4 0.000000 0.000000 0.000000 0.054905 0.000000 0.000000
# 5 0.000000 0.000000 0.000000 0.000000 0.097511 0.000000
# 6 0.000000 0.000000 0.000000 0.000000 0.000000 0.048510
#
#
# Mechanical properties :
#
#
# Convention : Reuss Voigt Hill
#
# Bulk Modulus (GPa) = 43.52685 45.56995 44.54840
# Shear Modulus (GPa) = 16.97986 19.34987 18.16487
#
# Velocity S-wave (km/s) = 3.23671 3.45522 3.34775
# Velocity P-wave (km/s) = 6.38934 6.63580 6.51374
#
# Compressibility (1/GPa) = 0.02297433
#
# Stress axis : x y z
#
# Youngs Moduli (GPa) = 69.49237 50.27446 49.63337
#
# Poissons Ratio (x) = 0.35568 -0.00867
# Poissons Ratio (y) = 0.49164 0.43812
# Poissons Ratio (z) = -0.01214 0.44378
#
# Static dielectric constant tensor:
#      x y z
#    x 1.582480 0.000000 0.000000 
#    y 0.000000 1.534420 0.000000 
#    z 0.000000 0.000000 1.535550 
# 
# From -- ./inp_files/33803.got.cif
#   From: 2010.05.17/outbox.cif.g08.bks.cpg/sg65_17_cif.got.tgz:33803.got - 2010.06.03 17:01:31.
