data_PCOD9483612
_publ_section_title
;
Structure prediction by ZEFSAII (Michael W. Deem and Ramdas Pophale) SiO2 
 PCOD9483612
Probable space group: C M M M
;
_chemical_formula_sum "Si O2"
_cell_formula_units_Z 96
_cell_length_a 24.716119
_cell_length_b 24.979453
_cell_length_c 7.649504
_cell_angle_alpha 90.000000
_cell_angle_beta 90.000000
_cell_angle_gamma 90.000000
_cell_volume 4722.766539
_symmetry_space_group_name_H-M "C M M M"
_symmetry_group_IT_number 65
_symmetry_cell_setting 'orthorhombic'
loop_
_space_group_symop_operation_xyz
x,y,z
-x,-y,z
x,-y,-z
-x,y,-z
-x,-y,-z
x,y,-z
-x,y,z
x,-y,z
1/2+x,1/2+y,z
1/2-x,1/2-y,z
1/2+x,1/2-y,-z
1/2-x,1/2+y,-z
1/2-x,1/2-y,-z
1/2+x,1/2+y,-z
1/2-x,1/2+y,z
1/2+x,1/2-y,z
loop_
_atom_site_type_symbol
_atom_site_label
_atom_site_fract_x
_atom_site_fract_y
_atom_site_fract_z
Si Si1 0.652797 0.059654 0.706680
Si Si2 0.436401 0.559500 0.290729
Si Si3 0.438662 0.266816 0.213988
Si Si4 0.224416 0.060543 0.204505
Si Si5 0.356336 0.352766 0.196444
Si Si6 0.940189 0.643338 0.789829
O O1 0.661592 0.057487 0.500000
O O2 0.711601 0.071121 0.786134
O O3 0.607347 0.103428 0.740730
O O4 0.635819 0.000000 0.767176
O O5 0.428616 0.566077 0.500000
O O6 0.500000 0.562656 0.257038
O O7 0.417512 0.500000 0.243036
O O8 0.404464 0.604183 0.190725
O O9 0.500000 0.284236 0.267194
O O10 0.388021 0.302259 0.277572
O O11 0.432055 0.204888 0.266485
O O12 0.438086 0.269664 0.000000
O O13 0.191149 0.110966 0.280622
O O14 0.215221 0.000000 0.277813
O O15 0.208714 0.058265 0.000000
O O16 0.338554 0.336963 0.000000
O O17 0.000000 0.625906 0.727843
O O18 0.941731 0.644807 0.000000
#
# Coordination Sequence:
#
# PCOD9483612 Si02
#       6
#    16  16  16  16  16  16
#     4  10  21  36  54  76 101 129 161 199 245 294
#     4   9  18  30  41  58  90 129 165 205 255 305
#     4   8  15  29  49  74 103 132 163 202 247 293
#     4   9  18  32  49  71 100 132 167 207 249 294
#     4  10  18  29  49  74  96 124 167 214 252 285
#     4   9  18  34  56  79 103 132 162 192 235 295
#
# _framework density 20.327069000000002
#
# number of rings (size 3 to 8) (size 9 to 14) (size 15 to 20)
#    0.000    2.833    0.000    3.000    0.000    4.333 
#    0.000    5.833    0.000    6.000    0.000    0.000 
#    0.000    0.000    0.000    0.000    0.000    0.000 
#
# Total GULP energy -267512.004355 kJ/mol
# GULP energy per Si atom -5573.166757 kJ/mol
# Density = 2.028080 g / cm^3
# Si number density = 20.327069 Si / 1000 Ang^3
#
#
#
# Elastic Constant Matrix: (Units=GPa)
#
#
# Indices 1 2 3 4 5 6 
#
# 1 125.3247 84.4310 3.5375 0.0000 0.0000 0.0000
# 2 84.4310 105.0270 3.9776 0.0000 0.0000 0.0000
# 3 3.5375 3.9776 36.5257 0.0000 0.0000 0.0000
# 4 0.0000 0.0000 0.0000 64.9860 0.0000 0.0000
# 5 0.0000 0.0000 0.0000 0.0000 106.2705 0.0000
# 6 0.0000 0.0000 0.0000 0.0000 0.0000 42.6631
#
#
#
# Elastic Compliance Matrix: (Units=1/GPa)
#
#
# Indices 1 2 3 4 5 6 
#
# 1 0.017407 -0.013987 -0.000163 0.000000 0.000000 0.000000
# 2 -0.013987 0.020800 -0.000910 0.000000 0.000000 0.000000
# 3 -0.000163 -0.000910 0.027493 0.000000 0.000000 0.000000
# 4 0.000000 0.000000 0.000000 0.015388 0.000000 0.000000
# 5 0.000000 0.000000 0.000000 0.000000 0.009410 0.000000
# 6 0.000000 0.000000 0.000000 0.000000 0.000000 0.023439
#
#
# Mechanical properties :
#
#
# Convention : Reuss Voigt Hill
#
# Bulk Modulus (GPa) = 28.10623 50.08550 39.09586
# Shear Modulus (GPa) = 32.06802 54.44601 43.25701
#
# Velocity S-wave (km/s) = 3.97621 5.18104 4.61808
# Velocity P-wave (km/s) = 5.91078 7.77715 6.90730
#
# Compressibility (1/GPa) = 0.03557930
#
# Stress axis : x y z
#
# Youngs Moduli (GPa) = 57.44760 48.07621 36.37300
#
# Poissons Ratio (x) = 0.67246 0.00592
# Poissons Ratio (y) = 0.80354 0.03312
# Poissons Ratio (z) = 0.00934 0.04377
#
# Static dielectric constant tensor:
#      x y z
#    x 1.725960 0.000000 0.000000 
#    y 0.000000 1.743550 0.000000 
#    z 0.000000 0.000000 1.758300 
# 
# From -- ./inp_files/12245.got.cif
#   From: 2010.05.17/outbox.cif.g08.bks.cpg/sg65_7_cif.got.tgz:12245.got - 2010.06.03 17:01:31.
