data_PCOD9483098
_publ_section_title
;
Structure prediction by ZEFSAII (Michael W. Deem and Ramdas Pophale) SiO2 
 PCOD9483098
Probable space group: C M M M
;
_chemical_formula_sum "Si O2"
_cell_formula_units_Z 112
_cell_length_a 18.205428
_cell_length_b 33.016438
_cell_length_c 12.857590
_cell_angle_alpha 90.000000
_cell_angle_beta 90.000000
_cell_angle_gamma 90.000000
_cell_volume 7728.419430
_symmetry_space_group_name_H-M "C M M M"
_symmetry_group_IT_number 65
_symmetry_cell_setting 'orthorhombic'
loop_
_space_group_symop_operation_xyz
x,y,z
-x,-y,z
x,-y,-z
-x,y,-z
-x,-y,-z
x,y,-z
-x,y,z
x,-y,z
1/2+x,1/2+y,z
1/2-x,1/2-y,z
1/2+x,1/2-y,-z
1/2-x,1/2+y,-z
1/2-x,1/2-y,-z
1/2+x,1/2+y,-z
1/2-x,1/2+y,z
1/2+x,1/2-y,z
loop_
_atom_site_type_symbol
_atom_site_label
_atom_site_fract_x
_atom_site_fract_y
_atom_site_fract_z
Si Si1 0.586198 0.327938 0.125631
Si Si2 0.836442 0.908476 0.193235
Si Si3 0.169950 0.582023 0.126217
Si Si4 0.415836 0.163626 0.873543
Si Si5 0.165953 0.255250 0.126442
Si Si6 0.585339 0.548459 0.000000
Si Si7 0.915045 0.500000 0.126311
Si Si8 0.586076 0.452024 0.622390
O O1 0.500000 0.332203 0.151371
O O2 0.635215 0.362777 0.176889
O O3 0.616920 0.283664 0.154036
O O4 0.592993 0.332264 0.000000
O O5 0.749914 0.913287 0.175812
O O6 0.863516 0.926092 0.302323
O O7 0.876003 0.934037 0.101906
O O8 0.121561 0.621188 0.154143
O O9 0.128604 0.540619 0.156543
O O10 0.178836 0.581609 0.000000
O O11 0.500000 0.165840 0.838396
O O12 0.369789 0.202635 0.838115
O O13 0.416735 0.164899 0.000000
O O14 0.250000 0.250000 0.161207
O O15 0.167250 0.256528 0.000000
O O16 0.589463 0.500000 0.000000
O O17 0.500000 0.560898 0.000000
O O18 0.000000 0.500000 0.161643
O O19 0.917158 0.500000 0.000000
O O20 0.598007 0.444366 0.500000
O O21 0.500000 0.443794 0.645408
O O22 0.597872 0.500000 0.640722
#
# Coordination Sequence:
#
# PCOD9483098 Si02
#       8
#    16  16  16  16  16   8   8  16
#     4  10  18  27  38  57  87 120 148 176 218 270
#     4  12  20  29  45  64  93 118 150 184 226 270
#     4  10  19  28  41  62  90 119 152 189 229 266
#     4   9  16  27  41  56  80 121 166 195 220 264
#     4   9  16  25  38  54  80 114 157 194 223 255
#     4  11  22  30  40  60  89 124 152 176 212 269
#     4   9  18  30  42  56  83 122 155 183 220 270
#     4   9  19  35  51  64  82 115 158 197 229 262
#
# _framework density 14.491967000000001
#
# number of rings (size 3 to 8) (size 9 to 14) (size 15 to 20)
#    0.000    2.143    1.429    3.857    2.000    6.857 
#    0.000    0.000    0.000    0.000    0.000    0.000 
#    0.000    8.000    0.000    1.429    0.000    0.000 
#
# Total GULP energy -312297.427956 kJ/mol
# GULP energy per Si atom -5576.739785 kJ/mol
# Density = 1.445898 g / cm^3
# Si number density = 14.491967 Si / 1000 Ang^3
#
#
#
# Elastic Constant Matrix: (Units=GPa)
#
#
# Indices 1 2 3 4 5 6 
#
# 1 145.9583 90.5789 23.8122 0.0000 0.0000 0.0000
# 2 90.5789 138.8425 25.5185 0.0000 0.0000 0.0000
# 3 23.8122 25.5185 21.6021 0.0000 0.0000 0.0000
# 4 0.0000 0.0000 0.0000 4.4706 0.0000 0.0000
# 5 0.0000 0.0000 0.0000 0.0000 11.9922 0.0000
# 6 0.0000 0.0000 0.0000 0.0000 0.0000 14.2798
#
#
#
# Elastic Compliance Matrix: (Units=1/GPa)
#
#
# Indices 1 2 3 4 5 6 
#
# 1 0.011929 -0.006853 -0.005053 0.000000 0.000000 0.000000
# 2 -0.006853 0.013137 -0.007964 0.000000 0.000000 0.000000
# 3 -0.005053 -0.007964 0.061270 0.000000 0.000000 0.000000
# 4 0.000000 0.000000 0.000000 0.223683 0.000000 0.000000
# 5 0.000000 0.000000 0.000000 0.000000 0.083387 0.000000
# 6 0.000000 0.000000 0.000000 0.000000 0.000000 0.070029
#
#
# Mechanical properties :
#
#
# Convention : Reuss Voigt Hill
#
# Bulk Modulus (GPa) = 21.46191 65.13579 43.29885
# Shear Modulus (GPa) = 9.63932 17.24810 13.44371
#
# Velocity S-wave (km/s) = 2.58185 3.45365 3.04907
# Velocity P-wave (km/s) = 4.87130 7.80687 6.50680
#
# Compressibility (1/GPa) = 0.04659418
#
# Stress axis : x y z
#
# Youngs Moduli (GPa) = 83.83088 76.11925 16.32109
#
# Poissons Ratio (x) = 0.52168 0.08248
# Poissons Ratio (y) = 0.57453 0.12999
# Poissons Ratio (z) = 0.42362 0.60625
#
# Static dielectric constant tensor:
#      x y z
#    x 1.493000 0.000000 0.000000 
#    y 0.000000 1.487710 0.000000 
#    z 0.000000 0.000000 1.433890 
# 
# From -- ./inp_files/43372.got.cif
#   From: 2010.05.17/outbox.cif.g08.bks.cpg/sg65_22_cif.got.tgz:43372.got - 2010.06.03 17:01:31.
