data_PCOD9483857
_publ_section_title
;
Structure prediction by ZEFSAII (Michael W. Deem and Ramdas Pophale) SiO2 
 PCOD9483857
Probable space group: C M M M
;
_chemical_formula_sum "Si O2"
_cell_formula_units_Z 60
_cell_length_a 14.552614
_cell_length_b 37.838998
_cell_length_c 7.764150
_cell_angle_alpha 90.000000
_cell_angle_beta 90.000000
_cell_angle_gamma 90.000000
_cell_volume 4275.378360
_symmetry_space_group_name_H-M "C M M M"
_symmetry_group_IT_number 65
_symmetry_cell_setting 'orthorhombic'
loop_
_space_group_symop_operation_xyz
x,y,z
-x,-y,z
x,-y,-z
-x,y,-z
-x,-y,-z
x,y,-z
-x,y,z
x,-y,z
1/2+x,1/2+y,z
1/2-x,1/2-y,z
1/2+x,1/2-y,-z
1/2-x,1/2+y,-z
1/2-x,1/2-y,-z
1/2+x,1/2+y,-z
1/2-x,1/2+y,z
1/2+x,1/2-y,z
loop_
_atom_site_type_symbol
_atom_site_label
_atom_site_fract_x
_atom_site_fract_y
_atom_site_fract_z
Si Si1 0.500000 0.285335 0.694459
Si Si2 0.000000 0.729872 0.000000
Si Si3 0.611371 0.540189 0.000000
Si Si4 0.792417 0.709921 0.000000
Si Si5 0.187382 0.170611 0.700080
Si Si6 0.109599 0.906064 0.298027
O O1 0.500000 0.271089 0.500000
O O2 0.500000 0.254920 0.833476
O O3 0.410010 0.309276 0.715440
O O4 0.902610 0.710288 0.000000
O O5 0.636649 0.562679 0.830875
O O6 0.645898 0.500000 0.000000
O O7 0.500000 0.538446 0.000000
O O8 0.750000 0.750000 0.000000
O O9 0.754837 0.689438 0.832668
O O10 0.216883 0.173417 0.500000
O O11 0.165637 0.129676 0.739161
O O12 0.121562 0.914945 0.500000
O O13 0.000000 0.898878 0.273235
#
# Coordination Sequence:
#
# PCOD9483857 Si02
#       6
#     8   4   8   8  16  16
#     4  10  18  30  50  68  86 108 145 193 228 262
#     4  12  24  36  42  66  90 114 146 180 236 282
#     4   9  17  25  35  57  89 123 153 177 208 252
#     4  12  23  33  48  64  88 117 146 186 230 278
#     4  10  19  32  49  69  86 111 151 193 230 260
#     4   9  16  27  44  63  84 112 148 188 220 249
#
# _framework density 14.033846
#
# number of rings (size 3 to 8) (size 9 to 14) (size 15 to 20)
#    0.000    2.000    4.000    0.800    0.000    2.133 
#    0.000    2.667    0.000    0.000    0.000    0.000 
#    0.000    0.000    0.000    9.600    0.000   38.400 
#
# Total GULP energy -167256.075286 kJ/mol
# GULP energy per Si atom -5575.202510 kJ/mol
# Density = 1.400190 g / cm^3
# Si number density = 14.033846 Si / 1000 Ang^3
#
#
#
# Elastic Constant Matrix: (Units=GPa)
#
#
# Indices 1 2 3 4 5 6 
#
# 1 66.3441 41.2788 50.5493 0.0000 0.0000 0.0000
# 2 41.2788 116.0215 88.8847 0.0000 0.0000 0.0000
# 3 50.5493 88.8847 105.1603 0.0000 0.0000 0.0000
# 4 0.0000 0.0000 0.0000 27.9687 0.0000 0.0000
# 5 0.0000 0.0000 0.0000 0.0000 -0.8997 0.0000
# 6 0.0000 0.0000 0.0000 0.0000 0.0000 1.4334
#
#
#
# Elastic Compliance Matrix: (Units=1/GPa)
#
#
# Indices 1 2 3 4 5 6 
#
# 1 0.023813 0.000843 -0.012159 0.000000 0.000000 0.000000
# 2 0.000843 0.024484 -0.021099 0.000000 0.000000 0.000000
# 3 -0.012159 -0.021099 0.033188 0.000000 0.000000 0.000000
# 4 0.000000 0.000000 0.000000 0.035754 0.000000 0.000000
# 5 0.000000 0.000000 0.000000 0.000000 -1.111438 0.000000
# 6 0.000000 0.000000 0.000000 0.000000 0.000000 0.697654
#
#
# Mechanical properties :
#
#
# Convention : Reuss Voigt Hill
#
# Bulk Modulus (GPa) = 60.04878 72.10572 66.07725
# Shear Modulus (GPa) = -22.10783 12.82134 -4.64325
#
# Velocity S-wave (km/s) = -3.97334 3.02586 -1.82093
# Velocity P-wave (km/s) = 4.67242 7.98118 6.53952
#
# Compressibility (1/GPa) = 0.01665313
#
# Stress axis : x y z
#
# Youngs Moduli (GPa) = 41.99446 40.84365 30.13172
#
# Poissons Ratio (x) = -0.03441 0.36636
# Poissons Ratio (y) = -0.03538 0.63576
# Poissons Ratio (z) = 0.51060 0.86177
#
# Static dielectric constant tensor:
#      x y z
#    x 1.486330 0.000000 0.000000 
#    y 0.000000 1.452820 0.000000 
#    z 0.000000 0.000000 1.480880 
# 
# From -- ./inp_files/4807.got.cif
#   From: 2010.05.17/outbox.cif.g08.bks.cpg/sg65_3_cif.got.tgz:4807.got - 2010.06.03 17:01:31.
