data_PCOD9483815
_publ_section_title
;
Structure prediction by ZEFSAII (Michael W. Deem and Ramdas Pophale) SiO2 
 PCOD9483815
Probable space group: C M M M
;
_chemical_formula_sum "Si O2"
_cell_formula_units_Z 64
_cell_length_a 8.735966
_cell_length_b 19.091128
_cell_length_c 21.237011
_cell_angle_alpha 90.000000
_cell_angle_beta 90.000000
_cell_angle_gamma 90.000000
_cell_volume 3541.896910
_symmetry_space_group_name_H-M "C M M M"
_symmetry_group_IT_number 65
_symmetry_cell_setting 'orthorhombic'
loop_
_space_group_symop_operation_xyz
x,y,z
-x,-y,z
x,-y,-z
-x,y,-z
-x,-y,-z
x,y,-z
-x,y,z
x,-y,z
1/2+x,1/2+y,z
1/2-x,1/2-y,z
1/2+x,1/2-y,-z
1/2-x,1/2+y,-z
1/2-x,1/2-y,-z
1/2+x,1/2+y,-z
1/2-x,1/2+y,z
1/2+x,1/2-y,z
loop_
_atom_site_type_symbol
_atom_site_label
_atom_site_fract_x
_atom_site_fract_y
_atom_site_fract_z
Si Si1 0.682023 0.172147 0.000000
Si Si2 0.683167 0.329314 0.500000
Si Si3 0.183080 0.418121 0.752088
Si Si4 0.184056 0.671648 0.370285
Si Si5 0.182659 0.082123 0.886729
O O1 0.750000 0.250000 0.000000
O O2 0.739161 0.129740 0.938994
O O3 0.500000 0.175976 0.000000
O O4 0.500000 0.327505 0.500000
O O5 0.750000 0.250000 0.500000
O O6 0.746409 0.359971 0.434683
O O7 0.217370 0.500000 0.740600
O O8 0.224780 0.372825 0.691309
O O9 0.266454 0.397049 0.816426
O O10 0.000000 0.411655 0.761635
O O11 0.250000 0.750000 0.363255
O O12 0.000000 0.674812 0.376198
O O13 0.000000 0.087244 0.892910
O O14 0.225849 0.000000 0.895304
#
# Coordination Sequence:
#
# PCOD9483815 Si02
#       5
#     8   8  16  16  16
#     4  12  25  40  59  83 113 145 179 224 271 316
#     4  10  18  30  49  72 101 135 173 215 259 314
#     4   9  19  36  56  78 105 140 181 220 260 310
#     4  10  19  32  52  76 103 135 173 218 264 313
#     4  10  21  38  60  84 111 144 181 220 264 319
#
# _framework density 18.069413999999998
#
# number of rings (size 3 to 8) (size 9 to 14) (size 15 to 20)
#    0.000    2.000    0.000    5.625    0.000    6.000 
#    0.000    3.125    0.000    3.750    0.000    0.000 
#    0.000    0.000    0.000    0.000    0.000    0.000 
#
# Total GULP energy -178662.255701 kJ/mol
# GULP energy per Si atom -5583.195491 kJ/mol
# Density = 1.802829 g / cm^3
# Si number density = 18.069414 Si / 1000 Ang^3
#
#
#
# Elastic Constant Matrix: (Units=GPa)
#
#
# Indices 1 2 3 4 5 6 
#
# 1 95.4402 50.2843 88.6500 0.0000 0.0000 0.0000
# 2 50.2843 70.5683 93.1280 0.0000 0.0000 0.0000
# 3 88.6500 93.1280 197.6296 0.0000 0.0000 0.0000
# 4 0.0000 0.0000 0.0000 36.3212 0.0000 0.0000
# 5 0.0000 0.0000 0.0000 0.0000 33.9903 0.0000
# 6 0.0000 0.0000 0.0000 0.0000 0.0000 24.3059
#
#
#
# Elastic Compliance Matrix: (Units=1/GPa)
#
#
# Indices 1 2 3 4 5 6 
#
# 1 0.018882 -0.006022 -0.005632 0.000000 0.000000 0.000000
# 2 -0.006022 0.039396 -0.015863 0.000000 0.000000 0.000000
# 3 -0.005632 -0.015863 0.015061 0.000000 0.000000 0.000000
# 4 0.000000 0.000000 0.000000 0.027532 0.000000 0.000000
# 5 0.000000 0.000000 0.000000 0.000000 0.029420 0.000000
# 6 0.000000 0.000000 0.000000 0.000000 0.000000 0.041142
#
#
# Mechanical properties :
#
#
# Convention : Reuss Voigt Hill
#
# Bulk Modulus (GPa) = 54.62973 91.97363 73.30168
# Shear Modulus (GPa) = 21.49888 27.69519 24.59704
#
# Velocity S-wave (km/s) = 3.45308 3.91923 3.69352
# Velocity P-wave (km/s) = 6.79686 8.45525 7.67100
#
# Compressibility (1/GPa) = 0.01830505
#
# Stress axis : x y z
#
# Youngs Moduli (GPa) = 52.96069 25.38323 66.39449
#
# Poissons Ratio (x) = 0.15286 0.37394
# Poissons Ratio (y) = 0.31892 1.05323
# Poissons Ratio (z) = 0.29828 0.40266
#
# Static dielectric constant tensor:
#      x y z
#    x 1.609400 0.000000 0.000000 
#    y 0.000000 1.601830 0.000000 
#    z 0.000000 0.000000 1.624880 
# 
# From -- ./inp_files/58770.got.cif
#   From: 2010.05.17/outbox.cif.g08.bks.cpg/sg65_30_cif.got.tgz:58770.got - 2010.06.03 17:01:31.
