data_PCOD9483253
_publ_section_title
;
Structure prediction by ZEFSAII (Michael W. Deem and Ramdas Pophale) SiO2 
 PCOD9483253
Probable space group: C M M M
;
_chemical_formula_sum "Si O2"
_cell_formula_units_Z 72
_cell_length_a 24.077595
_cell_length_b 8.125395
_cell_length_c 22.611356
_cell_angle_alpha 90.000000
_cell_angle_beta 90.000000
_cell_angle_gamma 90.000000
_cell_volume 4423.685010
_symmetry_space_group_name_H-M "C M M M"
_symmetry_group_IT_number 65
_symmetry_cell_setting 'orthorhombic'
loop_
_space_group_symop_operation_xyz
x,y,z
-x,-y,z
x,-y,-z
-x,y,-z
-x,-y,-z
x,y,-z
-x,y,z
x,-y,z
1/2+x,1/2+y,z
1/2-x,1/2-y,z
1/2+x,1/2-y,-z
1/2-x,1/2+y,-z
1/2-x,1/2-y,-z
1/2+x,1/2+y,-z
1/2-x,1/2+y,z
1/2+x,1/2-y,z
loop_
_atom_site_type_symbol
_atom_site_label
_atom_site_fract_x
_atom_site_fract_y
_atom_site_fract_z
Si Si1 0.500000 0.812793 0.569673
Si Si2 0.564548 0.193651 0.270807
Si Si3 0.686208 0.300699 0.500000
Si Si4 0.067324 0.818398 0.858251
Si Si5 0.432195 0.000000 0.068562
Si Si6 0.616124 0.308528 0.612485
O O1 0.500000 0.831541 0.500000
O O2 0.445245 0.715541 0.586393
O O3 0.500000 0.000000 0.596150
O O4 0.500000 0.240583 0.287104
O O5 0.579725 0.287156 0.210766
O O6 0.607859 0.226152 0.323522
O O7 0.563327 0.000000 0.257494
O O8 0.680841 0.500000 0.500000
O O9 0.750000 0.250000 0.500000
O O10 0.656551 0.241610 0.560808
O O11 0.086638 0.664927 0.897588
O O12 0.000000 0.817911 0.862053
O O13 0.086692 0.000000 0.876763
O O14 0.500000 0.000000 0.070481
O O15 0.415961 0.000000 0.000000
O O16 0.629178 0.500000 0.621534
#
# Coordination Sequence:
#
# PCOD9483253 Si02
#       6
#     8  16   8  16   8  16
#     4  11  21  31  45  69  95 117 141 180 239 294
#     4  10  18  28  43  66  92 117 147 186 238 292
#     4  10  24  41  54  67  87 118 158 200 237 284
#     4   9  16  26  39  56  81 115 151 192 237 275
#     4   9  16  26  38  54  80 115 157 199 227 264
#     4  11  21  33  49  70  91 116 149 190 242 291
#
# _framework density 16.276022000000001
#
# number of rings (size 3 to 8) (size 9 to 14) (size 15 to 20)
#    0.000    2.000    3.333    1.667    0.000    3.556 
#    0.000    2.222    0.000    0.000    0.000    0.000 
#    0.000    0.000    0.000    0.000    0.000    1.111 
#
# Total GULP energy -200536.080068 kJ/mol
# GULP energy per Si atom -5570.446669 kJ/mol
# Density = 1.623898 g / cm^3
# Si number density = 16.276022 Si / 1000 Ang^3
#
#
#
# Elastic Constant Matrix: (Units=GPa)
#
#
# Indices 1 2 3 4 5 6 
#
# 1 47.4571 3.6921 21.8022 0.0000 0.0000 0.0000
# 2 3.6921 86.8498 48.9357 0.0000 0.0000 0.0000
# 3 21.8022 48.9357 105.8855 0.0000 0.0000 0.0000
# 4 0.0000 0.0000 0.0000 15.3498 0.0000 0.0000
# 5 0.0000 0.0000 0.0000 0.0000 4.0830 0.0000
# 6 0.0000 0.0000 0.0000 0.0000 0.0000 7.5452
#
#
#
# Elastic Compliance Matrix: (Units=1/GPa)
#
#
# Indices 1 2 3 4 5 6 
#
# 1 0.023622 0.002348 -0.005949 0.000000 0.000000 0.000000
# 2 0.002348 0.015801 -0.007786 0.000000 0.000000 0.000000
# 3 -0.005949 -0.007786 0.014267 0.000000 0.000000 0.000000
# 4 0.000000 0.000000 0.000000 0.065148 0.000000 0.000000
# 5 0.000000 0.000000 0.000000 0.000000 0.244917 0.000000
# 6 0.000000 0.000000 0.000000 0.000000 0.000000 0.132535
#
#
# Mechanical properties :
#
#
# Convention : Reuss Voigt Hill
#
# Bulk Modulus (GPa) = 32.34544 43.22806 37.78675
# Shear Modulus (GPa) = 9.44519 16.44643 12.94581
#
# Velocity S-wave (km/s) = 2.41158 3.18224 2.82333
# Velocity P-wave (km/s) = 5.26028 6.33397 5.82193
#
# Compressibility (1/GPa) = 0.03091626
#
# Stress axis : x y z
#
# Youngs Moduli (GPa) = 42.33353 63.28537 70.08953
#
# Poissons Ratio (x) = -0.14857 0.41695
# Poissons Ratio (y) = -0.09939 0.54573
# Poissons Ratio (z) = 0.25183 0.49275
#
# Static dielectric constant tensor:
#      x y z
#    x 1.498190 0.000000 0.000000 
#    y 0.000000 1.595920 0.000000 
#    z 0.000000 0.000000 1.577410 
# 
# From -- ./inp_files/65008.got.cif
#   From: 2010.05.17/outbox.cif.g08.bks.cpg/sg65_33_cif.got.tgz:65008.got - 2010.06.03 17:01:31.
