data_PCOD9483062
_publ_section_title
;
Structure prediction by ZEFSAII (Michael W. Deem and Ramdas Pophale) SiO2 
 PCOD9483062
Probable space group: C M M M
;
_chemical_formula_sum "Si O2"
_cell_formula_units_Z 80
_cell_length_a 29.514974
_cell_length_b 7.357694
_cell_length_c 22.193432
_cell_angle_alpha 90.000000
_cell_angle_beta 90.000000
_cell_angle_gamma 90.000000
_cell_volume 4819.573345
_symmetry_space_group_name_H-M "C M M M"
_symmetry_group_IT_number 65
_symmetry_cell_setting 'orthorhombic'
loop_
_space_group_symop_operation_xyz
x,y,z
-x,-y,z
x,-y,-z
-x,y,-z
-x,-y,-z
x,y,-z
-x,y,z
x,-y,z
1/2+x,1/2+y,z
1/2-x,1/2-y,z
1/2+x,1/2-y,-z
1/2-x,1/2+y,-z
1/2-x,1/2-y,-z
1/2+x,1/2+y,-z
1/2-x,1/2+y,z
1/2+x,1/2-y,z
loop_
_atom_site_type_symbol
_atom_site_label
_atom_site_fract_x
_atom_site_fract_y
_atom_site_fract_z
Si Si1 0.804284 0.782582 0.500000
Si Si2 0.449458 0.279042 0.930090
Si Si3 0.144930 0.222559 0.880115
Si Si4 0.803385 0.783599 0.000000
Si Si5 0.195883 0.217005 0.629809
Si Si6 0.196191 0.217465 0.238668
O O1 0.750000 0.750000 0.500000
O O2 0.821418 0.712967 0.564953
O O3 0.810907 0.000000 0.500000
O O4 0.500000 0.219883 0.912156
O O5 0.449603 0.500000 0.929682
O O6 0.407047 0.221207 0.890140
O O7 0.441940 0.226180 0.000000
O O8 0.168292 0.285290 0.818602
O O9 0.145860 0.000000 0.879539
O O10 0.173220 0.283191 0.938770
O O11 0.750000 0.750000 0.000000
O O12 0.810595 0.000000 0.000000
O O13 0.250000 0.250000 0.629608
O O14 0.180953 0.287093 0.695322
O O15 0.188593 0.000000 0.629598
O O16 0.250000 0.250000 0.230961
O O17 0.190637 0.000000 0.240170
#
# Coordination Sequence:
#
# PCOD9483062 Si02
#       6
#     8  16  16   8  16  16
#     4   8  12  18  28  40  54  72  99 131 155 175
#     4   8  12  19  32  48  64  80  99 126 162 200
#     4   9  15  23  33  46  64  85 105 129 160 189
#     4  10  18  26  35  47  65  87 110 132 153 178
#     4   8  13  20  29  41  56  77 103 129 154 178
#     4   9  16  24  33  45  64  88 110 130 154 184
#
# _framework density 16.598980000000001
#
# number of rings (size 3 to 8) (size 9 to 14) (size 15 to 20)
#    0.000    3.400    1.000    1.200    0.000    0.000 
#    0.000    0.000    0.000    0.000    0.000    0.000 
#    0.000    4.000    0.000    0.900    0.000   28.900 
#
# Total GULP energy -222675.479853 kJ/mol
# GULP energy per Si atom -5566.886996 kJ/mol
# Density = 1.656120 g / cm^3
# Si number density = 16.598980 Si / 1000 Ang^3
#
#
#
# Elastic Constant Matrix: (Units=GPa)
#
#
# Indices 1 2 3 4 5 6 
#
# 1 90.8519 -0.5724 77.7978 0.0000 0.0000 0.0000
# 2 -0.5724 63.4025 10.7613 0.0000 0.0000 0.0000
# 3 77.7978 10.7613 202.5501 0.0000 0.0000 0.0000
# 4 0.0000 0.0000 0.0000 -3.5244 0.0000 0.0000
# 5 0.0000 0.0000 0.0000 0.0000 3.3614 0.0000
# 6 0.0000 0.0000 0.0000 0.0000 0.0000 3.8426
#
#
#
# Elastic Compliance Matrix: (Units=1/GPa)
#
#
# Indices 1 2 3 4 5 6 
#
# 1 0.016497 0.001236 -0.006402 0.000000 0.000000 0.000000
# 2 0.001236 0.016008 -0.001325 0.000000 0.000000 0.000000
# 3 -0.006402 -0.001325 0.007466 0.000000 0.000000 0.000000
# 4 0.000000 0.000000 0.000000 -0.283733 0.000000 0.000000
# 5 0.000000 0.000000 0.000000 0.000000 0.297495 0.000000
# 6 0.000000 0.000000 0.000000 0.000000 0.000000 0.260240
#
#
# Mechanical properties :
#
#
# Convention : Reuss Voigt Hill
#
# Bulk Modulus (GPa) = 37.05274 59.19754 48.12514
# Shear Modulus (GPa) = 14.88303 18.65710 16.77007
#
# Velocity S-wave (km/s) = 2.99762 3.35623 3.18198
# Velocity P-wave (km/s) = 5.86103 7.12460 6.52348
#
# Compressibility (1/GPa) = 0.02698855
#
# Stress axis : x y z
#
# Youngs Moduli (GPa) = 60.61793 62.46755 133.93386
#
# Poissons Ratio (x) = -0.07718 0.85743
# Poissons Ratio (y) = -0.07489 0.17747
# Poissons Ratio (z) = 0.38807 0.08277
#
# Static dielectric constant tensor:
#      x y z
#    x 1.533280 0.000000 0.000000 
#    y 0.000000 1.635750 0.000000 
#    z 0.000000 0.000000 1.618210 
# 
# From -- ./inp_files/61877.got.cif
#   From: 2010.05.17/outbox.cif.g08.bks.cpg/sg65_31_cif.got.tgz:61877.got - 2010.06.03 17:01:31.
