data_PCOD9483985
_publ_section_title
;
Structure prediction by ZEFSAII (Michael W. Deem and Ramdas Pophale) SiO2 
 PCOD9483985
Probable space group: C M M M
;
_chemical_formula_sum "Si O2"
_cell_formula_units_Z 72
_cell_length_a 17.683935
_cell_length_b 17.050308
_cell_length_c 13.946825
_cell_angle_alpha 90.000000
_cell_angle_beta 90.000000
_cell_angle_gamma 90.000000
_cell_volume 4205.198396
_symmetry_space_group_name_H-M "C M M M"
_symmetry_group_IT_number 65
_symmetry_cell_setting 'orthorhombic'
loop_
_space_group_symop_operation_xyz
x,y,z
-x,-y,z
x,-y,-z
-x,y,-z
-x,-y,-z
x,y,-z
-x,y,z
x,-y,z
1/2+x,1/2+y,z
1/2-x,1/2-y,z
1/2+x,1/2-y,-z
1/2-x,1/2+y,-z
1/2-x,1/2-y,-z
1/2+x,1/2+y,-z
1/2-x,1/2+y,z
1/2+x,1/2-y,z
loop_
_atom_site_type_symbol
_atom_site_label
_atom_site_fract_x
_atom_site_fract_y
_atom_site_fract_z
Si Si1 0.915435 0.273728 0.795065
Si Si2 0.803795 0.179274 0.659183
Si Si3 0.591964 0.595337 0.500000
Si Si4 0.691401 0.092205 0.799647
Si Si5 0.242922 0.154952 0.000000
Si Si6 0.581922 0.306700 0.000000
O O1 0.855630 0.221563 0.738385
O O2 0.887107 0.362216 0.785421
O O3 0.913815 0.246738 0.905488
O O4 0.000000 0.262401 0.758238
O O5 0.750000 0.250000 0.617990
O O6 0.861117 0.134049 0.588490
O O7 0.748576 0.120687 0.716467
O O8 0.598963 0.500000 0.500000
O O9 0.500000 0.612262 0.500000
O O10 0.683715 0.000000 0.799198
O O11 0.721886 0.121472 0.902912
O O12 0.250000 0.250000 0.000000
O O13 0.153612 0.137342 0.000000
O O14 0.500000 0.346709 0.000000
#
# Coordination Sequence:
#
# PCOD9483985 Si02
#       6
#    16  16   8  16   8   8
#     4  10  19  33  54  77 104 139 177 214 251 301
#     4  10  20  37  58  78 100 136 180 211 249 310
#     4  11  23  38  56  80 109 133 160 214 276 315
#     4  11  21  32  51  79 109 138 171 215 262 305
#     4  12  17  34  51  72 103 141 184 211 245 302
#     4  10  18  30  52  74  99 135 178 218 245 286
#
# _framework density 17.121665
#
# number of rings (size 3 to 8) (size 9 to 14) (size 15 to 20)
#    0.000    1.444    4.444    2.667    0.000    0.444 
#    0.000    0.000    0.000    6.000    0.000    0.000 
#    0.000   16.000    0.000    0.000    0.000    0.000 
#
# Total GULP energy -200665.889900 kJ/mol
# GULP energy per Si atom -5574.052497 kJ/mol
# Density = 1.708270 g / cm^3
# Si number density = 17.121665 Si / 1000 Ang^3
#
#
#
# Elastic Constant Matrix: (Units=GPa)
#
#
# Indices 1 2 3 4 5 6 
#
# 1 70.5392 -13.1674 2.1400 0.0000 0.0000 0.0000
# 2 -13.1674 65.2816 12.6619 0.0000 0.0000 0.0000
# 3 2.1400 12.6619 70.3033 0.0000 0.0000 0.0000
# 4 0.0000 0.0000 0.0000 20.1522 0.0000 0.0000
# 5 0.0000 0.0000 0.0000 0.0000 27.0852 0.0000
# 6 0.0000 0.0000 0.0000 0.0000 0.0000 23.1865
#
#
#
# Elastic Compliance Matrix: (Units=1/GPa)
#
#
# Indices 1 2 3 4 5 6 
#
# 1 0.014802 0.003184 -0.001024 0.000000 0.000000 0.000000
# 2 0.003184 0.016558 -0.003079 0.000000 0.000000 0.000000
# 3 -0.001024 -0.003079 0.014810 0.000000 0.000000 0.000000
# 4 0.000000 0.000000 0.000000 0.049622 0.000000 0.000000
# 5 0.000000 0.000000 0.000000 0.000000 0.036921 0.000000
# 6 0.000000 0.000000 0.000000 0.000000 0.000000 0.043128
#
#
# Mechanical properties :
#
#
# Convention : Reuss Voigt Hill
#
# Bulk Modulus (GPa) = 22.55722 23.26590 22.91156
# Shear Modulus (GPa) = 25.97998 27.71742 26.84870
#
# Velocity S-wave (km/s) = 3.89958 4.02786 3.96424
# Velocity P-wave (km/s) = 5.78609 5.93714 5.86210
#
# Compressibility (1/GPa) = 0.04433171
#
# Stress axis : x y z
#
# Youngs Moduli (GPa) = 67.55859 60.39482 67.52291
#
# Poissons Ratio (x) = -0.19231 0.06915
# Poissons Ratio (y) = -0.21512 0.20790
# Poissons Ratio (z) = 0.06918 0.18596
#
# Static dielectric constant tensor:
#      x y z
#    x 1.604490 0.000000 0.000000 
#    y 0.000000 1.556670 0.000000 
#    z 0.000000 0.000000 1.582950 
# 
# From -- ./inp_files/42180.got.cif
#   From: 2010.05.17/outbox.cif.g08.bks.cpg/sg65_22_cif.got.tgz:42180.got - 2010.06.03 17:01:31.
