data_PCOD9483086
_publ_section_title
;
Structure prediction by ZEFSAII (Michael W. Deem and Ramdas Pophale) SiO2 
 PCOD9483086
Probable space group: C M M M
;
_chemical_formula_sum "Si O2"
_cell_formula_units_Z 80
_cell_length_a 25.344484
_cell_length_b 20.641254
_cell_length_c 9.378593
_cell_angle_alpha 90.000000
_cell_angle_beta 90.000000
_cell_angle_gamma 90.000000
_cell_volume 4906.335259
_symmetry_space_group_name_H-M "C M M M"
_symmetry_group_IT_number 65
_symmetry_cell_setting 'orthorhombic'
loop_
_space_group_symop_operation_xyz
x,y,z
-x,-y,z
x,-y,-z
-x,y,-z
-x,-y,-z
x,y,-z
-x,y,z
x,-y,z
1/2+x,1/2+y,z
1/2-x,1/2-y,z
1/2+x,1/2-y,-z
1/2-x,1/2+y,-z
1/2-x,1/2-y,-z
1/2+x,1/2+y,-z
1/2-x,1/2+y,z
1/2+x,1/2-y,z
loop_
_atom_site_type_symbol
_atom_site_label
_atom_site_fract_x
_atom_site_fract_y
_atom_site_fract_z
Si Si1 0.500000 0.753118 0.830235
Si Si2 0.219845 0.073778 0.831450
Si Si3 0.000000 0.116532 0.669439
Si Si4 0.616201 0.392172 0.665294
Si Si5 0.897109 0.736272 0.333203
Si Si6 0.282211 0.815412 0.329834
O O1 0.500000 0.679690 0.768751
O O2 0.446460 0.782072 0.764558
O O3 0.500000 0.754151 0.000000
O O4 0.161251 0.081392 0.766570
O O5 0.257185 0.125147 0.753794
O O6 0.237589 0.000000 0.807510
O O7 0.218439 0.086281 0.000000
O O8 0.056479 0.083253 0.692775
O O9 0.000000 0.135976 0.500000
O O10 0.629421 0.406086 0.500000
O O11 0.614042 0.313680 0.681069
O O12 0.910224 0.726073 0.500000
O O13 0.843458 0.698590 0.299015
O O14 0.276443 0.825832 0.500000
O O15 0.250000 0.750000 0.294989
#
# Coordination Sequence:
#
# PCOD9483086 Si02
#       6
#     8  16   8  16  16  16
#     4  10  18  26  42  73 108 135 164 196 240 306
#     4  11  24  37  48  70 106 141 170 206 256 311
#     4   8  16  30  47  67  94 128 167 215 260 291
#     4   9  16  31  52  71  94 129 172 215 254 297
#     4   9  17  31  51  74 102 130 162 210 259 296
#     4  10  19  35  57  79  99 127 173 220 257 299
#
# _framework density 16.305448999999999
#
# number of rings (size 3 to 8) (size 9 to 14) (size 15 to 20)
#    0.000    2.400    2.000    2.700    0.000    6.000 
#    0.000    0.500    0.000    3.000    0.000    0.700 
#    0.000    5.600    0.000    0.000    0.000    0.000 
#
# Total GULP energy -223059.644186 kJ/mol
# GULP energy per Si atom -5576.491105 kJ/mol
# Density = 1.626834 g / cm^3
# Si number density = 16.305449 Si / 1000 Ang^3
#
#
#
# Elastic Constant Matrix: (Units=GPa)
#
#
# Indices 1 2 3 4 5 6 
#
# 1 126.8238 58.5619 81.3465 0.0000 0.0000 0.0000
# 2 58.5619 71.8954 56.8108 0.0000 0.0000 0.0000
# 3 81.3465 56.8108 87.6068 0.0000 0.0000 0.0000
# 4 0.0000 0.0000 0.0000 35.4193 0.0000 0.0000
# 5 0.0000 0.0000 0.0000 0.0000 9.7974 0.0000
# 6 0.0000 0.0000 0.0000 0.0000 0.0000 5.4581
#
#
#
# Elastic Compliance Matrix: (Units=1/GPa)
#
#
# Indices 1 2 3 4 5 6 
#
# 1 0.019870 -0.003294 -0.016314 0.000000 0.000000 0.000000
# 2 -0.003294 0.029073 -0.015795 0.000000 0.000000 0.000000
# 3 -0.016314 -0.015795 0.036806 0.000000 0.000000 0.000000
# 4 0.000000 0.000000 0.000000 0.028233 0.000000 0.000000
# 5 0.000000 0.000000 0.000000 0.000000 0.102068 0.000000
# 6 0.000000 0.000000 0.000000 0.000000 0.000000 0.183213
#
#
# Mechanical properties :
#
#
# Convention : Reuss Voigt Hill
#
# Bulk Modulus (GPa) = 66.92043 75.52940 71.22491
# Shear Modulus (GPa) = 10.52525 16.10875 13.31700
#
# Velocity S-wave (km/s) = 2.54344 3.14656 2.86093
# Velocity P-wave (km/s) = 7.05381 7.72161 7.39525
#
# Compressibility (1/GPa) = 0.01494312
#
# Stress axis : x y z
#
# Youngs Moduli (GPa) = 50.32702 34.39666 27.16984
#
# Poissons Ratio (x) = 0.11329 0.44326
# Poissons Ratio (y) = 0.16576 0.42914
# Poissons Ratio (z) = 0.82105 0.54328
#
# Static dielectric constant tensor:
#      x y z
#    x 1.570770 0.000000 0.000000 
#    y 0.000000 1.536790 0.000000 
#    z 0.000000 0.000000 1.531960 
# 
# From -- ./inp_files/13873.got.cif
#   From: 2010.05.17/outbox.cif.g08.bks.cpg/sg65_7_cif.got.tgz:13873.got - 2010.06.03 17:01:31.
