data_PCOD9483796
_publ_section_title
;
Structure prediction by ZEFSAII (Michael W. Deem and Ramdas Pophale) SiO2 
 PCOD9483796
Probable space group: C M M M
;
_chemical_formula_sum "Si O2"
_cell_formula_units_Z 88
_cell_length_a 31.795567
_cell_length_b 20.861640
_cell_length_c 7.798453
_cell_angle_alpha 90.000000
_cell_angle_beta 90.000000
_cell_angle_gamma 90.000000
_cell_volume 5172.773707
_symmetry_space_group_name_H-M "C M M M"
_symmetry_group_IT_number 65
_symmetry_cell_setting 'orthorhombic'
loop_
_space_group_symop_operation_xyz
x,y,z
-x,-y,z
x,-y,-z
-x,y,-z
-x,-y,-z
x,y,-z
-x,y,z
x,-y,z
1/2+x,1/2+y,z
1/2-x,1/2-y,z
1/2+x,1/2-y,-z
1/2-x,1/2+y,-z
1/2-x,1/2-y,-z
1/2+x,1/2+y,-z
1/2-x,1/2+y,z
1/2+x,1/2-y,z
loop_
_atom_site_type_symbol
_atom_site_label
_atom_site_fract_x
_atom_site_fract_y
_atom_site_fract_z
Si Si1 0.548693 0.831324 0.703584
Si Si2 0.832727 0.428500 0.206191
Si Si3 0.949820 0.430071 0.000000
Si Si4 0.712397 0.706913 0.200122
Si Si5 0.267440 0.569718 0.792544
Si Si6 0.635299 0.210773 0.697909
O O1 0.551916 0.846506 0.500000
O O2 0.500000 0.812091 0.735916
O O3 0.586172 0.782033 0.745330
O O4 0.558762 0.890752 0.827927
O O5 0.846541 0.500000 0.264587
O O6 0.782628 0.424307 0.239790
O O7 0.853437 0.364582 0.280674
O O8 0.838379 0.425615 0.000000
O O9 0.930029 0.500000 0.000000
O O10 0.000000 0.436720 0.000000
O O11 0.750000 0.750000 0.277468
O O12 0.711267 0.634897 0.272715
O O13 0.669312 0.746124 0.207509
O O14 0.723623 0.698114 0.000000
O O15 0.281403 0.500000 0.725538
O O16 0.272412 0.566943 0.000000
O O17 0.639850 0.227758 0.500000
#
# Coordination Sequence:
#
# PCOD9483796 Si02
#       6
#    16  16   8  16  16  16
#     4   9  20  37  51  66  93 126 160 204 254 299
#     4   9  17  30  47  64  86 120 160 198 230 269
#     4   9  18  32  52  74  91 120 165 207 252 299
#     4  10  18  30  49  70  94 125 159 194 234 279
#     4   8  14  27  46  66  89 121 159 192 226 272
#     4  11  22  32  46  68  94 123 157 199 246 291
#
# _framework density 17.012149000000001
#
# number of rings (size 3 to 8) (size 9 to 14) (size 15 to 20)
#    0.000    2.636    1.818    1.636    2.545    1.818 
#    0.000    3.636    0.000    0.545    0.000    0.000 
#    0.000    0.727    0.000    9.091    0.000    0.000 
#
# Total GULP energy -245041.151657 kJ/mol
# GULP energy per Si atom -5569.117083 kJ/mol
# Density = 1.697343 g / cm^3
# Si number density = 17.012149 Si / 1000 Ang^3
#
#
#
# Elastic Constant Matrix: (Units=GPa)
#
#
# Indices 1 2 3 4 5 6 
#
# 1 76.3334 52.1060 12.6601 0.0000 0.0000 0.0000
# 2 52.1060 114.8641 9.5994 0.0000 0.0000 0.0000
# 3 12.6601 9.5994 22.2896 0.0000 0.0000 0.0000
# 4 0.0000 0.0000 0.0000 8.4962 0.0000 0.0000
# 5 0.0000 0.0000 0.0000 0.0000 70.1738 0.0000
# 6 0.0000 0.0000 0.0000 0.0000 0.0000 11.1295
#
#
#
# Elastic Compliance Matrix: (Units=1/GPa)
#
#
# Indices 1 2 3 4 5 6 
#
# 1 0.020208 -0.008514 -0.007811 0.000000 0.000000 0.000000
# 2 -0.008514 0.012618 -0.000598 0.000000 0.000000 0.000000
# 3 -0.007811 -0.000598 0.049558 0.000000 0.000000 0.000000
# 4 0.000000 0.000000 0.000000 0.117699 0.000000 0.000000
# 5 0.000000 0.000000 0.000000 0.000000 0.014250 0.000000
# 6 0.000000 0.000000 0.000000 0.000000 0.000000 0.089852
#
#
# Mechanical properties :
#
#
# Convention : Reuss Voigt Hill
#
# Bulk Modulus (GPa) = 20.60269 40.24644 30.42456
# Shear Modulus (GPa) = 14.11587 27.23466 20.67527
#
# Velocity S-wave (km/s) = 2.88367 4.00546 3.48993
# Velocity P-wave (km/s) = 4.81915 6.71569 5.84486
#
# Compressibility (1/GPa) = 0.04853735
#
# Stress axis : x y z
#
# Youngs Moduli (GPa) = 49.48614 79.25056 20.17833
#
# Poissons Ratio (x) = 0.67475 0.15761
# Poissons Ratio (y) = 0.42133 0.01207
# Poissons Ratio (z) = 0.38653 0.04742
#
# Static dielectric constant tensor:
#      x y z
#    x 1.594280 0.000000 0.000000 
#    y 0.000000 1.606990 0.000000 
#    z 0.000000 0.000000 1.603060 
# 
# From -- ./inp_files/18483.got.cif
#   From: 2010.05.17/outbox.cif.g08.bks.cpg/sg65_10_cif.got.tgz:18483.got - 2010.06.03 17:01:31.
