data_PCOD9483710
_publ_section_title
;
Structure prediction by ZEFSAII (Michael W. Deem and Ramdas Pophale) SiO2 
 PCOD9483710
Probable space group: C M M M
;
_chemical_formula_sum "Si O2"
_cell_formula_units_Z 80
_cell_length_a 27.958500
_cell_length_b 7.814397
_cell_length_c 19.188585
_cell_angle_alpha 90.000000
_cell_angle_beta 90.000000
_cell_angle_gamma 90.000000
_cell_volume 4192.299380
_symmetry_space_group_name_H-M "C M M M"
_symmetry_group_IT_number 65
_symmetry_cell_setting 'orthorhombic'
loop_
_space_group_symop_operation_xyz
x,y,z
-x,-y,z
x,-y,-z
-x,y,-z
-x,-y,-z
x,y,-z
-x,y,z
x,-y,z
1/2+x,1/2+y,z
1/2-x,1/2-y,z
1/2+x,1/2-y,-z
1/2-x,1/2+y,-z
1/2-x,1/2-y,-z
1/2+x,1/2+y,-z
1/2-x,1/2+y,z
1/2+x,1/2-y,z
loop_
_atom_site_type_symbol
_atom_site_label
_atom_site_fract_x
_atom_site_fract_y
_atom_site_fract_z
Si Si1 0.944369 0.790787 0.500000
Si Si2 0.305674 0.793948 0.000000
Si Si3 0.598206 0.701044 0.354365
Si Si4 0.447091 0.798372 0.209559
Si Si5 0.695946 0.203882 0.289774
Si Si6 0.849647 0.290217 0.854761
O O1 0.918712 0.732358 0.429187
O O2 0.000000 0.741504 0.500000
O O3 0.942534 0.000000 0.500000
O O4 0.250000 0.750000 0.000000
O O5 0.330037 0.730837 0.071191
O O6 0.310123 0.000000 0.000000
O O7 0.587182 0.500000 0.351743
O O8 0.569953 0.782092 0.289553
O O9 0.654444 0.725149 0.339518
O O10 0.500000 0.723476 0.200053
O O11 0.403299 0.729842 0.163285
O O12 0.449942 0.000000 0.193863
O O13 0.750000 0.250000 0.308073
O O14 0.683234 0.262708 0.210856
O O15 0.690980 0.000000 0.290778
O O16 0.849778 0.500000 0.855206
#
# Coordination Sequence:
#
# PCOD9483710 Si02
#       6
#     8   8  16  16  16  16
#     4   9  18  32  50  73 100 125 152 193 240 283
#     4  10  18  30  47  67  93 123 156 194 239 286
#     4  10  19  32  51  74  98 125 159 196 237 285
#     4   9  17  31  49  69  96 128 160 197 239 280
#     4  10  19  33  51  72  98 127 161 199 239 281
#     4   8  16  29  46  69  96 124 156 195 235 280
#
# _framework density 19.082606999999999
#
# number of rings (size 3 to 8) (size 9 to 14) (size 15 to 20)
#    0.000    2.700    0.000    3.600    0.000    1.200 
#    0.000    7.000    0.000    6.600    0.000    0.000 
#    0.000    7.200    0.000    0.000    0.000    0.000 
#
# Total GULP energy -223117.817272 kJ/mol
# GULP energy per Si atom -5577.945432 kJ/mol
# Density = 1.903917 g / cm^3
# Si number density = 19.082607 Si / 1000 Ang^3
#
#
#
# Elastic Constant Matrix: (Units=GPa)
#
#
# Indices 1 2 3 4 5 6 
#
# 1 156.3829 -11.4517 84.2685 0.0000 0.0000 0.0000
# 2 -11.4517 22.9605 -4.1966 0.0000 0.0000 0.0000
# 3 84.2685 -4.1966 150.3430 0.0000 0.0000 0.0000
# 4 0.0000 0.0000 0.0000 35.5422 0.0000 0.0000
# 5 0.0000 0.0000 0.0000 0.0000 13.3603 0.0000
# 6 0.0000 0.0000 0.0000 0.0000 0.0000 17.0894
#
#
#
# Elastic Compliance Matrix: (Units=1/GPa)
#
#
# Indices 1 2 3 4 5 6 
#
# 1 0.009476 0.003775 -0.005206 0.000000 0.000000 0.000000
# 2 0.003775 0.045280 -0.000852 0.000000 0.000000 0.000000
# 3 -0.005206 -0.000852 0.009546 0.000000 0.000000 0.000000
# 4 0.000000 0.000000 0.000000 0.028136 0.000000 0.000000
# 5 0.000000 0.000000 0.000000 0.000000 0.074849 0.000000
# 6 0.000000 0.000000 0.000000 0.000000 0.000000 0.058516
#
#
# Mechanical properties :
#
#
# Convention : Reuss Voigt Hill
#
# Bulk Modulus (GPa) = 16.74041 51.88076 34.31058
# Shear Modulus (GPa) = 19.97756 30.60280 25.29018
#
# Velocity S-wave (km/s) = 3.23909 4.00897 3.64442
# Velocity P-wave (km/s) = 4.77290 6.97679 5.97730
#
# Compressibility (1/GPa) = 0.05973570
#
# Stress axis : x y z
#
# Youngs Moduli (GPa) = 105.52504 22.08477 104.75787
#
# Poissons Ratio (x) = -0.08337 0.54540
# Poissons Ratio (y) = -0.39834 0.08924
# Poissons Ratio (z) = 0.54939 0.01881
#
# Static dielectric constant tensor:
#      x y z
#    x 1.672180 0.000000 0.000000 
#    y 0.000000 1.714640 0.000000 
#    z 0.000000 0.000000 1.646970 
# 
# From -- ./inp_files/57308.got.cif
#   From: 2010.05.17/outbox.cif.g08.bks.cpg/sg65_29_cif.got.tgz:57308.got - 2010.06.03 17:01:31.
