data_PCOD9483026
_publ_section_title
;
Structure prediction by ZEFSAII (Michael W. Deem and Ramdas Pophale) SiO2 
 PCOD9483026
Probable space group: C M M M
;
_chemical_formula_sum "Si O2"
_cell_formula_units_Z 128
_cell_length_a 19.423535
_cell_length_b 21.515648
_cell_length_c 18.383174
_cell_angle_alpha 90.000000
_cell_angle_beta 90.000000
_cell_angle_gamma 90.000000
_cell_volume 7682.511180
_symmetry_space_group_name_H-M "C M M M"
_symmetry_group_IT_number 65
_symmetry_cell_setting 'orthorhombic'
loop_
_space_group_symop_operation_xyz
x,y,z
-x,-y,z
x,-y,-z
-x,y,-z
-x,-y,-z
x,y,-z
-x,y,z
x,-y,z
1/2+x,1/2+y,z
1/2-x,1/2-y,z
1/2+x,1/2-y,-z
1/2-x,1/2+y,-z
1/2-x,1/2-y,-z
1/2+x,1/2+y,-z
1/2-x,1/2+y,z
1/2+x,1/2-y,z
loop_
_atom_site_type_symbol
_atom_site_label
_atom_site_fract_x
_atom_site_fract_y
_atom_site_fract_z
Si Si1 0.652615 0.367622 0.583989
Si Si2 0.080309 0.744143 0.352680
Si Si3 0.718413 0.179704 0.820883
Si Si4 0.786861 0.928598 0.916326
Si Si5 0.922290 0.263852 0.177921
Si Si6 0.419564 0.374171 0.862565
Si Si7 0.078395 0.928495 0.290686
Si Si8 0.216503 0.681310 0.651062
O O1 0.640058 0.380350 0.500000
O O2 0.610481 0.305460 0.608438
O O3 0.624410 0.418437 0.639357
O O4 0.733538 0.357942 0.600002
O O5 0.083942 0.751932 0.264590
O O6 0.136288 0.690061 0.368931
O O7 0.000000 0.733594 0.371242
O O8 0.750000 0.250000 0.829554
O O9 0.752268 0.125870 0.868689
O O10 0.638056 0.188630 0.839180
O O11 0.723978 0.162500 0.735485
O O12 0.867993 0.912319 0.911988
O O13 0.775688 0.000000 0.891046
O O14 0.763993 0.924422 0.000000
O O15 0.912684 0.200189 0.132994
O O16 0.000000 0.286399 0.166304
O O17 0.500000 0.390209 0.871557
O O18 0.399016 0.390285 0.779458
O O19 0.000000 0.908894 0.308159
O O20 0.077734 0.000000 0.268727
O O21 0.250000 0.750000 0.647617
#
# Coordination Sequence:
#
# PCOD9483026 Si02
#       8
#    16  16  16  16  16  16  16  16
#     4  11  20  29  41  60  94 134 167 202 245 290
#     4   9  16  28  45  66  92 121 153 196 250 298
#     4  10  17  33  57  76  96 131 172 212 254 297
#     4  11  24  37  50  74 107 139 170 205 248 299
#     4   9  16  29  53  80 101 121 161 216 256 294
#     4  10  18  33  54  75 101 132 167 207 251 300
#     4  10  20  32  47  67  91 126 172 211 240 280
#     4   8  17  29  46  68  92 119 159 205 245 293
#
# _framework density 16.661218999999999
#
# number of rings (size 3 to 8) (size 9 to 14) (size 15 to 20)
#    0.000    2.250    2.500    2.250    0.000    4.750 
#    0.000    1.250    0.000    0.750    0.000    0.875 
#    0.000    1.500    0.000    1.125    0.000    0.000 
#
# Total GULP energy -356567.439280 kJ/mol
# GULP energy per Si atom -5571.366239 kJ/mol
# Density = 1.662330 g / cm^3
# Si number density = 16.661219 Si / 1000 Ang^3
#
#
#
# Elastic Constant Matrix: (Units=GPa)
#
#
# Indices 1 2 3 4 5 6 
#
# 1 98.3196 20.6024 16.9257 0.0000 0.0000 0.0000
# 2 20.6024 37.1631 18.0093 0.0000 0.0000 0.0000
# 3 16.9257 18.0093 28.1600 0.0000 0.0000 0.0000
# 4 0.0000 0.0000 0.0000 5.7759 0.0000 0.0000
# 5 0.0000 0.0000 0.0000 0.0000 6.6533 0.0000
# 6 0.0000 0.0000 0.0000 0.0000 0.0000 19.0228
#
#
#
# Elastic Compliance Matrix: (Units=1/GPa)
#
#
# Indices 1 2 3 4 5 6 
#
# 1 0.011846 -0.004516 -0.004232 0.000000 0.000000 0.000000
# 2 -0.004516 0.040715 -0.023324 0.000000 0.000000 0.000000
# 3 -0.004232 -0.023324 0.052971 0.000000 0.000000 0.000000
# 4 0.000000 0.000000 0.000000 0.173135 0.000000 0.000000
# 5 0.000000 0.000000 0.000000 0.000000 0.150302 0.000000
# 6 0.000000 0.000000 0.000000 0.000000 0.000000 0.052568
#
#
# Mechanical properties :
#
#
# Convention : Reuss Voigt Hill
#
# Bulk Modulus (GPa) = 24.16156 30.52417 27.34287
# Shear Modulus (GPa) = 8.93692 13.49741 11.21717
#
# Velocity S-wave (km/s) = 2.31852 2.84933 2.59752
# Velocity P-wave (km/s) = 4.65839 5.40233 5.04409
#
# Compressibility (1/GPa) = 0.04138805
#
# Stress axis : x y z
#
# Youngs Moduli (GPa) = 84.41837 24.56096 18.87821
#
# Poissons Ratio (x) = 0.11093 0.07988
# Poissons Ratio (y) = 0.38127 0.44031
# Poissons Ratio (z) = 0.35722 0.57286
#
# Static dielectric constant tensor:
#      x y z
#    x 1.605330 0.000000 0.000000 
#    y 0.000000 1.561050 0.000000 
#    z 0.000000 0.000000 1.563850 
# 
# From -- ./inp_files/56261.got.cif
#   From: 2010.05.17/outbox.cif.g08.bks.cpg/sg65_29_cif.got.tgz:56261.got - 2010.06.03 17:01:31.
