data_PCOD9483976
_publ_section_title
;
Structure prediction by ZEFSAII (Michael W. Deem and Ramdas Pophale) SiO2 
 PCOD9483976
Probable space group: C M M M
;
_chemical_formula_sum "Si O2"
_cell_formula_units_Z 72
_cell_length_a 18.679569
_cell_length_b 8.810645
_cell_length_c 23.683467
_cell_angle_alpha 90.000000
_cell_angle_beta 90.000000
_cell_angle_gamma 90.000000
_cell_volume 3897.802528
_symmetry_space_group_name_H-M "C M M M"
_symmetry_group_IT_number 65
_symmetry_cell_setting 'orthorhombic'
loop_
_space_group_symop_operation_xyz
x,y,z
-x,-y,z
x,-y,-z
-x,y,-z
-x,-y,-z
x,y,-z
-x,y,z
x,-y,z
1/2+x,1/2+y,z
1/2-x,1/2-y,z
1/2+x,1/2-y,-z
1/2-x,1/2+y,-z
1/2-x,1/2-y,-z
1/2+x,1/2+y,-z
1/2-x,1/2+y,z
1/2+x,1/2-y,z
loop_
_atom_site_type_symbol
_atom_site_label
_atom_site_fract_x
_atom_site_fract_y
_atom_site_fract_z
Si Si1 0.916571 0.182063 0.770600
Si Si2 0.670304 0.681968 0.884257
Si Si3 0.330673 0.181794 0.000000
Si Si4 0.328772 0.819834 0.667249
Si Si5 0.916238 0.817815 0.434724
O O1 0.877403 0.215721 0.829658
O O2 0.876385 0.262540 0.719447
O O3 0.000000 0.224047 0.772453
O O4 0.912111 0.000000 0.761849
O O5 0.675890 0.500000 0.891206
O O6 0.750000 0.750000 0.875910
O O7 0.638378 0.754638 0.941459
O O8 0.250000 0.250000 0.000000
O O9 0.328767 0.000000 0.000000
O O10 0.250000 0.750000 0.671955
O O11 0.366238 0.764172 0.609808
O O12 0.323839 0.000000 0.668022
O O13 0.900335 0.779286 0.500000
O O14 0.000000 0.781859 0.424133
O O15 0.908574 0.000000 0.428693
#
# Coordination Sequence:
#
# PCOD9483976 Si02
#       5
#    16  16   8  16  16
#     4  10  22  40  60  82 111 147 185 228 280 336
#     4  10  19  33  55  81 109 142 182 226 272 325
#     4  10  18  30  51  78 109 143 179 223 273 324
#     4  12  25  39  58  84 114 149 188 233 281 329
#     4   9  19  38  63  88 116 151 187 225 274 331
#
# _framework density 18.471948000000001
#
# number of rings (size 3 to 8) (size 9 to 14) (size 15 to 20)
#    0.000    1.778    0.000    7.000    0.000    8.000 
#    0.000    1.667    0.000    3.333    0.000    0.000 
#    0.000    0.000    0.000    0.000    0.000    0.000 
#
# Total GULP energy -201142.031829 kJ/mol
# GULP energy per Si atom -5587.278662 kJ/mol
# Density = 1.842990 g / cm^3
# Si number density = 18.471948 Si / 1000 Ang^3
#
#
#
# Elastic Constant Matrix: (Units=GPa)
#
#
# Indices 1 2 3 4 5 6 
#
# 1 132.3035 73.2868 107.4783 0.0000 0.0000 0.0000
# 2 73.2868 93.5013 91.2732 0.0000 0.0000 0.0000
# 3 107.4783 91.2732 162.5100 0.0000 0.0000 0.0000
# 4 0.0000 0.0000 0.0000 -0.4362 0.0000 0.0000
# 5 0.0000 0.0000 0.0000 0.0000 62.7831 0.0000
# 6 0.0000 0.0000 0.0000 0.0000 0.0000 26.2239
#
#
#
# Elastic Compliance Matrix: (Units=1/GPa)
#
#
# Indices 1 2 3 4 5 6 
#
# 1 0.017462 -0.005342 -0.008548 0.000000 0.000000 0.000000
# 2 -0.005342 0.025310 -0.010682 0.000000 0.000000 0.000000
# 3 -0.008548 -0.010682 0.017806 0.000000 0.000000 0.000000
# 4 0.000000 0.000000 0.000000 -2.292720 0.000000 0.000000
# 5 0.000000 0.000000 0.000000 0.000000 0.015928 0.000000
# 6 0.000000 0.000000 0.000000 0.000000 0.000000 0.038133
#
#
# Mechanical properties :
#
#
# Convention : Reuss Voigt Hill
#
# Bulk Modulus (GPa) = 87.46428 103.59904 95.53166
# Shear Modulus (GPa) = -2.35280 25.46594 11.55657
#
# Velocity S-wave (km/s) = -1.12981 3.71702 2.50397
# Velocity P-wave (km/s) = 6.76392 8.63874 7.75817
#
# Compressibility (1/GPa) = 0.01143324
#
# Stress axis : x y z
#
# Youngs Moduli (GPa) = 57.26793 39.51063 56.15940
#
# Poissons Ratio (x) = 0.21107 0.48006
# Poissons Ratio (y) = 0.30593 0.59989
# Poissons Ratio (z) = 0.48954 0.42205
#
# Static dielectric constant tensor:
#      x y z
#    x 1.611570 0.000000 0.000000 
#    y 0.000000 1.618890 0.000000 
#    z 0.000000 0.000000 1.642620 
# 
# From -- ./inp_files/70313.got.cif
#   From: 2010.05.17/outbox.cif.g08.bks.cpg/sg65_36_cif.got.tgz:70313.got - 2010.06.03 17:01:31.
