data_PCOD9483342
_publ_section_title
;
Structure prediction by ZEFSAII (Michael W. Deem and Ramdas Pophale) SiO2 
 PCOD9483342
Probable space group: C M M M
;
_chemical_formula_sum "Si O2"
_cell_formula_units_Z 80
_cell_length_a 8.047191
_cell_length_b 18.793426
_cell_length_c 27.200054
_cell_angle_alpha 90.000000
_cell_angle_beta 90.000000
_cell_angle_gamma 90.000000
_cell_volume 4113.580816
_symmetry_space_group_name_H-M "C M M M"
_symmetry_group_IT_number 65
_symmetry_cell_setting 'orthorhombic'
loop_
_space_group_symop_operation_xyz
x,y,z
-x,-y,z
x,-y,-z
-x,y,-z
-x,-y,-z
x,y,-z
-x,y,z
x,-y,z
1/2+x,1/2+y,z
1/2-x,1/2-y,z
1/2+x,1/2-y,-z
1/2-x,1/2+y,-z
1/2-x,1/2-y,-z
1/2+x,1/2+y,-z
1/2-x,1/2+y,z
1/2+x,1/2-y,z
loop_
_atom_site_type_symbol
_atom_site_label
_atom_site_fract_x
_atom_site_fract_y
_atom_site_fract_z
Si Si1 0.296260 0.417935 0.253942
Si Si2 0.301652 0.833171 0.052890
Si Si3 0.200570 0.168167 0.350225
Si Si4 0.197163 0.167439 0.158993
Si Si5 0.702717 0.582481 0.555043
O O1 0.500000 0.417289 0.253624
O O2 0.244640 0.500000 0.255199
O O3 0.242107 0.375665 0.302519
O O4 0.237232 0.378038 0.204719
O O5 0.500000 0.836536 0.052945
O O6 0.250000 0.750000 0.053351
O O7 0.242837 0.862459 0.105128
O O8 0.241083 0.862690 0.000000
O O9 0.250000 0.250000 0.346895
O O10 0.261433 0.131924 0.400684
O O11 0.000000 0.164184 0.350670
O O12 0.250000 0.250000 0.162560
O O13 0.000000 0.166983 0.162034
O O14 0.756662 0.603657 0.500000
O O15 0.500000 0.584035 0.555115
O O16 0.749906 0.500000 0.563181
#
# Coordination Sequence:
#
# PCOD9483342 Si02
#       5
#    16  16  16  16  16
#     4   9  18  32  49  68  89 118 158 196 229 270
#     4   9  16  26  42  65  93 122 151 184 222 267
#     4  10  19  31  49  71  96 124 153 192 238 279
#     4  10  18  28  46  69  93 119 148 188 231 272
#     4   8  14  26  46  71  95 122 161 201 230 264
#
# _framework density 19.447776000000001
#
# number of rings (size 3 to 8) (size 9 to 14) (size 15 to 20)
#    0.000    2.800    0.000    4.200    0.000    4.000 
#    0.000    1.000    0.000    7.800    0.000    5.600 
#    0.000    0.000    0.000    0.000    0.000    0.000 
#
# Total GULP energy -222984.672310 kJ/mol
# GULP energy per Si atom -5574.616808 kJ/mol
# Density = 1.940351 g / cm^3
# Si number density = 19.447776 Si / 1000 Ang^3
#
#
#
# Elastic Constant Matrix: (Units=GPa)
#
#
# Indices 1 2 3 4 5 6 
#
# 1 17.9892 5.6068 16.5936 0.0000 0.0000 0.0000
# 2 5.6068 112.2174 115.4995 0.0000 0.0000 0.0000
# 3 16.5936 115.4995 241.5655 0.0000 0.0000 0.0000
# 4 0.0000 0.0000 0.0000 -10.7971 0.0000 0.0000
# 5 0.0000 0.0000 0.0000 0.0000 16.7605 0.0000
# 6 0.0000 0.0000 0.0000 0.0000 0.0000 17.1891
#
#
#
# Elastic Compliance Matrix: (Units=1/GPa)
#
#
# Indices 1 2 3 4 5 6 
#
# 1 0.059686 0.002437 -0.005265 0.000000 0.000000 0.000000
# 2 0.002437 0.017645 -0.008604 0.000000 0.000000 0.000000
# 3 -0.005265 -0.008604 0.008615 0.000000 0.000000 0.000000
# 4 0.000000 0.000000 0.000000 -0.092618 0.000000 0.000000
# 5 0.000000 0.000000 0.000000 0.000000 0.059664 0.000000
# 6 0.000000 0.000000 0.000000 0.000000 0.000000 0.058176
#
#
# Mechanical properties :
#
#
# Convention : Reuss Voigt Hill
#
# Bulk Modulus (GPa) = 15.85238 71.90799 43.88019
# Shear Modulus (GPa) = 32.24526 20.23530 26.24028
#
# Velocity S-wave (km/s) = 4.07633 3.22917 3.67722
# Velocity P-wave (km/s) = 5.50674 7.13853 6.37506
#
# Compressibility (1/GPa) = 0.06308199
#
# Stress axis : x y z
#
# Youngs Moduli (GPa) = 16.75433 56.67233 116.07361
#
# Poissons Ratio (x) = -0.13811 0.61114
# Poissons Ratio (y) = -0.04083 0.99871
# Poissons Ratio (z) = 0.08821 0.48762
#
# Static dielectric constant tensor:
#      x y z
#    x 1.698710 0.000000 0.000000 
#    y 0.000000 1.638240 0.000000 
#    z 0.000000 0.000000 1.727620 
# 
# From -- ./inp_files/72854.got.cif
#   From: 2010.05.17/outbox.cif.g08.bks.cpg/sg65_37_cif.got.tgz:72854.got - 2010.06.03 17:01:31.
