data_PCOD9483168
_publ_section_title
;
Structure prediction by ZEFSAII (Michael W. Deem and Ramdas Pophale) SiO2 
 PCOD9483168
Probable space group: C M M M
;
_chemical_formula_sum "Si O2"
_cell_formula_units_Z 96
_cell_length_a 7.648400
_cell_length_b 28.284171
_cell_length_c 25.255067
_cell_angle_alpha 90.000000
_cell_angle_beta 90.000000
_cell_angle_gamma 90.000000
_cell_volume 5463.394638
_symmetry_space_group_name_H-M "C M M M"
_symmetry_group_IT_number 65
_symmetry_cell_setting 'orthorhombic'
loop_
_space_group_symop_operation_xyz
x,y,z
-x,-y,z
x,-y,-z
-x,y,-z
-x,-y,-z
x,y,-z
-x,y,z
x,-y,z
1/2+x,1/2+y,z
1/2-x,1/2-y,z
1/2+x,1/2-y,-z
1/2-x,1/2+y,-z
1/2-x,1/2-y,-z
1/2+x,1/2+y,-z
1/2-x,1/2+y,z
1/2+x,1/2-y,z
loop_
_atom_site_type_symbol
_atom_site_label
_atom_site_fract_x
_atom_site_fract_y
_atom_site_fract_z
Si Si1 0.790483 0.193911 0.000000
Si Si2 0.709183 0.054321 0.386599
Si Si3 0.294950 0.103168 0.834794
Si Si4 0.206180 0.946389 0.500000
Si Si5 0.208388 0.194816 0.884873
Si Si6 0.287684 0.944022 0.942094
Si Si7 0.213060 0.555645 0.728465
O O1 0.750000 0.250000 0.000000
O O2 0.721175 0.178049 0.057134
O O3 0.000000 0.187621 0.000000
O O4 0.500000 0.052113 0.383202
O O5 0.747970 0.076716 0.443656
O O6 0.771615 0.073406 0.329725
O O7 0.776213 0.000000 0.389359
O O8 0.500000 0.090373 0.834922
O O9 0.278531 0.159308 0.841114
O O10 0.219712 0.080849 0.889026
O O11 0.221247 0.083058 0.780066
O O12 0.000000 0.951029 0.500000
O O13 0.286415 0.000000 0.500000
O O14 0.250000 0.250000 0.877618
O O15 0.000000 0.190568 0.885948
O O16 0.500000 0.939697 0.942716
O O17 0.249078 0.000000 0.939060
O O18 0.224783 0.926390 0.000000
O O19 0.256530 0.500000 0.732755
O O20 0.000000 0.558517 0.728769
#
# Coordination Sequence:
#
# PCOD9483168 Si02
#       7
#     8  16  16   8  16  16  16
#     4   8  16  30  46  60  75  96 121 155 200 251
#     4   8  13  22  36  52  73 105 143 176 203 235
#     4  10  18  27  44  66  85 108 138 173 212 251
#     4   9  15  21  31  51  77 103 134 173 214 247
#     4  10  20  34  48  63  82 104 131 167 212 262
#     4   8  14  24  38  59  85 109 136 171 206 241
#     4   8  14  25  41  61  84 112 147 181 207 237
#
# _framework density 17.571493
#
# number of rings (size 3 to 8) (size 9 to 14) (size 15 to 20)
#    0.000    3.250    0.000    2.750    1.167    3.667 
#    0.000    0.833    0.000    3.000    0.000    1.167 
#    0.000    0.000    0.000    0.750    0.000    8.417 
#
# Total GULP energy -267225.635379 kJ/mol
# GULP energy per Si atom -5567.200737 kJ/mol
# Density = 1.753150 g / cm^3
# Si number density = 17.571493 Si / 1000 Ang^3
#
#
#
# Elastic Constant Matrix: (Units=GPa)
#
#
# Indices 1 2 3 4 5 6 
#
# 1 37.3926 -5.0468 11.2433 0.0000 0.0000 0.0000
# 2 -5.0468 40.7464 58.6581 0.0000 0.0000 0.0000
# 3 11.2433 58.6581 202.9313 0.0000 0.0000 0.0000
# 4 0.0000 0.0000 0.0000 9.0445 0.0000 0.0000
# 5 0.0000 0.0000 0.0000 0.0000 -3.7957 0.0000
# 6 0.0000 0.0000 0.0000 0.0000 0.0000 5.8185
#
#
#
# Elastic Compliance Matrix: (Units=1/GPa)
#
#
# Indices 1 2 3 4 5 6 
#
# 1 0.029519 0.010294 -0.004611 0.000000 0.000000 0.000000
# 2 0.010294 0.045623 -0.013758 0.000000 0.000000 0.000000
# 3 -0.004611 -0.013758 0.009160 0.000000 0.000000 0.000000
# 4 0.000000 0.000000 0.000000 0.110565 0.000000 0.000000
# 5 0.000000 0.000000 0.000000 0.000000 -0.263453 0.000000
# 6 0.000000 0.000000 0.000000 0.000000 0.000000 0.171867
#
#
# Mechanical properties :
#
#
# Convention : Reuss Voigt Hill
#
# Bulk Modulus (GPa) = 14.67292 45.64217 30.15755
# Shear Modulus (GPa) = 35.17479 16.62781 25.90130
#
# Velocity S-wave (km/s) = 4.47901 3.07953 3.84350
# Velocity P-wave (km/s) = 5.92598 6.21902 6.07427
#
# Compressibility (1/GPa) = 0.06815274
#
# Stress axis : x y z
#
# Youngs Moduli (GPa) = 33.87631 21.91891 109.17030
#
# Poissons Ratio (x) = -0.22564 0.50340
# Poissons Ratio (y) = -0.34873 1.50194
# Poissons Ratio (z) = 0.15621 0.30156
#
# Static dielectric constant tensor:
#      x y z
#    x 1.644850 0.000000 0.000000 
#    y 0.000000 1.577910 0.000000 
#    z 0.000000 0.000000 1.680910 
# 
# From -- ./inp_files/68106.got.cif
#   From: 2010.05.17/outbox.cif.g08.bks.cpg/sg65_35_cif.got.tgz:68106.got - 2010.06.03 17:01:31.
