data_PCOD9483124
_publ_section_title
;
Structure prediction by ZEFSAII (Michael W. Deem and Ramdas Pophale) SiO2 
 PCOD9483124
Probable space group: C M M M
;
_chemical_formula_sum "Si O2"
_cell_formula_units_Z 80
_cell_length_a 20.526876
_cell_length_b 26.338970
_cell_length_c 7.286598
_cell_angle_alpha 90.000000
_cell_angle_beta 90.000000
_cell_angle_gamma 90.000000
_cell_volume 3939.548547
_symmetry_space_group_name_H-M "C M M M"
_symmetry_group_IT_number 65
_symmetry_cell_setting 'orthorhombic'
loop_
_space_group_symop_operation_xyz
x,y,z
-x,-y,z
x,-y,-z
-x,y,-z
-x,-y,-z
x,y,-z
-x,y,z
x,-y,z
1/2+x,1/2+y,z
1/2-x,1/2-y,z
1/2+x,1/2-y,-z
1/2-x,1/2+y,-z
1/2-x,1/2-y,-z
1/2+x,1/2+y,-z
1/2-x,1/2+y,z
1/2+x,1/2-y,z
loop_
_atom_site_type_symbol
_atom_site_label
_atom_site_fract_x
_atom_site_fract_y
_atom_site_fract_z
Si Si1 0.000000 0.368354 0.723156
Si Si2 0.000000 0.252635 0.205048
Si Si3 0.890953 0.444787 0.721003
Si Si4 0.248210 0.167929 0.223240
Si Si5 0.644804 0.755367 0.223102
Si Si6 0.740096 0.555989 0.208398
O O1 0.062970 0.399916 0.780629
O O2 0.000000 0.364757 0.500000
O O3 0.000000 0.313328 0.804417
O O4 0.071651 0.243484 0.289202
O O5 0.000000 0.229581 0.000000
O O6 0.885378 0.442202 0.500000
O O7 0.919598 0.500000 0.765749
O O8 0.818627 0.443145 0.796862
O O9 0.317851 0.192622 0.281936
O O10 0.193682 0.209598 0.269383
O O11 0.227900 0.111915 0.290366
O O12 0.251173 0.164857 0.000000
O O13 0.640896 0.758121 0.000000
O O14 0.722602 0.500000 0.288139
O O15 0.714423 0.556102 0.000000
#
# Coordination Sequence:
#
# PCOD9483124 Si02
#       6
#     8   8  16  16  16  16
#     4  10  19  28  38  52  74 105 133 155 187 230
#     4  10  18  27  41  61  77  92 126 170 199 218
#     4   9  17  28  39  51  72 104 136 159 181 218
#     4   8  13  23  37  54  78 103 123 148 190 238
#     4   8  14  23  37  56  76  99 126 156 189 226
#     4   9  16  25  39  59  78  95 121 160 199 228
#
# _framework density 20.306895999999998
#
# number of rings (size 3 to 8) (size 9 to 14) (size 15 to 20)
#    0.000    3.200    0.000    2.700    0.000    3.600 
#    0.000    0.000    0.000    4.200    0.000    6.300 
#    0.000    5.600    0.000    0.000    0.000    9.500 
#
# Total GULP energy -222837.102737 kJ/mol
# GULP energy per Si atom -5570.927568 kJ/mol
# Density = 2.026068 g / cm^3
# Si number density = 20.306896 Si / 1000 Ang^3
#
#
#
# Elastic Constant Matrix: (Units=GPa)
#
#
# Indices 1 2 3 4 5 6 
#
# 1 95.4102 26.9240 0.9719 0.0000 0.0000 0.0000
# 2 26.9240 134.2380 3.6456 0.0000 0.0000 0.0000
# 3 0.9719 3.6456 83.7472 0.0000 0.0000 0.0000
# 4 0.0000 0.0000 0.0000 8.9321 0.0000 0.0000
# 5 0.0000 0.0000 0.0000 0.0000 -0.3722 0.0000
# 6 0.0000 0.0000 0.0000 0.0000 0.0000 26.1827
#
#
#
# Elastic Compliance Matrix: (Units=1/GPa)
#
#
# Indices 1 2 3 4 5 6 
#
# 1 0.011110 -0.002227 -0.000032 0.000000 0.000000 0.000000
# 2 -0.002227 0.007905 -0.000318 0.000000 0.000000 0.000000
# 3 -0.000032 -0.000318 0.011955 0.000000 0.000000 0.000000
# 4 0.000000 0.000000 0.000000 0.111955 0.000000 0.000000
# 5 0.000000 0.000000 0.000000 0.000000 -2.686656 0.000000
# 6 0.000000 0.000000 0.000000 0.000000 0.000000 0.038193
#
#
# Mechanical properties :
#
#
# Convention : Reuss Voigt Hill
#
# Bulk Modulus (GPa) = 38.73807 41.83092 40.28450
# Shear Modulus (GPa) = -2.00660 25.73878 11.86609
#
# Velocity S-wave (km/s) = -0.99513 3.56404 2.41993
# Velocity P-wave (km/s) = 4.21869 6.13030 5.26203
#
# Compressibility (1/GPa) = 0.02581440
#
# Stress axis : x y z
#
# Youngs Moduli (GPa) = 90.00942 126.50456 83.64751
#
# Poissons Ratio (x) = 0.28178 0.00267
# Poissons Ratio (y) = 0.20049 0.02662
# Poissons Ratio (z) = 0.00288 0.04026
#
# Static dielectric constant tensor:
#      x y z
#    x 1.706300 0.000000 0.000000 
#    y 0.000000 1.764780 0.000000 
#    z 0.000000 0.000000 1.777960 
# 
# From -- ./inp_files/12078.got.cif
#   From: 2010.05.17/outbox.cif.g08.bks.cpg/sg65_7_cif.got.tgz:12078.got - 2010.06.03 17:01:31.
