data_PCOD9483570
_publ_section_title
;
Structure prediction by ZEFSAII (Michael W. Deem and Ramdas Pophale) SiO2 
 PCOD9483570
Probable space group: C M M M
;
_chemical_formula_sum "Si O2"
_cell_formula_units_Z 96
_cell_length_a 22.211754
_cell_length_b 20.745962
_cell_length_c 12.527249
_cell_angle_alpha 90.000000
_cell_angle_beta 90.000000
_cell_angle_gamma 90.000000
_cell_volume 5772.609009
_symmetry_space_group_name_H-M "C M M M"
_symmetry_group_IT_number 65
_symmetry_cell_setting 'orthorhombic'
loop_
_space_group_symop_operation_xyz
x,y,z
-x,-y,z
x,-y,-z
-x,y,-z
-x,-y,-z
x,y,-z
-x,y,z
x,-y,z
1/2+x,1/2+y,z
1/2-x,1/2-y,z
1/2+x,1/2-y,-z
1/2-x,1/2+y,-z
1/2-x,1/2-y,-z
1/2+x,1/2+y,-z
1/2-x,1/2+y,z
1/2+x,1/2-y,z
loop_
_atom_site_type_symbol
_atom_site_label
_atom_site_fract_x
_atom_site_fract_y
_atom_site_fract_z
Si Si1 0.250000 0.750000 0.736800
Si Si2 0.930707 0.634597 0.760451
Si Si3 0.781320 0.500000 0.242889
Si Si4 0.129391 0.754219 0.126728
Si Si5 0.066767 0.885869 0.870746
Si Si6 0.688017 0.871773 0.373318
Si Si7 0.154351 0.000000 0.870873
Si Si8 0.595312 0.000000 0.873687
O O1 0.192283 0.763162 0.811777
O O2 0.272074 0.811233 0.667450
O O3 0.903935 0.688524 0.840232
O O4 0.881691 0.635535 0.664999
O O5 0.928794 0.564829 0.817670
O O6 0.000000 0.648495 0.730959
O O7 0.789453 0.563596 0.314619
O O8 0.718138 0.500000 0.184359
O O9 0.833672 0.500000 0.153713
O O10 0.086899 0.814065 0.156708
O O11 0.139862 0.755134 0.000000
O O12 0.000000 0.901070 0.830843
O O13 0.116054 0.937628 0.837840
O O14 0.064733 0.889251 0.000000
O O15 0.691484 0.877266 0.500000
O O16 0.160643 0.000000 0.000000
O O17 0.583713 0.000000 0.000000
#
# Coordination Sequence:
#
# PCOD9483570 Si02
#       8
#     8  16   8  16  16  16   8   8
#     4  10  20  34  52  76 100 126 168 206 246 300
#     4  10  21  34  50  74  99 129 169 203 239 292
#     4  10  20  34  51  74  98 123 163 203 248 304
#     4  10  19  31  49  73 105 138 163 196 239 289
#     4   9  17  28  43  66  98 136 169 192 224 274
#     4  10  21  37  55  72  95 126 162 212 259 293
#     4  10  18  29  48  72 101 132 160 197 241 291
#     4  10  20  33  49  70 101 135 161 193 237 292
#
# _framework density 16.630261999999998
#
# number of rings (size 3 to 8) (size 9 to 14) (size 15 to 20)
#    0.000    2.167    0.000    3.500    0.000    3.667 
#    0.000    5.000    0.000    3.000    0.000    0.000 
#    0.000   25.333    0.000    0.000    0.000    0.000 
#
# Total GULP energy -267694.479243 kJ/mol
# GULP energy per Si atom -5576.968318 kJ/mol
# Density = 1.659241 g / cm^3
# Si number density = 16.630262 Si / 1000 Ang^3
#
#
#
# Elastic Constant Matrix: (Units=GPa)
#
#
# Indices 1 2 3 4 5 6 
#
# 1 151.3150 43.7259 35.2753 0.0000 0.0000 0.0000
# 2 43.7259 89.9384 24.5853 0.0000 0.0000 0.0000
# 3 35.2753 24.5853 60.6606 0.0000 0.0000 0.0000
# 4 0.0000 0.0000 0.0000 13.4673 0.0000 0.0000
# 5 0.0000 0.0000 0.0000 0.0000 10.2905 0.0000
# 6 0.0000 0.0000 0.0000 0.0000 0.0000 28.4465
#
#
#
# Elastic Compliance Matrix: (Units=1/GPa)
#
#
# Indices 1 2 3 4 5 6 
#
# 1 0.008335 -0.003067 -0.003604 0.000000 0.000000 0.000000
# 2 -0.003067 0.013633 -0.003742 0.000000 0.000000 0.000000
# 3 -0.003604 -0.003742 0.020097 0.000000 0.000000 0.000000
# 4 0.000000 0.000000 0.000000 0.074254 0.000000 0.000000
# 5 0.000000 0.000000 0.000000 0.000000 0.097177 0.000000
# 6 0.000000 0.000000 0.000000 0.000000 0.000000 0.035154
#
#
# Mechanical properties :
#
#
# Convention : Reuss Voigt Hill
#
# Bulk Modulus (GPa) = 47.08151 56.56522 51.82337
# Shear Modulus (GPa) = 18.07958 23.66271 20.87115
#
# Velocity S-wave (km/s) = 3.30077 3.77619 3.54646
# Velocity P-wave (km/s) = 6.54973 7.28698 6.92817
#
# Compressibility (1/GPa) = 0.02123976
#
# Stress axis : x y z
#
# Youngs Moduli (GPa) = 119.97241 73.35287 49.75767
#
# Poissons Ratio (x) = 0.22499 0.17933
# Poissons Ratio (y) = 0.36798 0.18617
# Poissons Ratio (z) = 0.43238 0.27446
#
# Static dielectric constant tensor:
#      x y z
#    x 1.556290 0.000000 0.000000 
#    y 0.000000 1.566570 0.000000 
#    z 0.000000 0.000000 1.520660 
# 
# From -- ./inp_files/29145.got.cif
#   From: 2010.05.17/outbox.cif.g08.bks.cpg/sg65_15_cif.got.tgz:29145.got - 2010.06.03 17:01:31.
