data_PCOD9483081
_publ_section_title
;
Structure prediction by ZEFSAII (Michael W. Deem and Ramdas Pophale) SiO2 
 PCOD9483081
Probable space group: C M M M
;
_chemical_formula_sum "Si O2"
_cell_formula_units_Z 112
_cell_length_a 33.787770
_cell_length_b 13.756258
_cell_length_c 14.168852
_cell_angle_alpha 90.000000
_cell_angle_beta 90.000000
_cell_angle_gamma 90.000000
_cell_volume 6585.587214
_symmetry_space_group_name_H-M "C M M M"
_symmetry_group_IT_number 65
_symmetry_cell_setting 'orthorhombic'
loop_
_space_group_symop_operation_xyz
x,y,z
-x,-y,z
x,-y,-z
-x,y,-z
-x,-y,-z
x,y,-z
-x,y,z
x,-y,z
1/2+x,1/2+y,z
1/2-x,1/2-y,z
1/2+x,1/2-y,-z
1/2-x,1/2+y,-z
1/2-x,1/2-y,-z
1/2+x,1/2+y,-z
1/2-x,1/2+y,z
1/2+x,1/2-y,z
loop_
_atom_site_type_symbol
_atom_site_label
_atom_site_fract_x
_atom_site_fract_y
_atom_site_fract_z
Si Si1 0.546655 0.383711 0.391965
Si Si2 0.311567 0.617106 0.390755
Si Si3 0.355302 0.883732 0.390502
Si Si4 0.728285 0.881796 0.303004
Si Si5 0.615384 0.712239 0.281498
Si Si6 0.747023 0.382939 0.895181
Si Si7 0.346543 0.614371 0.888899
O O1 0.557894 0.356411 0.500000
O O2 0.500000 0.363593 0.380269
O O3 0.552061 0.500000 0.384270
O O4 0.574111 0.330931 0.316881
O O5 0.311982 0.643574 0.500000
O O6 0.312844 0.500000 0.383631
O O7 0.270240 0.649637 0.345112
O O8 0.349755 0.658441 0.339709
O O9 0.363586 0.858930 0.500000
O O10 0.309876 0.857151 0.364435
O O11 0.381132 0.823196 0.316176
O O12 0.359618 0.000000 0.380397
O O13 0.727267 0.849220 0.193763
O O14 0.729237 0.000000 0.302717
O O15 0.626797 0.684265 0.174977
O O16 0.749614 0.500000 0.896704
O O17 0.700393 0.363272 0.878189
O O18 0.759051 0.350064 0.000000
O O19 0.351798 0.500000 0.861147
O O20 0.355340 0.622069 0.000000
#
# Coordination Sequence:
#
# PCOD9483081 Si02
#       7
#    16  16  16  16  16  16  16
#     4   9  18  32  51  79 112 136 152 182 241 314
#     4  10  18  26  41  68  96 121 155 199 243 294
#     4  10  22  37  49  64  93 135 177 217 261 297
#     4   9  16  29  44  60  90 130 165 203 254 299
#     4  12  20  31  52  73  96 127 172 208 240 295
#     4   8  13  24  43  64  88 123 165 204 246 295
#     4   9  17  30  49  75 105 131 158 200 254 307
#
# _framework density 17.006836
#
# number of rings (size 3 to 8) (size 9 to 14) (size 15 to 20)
#    0.000    2.429    1.429    4.286    0.000    3.429 
#    0.000    2.143    0.000    3.857    0.000    4.000 
#    0.000    0.000    0.000    1.286    0.000    0.286 
#
# Total GULP energy -312600.138143 kJ/mol
# GULP energy per Si atom -5582.145324 kJ/mol
# Density = 1.696813 g / cm^3
# Si number density = 17.006836 Si / 1000 Ang^3
#
#
#
# Elastic Constant Matrix: (Units=GPa)
#
#
# Indices 1 2 3 4 5 6 
#
# 1 28.4653 8.5078 12.2672 0.0000 0.0000 0.0000
# 2 8.5078 65.3779 25.7946 0.0000 0.0000 0.0000
# 3 12.2672 25.7946 81.6742 0.0000 0.0000 0.0000
# 4 0.0000 0.0000 0.0000 14.3231 0.0000 0.0000
# 5 0.0000 0.0000 0.0000 0.0000 10.9271 0.0000
# 6 0.0000 0.0000 0.0000 0.0000 0.0000 17.4861
#
#
#
# Elastic Compliance Matrix: (Units=1/GPa)
#
#
# Indices 1 2 3 4 5 6 
#
# 1 0.038099 -0.003084 -0.004748 0.000000 0.000000 0.000000
# 2 -0.003084 0.017723 -0.005134 0.000000 0.000000 0.000000
# 3 -0.004748 -0.005134 0.014578 0.000000 0.000000 0.000000
# 4 0.000000 0.000000 0.000000 0.069818 0.000000 0.000000
# 5 0.000000 0.000000 0.000000 0.000000 0.091515 0.000000
# 6 0.000000 0.000000 0.000000 0.000000 0.000000 0.057188
#
#
# Mechanical properties :
#
#
# Convention : Reuss Voigt Hill
#
# Bulk Modulus (GPa) = 22.48886 29.85073 26.16980
# Shear Modulus (GPa) = 15.16641 17.14378 16.15509
#
# Velocity S-wave (km/s) = 2.98951 3.17843 3.08542
# Velocity P-wave (km/s) = 5.01681 5.57317 5.30229
#
# Compressibility (1/GPa) = 0.04446646
#
# Stress axis : x y z
#
# Youngs Moduli (GPa) = 26.24768 56.42492 68.59494
#
# Poissons Ratio (x) = 0.17404 0.32570
# Poissons Ratio (y) = 0.08096 0.35216
# Poissons Ratio (z) = 0.12463 0.28968
#
# Static dielectric constant tensor:
#      x y z
#    x 1.530990 0.000000 0.000000 
#    y 0.000000 1.656890 0.000000 
#    z 0.000000 0.000000 1.604190 
# 
# From -- ./inp_files/48002.got.cif
#   From: 2010.05.17/outbox.cif.g08.bks.cpg/sg65_25_cif.got.tgz:48002.got - 2010.06.03 17:01:31.
