data_PCOD9483348
_publ_section_title
;
Structure prediction by ZEFSAII (Michael W. Deem and Ramdas Pophale) SiO2 
 PCOD9483348
Probable space group: C M M M
;
_chemical_formula_sum "Si O2"
_cell_formula_units_Z 80
_cell_length_a 8.625236
_cell_length_b 20.124919
_cell_length_c 26.668031
_cell_angle_alpha 90.000000
_cell_angle_beta 90.000000
_cell_angle_gamma 90.000000
_cell_volume 4629.094847
_symmetry_space_group_name_H-M "C M M M"
_symmetry_group_IT_number 65
_symmetry_cell_setting 'orthorhombic'
loop_
_space_group_symop_operation_xyz
x,y,z
-x,-y,z
x,-y,-z
-x,y,-z
-x,-y,-z
x,y,-z
-x,y,z
x,-y,z
1/2+x,1/2+y,z
1/2-x,1/2-y,z
1/2+x,1/2-y,-z
1/2-x,1/2+y,-z
1/2-x,1/2-y,-z
1/2+x,1/2+y,-z
1/2-x,1/2+y,z
1/2+x,1/2-y,z
loop_
_atom_site_type_symbol
_atom_site_label
_atom_site_fract_x
_atom_site_fract_y
_atom_site_fract_z
Si Si1 0.811154 0.423802 0.753169
Si Si2 0.313768 0.174936 0.840833
Si Si3 0.186874 0.577027 0.639405
Si Si4 0.685385 0.323350 0.442948
Si Si5 0.314024 0.325437 0.945323
O O1 0.762445 0.500000 0.763249
O O2 0.760716 0.371831 0.795236
O O3 0.763819 0.405778 0.696396
O O4 0.000000 0.423896 0.753541
O O5 0.500000 0.178089 0.841330
O O6 0.250000 0.250000 0.835424
O O7 0.256668 0.146153 0.894313
O O8 0.229440 0.500000 0.630621
O O9 0.255531 0.624736 0.597716
O O10 0.000000 0.581263 0.637723
O O11 0.734604 0.340973 0.500000
O O12 0.500000 0.321019 0.441850
O O13 0.750000 0.250000 0.432109
O O14 0.500000 0.323596 0.941181
O O15 0.250000 0.250000 0.946511
O O16 0.274024 0.355471 0.000000
#
# Coordination Sequence:
#
# PCOD9483348 Si02
#       5
#    16  16  16  16  16
#     4   8  16  32  51  70  94 126 161 195 233 276
#     4  10  18  28  46  70  95 121 152 193 235 278
#     4   9  18  34  55  76  99 129 165 202 241 289
#     4  10  21  36  53  74 102 133 164 201 244 289
#     4   9  16  26  41  62  90 121 152 189 232 277
#
# _framework density 17.281995999999999
#
# number of rings (size 3 to 8) (size 9 to 14) (size 15 to 20)
#    0.000    2.800    0.000    4.200    0.000    4.000 
#    0.000    6.000    0.000    5.400    0.000    4.200 
#    0.000    0.000    0.000    0.000    0.000    0.000 
#
# Total GULP energy -222849.971537 kJ/mol
# GULP energy per Si atom -5571.249288 kJ/mol
# Density = 1.724266 g / cm^3
# Si number density = 17.281996 Si / 1000 Ang^3
#
#
#
# Elastic Constant Matrix: (Units=GPa)
#
#
# Indices 1 2 3 4 5 6 
#
# 1 36.5971 28.4281 43.7426 0.0000 0.0000 0.0000
# 2 28.4281 79.3010 108.5039 0.0000 0.0000 0.0000
# 3 43.7426 108.5039 195.7875 0.0000 0.0000 0.0000
# 4 0.0000 0.0000 0.0000 -15.6402 0.0000 0.0000
# 5 0.0000 0.0000 0.0000 0.0000 26.2922 0.0000
# 6 0.0000 0.0000 0.0000 0.0000 0.0000 20.1470
#
#
#
# Elastic Compliance Matrix: (Units=1/GPa)
#
#
# Indices 1 2 3 4 5 6 
#
# 1 0.038595 -0.008429 -0.003952 0.000000 0.000000 0.000000
# 2 -0.008429 0.054008 -0.028048 0.000000 0.000000 0.000000
# 3 -0.003952 -0.028048 0.021534 0.000000 0.000000 0.000000
# 4 0.000000 0.000000 0.000000 -0.063938 0.000000 0.000000
# 5 0.000000 0.000000 0.000000 0.000000 0.038034 0.000000
# 6 0.000000 0.000000 0.000000 0.000000 0.000000 0.049635
#
#
# Mechanical properties :
#
#
# Convention : Reuss Voigt Hill
#
# Bulk Modulus (GPa) = 30.04700 74.78165 52.41432
# Shear Modulus (GPa) = 21.75618 14.89387 18.32503
#
# Velocity S-wave (km/s) = 3.55194 2.93885 3.25984
# Velocity P-wave (km/s) = 5.85198 7.40818 6.67559
#
# Compressibility (1/GPa) = 0.03328119
#
# Stress axis : x y z
#
# Youngs Moduli (GPa) = 25.90995 18.51565 46.43741
#
# Poissons Ratio (x) = 0.15606 0.18351
# Poissons Ratio (y) = 0.21839 1.30247
# Poissons Ratio (z) = 0.10239 0.51932
#
# Static dielectric constant tensor:
#      x y z
#    x 1.592210 0.000000 0.000000 
#    y 0.000000 1.556640 0.000000 
#    z 0.000000 0.000000 1.620420 
# 
# From -- ./inp_files/72822.got.cif
#   From: 2010.05.17/outbox.cif.g08.bks.cpg/sg65_37_cif.got.tgz:72822.got - 2010.06.03 17:01:31.
