data_PCOD9483565
_publ_section_title
;
Structure prediction by ZEFSAII (Michael W. Deem and Ramdas Pophale) SiO2 
 PCOD9483565
Probable space group: C M M M
;
_chemical_formula_sum "Si O2"
_cell_formula_units_Z 88
_cell_length_a 25.425049
_cell_length_b 21.009977
_cell_length_c 8.055654
_cell_angle_alpha 90.000000
_cell_angle_beta 90.000000
_cell_angle_gamma 90.000000
_cell_volume 4303.166794
_symmetry_space_group_name_H-M "C M M M"
_symmetry_group_IT_number 65
_symmetry_cell_setting 'orthorhombic'
loop_
_space_group_symop_operation_xyz
x,y,z
-x,-y,z
x,-y,-z
-x,y,-z
-x,-y,-z
x,y,-z
-x,y,z
x,-y,z
1/2+x,1/2+y,z
1/2-x,1/2-y,z
1/2+x,1/2-y,-z
1/2-x,1/2+y,-z
1/2-x,1/2-y,-z
1/2+x,1/2+y,-z
1/2-x,1/2+y,z
1/2+x,1/2-y,z
loop_
_atom_site_type_symbol
_atom_site_label
_atom_site_fract_x
_atom_site_fract_y
_atom_site_fract_z
Si Si1 0.912513 0.207937 0.301612
Si Si2 0.292096 0.702338 0.695271
Si Si3 0.561485 0.846432 0.817709
Si Si4 0.435544 0.925342 0.500000
Si Si5 0.293921 0.431914 0.801471
Si Si6 0.580179 0.569410 0.198094
O O1 0.914167 0.215742 0.500000
O O2 0.851643 0.206601 0.239453
O O3 0.936218 0.271143 0.221832
O O4 0.936989 0.138432 0.263690
O O5 0.296881 0.716356 0.500000
O O6 0.250000 0.750000 0.771409
O O7 0.272240 0.630697 0.717884
O O8 0.500000 0.863654 0.826686
O O9 0.583388 0.887349 0.663962
O O10 0.585258 0.858567 0.000000
O O11 0.500000 0.922355 0.500000
O O12 0.421399 0.000000 0.500000
O O13 0.272806 0.500000 0.744646
O O14 0.356889 0.432044 0.769520
O O15 0.287680 0.427341 0.000000
O O16 0.560310 0.500000 0.259789
O O17 0.571909 0.570069 0.000000
#
# Coordination Sequence:
#
# PCOD9483565 Si02
#       6
#    16  16  16   8  16  16
#     4  10  18  29  48  71  99 134 169 211 255 298
#     4   9  18  30  44  67  96 125 163 205 246 294
#     4  10  20  34  54  80 108 137 168 206 256 311
#     4   9  18  34  56  82 108 131 163 209 255 304
#     4   8  14  25  41  61  85 114 151 196 243 285
#     4   8  14  25  41  63  92 124 161 205 248 291
#
# _framework density 20.450056
#
# number of rings (size 3 to 8) (size 9 to 14) (size 15 to 20)
#    0.000    3.000    0.909    1.636    0.000    2.182 
#    0.000    5.455    0.000    1.636    0.000    3.818 
#    0.000    0.000    0.000    0.000    0.000    0.000 
#
# Total GULP energy -245026.151107 kJ/mol
# GULP energy per Si atom -5568.776162 kJ/mol
# Density = 2.040351 g / cm^3
# Si number density = 20.450056 Si / 1000 Ang^3
#
#
#
# Elastic Constant Matrix: (Units=GPa)
#
#
# Indices 1 2 3 4 5 6 
#
# 1 32.0408 20.9820 4.4627 0.0000 0.0000 0.0000
# 2 20.9820 126.7532 59.8485 0.0000 0.0000 0.0000
# 3 4.4627 59.8485 82.5321 0.0000 0.0000 0.0000
# 4 0.0000 0.0000 0.0000 32.6114 0.0000 0.0000
# 5 0.0000 0.0000 0.0000 0.0000 3.8111 0.0000
# 6 0.0000 0.0000 0.0000 0.0000 0.0000 20.5265
#
#
#
# Elastic Compliance Matrix: (Units=1/GPa)
#
#
# Indices 1 2 3 4 5 6 
#
# 1 0.035687 -0.007598 0.003580 0.000000 0.000000 0.000000
# 2 -0.007598 0.013615 -0.009462 0.000000 0.000000 0.000000
# 3 0.003580 -0.009462 0.018784 0.000000 0.000000 0.000000
# 4 0.000000 0.000000 0.000000 0.030664 0.000000 0.000000
# 5 0.000000 0.000000 0.000000 0.000000 0.262391 0.000000
# 6 0.000000 0.000000 0.000000 0.000000 0.000000 0.048718
#
#
# Mechanical properties :
#
#
# Convention : Reuss Voigt Hill
#
# Bulk Modulus (GPa) = 24.31533 45.76805 35.04169
# Shear Modulus (GPa) = 11.09813 21.79200 16.44507
#
# Velocity S-wave (km/s) = 2.33211 3.26793 2.83884
# Velocity P-wave (km/s) = 4.37808 6.05542 5.28373
#
# Compressibility (1/GPa) = 0.04112632
#
# Stress axis : x y z
#
# Youngs Moduli (GPa) = 28.02148 73.45072 53.23618
#
# Poissons Ratio (x) = 0.55805 -0.19058
# Poissons Ratio (y) = 0.21290 0.50371
# Poissons Ratio (z) = -0.10031 0.69498
#
# Static dielectric constant tensor:
#      x y z
#    x 1.762440 0.000000 0.000000 
#    y 0.000000 1.749460 0.000000 
#    z 0.000000 0.000000 1.742890 
# 
# From -- ./inp_files/18520.got.cif
#   From: 2010.05.17/outbox.cif.g08.bks.cpg/sg65_10_cif.got.tgz:18520.got - 2010.06.03 17:01:31.
