data_PCOD9483172
_publ_section_title
;
Structure prediction by ZEFSAII (Michael W. Deem and Ramdas Pophale) SiO2 
 PCOD9483172
Probable space group: C M M M
;
_chemical_formula_sum "Si O2"
_cell_formula_units_Z 96
_cell_length_a 30.678454
_cell_length_b 20.839225
_cell_length_c 7.352817
_cell_angle_alpha 90.000000
_cell_angle_beta 90.000000
_cell_angle_gamma 90.000000
_cell_volume 4700.767712
_symmetry_space_group_name_H-M "C M M M"
_symmetry_group_IT_number 65
_symmetry_cell_setting 'orthorhombic'
loop_
_space_group_symop_operation_xyz
x,y,z
-x,-y,z
x,-y,-z
-x,y,-z
-x,-y,-z
x,y,-z
-x,y,z
x,-y,z
1/2+x,1/2+y,z
1/2-x,1/2-y,z
1/2+x,1/2-y,-z
1/2-x,1/2+y,-z
1/2-x,1/2-y,-z
1/2+x,1/2+y,-z
1/2-x,1/2+y,z
1/2+x,1/2-y,z
loop_
_atom_site_type_symbol
_atom_site_label
_atom_site_fract_x
_atom_site_fract_y
_atom_site_fract_z
Si Si1 0.707236 0.209037 0.278022
Si Si2 0.947343 0.568883 0.217294
Si Si3 0.765476 0.429064 0.720862
Si Si4 0.950458 0.292404 0.781795
Si Si5 0.163294 0.070500 0.278747
Si Si6 0.128366 0.203664 0.284587
O O1 0.707059 0.207663 0.500000
O O2 0.750000 0.250000 0.226344
O O3 0.710342 0.135178 0.217292
O O4 0.664674 0.246797 0.214017
O O5 0.931248 0.500000 0.289705
O O6 0.932325 0.638410 0.285984
O O7 0.000000 0.569787 0.242380
O O8 0.939786 0.567587 0.000000
O O9 0.767269 0.429568 0.500000
O O10 0.780376 0.500000 0.781695
O O11 0.714338 0.421919 0.769210
O O12 0.918703 0.234268 0.740778
O O13 0.000000 0.283517 0.716139
O O14 0.952687 0.297843 0.000000
O O15 0.161917 0.069547 0.500000
O O16 0.136655 0.132074 0.213919
O O17 0.148640 0.000000 0.217196
O O18 0.136211 0.199693 0.500000
#
# Coordination Sequence:
#
# PCOD9483172 Si02
#       6
#    16  16  16  16  16  16
#     4   9  14  22  36  58  87 114 139 171 211 256
#     4   7  10  20  41  64  79  97 136 183 213 238
#     4   8  12  19  33  54  83 118 149 174 204 249
#     4   9  18  32  48  65  87 116 149 185 223 264
#     4   8  13  22  38  62  88 112 145 186 218 248
#     4  10  18  27  44  69  92 115 144 183 227 264
#
# _framework density 20.422194999999999
#
# number of rings (size 3 to 8) (size 9 to 14) (size 15 to 20)
#    0.000    3.500    1.667    2.500    0.000    0.333 
#    0.000    0.833    0.000    3.000    0.000    5.833 
#    0.000    0.000    0.000    0.000    0.000    0.000 
#
# Total GULP energy -267497.718812 kJ/mol
# GULP energy per Si atom -5572.869142 kJ/mol
# Density = 2.037571 g / cm^3
# Si number density = 20.422195 Si / 1000 Ang^3
#
#
#
# Elastic Constant Matrix: (Units=GPa)
#
#
# Indices 1 2 3 4 5 6 
#
# 1 62.0490 77.2573 -1.4156 0.0000 0.0000 0.0000
# 2 77.2573 242.8502 11.3370 0.0000 0.0000 0.0000
# 3 -1.4156 11.3370 72.8053 0.0000 0.0000 0.0000
# 4 0.0000 0.0000 0.0000 -2.5686 0.0000 0.0000
# 5 0.0000 0.0000 0.0000 0.0000 8.2385 0.0000
# 6 0.0000 0.0000 0.0000 0.0000 0.0000 28.4520
#
#
#
# Elastic Compliance Matrix: (Units=1/GPa)
#
#
# Indices 1 2 3 4 5 6 
#
# 1 0.026938 -0.008657 0.001872 0.000000 0.000000 0.000000
# 2 -0.008657 0.006930 -0.001247 0.000000 0.000000 0.000000
# 3 0.001872 -0.001247 0.013966 0.000000 0.000000 0.000000
# 4 0.000000 0.000000 0.000000 -0.389312 0.000000 0.000000
# 5 0.000000 0.000000 0.000000 0.000000 0.121381 0.000000
# 6 0.000000 0.000000 0.000000 0.000000 0.000000 0.035147
#
#
# Mechanical properties :
#
#
# Convention : Reuss Voigt Hill
#
# Bulk Modulus (GPa) = 31.47776 61.34022 46.40899
# Shear Modulus (GPa) = -31.58642 26.19277 -2.69682
#
# Velocity S-wave (km/s) = -3.93704 3.58518 -1.15039
# Velocity P-wave (km/s) = 2.28475 6.87308 4.58362
#
# Compressibility (1/GPa) = 0.03176847
#
# Stress axis : x y z
#
# Youngs Moduli (GPa) = 37.12241 144.29915 71.60291
#
# Poissons Ratio (x) = 1.24921 -0.13403
# Poissons Ratio (y) = 0.32137 0.08932
# Poissons Ratio (z) = -0.06949 0.18001
#
# Static dielectric constant tensor:
#      x y z
#    x 1.688930 0.000000 0.000000 
#    y 0.000000 1.777490 0.000000 
#    z 0.000000 0.000000 1.827530 
# 
# From -- ./inp_files/16330.got.cif
#   From: 2010.05.17/outbox.cif.g08.bks.cpg/sg65_9_cif.got.tgz:16330.got - 2010.06.03 17:01:31.
