data_PCOD9483455
_publ_section_title
;
Structure prediction by ZEFSAII (Michael W. Deem and Ramdas Pophale) SiO2 
 PCOD9483455
Probable space group: C M M M
;
_chemical_formula_sum "Si O2"
_cell_formula_units_Z 72
_cell_length_a 8.769917
_cell_length_b 29.336186
_cell_length_c 18.921870
_cell_angle_alpha 90.000000
_cell_angle_beta 90.000000
_cell_angle_gamma 90.000000
_cell_volume 4868.141443
_symmetry_space_group_name_H-M "C M M M"
_symmetry_group_IT_number 65
_symmetry_cell_setting 'orthorhombic'
loop_
_space_group_symop_operation_xyz
x,y,z
-x,-y,z
x,-y,-z
-x,y,-z
-x,-y,-z
x,y,-z
-x,y,z
x,-y,z
1/2+x,1/2+y,z
1/2-x,1/2-y,z
1/2+x,1/2-y,-z
1/2-x,1/2+y,-z
1/2-x,1/2-y,-z
1/2+x,1/2+y,-z
1/2-x,1/2+y,z
1/2+x,1/2-y,z
loop_
_atom_site_type_symbol
_atom_site_label
_atom_site_fract_x
_atom_site_fract_y
_atom_site_fract_z
Si Si1 0.685648 0.552284 0.500000
Si Si2 0.680432 0.055015 0.922899
Si Si3 0.682422 0.799022 0.582797
Si Si4 0.684709 0.609300 0.361831
Si Si5 0.183537 0.052828 0.224789
O O1 0.737939 0.500000 0.500000
O O2 0.500000 0.551420 0.500000
O O3 0.732407 0.579088 0.429598
O O4 0.500000 0.064264 0.918551
O O5 0.760571 0.070471 0.851269
O O6 0.698673 0.000000 0.923720
O O7 0.736183 0.071660 0.000000
O O8 0.725044 0.806744 0.500000
O O9 0.500000 0.797882 0.587267
O O10 0.750000 0.750000 0.603251
O O11 0.748587 0.840545 0.627721
O O12 0.500000 0.611766 0.362198
O O13 0.733408 0.583916 0.290212
O O14 0.000000 0.052104 0.224730
O O15 0.234868 0.000000 0.234129
#
# Coordination Sequence:
#
# PCOD9483455 Si02
#       5
#     8  16  16  16  16
#     4   9  16  26  42  61  82 115 154 183 206 241
#     4   8  14  25  40  57  79 111 149 183 217 258
#     4  10  20  33  49  66  84 106 139 182 228 271
#     4  10  18  29  45  64  87 115 148 182 217 257
#     4   9  17  27  40  62  90 118 149 183 216 252
#
# _framework density 14.790039
#
# number of rings (size 3 to 8) (size 9 to 14) (size 15 to 20)
#    0.000    2.778    1.111    2.000    0.000    4.889 
#    0.000    2.222    0.000    2.667    0.000    0.000 
#    0.000    0.889    0.000    2.889    0.000    4.222 
#
# Total GULP energy -200521.013106 kJ/mol
# GULP energy per Si atom -5570.028142 kJ/mol
# Density = 1.475638 g / cm^3
# Si number density = 14.790039 Si / 1000 Ang^3
#
#
#
# Elastic Constant Matrix: (Units=GPa)
#
#
# Indices 1 2 3 4 5 6 
#
# 1 11.0838 21.2717 29.8902 0.0000 0.0000 0.0000
# 2 21.2717 96.7953 67.9435 0.0000 0.0000 0.0000
# 3 29.8902 67.9435 148.3226 0.0000 0.0000 0.0000
# 4 0.0000 0.0000 0.0000 5.4014 0.0000 0.0000
# 5 0.0000 0.0000 0.0000 0.0000 19.1164 0.0000
# 6 0.0000 0.0000 0.0000 0.0000 0.0000 18.2149
#
#
#
# Elastic Compliance Matrix: (Units=1/GPa)
#
#
# Indices 1 2 3 4 5 6 
#
# 1 0.238923 -0.027576 -0.035516 0.000000 0.000000 0.000000
# 2 -0.027576 0.018410 -0.002876 0.000000 0.000000 0.000000
# 3 -0.035516 -0.002876 0.015217 0.000000 0.000000 0.000000
# 4 0.000000 0.000000 0.000000 0.185136 0.000000 0.000000
# 5 0.000000 0.000000 0.000000 0.000000 0.052311 0.000000
# 6 0.000000 0.000000 0.000000 0.000000 0.000000 0.054900
#
#
# Mechanical properties :
#
#
# Convention : Reuss Voigt Hill
#
# Bulk Modulus (GPa) = 7.11167 54.93472 31.02319
# Shear Modulus (GPa) = 6.72309 17.68629 12.20469
#
# Velocity S-wave (km/s) = 2.13438 3.46182 2.87574
# Velocity P-wave (km/s) = 3.30045 7.29401 5.66108
#
# Compressibility (1/GPa) = 0.14061388
#
# Stress axis : x y z
#
# Youngs Moduli (GPa) = 4.18544 54.31847 65.71655
#
# Poissons Ratio (x) = 1.49787 2.33401
# Poissons Ratio (y) = 0.11542 0.18901
# Poissons Ratio (z) = 0.14865 0.15623
#
# Static dielectric constant tensor:
#      x y z
#    x 1.500400 0.000000 0.000000 
#    y 0.000000 1.464490 0.000000 
#    z 0.000000 0.000000 1.506980 
# 
# From -- ./inp_files/49748.got.cif
#   From: 2010.05.17/outbox.cif.g08.bks.cpg/sg65_25_cif.got.tgz:49748.got - 2010.06.03 17:01:31.
