data_PCOD9483767
_publ_section_title
;
Structure prediction by ZEFSAII (Michael W. Deem and Ramdas Pophale) SiO2 
 PCOD9483767
Probable space group: C M M M
;
_chemical_formula_sum "Si O2"
_cell_formula_units_Z 112
_cell_length_a 29.196551
_cell_length_b 14.932381
_cell_length_c 12.904358
_cell_angle_alpha 90.000000
_cell_angle_beta 90.000000
_cell_angle_gamma 90.000000
_cell_volume 5625.964877
_symmetry_space_group_name_H-M "C M M M"
_symmetry_group_IT_number 65
_symmetry_cell_setting 'orthorhombic'
loop_
_space_group_symop_operation_xyz
x,y,z
-x,-y,z
x,-y,-z
-x,y,-z
-x,-y,-z
x,y,-z
-x,y,z
x,-y,z
1/2+x,1/2+y,z
1/2-x,1/2-y,z
1/2+x,1/2-y,-z
1/2-x,1/2+y,-z
1/2-x,1/2-y,-z
1/2+x,1/2+y,-z
1/2-x,1/2+y,z
1/2+x,1/2-y,z
loop_
_atom_site_type_symbol
_atom_site_label
_atom_site_fract_x
_atom_site_fract_y
_atom_site_fract_z
Si Si1 0.151288 0.397509 0.385098
Si Si2 0.551339 0.311089 0.114161
Si Si3 0.351486 0.604255 0.681748
Si Si4 0.638287 0.223780 0.810678
Si Si5 0.450232 0.604879 0.662901
Si Si6 0.253878 0.356056 0.335760
Si Si7 0.780290 0.395927 0.113463
O O1 0.137230 0.368843 0.500000
O O2 0.136978 0.500000 0.367768
O O3 0.133862 0.333310 0.294914
O O4 0.206900 0.395340 0.380202
O O5 0.500000 0.272669 0.116350
O O6 0.590502 0.237772 0.131989
O O7 0.553191 0.377241 0.212875
O O8 0.557915 0.352896 0.000000
O O9 0.356315 0.500000 0.713062
O O10 0.347291 0.676678 0.774237
O O11 0.399290 0.631621 0.625670
O O12 0.302972 0.612488 0.623832
O O13 0.677214 0.171699 0.873546
O O14 0.500000 0.644367 0.629959
O O15 0.453109 0.500000 0.640690
O O16 0.250000 0.250000 0.349386
O O17 0.250961 0.379137 0.213209
O O18 0.795683 0.500000 0.119592
O O19 0.758831 0.382712 0.000000
#
# Coordination Sequence:
#
# PCOD9483767 Si02
#       7
#    16  16  16  16  16  16  16
#     4  10  21  37  58  79  98 127 170 216 262 315
#     4   9  17  28  46  74 106 139 174 212 256 307
#     4  10  18  30  48  70 103 139 173 212 256 311
#     4  10  18  34  52  75 101 136 173 215 262 307
#     4   8  15  27  43  65  96 138 183 222 256 291
#     4  11  19  34  50  73 103 140 167 209 264 310
#     4  10  20  33  50  70  95 135 180 215 251 303
#
# _framework density 19.907696000000001
#
# number of rings (size 3 to 8) (size 9 to 14) (size 15 to 20)
#    0.000    2.286    2.857    3.000    0.000    0.857 
#    0.000    2.143    0.000    7.286    0.000    6.000 
#    0.000    0.571    0.000   37.857    0.000    0.286 
#
# Total GULP energy -311804.632669 kJ/mol
# GULP energy per Si atom -5567.939869 kJ/mol
# Density = 1.986239 g / cm^3
# Si number density = 19.907696 Si / 1000 Ang^3
#
#
#
# Elastic Constant Matrix: (Units=GPa)
#
#
# Indices 1 2 3 4 5 6 
#
# 1 89.7780 14.3054 -5.6474 0.0000 0.0000 0.0000
# 2 14.3054 82.7442 9.0136 0.0000 0.0000 0.0000
# 3 -5.6474 9.0136 91.3123 0.0000 0.0000 0.0000
# 4 0.0000 0.0000 0.0000 27.2675 0.0000 0.0000
# 5 0.0000 0.0000 0.0000 0.0000 -14.4526 0.0000
# 6 0.0000 0.0000 0.0000 0.0000 0.0000 11.6122
#
#
#
# Elastic Compliance Matrix: (Units=1/GPa)
#
#
# Indices 1 2 3 4 5 6 
#
# 1 0.011530 -0.002094 0.000920 0.000000 0.000000 0.000000
# 2 -0.002094 0.012597 -0.001373 0.000000 0.000000 0.000000
# 3 0.000920 -0.001373 0.011144 0.000000 0.000000 0.000000
# 4 0.000000 0.000000 0.000000 0.036674 0.000000 0.000000
# 5 0.000000 0.000000 0.000000 0.000000 -0.069192 0.000000
# 6 0.000000 0.000000 0.000000 0.000000 0.000000 0.086117
#
#
# Mechanical properties :
#
#
# Convention : Reuss Voigt Hill
#
# Bulk Modulus (GPa) = 33.13750 33.24196 33.18973
# Shear Modulus (GPa) = 48.06685 21.29629 34.68157
#
# Velocity S-wave (km/s) = 4.91907 3.27425 4.17840
# Velocity P-wave (km/s) = 6.99605 5.57033 6.32350
#
# Compressibility (1/GPa) = 0.03017729
#
# Stress axis : x y z
#
# Youngs Moduli (GPa) = 86.72996 79.38434 89.73571
#
# Poissons Ratio (x) = 0.16620 -0.08254
# Poissons Ratio (y) = 0.18158 0.12320
# Poissons Ratio (z) = -0.07977 0.10899
#
# Static dielectric constant tensor:
#      x y z
#    x 1.766880 0.000000 0.000000 
#    y 0.000000 1.687480 0.000000 
#    z 0.000000 0.000000 1.735940 
# 
# From -- ./inp_files/47985.got.cif
#   From: 2010.05.17/outbox.cif.g08.bks.cpg/sg65_24_cif.got.tgz:47985.got - 2010.06.03 17:01:31.
