data_PCOD9483615
_publ_section_title
;
Structure prediction by ZEFSAII (Michael W. Deem and Ramdas Pophale) SiO2 
 PCOD9483615
Probable space group: C M M M
;
_chemical_formula_sum "Si O2"
_cell_formula_units_Z 96
_cell_length_a 18.109424
_cell_length_b 10.042553
_cell_length_c 30.227313
_cell_angle_alpha 90.000000
_cell_angle_beta 90.000000
_cell_angle_gamma 90.000000
_cell_volume 5497.285754
_symmetry_space_group_name_H-M "C M M M"
_symmetry_group_IT_number 65
_symmetry_cell_setting 'orthorhombic'
loop_
_space_group_symop_operation_xyz
x,y,z
-x,-y,z
x,-y,-z
-x,y,-z
-x,-y,-z
x,y,-z
-x,y,z
x,-y,z
1/2+x,1/2+y,z
1/2-x,1/2-y,z
1/2+x,1/2-y,-z
1/2-x,1/2+y,-z
1/2-x,1/2-y,-z
1/2+x,1/2+y,-z
1/2-x,1/2+y,z
1/2+x,1/2-y,z
loop_
_atom_site_type_symbol
_atom_site_label
_atom_site_fract_x
_atom_site_fract_y
_atom_site_fract_z
Si Si1 0.339168 0.250073 0.109231
Si Si2 0.411380 0.348823 0.552168
Si Si3 0.589039 0.156206 0.803237
Si Si4 0.583967 0.839257 0.294982
Si Si5 0.823989 0.337966 0.383045
Si Si6 0.839061 0.500000 0.050411
Si Si7 0.659382 0.500000 0.050677
O O1 0.250000 0.250000 0.114071
O O2 0.375062 0.237951 0.157197
O O3 0.362098 0.374645 0.079880
O O4 0.361374 0.125710 0.079090
O O5 0.393889 0.337251 0.500000
O O6 0.500000 0.342457 0.556751
O O7 0.388431 0.500000 0.566365
O O8 0.374882 0.229621 0.579391
O O9 0.500000 0.161406 0.805560
O O10 0.609622 0.204450 0.753826
O O11 0.610677 0.000000 0.808255
O O12 0.500000 0.790828 0.302993
O O13 0.636436 0.810762 0.335960
O O14 0.579674 0.000000 0.291834
O O15 0.815091 0.500000 0.387998
O O16 0.750000 0.250000 0.384423
O O17 0.749281 0.500000 0.048147
O O18 0.865947 0.500000 0.000000
O O19 0.632809 0.500000 0.000000
#
# Coordination Sequence:
#
# PCOD9483615 Si02
#       7
#    16  16  16  16  16   8   8
#     4  10  18  29  49  74  99 128 164 207 251 299
#     4   9  19  37  60  84 112 148 188 230 275 323
#     4   9  17  32  54  76  99 129 167 211 257 307
#     4   8  16  32  54  77  99 130 173 217 262 314
#     4  11  22  35  54  81 114 148 183 227 276 325
#     4   9  16  28  47  71  97 125 167 211 242 289
#     4   9  18  30  45  69  99 133 165 201 252 299
#
# _framework density 17.463163000000002
#
# number of rings (size 3 to 8) (size 9 to 14) (size 15 to 20)
#    0.000    2.667    0.833    3.000    0.000    4.333 
#    0.000    1.250    3.667    3.000    0.000    0.000 
#    0.000    0.000    0.000    0.000    0.000    0.000 
#
# Total GULP energy -267332.814806 kJ/mol
# GULP energy per Si atom -5569.433642 kJ/mol
# Density = 1.742342 g / cm^3
# Si number density = 17.463163 Si / 1000 Ang^3
#
#
#
# Elastic Constant Matrix: (Units=GPa)
#
#
# Indices 1 2 3 4 5 6 
#
# 1 33.7476 33.6362 46.0964 0.0000 0.0000 0.0000
# 2 33.6362 121.6511 70.4217 0.0000 0.0000 0.0000
# 3 46.0964 70.4217 139.1354 0.0000 0.0000 0.0000
# 4 0.0000 0.0000 0.0000 -103.9546 0.0000 0.0000
# 5 0.0000 0.0000 0.0000 0.0000 27.9312 0.0000
# 6 0.0000 0.0000 0.0000 0.0000 0.0000 11.0275
#
#
#
# Elastic Compliance Matrix: (Units=1/GPa)
#
#
# Indices 1 2 3 4 5 6 
#
# 1 0.058002 -0.006949 -0.015699 0.000000 0.000000 0.000000
# 2 -0.006949 0.012459 -0.004004 0.000000 0.000000 0.000000
# 3 -0.015699 -0.004004 0.014415 0.000000 0.000000 0.000000
# 4 0.000000 0.000000 0.000000 -0.009620 0.000000 0.000000
# 5 0.000000 0.000000 0.000000 0.000000 0.035802 0.000000
# 6 0.000000 0.000000 0.000000 0.000000 0.000000 0.090683
#
#
# Mechanical properties :
#
#
# Convention : Reuss Voigt Hill
#
# Bulk Modulus (GPa) = 31.67405 66.09363 48.88384
# Shear Modulus (GPa) = 18.82747 -3.37386 7.72680
#
# Velocity S-wave (km/s) = 3.28704 -1.39147 2.10576
# Velocity P-wave (km/s) = 5.70817 5.94542 5.82800
#
# Compressibility (1/GPa) = 0.03157159
#
# Stress axis : x y z
#
# Youngs Moduli (GPa) = 17.24091 80.26024 69.37285
#
# Poissons Ratio (x) = 0.55776 1.08908
# Poissons Ratio (y) = 0.11981 0.27776
# Poissons Ratio (z) = 0.27066 0.32135
#
# Static dielectric constant tensor:
#      x y z
#    x 1.599450 0.000000 0.000000 
#    y 0.000000 1.586550 0.000000 
#    z 0.000000 0.000000 1.590280 
# 
# From -- ./inp_files/75707.got.cif
#   From: 2010.05.17/outbox.cif.g08.bks.cpg/sg65_38_cif.got.tgz:75707.got - 2010.06.03 17:01:31.
