data_PCOD9483226
_publ_section_title
;
Structure prediction by ZEFSAII (Michael W. Deem and Ramdas Pophale) SiO2 
 PCOD9483226
Probable space group: C M M M
;
_chemical_formula_sum "Si O2"
_cell_formula_units_Z 96
_cell_length_a 27.394482
_cell_length_b 8.775799
_cell_length_c 23.710343
_cell_angle_alpha 90.000000
_cell_angle_beta 90.000000
_cell_angle_gamma 90.000000
_cell_volume 5700.167230
_symmetry_space_group_name_H-M "C M M M"
_symmetry_group_IT_number 65
_symmetry_cell_setting 'orthorhombic'
loop_
_space_group_symop_operation_xyz
x,y,z
-x,-y,z
x,-y,-z
-x,y,-z
-x,-y,-z
x,y,-z
-x,y,z
x,-y,z
1/2+x,1/2+y,z
1/2-x,1/2-y,z
1/2+x,1/2-y,-z
1/2-x,1/2+y,-z
1/2-x,1/2-y,-z
1/2+x,1/2+y,-z
1/2-x,1/2+y,z
1/2+x,1/2-y,z
loop_
_atom_site_type_symbol
_atom_site_label
_atom_site_fract_x
_atom_site_fract_y
_atom_site_fract_z
Si Si1 0.056759 0.684764 0.253906
Si Si2 0.379888 0.828013 0.846218
Si Si3 0.697106 0.816413 0.066562
Si Si4 0.797604 0.671211 0.750902
Si Si5 0.864200 0.820235 0.661714
Si Si6 0.802846 0.681525 0.566513
O O1 0.062515 0.500000 0.253976
O O2 0.076909 0.740285 0.192506
O O3 0.089630 0.749262 0.304911
O O4 0.000000 0.721285 0.260721
O O5 0.350169 0.757885 0.898671
O O6 0.337523 0.838834 0.799369
O O7 0.395376 0.000000 0.863128
O O8 0.750000 0.750000 0.083807
O O9 0.698949 0.000000 0.074853
O O10 0.691310 0.785542 0.000000
O O11 0.788394 0.500000 0.729777
O O12 0.750000 0.750000 0.774398
O O13 0.818966 0.776034 0.702024
O O14 0.847488 0.749092 0.602502
O O15 0.870336 0.000000 0.657037
O O16 0.808911 0.715039 0.500000
O O17 0.801189 0.500000 0.574211
O O18 0.750000 0.750000 0.583666
#
# Coordination Sequence:
#
# PCOD9483226 Si02
#       6
#    16  16  16  16  16  16
#     4   9  18  34  54  71  89 117 154 197 245 295
#     4   8  15  27  43  64  88 117 153 191 233 281
#     4   9  16  26  41  62  91 125 158 191 227 272
#     4  10  18  28  42  62  91 123 156 192 232 280
#     4  11  21  32  48  70  97 125 155 193 236 283
#     4  10  20  34  52  74 102 135 168 197 226 267
#
# _framework density 16.841612000000001
#
# number of rings (size 3 to 8) (size 9 to 14) (size 15 to 20)
#    0.000    2.500    0.000    4.500    0.000    1.333 
#    0.000    3.333    0.000    1.000    0.000    7.000 
#    0.000    0.000    0.000   10.167    0.000   11.000 
#
# Total GULP energy -267220.302823 kJ/mol
# GULP energy per Si atom -5567.089642 kJ/mol
# Density = 1.680328 g / cm^3
# Si number density = 16.841612 Si / 1000 Ang^3
#
#
#
# Elastic Constant Matrix: (Units=GPa)
#
#
# Indices 1 2 3 4 5 6 
#
# 1 97.9026 37.4554 48.9334 0.0000 0.0000 0.0000
# 2 37.4554 38.1190 27.8954 0.0000 0.0000 0.0000
# 3 48.9334 27.8954 88.9977 0.0000 0.0000 0.0000
# 4 0.0000 0.0000 0.0000 13.3548 0.0000 0.0000
# 5 0.0000 0.0000 0.0000 0.0000 23.4566 0.0000
# 6 0.0000 0.0000 0.0000 0.0000 0.0000 18.9819
#
#
#
# Elastic Compliance Matrix: (Units=1/GPa)
#
#
# Indices 1 2 3 4 5 6 
#
# 1 0.018401 -0.013855 -0.005775 0.000000 0.000000 0.000000
# 2 -0.013855 0.044474 -0.006322 0.000000 0.000000 0.000000
# 3 -0.005775 -0.006322 0.016393 0.000000 0.000000 0.000000
# 4 0.000000 0.000000 0.000000 0.074879 0.000000 0.000000
# 5 0.000000 0.000000 0.000000 0.000000 0.042632 0.000000
# 6 0.000000 0.000000 0.000000 0.000000 0.000000 0.052682
#
#
# Mechanical properties :
#
#
# Convention : Reuss Voigt Hill
#
# Bulk Modulus (GPa) = 36.54373 50.39862 43.47117
# Shear Modulus (GPa) = 16.10381 18.54101 17.32241
#
# Velocity S-wave (km/s) = 3.09559 3.32159 3.21058
# Velocity P-wave (km/s) = 5.87558 6.68585 6.29377
#
# Compressibility (1/GPa) = 0.02736448
#
# Stress axis : x y z
#
# Youngs Moduli (GPa) = 54.34460 22.48523 61.00175
#
# Poissons Ratio (x) = 0.31153 0.35227
# Poissons Ratio (y) = 0.75293 0.38566
# Poissons Ratio (z) = 0.31383 0.14215
#
# Static dielectric constant tensor:
#      x y z
#    x 1.572060 0.000000 0.000000 
#    y 0.000000 1.588540 0.000000 
#    z 0.000000 0.000000 1.605410 
# 
# From -- ./inp_files/68049.got.cif
#   From: 2010.05.17/outbox.cif.g08.bks.cpg/sg65_35_cif.got.tgz:68049.got - 2010.06.03 17:01:31.
