data_PCOD9483092
_publ_section_title
;
Structure prediction by ZEFSAII (Michael W. Deem and Ramdas Pophale) SiO2 
 PCOD9483092
Probable space group: C M M M
;
_chemical_formula_sum "Si O2"
_cell_formula_units_Z 76
_cell_length_a 21.567958
_cell_length_b 10.266718
_cell_length_c 17.216503
_cell_angle_alpha 90.000000
_cell_angle_beta 90.000000
_cell_angle_gamma 90.000000
_cell_volume 3812.287148
_symmetry_space_group_name_H-M "C M M M"
_symmetry_group_IT_number 65
_symmetry_cell_setting 'orthorhombic'
loop_
_space_group_symop_operation_xyz
x,y,z
-x,-y,z
x,-y,-z
-x,y,-z
-x,-y,-z
x,y,-z
-x,y,z
x,-y,z
1/2+x,1/2+y,z
1/2-x,1/2-y,z
1/2+x,1/2-y,-z
1/2-x,1/2+y,-z
1/2-x,1/2-y,-z
1/2+x,1/2+y,-z
1/2-x,1/2+y,z
1/2+x,1/2-y,z
loop_
_atom_site_type_symbol
_atom_site_label
_atom_site_fract_x
_atom_site_fract_y
_atom_site_fract_z
Si Si1 0.704699 0.000000 0.500000
Si Si2 0.856043 0.000000 0.907291
Si Si3 0.801313 0.825852 0.500000
Si Si4 0.788886 0.500000 0.093241
Si Si5 0.066037 0.500000 0.769126
Si Si6 0.682300 0.354514 0.323057
Si Si7 0.129934 0.728142 0.831191
Si Si8 0.192594 0.500000 0.671698
O O1 0.721956 0.162881 0.500000
O O2 0.671607 0.000000 0.583137
O O3 0.881764 0.137337 0.876130
O O4 0.783073 0.000000 0.883409
O O5 0.859040 0.000000 0.000000
O O6 0.831064 0.820813 0.586776
O O7 0.787906 0.000000 0.500000
O O8 0.820350 0.631672 0.126743
O O9 0.793854 0.500000 0.000000
O O10 0.072381 0.631214 0.819363
O O11 0.131090 0.500000 0.721931
O O12 0.000000 0.500000 0.726929
O O13 0.655844 0.500000 0.310638
O O14 0.654429 0.272039 0.253446
O O15 0.742817 0.117399 0.318681
#
# Coordination Sequence:
#
# PCOD9483092 Si02
#       8
#     4   8   8   8   8  16  16   8
#     4   8  16  32  41  78 114 158 181 234 304 344
#     4  11  22  36  61  97 127 148 186 246 311 370
#     4  10  18  26  44  78 137 160 185 231 298 381
#     4  10  23  36  55  92 140 168 183 225 311 393
#     4  11  27  43  57  80 117 168 211 251 301 355
#     4   9  19  32  54  93 122 158 197 246 314 350
#     4  11  23  37  63  88 126 162 204 249 294 382
#     4   8  18  33  57  80 123 150 197 246 293 366
#
# _framework density 19.935538999999999
#
# number of rings (size 3 to 8) (size 9 to 14) (size 15 to 20)
#    0.632    1.474    2.105    1.263   14.737    1.684 
#    0.000    0.789    0.000   12.000    0.000    0.000 
#    0.000    1.684    0.000    0.000    0.000    0.000 
#
# Total GULP energy -211556.439035 kJ/mol
# GULP energy per Si atom -5567.274711 kJ/mol
# Density = 1.989016 g / cm^3
# Si number density = 19.935539 Si / 1000 Ang^3
#
#
#
# Elastic Constant Matrix: (Units=GPa)
#
#
# Indices 1 2 3 4 5 6 
#
# 1 58.8918 26.7351 16.1509 0.0000 0.0000 0.0000
# 2 26.7351 183.1536 58.3491 0.0000 0.0000 0.0000
# 3 16.1509 58.3491 103.8568 0.0000 0.0000 0.0000
# 4 0.0000 0.0000 0.0000 47.1878 0.0000 0.0000
# 5 0.0000 0.0000 0.0000 0.0000 1.1845 0.0000
# 6 0.0000 0.0000 0.0000 0.0000 0.0000 -4.9971
#
#
#
# Elastic Compliance Matrix: (Units=1/GPa)
#
#
# Indices 1 2 3 4 5 6 
#
# 1 0.018414 -0.002163 -0.001649 0.000000 0.000000 0.000000
# 2 -0.002163 0.006904 -0.003543 0.000000 0.000000 0.000000
# 3 -0.001649 -0.003543 0.011875 0.000000 0.000000 0.000000
# 4 0.000000 0.000000 0.000000 0.021192 0.000000 0.000000
# 5 0.000000 0.000000 0.000000 0.000000 0.844263 0.000000
# 6 0.000000 0.000000 0.000000 0.000000 0.000000 -0.200116
#
#
# Mechanical properties :
#
#
# Convention : Reuss Voigt Hill
#
# Bulk Modulus (GPa) = 44.47217 60.93025 52.70121
# Shear Modulus (GPa) = 6.89907 24.98616 15.94261
#
# Velocity S-wave (km/s) = 1.86231 3.54411 2.83098
# Velocity P-wave (km/s) = 5.19429 6.88314 6.09747
#
# Compressibility (1/GPa) = 0.02248598
#
# Stress axis : x y z
#
# Youngs Moduli (GPa) = 54.30585 144.83935 84.20821
#
# Poissons Ratio (x) = 0.31325 0.13882
# Poissons Ratio (y) = 0.11745 0.29832
# Poissons Ratio (z) = 0.08952 0.51311
#
# Static dielectric constant tensor:
#      x y z
#    x 1.667880 0.000000 0.000000 
#    y 0.000000 1.959560 0.000000 
#    z 0.000000 0.000000 1.686440 
# 
# From -- ./inp_files/57377.got.cif
#   From: 2010.05.17/outbox.cif.g08.bks.cpg/sg65_29_cif.got.tgz:57377.got - 2010.06.03 17:01:31.
