data_PCOD9483417
_publ_section_title
;
Structure prediction by ZEFSAII (Michael W. Deem and Ramdas Pophale) SiO2 
 PCOD9483417
Probable space group: C M M M
;
_chemical_formula_sum "Si O2"
_cell_formula_units_Z 72
_cell_length_a 7.630642
_cell_length_b 29.879037
_cell_length_c 19.102081
_cell_angle_alpha 90.000000
_cell_angle_beta 90.000000
_cell_angle_gamma 90.000000
_cell_volume 4355.202542
_symmetry_space_group_name_H-M "C M M M"
_symmetry_group_IT_number 65
_symmetry_cell_setting 'orthorhombic'
loop_
_space_group_symop_operation_xyz
x,y,z
-x,-y,z
x,-y,-z
-x,y,-z
-x,-y,-z
x,y,-z
-x,y,z
x,-y,z
1/2+x,1/2+y,z
1/2-x,1/2-y,z
1/2+x,1/2-y,-z
1/2-x,1/2+y,-z
1/2-x,1/2-y,-z
1/2+x,1/2+y,-z
1/2-x,1/2+y,z
1/2+x,1/2-y,z
loop_
_atom_site_type_symbol
_atom_site_label
_atom_site_fract_x
_atom_site_fract_y
_atom_site_fract_z
Si Si1 0.210364 0.551090 0.227311
Si Si2 0.789808 0.799693 0.580431
Si Si3 0.791890 0.445855 0.924683
Si Si4 0.214477 0.051481 0.500000
Si Si5 0.289370 0.392976 0.635516
O O1 0.274343 0.500000 0.240482
O O2 0.278120 0.567940 0.151477
O O3 0.247092 0.583341 0.291751
O O4 0.000000 0.548110 0.220720
O O5 0.723616 0.802916 0.500000
O O6 0.750000 0.750000 0.607274
O O7 0.725419 0.842130 0.624548
O O8 0.000000 0.803059 0.576865
O O9 0.777480 0.500000 0.923838
O O10 0.000000 0.435514 0.926015
O O11 0.718316 0.430457 0.000000
O O12 0.272650 0.077331 0.569698
O O13 0.000000 0.051756 0.500000
O O14 0.270581 0.000000 0.500000
O O15 0.500000 0.391985 0.630825
#
# Coordination Sequence:
#
# PCOD9483417 Si02
#       5
#    16  16  16   8  16
#     4   9  17  27  39  59  86 111 137 171 204 233
#     4   9  17  30  46  62  78  97 129 172 212 248
#     4   7  10  19  36  55  75 103 137 167 195 230
#     4   9  16  26  40  55  73 105 145 171 184 215
#     4  10  18  29  43  59  79 106 140 171 199 239
#
# _framework density 16.531952
#
# number of rings (size 3 to 8) (size 9 to 14) (size 15 to 20)
#    0.000    3.222    1.111    2.667    0.000    2.222 
#    0.000    0.556    0.000    2.667    0.000    3.111 
#    0.000    0.889    0.000    2.000    0.000    3.111 
#
# Total GULP energy -200404.817449 kJ/mol
# GULP energy per Si atom -5566.800485 kJ/mol
# Density = 1.649432 g / cm^3
# Si number density = 16.531952 Si / 1000 Ang^3
#
#
#
# Elastic Constant Matrix: (Units=GPa)
#
#
# Indices 1 2 3 4 5 6 
#
# 1 31.1051 6.7624 5.3187 0.0000 0.0000 0.0000
# 2 6.7624 123.3418 85.7699 0.0000 0.0000 0.0000
# 3 5.3187 85.7699 171.4706 0.0000 0.0000 0.0000
# 4 0.0000 0.0000 0.0000 3.2423 0.0000 0.0000
# 5 0.0000 0.0000 0.0000 0.0000 10.5356 0.0000
# 6 0.0000 0.0000 0.0000 0.0000 0.0000 10.6990
#
#
#
# Elastic Compliance Matrix: (Units=1/GPa)
#
#
# Indices 1 2 3 4 5 6 
#
# 1 0.032541 -0.001659 -0.000179 0.000000 0.000000 0.000000
# 2 -0.001659 0.012516 -0.006209 0.000000 0.000000 0.000000
# 3 -0.000179 -0.006209 0.008943 0.000000 0.000000 0.000000
# 4 0.000000 0.000000 0.000000 0.308423 0.000000 0.000000
# 5 0.000000 0.000000 0.000000 0.000000 0.094917 0.000000
# 6 0.000000 0.000000 0.000000 0.000000 0.000000 0.093467
#
#
# Mechanical properties :
#
#
# Convention : Reuss Voigt Hill
#
# Bulk Modulus (GPa) = 26.38221 57.95771 42.16996
# Shear Modulus (GPa) = 8.62757 20.09980 14.36368
#
# Velocity S-wave (km/s) = 2.28693 3.49064 2.95081
# Velocity P-wave (km/s) = 4.79232 7.16800 6.09699
#
# Compressibility (1/GPa) = 0.03790434
#
# Stress axis : x y z
#
# Youngs Moduli (GPa) = 30.73090 79.89573 111.81526
#
# Poissons Ratio (x) = 0.13258 0.02005
# Poissons Ratio (y) = 0.05099 0.69428
# Poissons Ratio (z) = 0.00551 0.49609
#
# Static dielectric constant tensor:
#      x y z
#    x 1.632940 0.000000 0.000000 
#    y 0.000000 1.545950 0.000000 
#    z 0.000000 0.000000 1.596490 
# 
# From -- ./inp_files/51277.got.cif
#   From: 2010.05.17/outbox.cif.g08.bks.cpg/sg65_26_cif.got.tgz:51277.got - 2010.06.03 17:01:31.
