data_PCOD9483075
_publ_section_title
;
Structure prediction by ZEFSAII (Michael W. Deem and Ramdas Pophale) SiO2 
 PCOD9483075
Probable space group: C M M M
;
_chemical_formula_sum "Si O2"
_cell_formula_units_Z 104
_cell_length_a 8.577992
_cell_length_b 28.052382
_cell_length_c 27.692118
_cell_angle_alpha 90.000000
_cell_angle_beta 90.000000
_cell_angle_gamma 90.000000
_cell_volume 6663.640432
_symmetry_space_group_name_H-M "C M M M"
_symmetry_group_IT_number 65
_symmetry_cell_setting 'orthorhombic'
loop_
_space_group_symop_operation_xyz
x,y,z
-x,-y,z
x,-y,-z
-x,y,-z
-x,-y,-z
x,y,-z
-x,y,z
x,-y,z
1/2+x,1/2+y,z
1/2-x,1/2-y,z
1/2+x,1/2-y,-z
1/2-x,1/2+y,-z
1/2-x,1/2-y,-z
1/2+x,1/2+y,-z
1/2-x,1/2+y,z
1/2+x,1/2-y,z
loop_
_atom_site_type_symbol
_atom_site_label
_atom_site_fract_x
_atom_site_fract_y
_atom_site_fract_z
Si Si1 0.812375 0.852335 0.252468
Si Si2 0.688422 0.553778 0.306052
Si Si3 0.813163 0.197541 0.352154
Si Si4 0.309779 0.055208 0.500000
Si Si5 0.812965 0.395585 0.400562
Si Si6 0.688328 0.804243 0.051908
Si Si7 0.813305 0.696059 0.157411
O O1 0.765287 0.905896 0.267474
O O2 0.764801 0.819117 0.297963
O O3 0.744640 0.834317 0.202436
O O4 0.000000 0.850504 0.249629
O O5 0.500000 0.555346 0.309552
O O6 0.735987 0.500000 0.294250
O O7 0.755899 0.570316 0.357352
O O8 0.750000 0.250000 0.362457
O O9 0.751715 0.156786 0.388147
O O10 0.000000 0.197580 0.353576
O O11 0.500000 0.054586 0.500000
O O12 0.260563 0.082809 0.548339
O O13 0.258594 0.000000 0.500000
O O14 0.000000 0.393742 0.400162
O O15 0.500000 0.803470 0.051825
O O16 0.750000 0.750000 0.051769
O O17 0.736949 0.823631 0.104430
O O18 0.738560 0.825801 0.000000
O O19 0.750000 0.750000 0.162042
O O20 0.000000 0.698139 0.158414
#
# Coordination Sequence:
#
# PCOD9483075 Si02
#       7
#    16  16  16   8  16  16  16
#     4   9  18  30  44  63  87 113 141 176 215 257
#     4   9  18  33  50  67  89 116 145 178 218 262
#     4  10  20  34  50  68  91 120 153 185 218 257
#     4   9  18  32  50  73  98 119 142 177 220 263
#     4  10  19  32  51  73  95 119 147 178 215 260
#     4   8  14  24  36  51  74 106 142 176 210 247
#     4  10  18  26  39  59  84 114 146 179 212 249
#
# _framework density 15.607082999999999
#
# number of rings (size 3 to 8) (size 9 to 14) (size 15 to 20)
#    0.000    2.692    0.000    3.231    0.000    5.846 
#    0.000    1.923    0.000    2.769    0.000    0.000 
#    0.000    0.615    0.000    7.692    0.000    0.000 
#
# Total GULP energy -289658.195386 kJ/mol
# GULP energy per Si atom -5570.349911 kJ/mol
# Density = 1.557156 g / cm^3
# Si number density = 15.607083 Si / 1000 Ang^3
#
#
#
# Elastic Constant Matrix: (Units=GPa)
#
#
# Indices 1 2 3 4 5 6 
#
# 1 15.4116 23.9046 26.3316 0.0000 0.0000 0.0000
# 2 23.9046 115.0449 77.2118 0.0000 0.0000 0.0000
# 3 26.3316 77.2118 166.7450 0.0000 0.0000 0.0000
# 4 0.0000 0.0000 0.0000 12.9238 0.0000 0.0000
# 5 0.0000 0.0000 0.0000 0.0000 16.0399 0.0000
# 6 0.0000 0.0000 0.0000 0.0000 0.0000 18.6972
#
#
#
# Elastic Compliance Matrix: (Units=1/GPa)
#
#
# Indices 1 2 3 4 5 6 
#
# 1 0.105003 -0.015509 -0.009400 0.000000 0.000000 0.000000
# 2 -0.015509 0.014902 -0.004451 0.000000 0.000000 0.000000
# 3 -0.009400 -0.004451 0.009543 0.000000 0.000000 0.000000
# 4 0.000000 0.000000 0.000000 0.077377 0.000000 0.000000
# 5 0.000000 0.000000 0.000000 0.000000 0.062344 0.000000
# 6 0.000000 0.000000 0.000000 0.000000 0.000000 0.053484
#
#
# Mechanical properties :
#
#
# Convention : Reuss Voigt Hill
#
# Bulk Modulus (GPa) = 14.13897 61.34418 37.74157
# Shear Modulus (GPa) = 12.34721 20.84908 16.59814
#
# Velocity S-wave (km/s) = 2.81575 3.65892 3.26467
# Velocity P-wave (km/s) = 4.43286 7.56578 6.20045
#
# Compressibility (1/GPa) = 0.07072653
#
# Stress axis : x y z
#
# Youngs Moduli (GPa) = 9.52357 67.10316 104.79068
#
# Poissons Ratio (x) = 1.04072 0.98502
# Poissons Ratio (y) = 0.14770 0.46647
# Poissons Ratio (z) = 0.08952 0.29871
#
# Static dielectric constant tensor:
#      x y z
#    x 1.532060 0.000000 0.000000 
#    y 0.000000 1.504130 0.000000 
#    z 0.000000 0.000000 1.544690 
# 
# From -- ./inp_files/73769.got.cif
#   From: 2010.05.17/outbox.cif.g08.bks.cpg/sg65_37_cif.got.tgz:73769.got - 2010.06.03 17:01:31.
