data_PCOD9483534
_publ_section_title
;
Structure prediction by ZEFSAII (Michael W. Deem and Ramdas Pophale) SiO2 
 PCOD9483534
Probable space group: C M M M
;
_chemical_formula_sum "Si O2"
_cell_formula_units_Z 112
_cell_length_a 26.698817
_cell_length_b 18.739730
_cell_length_c 14.392901
_cell_angle_alpha 90.000000
_cell_angle_beta 90.000000
_cell_angle_gamma 90.000000
_cell_volume 7201.180322
_symmetry_space_group_name_H-M "C M M M"
_symmetry_group_IT_number 65
_symmetry_cell_setting 'orthorhombic'
loop_
_space_group_symop_operation_xyz
x,y,z
-x,-y,z
x,-y,-z
-x,y,-z
-x,-y,-z
x,y,-z
-x,y,z
x,-y,z
1/2+x,1/2+y,z
1/2-x,1/2-y,z
1/2+x,1/2-y,-z
1/2-x,1/2+y,-z
1/2-x,1/2-y,-z
1/2+x,1/2+y,-z
1/2-x,1/2+y,z
1/2+x,1/2-y,z
loop_
_atom_site_type_symbol
_atom_site_label
_atom_site_fract_x
_atom_site_fract_y
_atom_site_fract_z
Si Si1 0.557593 0.660351 0.605025
Si Si2 0.058099 0.916345 0.795421
Si Si3 0.251610 0.915805 0.889309
Si Si4 0.802212 0.707970 0.783339
Si Si5 0.852174 0.832829 0.889755
Si Si6 0.868665 0.705247 0.390710
Si Si7 0.556564 0.919312 0.612787
O O1 0.563699 0.631921 0.500000
O O2 0.500000 0.688144 0.611163
O O3 0.563643 0.603234 0.686447
O O4 0.597308 0.723806 0.617986
O O5 0.097937 0.869135 0.850482
O O6 0.000000 0.901243 0.820552
O O7 0.067356 0.000000 0.810969
O O8 0.290398 0.868003 0.830626
O O9 0.195787 0.884462 0.870914
O O10 0.253776 0.000000 0.868548
O O11 0.260757 0.905972 0.000000
O O12 0.750000 0.750000 0.786527
O O13 0.840555 0.757191 0.841518
O O14 0.822298 0.705415 0.678669
O O15 0.855433 0.823746 0.000000
O O16 0.855677 0.697762 0.500000
O O17 0.903589 0.639380 0.360119
O O18 0.555617 0.918828 0.500000
O O19 0.500000 0.902384 0.643706
O O20 0.568878 0.000000 0.641953
#
# Coordination Sequence:
#
# PCOD9483534 Si02
#       7
#    16  16  16  16  16  16  16
#     4   9  17  30  48  69  94 126 164 201 234 274
#     4  10  20  32  48  73 101 127 158 196 239 290
#     4   9  18  33  54  76  94 118 157 204 247 285
#     4  10  20  33  49  71  96 125 161 202 240 278
#     4  10  19  34  53  72  96 127 159 195 244 295
#     4  10  18  29  47  69  94 129 164 192 232 284
#     4   8  14  25  42  66  94 120 149 189 232 272
#
# _framework density 15.553006
#
# number of rings (size 3 to 8) (size 9 to 14) (size 15 to 20)
#    0.000    2.571    1.429    1.714    0.000    5.714 
#    0.000    2.143    0.000    0.000    0.000    0.000 
#    0.000    0.000    0.000    9.429    0.000    0.286 
#
# Total GULP energy -311921.576836 kJ/mol
# GULP energy per Si atom -5570.028158 kJ/mol
# Density = 1.551761 g / cm^3
# Si number density = 15.553006 Si / 1000 Ang^3
#
#
#
# Elastic Constant Matrix: (Units=GPa)
#
#
# Indices 1 2 3 4 5 6 
#
# 1 56.1949 33.4097 33.3141 0.0000 0.0000 0.0000
# 2 33.4097 71.0135 29.9278 0.0000 0.0000 0.0000
# 3 33.3141 29.9278 62.8253 0.0000 0.0000 0.0000
# 4 0.0000 0.0000 0.0000 19.3298 0.0000 0.0000
# 5 0.0000 0.0000 0.0000 0.0000 25.3350 0.0000
# 6 0.0000 0.0000 0.0000 0.0000 0.0000 17.3417
#
#
#
# Elastic Compliance Matrix: (Units=1/GPa)
#
#
# Indices 1 2 3 4 5 6 
#
# 1 0.030203 -0.009334 -0.011569 0.000000 0.000000 0.000000
# 2 -0.009334 0.020504 -0.004818 0.000000 0.000000 0.000000
# 3 -0.011569 -0.004818 0.024347 0.000000 0.000000 0.000000
# 4 0.000000 0.000000 0.000000 0.051733 0.000000 0.000000
# 5 0.000000 0.000000 0.000000 0.000000 0.039471 0.000000
# 6 0.000000 0.000000 0.000000 0.000000 0.000000 0.057665
#
#
# Mechanical properties :
#
#
# Convention : Reuss Voigt Hill
#
# Bulk Modulus (GPa) = 42.35186 42.59299 42.47243
# Shear Modulus (GPa) = 17.65316 18.62677 18.13997
#
# Velocity S-wave (km/s) = 3.37268 3.46444 3.41887
# Velocity P-wave (km/s) = 6.51586 6.59153 6.55380
#
# Compressibility (1/GPa) = 0.02361171
#
# Stress axis : x y z
#
# Youngs Moduli (GPa) = 33.10912 48.77209 41.07282
#
# Poissons Ratio (x) = 0.45523 0.47519
# Poissons Ratio (y) = 0.30904 0.19788
# Poissons Ratio (z) = 0.38305 0.23497
#
# Static dielectric constant tensor:
#      x y z
#    x 1.512700 0.000000 0.000000 
#    y 0.000000 1.514290 0.000000 
#    z 0.000000 0.000000 1.505810 
# 
# From -- ./inp_files/31056.got.cif
#   From: 2010.05.17/outbox.cif.g08.bks.cpg/sg65_16_cif.got.tgz:31056.got - 2010.06.03 17:01:31.
