data_PCOD9483338
_publ_section_title
;
Structure prediction by ZEFSAII (Michael W. Deem and Ramdas Pophale) SiO2 
 PCOD9483338
Probable space group: C M M M
;
_chemical_formula_sum "Si O2"
_cell_formula_units_Z 80
_cell_length_a 15.329959
_cell_length_b 14.348222
_cell_length_c 19.228625
_cell_angle_alpha 90.000000
_cell_angle_beta 90.000000
_cell_angle_gamma 90.000000
_cell_volume 4229.483264
_symmetry_space_group_name_H-M "C M M M"
_symmetry_group_IT_number 65
_symmetry_cell_setting 'orthorhombic'
loop_
_space_group_symop_operation_xyz
x,y,z
-x,-y,z
x,-y,-z
-x,y,-z
-x,-y,-z
x,y,-z
-x,y,z
x,-y,z
1/2+x,1/2+y,z
1/2-x,1/2-y,z
1/2+x,1/2-y,-z
1/2-x,1/2+y,-z
1/2-x,1/2-y,-z
1/2+x,1/2+y,-z
1/2-x,1/2+y,z
1/2+x,1/2-y,z
loop_
_atom_site_type_symbol
_atom_site_label
_atom_site_fract_x
_atom_site_fract_y
_atom_site_fract_z
Si Si1 0.893716 0.395525 0.081079
Si Si2 0.901291 0.257641 0.804391
Si Si3 0.835243 0.105814 0.702576
Si Si4 0.872962 0.605619 0.321077
Si Si5 0.644180 0.262538 0.421612
O O1 0.865852 0.500000 0.104058
O O2 0.862148 0.311433 0.129415
O O3 0.000000 0.394762 0.085549
O O4 0.871043 0.384596 0.000000
O O5 0.852131 0.171614 0.768878
O O6 0.905668 0.337217 0.745092
O O7 0.000000 0.226897 0.820661
O O8 0.731873 0.103900 0.688526
O O9 0.875491 0.157481 0.635035
O O10 0.866282 0.000000 0.711261
O O11 0.903177 0.500000 0.324213
O O12 0.891764 0.666778 0.389235
O O13 0.615400 0.281726 0.500000
O O14 0.750000 0.250000 0.423101
#
# Coordination Sequence:
#
# PCOD9483338 Si02
#       5
#    16  16  16  16  16
#     4   8  14  25  42  66  93 115 137 172 219 264
#     4  10  18  28  46  69  90 112 143 182 217 254
#     4   9  18  31  45  62  87 120 152 180 214 255
#     4   9  17  29  45  65  90 117 143 175 220 270
#     4   8  14  25  42  65  88 108 140 186 226 257
#
# _framework density 18.914840999999999
#
# number of rings (size 3 to 8) (size 9 to 14) (size 15 to 20)
#    0.000    3.200    0.000    3.000    0.000    2.400 
#    0.000    4.000    0.000   12.600    0.000   16.800 
#    0.000    0.000    0.000    0.000    0.000    0.000 
#
# Total GULP energy -222895.525015 kJ/mol
# GULP energy per Si atom -5572.388125 kJ/mol
# Density = 1.887179 g / cm^3
# Si number density = 18.914841 Si / 1000 Ang^3
#
#
#
# Elastic Constant Matrix: (Units=GPa)
#
#
# Indices 1 2 3 4 5 6 
#
# 1 29.2314 20.5142 5.6700 0.0000 0.0000 0.0000
# 2 20.5142 170.2124 69.7185 0.0000 0.0000 0.0000
# 3 5.6700 69.7185 101.2551 0.0000 0.0000 0.0000
# 4 0.0000 0.0000 0.0000 17.5202 0.0000 0.0000
# 5 0.0000 0.0000 0.0000 0.0000 14.9787 0.0000
# 6 0.0000 0.0000 0.0000 0.0000 0.0000 6.5481
#
#
#
# Elastic Compliance Matrix: (Units=1/GPa)
#
#
# Indices 1 2 3 4 5 6 
#
# 1 0.037515 -0.005099 0.001410 0.000000 0.000000 0.000000
# 2 -0.005099 0.008876 -0.005826 0.000000 0.000000 0.000000
# 3 0.001410 -0.005826 0.013808 0.000000 0.000000 0.000000
# 4 0.000000 0.000000 0.000000 0.057077 0.000000 0.000000
# 5 0.000000 0.000000 0.000000 0.000000 0.066761 0.000000
# 6 0.000000 0.000000 0.000000 0.000000 0.000000 0.152717
#
#
# Mechanical properties :
#
#
# Convention : Reuss Voigt Hill
#
# Bulk Modulus (GPa) = 24.28977 54.72267 39.50622
# Shear Modulus (GPa) = 13.53158 21.46249 17.49703
#
# Velocity S-wave (km/s) = 2.67759 3.37217 3.04475
# Velocity P-wave (km/s) = 4.73591 6.64499 5.76995
#
# Compressibility (1/GPa) = 0.04116960
#
# Stress axis : x y z
#
# Youngs Moduli (GPa) = 26.65627 112.66624 72.41960
#
# Poissons Ratio (x) = 0.57447 -0.10212
# Poissons Ratio (y) = 0.13592 0.42190
# Poissons Ratio (z) = -0.03759 0.65637
#
# Static dielectric constant tensor:
#      x y z
#    x 1.726330 0.000000 0.000000 
#    y 0.000000 1.656060 0.000000 
#    z 0.000000 0.000000 1.653860 
# 
# From -- ./inp_files/52859.got.cif
#   From: 2010.05.17/outbox.cif.g08.bks.cpg/sg65_27_cif.got.tgz:52859.got - 2010.06.03 17:01:31.
