data_PCOD9483656
_publ_section_title
;
Structure prediction by ZEFSAII (Michael W. Deem and Ramdas Pophale) SiO2 
 PCOD9483656
Probable space group: C M M M
;
_chemical_formula_sum "Si O2"
_cell_formula_units_Z 88
_cell_length_a 28.447801
_cell_length_b 24.407270
_cell_length_c 9.264719
_cell_angle_alpha 90.000000
_cell_angle_beta 90.000000
_cell_angle_gamma 90.000000
_cell_volume 6432.801619
_symmetry_space_group_name_H-M "C M M M"
_symmetry_group_IT_number 65
_symmetry_cell_setting 'orthorhombic'
loop_
_space_group_symop_operation_xyz
x,y,z
-x,-y,z
x,-y,-z
-x,y,-z
-x,-y,-z
x,y,-z
-x,y,z
x,-y,z
1/2+x,1/2+y,z
1/2-x,1/2-y,z
1/2+x,1/2-y,-z
1/2-x,1/2+y,-z
1/2-x,1/2-y,-z
1/2+x,1/2+y,-z
1/2-x,1/2+y,z
1/2+x,1/2-y,z
loop_
_atom_site_type_symbol
_atom_site_label
_atom_site_fract_x
_atom_site_fract_y
_atom_site_fract_z
Si Si1 0.000000 0.565456 0.169372
Si Si2 0.355361 0.286932 0.834000
Si Si3 0.081449 0.370100 0.329217
Si Si4 0.235348 0.185411 0.333301
Si Si5 0.673706 0.842089 0.833242
Si Si6 0.446405 0.742262 0.670517
O O1 0.045362 0.590585 0.248109
O O2 0.000000 0.500000 0.179907
O O3 0.000000 0.580885 0.000000
O O4 0.315069 0.317429 0.743625
O O5 0.340365 0.222548 0.833164
O O6 0.406313 0.288302 0.760315
O O7 0.356319 0.304837 0.000000
O O8 0.083593 0.381635 0.500000
O O9 0.132655 0.371502 0.256209
O O10 0.062445 0.307621 0.312814
O O11 0.233572 0.168183 0.500000
O O12 0.250000 0.250000 0.332700
O O13 0.276054 0.154831 0.244782
O O14 0.675470 0.859734 0.000000
O O15 0.440903 0.730554 0.500000
O O16 0.500000 0.730075 0.713535
#
# Coordination Sequence:
#
# PCOD9483656 Si02
#       6
#     8  16  16  16  16  16
#     4  11  23  35  45  57  73  91 111 141 183 225
#     4   9  16  23  32  48  67  88 111 137 167 201
#     4  10  18  30  44  57  69  85 110 139 171 214
#     4   9  15  23  34  48  66  89 111 133 161 198
#     4   9  16  25  37  53  70  87 105 132 166 203
#     4   9  16  26  37  50  67  88 113 143 175 208
#
# _framework density 13.679888
#
# number of rings (size 3 to 8) (size 9 to 14) (size 15 to 20)
#    0.000    2.636    0.909    2.455    0.000    8.364 
#    0.000    0.000    0.000    0.000    0.000    0.000 
#    0.000    0.000    0.000    0.000    0.000    0.000 
#
# Total GULP energy -245118.371566 kJ/mol
# GULP energy per Si atom -5570.872081 kJ/mol
# Density = 1.364875 g / cm^3
# Si number density = 13.679888 Si / 1000 Ang^3
#
#
#
# Elastic Constant Matrix: (Units=GPa)
#
#
# Indices 1 2 3 4 5 6 
#
# 1 150.5622 21.2049 95.4241 0.0000 0.0000 0.0000
# 2 21.2049 13.1286 23.2380 0.0000 0.0000 0.0000
# 3 95.4241 23.2380 135.7905 0.0000 0.0000 0.0000
# 4 0.0000 0.0000 0.0000 9.1301 0.0000 0.0000
# 5 0.0000 0.0000 0.0000 0.0000 23.8166 0.0000
# 6 0.0000 0.0000 0.0000 0.0000 0.0000 3.6592
#
#
#
# Elastic Compliance Matrix: (Units=1/GPa)
#
#
# Indices 1 2 3 4 5 6 
#
# 1 0.012360 -0.006584 -0.007559 0.000000 0.000000 0.000000
# 2 -0.006584 0.112774 -0.014673 0.000000 0.000000 0.000000
# 3 -0.007559 -0.014673 0.015187 0.000000 0.000000 0.000000
# 4 0.000000 0.000000 0.000000 0.109527 0.000000 0.000000
# 5 0.000000 0.000000 0.000000 0.000000 0.041988 0.000000
# 6 0.000000 0.000000 0.000000 0.000000 0.000000 0.273283
#
#
# Mechanical properties :
#
#
# Convention : Reuss Voigt Hill
#
# Bulk Modulus (GPa) = 12.09330 64.35727 38.22528
# Shear Modulus (GPa) = 7.68861 17.96215 12.82538
#
# Velocity S-wave (km/s) = 2.37331 3.62751 3.06524
# Velocity P-wave (km/s) = 4.04592 8.04316 6.36639
#
# Compressibility (1/GPa) = 0.08269041
#
# Stress axis : x y z
#
# Youngs Moduli (GPa) = 80.90814 8.86730 65.84541
#
# Poissons Ratio (x) = 0.05838 0.49772
# Poissons Ratio (y) = 0.53267 0.96613
# Poissons Ratio (z) = 0.61157 0.13011
#
# Static dielectric constant tensor:
#      x y z
#    x 1.452780 0.000000 0.000000 
#    y 0.000000 1.400220 0.000000 
#    z 0.000000 0.000000 1.458080 
# 
# From -- ./inp_files/12175.got.cif
#   From: 2010.05.17/outbox.cif.g08.bks.cpg/sg65_7_cif.got.tgz:12175.got - 2010.06.03 17:01:31.
