data_PCOD9483755
_publ_section_title
;
Structure prediction by ZEFSAII (Michael W. Deem and Ramdas Pophale) SiO2 
 PCOD9483755
Probable space group: C M M M
;
_chemical_formula_sum "Si O2"
_cell_formula_units_Z 104
_cell_length_a 21.566285
_cell_length_b 30.134987
_cell_length_c 7.366735
_cell_angle_alpha 90.000000
_cell_angle_beta 90.000000
_cell_angle_gamma 90.000000
_cell_volume 4787.639000
_symmetry_space_group_name_H-M "C M M M"
_symmetry_group_IT_number 65
_symmetry_cell_setting 'orthorhombic'
loop_
_space_group_symop_operation_xyz
x,y,z
-x,-y,z
x,-y,-z
-x,y,-z
-x,-y,-z
x,y,-z
-x,y,z
x,-y,z
1/2+x,1/2+y,z
1/2-x,1/2-y,z
1/2+x,1/2-y,-z
1/2-x,1/2+y,-z
1/2-x,1/2-y,-z
1/2+x,1/2+y,-z
1/2-x,1/2+y,z
1/2+x,1/2-y,z
loop_
_atom_site_type_symbol
_atom_site_label
_atom_site_fract_x
_atom_site_fract_y
_atom_site_fract_z
Si Si1 0.321474 0.702459 0.279097
Si Si2 0.270308 0.050827 0.216622
Si Si3 0.385664 0.889232 0.706826
Si Si4 0.000000 0.448486 0.277508
Si Si5 0.568808 0.638657 0.277879
Si Si6 0.872474 0.049601 0.714746
Si Si7 0.681667 0.804459 0.721690
O O1 0.320866 0.702059 0.500000
O O2 0.376813 0.671257 0.217640
O O3 0.331130 0.753699 0.225338
O O4 0.252947 0.686543 0.222460
O O5 0.322047 0.082885 0.294354
O O6 0.199621 0.062792 0.262576
O O7 0.280020 0.000000 0.278730
O O8 0.276573 0.051756 0.000000
O O9 0.405531 0.880244 0.500000
O O10 0.439491 0.920758 0.783203
O O11 0.366163 0.841723 0.787676
O O12 0.000000 0.500000 0.218270
O O13 0.000000 0.450319 0.500000
O O14 0.570186 0.638557 0.500000
O O15 0.500000 0.652126 0.222775
O O16 0.584797 0.588911 0.215693
O O17 0.884143 0.046630 0.500000
O O18 0.880365 0.000000 0.791024
O O19 0.680782 0.806063 0.500000
#
# Coordination Sequence:
#
# PCOD9483755 Si02
#       7
#    16  16  16   8  16  16  16
#     4   8  13  23  37  59  91 122 148 183 233 277
#     4  10  20  32  47  69  94 118 150 195 240 278
#     4  10  18  30  48  69  91 122 158 191 230 279
#     4   9  18  30  43  63  93 123 151 187 228 272
#     4   9  16  25  39  64  96 127 156 188 230 276
#     4   9  17  29  46  68  93 122 156 192 230 274
#     4   8  14  24  41  63  87 117 153 189 226 272
#
# _framework density 21.722607
#
# number of rings (size 3 to 8) (size 9 to 14) (size 15 to 20)
#    0.000    3.000    0.000    2.769    0.000    4.308 
#    1.385    1.923    0.000    1.846    0.000   10.769 
#    0.000    0.000    0.000    0.000    0.000    0.000 
#
# Total GULP energy -290269.570208 kJ/mol
# GULP energy per Si atom -5582.107119 kJ/mol
# Density = 2.167317 g / cm^3
# Si number density = 21.722607 Si / 1000 Ang^3
#
#
#
# Elastic Constant Matrix: (Units=GPa)
#
#
# Indices 1 2 3 4 5 6 
#
# 1 117.3836 101.5337 0.8373 0.0000 0.0000 0.0000
# 2 101.5337 135.3278 5.9840 0.0000 0.0000 0.0000
# 3 0.8373 5.9840 80.9023 0.0000 0.0000 0.0000
# 4 0.0000 0.0000 0.0000 -16.0851 0.0000 0.0000
# 5 0.0000 0.0000 0.0000 0.0000 -151.5030 0.0000
# 6 0.0000 0.0000 0.0000 0.0000 0.0000 31.6974
#
#
#
# Elastic Compliance Matrix: (Units=1/GPa)
#
#
# Indices 1 2 3 4 5 6 
#
# 1 0.024367 -0.018331 0.001104 0.000000 0.000000 0.000000
# 2 -0.018331 0.021204 -0.001379 0.000000 0.000000 0.000000
# 3 0.001104 -0.001379 0.012451 0.000000 0.000000 0.000000
# 4 0.000000 0.000000 0.000000 -0.062169 0.000000 0.000000
# 5 0.000000 0.000000 0.000000 0.000000 -0.006601 0.000000
# 6 0.000000 0.000000 0.000000 0.000000 0.000000 0.031548
#
#
# Mechanical properties :
#
#
# Convention : Reuss Voigt Hill
#
# Bulk Modulus (GPa) = 48.05346 61.14708 54.60027
# Shear Modulus (GPa) = 76.98457 -12.16090 32.41184
#
# Velocity S-wave (km/s) = 5.95960 -2.36863 3.86693
# Velocity P-wave (km/s) = 8.33817 4.55298 6.71769
#
# Compressibility (1/GPa) = 0.02081016
#
# Stress axis : x y z
#
# Youngs Moduli (GPa) = 41.03948 47.16182 80.31394
#
# Poissons Ratio (x) = 0.86451 -0.08864
# Poissons Ratio (y) = 0.75228 0.11072
# Poissons Ratio (z) = -0.04529 0.06502
#
# Static dielectric constant tensor:
#      x y z
#    x 1.743480 0.000000 0.000000 
#    y 0.000000 1.782590 0.000000 
#    z 0.000000 0.000000 1.808010 
# 
# From -- ./inp_files/12743.got.cif
#   From: 2010.05.17/outbox.cif.g08.bks.cpg/sg65_7_cif.got.tgz:12743.got - 2010.06.03 17:01:31.
