data_PCOD9483207
_publ_section_title
;
Structure prediction by ZEFSAII (Michael W. Deem and Ramdas Pophale) SiO2 
 PCOD9483207
Probable space group: C M M M
;
_chemical_formula_sum "Si O2"
_cell_formula_units_Z 88
_cell_length_a 24.050005
_cell_length_b 31.535365
_cell_length_c 9.103685
_cell_angle_alpha 90.000000
_cell_angle_beta 90.000000
_cell_angle_gamma 90.000000
_cell_volume 6904.468541
_symmetry_space_group_name_H-M "C M M M"
_symmetry_group_IT_number 65
_symmetry_cell_setting 'orthorhombic'
loop_
_space_group_symop_operation_xyz
x,y,z
-x,-y,z
x,-y,-z
-x,y,-z
-x,-y,-z
x,y,-z
-x,y,z
x,-y,z
1/2+x,1/2+y,z
1/2-x,1/2-y,z
1/2+x,1/2-y,-z
1/2-x,1/2+y,-z
1/2-x,1/2-y,-z
1/2+x,1/2+y,-z
1/2-x,1/2+y,z
1/2+x,1/2-y,z
loop_
_atom_site_type_symbol
_atom_site_label
_atom_site_fract_x
_atom_site_fract_y
_atom_site_fract_z
Si Si1 0.000000 0.262925 0.671035
Si Si2 0.383373 0.752831 0.175544
Si Si3 0.065052 0.500000 0.178438
Si Si4 0.286167 0.706562 0.331370
Si Si5 0.188089 0.337430 0.175723
Si Si6 0.895722 0.591822 0.822765
Si Si7 0.500000 0.135314 0.670416
O O1 0.056516 0.248933 0.750738
O O2 0.000000 0.250251 0.500000
O O3 0.000000 0.314065 0.677485
O O4 0.340831 0.718064 0.239343
O O5 0.355458 0.799035 0.209849
O O6 0.387450 0.749866 0.000000
O O7 0.096575 0.542952 0.222909
O O8 0.000000 0.500000 0.226945
O O9 0.063289 0.500000 0.000000
O O10 0.299388 0.696230 0.500000
O O11 0.250000 0.750000 0.331049
O O12 0.245330 0.672523 0.257792
O O13 0.159699 0.382067 0.215653
O O14 0.197093 0.335926 0.000000
O O15 0.946525 0.616987 0.751635
O O16 0.900873 0.593690 0.000000
O O17 0.500000 0.122450 0.500000
#
# Coordination Sequence:
#
# PCOD9483207 Si02
#       7
#     8  16   8  16  16  16   8
#     4  11  21  29  38  56  81 104 130 161 199 238
#     4  10  18  28  42  58  76  98 128 160 194 231
#     4   9  16  26  44  60  74  98 132 169 204 243
#     4   9  17  28  41  56  76  98 121 153 196 236
#     4   9  17  27  41  57  73  95 128 165 197 233
#     4  10  18  30  44  57  73  99 133 167 204 244
#     4  11  21  28  38  55  76 100 128 166 205 241
#
# _framework density 12.745369999999999
#
# number of rings (size 3 to 8) (size 9 to 14) (size 15 to 20)
#    0.000    2.273    2.727    1.636    0.000    4.364 
#    0.000    0.909    0.000    0.000    0.000    0.000 
#    0.000    0.000    0.000    0.000    0.000    0.909 
#
# Total GULP energy -245170.628379 kJ/mol
# GULP energy per Si atom -5572.059736 kJ/mol
# Density = 1.271636 g / cm^3
# Si number density = 12.745370 Si / 1000 Ang^3
#
#
#
# Elastic Constant Matrix: (Units=GPa)
#
#
# Indices 1 2 3 4 5 6 
#
# 1 99.1473 47.8307 51.1304 0.0000 0.0000 0.0000
# 2 47.8307 65.8224 27.5805 0.0000 0.0000 0.0000
# 3 51.1304 27.5805 48.8906 0.0000 0.0000 0.0000
# 4 0.0000 0.0000 0.0000 9.3381 0.0000 0.0000
# 5 0.0000 0.0000 0.0000 0.0000 13.5592 0.0000
# 6 0.0000 0.0000 0.0000 0.0000 0.0000 14.8838
#
#
#
# Elastic Compliance Matrix: (Units=1/GPa)
#
#
# Indices 1 2 3 4 5 6 
#
# 1 0.025972 -0.009811 -0.021628 0.000000 0.000000 0.000000
# 2 -0.009811 0.023601 -0.003054 0.000000 0.000000 0.000000
# 3 -0.021628 -0.003054 0.044795 0.000000 0.000000 0.000000
# 4 0.000000 0.000000 0.000000 0.107088 0.000000 0.000000
# 5 0.000000 0.000000 0.000000 0.000000 0.073751 0.000000
# 6 0.000000 0.000000 0.000000 0.000000 0.000000 0.067187
#
#
# Mechanical properties :
#
#
# Convention : Reuss Voigt Hill
#
# Bulk Modulus (GPa) = 39.39484 51.88260 45.63872
# Shear Modulus (GPa) = 11.90929 13.37747 12.64338
#
# Velocity S-wave (km/s) = 3.06011 3.24326 3.15302
# Velocity P-wave (km/s) = 6.59257 7.40408 7.01008
#
# Compressibility (1/GPa) = 0.02538403
#
# Stress axis : x y z
#
# Youngs Moduli (GPa) = 38.50244 42.37082 22.32393
#
# Poissons Ratio (x) = 0.41570 0.48281
# Poissons Ratio (y) = 0.37774 0.06817
# Poissons Ratio (z) = 0.83272 0.12939
#
# Static dielectric constant tensor:
#      x y z
#    x 1.403300 0.000000 0.000000 
#    y 0.000000 1.408820 0.000000 
#    z 0.000000 0.000000 1.424080 
# 
# From -- ./inp_files/12677.got.cif
#   From: 2010.05.17/outbox.cif.g08.bks.cpg/sg65_7_cif.got.tgz:12677.got - 2010.06.03 17:01:31.
