data_PCOD9483184
_publ_section_title
;
Structure prediction by ZEFSAII (Michael W. Deem and Ramdas Pophale) SiO2 
 PCOD9483184
Probable space group: C M M M
;
_chemical_formula_sum "Si O2"
_cell_formula_units_Z 80
_cell_length_a 18.406210
_cell_length_b 14.447806
_cell_length_c 14.276928
_cell_angle_alpha 90.000000
_cell_angle_beta 90.000000
_cell_angle_gamma 90.000000
_cell_volume 3796.654201
_symmetry_space_group_name_H-M "C M M M"
_symmetry_group_IT_number 65
_symmetry_cell_setting 'orthorhombic'
loop_
_space_group_symop_operation_xyz
x,y,z
-x,-y,z
x,-y,-z
-x,y,-z
-x,-y,-z
x,y,-z
-x,y,z
x,-y,z
1/2+x,1/2+y,z
1/2-x,1/2-y,z
1/2+x,1/2-y,-z
1/2-x,1/2+y,-z
1/2-x,1/2-y,-z
1/2+x,1/2+y,-z
1/2-x,1/2+y,z
1/2+x,1/2-y,z
loop_
_atom_site_type_symbol
_atom_site_label
_atom_site_fract_x
_atom_site_fract_y
_atom_site_fract_z
Si Si1 0.844889 0.896775 0.238339
Si Si2 0.720063 0.144217 0.895337
Si Si3 0.421097 0.889901 0.613767
Si Si4 0.738683 0.112774 0.391752
Si Si5 0.416389 0.755550 0.110335
O O1 0.771828 0.905065 0.176172
O O2 0.809510 0.858128 0.333648
O O3 0.895714 0.827451 0.180564
O O4 0.876248 0.000000 0.251162
O O5 0.750000 0.250000 0.895977
O O6 0.636139 0.157735 0.870607
O O7 0.726954 0.107327 0.000000
O O8 0.420077 0.881486 0.500000
O O9 0.500000 0.850992 0.646055
O O10 0.341096 0.856041 0.644717
O O11 0.422478 0.000000 0.633742
O O12 0.745441 0.139261 0.500000
O O13 0.738218 0.000000 0.387844
O O14 0.500000 0.779112 0.118779
O O15 0.402647 0.728778 0.000000
#
# Coordination Sequence:
#
# PCOD9483184 Si02
#       5
#    16  16  16  16  16
#     4  10  18  27  45  74 100 119 147 193 243 279
#     4   8  15  29  47  65  88 120 152 179 218 281
#     4   7   9  15  29  47  68 100 142 181 211 241
#     4   8  14  24  37  57  90 129 161 186 220 274
#     4   9  18  33  52  70  89 120 159 193 230 282
#
# _framework density 21.071183999999999
#
# number of rings (size 3 to 8) (size 9 to 14) (size 15 to 20)
#    0.000    3.600    0.000    3.600    0.000    2.000 
#    0.000    2.000    0.000    7.800    0.000    5.600 
#    0.000    0.000    0.000    0.000    0.000    0.000 
#
# Total GULP energy -222767.875818 kJ/mol
# GULP energy per Si atom -5569.196895 kJ/mol
# Density = 2.102323 g / cm^3
# Si number density = 21.071184 Si / 1000 Ang^3
#
#
#
# Elastic Constant Matrix: (Units=GPa)
#
#
# Indices 1 2 3 4 5 6 
#
# 1 60.4100 -7.0100 3.6260 0.0000 0.0000 0.0000
# 2 -7.0100 47.4667 -3.8024 0.0000 0.0000 0.0000
# 3 3.6260 -3.8024 71.3981 0.0000 0.0000 0.0000
# 4 0.0000 0.0000 0.0000 6.7365 0.0000 0.0000
# 5 0.0000 0.0000 0.0000 0.0000 22.3332 0.0000
# 6 0.0000 0.0000 0.0000 0.0000 0.0000 13.1180
#
#
#
# Elastic Compliance Matrix: (Units=1/GPa)
#
#
# Indices 1 2 3 4 5 6 
#
# 1 0.016880 0.002435 -0.000728 0.000000 0.000000 0.000000
# 2 0.002435 0.021509 0.001022 0.000000 0.000000 0.000000
# 3 -0.000728 0.001022 0.014097 0.000000 0.000000 0.000000
# 4 0.000000 0.000000 0.000000 0.148444 0.000000 0.000000
# 5 0.000000 0.000000 0.000000 0.000000 0.044776 0.000000
# 6 0.000000 0.000000 0.000000 0.000000 0.000000 0.076231
#
#
# Mechanical properties :
#
#
# Convention : Reuss Voigt Hill
#
# Bulk Modulus (GPa) = 17.25819 18.32244 17.79031
# Shear Modulus (GPa) = 14.89008 20.86832 17.87920
#
# Velocity S-wave (km/s) = 2.66118 3.15043 2.91609
# Velocity P-wave (km/s) = 4.20128 4.68487 4.44965
#
# Compressibility (1/GPa) = 0.05794350
#
# Stress axis : x y z
#
# Youngs Moduli (GPa) = 59.24263 46.49262 70.93537
#
# Poissons Ratio (x) = -0.11319 0.05161
# Poissons Ratio (y) = -0.14423 -0.07248
# Poissons Ratio (z) = 0.04310 -0.04751
#
# Static dielectric constant tensor:
#      x y z
#    x 1.810450 0.000000 0.000000 
#    y 0.000000 1.737190 0.000000 
#    z 0.000000 0.000000 1.829200 
# 
# From -- ./inp_files/42368.got.cif
#   From: 2010.05.17/outbox.cif.g08.bks.cpg/sg65_22_cif.got.tgz:42368.got - 2010.06.03 17:01:31.
