data_PCOD9483874
_publ_section_title
;
Structure prediction by ZEFSAII (Michael W. Deem and Ramdas Pophale) SiO2 
 PCOD9483874
Probable space group: C M M M
;
_chemical_formula_sum "Si O2"
_cell_formula_units_Z 120
_cell_length_a 10.577266
_cell_length_b 26.911017
_cell_length_c 25.586845
_cell_angle_alpha 90.000000
_cell_angle_beta 90.000000
_cell_angle_gamma 90.000000
_cell_volume 7283.167115
_symmetry_space_group_name_H-M "C M M M"
_symmetry_group_IT_number 65
_symmetry_cell_setting 'orthorhombic'
loop_
_space_group_symop_operation_xyz
x,y,z
-x,-y,z
x,-y,-z
-x,y,-z
-x,-y,-z
x,y,-z
-x,y,z
x,-y,z
1/2+x,1/2+y,z
1/2-x,1/2-y,z
1/2+x,1/2-y,-z
1/2-x,1/2+y,-z
1/2-x,1/2-y,-z
1/2+x,1/2+y,-z
1/2-x,1/2+y,z
1/2+x,1/2-y,z
loop_
_atom_site_type_symbol
_atom_site_label
_atom_site_fract_x
_atom_site_fract_y
_atom_site_fract_z
Si Si1 0.347571 0.500000 0.940993
Si Si2 0.650331 0.404088 0.870610
Si Si3 0.646287 0.291936 0.135325
Si Si4 0.858435 0.441067 0.794461
Si Si5 0.855464 0.790376 0.739270
Si Si6 0.641916 0.629396 0.650532
Si Si7 0.139132 0.558363 0.330789
Si Si8 0.141326 0.789509 0.560258
O O1 0.500000 0.500000 0.943722
O O2 0.316452 0.551220 0.910692
O O3 0.296936 0.500000 0.000000
O O4 0.500000 0.408918 0.857393
O O5 0.667987 0.346921 0.888718
O O6 0.744401 0.413310 0.822446
O O7 0.500000 0.276964 0.124256
O O8 0.750000 0.250000 0.121263
O O9 0.654707 0.299444 0.198495
O O10 0.848063 0.500000 0.806055
O O11 0.852215 0.436029 0.732071
O O12 0.000000 0.424542 0.811164
O O13 0.750000 0.750000 0.725126
O O14 0.836915 0.838546 0.703366
O O15 0.000000 0.772844 0.729245
O O16 0.500000 0.608591 0.653476
O O17 0.747465 0.588317 0.644960
O O18 0.648861 0.666810 0.601980
O O19 0.146976 0.500000 0.341971
O O20 0.000000 0.576531 0.346853
O O21 0.154961 0.806505 0.500000
O O22 0.250000 0.750000 0.570925
O O23 0.000000 0.767278 0.565166
#
# Coordination Sequence:
#
# PCOD9483874 Si02
#       8
#     8  16  16  16  16  16  16  16
#     4   9  18  32  51  77 103 125 157 205 256 295
#     4  10  18  30  50  73  96 126 164 203 241 285
#     4   9  18  30  44  65  94 126 160 194 229 275
#     4   9  17  29  45  68  98 128 157 190 234 286
#     4   9  17  28  41  62  93 122 152 188 223 268
#     4  10  19  30  46  68  92 120 155 196 238 278
#     4   9  19  33  46  64  93 126 157 190 228 277
#     4   9  18  32  49  70  95 120 150 192 240 288
#
# _framework density 16.476348999999999
#
# number of rings (size 3 to 8) (size 9 to 14) (size 15 to 20)
#    0.000    2.733    0.667    2.000    0.000    3.467 
#    0.000    4.000    0.000    1.600    0.000    2.800 
#    0.000    0.000    0.000    0.000    0.000    0.000 
#
# Total GULP energy -334130.731282 kJ/mol
# GULP energy per Si atom -5568.845521 kJ/mol
# Density = 1.643885 g / cm^3
# Si number density = 16.476349 Si / 1000 Ang^3
#
#
#
# Elastic Constant Matrix: (Units=GPa)
#
#
# Indices 1 2 3 4 5 6 
#
# 1 113.2161 72.7681 23.6900 0.0000 0.0000 0.0000
# 2 72.7681 81.8770 22.0586 0.0000 0.0000 0.0000
# 3 23.6900 22.0586 21.6041 0.0000 0.0000 0.0000
# 4 0.0000 0.0000 0.0000 8.9023 0.0000 0.0000
# 5 0.0000 0.0000 0.0000 0.0000 7.5862 0.0000
# 6 0.0000 0.0000 0.0000 0.0000 0.0000 33.7906
#
#
#
# Elastic Compliance Matrix: (Units=1/GPa)
#
#
# Indices 1 2 3 4 5 6 
#
# 1 0.021062 -0.017239 -0.005495 0.000000 0.000000 0.000000
# 2 -0.017239 0.030958 -0.012705 0.000000 0.000000 0.000000
# 3 -0.005495 -0.012705 0.065285 0.000000 0.000000 0.000000
# 4 0.000000 0.000000 0.000000 0.112331 0.000000 0.000000
# 5 0.000000 0.000000 0.000000 0.000000 0.131818 0.000000
# 6 0.000000 0.000000 0.000000 0.000000 0.000000 0.029594
#
#
# Mechanical properties :
#
#
# Convention : Reuss Voigt Hill
#
# Bulk Modulus (GPa) = 21.53896 50.41450 35.97673
# Shear Modulus (GPa) = 10.47337 16.60119 13.53728
#
# Velocity S-wave (km/s) = 2.52397 3.17768 2.86950
# Velocity P-wave (km/s) = 4.64703 6.64290 5.73249
#
# Compressibility (1/GPa) = 0.04642750
#
# Stress axis : x y z
#
# Youngs Moduli (GPa) = 47.47778 32.30234 15.31744
#
# Poissons Ratio (x) = 0.55686 0.08416
# Poissons Ratio (y) = 0.81847 0.19461
# Poissons Ratio (z) = 0.26087 0.41041
#
# Static dielectric constant tensor:
#      x y z
#    x 1.567310 0.000000 0.000000 
#    y 0.000000 1.549360 0.000000 
#    z 0.000000 0.000000 1.549140 
# 
# From -- ./inp_files/73994.got.cif
#   From: 2010.05.17/outbox.cif.g08.bks.cpg/sg65_37_cif.got.tgz:73994.got - 2010.06.03 17:01:31.
