data_PCOD9483880
_publ_section_title
;
Structure prediction by ZEFSAII (Michael W. Deem and Ramdas Pophale) SiO2 
 PCOD9483880
Probable space group: C M M M
;
_chemical_formula_sum "Si O2"
_cell_formula_units_Z 64
_cell_length_a 32.629046
_cell_length_b 8.389039
_cell_length_c 11.249961
_cell_angle_alpha 90.000000
_cell_angle_beta 90.000000
_cell_angle_gamma 90.000000
_cell_volume 3079.410643
_symmetry_space_group_name_H-M "C M M M"
_symmetry_group_IT_number 65
_symmetry_cell_setting 'orthorhombic'
loop_
_space_group_symop_operation_xyz
x,y,z
-x,-y,z
x,-y,-z
-x,y,-z
-x,-y,-z
x,y,-z
-x,y,z
x,-y,z
1/2+x,1/2+y,z
1/2-x,1/2-y,z
1/2+x,1/2-y,-z
1/2-x,1/2+y,-z
1/2-x,1/2-y,-z
1/2+x,1/2+y,-z
1/2-x,1/2+y,z
1/2+x,1/2-y,z
loop_
_atom_site_type_symbol
_atom_site_label
_atom_site_fract_x
_atom_site_fract_y
_atom_site_fract_z
Si Si1 0.297341 0.689688 0.000000
Si Si2 0.452433 0.500000 0.860129
Si Si3 0.953060 0.679788 0.762431
Si Si4 0.339454 0.195186 0.500000
Si Si5 0.432096 0.809156 0.500000
Si Si6 0.203122 0.308746 0.253265
O O1 0.250000 0.750000 0.000000
O O2 0.314823 0.749285 0.126682
O O3 0.297466 0.500000 0.000000
O O4 0.500000 0.500000 0.812727
O O5 0.432624 0.332436 0.822566
O O6 0.454948 0.500000 0.000000
O O7 0.935173 0.500000 0.775571
O O8 0.953630 0.725522 0.623491
O O9 0.000000 0.668888 0.806640
O O10 0.386058 0.254249 0.500000
O O11 0.318522 0.244554 0.375828
O O12 0.339081 0.000000 0.500000
O O13 0.429024 0.000000 0.500000
O O14 0.202539 0.500000 0.250360
O O15 0.250000 0.250000 0.259365
#
# Coordination Sequence:
#
# PCOD9483880 Si02
#       6
#     8   8  16   8   8  16
#     4  10  18  30  50  74 100 128 163 206 251 295
#     4   9  18  31  49  75 107 136 171 217 257 301
#     4   9  17  30  53  79 102 133 171 213 259 305
#     4   9  19  32  51  75 101 135 168 206 254 308
#     4   9  17  32  52  73 101 128 165 211 252 303
#     4  10  18  31  52  76 100 129 167 206 252 303
#
# _framework density 20.783197999999999
#
# number of rings (size 3 to 8) (size 9 to 14) (size 15 to 20)
#    0.000    2.625    0.000    4.125    0.000    2.500 
#    0.000    6.250   13.750    0.000    0.000    0.000 
#    0.000    0.000    0.000    0.000    0.000    0.000 
#
# Total GULP energy -178182.679547 kJ/mol
# GULP energy per Si atom -5568.208736 kJ/mol
# Density = 2.073589 g / cm^3
# Si number density = 20.783198 Si / 1000 Ang^3
#
#
#
# Elastic Constant Matrix: (Units=GPa)
#
#
# Indices 1 2 3 4 5 6 
#
# 1 37.8558 4.4585 25.4482 0.0000 0.0000 0.0000
# 2 4.4585 133.2729 60.1728 0.0000 0.0000 0.0000
# 3 25.4482 60.1728 142.7110 0.0000 0.0000 0.0000
# 4 0.0000 0.0000 0.0000 35.8594 0.0000 0.0000
# 5 0.0000 0.0000 0.0000 0.0000 -5.0233 0.0000
# 6 0.0000 0.0000 0.0000 0.0000 0.0000 4.2934
#
#
#
# Elastic Compliance Matrix: (Units=1/GPa)
#
#
# Indices 1 2 3 4 5 6 
#
# 1 0.030346 0.001764 -0.006155 0.000000 0.000000 0.000000
# 2 0.001764 0.009370 -0.004265 0.000000 0.000000 0.000000
# 3 -0.006155 -0.004265 0.009903 0.000000 0.000000 0.000000
# 4 0.000000 0.000000 0.000000 0.027887 0.000000 0.000000
# 5 0.000000 0.000000 0.000000 0.000000 -0.199073 0.000000
# 6 0.000000 0.000000 0.000000 0.000000 0.000000 0.232917
#
#
# Mechanical properties :
#
#
# Convention : Reuss Voigt Hill
#
# Bulk Modulus (GPa) = 30.95387 54.88876 42.92131
# Shear Modulus (GPa) = 35.85991 21.94324 28.90158
#
# Velocity S-wave (km/s) = 4.15833 3.25286 3.73315
# Velocity P-wave (km/s) = 6.16293 6.36990 6.26727
#
# Compressibility (1/GPa) = 0.03230614
#
# Stress axis : x y z
#
# Youngs Moduli (GPa) = 32.95340 106.72113 100.97771
#
# Poissons Ratio (x) = -0.18823 0.62151
# Poissons Ratio (y) = -0.05812 0.43071
# Poissons Ratio (z) = 0.20283 0.45521
#
# Static dielectric constant tensor:
#      x y z
#    x 1.756720 0.000000 0.000000 
#    y 0.000000 1.775230 0.000000 
#    z 0.000000 0.000000 1.771080 
# 
# From -- ./inp_files/33275.got.cif
#   From: 2010.05.17/outbox.cif.g08.bks.cpg/sg65_17_cif.got.tgz:33275.got - 2010.06.03 17:01:31.
