data_PCOD9483777
_publ_section_title
;
Structure prediction by ZEFSAII (Michael W. Deem and Ramdas Pophale) SiO2 
 PCOD9483777
Probable space group: C M M M
;
_chemical_formula_sum "Si O2"
_cell_formula_units_Z 112
_cell_length_a 28.066299
_cell_length_b 14.530804
_cell_length_c 15.786235
_cell_angle_alpha 90.000000
_cell_angle_beta 90.000000
_cell_angle_gamma 90.000000
_cell_volume 6438.035335
_symmetry_space_group_name_H-M "C M M M"
_symmetry_group_IT_number 65
_symmetry_cell_setting 'orthorhombic'
loop_
_space_group_symop_operation_xyz
x,y,z
-x,-y,z
x,-y,-z
-x,y,-z
-x,-y,-z
x,y,-z
-x,y,z
x,-y,z
1/2+x,1/2+y,z
1/2-x,1/2-y,z
1/2+x,1/2-y,-z
1/2-x,1/2+y,-z
1/2-x,1/2-y,-z
1/2+x,1/2+y,-z
1/2-x,1/2+y,z
1/2+x,1/2-y,z
loop_
_atom_site_type_symbol
_atom_site_label
_atom_site_fract_x
_atom_site_fract_y
_atom_site_fract_z
Si Si1 0.883651 0.109470 0.091916
Si Si2 0.732739 0.145232 0.905830
Si Si3 0.842888 0.889827 0.407693
Si Si4 0.379451 0.108647 0.098955
Si Si5 0.553898 0.258493 0.173227
Si Si6 0.553756 0.606908 0.334060
Si Si7 0.808911 0.893042 0.770001
O O1 0.931667 0.165585 0.103431
O O2 0.848496 0.144216 0.165123
O O3 0.890478 0.000000 0.098582
O O4 0.861980 0.128677 0.000000
O O5 0.750000 0.250000 0.909466
O O6 0.676486 0.132973 0.894172
O O7 0.760348 0.109190 0.823140
O O8 0.744267 0.105037 0.000000
O O9 0.670071 0.649033 0.500000
O O10 0.899794 0.879380 0.391935
O O11 0.815108 0.853132 0.324278
O O12 0.834148 0.000000 0.411723
O O13 0.410699 0.173505 0.158961
O O14 0.385430 0.000000 0.115850
O O15 0.392769 0.125550 0.000000
O O16 0.500000 0.226490 0.164068
O O17 0.557397 0.317713 0.259849
O O18 0.500000 0.614596 0.371320
O O19 0.557418 0.500000 0.302104
O O20 0.821543 0.000000 0.760237
#
# Coordination Sequence:
#
# PCOD9483777 Si02
#       7
#    16  16  16  16  16  16  16
#     4  10  19  29  44  70 103 137 172 207 247 304
#     4  10  20  33  52  77 101 127 165 213 262 312
#     4   9  17  29  47  73 105 140 173 204 246 309
#     4  10  22  38  52  70  99 135 179 226 264 301
#     4  11  21  33  50  70  96 135 179 218 261 310
#     4   9  17  30  49  74 104 137 174 218 266 313
#     4  10  18  30  48  70  98 134 167 198 243 298
#
# _framework density 17.396612000000001
#
# number of rings (size 3 to 8) (size 9 to 14) (size 15 to 20)
#    0.000    2.143    1.429    2.571    0.000    5.143 
#    0.000    2.857    0.000    0.429    0.000    0.000 
#    0.000    0.571    0.000    3.143    0.000    0.143 
#
# Total GULP energy -311811.488002 kJ/mol
# GULP energy per Si atom -5568.062286 kJ/mol
# Density = 1.735702 g / cm^3
# Si number density = 17.396612 Si / 1000 Ang^3
#
#
#
# Elastic Constant Matrix: (Units=GPa)
#
#
# Indices 1 2 3 4 5 6 
#
# 1 69.2873 14.2769 39.4273 0.0000 0.0000 0.0000
# 2 14.2769 65.1415 20.4943 0.0000 0.0000 0.0000
# 3 39.4273 20.4943 124.2139 0.0000 0.0000 0.0000
# 4 0.0000 0.0000 0.0000 8.2931 0.0000 0.0000
# 5 0.0000 0.0000 0.0000 0.0000 9.0827 0.0000
# 6 0.0000 0.0000 0.0000 0.0000 0.0000 20.7419
#
#
#
# Elastic Compliance Matrix: (Units=1/GPa)
#
#
# Indices 1 2 3 4 5 6 
#
# 1 0.017923 -0.002255 -0.005317 0.000000 0.000000 0.000000
# 2 -0.002255 0.016475 -0.002002 0.000000 0.000000 0.000000
# 3 -0.005317 -0.002002 0.010069 0.000000 0.000000 0.000000
# 4 0.000000 0.000000 0.000000 0.120583 0.000000 0.000000
# 5 0.000000 0.000000 0.000000 0.000000 0.110099 0.000000
# 6 0.000000 0.000000 0.000000 0.000000 0.000000 0.048212
#
#
# Mechanical properties :
#
#
# Convention : Reuss Voigt Hill
#
# Bulk Modulus (GPa) = 39.49806 45.22665 42.36236
# Shear Modulus (GPa) = 14.24706 19.91980 17.08343
#
# Velocity S-wave (km/s) = 2.86485 3.38751 3.13708
# Velocity P-wave (km/s) = 5.80490 6.43072 6.12581
#
# Compressibility (1/GPa) = 0.02531770
#
# Stress axis : x y z
#
# Youngs Moduli (GPa) = 55.79452 60.69625 99.31805
#
# Poissons Ratio (x) = 0.13689 0.52806
# Poissons Ratio (y) = 0.12584 0.19888
# Poissons Ratio (z) = 0.29665 0.12154
#
# Static dielectric constant tensor:
#      x y z
#    x 1.624760 0.000000 0.000000 
#    y 0.000000 1.603010 0.000000 
#    z 0.000000 0.000000 1.655310 
# 
# From -- ./inp_files/47072.got.cif
#   From: 2010.05.17/outbox.cif.g08.bks.cpg/sg65_24_cif.got.tgz:47072.got - 2010.06.03 17:01:31.
