data_PCOD9483439
_publ_section_title
;
Structure prediction by ZEFSAII (Michael W. Deem and Ramdas Pophale) SiO2 
 PCOD9483439
Probable space group: C M M M
;
_chemical_formula_sum "Si O2"
_cell_formula_units_Z 120
_cell_length_a 25.352438
_cell_length_b 13.969660
_cell_length_c 21.495264
_cell_angle_alpha 90.000000
_cell_angle_beta 90.000000
_cell_angle_gamma 90.000000
_cell_volume 7612.868864
_symmetry_space_group_name_H-M "C M M M"
_symmetry_group_IT_number 65
_symmetry_cell_setting 'orthorhombic'
loop_
_space_group_symop_operation_xyz
x,y,z
-x,-y,z
x,-y,-z
-x,y,-z
-x,-y,-z
x,y,-z
-x,y,z
x,-y,z
1/2+x,1/2+y,z
1/2-x,1/2-y,z
1/2+x,1/2-y,-z
1/2-x,1/2+y,-z
1/2-x,1/2-y,-z
1/2+x,1/2+y,-z
1/2-x,1/2+y,z
1/2+x,1/2-y,z
loop_
_atom_site_type_symbol
_atom_site_label
_atom_site_fract_x
_atom_site_fract_y
_atom_site_fract_z
Si Si1 0.436167 0.388167 0.863611
Si Si2 0.940702 0.197426 0.387581
Si Si3 0.389151 0.710777 0.254902
Si Si4 0.892298 0.610217 0.572120
Si Si5 0.214023 0.884369 0.304289
Si Si6 0.667241 0.385241 0.433126
Si Si7 0.939302 0.116181 0.000000
Si Si8 0.333704 0.111721 0.698461
O O1 0.500000 0.385491 0.864823
O O2 0.421511 0.500000 0.852693
O O3 0.415242 0.322083 0.808674
O O4 0.416441 0.357806 0.932591
O O5 0.926252 0.187830 0.314431
O O6 0.933784 0.307877 0.409247
O O7 0.893719 0.142326 0.422335
O O8 0.000000 0.164650 0.399883
O O9 0.333749 0.655015 0.263363
O O10 0.373533 0.821511 0.263795
O O11 0.876032 0.623701 0.500000
O O12 0.911300 0.500000 0.577706
O O13 0.846987 0.622090 0.624634
O O14 0.199986 0.850367 0.374114
O O15 0.273728 0.857711 0.288555
O O16 0.212087 0.000000 0.303453
O O17 0.684985 0.348037 0.500000
O O18 0.671383 0.500000 0.433506
O O19 0.000000 0.149953 0.000000
O O20 0.940868 0.000000 0.000000
O O21 0.339727 0.000000 0.713262
#
# Coordination Sequence:
#
# PCOD9483439 Si02
#       8
#    16  16  16  16  16  16   8  16
#     4   9  16  27  46  72 100 125 145 168 202 243
#     4  10  20  31  41  55  79 109 138 170 208 253
#     4  10  18  29  44  64  88 113 143 175 208 252
#     4   9  18  31  45  60  75  95 133 185 234 274
#     4   9  17  29  44  62  83 107 137 177 223 265
#     4   9  18  30  42  58  79 103 135 174 214 261
#     4   7  12  24  42  68 100 125 143 167 200 238
#     4   9  18  31  45  61  83 110 142 183 228 268
#
# _framework density 15.762783000000001
#
# number of rings (size 3 to 8) (size 9 to 14) (size 15 to 20)
#    0.000    2.867    0.000    2.400    0.000    2.667 
#    0.000    4.000    0.000    6.000    0.000    2.333 
#    0.000    3.733    0.000    0.000    0.000    0.000 
#
# Total GULP energy -334111.818445 kJ/mol
# GULP energy per Si atom -5568.530307 kJ/mol
# Density = 1.572691 g / cm^3
# Si number density = 15.762783 Si / 1000 Ang^3
#
#
#
# Elastic Constant Matrix: (Units=GPa)
#
#
# Indices 1 2 3 4 5 6 
#
# 1 28.3447 5.1772 6.4947 0.0000 0.0000 0.0000
# 2 5.1772 35.7720 31.3415 0.0000 0.0000 0.0000
# 3 6.4947 31.3415 103.3196 0.0000 0.0000 0.0000
# 4 0.0000 0.0000 0.0000 17.7001 0.0000 0.0000
# 5 0.0000 0.0000 0.0000 0.0000 8.3188 0.0000
# 6 0.0000 0.0000 0.0000 0.0000 0.0000 16.6085
#
#
#
# Elastic Compliance Matrix: (Units=1/GPa)
#
#
# Indices 1 2 3 4 5 6 
#
# 1 0.036304 -0.004433 -0.000937 0.000000 0.000000 0.000000
# 2 -0.004433 0.038615 -0.011435 0.000000 0.000000 0.000000
# 3 -0.000937 -0.011435 0.013206 0.000000 0.000000 0.000000
# 4 0.000000 0.000000 0.000000 0.056497 0.000000 0.000000
# 5 0.000000 0.000000 0.000000 0.000000 0.120209 0.000000
# 6 0.000000 0.000000 0.000000 0.000000 0.000000 0.060210
#
#
# Mechanical properties :
#
#
# Convention : Reuss Voigt Hill
#
# Bulk Modulus (GPa) = 18.34355 28.16258 23.25307
# Shear Modulus (GPa) = 13.26877 16.82036 15.04457
#
# Velocity S-wave (km/s) = 2.90449 3.27018 3.09275
# Velocity P-wave (km/s) = 4.78650 5.67134 5.24760
#
# Compressibility (1/GPa) = 0.05451507
#
# Stress axis : x y z
#
# Youngs Moduli (GPa) = 27.54484 25.89659 75.72094
#
# Poissons Ratio (x) = 0.11480 0.07098
# Poissons Ratio (y) = 0.12211 0.86587
# Poissons Ratio (z) = 0.02582 0.29613
#
# Static dielectric constant tensor:
#      x y z
#    x 1.522550 0.000000 0.000000 
#    y 0.000000 1.561840 0.000000 
#    z 0.000000 0.000000 1.528080 
# 
# From -- ./inp_files/65566.got.cif
#   From: 2010.05.17/outbox.cif.g08.bks.cpg/sg65_33_cif.got.tgz:65566.got - 2010.06.03 17:01:31.
