data_PCOD9483916
_publ_section_title
;
Structure prediction by ZEFSAII (Michael W. Deem and Ramdas Pophale) SiO2 
 PCOD9483916
Probable space group: C M M M
;
_chemical_formula_sum "Si O2"
_cell_formula_units_Z 72
_cell_length_a 17.045568
_cell_length_b 10.078140
_cell_length_c 22.397933
_cell_angle_alpha 90.000000
_cell_angle_beta 90.000000
_cell_angle_gamma 90.000000
_cell_volume 3847.687618
_symmetry_space_group_name_H-M "C M M M"
_symmetry_group_IT_number 65
_symmetry_cell_setting 'orthorhombic'
loop_
_space_group_symop_operation_xyz
x,y,z
-x,-y,z
x,-y,-z
-x,y,-z
-x,-y,-z
x,y,-z
-x,y,z
x,-y,z
1/2+x,1/2+y,z
1/2-x,1/2-y,z
1/2+x,1/2-y,-z
1/2-x,1/2+y,-z
1/2-x,1/2-y,-z
1/2+x,1/2+y,-z
1/2-x,1/2+y,z
1/2+x,1/2-y,z
loop_
_atom_site_type_symbol
_atom_site_label
_atom_site_fract_x
_atom_site_fract_y
_atom_site_fract_z
Si Si1 0.845199 0.500000 0.931617
Si Si2 0.094620 0.153276 0.401825
Si Si3 0.844580 0.251229 0.145458
Si Si4 0.905701 0.848885 0.735346
Si Si5 0.346611 0.500000 0.931322
Si Si6 0.330225 0.163888 0.500000
O O1 0.870509 0.625056 0.893407
O O2 0.749241 0.500000 0.933517
O O3 0.871844 0.500000 0.000000
O O4 0.118599 0.176976 0.332952
O O5 0.125247 0.272162 0.442961
O O6 0.000000 0.151956 0.404883
O O7 0.119523 0.000000 0.418367
O O8 0.750000 0.250000 0.147508
O O9 0.874161 0.244811 0.212983
O O10 0.871567 0.125540 0.107126
O O11 0.000000 0.845777 0.736075
O O12 0.880431 0.000000 0.749892
O O13 0.373283 0.500000 0.000000
O O14 0.250000 0.250000 0.500000
O O15 0.324551 0.000000 0.500000
#
# Coordination Sequence:
#
# PCOD9483916 Si02
#       6
#     8  16  16  16   8   8
#     4   9  18  30  45  71 105 138 177 226 281 331
#     4   9  19  38  63  86 112 152 193 228 276 337
#     4  10  18  30  50  77 104 137 180 226 276 324
#     4   9  18  35  58  81 107 142 183 224 266 319
#     4   9  16  28  49  73  99 134 179 228 269 321
#     4  12  25  40  59  89 123 153 185 230 281 322
#
# _framework density 18.712539
#
# number of rings (size 3 to 8) (size 9 to 14) (size 15 to 20)
#    0.000    2.444    1.111    3.333    0.000    5.333 
#    2.000    0.556    0.000    4.000    0.000    0.000 
#    0.000    0.000    0.000    0.000    0.000    0.000 
#
# Total GULP energy -200547.523057 kJ/mol
# GULP energy per Si atom -5570.764529 kJ/mol
# Density = 1.866995 g / cm^3
# Si number density = 18.712539 Si / 1000 Ang^3
#
#
#
# Elastic Constant Matrix: (Units=GPa)
#
#
# Indices 1 2 3 4 5 6 
#
# 1 14.0276 22.5977 22.8267 0.0000 0.0000 0.0000
# 2 22.5977 168.3197 91.2090 0.0000 0.0000 0.0000
# 3 22.8267 91.2090 160.5042 0.0000 0.0000 0.0000
# 4 0.0000 0.0000 0.0000 34.4963 0.0000 0.0000
# 5 0.0000 0.0000 0.0000 0.0000 30.8121 0.0000
# 6 0.0000 0.0000 0.0000 0.0000 0.0000 -13.9898
#
#
#
# Elastic Compliance Matrix: (Units=1/GPa)
#
#
# Indices 1 2 3 4 5 6 
#
# 1 0.100142 -0.008275 -0.009540 0.000000 0.000000 0.000000
# 2 -0.008275 0.009268 -0.004090 0.000000 0.000000 0.000000
# 3 -0.009540 -0.004090 0.009911 0.000000 0.000000 0.000000
# 4 0.000000 0.000000 0.000000 0.028989 0.000000 0.000000
# 5 0.000000 0.000000 0.000000 0.000000 0.032455 0.000000
# 6 0.000000 0.000000 0.000000 0.000000 0.000000 -0.071481
#
#
# Mechanical properties :
#
#
# Convention : Reuss Voigt Hill
#
# Bulk Modulus (GPa) = 13.24290 68.45762 40.85026
# Shear Modulus (GPa) = 28.04816 24.01159 26.02987
#
# Velocity S-wave (km/s) = 3.87576 3.58604 3.73371
# Velocity P-wave (km/s) = 5.20779 7.33549 6.36123
#
# Compressibility (1/GPa) = 0.07551218
#
# Stress axis : x y z
#
# Youngs Moduli (GPa) = 9.98580 107.89408 100.89526
#
# Poissons Ratio (x) = 0.89285 0.96250
# Poissons Ratio (y) = 0.08264 0.41266
# Poissons Ratio (z) = 0.09526 0.44128
#
# Static dielectric constant tensor:
#      x y z
#    x 1.664080 0.000000 0.000000 
#    y 0.000000 1.614190 0.000000 
#    z 0.000000 0.000000 1.646600 
# 
# From -- ./inp_files/64452.got.cif
#   From: 2010.05.17/outbox.cif.g08.bks.cpg/sg65_33_cif.got.tgz:64452.got - 2010.06.03 17:01:31.
