data_PCOD9483576
_publ_section_title
;
Structure prediction by ZEFSAII (Michael W. Deem and Ramdas Pophale) SiO2 
 PCOD9483576
Probable space group: C M M M
;
_chemical_formula_sum "Si O2"
_cell_formula_units_Z 120
_cell_length_a 20.690494
_cell_length_b 14.278834
_cell_length_c 24.213047
_cell_angle_alpha 90.000000
_cell_angle_beta 90.000000
_cell_angle_gamma 90.000000
_cell_volume 7153.408882
_symmetry_space_group_name_H-M "C M M M"
_symmetry_group_IT_number 65
_symmetry_cell_setting 'orthorhombic'
loop_
_space_group_symop_operation_xyz
x,y,z
-x,-y,z
x,-y,-z
-x,y,-z
-x,-y,-z
x,y,-z
-x,y,z
x,-y,z
1/2+x,1/2+y,z
1/2-x,1/2-y,z
1/2+x,1/2-y,-z
1/2-x,1/2+y,-z
1/2-x,1/2-y,-z
1/2+x,1/2+y,-z
1/2-x,1/2+y,z
1/2+x,1/2-y,z
loop_
_atom_site_type_symbol
_atom_site_label
_atom_site_fract_x
_atom_site_fract_y
_atom_site_fract_z
Si Si1 0.422610 0.611200 0.000000
Si Si2 0.426717 0.887964 0.565587
Si Si3 0.713239 0.111677 0.127594
Si Si4 0.425565 0.606498 0.805974
Si Si5 0.149990 0.796283 0.102292
Si Si6 0.135277 0.894834 0.694223
Si Si7 0.780337 0.392563 0.741447
Si Si8 0.823193 0.723004 0.363760
O O1 0.392112 0.661562 0.946916
O O2 0.407052 0.500000 0.000000
O O3 0.500000 0.619616 0.000000
O O4 0.421843 0.869572 0.500000
O O5 0.500000 0.859149 0.583333
O O6 0.367323 0.840170 0.597231
O O7 0.422796 0.000000 0.573377
O O8 0.782772 0.146387 0.105732
O O9 0.664201 0.185428 0.099668
O O10 0.711250 0.130323 0.194003
O O11 0.704034 0.000000 0.118915
O O12 0.500000 0.608717 0.822265
O O13 0.400587 0.500000 0.816447
O O14 0.386089 0.679869 0.841009
O O15 0.417443 0.623216 0.741072
O O16 0.204221 0.889257 0.726454
O O17 0.138913 0.818854 0.647105
O O18 0.128177 0.000000 0.673136
O O19 0.801859 0.500000 0.733427
O O20 0.814231 0.327071 0.696236
O O21 0.750000 0.750000 0.382592
#
# Coordination Sequence:
#
# PCOD9483576 Si02
#       8
#     8  16  16  16  16  16  16  16
#     4  11  24  41  59  79 101 127 169 224 272 307
#     4   9  19  37  58  77 100 136 185 237 283 324
#     4  10  20  33  54  79 107 138 167 205 254 314
#     4  10  18  29  48  72  98 132 173 214 256 305
#     4  11  21  34  55  76 103 133 170 213 260 305
#     4   9  17  28  43  69 106 140 170 205 252 311
#     4   9  16  28  47  74 109 140 167 208 259 316
#     4  10  19  29  50  78 110 141 178 219 269 325
#
# _framework density 16.775219
#
# number of rings (size 3 to 8) (size 9 to 14) (size 15 to 20)
#    0.000    2.200    1.333    3.200    3.733    3.467 
#    0.000    1.000    0.000    2.400    0.000    2.800 
#    0.000    0.000    0.000    0.000    0.000    0.000 
#
# Total GULP energy -334417.923834 kJ/mol
# GULP energy per Si atom -5573.632064 kJ/mol
# Density = 1.673704 g / cm^3
# Si number density = 16.775219 Si / 1000 Ang^3
#
#
#
# Elastic Constant Matrix: (Units=GPa)
#
#
# Indices 1 2 3 4 5 6 
#
# 1 66.4613 49.0176 29.9836 0.0000 0.0000 0.0000
# 2 49.0176 106.4063 41.3176 0.0000 0.0000 0.0000
# 3 29.9836 41.3176 46.5656 0.0000 0.0000 0.0000
# 4 0.0000 0.0000 0.0000 4.8787 0.0000 0.0000
# 5 0.0000 0.0000 0.0000 0.0000 -16.9434 0.0000
# 6 0.0000 0.0000 0.0000 0.0000 0.0000 25.4755
#
#
#
# Elastic Compliance Matrix: (Units=1/GPa)
#
#
# Indices 1 2 3 4 5 6 
#
# 1 0.025030 -0.008044 -0.008980 0.000000 0.000000 0.000000
# 2 -0.008044 0.016923 -0.009836 0.000000 0.000000 0.000000
# 3 -0.008980 -0.009836 0.035985 0.000000 0.000000 0.000000
# 4 0.000000 0.000000 0.000000 0.204973 0.000000 0.000000
# 5 0.000000 0.000000 0.000000 0.000000 -0.059020 0.000000
# 6 0.000000 0.000000 0.000000 0.000000 0.000000 0.039253
#
#
# Mechanical properties :
#
#
# Convention : Reuss Voigt Hill
#
# Bulk Modulus (GPa) = 41.29097 51.11899 46.20498
# Shear Modulus (GPa) = 15.38766 9.28980 12.33873
#
# Velocity S-wave (km/s) = 3.03196 2.35581 2.71501
# Velocity P-wave (km/s) = 6.07657 6.15945 6.11815
#
# Compressibility (1/GPa) = 0.02421837
#
# Stress axis : x y z
#
# Youngs Moduli (GPa) = 39.95220 59.09205 27.78942
#
# Poissons Ratio (x) = 0.47531 0.24954
# Poissons Ratio (y) = 0.32136 0.27335
# Poissons Ratio (z) = 0.35876 0.58125
#
# Static dielectric constant tensor:
#      x y z
#    x 1.566540 0.000000 0.000000 
#    y 0.000000 1.589390 0.000000 
#    z 0.000000 0.000000 1.566340 
# 
# From -- ./inp_files/71268.got.cif
#   From: 2010.05.17/outbox.cif.g08.bks.cpg/sg65_36_cif.got.tgz:71268.got - 2010.06.03 17:01:31.
