data_PCOD9483408
_publ_section_title
;
Structure prediction by ZEFSAII (Michael W. Deem and Ramdas Pophale) SiO2 
 PCOD9483408
Probable space group: C M M M
;
_chemical_formula_sum "Si O2"
_cell_formula_units_Z 60
_cell_length_a 15.056979
_cell_length_b 15.132910
_cell_length_c 12.294363
_cell_angle_alpha 90.000000
_cell_angle_beta 90.000000
_cell_angle_gamma 90.000000
_cell_volume 2801.343246
_symmetry_space_group_name_H-M "C M M M"
_symmetry_group_IT_number 65
_symmetry_cell_setting 'orthorhombic'
loop_
_space_group_symop_operation_xyz
x,y,z
-x,-y,z
x,-y,-z
-x,y,-z
-x,-y,-z
x,y,-z
-x,y,z
x,-y,z
1/2+x,1/2+y,z
1/2-x,1/2-y,z
1/2+x,1/2-y,-z
1/2-x,1/2+y,-z
1/2-x,1/2-y,-z
1/2+x,1/2+y,-z
1/2-x,1/2+y,z
1/2+x,1/2-y,z
loop_
_atom_site_type_symbol
_atom_site_label
_atom_site_fract_x
_atom_site_fract_y
_atom_site_fract_z
Si Si1 0.109237 0.326028 0.125555
Si Si2 0.655309 0.793871 0.500000
Si Si3 0.108943 0.000000 0.374061
Si Si4 0.603722 0.313202 0.290500
Si Si5 0.138823 0.500000 0.500000
Si Si6 0.897896 0.500000 0.246455
O O1 0.140949 0.237917 0.186906
O O2 0.140620 0.410840 0.194548
O O3 0.000000 0.323846 0.129336
O O4 0.134890 0.331773 0.000000
O O5 0.750000 0.750000 0.500000
O O6 0.608718 0.754297 0.607401
O O7 0.670858 0.898207 0.500000
O O8 0.142025 0.909013 0.320960
O O9 0.136024 0.000000 0.500000
O O10 0.000000 0.000000 0.373818
O O11 0.500000 0.330109 0.269672
O O12 0.099613 0.500000 0.376853
O O13 0.000000 0.500000 0.209113
#
# Coordination Sequence:
#
# PCOD9483408 Si02
#       6
#    16   8   8  16   4   8
#     4   9  17  29  48  78 113 145 177 217 264 315
#     4  12  25  37  53  78 113 141 172 221 278 323
#     4   9  16  27  50  77  99 133 188 227 262 317
#     4  10  19  34  55  79 107 144 183 222 268 324
#     4  12  23  36  52  82 107 140 180 214 272 334
#     4  10  18  28  51  83 116 142 170 214 265 329
#
# _framework density 21.418296000000002
#
# number of rings (size 3 to 8) (size 9 to 14) (size 15 to 20)
#    0.000    2.000    4.000    1.000    0.000    3.733 
#    0.000    0.667    0.000    4.800    0.000    0.000 
#    0.000    0.000    0.000    0.000    0.000    0.000 
#
# Total GULP energy -167262.016671 kJ/mol
# GULP energy per Si atom -5575.400556 kJ/mol
# Density = 2.136955 g / cm^3
# Si number density = 21.418296 Si / 1000 Ang^3
#
#
#
# Elastic Constant Matrix: (Units=GPa)
#
#
# Indices 1 2 3 4 5 6 
#
# 1 18.8619 21.7994 7.7570 0.0000 0.0000 0.0000
# 2 21.7994 230.5300 80.3509 0.0000 0.0000 0.0000
# 3 7.7570 80.3509 152.4412 0.0000 0.0000 0.0000
# 4 0.0000 0.0000 0.0000 25.9414 0.0000 0.0000
# 5 0.0000 0.0000 0.0000 0.0000 -45.9654 0.0000
# 6 0.0000 0.0000 0.0000 0.0000 0.0000 5.2229
#
#
#
# Elastic Compliance Matrix: (Units=1/GPa)
#
#
# Indices 1 2 3 4 5 6 
#
# 1 0.059523 -0.005602 -0.000076 0.000000 0.000000 0.000000
# 2 -0.005602 0.005841 -0.002794 0.000000 0.000000 0.000000
# 3 -0.000076 -0.002794 0.008036 0.000000 0.000000 0.000000
# 4 0.000000 0.000000 0.000000 0.038548 0.000000 0.000000
# 5 0.000000 0.000000 0.000000 0.000000 -0.021755 0.000000
# 6 0.000000 0.000000 0.000000 0.000000 0.000000 0.191463
#
#
# Mechanical properties :
#
#
# Convention : Reuss Voigt Hill
#
# Bulk Modulus (GPa) = 17.71273 69.07197 43.39235
# Shear Modulus (GPa) = 15.75204 16.50151 16.12678
#
# Velocity S-wave (km/s) = 2.71486 2.77869 2.74696
# Velocity P-wave (km/s) = 4.25619 6.52793 5.51040
#
# Compressibility (1/GPa) = 0.05645658
#
# Stress axis : x y z
#
# Youngs Moduli (GPa) = 16.80030 171.19229 124.43353
#
# Poissons Ratio (x) = 0.95904 0.00945
# Poissons Ratio (y) = 0.09412 0.34765
# Poissons Ratio (z) = 0.00128 0.47829
#
# Static dielectric constant tensor:
#      x y z
#    x 1.827270 0.000000 0.000000 
#    y 0.000000 1.805790 0.000000 
#    z 0.000000 0.000000 1.441900 
# 
# From -- ./inp_files/28275.got.cif
#   From: 2010.05.17/outbox.cif.g08.bks.cpg/sg65_15_cif.got.tgz:28275.got - 2010.06.03 17:01:31.
