data_PCOD9483007
_publ_section_title
;
Structure prediction by ZEFSAII (Michael W. Deem and Ramdas Pophale) SiO2 
 PCOD9483007
Probable space group: C M M M
;
_chemical_formula_sum "Si O2"
_cell_formula_units_Z 96
_cell_length_a 26.461417
_cell_length_b 22.472009
_cell_length_c 7.625996
_cell_angle_alpha 90.000000
_cell_angle_beta 90.000000
_cell_angle_gamma 90.000000
_cell_volume 4534.731420
_symmetry_space_group_name_H-M "C M M M"
_symmetry_group_IT_number 65
_symmetry_cell_setting 'orthorhombic'
loop_
_space_group_symop_operation_xyz
x,y,z
-x,-y,z
x,-y,-z
-x,y,-z
-x,-y,-z
x,y,-z
-x,y,z
x,-y,z
1/2+x,1/2+y,z
1/2-x,1/2-y,z
1/2+x,1/2-y,-z
1/2-x,1/2+y,-z
1/2-x,1/2-y,-z
1/2+x,1/2+y,-z
1/2-x,1/2+y,z
1/2+x,1/2-y,z
loop_
_atom_site_type_symbol
_atom_site_label
_atom_site_fract_x
_atom_site_fract_y
_atom_site_fract_z
Si Si1 0.575710 0.000000 0.698984
Si Si2 0.352002 0.656955 0.289755
Si Si3 0.944922 0.369402 0.285526
Si Si4 0.651031 0.792717 0.714704
Si Si5 0.241477 0.622795 0.711942
Si Si6 0.442871 0.567572 0.789351
Si Si7 0.312322 0.000000 0.799619
O O1 0.559453 0.062651 0.778285
O O2 0.556079 0.000000 0.500000
O O3 0.636291 0.000000 0.691457
O O4 0.348170 0.660304 0.500000
O O5 0.355474 0.724930 0.226085
O O6 0.298639 0.630995 0.224237
O O7 0.399866 0.615160 0.253805
O O8 0.942496 0.370820 0.500000
O O9 0.896914 0.331645 0.227599
O O10 0.000000 0.344926 0.237363
O O11 0.651447 0.792656 0.500000
O O12 0.702820 0.825268 0.769946
O O13 0.242048 0.624914 0.500000
O O14 0.219267 0.559179 0.763711
O O15 0.500000 0.582718 0.727551
O O16 0.430916 0.500000 0.727487
O O17 0.444964 0.565118 0.000000
O O18 0.328934 0.000000 0.000000
#
# Coordination Sequence:
#
# PCOD9483007 Si02
#       7
#     8  16  16  16  16  16   8
#     4  10  17  32  54  76 104 143 185 227 276 317
#     4  10  21  34  57  89 113 137 178 229 275 324
#     4   9  16  26  48  81 109 137 181 227 263 311
#     4   9  17  32  53  80 114 147 177 219 273 325
#     4  10  20  37  57  79 111 148 182 217 274 335
#     4   9  20  40  61  79 107 149 188 220 267 332
#     4  12  24  35  53  81 109 141 186 231 272 316
#
# _framework density 21.169943
#
# number of rings (size 3 to 8) (size 9 to 14) (size 15 to 20)
#    0.000    2.333    1.667    2.000    1.167    5.000 
#    0.000    3.333    0.000    3.000    0.000    0.000 
#    0.000    0.000    0.000    0.000    0.000    0.000 
#
# Total GULP energy -268013.359929 kJ/mol
# GULP energy per Si atom -5583.611665 kJ/mol
# Density = 2.112176 g / cm^3
# Si number density = 21.169943 Si / 1000 Ang^3
#
#
#
# Elastic Constant Matrix: (Units=GPa)
#
#
# Indices 1 2 3 4 5 6 
#
# 1 190.5747 108.4742 10.4789 0.0000 0.0000 0.0000
# 2 108.4742 159.0777 7.1914 0.0000 0.0000 0.0000
# 3 10.4789 7.1914 48.1874 0.0000 0.0000 0.0000
# 4 0.0000 0.0000 0.0000 40.6920 0.0000 0.0000
# 5 0.0000 0.0000 0.0000 0.0000 -61.1308 0.0000
# 6 0.0000 0.0000 0.0000 0.0000 0.0000 11.9088
#
#
#
# Elastic Compliance Matrix: (Units=1/GPa)
#
#
# Indices 1 2 3 4 5 6 
#
# 1 0.008624 -0.005835 -0.001005 0.000000 0.000000 0.000000
# 2 -0.005835 0.010277 -0.000265 0.000000 0.000000 0.000000
# 3 -0.001005 -0.000265 0.021010 0.000000 0.000000 0.000000
# 4 0.000000 0.000000 0.000000 0.024575 0.000000 0.000000
# 5 0.000000 0.000000 0.000000 0.000000 -0.016358 0.000000
# 6 0.000000 0.000000 0.000000 0.000000 0.000000 0.083972
#
#
# Mechanical properties :
#
#
# Convention : Reuss Voigt Hill
#
# Bulk Modulus (GPa) = 38.90701 72.23653 55.57177
# Shear Modulus (GPa) = 32.28393 16.40703 24.34548
#
# Velocity S-wave (km/s) = 3.90935 2.78693 3.39485
# Velocity P-wave (km/s) = 6.22862 6.67475 6.45554
#
# Compressibility (1/GPa) = 0.02570231
#
# Stress axis : x y z
#
# Youngs Moduli (GPa) = 115.95740 97.30314 47.59572
#
# Poissons Ratio (x) = 0.56778 0.04781
# Poissons Ratio (y) = 0.67663 0.01260
# Poissons Ratio (z) = 0.11648 0.02577
#
# Static dielectric constant tensor:
#      x y z
#    x 1.754450 0.000000 0.000000 
#    y 0.000000 1.736330 0.000000 
#    z 0.000000 0.000000 1.815780 
# 
# From -- ./inp_files/14336.got.cif
#   From: 2010.05.17/outbox.cif.g08.bks.cpg/sg65_8_cif.got.tgz:14336.got - 2010.06.03 17:01:31.
