data_PCOD9483018
_publ_section_title
;
Structure prediction by ZEFSAII (Michael W. Deem and Ramdas Pophale) SiO2 
 PCOD9483018
Probable space group: C M M M
;
_chemical_formula_sum "Si O2"
_cell_formula_units_Z 72
_cell_length_a 7.653679
_cell_length_b 24.223694
_cell_length_c 18.434964
_cell_angle_alpha 90.000000
_cell_angle_beta 90.000000
_cell_angle_gamma 90.000000
_cell_volume 3417.849295
_symmetry_space_group_name_H-M "C M M M"
_symmetry_group_IT_number 65
_symmetry_cell_setting 'orthorhombic'
loop_
_space_group_symop_operation_xyz
x,y,z
-x,-y,z
x,-y,-z
-x,y,-z
-x,-y,-z
x,y,-z
-x,y,z
x,-y,z
1/2+x,1/2+y,z
1/2-x,1/2-y,z
1/2+x,1/2-y,-z
1/2-x,1/2+y,-z
1/2-x,1/2-y,-z
1/2+x,1/2+y,-z
1/2-x,1/2+y,z
1/2+x,1/2-y,z
loop_
_atom_site_type_symbol
_atom_site_label
_atom_site_fract_x
_atom_site_fract_y
_atom_site_fract_z
Si Si1 0.291832 0.314288 0.219915
Si Si2 0.711403 0.000000 0.311943
Si Si3 0.704959 0.117595 0.637960
Si Si4 0.710794 0.814849 0.500000
Si Si5 0.209228 0.000000 0.859101
Si Si6 0.286108 0.382143 0.918520
O O1 0.500000 0.321246 0.222384
O O2 0.250000 0.250000 0.225564
O O3 0.219518 0.348216 0.287805
O O4 0.228533 0.340147 0.144037
O O5 0.778677 0.056421 0.348169
O O6 0.500000 0.000000 0.316833
O O7 0.753248 0.000000 0.226470
O O8 0.500000 0.109780 0.622067
O O9 0.777768 0.153557 0.571627
O O10 0.500000 0.817911 0.500000
O O11 0.750000 0.750000 0.500000
O O12 0.272619 0.943605 0.895787
O O13 0.000000 0.000000 0.867783
O O14 0.500000 0.382137 0.918496
O O15 0.229660 0.368497 0.000000
#
# Coordination Sequence:
#
# PCOD9483018 Si02
#       6
#    16   8  16   8   8  16
#     4  11  22  36  56  80 109 146 188 231 276 328
#     4  10  20  34  57  85 115 144 174 222 277 328
#     4  10  21  38  59  84 113 145 182 224 273 328
#     4  10  22  39  59  83 111 146 187 226 267 318
#     4  10  17  32  57  83 108 140 184 227 270 327
#     4   9  18  32  53  81 109 141 183 229 275 325
#
# _framework density 21.06588
#
# number of rings (size 3 to 8) (size 9 to 14) (size 15 to 20)
#    0.000    2.000    2.222    1.667    0.000    4.889 
#    0.000    2.222    0.000    6.000    0.000    3.111 
#    0.000    0.000    0.000    0.000    0.000    0.000 
#
# Total GULP energy -201122.139885 kJ/mol
# GULP energy per Si atom -5586.726108 kJ/mol
# Density = 2.101793 g / cm^3
# Si number density = 21.065880 Si / 1000 Ang^3
#
#
#
# Elastic Constant Matrix: (Units=GPa)
#
#
# Indices 1 2 3 4 5 6 
#
# 1 32.6754 -16.4405 -10.9317 0.0000 0.0000 0.0000
# 2 -16.4405 176.7091 92.9701 0.0000 0.0000 0.0000
# 3 -10.9317 92.9701 178.3599 0.0000 0.0000 0.0000
# 4 0.0000 0.0000 0.0000 24.1610 0.0000 0.0000
# 5 0.0000 0.0000 0.0000 0.0000 20.1424 0.0000
# 6 0.0000 0.0000 0.0000 0.0000 0.0000 -1.5176
#
#
#
# Elastic Compliance Matrix: (Units=1/GPa)
#
#
# Indices 1 2 3 4 5 6 
#
# 1 0.032149 0.002693 0.000567 0.000000 0.000000 0.000000
# 2 0.002693 0.008023 -0.004017 0.000000 0.000000 0.000000
# 3 0.000567 -0.004017 0.007735 0.000000 0.000000 0.000000
# 4 0.000000 0.000000 0.000000 0.041389 0.000000 0.000000
# 5 0.000000 0.000000 0.000000 0.000000 0.049647 0.000000
# 6 0.000000 0.000000 0.000000 0.000000 0.000000 -0.658951
#
#
# Mechanical properties :
#
#
# Convention : Reuss Voigt Hill
#
# Bulk Modulus (GPa) = 21.55544 57.66003 39.60774
# Shear Modulus (GPa) = -9.93977 30.03360 10.04692
#
# Velocity S-wave (km/s) = -2.17455 3.77994 2.18624
# Velocity P-wave (km/s) = 1.98739 6.81772 5.02150
#
# Compressibility (1/GPa) = 0.04639200
#
# Stress axis : x y z
#
# Youngs Moduli (GPa) = 31.10562 124.64282 129.27930
#
# Poissons Ratio (x) = -0.33564 -0.07327
# Poissons Ratio (y) = -0.08376 0.51930
# Poissons Ratio (z) = -0.01763 0.50068
#
# Static dielectric constant tensor:
#      x y z
#    x 1.639530 0.000000 0.000000 
#    y 0.000000 1.733210 0.000000 
#    z 0.000000 0.000000 1.728280 
# 
# From -- ./inp_files/49534.got.cif
#   From: 2010.05.17/outbox.cif.g08.bks.cpg/sg65_25_cif.got.tgz:49534.got - 2010.06.03 17:01:31.
