data_PCOD9483089
_publ_section_title
;
Structure prediction by ZEFSAII (Michael W. Deem and Ramdas Pophale) SiO2 
 PCOD9483089
Probable space group: C M M M
;
_chemical_formula_sum "Si O2"
_cell_formula_units_Z 72
_cell_length_a 28.886178
_cell_length_b 16.443711
_cell_length_c 7.363838
_cell_angle_alpha 90.000000
_cell_angle_beta 90.000000
_cell_angle_gamma 90.000000
_cell_volume 3497.793322
_symmetry_space_group_name_H-M "C M M M"
_symmetry_group_IT_number 65
_symmetry_cell_setting 'orthorhombic'
loop_
_space_group_symop_operation_xyz
x,y,z
-x,-y,z
x,-y,-z
-x,y,-z
-x,-y,-z
x,y,-z
-x,y,z
x,-y,z
1/2+x,1/2+y,z
1/2-x,1/2-y,z
1/2+x,1/2-y,-z
1/2-x,1/2+y,-z
1/2-x,1/2-y,-z
1/2+x,1/2+y,-z
1/2-x,1/2+y,z
1/2+x,1/2-y,z
loop_
_atom_site_type_symbol
_atom_site_label
_atom_site_fract_x
_atom_site_fract_y
_atom_site_fract_z
Si Si1 0.056507 0.500000 0.790087
Si Si2 0.806511 0.410053 0.279128
Si Si3 0.198299 0.910048 0.278904
Si Si4 0.644802 0.252471 0.285947
Si Si5 0.447472 0.823341 0.218645
O O1 0.069212 0.412296 0.710441
O O2 0.000000 0.500000 0.788737
O O3 0.071313 0.500000 0.000000
O O4 0.808836 0.410756 0.500000
O O5 0.822630 0.500000 0.219180
O O6 0.752369 0.400847 0.230562
O O7 0.833796 0.331459 0.211271
O O8 0.196828 0.910263 0.500000
O O9 0.168051 0.834292 0.213369
O O10 0.182866 0.000000 0.219683
O O11 0.655413 0.252037 0.500000
O O12 0.589875 0.244306 0.264902
O O13 0.500000 0.808515 0.280940
O O14 0.449217 0.830008 0.000000
#
# Coordination Sequence:
#
# PCOD9483089 Si02
#       5
#     8  16  16  16  16
#     4   7  12  26  45  59  75 109 151 175 193 245
#     4   8  14  24  39  63  95 122 142 171 214 263
#     4   8  14  26  43  63  89 121 152 178 210 259
#     4  10  18  26  44  71  92 112 145 188 224 252
#     4   9  18  32  47  62  85 119 152 178 212 264
#
# _framework density 20.584408
#
# number of rings (size 3 to 8) (size 9 to 14) (size 15 to 20)
#    0.000    3.444    0.000    3.333    1.556    3.111 
#    0.000    0.000    0.000    6.000    0.000    7.778 
#    0.000    0.000    0.000    0.000    0.000    0.000 
#
# Total GULP energy -200816.666491 kJ/mol
# GULP energy per Si atom -5578.240736 kJ/mol
# Density = 2.053756 g / cm^3
# Si number density = 20.584408 Si / 1000 Ang^3
#
#
#
# Elastic Constant Matrix: (Units=GPa)
#
#
# Indices 1 2 3 4 5 6 
#
# 1 90.7171 94.1960 -4.1221 0.0000 0.0000 0.0000
# 2 94.1960 160.7527 9.1643 0.0000 0.0000 0.0000
# 3 -4.1221 9.1643 75.5555 0.0000 0.0000 0.0000
# 4 0.0000 0.0000 0.0000 -10.0140 0.0000 0.0000
# 5 0.0000 0.0000 0.0000 0.0000 17.7593 0.0000
# 6 0.0000 0.0000 0.0000 0.0000 0.0000 33.7315
#
#
#
# Elastic Compliance Matrix: (Units=1/GPa)
#
#
# Indices 1 2 3 4 5 6 
#
# 1 0.029137 -0.017284 0.003686 0.000000 0.000000 0.000000
# 2 -0.017284 0.016516 -0.002946 0.000000 0.000000 0.000000
# 3 0.003686 -0.002946 0.013794 0.000000 0.000000 0.000000
# 4 0.000000 0.000000 0.000000 -0.099860 0.000000 0.000000
# 5 0.000000 0.000000 0.000000 0.000000 0.056308 0.000000
# 6 0.000000 0.000000 0.000000 0.000000 0.000000 0.029646
#
#
# Mechanical properties :
#
#
# Convention : Reuss Voigt Hill
#
# Bulk Modulus (GPa) = 37.93686 58.38908 48.16297
# Shear Modulus (GPa) = 57.19800 23.48117 40.33959
#
# Velocity S-wave (km/s) = 5.27706 3.38113 4.43167
# Velocity P-wave (km/s) = 7.45652 6.60833 7.04520
#
# Compressibility (1/GPa) = 0.02635959
#
# Stress axis : x y z
#
# Youngs Moduli (GPa) = 34.32038 60.54606 72.49659
#
# Poissons Ratio (x) = 1.04645 -0.26722
# Poissons Ratio (y) = 0.59318 0.21359
# Poissons Ratio (z) = -0.12651 0.17838
#
# Static dielectric constant tensor:
#      x y z
#    x 1.722920 0.000000 0.000000 
#    y 0.000000 1.747210 0.000000 
#    z 0.000000 0.000000 1.804510 
# 
# From -- ./inp_files/7663.got.cif
#   From: 2010.05.17/outbox.cif.g08.bks.cpg/sg65_4_cif.got.tgz:7663.got - 2010.06.03 17:01:31.
