data_PCOD9483377
_publ_section_title
;
Structure prediction by ZEFSAII (Michael W. Deem and Ramdas Pophale) SiO2 
 PCOD9483377
Probable space group: C M M M
;
_chemical_formula_sum "Si O2"
_cell_formula_units_Z 104
_cell_length_a 14.662596
_cell_length_b 20.921273
_cell_length_c 18.972366
_cell_angle_alpha 90.000000
_cell_angle_beta 90.000000
_cell_angle_gamma 90.000000
_cell_volume 5819.966292
_symmetry_space_group_name_H-M "C M M M"
_symmetry_group_IT_number 65
_symmetry_cell_setting 'orthorhombic'
loop_
_space_group_symop_operation_xyz
x,y,z
-x,-y,z
x,-y,-z
-x,y,-z
-x,-y,-z
x,y,-z
-x,y,z
x,-y,z
1/2+x,1/2+y,z
1/2-x,1/2-y,z
1/2+x,1/2-y,-z
1/2-x,1/2+y,-z
1/2-x,1/2-y,-z
1/2+x,1/2+y,-z
1/2-x,1/2+y,z
1/2+x,1/2-y,z
loop_
_atom_site_type_symbol
_atom_site_label
_atom_site_fract_x
_atom_site_fract_y
_atom_site_fract_z
Si Si1 0.891946 0.500000 0.920152
Si Si2 0.900098 0.870206 0.160206
Si Si3 0.258619 0.172505 0.579967
Si Si4 0.891328 0.332760 0.701086
Si Si5 0.103977 0.266766 0.083317
Si Si6 0.101694 0.182900 0.684723
Si Si7 0.303206 0.882441 0.842880
O O1 0.861325 0.437617 0.878385
O O2 0.000000 0.500000 0.924700
O O3 0.854420 0.500000 0.000000
O O4 0.894468 0.801814 0.120719
O O5 0.900012 0.856571 0.243620
O O6 0.802449 0.901846 0.147550
O O7 0.000000 0.898608 0.141479
O O8 0.257489 0.148441 0.500000
O O9 0.250000 0.250000 0.576124
O O10 0.347879 0.153254 0.624574
O O11 0.172618 0.155724 0.628855
O O12 0.875968 0.255962 0.707921
O O13 0.835884 0.368494 0.762750
O O14 0.000000 0.344544 0.706193
O O15 0.174081 0.316278 0.116957
O O16 0.000000 0.292169 0.094154
O O17 0.119139 0.260006 0.000000
O O18 0.000000 0.185327 0.653773
#
# Coordination Sequence:
#
# PCOD9483377 Si02
#       7
#     8  16  16  16  16  16  16
#     4  11  26  44  59  79 106 136 178 229 271 313
#     4  10  20  33  52  79 108 136 169 213 264 317
#     4   9  17  27  41  67 104 143 175 206 252 312
#     4  10  18  28  47  72  99 138 178 213 256 308
#     4  10  20  32  50  79 108 133 166 212 266 319
#     4   9  16  28  45  70 105 140 174 210 252 305
#     4  12  21  35  57  75 101 141 181 219 265 315
#
# _framework density 17.869520000000001
#
# number of rings (size 3 to 8) (size 9 to 14) (size 15 to 20)
#    0.000    1.923    3.077    2.308    0.000    3.692 
#    0.000    3.462    0.000    0.462    0.000    0.538 
#    0.000    1.846    0.000    3.385    0.000    0.154 
#
# Total GULP energy -289843.917964 kJ/mol
# GULP energy per Si atom -5573.921499 kJ/mol
# Density = 1.782885 g / cm^3
# Si number density = 17.869520 Si / 1000 Ang^3
#
#
#
# Elastic Constant Matrix: (Units=GPa)
#
#
# Indices 1 2 3 4 5 6 
#
# 1 118.1244 10.1176 35.9025 0.0000 0.0000 0.0000
# 2 10.1176 15.7750 9.4058 0.0000 0.0000 0.0000
# 3 35.9025 9.4058 104.0005 0.0000 0.0000 0.0000
# 4 0.0000 0.0000 0.0000 20.2908 0.0000 0.0000
# 5 0.0000 0.0000 0.0000 0.0000 22.9853 0.0000
# 6 0.0000 0.0000 0.0000 0.0000 0.0000 17.9553
#
#
#
# Elastic Compliance Matrix: (Units=1/GPa)
#
#
# Indices 1 2 3 4 5 6 
#
# 1 0.009750 -0.004488 -0.002960 0.000000 0.000000 0.000000
# 2 -0.004488 0.069071 -0.004697 0.000000 0.000000 0.000000
# 3 -0.002960 -0.004697 0.011062 0.000000 0.000000 0.000000
# 4 0.000000 0.000000 0.000000 0.049283 0.000000 0.000000
# 5 0.000000 0.000000 0.000000 0.000000 0.043506 0.000000
# 6 0.000000 0.000000 0.000000 0.000000 0.000000 0.055694
#
#
# Mechanical properties :
#
#
# Convention : Reuss Voigt Hill
#
# Bulk Modulus (GPa) = 15.24590 38.75021 26.99806
# Shear Modulus (GPa) = 17.57342 24.41120 20.99231
#
# Velocity S-wave (km/s) = 3.13937 3.70006 3.43119
# Velocity P-wave (km/s) = 4.65738 6.32346 5.55326
#
# Compressibility (1/GPa) = 0.06559139
#
# Stress axis : x y z
#
# Youngs Moduli (GPa) = 102.56734 14.47791 90.40010
#
# Poissons Ratio (x) = 0.06498 0.26757
# Poissons Ratio (y) = 0.46036 0.42464
# Poissons Ratio (z) = 0.30358 0.06801
#
# Static dielectric constant tensor:
#      x y z
#    x 1.685820 0.000000 0.000000 
#    y 0.000000 1.612130 0.000000 
#    z 0.000000 0.000000 1.603800 
# 
# From -- ./inp_files/53325.got.cif
#   From: 2010.05.17/outbox.cif.g08.bks.cpg/sg65_27_cif.got.tgz:53325.got - 2010.06.03 17:01:31.
