data_PCOD9483187
_publ_section_title
;
Structure prediction by ZEFSAII (Michael W. Deem and Ramdas Pophale) SiO2 
 PCOD9483187
Probable space group: C M M M
;
_chemical_formula_sum "Si O2"
_cell_formula_units_Z 104
_cell_length_a 14.442485
_cell_length_b 15.981469
_cell_length_c 21.168861
_cell_angle_alpha 90.000000
_cell_angle_beta 90.000000
_cell_angle_gamma 90.000000
_cell_volume 4886.029819
_symmetry_space_group_name_H-M "C M M M"
_symmetry_group_IT_number 65
_symmetry_cell_setting 'orthorhombic'
loop_
_space_group_symop_operation_xyz
x,y,z
-x,-y,z
x,-y,-z
-x,y,-z
-x,-y,-z
x,y,-z
-x,y,z
x,-y,z
1/2+x,1/2+y,z
1/2-x,1/2-y,z
1/2+x,1/2-y,-z
1/2-x,1/2+y,-z
1/2-x,1/2-y,-z
1/2+x,1/2+y,-z
1/2-x,1/2+y,z
1/2+x,1/2-y,z
loop_
_atom_site_type_symbol
_atom_site_label
_atom_site_fract_x
_atom_site_fract_y
_atom_site_fract_z
Si Si1 0.603844 0.399309 0.000000
Si Si2 0.358531 0.586974 0.673246
Si Si3 0.707726 0.602550 0.868792
Si Si4 0.678760 0.174053 0.337030
Si Si5 0.103829 0.224901 0.227751
Si Si6 0.000000 0.119447 0.429715
Si Si7 0.396069 0.101645 0.927786
Si Si8 0.500000 0.180276 0.574176
O O1 0.658264 0.380343 0.063975
O O2 0.596524 0.500000 0.000000
O O3 0.500000 0.363556 0.000000
O O4 0.381055 0.500000 0.706116
O O5 0.249357 0.597657 0.666369
O O6 0.400034 0.662212 0.712576
O O7 0.409617 0.590233 0.607034
O O8 0.699376 0.500000 0.856001
O O9 0.662505 0.668176 0.820504
O O10 0.815391 0.624886 0.879955
O O11 0.750000 0.250000 0.357218
O O12 0.646701 0.196034 0.265178
O O13 0.592491 0.160624 0.384130
O O14 0.000000 0.241137 0.204448
O O15 0.000000 0.219550 0.429467
O O16 0.000000 0.089913 0.500000
O O17 0.500000 0.128230 0.911408
O O18 0.395229 0.000000 0.929745
O O19 0.376214 0.129439 0.000000
O O20 0.500000 0.149879 0.500000
#
# Coordination Sequence:
#
# PCOD9483187 Si02
#       8
#     8  16  16  16  16   8  16   8
#     4   9  16  26  37  65 116 157 187 239 307 378
#     4  11  22  38  61  89 124 160 197 246 305 364
#     4  10  18  27  46  77 114 156 202 251 308 369
#     4  10  20  39  59  86 117 157 200 248 293 349
#     4  11  20  35  56  82 114 159 206 247 293 356
#     4  11  21  36  63  99 132 158 193 251 304 351
#     4   8  13  24  43  65  98 148 199 246 293 348
#     4  11  20  37  65  93 121 159 209 249 283 348
#
# _framework density 21.285174999999999
#
# number of rings (size 3 to 8) (size 9 to 14) (size 15 to 20)
#    0.000    1.923    5.385    1.615    0.000    3.077 
#    0.000    0.385    8.462    0.462    0.000    4.846 
#    0.000    0.000    0.000    0.000    0.000    0.923 
#
# Total GULP energy -289905.184176 kJ/mol
# GULP energy per Si atom -5575.099696 kJ/mol
# Density = 2.123673 g / cm^3
# Si number density = 21.285175 Si / 1000 Ang^3
#
#
#
# Elastic Constant Matrix: (Units=GPa)
#
#
# Indices 1 2 3 4 5 6 
#
# 1 189.4789 18.4577 81.5075 0.0000 0.0000 0.0000
# 2 18.4577 35.2351 18.6900 0.0000 0.0000 0.0000
# 3 81.5075 18.6900 149.4919 0.0000 0.0000 0.0000
# 4 0.0000 0.0000 0.0000 35.2526 0.0000 0.0000
# 5 0.0000 0.0000 0.0000 0.0000 16.2640 0.0000
# 6 0.0000 0.0000 0.0000 0.0000 0.0000 5.7818
#
#
#
# Elastic Compliance Matrix: (Units=1/GPa)
#
#
# Indices 1 2 3 4 5 6 
#
# 1 0.006995 -0.001758 -0.003594 0.000000 0.000000 0.000000
# 2 -0.001758 0.030838 -0.002897 0.000000 0.000000 0.000000
# 3 -0.003594 -0.002897 0.009011 0.000000 0.000000 0.000000
# 4 0.000000 0.000000 0.000000 0.028367 0.000000 0.000000
# 5 0.000000 0.000000 0.000000 0.000000 0.061485 0.000000
# 6 0.000000 0.000000 0.000000 0.000000 0.000000 0.172956
#
#
# Mechanical properties :
#
#
# Convention : Reuss Voigt Hill
#
# Bulk Modulus (GPa) = 32.95287 67.94627 50.44957
# Shear Modulus (GPa) = 14.86920 28.49640 21.68280
#
# Velocity S-wave (km/s) = 2.64592 3.66292 3.19514
# Velocity P-wave (km/s) = 4.98495 7.06261 6.11270
#
# Compressibility (1/GPa) = 0.03034637
#
# Stress axis : x y z
#
# Youngs Moduli (GPa) = 142.96088 32.42721 110.97388
#
# Poissons Ratio (x) = 0.05700 0.39885
# Poissons Ratio (y) = 0.25130 0.32150
# Poissons Ratio (z) = 0.51381 0.09394
#
# Static dielectric constant tensor:
#      x y z
#    x 1.816640 0.000000 0.000000 
#    y 0.000000 1.781360 0.000000 
#    z 0.000000 0.000000 1.777440 
# 
# From -- ./inp_files/62901.got.cif
#   From: 2010.05.17/outbox.cif.g08.bks.cpg/sg65_32_cif.got.tgz:62901.got - 2010.06.03 17:01:31.
