data_PCOD9483028
_publ_section_title
;
Structure prediction by ZEFSAII (Michael W. Deem and Ramdas Pophale) SiO2 
 PCOD9483028
Probable space group: C M M M
;
_chemical_formula_sum "Si O2"
_cell_formula_units_Z 72
_cell_length_a 29.732221
_cell_length_b 8.679903
_cell_length_c 13.900229
_cell_angle_alpha 90.000000
_cell_angle_beta 90.000000
_cell_angle_gamma 90.000000
_cell_volume 3587.270939
_symmetry_space_group_name_H-M "C M M M"
_symmetry_group_IT_number 65
_symmetry_cell_setting 'orthorhombic'
loop_
_space_group_symop_operation_xyz
x,y,z
-x,-y,z
x,-y,-z
-x,y,-z
-x,-y,-z
x,y,-z
-x,y,z
x,-y,z
1/2+x,1/2+y,z
1/2-x,1/2-y,z
1/2+x,1/2-y,-z
1/2-x,1/2+y,-z
1/2-x,1/2-y,-z
1/2+x,1/2+y,-z
1/2-x,1/2+y,z
1/2+x,1/2-y,z
loop_
_atom_site_type_symbol
_atom_site_label
_atom_site_fract_x
_atom_site_fract_y
_atom_site_fract_z
Si Si1 0.672736 0.824563 0.000000
Si Si2 0.051310 0.812179 0.784994
Si Si3 0.922707 0.181489 0.000000
Si Si4 0.790502 0.825930 0.818621
Si Si5 0.301594 0.816934 0.500000
Si Si6 0.365663 0.323652 0.663423
O O1 0.701641 0.785895 0.092705
O O2 0.630455 0.710302 0.000000
O O3 0.656966 0.000000 0.000000
O O4 0.087025 0.758775 0.703967
O O5 0.000000 0.774598 0.760212
O O6 0.055947 0.000000 0.786993
O O7 0.060403 0.758425 0.895679
O O8 0.933694 0.000000 0.000000
O O9 0.750000 0.750000 0.758937
O O10 0.835896 0.831088 0.759393
O O11 0.780088 0.000000 0.847958
O O12 0.250000 0.750000 0.500000
O O13 0.333445 0.764183 0.410899
O O14 0.296637 0.000000 0.500000
O O15 0.372353 0.500000 0.627831
#
# Coordination Sequence:
#
# PCOD9483028 Si02
#       6
#     8  16   8  16   8  16
#     4  12  23  34  51  78 115 159 200 239 287 350
#     4   9  17  32  60  95 125 157 200 249 295 340
#     4  10  17  33  57  87 122 161 205 249 293 338
#     4  11  22  37  56  81 113 152 194 242 295 352
#     4  12  26  44  67  92 119 153 194 243 303 366
#     4  10  21  39  63  90 120 152 194 247 298 354
#
# _framework density 20.070965999999999
#
# number of rings (size 3 to 8) (size 9 to 14) (size 15 to 20)
#    0.000    1.556    2.222    4.000    0.000    4.889 
#    0.000    0.556    0.000    6.667    0.000    0.000 
#    0.000    0.000    0.000    0.000    0.000    0.000 
#
# Total GULP energy -200645.874150 kJ/mol
# GULP energy per Si atom -5573.496504 kJ/mol
# Density = 2.002528 g / cm^3
# Si number density = 20.070966 Si / 1000 Ang^3
#
#
#
# Elastic Constant Matrix: (Units=GPa)
#
#
# Indices 1 2 3 4 5 6 
#
# 1 164.1444 18.2763 53.7200 0.0000 0.0000 0.0000
# 2 18.2763 49.7699 33.3550 0.0000 0.0000 0.0000
# 3 53.7200 33.3550 95.7062 0.0000 0.0000 0.0000
# 4 0.0000 0.0000 0.0000 20.5334 0.0000 0.0000
# 5 0.0000 0.0000 0.0000 0.0000 29.6462 0.0000
# 6 0.0000 0.0000 0.0000 0.0000 0.0000 17.5414
#
#
#
# Elastic Compliance Matrix: (Units=1/GPa)
#
#
# Indices 1 2 3 4 5 6 
#
# 1 0.007463 0.000087 -0.004220 0.000000 0.000000 0.000000
# 2 0.000087 0.026217 -0.009186 0.000000 0.000000 0.000000
# 3 -0.004220 -0.009186 0.016019 0.000000 0.000000 0.000000
# 4 0.000000 0.000000 0.000000 0.048701 0.000000 0.000000
# 5 0.000000 0.000000 0.000000 0.000000 0.033731 0.000000
# 6 0.000000 0.000000 0.000000 0.000000 0.000000 0.057008
#
#
# Mechanical properties :
#
#
# Convention : Reuss Voigt Hill
#
# Bulk Modulus (GPa) = 43.36114 57.81369 50.58741
# Shear Modulus (GPa) = 22.37506 27.16213 24.76859
#
# Velocity S-wave (km/s) = 3.34248 3.68272 3.51672
# Velocity P-wave (km/s) = 6.04542 6.85204 6.46133
#
# Compressibility (1/GPa) = 0.02306212
#
# Stress axis : x y z
#
# Youngs Moduli (GPa) = 133.98602 38.14366 62.42758
#
# Poissons Ratio (x) = -0.00333 0.26342
# Poissons Ratio (y) = -0.01169 0.57345
# Poissons Ratio (z) = 0.56538 0.35038
#
# Static dielectric constant tensor:
#      x y z
#    x 1.725550 0.000000 0.000000 
#    y 0.000000 1.719420 0.000000 
#    z 0.000000 0.000000 1.747170 
# 
# From -- ./inp_files/46576.got.cif
#   From: 2010.05.17/outbox.cif.g08.bks.cpg/sg65_24_cif.got.tgz:46576.got - 2010.06.03 17:01:31.
