data_PCOD9483727
_publ_section_title
;
Structure prediction by ZEFSAII (Michael W. Deem and Ramdas Pophale) SiO2 
 PCOD9483727
Probable space group: C M M M
;
_chemical_formula_sum "Si O2"
_cell_formula_units_Z 88
_cell_length_a 20.434339
_cell_length_b 30.836195
_cell_length_c 7.883109
_cell_angle_alpha 90.000000
_cell_angle_beta 90.000000
_cell_angle_gamma 90.000000
_cell_volume 4967.283060
_symmetry_space_group_name_H-M "C M M M"
_symmetry_group_IT_number 65
_symmetry_cell_setting 'orthorhombic'
loop_
_space_group_symop_operation_xyz
x,y,z
-x,-y,z
x,-y,-z
-x,y,-z
-x,-y,-z
x,y,-z
-x,y,z
x,-y,z
1/2+x,1/2+y,z
1/2-x,1/2-y,z
1/2+x,1/2-y,-z
1/2-x,1/2+y,-z
1/2-x,1/2-y,-z
1/2+x,1/2+y,-z
1/2-x,1/2+y,z
1/2+x,1/2-y,z
loop_
_atom_site_type_symbol
_atom_site_label
_atom_site_fract_x
_atom_site_fract_y
_atom_site_fract_z
Si Si1 0.113674 0.403208 0.698940
Si Si2 0.000000 0.951290 0.198678
Si Si3 0.637491 0.415315 0.696624
Si Si4 0.749689 0.856523 0.300400
Si Si5 0.073695 0.338724 0.000000
Si Si6 0.285963 0.500000 0.801732
Si Si7 0.635425 0.000000 0.704284
Si Si8 0.708964 0.794328 0.000000
O O1 0.093971 0.396873 0.500000
O O2 0.191684 0.392580 0.706453
O O3 0.083391 0.369886 0.834533
O O4 0.102782 0.453691 0.747491
O O5 0.065607 0.925414 0.239230
O O6 0.000000 0.000000 0.278822
O O7 0.000000 0.957371 0.000000
O O8 0.631035 0.405873 0.500000
O O9 0.682569 0.376921 0.765977
O O10 0.680640 0.458251 0.720996
O O11 0.754401 0.843917 0.500000
O O12 0.729639 0.819242 0.171702
O O13 0.129660 0.301413 0.000000
O O14 0.000000 0.321528 0.000000
O O15 0.208395 0.500000 0.778739
O O16 0.302568 0.500000 0.000000
O O17 0.641869 0.000000 0.500000
O O18 0.750000 0.750000 0.000000
#
# Coordination Sequence:
#
# PCOD9483727 Si02
#       8
#    16   8  16  16   8   8   8   8
#     4   9  18  32  52  81 114 150 189 227 263 305
#     4  11  23  33  43  67 104 150 202 242 272 318
#     4  11  21  34  49  69 103 147 190 235 281 327
#     4   9  19  34  57  85 111 138 179 230 279 331
#     4  10  22  39  60  84 113 144 180 221 266 332
#     4  12  22  25  45  74 105 145 188 244 283 314
#     4  10  18  30  47  74 110 147 191 232 267 302
#     4  10  22  40  67  91 111 135 171 222 286 348
#
# _framework density 17.715921000000002
#
# number of rings (size 3 to 8) (size 9 to 14) (size 15 to 20)
#    0.000    1.909    2.727    1.636    3.818    1.091 
#    0.000    0.909    2.000    1.636    0.000    0.000 
#    0.000    0.000    0.000    0.000    0.000    0.000 
#
# Total GULP energy -245183.371367 kJ/mol
# GULP energy per Si atom -5572.349349 kJ/mol
# Density = 1.767560 g / cm^3
# Si number density = 17.715921 Si / 1000 Ang^3
#
#
#
# Elastic Constant Matrix: (Units=GPa)
#
#
# Indices 1 2 3 4 5 6 
#
# 1 108.8128 34.3419 25.8458 0.0000 0.0000 0.0000
# 2 34.3419 76.8693 25.6386 0.0000 0.0000 0.0000
# 3 25.8458 25.6386 53.8009 0.0000 0.0000 0.0000
# 4 0.0000 0.0000 0.0000 17.1865 0.0000 0.0000
# 5 0.0000 0.0000 0.0000 0.0000 16.6118 0.0000
# 6 0.0000 0.0000 0.0000 0.0000 0.0000 14.2000
#
#
#
# Elastic Compliance Matrix: (Units=1/GPa)
#
#
# Indices 1 2 3 4 5 6 
#
# 1 0.011249 -0.003832 -0.003578 0.000000 0.000000 0.000000
# 2 -0.003832 0.016773 -0.006152 0.000000 0.000000 0.000000
# 3 -0.003578 -0.006152 0.023238 0.000000 0.000000 0.000000
# 4 0.000000 0.000000 0.000000 0.058185 0.000000 0.000000
# 5 0.000000 0.000000 0.000000 0.000000 0.060198 0.000000
# 6 0.000000 0.000000 0.000000 0.000000 0.000000 0.070423
#
#
# Mechanical properties :
#
#
# Convention : Reuss Voigt Hill
#
# Bulk Modulus (GPa) = 41.43286 45.68173 43.55729
# Shear Modulus (GPa) = 18.16620 19.84343 19.00481
#
# Velocity S-wave (km/s) = 3.20569 3.35041 3.27884
# Velocity P-wave (km/s) = 6.09426 6.38816 6.24294
#
# Compressibility (1/GPa) = 0.02413543
#
# Stress axis : x y z
#
# Youngs Moduli (GPa) = 88.89310 59.61891 43.03370
#
# Poissons Ratio (x) = 0.22849 0.15397
# Poissons Ratio (y) = 0.34068 0.26475
# Poissons Ratio (z) = 0.31805 0.36678
#
# Static dielectric constant tensor:
#      x y z
#    x 1.556720 0.000000 0.000000 
#    y 0.000000 1.610520 0.000000 
#    z 0.000000 0.000000 1.613530 
# 
# From -- ./inp_files/10236.got.cif
#   From: 2010.05.17/outbox.cif.g08.bks.cpg/sg65_6_cif.got.tgz:10236.got - 2010.06.03 17:01:31.
