data_PCOD9483793
_publ_section_title
;
Structure prediction by ZEFSAII (Michael W. Deem and Ramdas Pophale) SiO2 
 PCOD9483793
Probable space group: C M M M
;
_chemical_formula_sum "Si O2"
_cell_formula_units_Z 80
_cell_length_a 14.459088
_cell_length_b 9.245632
_cell_length_c 26.815876
_cell_angle_alpha 90.000000
_cell_angle_beta 90.000000
_cell_angle_gamma 90.000000
_cell_volume 3584.837657
_symmetry_space_group_name_H-M "C M M M"
_symmetry_group_IT_number 65
_symmetry_cell_setting 'orthorhombic'
loop_
_space_group_symop_operation_xyz
x,y,z
-x,-y,z
x,-y,-z
-x,y,-z
-x,-y,-z
x,y,-z
-x,y,z
x,-y,z
1/2+x,1/2+y,z
1/2-x,1/2-y,z
1/2+x,1/2-y,-z
1/2-x,1/2+y,-z
1/2-x,1/2-y,-z
1/2+x,1/2+y,-z
1/2-x,1/2+y,z
1/2+x,1/2-y,z
loop_
_atom_site_type_symbol
_atom_site_label
_atom_site_fract_x
_atom_site_fract_y
_atom_site_fract_z
Si Si1 0.886937 0.164300 0.000000
Si Si2 0.612978 0.163863 0.098627
Si Si3 0.349577 0.825693 0.402539
Si Si4 0.853167 0.823810 0.500000
Si Si5 0.107954 0.340698 0.289045
Si Si6 0.386795 0.662145 0.803607
O O1 0.858976 0.246113 0.050185
O O2 0.000000 0.161774 0.000000
O O3 0.854172 0.000000 0.000000
O O4 0.500000 0.161132 0.098430
O O5 0.640505 0.237310 0.150409
O O6 0.645984 0.000000 0.095462
O O7 0.250000 0.750000 0.398508
O O8 0.394928 0.742437 0.449251
O O9 0.389533 0.803472 0.347444
O O10 0.345607 0.000000 0.411985
O O11 0.750000 0.750000 0.500000
O O12 0.850269 0.000000 0.500000
O O13 0.151554 0.500000 0.283343
O O14 0.143994 0.225838 0.249538
O O15 0.000000 0.354216 0.276268
O O16 0.500000 0.656479 0.804050
O O17 0.352941 0.500000 0.810883
#
# Coordination Sequence:
#
# PCOD9483793 Si02
#       6
#     8  16  16   8  16  16
#     4   9  15  21  29  43  65  93 130 177 222 261
#     4   9  15  22  32  46  67  98 136 175 215 262
#     4  10  19  32  51  72  94 119 149 185 223 265
#     4  10  18  30  49  70  93 119 149 183 219 264
#     4   9  18  32  48  66  89 119 153 186 221 264
#     4   9  16  25  38  56  78 106 140 178 219 262
#
# _framework density 22.316212
#
# number of rings (size 3 to 8) (size 9 to 14) (size 15 to 20)
#    0.000    2.700    0.000    4.200    0.000    7.600 
#    0.000    0.500    0.000    3.000    0.000    0.000 
#    0.000    0.000    0.000    0.900    0.000   13.200 
#
# Total GULP energy -223257.874825 kJ/mol
# GULP energy per Si atom -5581.446871 kJ/mol
# Density = 2.226542 g / cm^3
# Si number density = 22.316212 Si / 1000 Ang^3
#
#
#
# Elastic Constant Matrix: (Units=GPa)
#
#
# Indices 1 2 3 4 5 6 
#
# 1 56.8799 9.7728 -6.3902 0.0000 0.0000 0.0000
# 2 9.7728 220.3929 138.2015 0.0000 0.0000 0.0000
# 3 -6.3902 138.2015 183.4143 0.0000 0.0000 0.0000
# 4 0.0000 0.0000 0.0000 61.3060 0.0000 0.0000
# 5 0.0000 0.0000 0.0000 0.0000 13.7829 0.0000
# 6 0.0000 0.0000 0.0000 0.0000 0.0000 2.5326
#
#
#
# Elastic Compliance Matrix: (Units=1/GPa)
#
#
# Indices 1 2 3 4 5 6 
#
# 1 0.018239 -0.002289 0.002360 0.000000 0.000000 0.000000
# 2 -0.002289 0.008889 -0.006777 0.000000 0.000000 0.000000
# 3 0.002360 -0.006777 0.010641 0.000000 0.000000 0.000000
# 4 0.000000 0.000000 0.000000 0.016312 0.000000 0.000000
# 5 0.000000 0.000000 0.000000 0.000000 0.072554 0.000000
# 6 0.000000 0.000000 0.000000 0.000000 0.000000 0.394858
#
#
# Mechanical properties :
#
#
# Convention : Reuss Voigt Hill
#
# Bulk Modulus (GPa) = 41.05605 82.65059 61.85332
# Shear Modulus (GPa) = 9.20771 36.79781 23.00276
#
# Velocity S-wave (km/s) = 2.03346 4.06510 3.21404
# Velocity P-wave (km/s) = 4.89394 7.69090 6.44595
#
# Compressibility (1/GPa) = 0.02435695
#
# Stress axis : x y z
#
# Youngs Moduli (GPa) = 54.82682 112.50287 93.97611
#
# Poissons Ratio (x) = 0.25747 -0.22178
# Poissons Ratio (y) = 0.12548 0.63690
# Poissons Ratio (z) = -0.12939 0.76246
#
# Static dielectric constant tensor:
#      x y z
#    x 1.944140 0.000000 0.000000 
#    y 0.000000 1.782170 0.000000 
#    z 0.000000 0.000000 1.822390 
# 
# From -- ./inp_files/71363.got.cif
#   From: 2010.05.17/outbox.cif.g08.bks.cpg/sg65_36_cif.got.tgz:71363.got - 2010.06.03 17:01:31.
