data_PCOD9483554
_publ_section_title
;
Structure prediction by ZEFSAII (Michael W. Deem and Ramdas Pophale) SiO2 
 PCOD9483554
Probable space group: C M M M
;
_chemical_formula_sum "Si O2"
_cell_formula_units_Z 88
_cell_length_a 19.097710
_cell_length_b 8.034186
_cell_length_c 29.862646
_cell_angle_alpha 90.000000
_cell_angle_beta 90.000000
_cell_angle_gamma 90.000000
_cell_volume 4581.961780
_symmetry_space_group_name_H-M "C M M M"
_symmetry_group_IT_number 65
_symmetry_cell_setting 'orthorhombic'
loop_
_space_group_symop_operation_xyz
x,y,z
-x,-y,z
x,-y,-z
-x,y,-z
-x,-y,-z
x,y,-z
-x,y,z
x,-y,z
1/2+x,1/2+y,z
1/2-x,1/2-y,z
1/2+x,1/2-y,-z
1/2-x,1/2+y,-z
1/2-x,1/2-y,-z
1/2+x,1/2+y,-z
1/2-x,1/2+y,z
1/2+x,1/2-y,z
loop_
_atom_site_type_symbol
_atom_site_label
_atom_site_fract_x
_atom_site_fract_y
_atom_site_fract_z
Si Si1 0.419410 0.295721 0.364982
Si Si2 0.831243 0.197253 0.280207
Si Si3 0.831413 0.298836 0.085785
Si Si4 0.580804 0.795996 0.000000
Si Si5 0.830048 0.799202 0.550338
Si Si6 0.668393 0.198388 0.183644
O O1 0.500000 0.244136 0.363581
O O2 0.418411 0.500000 0.364783
O O3 0.376560 0.236445 0.321515
O O4 0.380834 0.240504 0.410350
O O5 0.750000 0.250000 0.283390
O O6 0.860814 0.241532 0.231047
O O7 0.831530 0.000000 0.283370
O O8 0.833898 0.500000 0.085945
O O9 0.750000 0.250000 0.080273
O O10 0.857457 0.240930 0.135004
O O11 0.877965 0.239961 0.044372
O O12 0.500000 0.744376 0.000000
O O13 0.581709 0.000000 0.000000
O O14 0.847351 0.739293 0.500000
O O15 0.750000 0.750000 0.560033
O O16 0.833488 0.000000 0.549654
O O17 0.750000 0.250000 0.184276
O O18 0.664047 0.000000 0.183960
#
# Coordination Sequence:
#
# PCOD9483554 Si02
#       6
#    16  16  16   8  16  16
#     4   9  18  31  46  67  94 122 154 189 223 264
#     4  10  18  29  48  69  90 119 152 187 226 266
#     4   9  17  29  48  71  91 116 149 186 226 265
#     4   9  17  30  47  67  92 121 152 182 218 269
#     4   9  17  30  50  73  94 118 149 187 229 270
#     4   9  16  27  44  68  94 116 146 187 227 266
#
# _framework density 19.205746999999999
#
# number of rings (size 3 to 8) (size 9 to 14) (size 15 to 20)
#    0.000    2.818    0.000    3.000    0.000    1.091 
#    0.000    3.636    0.000    7.091    0.000    2.545 
#    0.000    0.000    0.000    0.000    0.000    0.000 
#
# Total GULP energy -245227.369422 kJ/mol
# GULP energy per Si atom -5573.349305 kJ/mol
# Density = 1.916203 g / cm^3
# Si number density = 19.205747 Si / 1000 Ang^3
#
#
#
# Elastic Constant Matrix: (Units=GPa)
#
#
# Indices 1 2 3 4 5 6 
#
# 1 103.3653 5.7187 116.7383 0.0000 0.0000 0.0000
# 2 5.7187 16.0755 15.3104 0.0000 0.0000 0.0000
# 3 116.7383 15.3104 228.2915 0.0000 0.0000 0.0000
# 4 0.0000 0.0000 0.0000 60.3698 0.0000 0.0000
# 5 0.0000 0.0000 0.0000 0.0000 -3.1433 0.0000
# 6 0.0000 0.0000 0.0000 0.0000 0.0000 12.5908
#
#
#
# Elastic Compliance Matrix: (Units=1/GPa)
#
#
# Indices 1 2 3 4 5 6 
#
# 1 0.023055 0.003233 -0.012006 0.000000 0.000000 0.000000
# 2 0.003233 0.066904 -0.006140 0.000000 0.000000 0.000000
# 3 -0.012006 -0.006140 0.010932 0.000000 0.000000 0.000000
# 4 0.000000 0.000000 0.000000 0.016565 0.000000 0.000000
# 5 0.000000 0.000000 0.000000 0.000000 -0.318136 0.000000
# 6 0.000000 0.000000 0.000000 0.000000 0.000000 0.079423
#
#
# Mechanical properties :
#
#
# Convention : Reuss Voigt Hill
#
# Bulk Modulus (GPa) = 14.07176 69.25189 41.66183
# Shear Modulus (GPa) = -73.80821 27.96111 -22.92355
#
# Velocity S-wave (km/s) = -6.20594 3.81973 -3.45857
# Velocity P-wave (km/s) = 6.63392 7.45587 2.40636
#
# Compressibility (1/GPa) = 0.07106429
#
# Stress axis : x y z
#
# Youngs Moduli (GPa) = 43.37450 14.94676 91.47809
#
# Poissons Ratio (x) = -0.04833 1.09830
# Poissons Ratio (y) = -0.14024 0.56170
# Poissons Ratio (z) = 0.52076 0.09178
#
# Static dielectric constant tensor:
#      x y z
#    x 1.624030 0.000000 0.000000 
#    y 0.000000 1.683850 0.000000 
#    z 0.000000 0.000000 1.721460 
# 
# From -- ./inp_files/77837.got.cif
#   From: 2010.05.17/outbox.cif.g08.bks.cpg/sg65_39_cif.got.tgz:77837.got - 2010.06.03 17:01:31.
