data_PCOD9483276
_publ_section_title
;
Structure prediction by ZEFSAII (Michael W. Deem and Ramdas Pophale) SiO2 
 PCOD9483276
Probable space group: C M M M
;
_chemical_formula_sum "Si O2"
_cell_formula_units_Z 120
_cell_length_a 21.840202
_cell_length_b 15.520046
_cell_length_c 21.241789
_cell_angle_alpha 90.000000
_cell_angle_beta 90.000000
_cell_angle_gamma 90.000000
_cell_volume 7200.136760
_symmetry_space_group_name_H-M "C M M M"
_symmetry_group_IT_number 65
_symmetry_cell_setting 'orthorhombic'
loop_
_space_group_symop_operation_xyz
x,y,z
-x,-y,z
x,-y,-z
-x,y,-z
-x,-y,-z
x,y,-z
-x,y,z
x,-y,z
1/2+x,1/2+y,z
1/2-x,1/2-y,z
1/2+x,1/2-y,-z
1/2-x,1/2+y,-z
1/2-x,1/2-y,-z
1/2+x,1/2+y,-z
1/2-x,1/2+y,z
1/2+x,1/2-y,z
loop_
_atom_site_type_symbol
_atom_site_label
_atom_site_fract_x
_atom_site_fract_y
_atom_site_fract_z
Si Si1 0.430504 0.101382 0.750711
Si Si2 0.500000 0.898446 0.575009
Si Si3 0.153411 0.400828 0.869329
Si Si4 0.119318 0.687147 0.367361
Si Si5 0.177776 0.228662 0.931027
Si Si6 0.697819 0.325417 0.317472
Si Si7 0.293830 0.399193 0.821988
Si Si8 0.768587 0.598755 0.429554
O O1 0.500000 0.137160 0.745691
O O2 0.399630 0.112541 0.818192
O O3 0.384203 0.137087 0.698846
O O4 0.434792 0.000000 0.739777
O O5 0.500000 0.901280 0.500000
O O6 0.558001 0.844814 0.599329
O O7 0.500000 0.000000 0.596653
O O8 0.150305 0.500000 0.893311
O O9 0.148321 0.321794 0.917294
O O10 0.220430 0.392016 0.836000
O O11 0.135696 0.782730 0.344171
O O12 0.174155 0.658396 0.412638
O O13 0.250000 0.250000 0.933629
O O14 0.172505 0.161372 0.873461
O O15 0.159377 0.194897 0.000000
O O16 0.750000 0.250000 0.311908
O O17 0.693090 0.367622 0.248930
O O18 0.721739 0.387329 0.372687
O O19 0.309534 0.500000 0.829151
O O20 0.745011 0.618121 0.500000
O O21 0.789882 0.500000 0.429031
#
# Coordination Sequence:
#
# PCOD9483276 Si02
#       8
#    16   8  16  16  16  16  16  16
#     4  10  18  28  44  65  92 125 166 208 240 279
#     4  11  22  34  48  68  97 133 168 199 239 301
#     4   9  17  28  45  69  99 136 168 199 245 300
#     4  11  20  31  47  68  97 130 164 205 250 299
#     4   9  17  29  45  68 100 132 164 202 244 301
#     4  10  20  31  48  70  97 129 163 207 258 305
#     4  10  18  30  48  71  99 129 166 207 252 306
#     4  10  20  33  49  70  97 130 167 206 252 308
#
# _framework density 16.666350000000001
#
# number of rings (size 3 to 8) (size 9 to 14) (size 15 to 20)
#    0.000    2.067    0.667    5.600    0.000    5.600 
#    0.000    2.667    0.000    0.400    0.000    3.733 
#    0.000    3.200    0.000    2.933    0.000    2.133 
#
# Total GULP energy -334048.172518 kJ/mol
# GULP energy per Si atom -5567.469542 kJ/mol
# Density = 1.662842 g / cm^3
# Si number density = 16.666350 Si / 1000 Ang^3
#
#
#
# Elastic Constant Matrix: (Units=GPa)
#
#
# Indices 1 2 3 4 5 6 
#
# 1 26.6639 11.0261 16.8708 0.0000 0.0000 0.0000
# 2 11.0261 64.9850 56.5259 0.0000 0.0000 0.0000
# 3 16.8708 56.5259 112.7387 0.0000 0.0000 0.0000
# 4 0.0000 0.0000 0.0000 16.6528 0.0000 0.0000
# 5 0.0000 0.0000 0.0000 0.0000 28.5432 0.0000
# 6 0.0000 0.0000 0.0000 0.0000 0.0000 14.9907
#
#
#
# Elastic Compliance Matrix: (Units=1/GPa)
#
#
# Indices 1 2 3 4 5 6 
#
# 1 0.041737 -0.002924 -0.004780 0.000000 0.000000 0.000000
# 2 -0.002924 0.027495 -0.013348 0.000000 0.000000 0.000000
# 3 -0.004780 -0.013348 0.016278 0.000000 0.000000 0.000000
# 4 0.000000 0.000000 0.000000 0.060050 0.000000 0.000000
# 5 0.000000 0.000000 0.000000 0.000000 0.035035 0.000000
# 6 0.000000 0.000000 0.000000 0.000000 0.000000 0.066708
#
#
# Mechanical properties :
#
#
# Convention : Reuss Voigt Hill
#
# Bulk Modulus (GPa) = 23.03809 41.47036 32.25423
# Shear Modulus (GPa) = 16.45413 20.03499 18.24456
#
# Velocity S-wave (km/s) = 3.14549 3.47092 3.31221
# Velocity P-wave (km/s) = 5.20051 6.40311 5.83288
#
# Compressibility (1/GPa) = 0.04340638
#
# Stress axis : x y z
#
# Youngs Moduli (GPa) = 23.95938 36.37054 61.43309
#
# Poissons Ratio (x) = 0.10635 0.29363
# Poissons Ratio (y) = 0.07006 0.82001
# Poissons Ratio (z) = 0.11452 0.48547
#
# Static dielectric constant tensor:
#      x y z
#    x 1.558640 0.000000 0.000000 
#    y 0.000000 1.606260 0.000000 
#    z 0.000000 0.000000 1.591650 
# 
# From -- ./inp_files/65574.got.cif
#   From: 2010.05.17/outbox.cif.g08.bks.cpg/sg65_33_cif.got.tgz:65574.got - 2010.06.03 17:01:31.
