data_PCOD9483901
_publ_section_title
;
Structure prediction by ZEFSAII (Michael W. Deem and Ramdas Pophale) SiO2 
 PCOD9483901
Probable space group: C M M M
;
_chemical_formula_sum "Si O2"
_cell_formula_units_Z 104
_cell_length_a 8.532255
_cell_length_b 26.099273
_cell_length_c 25.024604
_cell_angle_alpha 90.000000
_cell_angle_beta 90.000000
_cell_angle_gamma 90.000000
_cell_volume 5572.620272
_symmetry_space_group_name_H-M "C M M M"
_symmetry_group_IT_number 65
_symmetry_cell_setting 'orthorhombic'
loop_
_space_group_symop_operation_xyz
x,y,z
-x,-y,z
x,-y,-z
-x,y,-z
-x,-y,-z
x,y,-z
-x,y,z
x,-y,z
1/2+x,1/2+y,z
1/2-x,1/2-y,z
1/2+x,1/2-y,-z
1/2-x,1/2+y,-z
1/2-x,1/2-y,-z
1/2+x,1/2+y,-z
1/2-x,1/2+y,z
1/2+x,1/2-y,z
loop_
_atom_site_type_symbol
_atom_site_label
_atom_site_fract_x
_atom_site_fract_y
_atom_site_fract_z
Si Si1 0.313000 0.692319 0.112708
Si Si2 0.312471 0.191908 0.000000
Si Si3 0.191180 0.500000 0.438276
Si Si4 0.187611 0.193504 0.438641
Si Si5 0.312308 0.585404 0.851911
Si Si6 0.810298 0.599684 0.628615
Si Si7 0.683027 0.058609 0.738497
Si Si8 0.808355 0.000000 0.937171
O O1 0.500000 0.696835 0.113210
O O2 0.250000 0.750000 0.122197
O O3 0.258118 0.671833 0.054658
O O4 0.259149 0.644956 0.149004
O O5 0.250000 0.250000 0.000000
O O6 0.500000 0.190409 0.000000
O O7 0.242582 0.500000 0.500000
O O8 0.241453 0.550990 0.406895
O O9 0.000000 0.500000 0.438386
O O10 0.236741 0.181860 0.500000
O O11 0.250000 0.250000 0.425699
O O12 0.253637 0.151059 0.399181
O O13 0.000000 0.193662 0.436762
O O14 0.500000 0.586552 0.857031
O O15 0.267814 0.562403 0.794931
O O16 0.257260 0.549487 0.901443
O O17 0.755798 0.592921 0.689801
O O18 0.000000 0.598700 0.629884
O O19 0.500000 0.070644 0.748020
O O20 0.690566 0.000000 0.718867
O O21 0.000000 0.000000 0.938045
O O22 0.758523 0.000000 0.000000
#
# Coordination Sequence:
#
# PCOD9483901 Si02
#       8
#    16   8   8  16  16  16  16   8
#     4  10  20  34  53  78 107 139 176 219 265 321
#     4  10  18  30  50  75 104 139 173 209 257 317
#     4   9  16  27  49  81 113 143 178 221 268 322
#     4  10  21  37  57  83 116 154 194 237 285 335
#     4  10  21  36  58  82 106 142 188 231 276 332
#     4  10  19  34  56  83 112 148 192 231 275 328
#     4  10  20  36  57  81 112 147 184 229 277 331
#     4   9  18  33  55  81 107 137 178 229 280 333
#
# _framework density 18.662675
#
# number of rings (size 3 to 8) (size 9 to 14) (size 15 to 20)
#    0.000    2.154    1.538    3.000    1.077    3.385 
#    0.000    1.154    0.000    3.692    0.000    0.000 
#    0.000    0.000    0.000    0.000    0.000    0.000 
#
# Total GULP energy -289837.715933 kJ/mol
# GULP energy per Si atom -5573.802229 kJ/mol
# Density = 1.862020 g / cm^3
# Si number density = 18.662675 Si / 1000 Ang^3
#
#
#
# Elastic Constant Matrix: (Units=GPa)
#
#
# Indices 1 2 3 4 5 6 
#
# 1 15.6440 20.0734 9.6971 0.0000 0.0000 0.0000
# 2 20.0734 116.8973 66.5418 0.0000 0.0000 0.0000
# 3 9.6971 66.5418 120.0726 0.0000 0.0000 0.0000
# 4 0.0000 0.0000 0.0000 30.9948 0.0000 0.0000
# 5 0.0000 0.0000 0.0000 0.0000 21.7331 0.0000
# 6 0.0000 0.0000 0.0000 0.0000 0.0000 18.4710
#
#
#
# Elastic Compliance Matrix: (Units=1/GPa)
#
#
# Indices 1 2 3 4 5 6 
#
# 1 0.082233 -0.015106 0.001730 0.000000 0.000000 0.000000
# 2 -0.015106 0.015272 -0.007243 0.000000 0.000000 0.000000
# 3 0.001730 -0.007243 0.012203 0.000000 0.000000 0.000000
# 4 0.000000 0.000000 0.000000 0.032263 0.000000 0.000000
# 5 0.000000 0.000000 0.000000 0.000000 0.046013 0.000000
# 6 0.000000 0.000000 0.000000 0.000000 0.000000 0.054139
#
#
# Mechanical properties :
#
#
# Convention : Reuss Voigt Hill
#
# Bulk Modulus (GPa) = 14.60511 49.47094 32.03802
# Shear Modulus (GPa) = 16.33012 24.65988 20.49500
#
# Velocity S-wave (km/s) = 2.96127 3.63898 3.31748
# Velocity P-wave (km/s) = 4.41984 6.64994 5.64609
#
# Compressibility (1/GPa) = 0.06846920
#
# Stress axis : x y z
#
# Youngs Moduli (GPa) = 12.16062 65.48124 81.94965
#
# Poissons Ratio (x) = 0.98914 -0.14179
# Poissons Ratio (y) = 0.18370 0.59358
# Poissons Ratio (z) = -0.02104 0.47430
#
# Static dielectric constant tensor:
#      x y z
#    x 1.640940 0.000000 0.000000 
#    y 0.000000 1.643480 0.000000 
#    z 0.000000 0.000000 1.664190 
# 
# From -- ./inp_files/68295.got.cif
#   From: 2010.05.17/outbox.cif.g08.bks.cpg/sg65_35_cif.got.tgz:68295.got - 2010.06.03 17:01:31.
