data_PCOD9483947
_publ_section_title
;
Structure prediction by ZEFSAII (Michael W. Deem and Ramdas Pophale) SiO2 
 PCOD9483947
Probable space group: C M M M
;
_chemical_formula_sum "Si O2"
_cell_formula_units_Z 80
_cell_length_a 26.819418
_cell_length_b 18.625872
_cell_length_c 9.171813
_cell_angle_alpha 90.000000
_cell_angle_beta 90.000000
_cell_angle_gamma 90.000000
_cell_volume 4581.642036
_symmetry_space_group_name_H-M "C M M M"
_symmetry_group_IT_number 65
_symmetry_cell_setting 'orthorhombic'
loop_
_space_group_symop_operation_xyz
x,y,z
-x,-y,z
x,-y,-z
-x,y,-z
-x,-y,-z
x,y,-z
-x,y,z
x,-y,z
1/2+x,1/2+y,z
1/2-x,1/2-y,z
1/2+x,1/2-y,-z
1/2-x,1/2+y,-z
1/2-x,1/2-y,-z
1/2+x,1/2+y,-z
1/2-x,1/2+y,z
1/2+x,1/2-y,z
loop_
_atom_site_type_symbol
_atom_site_label
_atom_site_fract_x
_atom_site_fract_y
_atom_site_fract_z
Si Si1 0.192826 0.413444 0.169935
Si Si2 0.000000 0.664156 0.173990
Si Si3 0.609256 0.669697 0.670695
Si Si4 0.399173 0.841497 0.327686
Si Si5 0.195347 0.083020 0.824415
Si Si6 0.000000 0.818597 0.674380
O O1 0.191014 0.500000 0.175133
O O2 0.149412 0.380343 0.266139
O O3 0.248804 0.392571 0.218473
O O4 0.186209 0.392187 0.000000
O O5 0.948927 0.634037 0.242534
O O6 0.000000 0.746966 0.228671
O O7 0.000000 0.659019 0.000000
O O8 0.619239 0.657388 0.500000
O O9 0.607841 0.755654 0.694686
O O10 0.651627 0.631612 0.762597
O O11 0.552648 0.643204 0.701941
O O12 0.405648 0.853309 0.500000
O O13 0.188768 0.000000 0.777868
O O14 0.194516 0.083984 0.000000
O O15 0.000000 0.798270 0.500000
#
# Coordination Sequence:
#
# PCOD9483947 Si02
#       6
#    16   8  16  16  16   8
#     4   9  19  36  54  72  98 132 168 206 250 298
#     4  10  18  30  51  76 101 132 167 200 243 296
#     4   9  18  32  51  74 100 131 166 204 245 295
#     4  10  20  34  52  76 105 132 163 205 249 293
#     4   9  19  35  52  71  99 133 167 207 253 297
#     4   8  16  32  49  70 103 135 163 202 251 295
#
# _framework density 17.460989000000001
#
# number of rings (size 3 to 8) (size 9 to 14) (size 15 to 20)
#    0.000    2.800    0.000    3.900    0.000    6.400 
#    0.000    7.000    0.000    6.000    0.000    0.000 
#    0.000    0.000    0.000    0.000    0.000    0.000 
#
# Total GULP energy -222902.948419 kJ/mol
# GULP energy per Si atom -5572.573710 kJ/mol
# Density = 1.742125 g / cm^3
# Si number density = 17.460989 Si / 1000 Ang^3
#
#
#
# Elastic Constant Matrix: (Units=GPa)
#
#
# Indices 1 2 3 4 5 6 
#
# 1 182.1143 41.3649 74.7210 0.0000 0.0000 0.0000
# 2 41.3649 13.4086 24.9778 0.0000 0.0000 0.0000
# 3 74.7210 24.9778 66.2007 0.0000 0.0000 0.0000
# 4 0.0000 0.0000 0.0000 18.1225 0.0000 0.0000
# 5 0.0000 0.0000 0.0000 0.0000 24.8948 0.0000
# 6 0.0000 0.0000 0.0000 0.0000 0.0000 120.0450
#
#
#
# Elastic Compliance Matrix: (Units=1/GPa)
#
#
# Indices 1 2 3 4 5 6 
#
# 1 0.018441 -0.060965 0.002188 0.000000 0.000000 0.000000
# 2 -0.060965 0.452532 -0.101931 0.000000 0.000000 0.000000
# 3 0.002188 -0.101931 0.051095 0.000000 0.000000 0.000000
# 4 0.000000 0.000000 0.000000 0.055180 0.000000 0.000000
# 5 0.000000 0.000000 0.000000 0.000000 0.040169 0.000000
# 6 0.000000 0.000000 0.000000 0.000000 0.000000 0.008330
#
#
# Mechanical properties :
#
#
# Convention : Reuss Voigt Hill
#
# Bulk Modulus (GPa) = 4.98375 60.42789 32.70582
# Shear Modulus (GPa) = 4.93075 40.65644 22.79359
#
# Velocity S-wave (km/s) = 1.68226 4.83060 3.61695
# Velocity P-wave (km/s) = 2.57561 8.11144 6.01786
#
# Compressibility (1/GPa) = 0.20065200
#
# Stress axis : x y z
#
# Youngs Moduli (GPa) = 54.22842 2.20979 19.57152
#
# Poissons Ratio (x) = 0.13472 -0.04283
# Poissons Ratio (y) = 3.30602 1.99495
# Poissons Ratio (z) = -0.11867 0.22525
#
# Static dielectric constant tensor:
#      x y z
#    x 1.611910 0.000000 0.000000 
#    y 0.000000 1.580020 0.000000 
#    z 0.000000 0.000000 1.579340 
# 
# From -- ./inp_files/9728.got.cif
#   From: 2010.05.17/outbox.cif.g08.bks.cpg/sg65_5_cif.got.tgz:9728.got - 2010.06.03 17:01:31.
