data_PCOD9483346
_publ_section_title
;
Structure prediction by ZEFSAII (Michael W. Deem and Ramdas Pophale) SiO2 
 PCOD9483346
Probable space group: C M M M
;
_chemical_formula_sum "Si O2"
_cell_formula_units_Z 104
_cell_length_a 28.939739
_cell_length_b 24.430871
_cell_length_c 9.216310
_cell_angle_alpha 90.000000
_cell_angle_beta 90.000000
_cell_angle_gamma 90.000000
_cell_volume 6516.143424
_symmetry_space_group_name_H-M "C M M M"
_symmetry_group_IT_number 65
_symmetry_cell_setting 'orthorhombic'
loop_
_space_group_symop_operation_xyz
x,y,z
-x,-y,z
x,-y,-z
-x,y,-z
-x,-y,-z
x,y,-z
-x,y,z
x,-y,z
1/2+x,1/2+y,z
1/2-x,1/2-y,z
1/2+x,1/2-y,-z
1/2-x,1/2+y,-z
1/2-x,1/2-y,-z
1/2+x,1/2+y,-z
1/2-x,1/2+y,z
1/2+x,1/2-y,z
loop_
_atom_site_type_symbol
_atom_site_label
_atom_site_fract_x
_atom_site_fract_y
_atom_site_fract_z
Si Si1 0.445970 0.734841 0.326306
Si Si2 0.909478 0.131066 0.174952
Si Si3 0.870077 0.565153 0.172342
Si Si4 0.776130 0.566487 0.333255
Si Si5 0.054167 0.638260 0.326321
Si Si6 0.500000 0.437182 0.176586
Si Si7 0.817737 0.064526 0.826257
O O1 0.441925 0.728593 0.500000
O O2 0.500000 0.725304 0.287924
O O3 0.415283 0.690395 0.245345
O O4 0.435509 0.798106 0.291371
O O5 0.862392 0.099920 0.214371
O O6 0.953820 0.094837 0.221037
O O7 0.910796 0.135549 0.000000
O O8 0.875817 0.500000 0.198908
O O9 0.822009 0.583018 0.246808
O O10 0.912172 0.598232 0.241524
O O11 0.867641 0.573401 0.000000
O O12 0.777824 0.584729 0.500000
O O13 0.775985 0.500000 0.332520
O O14 0.728650 0.582785 0.255124
O O15 0.059971 0.631405 0.500000
O O16 0.000000 0.628547 0.293586
O O17 0.500000 0.500000 0.226353
O O18 0.500000 0.438240 0.000000
O O19 0.826058 0.000000 0.794683
O O20 0.810900 0.068765 0.000000
#
# Coordination Sequence:
#
# PCOD9483346 Si02
#       7
#    16  16  16  16  16   8  16
#     4   9  18  33  50  67  92 127 166 206 245 283
#     4  10  18  28  46  70  94 126 167 207 245 290
#     4  10  20  33  51  77 106 131 154 188 238 288
#     4   9  17  30  49  71  95 127 165 199 233 284
#     4   9  19  35  53  73  98 131 167 198 232 281
#     4   9  16  26  41  65  97 129 162 201 244 291
#     4   9  17  29  45  68  98 129 162 203 249 291
#
# _framework density 15.960361000000001
#
# number of rings (size 3 to 8) (size 9 to 14) (size 15 to 20)
#    0.000    2.692    0.769    2.308    0.000    6.462 
#    0.000    3.077    0.000    2.769    0.000    6.462 
#    0.000    0.000    0.000    0.000    0.000    0.000 
#
# Total GULP energy -289863.485666 kJ/mol
# GULP energy per Si atom -5574.297801 kJ/mol
# Density = 1.592403 g / cm^3
# Si number density = 15.960361 Si / 1000 Ang^3
#
#
#
# Elastic Constant Matrix: (Units=GPa)
#
#
# Indices 1 2 3 4 5 6 
#
# 1 152.2889 81.7140 73.7618 0.0000 0.0000 0.0000
# 2 81.7140 76.5739 54.6479 0.0000 0.0000 0.0000
# 3 73.7618 54.6479 55.7229 0.0000 0.0000 0.0000
# 4 0.0000 0.0000 0.0000 25.9253 0.0000 0.0000
# 5 0.0000 0.0000 0.0000 0.0000 28.2439 0.0000
# 6 0.0000 0.0000 0.0000 0.0000 0.0000 9.3814
#
#
#
# Elastic Compliance Matrix: (Units=1/GPa)
#
#
# Indices 1 2 3 4 5 6 
#
# 1 0.019676 -0.008027 -0.018173 0.000000 0.000000 0.000000
# 2 -0.008027 0.046791 -0.035262 0.000000 0.000000 0.000000
# 3 -0.018173 -0.035262 0.076584 0.000000 0.000000 0.000000
# 4 0.000000 0.000000 0.000000 0.038572 0.000000 0.000000
# 5 0.000000 0.000000 0.000000 0.000000 0.035406 0.000000
# 6 0.000000 0.000000 0.000000 0.000000 0.000000 0.106594
#
#
# Mechanical properties :
#
#
# Convention : Reuss Voigt Hill
#
# Bulk Modulus (GPa) = 49.68792 78.31478 64.00135
# Shear Modulus (GPa) = 11.03128 17.67424 14.35276
#
# Velocity S-wave (km/s) = 2.63186 3.33135 3.00204
# Velocity P-wave (km/s) = 6.35887 7.99825 7.22521
#
# Compressibility (1/GPa) = 0.02012562
#
# Stress axis : x y z
#
# Youngs Moduli (GPa) = 50.82377 21.37184 13.05752
#
# Poissons Ratio (x) = 0.17155 0.23730
# Poissons Ratio (y) = 0.40797 0.46044
# Poissons Ratio (z) = 0.92363 0.75362
#
# Static dielectric constant tensor:
#      x y z
#    x 1.517770 0.000000 0.000000 
#    y 0.000000 1.516390 0.000000 
#    z 0.000000 0.000000 1.531420 
# 
# From -- ./inp_files/14707.got.cif
#   From: 2010.05.17/outbox.cif.g08.bks.cpg/sg65_8_cif.got.tgz:14707.got - 2010.06.03 17:01:31.
