data_PCOD9483155
_publ_section_title
;
Structure prediction by ZEFSAII (Michael W. Deem and Ramdas Pophale) SiO2 
 PCOD9483155
Probable space group: C M M M
;
_chemical_formula_sum "Si O2"
_cell_formula_units_Z 104
_cell_length_a 28.078569
_cell_length_b 8.487652
_cell_length_c 27.717316
_cell_angle_alpha 90.000000
_cell_angle_beta 90.000000
_cell_angle_gamma 90.000000
_cell_volume 6605.621857
_symmetry_space_group_name_H-M "C M M M"
_symmetry_group_IT_number 65
_symmetry_cell_setting 'orthorhombic'
loop_
_space_group_symop_operation_xyz
x,y,z
-x,-y,z
x,-y,-z
-x,y,-z
-x,-y,-z
x,y,-z
-x,y,z
x,-y,z
1/2+x,1/2+y,z
1/2-x,1/2-y,z
1/2+x,1/2-y,-z
1/2-x,1/2+y,-z
1/2-x,1/2-y,-z
1/2+x,1/2+y,-z
1/2-x,1/2+y,z
1/2+x,1/2-y,z
loop_
_atom_site_type_symbol
_atom_site_label
_atom_site_fract_x
_atom_site_fract_y
_atom_site_fract_z
Si Si1 0.055488 0.192607 0.343017
Si Si2 0.351628 0.190042 0.096964
Si Si3 0.104161 0.811029 0.755294
Si Si4 0.697503 0.811406 0.803178
Si Si5 0.057623 0.187511 0.448073
Si Si6 0.696101 0.313450 0.000000
Si Si7 0.446284 0.809509 0.850817
O O1 0.085400 0.243683 0.296749
O O2 0.073360 0.248907 0.395700
O O3 0.000000 0.237709 0.337014
O O4 0.056260 0.000000 0.344197
O O5 0.318823 0.236577 0.142658
O O6 0.405304 0.240189 0.111438
O O7 0.351048 0.000000 0.093905
O O8 0.331397 0.256857 0.047677
O O9 0.157158 0.754107 0.767674
O O10 0.070617 0.748041 0.798296
O O11 0.102666 0.000000 0.756321
O O12 0.750000 0.750000 0.792862
O O13 0.696536 0.000000 0.801356
O O14 0.074079 0.253770 0.500000
O O15 0.000000 0.200837 0.447354
O O16 0.068019 0.000000 0.448804
O O17 0.750000 0.250000 0.000000
O O18 0.698411 0.500000 0.000000
O O19 0.500000 0.756423 0.861543
O O20 0.445869 0.000000 0.850116
#
# Coordination Sequence:
#
# PCOD9483155 Si02
#       7
#    16  16  16  16  16   8  16
#     4   8  13  20  31  52  83 116 149 182 214 250
#     4   9  19  35  53  72  93 116 144 177 212 254
#     4  10  18  27  42  65  92 120 148 180 219 263
#     4  10  20  34  51  69  89 114 144 178 217 262
#     4   7   9  14  25  42  69 108 148 181 213 248
#     4  12  24  36  53  74  95 117 142 177 219 262
#     4   9  18  33  51  69  91 121 155 187 217 252
#
# _framework density 15.744164
#
# number of rings (size 3 to 8) (size 9 to 14) (size 15 to 20)
#    0.000    2.923    0.000    4.846    0.000    5.231 
#    0.000    0.385    0.000    2.308    0.000    0.000 
#    0.000    3.077    0.000   18.462    0.000   15.692 
#
# Total GULP energy -289600.684914 kJ/mol
# GULP energy per Si atom -5569.243941 kJ/mol
# Density = 1.570833 g / cm^3
# Si number density = 15.744164 Si / 1000 Ang^3
#
#
#
# Elastic Constant Matrix: (Units=GPa)
#
#
# Indices 1 2 3 4 5 6 
#
# 1 114.2832 18.4904 76.7935 0.0000 0.0000 0.0000
# 2 18.4904 10.8906 21.6671 0.0000 0.0000 0.0000
# 3 76.7935 21.6671 166.7893 0.0000 0.0000 0.0000
# 4 0.0000 0.0000 0.0000 -0.6772 0.0000 0.0000
# 5 0.0000 0.0000 0.0000 0.0000 15.4618 0.0000
# 6 0.0000 0.0000 0.0000 0.0000 0.0000 16.5460
#
#
#
# Elastic Compliance Matrix: (Units=1/GPa)
#
#
# Indices 1 2 3 4 5 6 
#
# 1 0.014296 -0.015072 -0.004624 0.000000 0.000000 0.000000
# 2 -0.015072 0.139717 -0.011211 0.000000 0.000000 0.000000
# 3 -0.004624 -0.011211 0.009581 0.000000 0.000000 0.000000
# 4 0.000000 0.000000 0.000000 -1.476691 0.000000 0.000000
# 5 0.000000 0.000000 0.000000 0.000000 0.064675 0.000000
# 6 0.000000 0.000000 0.000000 0.000000 0.000000 0.060438
#
#
# Mechanical properties :
#
#
# Convention : Reuss Voigt Hill
#
# Bulk Modulus (GPa) = 9.82516 58.42945 34.12730
# Shear Modulus (GPa) = -4.57774 17.93360 6.67793
#
# Velocity S-wave (km/s) = -1.70701 3.37866 2.06173
# Velocity P-wave (km/s) = 1.53911 7.23967 5.23363
#
# Compressibility (1/GPa) = 0.10177956
#
# Stress axis : x y z
#
# Youngs Moduli (GPa) = 69.94924 7.15734 104.37297
#
# Poissons Ratio (x) = 0.10788 0.48264
# Poissons Ratio (y) = 1.05430 1.17008
# Poissons Ratio (z) = 0.32346 0.08024
#
# Static dielectric constant tensor:
#      x y z
#    x 1.512150 0.000000 0.000000 
#    y 0.000000 1.538940 0.000000 
#    z 0.000000 0.000000 1.548960 
# 
# From -- ./inp_files/72167.got.cif
#   From: 2010.05.17/outbox.cif.g08.bks.cpg/sg65_37_cif.got.tgz:72167.got - 2010.06.03 17:01:31.
