data_PCOD9483620
_publ_section_title
;
Structure prediction by ZEFSAII (Michael W. Deem and Ramdas Pophale) SiO2 
 PCOD9483620
Probable space group: C M M M
;
_chemical_formula_sum "Si O2"
_cell_formula_units_Z 120
_cell_length_a 15.108177
_cell_length_b 31.948717
_cell_length_c 14.559291
_cell_angle_alpha 90.000000
_cell_angle_beta 90.000000
_cell_angle_gamma 90.000000
_cell_volume 7027.578622
_symmetry_space_group_name_H-M "C M M M"
_symmetry_group_IT_number 65
_symmetry_cell_setting 'orthorhombic'
loop_
_space_group_symop_operation_xyz
x,y,z
-x,-y,z
x,-y,-z
-x,y,-z
-x,-y,-z
x,y,-z
-x,y,z
x,-y,z
1/2+x,1/2+y,z
1/2-x,1/2-y,z
1/2+x,1/2-y,-z
1/2-x,1/2+y,-z
1/2-x,1/2-y,-z
1/2+x,1/2+y,-z
1/2-x,1/2+y,z
1/2+x,1/2-y,z
loop_
_atom_site_type_symbol
_atom_site_label
_atom_site_fract_x
_atom_site_fract_y
_atom_site_fract_z
Si Si1 0.100165 0.646311 0.110537
Si Si2 0.393101 0.421474 0.266913
Si Si3 0.392838 0.653566 0.602078
Si Si4 0.106991 0.000000 0.604967
Si Si5 0.607229 0.249403 0.602620
Si Si6 0.403915 0.312634 0.104824
Si Si7 0.218841 0.107621 0.891960
Si Si8 0.653446 0.766680 0.202033
O O1 0.179101 0.614571 0.136257
O O2 0.123195 0.691975 0.150270
O O3 0.000000 0.634699 0.138067
O O4 0.102746 0.649305 0.000000
O O5 0.500000 0.422151 0.251983
O O6 0.367511 0.378268 0.318577
O O7 0.370139 0.458984 0.336295
O O8 0.337569 0.422462 0.173371
O O9 0.364346 0.639509 0.500000
O O10 0.500000 0.653516 0.601418
O O11 0.366456 0.701769 0.613948
O O12 0.140578 0.000000 0.500000
O O13 0.000000 0.000000 0.598747
O O14 0.633940 0.235847 0.500000
O O15 0.500000 0.247174 0.606999
O O16 0.646738 0.225673 0.689193
O O17 0.500000 0.334171 0.113168
O O18 0.328315 0.346799 0.117755
O O19 0.403019 0.273866 0.173436
O O20 0.396099 0.296346 0.000000
O O21 0.214097 0.096514 0.000000
O O22 0.750000 0.750000 0.175769
#
# Coordination Sequence:
#
# PCOD9483620 Si02
#       8
#    16  16  16   8  16  16  16  16
#     4  10  21  36  51  67  91 124 164 213 262 300
#     4  10  18  29  49  75 105 136 161 187 226 277
#     4   8  14  25  43  65  88 118 157 197 232 269
#     4   9  18  32  51  79 114 145 167 187 219 270
#     4   9  18  31  44  59  83 118 160 204 247 288
#     4  10  19  30  45  66  93 124 160 203 247 291
#     4  10  20  33  48  69  96 127 166 202 238 288
#     4  12  21  29  45  65  90 123 163 210 257 306
#
# _framework density 17.075583000000002
#
# number of rings (size 3 to 8) (size 9 to 14) (size 15 to 20)
#    0.000    2.200    1.333    4.000    0.000    5.333 
#    0.000    0.333    0.000    1.200    0.000    0.467 
#    0.000    2.667    0.000    0.000    0.000    0.000 
#
# Total GULP energy -334557.320931 kJ/mol
# GULP energy per Si atom -5575.955349 kJ/mol
# Density = 1.703672 g / cm^3
# Si number density = 17.075583 Si / 1000 Ang^3
#
#
#
# Elastic Constant Matrix: (Units=GPa)
#
#
# Indices 1 2 3 4 5 6 
#
# 1 87.3819 9.4668 27.8001 0.0000 0.0000 0.0000
# 2 9.4668 21.4089 22.7357 0.0000 0.0000 0.0000
# 3 27.8001 22.7357 79.6987 0.0000 0.0000 0.0000
# 4 0.0000 0.0000 0.0000 20.8762 0.0000 0.0000
# 5 0.0000 0.0000 0.0000 0.0000 14.6032 0.0000
# 6 0.0000 0.0000 0.0000 0.0000 0.0000 10.9465
#
#
#
# Elastic Compliance Matrix: (Units=1/GPa)
#
#
# Indices 1 2 3 4 5 6 
#
# 1 0.012899 -0.001328 -0.004120 0.000000 0.000000 0.000000
# 2 -0.001328 0.067147 -0.018692 0.000000 0.000000 0.000000
# 3 -0.004120 -0.018692 0.019317 0.000000 0.000000 0.000000
# 4 0.000000 0.000000 0.000000 0.047902 0.000000 0.000000
# 5 0.000000 0.000000 0.000000 0.000000 0.068478 0.000000
# 6 0.000000 0.000000 0.000000 0.000000 0.000000 0.091353
#
#
# Mechanical properties :
#
#
# Convention : Reuss Voigt Hill
#
# Bulk Modulus (GPa) = 19.57631 34.27719 26.92675
# Shear Modulus (GPa) = 13.42631 17.85098 15.63864
#
# Velocity S-wave (km/s) = 2.80712 3.23679 3.02958
# Velocity P-wave (km/s) = 4.68999 5.83836 5.29539
#
# Compressibility (1/GPa) = 0.05108216
#
# Stress axis : x y z
#
# Youngs Moduli (GPa) = 77.52667 14.89268 51.76841
#
# Poissons Ratio (x) = 0.01978 0.21331
# Poissons Ratio (y) = 0.10294 0.96765
# Poissons Ratio (z) = 0.31945 0.27837
#
# Static dielectric constant tensor:
#      x y z
#    x 1.642090 0.000000 0.000000 
#    y 0.000000 1.554150 0.000000 
#    z 0.000000 0.000000 1.628170 
# 
# From -- ./inp_files/41463.got.cif
#   From: 2010.05.17/outbox.cif.g08.bks.cpg/sg65_21_cif.got.tgz:41463.got - 2010.06.03 17:01:31.
