data_PCOD9483236
_publ_section_title
;
Structure prediction by ZEFSAII (Michael W. Deem and Ramdas Pophale) SiO2 
 PCOD9483236
Probable space group: C M M M
;
_chemical_formula_sum "Si O2"
_cell_formula_units_Z 96
_cell_length_a 31.056677
_cell_length_b 13.643465
_cell_length_c 14.314822
_cell_angle_alpha 90.000000
_cell_angle_beta 90.000000
_cell_angle_gamma 90.000000
_cell_volume 6065.486193
_symmetry_space_group_name_H-M "C M M M"
_symmetry_group_IT_number 65
_symmetry_cell_setting 'orthorhombic'
loop_
_space_group_symop_operation_xyz
x,y,z
-x,-y,z
x,-y,-z
-x,y,-z
-x,-y,-z
x,y,-z
-x,y,z
x,-y,z
1/2+x,1/2+y,z
1/2-x,1/2-y,z
1/2+x,1/2-y,-z
1/2-x,1/2+y,-z
1/2-x,1/2-y,-z
1/2+x,1/2+y,-z
1/2-x,1/2+y,z
1/2+x,1/2-y,z
loop_
_atom_site_type_symbol
_atom_site_label
_atom_site_fract_x
_atom_site_fract_y
_atom_site_fract_z
Si Si1 0.952619 0.618907 0.289730
Si Si2 0.094333 0.617338 0.106207
Si Si3 0.227963 0.381193 0.393031
Si Si4 0.229535 0.885758 0.204417
Si Si5 0.187427 0.704344 0.112240
Si Si6 0.867123 0.385984 0.612028
O O1 0.953591 0.500000 0.301093
O O2 0.942067 0.639982 0.181688
O O3 0.910919 0.656504 0.345811
O O4 0.000000 0.655039 0.317373
O O5 0.100757 0.500000 0.108047
O O6 0.139796 0.665607 0.133347
O O7 0.083612 0.645565 0.000000
O O8 0.237880 0.353450 0.500000
O O9 0.224650 0.500000 0.393423
O O10 0.262238 0.358627 0.313029
O O11 0.180083 0.343780 0.365714
O O12 0.197012 0.810691 0.155945
O O13 0.275590 0.865898 0.154216
O O14 0.218129 0.000000 0.196827
O O15 0.192246 0.707552 0.000000
O O16 0.870082 0.385559 0.500000
O O17 0.866040 0.500000 0.643505
#
# Coordination Sequence:
#
# PCOD9483236 Si02
#       6
#    16  16  16  16  16  16
#     4   9  16  24  36  56  78  99 126 159 194 234
#     4   9  17  29  43  56  75 106 137 165 199 237
#     4   8  14  25  41  59  78 104 138 170 199 235
#     4  10  18  28  43  60  80 105 133 171 211 237
#     4  10  20  30  40  58  81 106 139 171 200 243
#     4   8  13  21  33  50  73 100 129 159 189 225
#
# _framework density 15.827256
#
# number of rings (size 3 to 8) (size 9 to 14) (size 15 to 20)
#    0.000    3.000    0.000    3.500    0.000    5.333 
#    0.000    5.000    0.000    1.000    0.000    0.000 
#    0.000    0.667    0.000    3.667    0.000    0.167 
#
# Total GULP energy -267310.953729 kJ/mol
# GULP energy per Si atom -5568.978203 kJ/mol
# Density = 1.579123 g / cm^3
# Si number density = 15.827256 Si / 1000 Ang^3
#
#
#
# Elastic Constant Matrix: (Units=GPa)
#
#
# Indices 1 2 3 4 5 6 
#
# 1 34.7774 7.2073 17.5452 0.0000 0.0000 0.0000
# 2 7.2073 38.1817 1.2041 0.0000 0.0000 0.0000
# 3 17.5452 1.2041 50.8701 0.0000 0.0000 0.0000
# 4 0.0000 0.0000 0.0000 1.8653 0.0000 0.0000
# 5 0.0000 0.0000 0.0000 0.0000 15.4235 0.0000
# 6 0.0000 0.0000 0.0000 0.0000 0.0000 11.7424
#
#
#
# Elastic Compliance Matrix: (Units=1/GPa)
#
#
# Indices 1 2 3 4 5 6 
#
# 1 0.036341 -0.006469 -0.012381 0.000000 0.000000 0.000000
# 2 -0.006469 0.027362 0.001584 0.000000 0.000000 0.000000
# 3 -0.012381 0.001584 0.023891 0.000000 0.000000 0.000000
# 4 0.000000 0.000000 0.000000 0.536096 0.000000 0.000000
# 5 0.000000 0.000000 0.000000 0.000000 0.064836 0.000000
# 6 0.000000 0.000000 0.000000 0.000000 0.000000 0.085162
#
#
# Mechanical properties :
#
#
# Convention : Reuss Voigt Hill
#
# Bulk Modulus (GPa) = 18.84655 19.52693 19.18674
# Shear Modulus (GPa) = 6.05394 12.33108 9.19251
#
# Velocity S-wave (km/s) = 1.95789 2.79427 2.41260
# Velocity P-wave (km/s) = 4.12851 4.77231 4.46204
#
# Compressibility (1/GPa) = 0.05306011
#
# Stress axis : x y z
#
# Youngs Moduli (GPa) = 27.51693 36.54734 41.85726
#
# Poissons Ratio (x) = 0.23644 0.51824
# Poissons Ratio (y) = 0.17802 -0.06629
# Poissons Ratio (z) = 0.34069 -0.05788
#
# Static dielectric constant tensor:
#      x y z
#    x 1.540680 0.000000 0.000000 
#    y 0.000000 1.524160 0.000000 
#    z 0.000000 0.000000 1.578770 
# 
# From -- ./inp_files/41260.got.cif
#   From: 2010.05.17/outbox.cif.g08.bks.cpg/sg65_21_cif.got.tgz:41260.got - 2010.06.03 17:01:31.
