data_PCOD9483677
_publ_section_title
;
Structure prediction by ZEFSAII (Michael W. Deem and Ramdas Pophale) SiO2 
 PCOD9483677
Probable space group: C M M M
;
_chemical_formula_sum "Si O2"
_cell_formula_units_Z 96
_cell_length_a 26.399367
_cell_length_b 8.747121
_cell_length_c 25.523104
_cell_angle_alpha 90.000000
_cell_angle_beta 90.000000
_cell_angle_gamma 90.000000
_cell_volume 5893.755806
_symmetry_space_group_name_H-M "C M M M"
_symmetry_group_IT_number 65
_symmetry_cell_setting 'orthorhombic'
loop_
_space_group_symop_operation_xyz
x,y,z
-x,-y,z
x,-y,-z
-x,y,-z
-x,-y,-z
x,y,-z
-x,y,z
x,-y,z
1/2+x,1/2+y,z
1/2-x,1/2-y,z
1/2+x,1/2-y,-z
1/2-x,1/2+y,-z
1/2-x,1/2-y,-z
1/2+x,1/2+y,-z
1/2-x,1/2+y,z
1/2+x,1/2-y,z
loop_
_atom_site_type_symbol
_atom_site_label
_atom_site_fract_x
_atom_site_fract_y
_atom_site_fract_z
Si Si1 0.906349 0.678956 0.130818
Si Si2 0.804647 0.816905 0.826554
Si Si3 0.844939 0.178338 0.287895
Si Si4 0.307409 0.317425 0.500000
Si Si5 0.306278 0.818814 0.393690
Si Si6 0.500000 0.813375 0.939046
Si Si7 0.441702 0.824302 0.249906
O O1 0.896492 0.500000 0.119415
O O2 0.852155 0.760299 0.138552
O O3 0.948160 0.738179 0.089621
O O4 0.933454 0.687383 0.187479
O O5 0.750000 0.750000 0.841579
O O6 0.816843 0.770811 0.765873
O O7 0.803059 0.000000 0.827953
O O8 0.831235 0.273466 0.338996
O O9 0.903804 0.206495 0.276137
O O10 0.833348 0.000000 0.296609
O O11 0.305412 0.500000 0.500000
O O12 0.250000 0.250000 0.500000
O O13 0.330646 0.255738 0.554214
O O14 0.250000 0.750000 0.390171
O O15 0.304019 0.000000 0.400417
O O16 0.500000 0.000000 0.934554
O O17 0.500000 0.772921 0.000000
O O18 0.500000 0.798941 0.262653
O O19 0.428001 0.000000 0.264231
#
# Coordination Sequence:
#
# PCOD9483677 Si02
#       7
#    16  16  16   8  16   8  16
#     4   9  16  29  49  72  99 130 161 197 239 287
#     4  10  20  32  47  69  97 130 165 200 240 292
#     4  10  20  31  44  67  95 124 158 194 238 285
#     4  10  18  30  46  64  87 118 155 194 236 280
#     4  11  20  31  46  65  91 122 156 194 235 280
#     4   9  16  28  51  81 105 127 161 202 243 288
#     4   9  16  28  46  67  93 125 158 190 232 283
#
# _framework density 16.288425
#
# number of rings (size 3 to 8) (size 9 to 14) (size 15 to 20)
#    0.000    2.250    0.833    4.750    0.000    3.667 
#    0.000    0.417    0.000    1.500    0.000    0.583 
#    0.000    4.667    0.000    0.000    0.000    0.000 
#
# Total GULP energy -267505.574128 kJ/mol
# GULP energy per Si atom -5573.032794 kJ/mol
# Density = 1.625135 g / cm^3
# Si number density = 16.288425 Si / 1000 Ang^3
#
#
#
# Elastic Constant Matrix: (Units=GPa)
#
#
# Indices 1 2 3 4 5 6 
#
# 1 94.2148 30.6748 45.7630 0.0000 0.0000 0.0000
# 2 30.6748 73.4686 36.7139 0.0000 0.0000 0.0000
# 3 45.7630 36.7139 91.1255 0.0000 0.0000 0.0000
# 4 0.0000 0.0000 0.0000 13.3749 0.0000 0.0000
# 5 0.0000 0.0000 0.0000 0.0000 16.5326 0.0000
# 6 0.0000 0.0000 0.0000 0.0000 0.0000 23.3722
#
#
#
# Elastic Compliance Matrix: (Units=1/GPa)
#
#
# Indices 1 2 3 4 5 6 
#
# 1 0.014560 -0.003037 -0.006089 0.000000 0.000000 0.000000
# 2 -0.003037 0.017676 -0.005597 0.000000 0.000000 0.000000
# 3 -0.006089 -0.005597 0.016286 0.000000 0.000000 0.000000
# 4 0.000000 0.000000 0.000000 0.074767 0.000000 0.000000
# 5 0.000000 0.000000 0.000000 0.000000 0.060486 0.000000
# 6 0.000000 0.000000 0.000000 0.000000 0.000000 0.042786
#
#
# Mechanical properties :
#
#
# Convention : Reuss Voigt Hill
#
# Bulk Modulus (GPa) = 52.41402 53.90136 53.15769
# Shear Modulus (GPa) = 19.05744 20.36642 19.71193
#
# Velocity S-wave (km/s) = 3.42424 3.53988 3.48254
# Velocity P-wave (km/s) = 6.91971 7.06196 6.99120
#
# Compressibility (1/GPa) = 0.01907886
#
# Stress axis : x y z
#
# Youngs Moduli (GPa) = 68.68064 56.57460 61.40094
#
# Poissons Ratio (x) = 0.17179 0.37385
# Poissons Ratio (y) = 0.20855 0.34363
# Poissons Ratio (z) = 0.41817 0.31662
#
# Static dielectric constant tensor:
#      x y z
#    x 1.543530 0.000000 0.000000 
#    y 0.000000 1.557140 0.000000 
#    z 0.000000 0.000000 1.569140 
# 
# From -- ./inp_files/75705.got.cif
#   From: 2010.05.17/outbox.cif.g08.bks.cpg/sg65_38_cif.got.tgz:75705.got - 2010.06.03 17:01:31.
