data_PCOD9483158
_publ_section_title
;
Structure prediction by ZEFSAII (Michael W. Deem and Ramdas Pophale) SiO2 
 PCOD9483158
Probable space group: C M M M
;
_chemical_formula_sum "Si O2"
_cell_formula_units_Z 72
_cell_length_a 9.794348
_cell_length_b 25.685780
_cell_length_c 19.694840
_cell_angle_alpha 90.000000
_cell_angle_beta 90.000000
_cell_angle_gamma 90.000000
_cell_volume 4954.738590
_symmetry_space_group_name_H-M "C M M M"
_symmetry_group_IT_number 65
_symmetry_cell_setting 'orthorhombic'
loop_
_space_group_symop_operation_xyz
x,y,z
-x,-y,z
x,-y,-z
-x,y,-z
-x,-y,-z
x,y,-z
-x,y,z
x,-y,z
1/2+x,1/2+y,z
1/2-x,1/2-y,z
1/2+x,1/2-y,-z
1/2-x,1/2+y,-z
1/2-x,1/2-y,-z
1/2+x,1/2+y,-z
1/2-x,1/2+y,z
1/2+x,1/2-y,z
loop_
_atom_site_type_symbol
_atom_site_label
_atom_site_fract_x
_atom_site_fract_y
_atom_site_fract_z
Si Si1 0.161279 0.302348 0.927088
Si Si2 0.500000 0.781247 0.580739
Si Si3 0.663911 0.803964 0.776070
Si Si4 0.500000 0.660992 0.581736
Si Si5 0.500000 0.938037 0.580797
Si Si6 0.213169 0.639221 0.640567
O O1 0.250000 0.250000 0.928048
O O2 0.188067 0.325479 0.852566
O O3 0.000000 0.289502 0.926769
O O4 0.188369 0.329808 0.000000
O O5 0.500000 0.781985 0.500000
O O6 0.500000 0.721756 0.603224
O O7 0.367965 0.812264 0.606413
O O8 0.500000 0.793860 0.768022
O O9 0.750000 0.750000 0.768005
O O10 0.707125 0.845681 0.719579
O O11 0.500000 0.658456 0.500000
O O12 0.364078 0.636391 0.611792
O O13 0.500000 0.924462 0.500000
O O14 0.371537 0.911083 0.617471
O O15 0.500000 0.000000 0.586647
#
# Coordination Sequence:
#
# PCOD9483158 Si02
#       6
#    16   8  16   8   8  16
#     4   8  14  24  37  55  83 121 160 185 204 239
#     4  10  18  29  43  61  91 125 149 167 204 262
#     4  10  18  27  42  65  95 126 153 181 217 262
#     4  11  21  30  44  67  94 120 144 176 221 268
#     4  10  21  39  57  66  78 108 150 194 240 287
#     4  11  20  31  46  67  90 115 149 188 223 271
#
# _framework density 14.531544
#
# number of rings (size 3 to 8) (size 9 to 14) (size 15 to 20)
#    0.000    2.111    2.222    4.667    1.556    1.778 
#    0.000    0.556    0.000    2.000    0.000    0.000 
#    0.000    1.778    0.000    0.000    0.000    2.222 
#
# Total GULP energy -200415.317658 kJ/mol
# GULP energy per Si atom -5567.092157 kJ/mol
# Density = 1.449847 g / cm^3
# Si number density = 14.531544 Si / 1000 Ang^3
#
#
#
# Elastic Constant Matrix: (Units=GPa)
#
#
# Indices 1 2 3 4 5 6 
#
# 1 97.1437 25.3251 38.5606 0.0000 0.0000 0.0000
# 2 25.3251 53.6466 36.4902 0.0000 0.0000 0.0000
# 3 38.5606 36.4902 138.7701 0.0000 0.0000 0.0000
# 4 0.0000 0.0000 0.0000 3.0012 0.0000 0.0000
# 5 0.0000 0.0000 0.0000 0.0000 19.3473 0.0000
# 6 0.0000 0.0000 0.0000 0.0000 0.0000 1.5140
#
#
#
# Elastic Compliance Matrix: (Units=1/GPa)
#
#
# Indices 1 2 3 4 5 6 
#
# 1 0.012316 -0.004246 -0.002306 0.000000 0.000000 0.000000
# 2 -0.004246 0.024164 -0.005174 0.000000 0.000000 0.000000
# 3 -0.002306 -0.005174 0.009208 0.000000 0.000000 0.000000
# 4 0.000000 0.000000 0.000000 0.333203 0.000000 0.000000
# 5 0.000000 0.000000 0.000000 0.000000 0.051687 0.000000
# 6 0.000000 0.000000 0.000000 0.000000 0.000000 0.660501
#
#
# Mechanical properties :
#
#
# Convention : Reuss Voigt Hill
#
# Bulk Modulus (GPa) = 44.97177 54.47915 49.72546
# Shear Modulus (GPa) = 4.45655 17.38478 10.92067
#
# Velocity S-wave (km/s) = 1.75313 3.46258 2.74435
# Velocity P-wave (km/s) = 5.92561 7.31831 6.65847
#
# Compressibility (1/GPa) = 0.02223617
#
# Stress axis : x y z
#
# Youngs Moduli (GPa) = 81.19398 41.38329 108.60654
#
# Poissons Ratio (x) = 0.17570 0.25044
# Poissons Ratio (y) = 0.34472 0.56197
# Poissons Ratio (z) = 0.18723 0.21413
#
# Static dielectric constant tensor:
#      x y z
#    x 1.385950 0.000000 0.000000 
#    y 0.000000 1.434100 0.000000 
#    z 0.000000 0.000000 1.548230 
# 
# From -- ./inp_files/60039.got.cif
#   From: 2010.05.17/outbox.cif.g08.bks.cpg/sg65_31_cif.got.tgz:60039.got - 2010.06.03 17:01:31.
