data_PCOD9483684
_publ_section_title
;
Structure prediction by ZEFSAII (Michael W. Deem and Ramdas Pophale) SiO2 
 PCOD9483684
Probable space group: C M M M
;
_chemical_formula_sum "Si O2"
_cell_formula_units_Z 96
_cell_length_a 27.923497
_cell_length_b 8.580759
_cell_length_c 24.646196
_cell_angle_alpha 90.000000
_cell_angle_beta 90.000000
_cell_angle_gamma 90.000000
_cell_volume 5905.346819
_symmetry_space_group_name_H-M "C M M M"
_symmetry_group_IT_number 65
_symmetry_cell_setting 'orthorhombic'
loop_
_space_group_symop_operation_xyz
x,y,z
-x,-y,z
x,-y,-z
-x,y,-z
-x,-y,-z
x,y,-z
-x,y,z
x,-y,z
1/2+x,1/2+y,z
1/2-x,1/2-y,z
1/2+x,1/2-y,-z
1/2-x,1/2+y,-z
1/2-x,1/2-y,-z
1/2+x,1/2+y,-z
1/2-x,1/2+y,z
1/2+x,1/2-y,z
loop_
_atom_site_type_symbol
_atom_site_label
_atom_site_fract_x
_atom_site_fract_y
_atom_site_fract_z
Si Si1 0.150057 0.687345 0.221832
Si Si2 0.304476 0.814125 0.000000
Si Si3 0.899144 0.811940 0.613266
Si Si4 0.555641 0.309653 0.500000
Si Si5 0.801769 0.812979 0.329794
Si Si6 0.695788 0.314373 0.886787
Si Si7 0.446650 0.812092 0.720724
O O1 0.152670 0.500000 0.218802
O O2 0.183783 0.745094 0.270976
O O3 0.166496 0.759440 0.165371
O O4 0.096247 0.735365 0.239183
O O5 0.250000 0.750000 0.000000
O O6 0.325090 0.751780 0.943354
O O7 0.303823 0.000000 0.000000
O O8 0.917503 0.758539 0.554701
O O9 0.844875 0.767164 0.629499
O O10 0.932684 0.749219 0.661281
O O11 0.901308 0.000000 0.614196
O O12 0.555950 0.500000 0.500000
O O13 0.500000 0.261351 0.500000
O O14 0.750000 0.750000 0.346062
O O15 0.800522 0.000000 0.326290
O O16 0.698001 0.500000 0.889808
O O17 0.750000 0.250000 0.880920
O O18 0.500000 0.759878 0.735941
O O19 0.446229 0.000000 0.719025
#
# Coordination Sequence:
#
# PCOD9483684 Si02
#       7
#    16   8  16   8  16  16  16
#     4  10  19  31  47  68  93 121 154 189 227 272
#     4  10  18  30  46  66  93 126 161 192 228 269
#     4   9  18  31  48  69  91 117 151 188 225 272
#     4   9  16  28  48  71  91 113 145 187 232 275
#     4  10  19  31  46  65  90 120 153 188 228 271
#     4  11  20  31  46  67  96 127 159 192 228 268
#     4   9  18  32  49  69  94 121 148 184 231 278
#
# _framework density 16.256454000000002
#
# number of rings (size 3 to 8) (size 9 to 14) (size 15 to 20)
#    0.000    2.250    0.000    5.250    0.000    2.333 
#    0.000    0.833    0.000    1.500    0.000    0.583 
#    0.000    4.667    0.000    0.000    0.000    0.000 
#
# Total GULP energy -267739.144907 kJ/mol
# GULP energy per Si atom -5577.898852 kJ/mol
# Density = 1.621945 g / cm^3
# Si number density = 16.256454 Si / 1000 Ang^3
#
#
#
# Elastic Constant Matrix: (Units=GPa)
#
#
# Indices 1 2 3 4 5 6 
#
# 1 106.9634 27.5301 65.6761 0.0000 0.0000 0.0000
# 2 27.5301 65.9031 39.4379 0.0000 0.0000 0.0000
# 3 65.6761 39.4379 154.5790 0.0000 0.0000 0.0000
# 4 0.0000 0.0000 0.0000 20.0823 0.0000 0.0000
# 5 0.0000 0.0000 0.0000 0.0000 15.8301 0.0000
# 6 0.0000 0.0000 0.0000 0.0000 0.0000 15.4177
#
#
#
# Elastic Compliance Matrix: (Units=1/GPa)
#
#
# Indices 1 2 3 4 5 6 
#
# 1 0.012990 -0.002506 -0.004880 0.000000 0.000000 0.000000
# 2 -0.002506 0.018391 -0.003627 0.000000 0.000000 0.000000
# 3 -0.004880 -0.003627 0.009468 0.000000 0.000000 0.000000
# 4 0.000000 0.000000 0.000000 0.049795 0.000000 0.000000
# 5 0.000000 0.000000 0.000000 0.000000 0.063171 0.000000
# 6 0.000000 0.000000 0.000000 0.000000 0.000000 0.064860
#
#
# Mechanical properties :
#
#
# Convention : Reuss Voigt Hill
#
# Bulk Modulus (GPa) = 53.12726 65.85930 59.49328
# Shear Modulus (GPa) = 20.24480 23.25278 21.74879
#
# Velocity S-wave (km/s) = 3.53276 3.78613 3.66164
# Velocity P-wave (km/s) = 7.02796 7.72746 7.38600
#
# Compressibility (1/GPa) = 0.01882273
#
# Stress axis : x y z
#
# Youngs Moduli (GPa) = 76.98069 54.37301 105.62009
#
# Poissons Ratio (x) = 0.13628 0.51540
# Poissons Ratio (y) = 0.19294 0.38312
# Poissons Ratio (z) = 0.37565 0.19723
#
# Static dielectric constant tensor:
#      x y z
#    x 1.539320 0.000000 0.000000 
#    y 0.000000 1.548280 0.000000 
#    z 0.000000 0.000000 1.539840 
# 
# From -- ./inp_files/71702.got.cif
#   From: 2010.05.17/outbox.cif.g08.bks.cpg/sg65_36_cif.got.tgz:71702.got - 2010.06.03 17:01:31.
