data_PCOD9483588
_publ_section_title
;
Structure prediction by ZEFSAII (Michael W. Deem and Ramdas Pophale) SiO2 
 PCOD9483588
Probable space group: C M M M
;
_chemical_formula_sum "Si O2"
_cell_formula_units_Z 104
_cell_length_a 30.464769
_cell_length_b 22.306096
_cell_length_c 7.369722
_cell_angle_alpha 90.000000
_cell_angle_beta 90.000000
_cell_angle_gamma 90.000000
_cell_volume 5008.095042
_symmetry_space_group_name_H-M "C M M M"
_symmetry_group_IT_number 65
_symmetry_cell_setting 'orthorhombic'
loop_
_space_group_symop_operation_xyz
x,y,z
-x,-y,z
x,-y,-z
-x,y,-z
-x,-y,-z
x,y,-z
-x,y,z
x,-y,z
1/2+x,1/2+y,z
1/2-x,1/2-y,z
1/2+x,1/2-y,-z
1/2-x,1/2+y,-z
1/2-x,1/2-y,-z
1/2+x,1/2+y,-z
1/2-x,1/2+y,z
1/2+x,1/2-y,z
loop_
_atom_site_type_symbol
_atom_site_label
_atom_site_fract_x
_atom_site_fract_y
_atom_site_fract_z
Si Si1 0.949243 0.333739 0.216865
Si Si2 0.640550 0.373341 0.211412
Si Si3 0.952119 0.930639 0.718543
Si Si4 0.275469 0.811005 0.220746
Si Si5 0.447043 0.933243 0.500000
Si Si6 0.866230 0.739928 0.221006
Si Si7 0.727521 0.433204 0.778540
O O1 0.936436 0.393923 0.323500
O O2 0.914048 0.283841 0.272766
O O3 0.000000 0.318815 0.261679
O O4 0.946797 0.342162 0.000000
O O5 0.591003 0.396063 0.223474
O O6 0.643218 0.306710 0.289259
O O7 0.677253 0.419205 0.279666
O O8 0.651641 0.366636 0.000000
O O9 0.952271 0.930217 0.500000
O O10 0.000000 0.907327 0.778922
O O11 0.948770 0.000000 0.776567
O O12 0.250000 0.750000 0.277303
O O13 0.326141 0.802809 0.274455
O O14 0.254651 0.874175 0.279662
O O15 0.273258 0.811151 0.000000
O O16 0.500000 0.938083 0.500000
O O17 0.428450 0.000000 0.500000
O O18 0.866247 0.741649 0.000000
O O19 0.740846 0.500000 0.717693
O O20 0.729779 0.434741 0.000000
#
# Coordination Sequence:
#
# PCOD9483588 Si02
#       7
#    16  16  16  16   8  16  16
#     4   9  18  33  52  78 113 145 177 224 271 316
#     4  10  18  29  48  74 100 127 165 211 258 307
#     4   9  19  35  49  63  92 132 169 206 250 302
#     4   9  14  25  44  66  97 136 171 207 257 315
#     4   9  18  34  56  80 105 140 185 223 268 331
#     4   9  17  29  47  72 102 138 176 210 257 318
#     4   9  16  25  41  70 103 129 161 211 260 302
#
# _framework density 20.766378
#
# number of rings (size 3 to 8) (size 9 to 14) (size 15 to 20)
#    0.000    2.846    1.538    0.923    0.000    2.154 
#    1.385    4.615    0.000    2.769    2.000    1.615 
#    0.000    0.000    0.000    0.000    0.000    0.000 
#
# Total GULP energy -289980.741484 kJ/mol
# GULP energy per Si atom -5576.552721 kJ/mol
# Density = 2.071911 g / cm^3
# Si number density = 20.766378 Si / 1000 Ang^3
#
#
#
# Elastic Constant Matrix: (Units=GPa)
#
#
# Indices 1 2 3 4 5 6 
#
# 1 119.3773 70.4422 0.5187 0.0000 0.0000 0.0000
# 2 70.4422 152.5387 8.9145 0.0000 0.0000 0.0000
# 3 0.5187 8.9145 70.6297 0.0000 0.0000 0.0000
# 4 0.0000 0.0000 0.0000 61.5865 0.0000 0.0000
# 5 0.0000 0.0000 0.0000 0.0000 30.7773 0.0000
# 6 0.0000 0.0000 0.0000 0.0000 0.0000 34.0236
#
#
#
# Elastic Compliance Matrix: (Units=1/GPa)
#
#
# Indices 1 2 3 4 5 6 
#
# 1 0.011539 -0.005363 0.000592 0.000000 0.000000 0.000000
# 2 -0.005363 0.009097 -0.001109 0.000000 0.000000 0.000000
# 3 0.000592 -0.001109 0.014294 0.000000 0.000000 0.000000
# 4 0.000000 0.000000 0.000000 0.016237 0.000000 0.000000
# 5 0.000000 0.000000 0.000000 0.000000 0.032492 0.000000
# 6 0.000000 0.000000 0.000000 0.000000 0.000000 0.029391
#
#
# Mechanical properties :
#
#
# Convention : Reuss Voigt Hill
#
# Bulk Modulus (GPa) = 43.15858 55.81071 49.48464
# Shear Modulus (GPa) = 37.72621 42.78882 40.25751
#
# Velocity S-wave (km/s) = 4.26690 4.54418 4.40772
# Velocity P-wave (km/s) = 6.71589 7.38015 7.05584
#
# Compressibility (1/GPa) = 0.02317037
#
# Stress axis : x y z
#
# Youngs Moduli (GPa) = 86.66247 109.92284 69.95964
#
# Poissons Ratio (x) = 0.58955 -0.04143
# Poissons Ratio (y) = 0.46480 0.07757
# Poissons Ratio (z) = -0.05132 0.12188
#
# Static dielectric constant tensor:
#      x y z
#    x 1.735270 0.000000 0.000000 
#    y 0.000000 1.726730 0.000000 
#    z 0.000000 0.000000 1.784890 
# 
# From -- ./inp_files/18626.got.cif
#   From: 2010.05.17/outbox.cif.g08.bks.cpg/sg65_10_cif.got.tgz:18626.got - 2010.06.03 17:01:31.
