data_PCOD9483241
_publ_section_title
;
Structure prediction by ZEFSAII (Michael W. Deem and Ramdas Pophale) SiO2 
 PCOD9483241
Probable space group: C M M M
;
_chemical_formula_sum "Si O2"
_cell_formula_units_Z 88
_cell_length_a 17.577164
_cell_length_b 23.015221
_cell_length_c 16.308668
_cell_angle_alpha 90.000000
_cell_angle_beta 90.000000
_cell_angle_gamma 90.000000
_cell_volume 6597.546291
_symmetry_space_group_name_H-M "C M M M"
_symmetry_group_IT_number 65
_symmetry_cell_setting 'orthorhombic'
loop_
_space_group_symop_operation_xyz
x,y,z
-x,-y,z
x,-y,-z
-x,y,-z
-x,-y,-z
x,y,-z
-x,y,z
x,-y,z
1/2+x,1/2+y,z
1/2-x,1/2-y,z
1/2+x,1/2-y,-z
1/2-x,1/2+y,-z
1/2-x,1/2-y,-z
1/2+x,1/2+y,-z
1/2-x,1/2+y,z
1/2+x,1/2-y,z
loop_
_atom_site_type_symbol
_atom_site_label
_atom_site_fract_x
_atom_site_fract_y
_atom_site_fract_z
Si Si1 0.412802 0.000000 0.782656
Si Si2 0.815341 0.705136 0.783415
Si Si3 0.910319 0.215247 0.094507
Si Si4 0.228486 0.500000 0.096675
Si Si5 0.717572 0.625970 0.904692
Si Si6 0.407618 0.067276 0.500000
Si Si7 0.409981 0.882574 0.675056
O O1 0.349167 0.000000 0.852212
O O2 0.403493 0.057945 0.727867
O O3 0.500000 0.000000 0.814077
O O4 0.750000 0.750000 0.752840
O O5 0.873923 0.741163 0.839988
O O6 0.772739 0.661008 0.844785
O O7 0.859761 0.667940 0.715582
O O8 0.865315 0.154626 0.103600
O O9 0.000000 0.209382 0.105867
O O10 0.896468 0.235148 0.000000
O O11 0.275662 0.558196 0.114340
O O12 0.210569 0.500000 0.000000
O O13 0.740701 0.634471 0.000000
O O14 0.500000 0.064735 0.500000
O O15 0.385832 0.100522 0.417097
O O16 0.381302 0.000000 0.500000
O O17 0.500000 0.866846 0.674974
#
# Coordination Sequence:
#
# PCOD9483241 Si02
#       7
#     8  16  16   8  16   8  16
#     4  10  18  28  44  63  84 111 141 172 202 243
#     4  10  18  28  43  61  83 113 143 166 204 246
#     4   9  17  29  43  59  80 108 145 183 209 234
#     4  10  18  29  42  59  86 115 139 168 213 253
#     4   9  17  28  42  59  81 110 142 173 207 250
#     4   9  16  28  45  64  84 108 134 164 205 250
#     4  10  18  29  45  65  86 106 137 173 205 244
#
# _framework density 13.338291999999999
#
# number of rings (size 3 to 8) (size 9 to 14) (size 15 to 20)
#    0.000    2.455    2.727    1.091    0.000    2.364 
#    0.000    0.909    0.000    2.727    0.000    0.000 
#    0.000    0.000    0.000    0.000    0.000   22.545 
#
# Total GULP energy -245011.898102 kJ/mol
# GULP energy per Si atom -5568.452230 kJ/mol
# Density = 1.330793 g / cm^3
# Si number density = 13.338292 Si / 1000 Ang^3
#
#
#
# Elastic Constant Matrix: (Units=GPa)
#
#
# Indices 1 2 3 4 5 6 
#
# 1 78.3161 56.0370 51.8175 0.0000 0.0000 0.0000
# 2 56.0370 110.1115 60.8783 0.0000 0.0000 0.0000
# 3 51.8175 60.8783 73.3843 0.0000 0.0000 0.0000
# 4 0.0000 0.0000 0.0000 20.2250 0.0000 0.0000
# 5 0.0000 0.0000 0.0000 0.0000 16.4802 0.0000
# 6 0.0000 0.0000 0.0000 0.0000 0.0000 21.8543
#
#
#
# Elastic Compliance Matrix: (Units=1/GPa)
#
#
# Indices 1 2 3 4 5 6 
#
# 1 0.025727 -0.005632 -0.013493 0.000000 0.000000 0.000000
# 2 -0.005632 0.018009 -0.010963 0.000000 0.000000 0.000000
# 3 -0.013493 -0.010963 0.032250 0.000000 0.000000 0.000000
# 4 0.000000 0.000000 0.000000 0.049444 0.000000 0.000000
# 5 0.000000 0.000000 0.000000 0.000000 0.060679 0.000000
# 6 0.000000 0.000000 0.000000 0.000000 0.000000 0.045758
#
#
# Mechanical properties :
#
#
# Convention : Reuss Voigt Hill
#
# Bulk Modulus (GPa) = 63.26001 66.58636 64.92318
# Shear Modulus (GPa) = 16.81728 17.91716 17.36722
#
# Velocity S-wave (km/s) = 3.55466 3.66906 3.61232
# Velocity P-wave (km/s) = 8.02358 8.24494 8.13501
#
# Compressibility (1/GPa) = 0.01580778
#
# Stress axis : x y z
#
# Youngs Moduli (GPa) = 38.87001 55.52655 31.00815
#
# Poissons Ratio (x) = 0.31275 0.41841
# Poissons Ratio (y) = 0.21893 0.33995
# Poissons Ratio (z) = 0.52449 0.60875
#
# Static dielectric constant tensor:
#      x y z
#    x 1.418480 0.000000 0.000000 
#    y 0.000000 1.435410 0.000000 
#    z 0.000000 0.000000 1.427680 
# 
# From -- ./inp_files/42783.got.cif
#   From: 2010.05.17/outbox.cif.g08.bks.cpg/sg65_22_cif.got.tgz:42783.got - 2010.06.03 17:01:31.
