data_PCOD9483619
_publ_section_title
;
Structure prediction by ZEFSAII (Michael W. Deem and Ramdas Pophale) SiO2 
 PCOD9483619
Probable space group: C M M M
;
_chemical_formula_sum "Si O2"
_cell_formula_units_Z 80
_cell_length_a 20.141263
_cell_length_b 21.911221
_cell_length_c 7.479210
_cell_angle_alpha 90.000000
_cell_angle_beta 90.000000
_cell_angle_gamma 90.000000
_cell_volume 3300.722450
_symmetry_space_group_name_H-M "C M M M"
_symmetry_group_IT_number 65
_symmetry_cell_setting 'orthorhombic'
loop_
_space_group_symop_operation_xyz
x,y,z
-x,-y,z
x,-y,-z
-x,y,-z
-x,-y,-z
x,y,-z
-x,y,z
x,-y,z
1/2+x,1/2+y,z
1/2-x,1/2-y,z
1/2+x,1/2-y,-z
1/2-x,1/2+y,-z
1/2-x,1/2-y,-z
1/2+x,1/2+y,-z
1/2-x,1/2+y,z
1/2+x,1/2-y,z
loop_
_atom_site_type_symbol
_atom_site_label
_atom_site_fract_x
_atom_site_fract_y
_atom_site_fract_z
Si Si1 0.783480 0.567569 0.780836
Si Si2 0.575010 0.432553 0.782080
Si Si3 0.573521 0.765136 0.712162
Si Si4 0.928305 0.406563 0.793080
Si Si5 0.820966 0.165522 0.214108
O O1 0.755504 0.500000 0.733122
O O2 0.859297 0.570081 0.716872
O O3 0.744955 0.629394 0.722155
O O4 0.782819 0.569039 0.000000
O O5 0.500000 0.422782 0.724656
O O6 0.595780 0.500000 0.727740
O O7 0.622585 0.380593 0.719073
O O8 0.576041 0.431370 0.000000
O O9 0.569859 0.770001 0.500000
O O10 0.500000 0.738431 0.771877
O O11 0.576193 0.833031 0.789286
O O12 0.642743 0.729805 0.749023
O O13 0.000000 0.423258 0.713358
O O14 0.929427 0.426132 0.000000
O O15 0.815299 0.164873 0.000000
#
# Coordination Sequence:
#
# PCOD9483619 Si02
#       5
#    16  16  16  16  16
#     4   9  18  32  52  81 111 135 166 213 264 308
#     4   8  13  21  36  61  90 120 158 201 240 281
#     4  10  21  36  53  74 103 138 175 217 261 303
#     4   9  18  34  56  79 103 134 173 215 259 311
#     4  10  18  29  49  75 104 136 169 207 252 306
#
# _framework density 24.237117999999999
#
# number of rings (size 3 to 8) (size 9 to 14) (size 15 to 20)
#    0.000    2.800    0.000    2.400    0.000    5.600 
#    0.000    7.000    0.000    4.200    0.000    9.800 
#    0.000    0.000    0.000    0.000    0.000    0.000 
#
# Total GULP energy -222929.057730 kJ/mol
# GULP energy per Si atom -5573.226443 kJ/mol
# Density = 2.418195 g / cm^3
# Si number density = 24.237118 Si / 1000 Ang^3
#
#
#
# Elastic Constant Matrix: (Units=GPa)
#
#
# Indices 1 2 3 4 5 6 
#
# 1 144.4340 51.8836 9.4731 0.0000 0.0000 0.0000
# 2 51.8836 95.4334 -0.6163 0.0000 0.0000 0.0000
# 3 9.4731 -0.6163 77.1299 0.0000 0.0000 0.0000
# 4 0.0000 0.0000 0.0000 15.7247 0.0000 0.0000
# 5 0.0000 0.0000 0.0000 0.0000 -9.3547 0.0000
# 6 0.0000 0.0000 0.0000 0.0000 0.0000 38.0699
#
#
#
# Elastic Compliance Matrix: (Units=1/GPa)
#
#
# Indices 1 2 3 4 5 6 
#
# 1 0.008697 -0.004735 -0.001106 0.000000 0.000000 0.000000
# 2 -0.004735 0.013057 0.000686 0.000000 0.000000 0.000000
# 3 -0.001106 0.000686 0.013106 0.000000 0.000000 0.000000
# 4 0.000000 0.000000 0.000000 0.063594 0.000000 0.000000
# 5 0.000000 0.000000 0.000000 0.000000 -0.106898 0.000000
# 6 0.000000 0.000000 0.000000 0.000000 0.000000 0.026267
#
#
# Mechanical properties :
#
#
# Convention : Reuss Voigt Hill
#
# Bulk Modulus (GPa) = 40.73321 48.71976 44.72649
# Shear Modulus (GPa) = 137.66661 25.97177 81.81919
#
# Velocity S-wave (km/s) = 7.54475 3.27704 5.81645
# Velocity P-wave (km/s) = 9.63017 5.87057 7.97508
#
# Compressibility (1/GPa) = 0.02454999
#
# Stress axis : x y z
#
# Youngs Moduli (GPa) = 114.97950 76.58461 76.29819
#
# Poissons Ratio (x) = 0.36267 0.08439
# Poissons Ratio (y) = 0.54448 -0.05234
# Poissons Ratio (z) = 0.12717 -0.05253
#
# Static dielectric constant tensor:
#      x y z
#    x 1.978880 0.000000 0.000000 
#    y 0.000000 1.943190 0.000000 
#    z 0.000000 0.000000 1.942100 
# 
# From -- ./inp_files/9671.got.cif
#   From: 2010.05.17/outbox.cif.g08.bks.cpg/sg65_5_cif.got.tgz:9671.got - 2010.06.03 17:01:31.
