data_PCOD9483560
_publ_section_title
;
Structure prediction by ZEFSAII (Michael W. Deem and Ramdas Pophale) SiO2 
 PCOD9483560
Probable space group: C M M M
;
_chemical_formula_sum "Si O2"
_cell_formula_units_Z 104
_cell_length_a 15.465380
_cell_length_b 18.806859
_cell_length_c 19.754902
_cell_angle_alpha 90.000000
_cell_angle_beta 90.000000
_cell_angle_gamma 90.000000
_cell_volume 5745.816388
_symmetry_space_group_name_H-M "C M M M"
_symmetry_group_IT_number 65
_symmetry_cell_setting 'orthorhombic'
loop_
_space_group_symop_operation_xyz
x,y,z
-x,-y,z
x,-y,-z
-x,y,-z
-x,-y,-z
x,y,-z
-x,y,z
x,-y,z
1/2+x,1/2+y,z
1/2-x,1/2-y,z
1/2+x,1/2-y,-z
1/2-x,1/2+y,-z
1/2-x,1/2-y,-z
1/2+x,1/2+y,-z
1/2-x,1/2+y,z
1/2+x,1/2-y,z
loop_
_atom_site_type_symbol
_atom_site_label
_atom_site_fract_x
_atom_site_fract_y
_atom_site_fract_z
Si Si1 0.902582 0.638596 0.919661
Si Si2 0.229329 0.921784 0.293467
Si Si3 0.600031 0.138187 0.646577
Si Si4 0.727124 0.578293 0.131036
Si Si5 0.653372 0.279051 0.716954
Si Si6 0.895890 0.581705 0.500000
Si Si7 0.098078 0.201772 0.129629
O O1 0.826103 0.593982 0.887074
O O2 0.885958 0.721507 0.903306
O O3 0.000000 0.621963 0.894811
O O4 0.900967 0.627961 0.000000
O O5 0.329048 0.904818 0.310557
O O6 0.219877 0.921688 0.212392
O O7 0.170088 0.855818 0.316823
O O8 0.206229 0.000000 0.319460
O O9 0.500000 0.116139 0.656318
O O10 0.609758 0.219990 0.669862
O O11 0.625855 0.123047 0.568792
O O12 0.701838 0.500000 0.105902
O O13 0.666219 0.642384 0.106919
O O14 0.750000 0.250000 0.732931
O O15 0.606852 0.287343 0.789078
O O16 0.862802 0.500000 0.500000
O O17 0.000000 0.576907 0.500000
O O18 0.000000 0.179992 0.113880
#
# Coordination Sequence:
#
# PCOD9483560 Si02
#       7
#    16  16  16  16  16   8  16
#     4  10  21  36  54  75  98 128 166 205 248 298
#     4   9  18  32  48  68  97 128 156 191 239 291
#     4  10  18  29  48  71  94 123 160 200 240 284
#     4  10  21  35  51  74 103 132 162 201 249 297
#     4   9  17  30  48  72  99 126 158 200 246 289
#     4   9  18  30  43  66 101 133 159 193 242 295
#     4  10  19  33  54  76  99 129 166 205 244 292
#
# _framework density 18.100125999999999
#
# number of rings (size 3 to 8) (size 9 to 14) (size 15 to 20)
#    0.000    2.385    0.000    4.154    0.000    4.923 
#    0.000    5.769    0.000    1.385    0.000    3.231 
#    0.000    1.846    0.000    0.000    0.000    1.846 
#
# Total GULP energy -289879.158727 kJ/mol
# GULP energy per Si atom -5574.599206 kJ/mol
# Density = 1.805893 g / cm^3
# Si number density = 18.100126 Si / 1000 Ang^3
#
#
#
# Elastic Constant Matrix: (Units=GPa)
#
#
# Indices 1 2 3 4 5 6 
#
# 1 32.7191 3.1459 -3.5323 0.0000 0.0000 0.0000
# 2 3.1459 78.6579 4.6926 0.0000 0.0000 0.0000
# 3 -3.5323 4.6926 9.5279 0.0000 0.0000 0.0000
# 4 0.0000 0.0000 0.0000 -30.9592 0.0000 0.0000
# 5 0.0000 0.0000 0.0000 0.0000 12.9931 0.0000
# 6 0.0000 0.0000 0.0000 0.0000 0.0000 17.2530
#
#
#
# Elastic Compliance Matrix: (Units=1/GPa)
#
#
# Indices 1 2 3 4 5 6 
#
# 1 0.032158 -0.002058 0.012935 0.000000 0.000000 0.000000
# 2 -0.002058 0.013230 -0.007279 0.000000 0.000000 0.000000
# 3 0.012935 -0.007279 0.113335 0.000000 0.000000 0.000000
# 4 0.000000 0.000000 0.000000 -0.032301 0.000000 0.000000
# 5 0.000000 0.000000 0.000000 0.000000 0.076964 0.000000
# 6 0.000000 0.000000 0.000000 0.000000 0.000000 0.057961
#
#
# Mechanical properties :
#
#
# Convention : Reuss Voigt Hill
#
# Bulk Modulus (GPa) = 6.02701 14.39083 10.20892
# Shear Modulus (GPa) = 16.15739 7.63064 11.89402
#
# Velocity S-wave (km/s) = 2.99100 2.05547 2.56622
# Velocity P-wave (km/s) = 3.90706 3.68798 3.79910
#
# Compressibility (1/GPa) = 0.16591964
#
# Stress axis : x y z
#
# Youngs Moduli (GPa) = 31.09693 75.58684 8.82339
#
# Poissons Ratio (x) = 0.15554 -0.11413
# Poissons Ratio (y) = 0.06399 0.06422
# Poissons Ratio (z) = -0.40224 0.55018
#
# Static dielectric constant tensor:
#      x y z
#    x 1.616500 0.000000 0.000000 
#    y 0.000000 1.667110 0.000000 
#    z 0.000000 0.000000 1.613740 
# 
# From -- ./inp_files/62890.got.cif
#   From: 2010.05.17/outbox.cif.g08.bks.cpg/sg65_32_cif.got.tgz:62890.got - 2010.06.03 17:01:31.
