data_PCOD9483553
_publ_section_title
;
Structure prediction by ZEFSAII (Michael W. Deem and Ramdas Pophale) SiO2 
 PCOD9483553
Probable space group: C M M M
;
_chemical_formula_sum "Si O2"
_cell_formula_units_Z 88
_cell_length_a 8.391964
_cell_length_b 25.586431
_cell_length_c 22.709192
_cell_angle_alpha 90.000000
_cell_angle_beta 90.000000
_cell_angle_gamma 90.000000
_cell_volume 4876.126968
_symmetry_space_group_name_H-M "C M M M"
_symmetry_group_IT_number 65
_symmetry_cell_setting 'orthorhombic'
loop_
_space_group_symop_operation_xyz
x,y,z
-x,-y,z
x,-y,-z
-x,y,-z
-x,-y,-z
x,y,-z
-x,y,z
x,-y,z
1/2+x,1/2+y,z
1/2-x,1/2-y,z
1/2+x,1/2-y,-z
1/2-x,1/2+y,-z
1/2-x,1/2-y,-z
1/2+x,1/2+y,-z
1/2-x,1/2+y,z
1/2+x,1/2-y,z
loop_
_atom_site_type_symbol
_atom_site_label
_atom_site_fract_x
_atom_site_fract_y
_atom_site_fract_z
Si Si1 0.690926 0.500000 0.067489
Si Si2 0.691872 0.500000 0.612103
Si Si3 0.309450 0.692433 0.200476
Si Si4 0.194900 0.888493 0.434171
Si Si5 0.809427 0.584261 0.841406
Si Si6 0.807599 0.192565 0.335589
Si Si7 0.692344 0.000000 0.254467
O O1 0.500000 0.500000 0.068120
O O2 0.749899 0.449245 0.103178
O O3 0.746572 0.500000 0.000000
O O4 0.500000 0.500000 0.608701
O O5 0.747769 0.552835 0.580871
O O6 0.738946 0.500000 0.680445
O O7 0.500000 0.693110 0.200339
O O8 0.250000 0.750000 0.182354
O O9 0.251023 0.643294 0.162882
O O10 0.253112 0.683431 0.268268
O O11 0.244671 0.873129 0.500000
O O12 0.248969 0.849975 0.382481
O O13 0.000000 0.888105 0.433447
O O14 0.757401 0.550703 0.783718
O O15 0.000000 0.584196 0.842017
O O16 0.750000 0.250000 0.352955
O O17 0.000000 0.191661 0.334994
O O18 0.500000 0.000000 0.257750
#
# Coordination Sequence:
#
# PCOD9483553 Si02
#       7
#     8   8  16  16  16  16   8
#     4  10  21  37  58  84 113 146 181 214 248 288
#     4  10  18  29  48  69  87 115 157 201 249 306
#     4  10  19  32  51  76 106 137 171 212 259 311
#     4   9  17  29  45  65  88 115 153 202 251 301
#     4  10  20  34  53  79 109 140 175 212 254 301
#     4   9  18  31  47  68  93 123 159 201 250 302
#     4   9  19  32  47  71 102 131 158 201 259 309
#
# _framework density 18.04711
#
# number of rings (size 3 to 8) (size 9 to 14) (size 15 to 20)
#    0.000    2.455    0.000    3.273    0.000    6.545 
#    0.000    0.909    0.000    2.727    0.000    0.000 
#    0.000    0.000    0.000    0.000    0.000    0.000 
#
# Total GULP energy -245505.184737 kJ/mol
# GULP energy per Si atom -5579.663289 kJ/mol
# Density = 1.800603 g / cm^3
# Si number density = 18.047110 Si / 1000 Ang^3
#
#
#
# Elastic Constant Matrix: (Units=GPa)
#
#
# Indices 1 2 3 4 5 6 
#
# 1 22.1575 24.4673 13.0181 0.0000 0.0000 0.0000
# 2 24.4673 159.6842 64.2982 0.0000 0.0000 0.0000
# 3 13.0181 64.2982 85.0752 0.0000 0.0000 0.0000
# 4 0.0000 0.0000 0.0000 -7.3673 0.0000 0.0000
# 5 0.0000 0.0000 0.0000 0.0000 13.5336 0.0000
# 6 0.0000 0.0000 0.0000 0.0000 0.0000 27.4482
#
#
#
# Elastic Compliance Matrix: (Units=1/GPa)
#
#
# Indices 1 2 3 4 5 6 
#
# 1 0.054827 -0.007220 -0.002933 0.000000 0.000000 0.000000
# 2 -0.007220 0.009953 -0.006417 0.000000 0.000000 0.000000
# 3 -0.002933 -0.006417 0.017053 0.000000 0.000000 0.000000
# 4 0.000000 0.000000 0.000000 -0.135736 0.000000 0.000000
# 5 0.000000 0.000000 0.000000 0.000000 0.073890 0.000000
# 6 0.000000 0.000000 0.000000 0.000000 0.000000 0.036432
#
#
# Mechanical properties :
#
#
# Convention : Reuss Voigt Hill
#
# Bulk Modulus (GPa) = 20.53694 52.27601 36.40647
# Shear Modulus (GPa) = 47.26336 17.73180 32.49758
#
# Velocity S-wave (km/s) = 5.12306 3.13793 4.24808
# Velocity P-wave (km/s) = 6.81165 6.49293 6.65420
#
# Compressibility (1/GPa) = 0.04869276
#
# Stress axis : x y z
#
# Youngs Moduli (GPa) = 18.23919 100.47706 58.64040
#
# Poissons Ratio (x) = 0.72542 0.17199
# Poissons Ratio (y) = 0.13168 0.37631
# Poissons Ratio (z) = 0.05350 0.64478
#
# Static dielectric constant tensor:
#      x y z
#    x 1.615390 0.000000 0.000000 
#    y 0.000000 1.614820 0.000000 
#    z 0.000000 0.000000 1.605020 
# 
# From -- ./inp_files/59924.got.cif
#   From: 2010.05.17/outbox.cif.g08.bks.cpg/sg65_30_cif.got.tgz:59924.got - 2010.06.03 17:01:31.
