data_PCOD9483891
_publ_section_title
;
Structure prediction by ZEFSAII (Michael W. Deem and Ramdas Pophale) SiO2 
 PCOD9483891
Probable space group: C M M M
;
_chemical_formula_sum "Si O2"
_cell_formula_units_Z 80
_cell_length_a 8.275621
_cell_length_b 29.126469
_cell_length_c 19.069583
_cell_angle_alpha 90.000000
_cell_angle_beta 90.000000
_cell_angle_gamma 90.000000
_cell_volume 4596.525012
_symmetry_space_group_name_H-M "C M M M"
_symmetry_group_IT_number 65
_symmetry_cell_setting 'orthorhombic'
loop_
_space_group_symop_operation_xyz
x,y,z
-x,-y,z
x,-y,-z
-x,y,-z
-x,-y,-z
x,y,-z
-x,y,z
x,-y,z
1/2+x,1/2+y,z
1/2-x,1/2-y,z
1/2+x,1/2-y,-z
1/2-x,1/2+y,-z
1/2-x,1/2-y,-z
1/2+x,1/2+y,-z
1/2-x,1/2+y,z
1/2+x,1/2-y,z
loop_
_atom_site_type_symbol
_atom_site_label
_atom_site_fract_x
_atom_site_fract_y
_atom_site_fract_z
Si Si1 0.695608 0.552509 0.152604
Si Si2 0.195049 0.357711 0.785636
Si Si3 0.695327 0.197216 0.922471
Si Si4 0.814699 0.055933 0.000000
Si Si5 0.193111 0.302739 0.649510
Si Si6 0.691413 0.697092 0.500000
O O1 0.500000 0.552366 0.148478
O O2 0.746506 0.500000 0.166048
O O3 0.751256 0.589804 0.208013
O O4 0.760025 0.567581 0.075181
O O5 0.254296 0.331548 0.855825
O O6 0.252604 0.332019 0.715737
O O7 0.000000 0.355932 0.785832
O O8 0.500000 0.196172 0.921824
O O9 0.750000 0.250000 0.915562
O O10 0.749254 0.180586 0.000000
O O11 0.000000 0.072795 0.000000
O O12 0.821991 0.000000 0.000000
O O13 0.250000 0.250000 0.656043
O O14 0.247407 0.322086 0.574019
O O15 0.000000 0.302217 0.650353
O O16 0.500000 0.696646 0.500000
O O17 0.750000 0.750000 0.500000
#
# Coordination Sequence:
#
# PCOD9483891 Si02
#       6
#    16  16  16   8  16   8
#     4   9  18  32  49  68  91 121 160 205 248 290
#     4  10  21  32  46  70  97 127 159 197 243 287
#     4   9  18  32  46  62  89 124 162 200 234 272
#     4   7  12  26  45  63  84 111 148 197 246 285
#     4  10  19  32  49  72 102 131 161 194 234 282
#     4  10  18  30  50  74  99 128 159 190 234 283
#
# _framework density 17.404451999999999
#
# number of rings (size 3 to 8) (size 9 to 14) (size 15 to 20)
#    0.000    2.700    0.000    4.500    1.400    2.800 
#    0.000    0.000    0.000    1.800    0.000    0.700 
#    0.000    5.600    0.000    0.000    0.000    0.000 
#
# Total GULP energy -222982.363477 kJ/mol
# GULP energy per Si atom -5574.559087 kJ/mol
# Density = 1.736484 g / cm^3
# Si number density = 17.404452 Si / 1000 Ang^3
#
#
#
# Elastic Constant Matrix: (Units=GPa)
#
#
# Indices 1 2 3 4 5 6 
#
# 1 24.2402 7.7499 24.0816 0.0000 0.0000 0.0000
# 2 7.7499 78.4755 75.5827 0.0000 0.0000 0.0000
# 3 24.0816 75.5827 159.6765 0.0000 0.0000 0.0000
# 4 0.0000 0.0000 0.0000 18.0945 0.0000 0.0000
# 5 0.0000 0.0000 0.0000 0.0000 8.7899 0.0000
# 6 0.0000 0.0000 0.0000 0.0000 0.0000 20.6032
#
#
#
# Elastic Compliance Matrix: (Units=1/GPa)
#
#
# Indices 1 2 3 4 5 6 
#
# 1 0.049270 0.004211 -0.009424 0.000000 0.000000 0.000000
# 2 0.004211 0.023780 -0.011891 0.000000 0.000000 0.000000
# 3 -0.009424 -0.011891 0.013313 0.000000 0.000000 0.000000
# 4 0.000000 0.000000 0.000000 0.055265 0.000000 0.000000
# 5 0.000000 0.000000 0.000000 0.000000 0.113767 0.000000
# 6 0.000000 0.000000 0.000000 0.000000 0.000000 0.048536
#
#
# Mechanical properties :
#
#
# Convention : Reuss Voigt Hill
#
# Bulk Modulus (GPa) = 19.17411 53.02451 36.09931
# Shear Modulus (GPa) = 14.06375 19.82938 16.94656
#
# Velocity S-wave (km/s) = 2.84571 3.37905 3.12379
# Velocity P-wave (km/s) = 4.67313 6.76433 5.81353
#
# Compressibility (1/GPa) = 0.05215365
#
# Stress axis : x y z
#
# Youngs Moduli (GPa) = 20.29644 42.05235 75.11682
#
# Poissons Ratio (x) = -0.17707 0.70788
# Poissons Ratio (y) = -0.08546 0.89323
# Poissons Ratio (z) = 0.19127 0.50005
#
# Static dielectric constant tensor:
#      x y z
#    x 1.604260 0.000000 0.000000 
#    y 0.000000 1.583280 0.000000 
#    z 0.000000 0.000000 1.636190 
# 
# From -- ./inp_files/50219.got.cif
#   From: 2010.05.17/outbox.cif.g08.bks.cpg/sg65_26_cif.got.tgz:50219.got - 2010.06.03 17:01:31.
