data_PCOD9483332
_publ_section_title
;
Structure prediction by ZEFSAII (Michael W. Deem and Ramdas Pophale) SiO2 
 PCOD9483332
Probable space group: C M M M
;
_chemical_formula_sum "Si O2"
_cell_formula_units_Z 104
_cell_length_a 7.596314
_cell_length_b 27.900891
_cell_length_c 24.291505
_cell_angle_alpha 90.000000
_cell_angle_beta 90.000000
_cell_angle_gamma 90.000000
_cell_volume 5148.437009
_symmetry_space_group_name_H-M "C M M M"
_symmetry_group_IT_number 65
_symmetry_cell_setting 'orthorhombic'
loop_
_space_group_symop_operation_xyz
x,y,z
-x,-y,z
x,-y,-z
-x,y,-z
-x,-y,-z
x,y,-z
-x,y,z
x,-y,z
1/2+x,1/2+y,z
1/2-x,1/2-y,z
1/2+x,1/2-y,-z
1/2-x,1/2+y,-z
1/2-x,1/2-y,-z
1/2+x,1/2+y,-z
1/2-x,1/2+y,z
1/2+x,1/2-y,z
loop_
_atom_site_type_symbol
_atom_site_label
_atom_site_fract_x
_atom_site_fract_y
_atom_site_fract_z
Si Si1 0.289661 0.605417 0.437139
Si Si2 0.788034 0.196235 0.241612
Si Si3 0.209382 0.694338 0.938556
Si Si4 0.209074 0.500000 0.562669
Si Si5 0.211453 0.196402 0.632328
Si Si6 0.285825 0.443865 0.938990
Si Si7 0.197875 0.875713 0.153200
O O1 0.219707 0.605941 0.500000
O O2 0.500000 0.610894 0.440297
O O3 0.258798 0.551927 0.413066
O O4 0.222536 0.651046 0.402747
O O5 0.750000 0.250000 0.219837
O O6 0.722817 0.194367 0.304559
O O7 0.719569 0.151922 0.205103
O O8 0.000000 0.191960 0.241646
O O9 0.250000 0.750000 0.933558
O O10 0.309513 0.666071 0.892130
O O11 0.000000 0.686580 0.932704
O O12 0.263778 0.679713 0.000000
O O13 0.284270 0.500000 0.500000
O O14 0.000000 0.500000 0.559516
O O15 0.250000 0.250000 0.610340
O O16 0.000000 0.192549 0.634707
O O17 0.500000 0.438179 0.938866
O O18 0.248040 0.500000 0.935337
O O19 0.217861 0.417095 0.884527
O O20 0.223973 0.427620 0.000000
O O21 0.000000 0.891577 0.169054
#
# Coordination Sequence:
#
# PCOD9483332 Si02
#       7
#    16  16  16   8  16  16  16
#     4   9  17  30  49  71  97 131 166 200 243 295
#     4   9  18  31  46  65  90 119 152 188 226 271
#     4  10  20  31  42  60  88 116 141 173 216 265
#     4   9  17  29  47  73 101 127 159 201 242 283
#     4   9  18  32  48  67  96 128 162 201 242 290
#     4   8  14  25  42  64  87 110 139 177 221 267
#     4  10  18  28  46  67  87 112 146 185 223 266
#
# _framework density 20.200303999999999
#
# number of rings (size 3 to 8) (size 9 to 14) (size 15 to 20)
#    0.000    2.846    0.000    2.077    0.000    5.231 
#    0.000    0.000    1.692    0.462    0.000    2.154 
#    0.000    0.000    0.000    0.000    0.000    0.000 
#
# Total GULP energy -289680.403827 kJ/mol
# GULP energy per Si atom -5570.776997 kJ/mol
# Density = 2.015433 g / cm^3
# Si number density = 20.200304 Si / 1000 Ang^3
#
#
#
# Elastic Constant Matrix: (Units=GPa)
#
#
# Indices 1 2 3 4 5 6 
#
# 1 50.5298 -3.5426 4.5459 0.0000 0.0000 0.0000
# 2 -3.5426 164.3963 62.9809 0.0000 0.0000 0.0000
# 3 4.5459 62.9809 65.8765 0.0000 0.0000 0.0000
# 4 0.0000 0.0000 0.0000 37.2540 0.0000 0.0000
# 5 0.0000 0.0000 0.0000 0.0000 5.9793 0.0000
# 6 0.0000 0.0000 0.0000 0.0000 0.0000 15.8602
#
#
#
# Elastic Compliance Matrix: (Units=1/GPa)
#
#
# Indices 1 2 3 4 5 6 
#
# 1 0.020154 0.001526 -0.002850 0.000000 0.000000 0.000000
# 2 0.001526 0.009714 -0.009392 0.000000 0.000000 0.000000
# 3 -0.002850 -0.009392 0.024356 0.000000 0.000000 0.000000
# 4 0.000000 0.000000 0.000000 0.026843 0.000000 0.000000
# 5 0.000000 0.000000 0.000000 0.000000 0.167244 0.000000
# 6 0.000000 0.000000 0.000000 0.000000 0.000000 0.063051
#
#
# Mechanical properties :
#
#
# Convention : Reuss Voigt Hill
#
# Bulk Modulus (GPa) = 30.49549 45.41901 37.95725
# Shear Modulus (GPa) = 14.54658 26.27327 20.40993
#
# Velocity S-wave (km/s) = 2.68641 3.61035 3.18209
# Velocity P-wave (km/s) = 4.97511 6.31764 5.68614
#
# Compressibility (1/GPa) = 0.03279174
#
# Stress axis : x y z
#
# Youngs Moduli (GPa) = 49.61880 102.94455 41.05764
#
# Poissons Ratio (x) = -0.15709 0.11700
# Poissons Ratio (y) = -0.07572 0.38563
# Poissons Ratio (z) = 0.14140 0.96688
#
# Static dielectric constant tensor:
#      x y z
#    x 1.786230 0.000000 0.000000 
#    y 0.000000 1.749650 0.000000 
#    z 0.000000 0.000000 1.738610 
# 
# From -- ./inp_files/68141.got.cif
#   From: 2010.05.17/outbox.cif.g08.bks.cpg/sg65_35_cif.got.tgz:68141.got - 2010.06.03 17:01:31.
