data_PCOD9483225
_publ_section_title
;
Structure prediction by ZEFSAII (Michael W. Deem and Ramdas Pophale) SiO2 
 PCOD9483225
Probable space group: C M M M
;
_chemical_formula_sum "Si O2"
_cell_formula_units_Z 96
_cell_length_a 28.104583
_cell_length_b 8.571082
_cell_length_c 24.646673
_cell_angle_alpha 90.000000
_cell_angle_beta 90.000000
_cell_angle_gamma 90.000000
_cell_volume 5937.055367
_symmetry_space_group_name_H-M "C M M M"
_symmetry_group_IT_number 65
_symmetry_cell_setting 'orthorhombic'
loop_
_space_group_symop_operation_xyz
x,y,z
-x,-y,z
x,-y,-z
-x,y,-z
-x,-y,-z
x,y,-z
-x,y,z
x,-y,z
1/2+x,1/2+y,z
1/2-x,1/2-y,z
1/2+x,1/2-y,-z
1/2-x,1/2+y,-z
1/2-x,1/2-y,-z
1/2+x,1/2+y,-z
1/2-x,1/2+y,z
1/2+x,1/2-y,z
loop_
_atom_site_type_symbol
_atom_site_label
_atom_site_fract_x
_atom_site_fract_y
_atom_site_fract_z
Si Si1 0.605812 0.188455 0.110722
Si Si2 0.854730 0.187953 0.276281
Si Si3 0.302589 0.313246 0.834000
Si Si4 0.303918 0.687646 0.386602
Si Si5 0.055089 0.690666 0.000000
Si Si6 0.195804 0.313940 0.500000
Si Si7 0.553883 0.188215 0.221675
O O1 0.658001 0.253822 0.123585
O O2 0.572538 0.234211 0.161717
O O3 0.608404 0.000000 0.110214
O O4 0.582536 0.240206 0.054341
O O5 0.821528 0.239057 0.225640
O O6 0.833364 0.238008 0.333770
O O7 0.907329 0.248972 0.263652
O O8 0.855480 0.000000 0.275721
O O9 0.301712 0.500000 0.834595
O O10 0.250000 0.250000 0.843976
O O11 0.302325 0.500000 0.388944
O O12 0.250000 0.750000 0.381050
O O13 0.324661 0.751255 0.443353
O O14 0.054620 0.500000 0.000000
O O15 0.000000 0.740743 0.000000
O O16 0.196507 0.500000 0.500000
O O17 0.250000 0.250000 0.500000
O O18 0.500000 0.242117 0.230677
O O19 0.554246 0.000000 0.223522
#
# Coordination Sequence:
#
# PCOD9483225 Si02
#       7
#    16  16  16  16   8   8  16
#     4   9  17  30  48  70  94 119 149 184 224 269
#     4   9  19  31  45  67  92 119 151 186 224 268
#     4  10  19  32  48  67  92 121 153 187 225 267
#     4  10  18  29  44  64  91 121 153 186 221 261
#     4   9  16  28  50  75  94 115 148 189 228 269
#     4  10  18  28  42  62  89 122 155 184 220 261
#     4   9  17  29  46  68  93 119 147 182 224 269
#
# _framework density 16.169632
#
# number of rings (size 3 to 8) (size 9 to 14) (size 15 to 20)
#    0.000    2.583    0.000    3.750    0.000    4.333 
#    0.000    0.833    0.000    2.000    0.000    0.583 
#    0.000    4.667    0.000    0.000    0.000    0.000 
#
# Total GULP energy -267611.629112 kJ/mol
# GULP energy per Si atom -5575.242273 kJ/mol
# Density = 1.613283 g / cm^3
# Si number density = 16.169632 Si / 1000 Ang^3
#
#
#
# Elastic Constant Matrix: (Units=GPa)
#
#
# Indices 1 2 3 4 5 6 
#
# 1 142.0762 24.9641 83.1037 0.0000 0.0000 0.0000
# 2 24.9641 29.6143 30.2950 0.0000 0.0000 0.0000
# 3 83.1037 30.2950 150.2855 0.0000 0.0000 0.0000
# 4 0.0000 0.0000 0.0000 18.3065 0.0000 0.0000
# 5 0.0000 0.0000 0.0000 0.0000 20.8593 0.0000
# 6 0.0000 0.0000 0.0000 0.0000 0.0000 23.3313
#
#
#
# Elastic Compliance Matrix: (Units=1/GPa)
#
#
# Indices 1 2 3 4 5 6 
#
# 1 0.010723 -0.003746 -0.005175 0.000000 0.000000 0.000000
# 2 -0.003746 0.043848 -0.006768 0.000000 0.000000 0.000000
# 3 -0.005175 -0.006768 0.010880 0.000000 0.000000 0.000000
# 4 0.000000 0.000000 0.000000 0.054625 0.000000 0.000000
# 5 0.000000 0.000000 0.000000 0.000000 0.047940 0.000000
# 6 0.000000 0.000000 0.000000 0.000000 0.000000 0.042861
#
#
# Mechanical properties :
#
#
# Convention : Reuss Voigt Hill
#
# Bulk Modulus (GPa) = 29.34710 66.52241 47.93475
# Shear Modulus (GPa) = 19.71509 24.74031 22.22770
#
# Velocity S-wave (km/s) = 3.49559 3.91583 3.71166
# Velocity P-wave (km/s) = 5.87206 7.85332 6.93382
#
# Compressibility (1/GPa) = 0.03407492
#
# Stress axis : x y z
#
# Youngs Moduli (GPa) = 93.25350 22.80585 91.91451
#
# Poissons Ratio (x) = 0.08543 0.47562
# Poissons Ratio (y) = 0.34933 0.62204
# Poissons Ratio (z) = 0.48255 0.15434
#
# Static dielectric constant tensor:
#      x y z
#    x 1.519770 0.000000 0.000000 
#    y 0.000000 1.550500 0.000000 
#    z 0.000000 0.000000 1.556320 
# 
# From -- ./inp_files/71720.got.cif
#   From: 2010.05.17/outbox.cif.g08.bks.cpg/sg65_36_cif.got.tgz:71720.got - 2010.06.03 17:01:31.
