data_PCOD9483345
_publ_section_title
;
Structure prediction by ZEFSAII (Michael W. Deem and Ramdas Pophale) SiO2 
 PCOD9483345
Probable space group: C M M M
;
_chemical_formula_sum "Si O2"
_cell_formula_units_Z 88
_cell_length_a 19.701293
_cell_length_b 8.528682
_cell_length_c 29.901156
_cell_angle_alpha 90.000000
_cell_angle_beta 90.000000
_cell_angle_gamma 90.000000
_cell_volume 5024.173521
_symmetry_space_group_name_H-M "C M M M"
_symmetry_group_IT_number 65
_symmetry_cell_setting 'orthorhombic'
loop_
_space_group_symop_operation_xyz
x,y,z
-x,-y,z
x,-y,-z
-x,y,-z
-x,-y,-z
x,y,-z
-x,y,z
x,-y,z
1/2+x,1/2+y,z
1/2-x,1/2-y,z
1/2+x,1/2-y,-z
1/2-x,1/2+y,-z
1/2-x,1/2-y,-z
1/2+x,1/2+y,-z
1/2-x,1/2+y,z
1/2+x,1/2-y,z
loop_
_atom_site_type_symbol
_atom_site_label
_atom_site_fract_x
_atom_site_fract_y
_atom_site_fract_z
Si Si1 0.172465 0.187994 0.451344
Si Si2 0.172841 0.189056 0.000000
Si Si3 0.578649 0.189111 0.823852
Si Si4 0.673044 0.312097 0.097646
Si Si5 0.578118 0.191084 0.276941
Si Si6 0.673048 0.811974 0.357790
O O1 0.142241 0.231720 0.500000
O O2 0.250000 0.250000 0.452055
O O3 0.143180 0.256225 0.405506
O O4 0.173625 0.000000 0.448377
O O5 0.250000 0.250000 0.000000
O O6 0.144965 0.239162 0.048479
O O7 0.172812 0.000000 0.000000
O O8 0.500000 0.235209 0.830967
O O9 0.626894 0.253604 0.862080
O O10 0.598143 0.239648 0.773375
O O11 0.581355 0.000000 0.824838
O O12 0.675306 0.500000 0.098356
O O13 0.750000 0.250000 0.102000
O O14 0.500000 0.239040 0.284624
O O15 0.627950 0.243824 0.316108
O O16 0.578730 0.000000 0.277257
O O17 0.750000 0.750000 0.353828
O O18 0.675244 0.000000 0.357892
#
# Coordination Sequence:
#
# PCOD9483345 Si02
#       6
#    16   8  16  16  16  16
#     4   9  16  26  41  62  90 121 150 182 223 270
#     4   8  16  30  47  68  95 127 157 191 235 280
#     4   9  18  34  53  71  95 127 161 197 239 285
#     4  10  19  32  51  74  99 126 160 198 237 282
#     4   8  16  32  51  68  89 122 159 191 228 274
#     4  10  18  28  46  70  94 118 148 189 230 269
#
# _framework density 17.515318000000001
#
# number of rings (size 3 to 8) (size 9 to 14) (size 15 to 20)
#    0.000    2.909    0.000    3.818    0.000    2.909 
#    0.000    4.091    0.000    7.636    0.000    3.818 
#    0.000    0.000    0.000    0.000    0.000    0.000 
#
# Total GULP energy -244971.817725 kJ/mol
# GULP energy per Si atom -5567.541312 kJ/mol
# Density = 1.747545 g / cm^3
# Si number density = 17.515318 Si / 1000 Ang^3
#
#
#
# Elastic Constant Matrix: (Units=GPa)
#
#
# Indices 1 2 3 4 5 6 
#
# 1 53.8019 17.8362 88.0665 0.0000 0.0000 0.0000
# 2 17.8362 28.9633 36.9286 0.0000 0.0000 0.0000
# 3 88.0665 36.9286 225.5852 0.0000 0.0000 0.0000
# 4 0.0000 0.0000 0.0000 25.9496 0.0000 0.0000
# 5 0.0000 0.0000 0.0000 0.0000 -10.6973 0.0000
# 6 0.0000 0.0000 0.0000 0.0000 0.0000 17.1765
#
#
#
# Elastic Compliance Matrix: (Units=1/GPa)
#
#
# Indices 1 2 3 4 5 6 
#
# 1 0.052879 -0.007890 -0.019352 0.000000 0.000000 0.000000
# 2 -0.007890 0.044811 -0.004255 0.000000 0.000000 0.000000
# 3 -0.019352 -0.004255 0.012684 0.000000 0.000000 0.000000
# 4 0.000000 0.000000 0.000000 0.038536 0.000000 0.000000
# 5 0.000000 0.000000 0.000000 0.000000 -0.093481 0.000000
# 6 0.000000 0.000000 0.000000 0.000000 0.000000 0.058219
#
#
# Mechanical properties :
#
#
# Convention : Reuss Voigt Hill
#
# Bulk Modulus (GPa) = 21.10617 66.00145 43.55381
# Shear Modulus (GPa) = 25.98275 17.52036 21.75155
#
# Velocity S-wave (km/s) = 3.85571 3.16616 3.52782
# Velocity P-wave (km/s) = 5.64786 7.15053 6.44315
#
# Compressibility (1/GPa) = 0.04737951
#
# Stress axis : x y z
#
# Youngs Moduli (GPa) = 18.91125 22.31595 78.83773
#
# Poissons Ratio (x) = 0.17607 1.52565
# Poissons Ratio (y) = 0.14921 0.33549
# Poissons Ratio (z) = 0.36597 0.09496
#
# Static dielectric constant tensor:
#      x y z
#    x 1.560860 0.000000 0.000000 
#    y 0.000000 1.605760 0.000000 
#    z 0.000000 0.000000 1.651590 
# 
# From -- ./inp_files/77829.got.cif
#   From: 2010.05.17/outbox.cif.g08.bks.cpg/sg65_39_cif.got.tgz:77829.got - 2010.06.03 17:01:31.
