data_PCOD9483022
_publ_section_title
;
Structure prediction by ZEFSAII (Michael W. Deem and Ramdas Pophale) SiO2 
 PCOD9483022
Probable space group: C M M M
;
_chemical_formula_sum "Si O2"
_cell_formula_units_Z 72
_cell_length_a 24.158957
_cell_length_b 8.473594
_cell_length_c 18.296040
_cell_angle_alpha 90.000000
_cell_angle_beta 90.000000
_cell_angle_gamma 90.000000
_cell_volume 3745.440769
_symmetry_space_group_name_H-M "C M M M"
_symmetry_group_IT_number 65
_symmetry_cell_setting 'orthorhombic'
loop_
_space_group_symop_operation_xyz
x,y,z
-x,-y,z
x,-y,-z
-x,y,-z
-x,-y,-z
x,y,-z
-x,y,z
x,-y,z
1/2+x,1/2+y,z
1/2-x,1/2-y,z
1/2+x,1/2-y,-z
1/2-x,1/2+y,-z
1/2-x,1/2-y,-z
1/2+x,1/2+y,-z
1/2-x,1/2+y,z
1/2+x,1/2-y,z
loop_
_atom_site_type_symbol
_atom_site_label
_atom_site_fract_x
_atom_site_fract_y
_atom_site_fract_z
Si Si1 0.187754 0.310272 0.219870
Si Si2 0.378842 0.310548 0.359912
Si Si3 0.812696 0.687431 0.500000
Si Si4 0.883778 0.307624 0.082548
Si Si5 0.000000 0.309059 0.846920
Si Si6 0.500000 0.690498 0.680582
O O1 0.187068 0.500000 0.222944
O O2 0.250000 0.250000 0.227540
O O3 0.150364 0.245702 0.285600
O O4 0.161050 0.258644 0.142753
O O5 0.377632 0.500000 0.362707
O O6 0.345250 0.245658 0.428561
O O7 0.442979 0.257550 0.357383
O O8 0.810697 0.500000 0.500000
O O9 0.750000 0.750000 0.500000
O O10 0.883687 0.500000 0.081351
O O11 0.944446 0.259040 0.111077
O O12 0.873418 0.252853 0.000000
O O13 0.000000 0.500000 0.844289
O O14 0.000000 0.247554 0.764312
O O15 0.500000 0.500000 0.681100
#
# Coordination Sequence:
#
# PCOD9483022 Si02
#       6
#    16  16   8  16   8   8
#     4  11  22  37  58  84 116 157 204 252 300 354
#     4  11  23  42  65  91 123 159 197 239 293 355
#     4  12  26  45  68  95 125 158 198 244 289 342
#     4   9  18  32  54  85 117 152 197 249 303 356
#     4  10  17  32  59  87 115 150 198 249 296 355
#     4  10  22  38  62  91 124 158 191 238 297 354
#
# _framework density 19.223372000000001
#
# number of rings (size 3 to 8) (size 9 to 14) (size 15 to 20)
#    0.000    1.556    2.222    3.333    0.000    3.111 
#    0.000    2.222    0.000    6.000    0.000    0.000 
#    0.000    0.000    0.000    0.000    0.000    0.000 
#
# Total GULP energy -201190.677882 kJ/mol
# GULP energy per Si atom -5588.629941 kJ/mol
# Density = 1.917962 g / cm^3
# Si number density = 19.223372 Si / 1000 Ang^3
#
#
#
# Elastic Constant Matrix: (Units=GPa)
#
#
# Indices 1 2 3 4 5 6 
#
# 1 194.8591 44.2776 95.7059 0.0000 0.0000 0.0000
# 2 44.2776 51.3138 36.4936 0.0000 0.0000 0.0000
# 3 95.7059 36.4936 161.2633 0.0000 0.0000 0.0000
# 4 0.0000 0.0000 0.0000 5.8388 0.0000 0.0000
# 5 0.0000 0.0000 0.0000 0.0000 17.5821 0.0000
# 6 0.0000 0.0000 0.0000 0.0000 0.0000 13.5228
#
#
#
# Elastic Compliance Matrix: (Units=1/GPa)
#
#
# Indices 1 2 3 4 5 6 
#
# 1 0.007925 -0.004164 -0.003761 0.000000 0.000000 0.000000
# 2 -0.004164 0.025413 -0.003280 0.000000 0.000000 0.000000
# 3 -0.003761 -0.003280 0.009176 0.000000 0.000000 0.000000
# 4 0.000000 0.000000 0.000000 0.171268 0.000000 0.000000
# 5 0.000000 0.000000 0.000000 0.000000 0.056876 0.000000
# 6 0.000000 0.000000 0.000000 0.000000 0.000000 0.073949
#
#
# Mechanical properties :
#
#
# Convention : Reuss Voigt Hill
#
# Bulk Modulus (GPa) = 49.74037 84.48783 67.11410
# Shear Modulus (GPa) = 13.37904 22.78602 18.08253
#
# Velocity S-wave (km/s) = 2.64100 3.44660 3.07033
# Velocity P-wave (km/s) = 5.93557 7.73852 6.89622
#
# Compressibility (1/GPa) = 0.02010440
#
# Stress axis : x y z
#
# Youngs Moduli (GPa) = 126.17656 39.34945 108.98556
#
# Poissons Ratio (x) = 0.16384 0.40993
# Poissons Ratio (y) = 0.52536 0.35747
# Poissons Ratio (z) = 0.47459 0.12906
#
# Static dielectric constant tensor:
#      x y z
#    x 1.652520 0.000000 0.000000 
#    y 0.000000 1.655560 0.000000 
#    z 0.000000 0.000000 1.637860 
# 
# From -- ./inp_files/46594.got.cif
#   From: 2010.05.17/outbox.cif.g08.bks.cpg/sg65_24_cif.got.tgz:46594.got - 2010.06.03 17:01:31.
