data_PCOD9483824
_publ_section_title
;
Structure prediction by ZEFSAII (Michael W. Deem and Ramdas Pophale) SiO2 
 PCOD9483824
Probable space group: C M M M
;
_chemical_formula_sum "Si O2"
_cell_formula_units_Z 88
_cell_length_a 14.894108
_cell_length_b 10.793153
_cell_length_c 27.025187
_cell_angle_alpha 90.000000
_cell_angle_beta 90.000000
_cell_angle_gamma 90.000000
_cell_volume 4344.417355
_symmetry_space_group_name_H-M "C M M M"
_symmetry_group_IT_number 65
_symmetry_cell_setting 'orthorhombic'
loop_
_space_group_symop_operation_xyz
x,y,z
-x,-y,z
x,-y,-z
-x,y,-z
-x,-y,-z
x,y,-z
-x,y,z
x,-y,z
1/2+x,1/2+y,z
1/2-x,1/2-y,z
1/2+x,1/2-y,-z
1/2-x,1/2+y,-z
1/2-x,1/2-y,-z
1/2+x,1/2+y,-z
1/2-x,1/2+y,z
1/2+x,1/2-y,z
loop_
_atom_site_type_symbol
_atom_site_label
_atom_site_fract_x
_atom_site_fract_y
_atom_site_fract_z
Si Si1 0.859542 0.000000 0.442313
Si Si2 0.393022 0.636137 0.108996
Si Si3 0.355647 0.749946 0.391256
Si Si4 0.109782 0.640951 0.822786
Si Si5 0.608114 0.140132 0.290008
Si Si6 0.860281 0.500000 0.557353
Si Si7 0.680262 0.639300 0.000000
O O1 0.891403 0.123756 0.414610
O O2 0.749550 0.000000 0.440595
O O3 0.884572 0.000000 0.500000
O O4 0.500000 0.633741 0.116488
O O5 0.357580 0.500000 0.124294
O O6 0.358278 0.752790 0.140075
O O7 0.375143 0.649957 0.050667
O O8 0.250000 0.750000 0.402723
O O9 0.365247 0.764569 0.332428
O O10 0.392632 0.875416 0.415793
O O11 0.137002 0.500000 0.835553
O O12 0.137182 0.667700 0.766070
O O13 0.000000 0.640939 0.823555
O O14 0.500000 0.136494 0.289426
O O15 0.640082 0.000000 0.302777
O O16 0.885488 0.500000 0.500000
O O17 0.750000 0.750000 0.000000
O O18 0.720811 0.500000 0.000000
#
# Coordination Sequence:
#
# PCOD9483824 Si02
#       7
#     8  16  16  16  16   8   8
#     4   9  18  30  45  69  97 125 157 200 249 288
#     4   9  17  32  54  77  99 127 168 212 247 283
#     4  10  18  30  49  72  97 123 159 202 244 290
#     4   8  15  29  50  74  98 126 162 205 247 287
#     4   9  17  32  53  73  96 128 164 200 242 291
#     4   9  16  28  49  71  91 121 163 204 237 282
#     4  10  21  35  51  73 107 142 170 200 246 298
#
# _framework density 20.255880999999999
#
# number of rings (size 3 to 8) (size 9 to 14) (size 15 to 20)
#    0.000    2.909    0.909    1.909    0.000    4.000 
#    1.636    1.364    0.000    8.182    0.000    0.000 
#    0.000    0.000    0.000    0.000    0.000    0.000 
#
# Total GULP energy -245393.698541 kJ/mol
# GULP energy per Si atom -5577.129512 kJ/mol
# Density = 2.020978 g / cm^3
# Si number density = 20.255881 Si / 1000 Ang^3
#
#
#
# Elastic Constant Matrix: (Units=GPa)
#
#
# Indices 1 2 3 4 5 6 
#
# 1 38.7342 13.9665 -2.3864 0.0000 0.0000 0.0000
# 2 13.9665 203.0605 124.0659 0.0000 0.0000 0.0000
# 3 -2.3864 124.0659 140.2460 0.0000 0.0000 0.0000
# 4 0.0000 0.0000 0.0000 41.8109 0.0000 0.0000
# 5 0.0000 0.0000 0.0000 0.0000 15.5369 0.0000
# 6 0.0000 0.0000 0.0000 0.0000 0.0000 0.4275
#
#
#
# Elastic Compliance Matrix: (Units=1/GPa)
#
#
# Indices 1 2 3 4 5 6 
#
# 1 0.027837 -0.004797 0.004717 0.000000 0.000000 0.000000
# 2 -0.004797 0.011544 -0.010294 0.000000 0.000000 0.000000
# 3 0.004717 -0.010294 0.016317 0.000000 0.000000 0.000000
# 4 0.000000 0.000000 0.000000 0.023917 0.000000 0.000000
# 5 0.000000 0.000000 0.000000 0.000000 0.064363 0.000000
# 6 0.000000 0.000000 0.000000 0.000000 0.000000 2.339005
#
#
# Mechanical properties :
#
#
# Convention : Reuss Voigt Hill
#
# Bulk Modulus (GPa) = 28.61154 72.59252 50.60203
# Shear Modulus (GPa) = 1.98777 27.98137 14.98457
#
# Velocity S-wave (km/s) = 0.99170 3.72074 2.72281
# Velocity P-wave (km/s) = 3.93281 7.37388 5.90936
#
# Compressibility (1/GPa) = 0.03495093
#
# Stress axis : x y z
#
# Youngs Moduli (GPa) = 35.92325 86.62754 61.28752
#
# Poissons Ratio (x) = 0.41551 -0.28908
# Poissons Ratio (y) = 0.17231 0.63086
# Poissons Ratio (z) = -0.16944 0.89170
#
# Static dielectric constant tensor:
#      x y z
#    x 1.738080 0.000000 0.000000 
#    y 0.000000 1.733790 0.000000 
#    z 0.000000 0.000000 1.700730 
# 
# From -- ./inp_files/78013.got.cif
#   From: 2010.05.17/outbox.cif.g08.bks.cpg/sg65_40_cif.got.tgz:78013.got - 2010.06.03 17:01:31.
