data_PCOD9483682
_publ_section_title
;
Structure prediction by ZEFSAII (Michael W. Deem and Ramdas Pophale) SiO2 
 PCOD9483682
Probable space group: C M M M
;
_chemical_formula_sum "Si O2"
_cell_formula_units_Z 120
_cell_length_a 24.341667
_cell_length_b 23.363685
_cell_length_c 14.118161
_cell_angle_alpha 90.000000
_cell_angle_beta 90.000000
_cell_angle_gamma 90.000000
_cell_volume 8029.154027
_symmetry_space_group_name_H-M "C M M M"
_symmetry_group_IT_number 65
_symmetry_cell_setting 'orthorhombic'
loop_
_space_group_symop_operation_xyz
x,y,z
-x,-y,z
x,-y,-z
-x,y,-z
-x,-y,-z
x,y,-z
-x,y,z
x,-y,z
1/2+x,1/2+y,z
1/2-x,1/2-y,z
1/2+x,1/2-y,-z
1/2-x,1/2+y,-z
1/2-x,1/2-y,-z
1/2+x,1/2+y,-z
1/2-x,1/2+y,z
1/2+x,1/2-y,z
loop_
_atom_site_type_symbol
_atom_site_label
_atom_site_fract_x
_atom_site_fract_y
_atom_site_fract_z
Si Si1 0.935926 0.838489 0.388013
Si Si2 0.937015 0.500000 0.384430
Si Si3 0.937437 0.653214 0.889655
Si Si4 0.269133 0.931964 0.707425
Si Si5 0.435599 0.780488 0.706259
Si Si6 0.155225 0.933015 0.388454
Si Si7 0.337666 0.933094 0.109682
Si Si8 0.626470 0.885643 0.387370
O O1 0.931506 0.823829 0.500000
O O2 0.920359 0.782865 0.327001
O O3 0.895858 0.891541 0.369906
O O4 0.000000 0.852345 0.369618
O O5 0.936302 0.500000 0.500000
O O6 0.906482 0.557693 0.353605
O O7 0.000000 0.500000 0.353493
O O8 0.930416 0.705738 0.817587
O O9 0.890402 0.606485 0.869775
O O10 0.000000 0.630883 0.874883
O O11 0.932850 0.669333 0.000000
O O12 0.207018 0.918754 0.678021
O O13 0.289060 0.922229 0.815265
O O14 0.311357 0.895942 0.644493
O O15 0.276778 0.000000 0.686979
O O16 0.500000 0.788250 0.680249
O O17 0.400189 0.828970 0.655009
O O18 0.170949 0.926440 0.500000
O O19 0.141213 0.000000 0.374894
O O20 0.353003 0.000000 0.118857
O O21 0.321536 0.923335 0.000000
O O22 0.622572 0.883365 0.500000
#
# Coordination Sequence:
#
# PCOD9483682 Si02
#       8
#    16   8  16  16  16  16  16  16
#     4   9  18  33  52  74  99 124 150 184 230 285
#     4   9  18  28  36  52  81 117 162 208 233 252
#     4   9  17  29  45  65  89 120 162 208 248 283
#     4  10  18  30  46  66  92 125 160 194 236 280
#     4  10  19  31  46  65  91 126 161 194 237 282
#     4   9  18  32  52  76  99 122 150 186 229 282
#     4   9  17  29  45  65  89 120 161 207 250 285
#     4  11  19  27  40  60  87 124 165 197 229 268
#
# _framework density 14.945535
#
# number of rings (size 3 to 8) (size 9 to 14) (size 15 to 20)
#    0.000    2.467    2.000    1.200    0.000    2.400 
#    0.000    3.333    0.000    3.200    0.000    1.867 
#    0.000    0.000    0.000   10.400    0.000    0.267 
#
# Total GULP energy -334298.155507 kJ/mol
# GULP energy per Si atom -5571.635925 kJ/mol
# Density = 1.491152 g / cm^3
# Si number density = 14.945535 Si / 1000 Ang^3
#
#
#
# Elastic Constant Matrix: (Units=GPa)
#
#
# Indices 1 2 3 4 5 6 
#
# 1 88.9912 67.6474 48.3060 0.0000 0.0000 0.0000
# 2 67.6474 85.2050 48.7719 0.0000 0.0000 0.0000
# 3 48.3060 48.7719 77.6160 0.0000 0.0000 0.0000
# 4 0.0000 0.0000 0.0000 17.3861 0.0000 0.0000
# 5 0.0000 0.0000 0.0000 0.0000 20.1062 0.0000
# 6 0.0000 0.0000 0.0000 0.0000 0.0000 18.1908
#
#
#
# Elastic Compliance Matrix: (Units=1/GPa)
#
#
# Indices 1 2 3 4 5 6 
#
# 1 0.029909 -0.020444 -0.005768 0.000000 0.000000 0.000000
# 2 -0.020444 0.032304 -0.007575 0.000000 0.000000 0.000000
# 3 -0.005768 -0.007575 0.021234 0.000000 0.000000 0.000000
# 4 0.000000 0.000000 0.000000 0.057517 0.000000 0.000000
# 5 0.000000 0.000000 0.000000 0.000000 0.049736 0.000000
# 6 0.000000 0.000000 0.000000 0.000000 0.000000 0.054973
#
#
# Mechanical properties :
#
#
# Convention : Reuss Voigt Hill
#
# Bulk Modulus (GPa) = 63.00312 64.58477 63.79394
# Shear Modulus (GPa) = 15.69681 16.94242 16.31962
#
# Velocity S-wave (km/s) = 3.24430 3.37057 3.30804
# Velocity P-wave (km/s) = 7.50204 7.64558 7.57415
#
# Compressibility (1/GPa) = 0.01587223
#
# Stress axis : x y z
#
# Youngs Moduli (GPa) = 33.43516 30.95626 47.09528
#
# Poissons Ratio (x) = 0.63287 0.27164
# Poissons Ratio (y) = 0.68355 0.35674
# Poissons Ratio (z) = 0.19285 0.23449
#
# Static dielectric constant tensor:
#      x y z
#    x 1.485220 0.000000 0.000000 
#    y 0.000000 1.471560 0.000000 
#    z 0.000000 0.000000 1.516040 
# 
# From -- ./inp_files/44710.got.cif
#   From: 2010.05.17/outbox.cif.g08.bks.cpg/sg65_23_cif.got.tgz:44710.got - 2010.06.03 17:01:31.
