data_PCOD9483583
_publ_section_title
;
Structure prediction by ZEFSAII (Michael W. Deem and Ramdas Pophale) SiO2 
 PCOD9483583
Probable space group: C M M M
;
_chemical_formula_sum "Si O2"
_cell_formula_units_Z 72
_cell_length_a 19.069652
_cell_length_b 8.471779
_cell_length_c 24.445094
_cell_angle_alpha 90.000000
_cell_angle_beta 90.000000
_cell_angle_gamma 90.000000
_cell_volume 3949.199718
_symmetry_space_group_name_H-M "C M M M"
_symmetry_group_IT_number 65
_symmetry_cell_setting 'orthorhombic'
loop_
_space_group_symop_operation_xyz
x,y,z
-x,-y,z
x,-y,-z
-x,y,-z
-x,-y,-z
x,y,-z
-x,y,z
x,-y,z
1/2+x,1/2+y,z
1/2-x,1/2-y,z
1/2+x,1/2-y,-z
1/2-x,1/2+y,-z
1/2-x,1/2-y,-z
1/2+x,1/2+y,-z
1/2-x,1/2+y,z
1/2+x,1/2-y,z
loop_
_atom_site_type_symbol
_atom_site_label
_atom_site_fract_x
_atom_site_fract_y
_atom_site_fract_z
Si Si1 0.670086 0.310545 0.894833
Si Si2 0.419351 0.307372 0.000000
Si Si3 0.081317 0.807735 0.560691
Si Si4 0.329678 0.689612 0.664580
Si Si5 0.669721 0.812106 0.779322
O O1 0.672393 0.500000 0.893367
O O2 0.750000 0.250000 0.901313
O O3 0.622862 0.258225 0.945840
O O4 0.640437 0.250215 0.836752
O O5 0.419791 0.500000 0.000000
O O6 0.500000 0.254636 0.000000
O O7 0.105469 0.756999 0.500000
O O8 0.127361 0.754277 0.611718
O O9 0.000000 0.761609 0.566966
O O10 0.082977 0.000000 0.560993
O O11 0.328916 0.500000 0.665816
O O12 0.250000 0.750000 0.660419
O O13 0.360900 0.749409 0.722276
O O14 0.750000 0.750000 0.779270
O O15 0.670084 0.000000 0.779146
#
# Coordination Sequence:
#
# PCOD9483583 Si02
#       5
#    16   8  16  16  16
#     4  10  18  31  53  76  98 124 159 199 235 279
#     4   9  19  34  51  73 100 129 160 196 236 277
#     4   8  15  29  48  69  93 123 161 201 236 275
#     4  10  18  29  48  73  99 125 155 194 240 285
#     4  10  18  30  48  70  98 127 158 196 236 280
#
# _framework density 18.231542000000001
#
# number of rings (size 3 to 8) (size 9 to 14) (size 15 to 20)
#    0.000    2.556    0.000    7.000    0.000    0.444 
#    0.000    2.778    0.000   16.667    0.000    6.222 
#    0.000    0.000    0.000    0.000    0.000    0.000 
#
# Total GULP energy -200676.867217 kJ/mol
# GULP energy per Si atom -5574.357423 kJ/mol
# Density = 1.819005 g / cm^3
# Si number density = 18.231542 Si / 1000 Ang^3
#
#
#
# Elastic Constant Matrix: (Units=GPa)
#
#
# Indices 1 2 3 4 5 6 
#
# 1 61.4545 15.7277 82.6116 0.0000 0.0000 0.0000
# 2 15.7277 67.8312 40.8680 0.0000 0.0000 0.0000
# 3 82.6116 40.8680 237.6329 0.0000 0.0000 0.0000
# 4 0.0000 0.0000 0.0000 22.4156 0.0000 0.0000
# 5 0.0000 0.0000 0.0000 0.0000 -14.6930 0.0000
# 6 0.0000 0.0000 0.0000 0.0000 0.0000 13.0186
#
#
#
# Elastic Compliance Matrix: (Units=1/GPa)
#
#
# Indices 1 2 3 4 5 6 
#
# 1 0.030584 -0.000765 -0.010501 0.000000 0.000000 0.000000
# 2 -0.000765 0.016466 -0.002566 0.000000 0.000000 0.000000
# 3 -0.010501 -0.002566 0.008300 0.000000 0.000000 0.000000
# 4 0.000000 0.000000 0.000000 0.044612 0.000000 0.000000
# 5 0.000000 0.000000 0.000000 0.000000 -0.068060 0.000000
# 6 0.000000 0.000000 0.000000 0.000000 0.000000 0.076813
#
#
# Mechanical properties :
#
#
# Convention : Reuss Voigt Hill
#
# Bulk Modulus (GPa) = 36.11825 71.70370 53.91098
# Shear Modulus (GPa) = 34.33905 19.32898 26.83401
#
# Velocity S-wave (km/s) = 4.34464 3.25959 3.84063
# Velocity P-wave (km/s) = 6.70982 7.31994 7.02151
#
# Compressibility (1/GPa) = 0.02768683
#
# Stress axis : x y z
#
# Youngs Moduli (GPa) = 32.69702 60.73218 120.48198
#
# Poissons Ratio (x) = 0.04644 1.26515
# Poissons Ratio (y) = 0.02500 0.30915
# Poissons Ratio (z) = 0.34334 0.15584
#
# Static dielectric constant tensor:
#      x y z
#    x 1.595430 0.000000 0.000000 
#    y 0.000000 1.633840 0.000000 
#    z 0.000000 0.000000 1.673510 
# 
# From -- ./inp_files/70343.got.cif
#   From: 2010.05.17/outbox.cif.g08.bks.cpg/sg65_36_cif.got.tgz:70343.got - 2010.06.03 17:01:31.
