data_PCOD9483113
_publ_section_title
;
Structure prediction by ZEFSAII (Michael W. Deem and Ramdas Pophale) SiO2 
 PCOD9483113
Probable space group: C M M M
;
_chemical_formula_sum "Si O2"
_cell_formula_units_Z 104
_cell_length_a 28.113258
_cell_length_b 8.462930
_cell_length_c 27.698893
_cell_angle_alpha 90.000000
_cell_angle_beta 90.000000
_cell_angle_gamma 90.000000
_cell_volume 6590.135428
_symmetry_space_group_name_H-M "C M M M"
_symmetry_group_IT_number 65
_symmetry_cell_setting 'orthorhombic'
loop_
_space_group_symop_operation_xyz
x,y,z
-x,-y,z
x,-y,-z
-x,y,-z
-x,-y,-z
x,y,-z
-x,y,z
x,-y,z
1/2+x,1/2+y,z
1/2-x,1/2-y,z
1/2+x,1/2-y,-z
1/2-x,1/2+y,-z
1/2-x,1/2-y,-z
1/2+x,1/2+y,-z
1/2-x,1/2+y,z
1/2+x,1/2-y,z
loop_
_atom_site_type_symbol
_atom_site_label
_atom_site_fract_x
_atom_site_fract_y
_atom_site_fract_z
Si Si1 0.195727 0.310319 0.342623
Si Si2 0.944789 0.806812 0.000000
Si Si3 0.648735 0.310513 0.754036
Si Si4 0.053079 0.807695 0.802952
Si Si5 0.695518 0.190860 0.551893
Si Si6 0.104890 0.191021 0.901067
Si Si7 0.697593 0.187776 0.149400
O O1 0.196438 0.500000 0.340968
O O2 0.250000 0.250000 0.338523
O O3 0.166372 0.247342 0.297521
O O4 0.176316 0.259114 0.395631
O O5 0.917154 0.756380 0.951746
O O6 0.000000 0.756702 0.000000
O O7 0.945217 0.000000 0.000000
O O8 0.650236 0.500000 0.755476
O O9 0.595067 0.257532 0.767004
O O10 0.681855 0.249257 0.797618
O O11 0.070362 0.763032 0.856688
O O12 0.000000 0.750309 0.792570
O O13 0.051991 0.000000 0.801884
O O14 0.674315 0.243009 0.500000
O O15 0.750000 0.250000 0.551759
O O16 0.695559 0.000000 0.551861
O O17 0.156985 0.253696 0.887504
O O18 0.107266 0.000000 0.901319
O O19 0.750000 0.250000 0.137630
O O20 0.698042 0.000000 0.150285
#
# Coordination Sequence:
#
# PCOD9483113 Si02
#       7
#    16   8  16  16  16  16  16
#     4  10  18  27  40  59  86 117 148 181 216 254
#     4   9  16  28  52  81 102 121 148 183 218 257
#     4  10  19  30  45  66  90 114 144 180 217 260
#     4   8  14  26  45  66  87 112 141 173 209 252
#     4   8  14  24  37  53  75 107 145 180 213 250
#     4   9  17  30  49  74  98 118 145 178 213 256
#     4  11  21  34  50  66  88 118 152 185 220 259
#
# _framework density 15.781162999999999
#
# number of rings (size 3 to 8) (size 9 to 14) (size 15 to 20)
#    0.000    2.692    0.000    4.154    0.000    2.462 
#    0.000    0.769    0.000   16.154    0.000    0.000 
#    0.000    0.615    0.000    7.692    0.000    0.000 
#
# Total GULP energy -289652.572115 kJ/mol
# GULP energy per Si atom -5570.241771 kJ/mol
# Density = 1.574524 g / cm^3
# Si number density = 15.781163 Si / 1000 Ang^3
#
#
#
# Elastic Constant Matrix: (Units=GPa)
#
#
# Indices 1 2 3 4 5 6 
#
# 1 113.0642 21.0900 75.4726 0.0000 0.0000 0.0000
# 2 21.0900 35.7493 27.7854 0.0000 0.0000 0.0000
# 3 75.4726 27.7854 164.8751 0.0000 0.0000 0.0000
# 4 0.0000 0.0000 0.0000 12.4528 0.0000 0.0000
# 5 0.0000 0.0000 0.0000 0.0000 18.8858 0.0000
# 6 0.0000 0.0000 0.0000 0.0000 0.0000 15.3118
#
#
#
# Elastic Compliance Matrix: (Units=1/GPa)
#
#
# Indices 1 2 3 4 5 6 
#
# 1 0.013113 -0.003533 -0.005407 0.000000 0.000000 0.000000
# 2 -0.003533 0.033141 -0.003968 0.000000 0.000000 0.000000
# 3 -0.005407 -0.003968 0.009209 0.000000 0.000000 0.000000
# 4 0.000000 0.000000 0.000000 0.080303 0.000000 0.000000
# 5 0.000000 0.000000 0.000000 0.000000 0.052950 0.000000
# 6 0.000000 0.000000 0.000000 0.000000 0.000000 0.065309
#
#
# Mechanical properties :
#
#
# Convention : Reuss Voigt Hill
#
# Bulk Modulus (GPa) = 33.73065 62.48719 48.10892
# Shear Modulus (GPa) = 17.25784 21.95278 19.60531
#
# Velocity S-wave (km/s) = 3.31051 3.73376 3.52848
# Velocity P-wave (km/s) = 6.00275 7.63348 6.86669
#
# Compressibility (1/GPa) = 0.02964663
#
# Stress axis : x y z
#
# Youngs Moduli (GPa) = 76.26053 30.17430 108.58996
#
# Poissons Ratio (x) = 0.10662 0.58715
# Poissons Ratio (y) = 0.26946 0.43084
# Poissons Ratio (z) = 0.41235 0.11972
#
# Static dielectric constant tensor:
#      x y z
#    x 1.508910 0.000000 0.000000 
#    y 0.000000 1.544390 0.000000 
#    z 0.000000 0.000000 1.553090 
# 
# From -- ./inp_files/76056.got.cif
#   From: 2010.05.17/outbox.cif.g08.bks.cpg/sg65_39_cif.got.tgz:76056.got - 2010.06.03 17:01:31.
