data_PCOD9483593
_publ_section_title
;
Structure prediction by ZEFSAII (Michael W. Deem and Ramdas Pophale) SiO2 
 PCOD9483593
Probable space group: C M M M
;
_chemical_formula_sum "Si O2"
_cell_formula_units_Z 96
_cell_length_a 29.223204
_cell_length_b 21.327150
_cell_length_c 7.474746
_cell_angle_alpha 90.000000
_cell_angle_beta 90.000000
_cell_angle_gamma 90.000000
_cell_volume 4658.617918
_symmetry_space_group_name_H-M "C M M M"
_symmetry_group_IT_number 65
_symmetry_cell_setting 'orthorhombic'
loop_
_space_group_symop_operation_xyz
x,y,z
-x,-y,z
x,-y,-z
-x,y,-z
-x,-y,-z
x,y,-z
-x,y,z
x,-y,z
1/2+x,1/2+y,z
1/2-x,1/2-y,z
1/2+x,1/2-y,-z
1/2-x,1/2+y,-z
1/2-x,1/2-y,-z
1/2+x,1/2+y,-z
1/2-x,1/2+y,z
1/2+x,1/2-y,z
loop_
_atom_site_type_symbol
_atom_site_label
_atom_site_fract_x
_atom_site_fract_y
_atom_site_fract_z
Si Si1 0.281626 0.155672 0.782908
Si Si2 0.054690 0.066767 0.710313
Si Si3 0.687622 0.297016 0.783558
Si Si4 0.135031 0.428956 0.213677
Si Si5 0.051931 0.665867 0.284587
Si Si6 0.083450 0.198120 0.295331
O O1 0.298775 0.225583 0.738565
O O2 0.228483 0.156436 0.725723
O O3 0.319042 0.105900 0.717365
O O4 0.281011 0.151708 0.000000
O O5 0.068737 0.067819 0.500000
O O6 0.067810 0.133293 0.791931
O O7 0.000000 0.064758 0.714292
O O8 0.071706 0.000000 0.785284
O O9 0.637995 0.306534 0.704861
O O10 0.684323 0.300368 0.000000
O O11 0.129725 0.500000 0.282395
O O12 0.090463 0.385613 0.241822
O O13 0.140555 0.433012 0.000000
O O14 0.050880 0.668519 0.500000
O O15 0.067610 0.734960 0.218456
O O16 0.000000 0.651801 0.223293
O O17 0.065544 0.198048 0.500000
#
# Coordination Sequence:
#
# PCOD9483593 Si02
#       6
#    16  16  16  16  16  16
#     4   8  15  30  50  71  93 122 158 193 233 285
#     4   8  14  26  45  67  92 126 164 196 230 278
#     4   9  16  29  51  72  95 125 156 191 237 291
#     4  10  20  35  55  75  96 126 168 214 251 288
#     4  10  21  35  50  71 101 134 166 204 252 301
#     4  10  18  29  48  76 102 125 159 205 244 280
#
# _framework density 20.606971000000001
#
# number of rings (size 3 to 8) (size 9 to 14) (size 15 to 20)
#    0.000    2.833    1.667    2.000    0.000    3.000 
#    0.000    5.000    0.000    3.000    0.000    1.167 
#    0.000    0.000    0.000    0.000    0.000    0.000 
#
# Total GULP energy -267443.431435 kJ/mol
# GULP energy per Si atom -5571.738155 kJ/mol
# Density = 2.056007 g / cm^3
# Si number density = 20.606971 Si / 1000 Ang^3
#
#
#
# Elastic Constant Matrix: (Units=GPa)
#
#
# Indices 1 2 3 4 5 6 
#
# 1 101.3475 65.8450 0.6166 0.0000 0.0000 0.0000
# 2 65.8450 174.7702 10.1444 0.0000 0.0000 0.0000
# 3 0.6166 10.1444 59.8914 0.0000 0.0000 0.0000
# 4 0.0000 0.0000 0.0000 5.1730 0.0000 0.0000
# 5 0.0000 0.0000 0.0000 0.0000 10.7296 0.0000
# 6 0.0000 0.0000 0.0000 0.0000 0.0000 24.3429
#
#
#
# Elastic Compliance Matrix: (Units=1/GPa)
#
#
# Indices 1 2 3 4 5 6 
#
# 1 0.013095 -0.004975 0.000708 0.000000 0.000000 0.000000
# 2 -0.004975 0.007668 -0.001248 0.000000 0.000000 0.000000
# 3 0.000708 -0.001248 0.016901 0.000000 0.000000 0.000000
# 4 0.000000 0.000000 0.000000 0.193311 0.000000 0.000000
# 5 0.000000 0.000000 0.000000 0.000000 0.093200 0.000000
# 6 0.000000 0.000000 0.000000 0.000000 0.000000 0.041080
#
#
# Mechanical properties :
#
#
# Convention : Reuss Voigt Hill
#
# Bulk Modulus (GPa) = 37.54435 54.35790 45.95113
# Shear Modulus (GPa) = 12.98154 25.34263 19.16209
#
# Velocity S-wave (km/s) = 2.51262 3.51067 3.05271
# Velocity P-wave (km/s) = 5.16493 6.54742 5.89683
#
# Compressibility (1/GPa) = 0.02663516
#
# Stress axis : x y z
#
# Youngs Moduli (GPa) = 76.36700 130.40564 59.16835
#
# Poissons Ratio (x) = 0.64871 -0.04188
# Poissons Ratio (y) = 0.37989 0.07382
# Poissons Ratio (z) = -0.05405 0.16270
#
# Static dielectric constant tensor:
#      x y z
#    x 1.735130 0.000000 0.000000 
#    y 0.000000 1.681080 0.000000 
#    z 0.000000 0.000000 1.833080 
# 
# From -- ./inp_files/12263.got.cif
#   From: 2010.05.17/outbox.cif.g08.bks.cpg/sg65_7_cif.got.tgz:12263.got - 2010.06.03 17:01:31.
