data_PCOD9483017
_publ_section_title
;
Structure prediction by ZEFSAII (Michael W. Deem and Ramdas Pophale) SiO2 
 PCOD9483017
Probable space group: C M M M
;
_chemical_formula_sum "Si O2"
_cell_formula_units_Z 80
_cell_length_a 7.561756
_cell_length_b 24.417324
_cell_length_c 20.999472
_cell_angle_alpha 90.000000
_cell_angle_beta 90.000000
_cell_angle_gamma 90.000000
_cell_volume 3877.297283
_symmetry_space_group_name_H-M "C M M M"
_symmetry_group_IT_number 65
_symmetry_cell_setting 'orthorhombic'
loop_
_space_group_symop_operation_xyz
x,y,z
-x,-y,z
x,-y,-z
-x,y,-z
-x,-y,-z
x,y,-z
-x,y,z
x,-y,z
1/2+x,1/2+y,z
1/2-x,1/2-y,z
1/2+x,1/2-y,-z
1/2-x,1/2+y,-z
1/2-x,1/2-y,-z
1/2+x,1/2+y,-z
1/2-x,1/2+y,z
1/2+x,1/2-y,z
loop_
_atom_site_type_symbol
_atom_site_label
_atom_site_fract_x
_atom_site_fract_y
_atom_site_fract_z
Si Si1 0.710591 0.314151 0.194136
Si Si2 0.292630 0.500000 0.891416
Si Si3 0.787312 0.312556 0.427712
Si Si4 0.205830 0.386576 0.685028
Si Si5 0.716421 0.619803 0.929472
Si Si6 0.784210 0.500000 0.741918
O O1 0.500000 0.321629 0.196958
O O2 0.750000 0.250000 0.195744
O O3 0.785336 0.345809 0.254994
O O4 0.775192 0.342111 0.128721
O O5 0.500000 0.500000 0.908297
O O6 0.221592 0.442574 0.917571
O O7 0.274461 0.500000 0.815209
O O8 0.720734 0.319992 0.500000
O O9 0.750000 0.250000 0.407894
O O10 0.717020 0.355575 0.376211
O O11 0.000000 0.317655 0.429564
O O12 0.279627 0.444957 0.707142
O O13 0.000000 0.396926 0.670378
O O14 0.500000 0.619465 0.927985
O O15 0.769814 0.638166 0.000000
O O16 0.000000 0.500000 0.743313
#
# Coordination Sequence:
#
# PCOD9483017 Si02
#       6
#    16   8  16  16  16   8
#     4  11  22  35  53  76 103 135 174 215 258 308
#     4  10  17  32  56  79  99 128 172 216 255 304
#     4   9  18  33  53  77 104 135 172 211 251 297
#     4  10  20  35  54  77 106 138 171 210 257 305
#     4   9  18  32  52  77 102 130 168 214 260 306
#     4  10  20  33  52  77 108 137 164 208 262 306
#
# _framework density 20.632929000000001
#
# number of rings (size 3 to 8) (size 9 to 14) (size 15 to 20)
#    0.000    2.200    2.000    1.500    0.000    4.000 
#    0.000    0.500    0.000    8.400    0.000    0.000 
#    0.000    5.600    0.000    0.000    0.000    0.000 
#
# Total GULP energy -223385.557833 kJ/mol
# GULP energy per Si atom -5584.638946 kJ/mol
# Density = 2.058597 g / cm^3
# Si number density = 20.632929 Si / 1000 Ang^3
#
#
#
# Elastic Constant Matrix: (Units=GPa)
#
#
# Indices 1 2 3 4 5 6 
#
# 1 48.2036 -15.3375 -14.0624 0.0000 0.0000 0.0000
# 2 -15.3375 131.1833 58.8930 0.0000 0.0000 0.0000
# 3 -14.0624 58.8930 113.8882 0.0000 0.0000 0.0000
# 4 0.0000 0.0000 0.0000 35.8994 0.0000 0.0000
# 5 0.0000 0.0000 0.0000 0.0000 16.3584 0.0000
# 6 0.0000 0.0000 0.0000 0.0000 0.0000 -10.6290
#
#
#
# Elastic Compliance Matrix: (Units=1/GPa)
#
#
# Indices 1 2 3 4 5 6 
#
# 1 0.021824 0.001747 0.001791 0.000000 0.000000 0.000000
# 2 0.001747 0.010068 -0.004990 0.000000 0.000000 0.000000
# 3 0.001791 -0.004990 0.011582 0.000000 0.000000 0.000000
# 4 0.000000 0.000000 0.000000 0.027856 0.000000 0.000000
# 5 0.000000 0.000000 0.000000 0.000000 0.061131 0.000000
# 6 0.000000 0.000000 0.000000 0.000000 0.000000 -0.094083
#
#
# Mechanical properties :
#
#
# Convention : Reuss Voigt Hill
#
# Bulk Modulus (GPa) = 24.64865 39.14016 31.89440
# Shear Modulus (GPa) = 91.23366 25.91122 58.57244
#
# Velocity S-wave (km/s) = 6.65684 3.54760 5.33380
# Velocity P-wave (km/s) = 8.42952 5.98260 7.30919
#
# Compressibility (1/GPa) = 0.04057018
#
# Stress axis : x y z
#
# Youngs Moduli (GPa) = 45.82140 99.32899 86.33916
#
# Poissons Ratio (x) = -0.17358 -0.15464
# Poissons Ratio (y) = -0.08007 0.43086
# Poissons Ratio (z) = -0.08207 0.49568
#
# Static dielectric constant tensor:
#      x y z
#    x 1.745610 0.000000 0.000000 
#    y 0.000000 1.706710 0.000000 
#    z 0.000000 0.000000 1.722050 
# 
# From -- ./inp_files/59699.got.cif
#   From: 2010.05.17/outbox.cif.g08.bks.cpg/sg65_30_cif.got.tgz:59699.got - 2010.06.03 17:01:31.
