data_PCOD9483034
_publ_section_title
;
Structure prediction by ZEFSAII (Michael W. Deem and Ramdas Pophale) SiO2 
 PCOD9483034
Probable space group: C M M M
;
_chemical_formula_sum "Si O2"
_cell_formula_units_Z 96
_cell_length_a 24.406304
_cell_length_b 8.142720
_cell_length_c 26.829476
_cell_angle_alpha 90.000000
_cell_angle_beta 90.000000
_cell_angle_gamma 90.000000
_cell_volume 5331.921027
_symmetry_space_group_name_H-M "C M M M"
_symmetry_group_IT_number 65
_symmetry_cell_setting 'orthorhombic'
loop_
_space_group_symop_operation_xyz
x,y,z
-x,-y,z
x,-y,-z
-x,y,-z
-x,-y,-z
x,y,-z
-x,y,z
x,-y,z
1/2+x,1/2+y,z
1/2-x,1/2-y,z
1/2+x,1/2-y,-z
1/2-x,1/2+y,-z
1/2-x,1/2-y,-z
1/2+x,1/2+y,-z
1/2-x,1/2+y,z
1/2+x,1/2-y,z
loop_
_atom_site_type_symbol
_atom_site_label
_atom_site_fract_x
_atom_site_fract_y
_atom_site_fract_z
Si Si1 0.384469 0.695612 0.256719
Si Si2 0.686299 0.198182 0.053487
Si Si3 0.883544 0.798761 0.556453
Si Si4 0.187488 0.198064 0.350645
Si Si5 0.313580 0.802690 0.837039
Si Si6 0.500000 0.305974 0.597551
Si Si7 0.500000 0.190122 0.709771
O O1 0.389755 0.500000 0.261183
O O2 0.349234 0.756455 0.304224
O O3 0.351266 0.736552 0.206933
O O4 0.445066 0.768689 0.260164
O O5 0.750000 0.250000 0.053039
O O6 0.666263 0.254171 0.107860
O O7 0.683390 0.000000 0.053503
O O8 0.662579 0.255918 0.000000
O O9 0.871955 0.747096 0.500000
O O10 0.839612 0.745130 0.597603
O O11 0.943739 0.741173 0.574014
O O12 0.883922 0.000000 0.557049
O O13 0.250000 0.250000 0.345427
O O14 0.185594 0.000000 0.350145
O O15 0.250000 0.750000 0.830676
O O16 0.314873 0.000000 0.835767
O O17 0.500000 0.500000 0.586764
O O18 0.500000 0.284848 0.657057
O O19 0.500000 0.000000 0.696602
#
# Coordination Sequence:
#
# PCOD9483034 Si02
#       7
#    16  16  16  16  16   8   8
#     4  11  22  38  56  75 101 135 174 216 260 310
#     4   8  14  25  42  66 100 140 178 215 254 297
#     4   9  17  31  54  80 101 128 169 211 251 301
#     4  10  21  35  52  74 101 134 170 207 248 300
#     4  10  19  31  49  77 110 144 181 218 258 306
#     4  10  17  34  58  80 102 127 165 209 256 309
#     4  12  24  37  57  81 103 129 162 209 264 318
#
# _framework density 18.004767999999999
#
# number of rings (size 3 to 8) (size 9 to 14) (size 15 to 20)
#    0.000    2.167    1.667    2.500    0.000    4.667 
#    0.000    0.000    0.000    2.000    0.000    0.583 
#    0.000    4.667    0.000    0.000    0.000    0.000 
#
# Total GULP energy -267686.288179 kJ/mol
# GULP energy per Si atom -5576.797670 kJ/mol
# Density = 1.796379 g / cm^3
# Si number density = 18.004768 Si / 1000 Ang^3
#
#
#
# Elastic Constant Matrix: (Units=GPa)
#
#
# Indices 1 2 3 4 5 6 
#
# 1 118.3624 7.0479 64.2599 0.0000 0.0000 0.0000
# 2 7.0479 10.3082 -3.9806 0.0000 0.0000 0.0000
# 3 64.2599 -3.9806 150.8654 0.0000 0.0000 0.0000
# 4 0.0000 0.0000 0.0000 14.6584 0.0000 0.0000
# 5 0.0000 0.0000 0.0000 0.0000 5.7295 0.0000
# 6 0.0000 0.0000 0.0000 0.0000 0.0000 20.8446
#
#
#
# Elastic Compliance Matrix: (Units=1/GPa)
#
#
# Indices 1 2 3 4 5 6 
#
# 1 0.011976 -0.010263 -0.005372 0.000000 0.000000 0.000000
# 2 -0.010263 0.106803 0.007189 0.000000 0.000000 0.000000
# 3 -0.005372 0.007189 0.009106 0.000000 0.000000 0.000000
# 4 0.000000 0.000000 0.000000 0.068220 0.000000 0.000000
# 5 0.000000 0.000000 0.000000 0.000000 0.174535 0.000000
# 6 0.000000 0.000000 0.000000 0.000000 0.000000 0.047974
#
#
# Mechanical properties :
#
#
# Convention : Reuss Voigt Hill
#
# Bulk Modulus (GPa) = 9.00944 46.02116 27.51530
# Shear Modulus (GPa) = 10.58193 22.39375 16.48784
#
# Velocity S-wave (km/s) = 2.42694 3.53054 3.02942
# Velocity P-wave (km/s) = 3.58723 6.49889 5.24899
#
# Compressibility (1/GPa) = 0.11099466
#
# Stress axis : x y z
#
# Youngs Moduli (GPa) = 83.49901 9.36305 109.81467
#
# Poissons Ratio (x) = 0.09609 0.58992
# Poissons Ratio (y) = 0.85693 -0.78949
# Poissons Ratio (z) = 0.44855 -0.06731
#
# Static dielectric constant tensor:
#      x y z
#    x 1.574620 0.000000 0.000000 
#    y 0.000000 1.650250 0.000000 
#    z 0.000000 0.000000 1.651110 
# 
# From -- ./inp_files/71475.got.cif
#   From: 2010.05.17/outbox.cif.g08.bks.cpg/sg65_36_cif.got.tgz:71475.got - 2010.06.03 17:01:31.
