data_PCOD9483883
_publ_section_title
;
Structure prediction by ZEFSAII (Michael W. Deem and Ramdas Pophale) SiO2 
 PCOD9483883
Probable space group: C M M M
;
_chemical_formula_sum "Si O2"
_cell_formula_units_Z 80
_cell_length_a 29.071992
_cell_length_b 8.757147
_cell_length_c 18.795775
_cell_angle_alpha 90.000000
_cell_angle_beta 90.000000
_cell_angle_gamma 90.000000
_cell_volume 4785.173268
_symmetry_space_group_name_H-M "C M M M"
_symmetry_group_IT_number 65
_symmetry_cell_setting 'orthorhombic'
loop_
_space_group_symop_operation_xyz
x,y,z
-x,-y,z
x,-y,-z
-x,y,-z
-x,-y,-z
x,y,-z
-x,y,z
x,-y,z
1/2+x,1/2+y,z
1/2-x,1/2-y,z
1/2+x,1/2-y,-z
1/2-x,1/2+y,-z
1/2-x,1/2-y,-z
1/2+x,1/2+y,-z
1/2-x,1/2+y,z
1/2+x,1/2-y,z
loop_
_atom_site_type_symbol
_atom_site_label
_atom_site_fract_x
_atom_site_fract_y
_atom_site_fract_z
Si Si1 0.698117 0.682919 0.000000
Si Si2 0.801491 0.316319 0.852768
Si Si3 0.946990 0.817816 0.349355
Si Si4 0.139008 0.316282 0.285559
Si Si5 0.555846 0.827484 0.500000
Si Si6 0.301276 0.815741 0.420840
O O1 0.750000 0.750000 0.000000
O O2 0.678602 0.746838 0.926009
O O3 0.699045 0.500000 0.000000
O O4 0.798282 0.500000 0.858966
O O5 0.750000 0.250000 0.842359
O O6 0.832929 0.276742 0.785311
O O7 0.911425 0.754010 0.292183
O O8 0.932002 0.755053 0.426823
O O9 0.000000 0.769207 0.337363
O O10 0.945814 0.000000 0.350868
O O11 0.135328 0.500000 0.288473
O O12 0.167639 0.264541 0.355112
O O13 0.500000 0.833465 0.500000
O O14 0.574308 0.000000 0.500000
O O15 0.318562 0.772410 0.500000
O O16 0.250000 0.750000 0.413352
O O17 0.298816 0.000000 0.418364
#
# Coordination Sequence:
#
# PCOD9483883 Si02
#       6
#     8  16  16  16   8  16
#     4  10  18  30  50  74 101 134 167 198 246 299
#     4  10  19  32  50  75 106 135 168 205 244 292
#     4  10  21  35  50  71  98 126 163 212 259 301
#     4  10  21  33  49  73  98 131 169 205 247 296
#     4   9  17  31  51  69  88 119 158 203 255 305
#     4   9  18  32  47  65  92 126 165 204 238 280
#
# _framework density 16.718308
#
# number of rings (size 3 to 8) (size 9 to 14) (size 15 to 20)
#    0.000    2.300    0.000    4.200    1.400    4.800 
#    0.000    0.000    0.000    0.000    0.000    0.700 
#    0.000    5.600    0.000    0.000    0.000    0.000 
#
# Total GULP energy -223183.261080 kJ/mol
# GULP energy per Si atom -5579.581527 kJ/mol
# Density = 1.668026 g / cm^3
# Si number density = 16.718308 Si / 1000 Ang^3
#
#
#
# Elastic Constant Matrix: (Units=GPa)
#
#
# Indices 1 2 3 4 5 6 
#
# 1 83.1946 32.0676 72.1636 0.0000 0.0000 0.0000
# 2 32.0676 48.3455 51.0757 0.0000 0.0000 0.0000
# 3 72.1636 51.0757 143.8697 0.0000 0.0000 0.0000
# 4 0.0000 0.0000 0.0000 23.3354 0.0000 0.0000
# 5 0.0000 0.0000 0.0000 0.0000 16.3952 0.0000
# 6 0.0000 0.0000 0.0000 0.0000 0.0000 23.9260
#
#
#
# Elastic Compliance Matrix: (Units=1/GPa)
#
#
# Indices 1 2 3 4 5 6 
#
# 1 0.021919 -0.004678 -0.009334 0.000000 0.000000 0.000000
# 2 -0.004678 0.034097 -0.009758 0.000000 0.000000 0.000000
# 3 -0.009334 -0.009758 0.015097 0.000000 0.000000 0.000000
# 4 0.000000 0.000000 0.000000 0.042853 0.000000 0.000000
# 5 0.000000 0.000000 0.000000 0.000000 0.060993 0.000000
# 6 0.000000 0.000000 0.000000 0.000000 0.000000 0.041796
#
#
# Mechanical properties :
#
#
# Convention : Reuss Voigt Hill
#
# Bulk Modulus (GPa) = 42.42234 65.11374 53.76804
# Shear Modulus (GPa) = 18.37198 20.73817 19.55508
#
# Velocity S-wave (km/s) = 3.31858 3.52582 3.42377
# Velocity P-wave (km/s) = 6.33355 7.45703 6.91813
#
# Compressibility (1/GPa) = 0.02357248
#
# Stress axis : x y z
#
# Youngs Moduli (GPa) = 45.62173 29.32810 66.23948
#
# Poissons Ratio (x) = 0.13721 0.61826
# Poissons Ratio (y) = 0.21344 0.64638
# Poissons Ratio (z) = 0.42582 0.28619
#
# Static dielectric constant tensor:
#      x y z
#    x 1.567670 0.000000 0.000000 
#    y 0.000000 1.562150 0.000000 
#    z 0.000000 0.000000 1.580840 
# 
# From -- ./inp_files/57875.got.cif
#   From: 2010.05.17/outbox.cif.g08.bks.cpg/sg65_29_cif.got.tgz:57875.got - 2010.06.03 17:01:31.
