data_PCOD9483421
_publ_section_title
;
Structure prediction by ZEFSAII (Michael W. Deem and Ramdas Pophale) SiO2 
 PCOD9483421
Probable space group: C M M M
;
_chemical_formula_sum "Si O2"
_cell_formula_units_Z 128
_cell_length_a 20.597658
_cell_length_b 14.999161
_cell_length_c 20.911618
_cell_angle_alpha 90.000000
_cell_angle_beta 90.000000
_cell_angle_gamma 90.000000
_cell_volume 6460.593954
_symmetry_space_group_name_H-M "C M M M"
_symmetry_group_IT_number 65
_symmetry_cell_setting 'orthorhombic'
loop_
_space_group_symop_operation_xyz
x,y,z
-x,-y,z
x,-y,-z
-x,y,-z
-x,-y,-z
x,y,-z
-x,y,z
x,-y,z
1/2+x,1/2+y,z
1/2-x,1/2-y,z
1/2+x,1/2-y,-z
1/2-x,1/2+y,-z
1/2-x,1/2-y,-z
1/2+x,1/2+y,-z
1/2-x,1/2+y,z
1/2+x,1/2-y,z
loop_
_atom_site_type_symbol
_atom_site_label
_atom_site_fract_x
_atom_site_fract_y
_atom_site_fract_z
Si Si1 0.398672 0.645001 0.431489
Si Si2 0.253909 0.607069 0.395434
Si Si3 0.889109 0.353053 0.568965
Si Si4 0.927951 0.633194 0.292377
Si Si5 0.426753 0.108675 0.074022
Si Si6 0.670813 0.897182 0.821004
Si Si7 0.570771 0.651506 0.710916
Si Si8 0.211026 0.106855 0.747151
O O1 0.422331 0.608693 0.500000
O O2 0.321203 0.630468 0.429125
O O3 0.412321 0.750692 0.431786
O O4 0.422712 0.613610 0.361864
O O5 0.246190 0.500000 0.396938
O O6 0.189027 0.647567 0.424513
O O7 0.263443 0.638250 0.322210
O O8 0.906583 0.392952 0.500000
O O9 0.914409 0.395210 0.634619
O O10 0.873519 0.602998 0.242862
O O11 0.926880 0.741012 0.292817
O O12 0.000000 0.604657 0.272326
O O13 0.500000 0.137340 0.091723
O O14 0.372740 0.143699 0.122829
O O15 0.427032 0.000000 0.077370
O O16 0.414827 0.132061 0.000000
O O17 0.740210 0.857828 0.801006
O O18 0.682279 0.000000 0.839809
O O19 0.500000 0.625213 0.736287
O O20 0.634750 0.625808 0.749953
O O21 0.218191 0.000000 0.746164
#
# Coordination Sequence:
#
# PCOD9483421 Si02
#       8
#    16  16  16  16  16  16  16  16
#     4   9  18  30  44  61  80 106 141 183 238 298
#     4  10  18  29  43  61  84 108 141 187 230 272
#     4  10  19  30  43  58  81 113 148 189 234 274
#     4  10  20  32  46  65  88 118 157 193 229 275
#     4   8  14  25  43  70 103 134 159 184 218 260
#     4  10  18  30  48  71  98 127 157 186 217 260
#     4   9  19  33  47  65  88 113 147 195 243 286
#     4   9  18  31  48  68  89 115 150 188 229 277
#
# _framework density 19.812419999999999
#
# number of rings (size 3 to 8) (size 9 to 14) (size 15 to 20)
#    0.000    2.625    1.250    1.500    0.000    4.000 
#    0.000    2.500    0.000    0.000    0.000    7.000 
#    0.000    1.500    0.000    4.875    0.000    0.000 
#
# Total GULP energy -356975.202045 kJ/mol
# GULP energy per Si atom -5577.737532 kJ/mol
# Density = 1.976733 g / cm^3
# Si number density = 19.812420 Si / 1000 Ang^3
#
#
#
# Elastic Constant Matrix: (Units=GPa)
#
#
# Indices 1 2 3 4 5 6 
#
# 1 139.2972 1.2096 59.0053 0.0000 0.0000 0.0000
# 2 1.2096 39.0863 2.3342 0.0000 0.0000 0.0000
# 3 59.0053 2.3342 87.7562 0.0000 0.0000 0.0000
# 4 0.0000 0.0000 0.0000 9.5120 0.0000 0.0000
# 5 0.0000 0.0000 0.0000 0.0000 34.5666 0.0000
# 6 0.0000 0.0000 0.0000 0.0000 0.0000 18.6163
#
#
#
# Elastic Compliance Matrix: (Units=1/GPa)
#
#
# Indices 1 2 3 4 5 6 
#
# 1 0.010038 0.000093 -0.006752 0.000000 0.000000 0.000000
# 2 0.000093 0.025626 -0.000744 0.000000 0.000000 0.000000
# 3 -0.006752 -0.000744 0.015955 0.000000 0.000000 0.000000
# 4 0.000000 0.000000 0.000000 0.105130 0.000000 0.000000
# 5 0.000000 0.000000 0.000000 0.000000 0.028930 0.000000
# 6 0.000000 0.000000 0.000000 0.000000 0.000000 0.053716
#
#
# Mechanical properties :
#
#
# Convention : Reuss Voigt Hill
#
# Bulk Modulus (GPa) = 27.16463 43.47087 35.31775
# Shear Modulus (GPa) = 18.76369 26.11171 22.43770
#
# Velocity S-wave (km/s) = 3.08078 3.63429 3.36892
# Velocity P-wave (km/s) = 5.13767 6.29282 5.74436
#
# Compressibility (1/GPa) = 0.03681257
#
# Stress axis : x y z
#
# Youngs Moduli (GPa) = 99.62012 39.02293 62.67712
#
# Poissons Ratio (x) = -0.00361 0.42319
# Poissons Ratio (y) = -0.00922 0.04662
# Poissons Ratio (z) = 0.67262 0.02903
#
# Static dielectric constant tensor:
#      x y z
#    x 1.727010 0.000000 0.000000 
#    y 0.000000 1.724300 0.000000 
#    z 0.000000 0.000000 1.705300 
# 
# From -- ./inp_files/64149.got.cif
#   From: 2010.05.17/outbox.cif.g08.bks.cpg/sg65_33_cif.got.tgz:64149.got - 2010.06.03 17:01:31.
