data_PCOD9483925
_publ_section_title
;
Structure prediction by ZEFSAII (Michael W. Deem and Ramdas Pophale) SiO2 
 PCOD9483925
Probable space group: C M M M
;
_chemical_formula_sum "Si O2"
_cell_formula_units_Z 90
_cell_length_a 24.024859
_cell_length_b 7.850203
_cell_length_c 23.324576
_cell_angle_alpha 90.000000
_cell_angle_beta 90.000000
_cell_angle_gamma 90.000000
_cell_volume 4399.015505
_symmetry_space_group_name_H-M "C M M M"
_symmetry_group_IT_number 65
_symmetry_cell_setting 'orthorhombic'
loop_
_space_group_symop_operation_xyz
x,y,z
-x,-y,z
x,-y,-z
-x,y,-z
-x,-y,-z
x,y,-z
-x,y,z
x,-y,z
1/2+x,1/2+y,z
1/2-x,1/2-y,z
1/2+x,1/2-y,-z
1/2-x,1/2+y,-z
1/2-x,1/2-y,-z
1/2+x,1/2+y,-z
1/2-x,1/2+y,z
1/2+x,1/2-y,z
loop_
_atom_site_type_symbol
_atom_site_label
_atom_site_fract_x
_atom_site_fract_y
_atom_site_fract_z
Si Si1 0.878166 0.791946 0.699774
Si Si2 0.614482 0.700254 0.830067
Si Si3 0.500000 0.308859 0.686895
Si Si4 0.814642 0.702989 0.062121
Si Si5 0.095465 0.695062 0.500000
Si Si6 0.313369 0.296247 0.407910
Si Si7 0.500000 0.187938 0.189147
Si Si8 0.000000 0.000000 0.500000
O O1 0.870455 0.736247 0.765753
O O2 0.938875 0.732846 0.675577
O O3 0.829039 0.743449 0.657096
O O4 0.881239 0.000000 0.699981
O O5 0.605260 0.500000 0.824719
O O6 0.657105 0.729926 0.880684
O O7 0.555873 0.785305 0.845427
O O8 0.500000 0.500000 0.661312
O O9 0.500000 0.313707 0.756504
O O10 0.820270 0.500000 0.062702
O O11 0.750000 0.750000 0.063839
O O12 0.836668 0.766193 0.000000
O O13 0.073297 0.500000 0.500000
O O14 0.138243 0.718549 0.553060
O O15 0.049270 0.845930 0.500000
O O16 0.318205 0.500000 0.412777
O O17 0.250000 0.250000 0.422945
O O18 0.500000 0.000000 0.215097
#
# Coordination Sequence:
#
# PCOD9483925 Si02
#       8
#    16  16   8  16   8  16   8   2
#     4   8  17  32  56  88 118 159 207 255 313 373
#     4  10  19  35  57  83 115 155 199 249 305 363
#     4   8  14  31  53  77 108 151 199 247 303 366
#     4  10  21  37  56  79 108 146 191 242 302 367
#     4  12  26  48  74 105 136 175 224 273 334 396
#     4  11  22  41  64  95 132 179 225 269 326 388
#     4  10  18  30  50  78 110 149 189 236 291 355
#     4  12  26  52  76 110 140 176 214 282 342 386
#
# _framework density 20.459122000000001
#
# number of rings (size 3 to 8) (size 9 to 14) (size 15 to 20)
#    0.000    2.133    0.889    3.867    0.000    2.489 
#    1.600   11.111    0.000    2.667    0.000    0.000 
#    0.000    0.000    0.000    0.000    0.000    0.000 
#
# Total GULP energy -250617.464634 kJ/mol
# GULP energy per Si atom -5569.276992 kJ/mol
# Density = 2.041256 g / cm^3
# Si number density = 20.459122 Si / 1000 Ang^3
#
#
#
# Elastic Constant Matrix: (Units=GPa)
#
#
# Indices 1 2 3 4 5 6 
#
# 1 110.6157 22.9407 52.9498 0.0000 0.0000 0.0000
# 2 22.9407 88.9849 18.8565 0.0000 0.0000 0.0000
# 3 52.9498 18.8565 100.7643 0.0000 0.0000 0.0000
# 4 0.0000 0.0000 0.0000 -62.6727 0.0000 0.0000
# 5 0.0000 0.0000 0.0000 0.0000 11.6181 0.0000
# 6 0.0000 0.0000 0.0000 0.0000 0.0000 24.8667
#
#
#
# Elastic Compliance Matrix: (Units=1/GPa)
#
#
# Indices 1 2 3 4 5 6 
#
# 1 0.012376 -0.001887 -0.006150 0.000000 0.000000 0.000000
# 2 -0.001887 0.011990 -0.001252 0.000000 0.000000 0.000000
# 3 -0.006150 -0.001252 0.013390 0.000000 0.000000 0.000000
# 4 0.000000 0.000000 0.000000 -0.015956 0.000000 0.000000
# 5 0.000000 0.000000 0.000000 0.000000 0.086073 0.000000
# 6 0.000000 0.000000 0.000000 0.000000 0.000000 0.040214
#
#
# Mechanical properties :
#
#
# Convention : Reuss Voigt Hill
#
# Bulk Modulus (GPa) = 52.14572 54.42875 53.28724
# Shear Modulus (GPa) = 28.89212 8.47028 18.68120
#
# Velocity S-wave (km/s) = 3.76199 2.03693 3.02503
# Velocity P-wave (km/s) = 6.66432 5.67393 6.18897
#
# Compressibility (1/GPa) = 0.01917703
#
# Stress axis : x y z
#
# Youngs Moduli (GPa) = 80.80418 83.40490 74.68185
#
# Poissons Ratio (x) = 0.15741 0.45929
# Poissons Ratio (y) = 0.15250 0.09350
# Poissons Ratio (z) = 0.49694 0.10442
#
# Static dielectric constant tensor:
#      x y z
#    x 1.731550 0.000000 0.000000 
#    y 0.000000 1.774820 0.000000 
#    z 0.000000 0.000000 1.751840 
# 
# From -- ./inp_files/71124.got.cif
#   From: 2010.05.17/outbox.cif.g08.bks.cpg/sg65_36_cif.got.tgz:71124.got - 2010.06.03 17:01:31.
