data_PCOD9483471
_publ_section_title
;
Structure prediction by ZEFSAII (Michael W. Deem and Ramdas Pophale) SiO2 
 PCOD9483471
Probable space group: C M M M
;
_chemical_formula_sum "Si O2"
_cell_formula_units_Z 96
_cell_length_a 28.017116
_cell_length_b 8.646648
_cell_length_c 24.774861
_cell_angle_alpha 90.000000
_cell_angle_beta 90.000000
_cell_angle_gamma 90.000000
_cell_volume 6001.812646
_symmetry_space_group_name_H-M "C M M M"
_symmetry_group_IT_number 65
_symmetry_cell_setting 'orthorhombic'
loop_
_space_group_symop_operation_xyz
x,y,z
-x,-y,z
x,-y,-z
-x,y,-z
-x,-y,-z
x,y,-z
-x,y,z
x,-y,z
1/2+x,1/2+y,z
1/2-x,1/2-y,z
1/2+x,1/2-y,-z
1/2-x,1/2+y,-z
1/2-x,1/2-y,-z
1/2+x,1/2+y,-z
1/2-x,1/2+y,z
1/2+x,1/2-y,z
loop_
_atom_site_type_symbol
_atom_site_label
_atom_site_fract_x
_atom_site_fract_y
_atom_site_fract_z
Si Si1 0.145617 0.685389 0.223069
Si Si2 0.303738 0.686081 0.000000
Si Si3 0.899046 0.687417 0.612808
Si Si4 0.555252 0.188589 0.500000
Si Si5 0.801977 0.685755 0.332694
Si Si6 0.695991 0.314112 0.881810
Si Si7 0.445590 0.685374 0.720310
O O1 0.145483 0.500000 0.221684
O O2 0.180163 0.734245 0.272872
O O3 0.164978 0.750702 0.167189
O O4 0.093284 0.744874 0.239037
O O5 0.250000 0.750000 0.000000
O O6 0.323706 0.732557 0.058618
O O7 0.302215 0.500000 0.000000
O O8 0.901607 0.500000 0.615653
O O9 0.918014 0.737492 0.554565
O O10 0.844463 0.732204 0.626550
O O11 0.931175 0.754207 0.660949
O O12 0.500000 0.238266 0.500000
O O13 0.555250 0.000000 0.500000
O O14 0.799609 0.500000 0.332975
O O15 0.750000 0.750000 0.345015
O O16 0.697849 0.500000 0.879034
O O17 0.750000 0.250000 0.877023
O O18 0.500000 0.730116 0.732613
O O19 0.442063 0.500000 0.721058
#
# Coordination Sequence:
#
# PCOD9483471 Si02
#       7
#    16   8  16   8  16  16  16
#     4  10  20  32  47  69  93 121 158 195 234 277
#     4   8  16  28  42  62  91 128 163 194 230 271
#     4   9  18  32  49  70  93 118 153 191 227 273
#     4   9  16  28  50  73  89 113 151 193 234 275
#     4   9  18  30  44  63  89 120 151 185 223 265
#     4  10  18  29  45  67  97 130 163 197 232 273
#     4  10  20  33  49  70  95 121 148 184 234 286
#
# _framework density 15.995167
#
# number of rings (size 3 to 8) (size 9 to 14) (size 15 to 20)
#    0.000    2.583    0.000    3.500    0.000    7.333 
#    0.000    0.833    0.000    1.500    0.000    0.583 
#    0.000    4.667    0.000    0.000    0.000    0.000 
#
# Total GULP energy -267536.124209 kJ/mol
# GULP energy per Si atom -5573.669254 kJ/mol
# Density = 1.595876 g / cm^3
# Si number density = 15.995167 Si / 1000 Ang^3
#
#
#
# Elastic Constant Matrix: (Units=GPa)
#
#
# Indices 1 2 3 4 5 6 
#
# 1 123.0046 29.3011 82.8828 0.0000 0.0000 0.0000
# 2 29.3011 26.3770 32.1434 0.0000 0.0000 0.0000
# 3 82.8828 32.1434 162.6538 0.0000 0.0000 0.0000
# 4 0.0000 0.0000 0.0000 19.6922 0.0000 0.0000
# 5 0.0000 0.0000 0.0000 0.0000 18.3946 0.0000
# 6 0.0000 0.0000 0.0000 0.0000 0.0000 25.2611
#
#
#
# Elastic Compliance Matrix: (Units=1/GPa)
#
#
# Indices 1 2 3 4 5 6 
#
# 1 0.013806 -0.008909 -0.005275 0.000000 0.000000 0.000000
# 2 -0.008909 0.055687 -0.006465 0.000000 0.000000 0.000000
# 3 -0.005275 -0.006465 0.010113 0.000000 0.000000 0.000000
# 4 0.000000 0.000000 0.000000 0.050782 0.000000 0.000000
# 5 0.000000 0.000000 0.000000 0.000000 0.054364 0.000000
# 6 0.000000 0.000000 0.000000 0.000000 0.000000 0.039587
#
#
# Mechanical properties :
#
#
# Convention : Reuss Voigt Hill
#
# Bulk Modulus (GPa) = 26.10347 66.74333 46.42340
# Shear Modulus (GPa) = 17.95947 23.85011 20.90479
#
# Velocity S-wave (km/s) = 3.35446 3.86564 3.61909
# Velocity P-wave (km/s) = 5.59985 7.85761 6.82277
#
# Compressibility (1/GPa) = 0.03830909
#
# Stress axis : x y z
#
# Youngs Moduli (GPa) = 72.43199 17.95764 98.87919
#
# Poissons Ratio (x) = 0.15998 0.52154
# Poissons Ratio (y) = 0.64529 0.63926
# Poissons Ratio (z) = 0.38204 0.11610
#
# Static dielectric constant tensor:
#      x y z
#    x 1.516160 0.000000 0.000000 
#    y 0.000000 1.541880 0.000000 
#    z 0.000000 0.000000 1.544620 
# 
# From -- ./inp_files/71698.got.cif
#   From: 2010.05.17/outbox.cif.g08.bks.cpg/sg65_36_cif.got.tgz:71698.got - 2010.06.03 17:01:31.
