data_PCOD9483051
_publ_section_title
;
Structure prediction by ZEFSAII (Michael W. Deem and Ramdas Pophale) SiO2 
 PCOD9483051
Probable space group: C M M M
;
_chemical_formula_sum "Si O2"
_cell_formula_units_Z 80
_cell_length_a 23.195921
_cell_length_b 10.412339
_cell_length_c 21.019496
_cell_angle_alpha 90.000000
_cell_angle_beta 90.000000
_cell_angle_gamma 90.000000
_cell_volume 5076.708398
_symmetry_space_group_name_H-M "C M M M"
_symmetry_group_IT_number 65
_symmetry_cell_setting 'orthorhombic'
loop_
_space_group_symop_operation_xyz
x,y,z
-x,-y,z
x,-y,-z
-x,y,-z
-x,-y,-z
x,y,-z
-x,y,z
x,-y,z
1/2+x,1/2+y,z
1/2-x,1/2-y,z
1/2+x,1/2-y,-z
1/2-x,1/2+y,-z
1/2-x,1/2-y,-z
1/2+x,1/2+y,-z
1/2-x,1/2+y,z
1/2+x,1/2-y,z
loop_
_atom_site_type_symbol
_atom_site_label
_atom_site_fract_x
_atom_site_fract_y
_atom_site_fract_z
Si Si1 0.177101 0.500000 0.366176
Si Si2 0.184310 0.000000 0.643054
Si Si3 0.000000 0.148855 0.422966
Si Si4 0.625520 0.741455 0.576426
Si Si5 0.679518 0.000000 0.780888
Si Si6 0.306814 0.157543 0.000000
Si Si7 0.319646 0.500000 0.207856
Si Si8 0.820374 0.741448 0.137299
O O1 0.246651 0.500000 0.364896
O O2 0.151973 0.625515 0.399894
O O3 0.161297 0.500000 0.291829
O O4 0.159888 0.874684 0.608600
O O5 0.165184 0.000000 0.717327
O O6 0.941415 0.221081 0.404899
O O7 0.000000 0.143092 0.500000
O O8 0.000000 0.000000 0.400676
O O9 0.629728 0.732769 0.500000
O O10 0.660470 0.127803 0.816535
O O11 0.749496 0.000000 0.787862
O O12 0.250000 0.250000 0.000000
O O13 0.336946 0.200300 0.934313
O O14 0.296045 0.000000 0.000000
O O15 0.338928 0.375780 0.167935
O O16 0.750000 0.750000 0.137284
#
# Coordination Sequence:
#
# PCOD9483051 Si02
#       8
#     8   8   8  16   8   8   8  16
#     4  11  23  33  48  76 107 130 163 205 254 302
#     4  11  21  35  52  72 101 136 173 199 244 306
#     4   9  18  37  59  73  89 121 165 204 248 309
#     4  11  22  36  55  75  97 128 165 211 255 299
#     4   9  16  30  41  54  86 127 153 186 230 289
#     4  10  18  24  36  56  78 108 156 207 243 268
#     4   9  18  28  41  60  82 121 161 196 228 279
#     4   9  16  25  39  54  79 112 158 199 234 267
#
# _framework density 15.758241999999999
#
# number of rings (size 3 to 8) (size 9 to 14) (size 15 to 20)
#    0.000    2.100    2.000    2.400    4.200    6.000 
#    0.000    1.500    0.000    0.000    0.000    0.000 
#    0.000    0.000    0.000    0.000    0.000   70.000 
#
# Total GULP energy -222770.146309 kJ/mol
# GULP energy per Si atom -5569.253658 kJ/mol
# Density = 1.572238 g / cm^3
# Si number density = 15.758242 Si / 1000 Ang^3
#
#
#
# Elastic Constant Matrix: (Units=GPa)
#
#
# Indices 1 2 3 4 5 6 
#
# 1 59.8745 39.3964 32.6298 0.0000 0.0000 0.0000
# 2 39.3964 177.2776 85.2538 0.0000 0.0000 0.0000
# 3 32.6298 85.2538 138.9498 0.0000 0.0000 0.0000
# 4 0.0000 0.0000 0.0000 2.5266 0.0000 0.0000
# 5 0.0000 0.0000 0.0000 0.0000 -2.7579 0.0000
# 6 0.0000 0.0000 0.0000 0.0000 0.0000 -120.8636
#
#
#
# Elastic Compliance Matrix: (Units=1/GPa)
#
#
# Indices 1 2 3 4 5 6 
#
# 1 0.020322 -0.003151 -0.002839 0.000000 0.000000 0.000000
# 2 -0.003151 0.008490 -0.004469 0.000000 0.000000 0.000000
# 3 -0.002839 -0.004469 0.010606 0.000000 0.000000 0.000000
# 4 0.000000 0.000000 0.000000 0.395796 0.000000 0.000000
# 5 0.000000 0.000000 0.000000 0.000000 -0.362597 0.000000
# 6 0.000000 0.000000 0.000000 0.000000 0.000000 -0.008274
#
#
# Mechanical properties :
#
#
# Convention : Reuss Voigt Hill
#
# Bulk Modulus (GPa) = 54.05523 76.74021 65.39772
# Shear Modulus (GPa) = 54.68757 -9.63086 22.52836
#
# Velocity S-wave (km/s) = 5.89741 -2.47485 3.78514
# Velocity P-wave (km/s) = 8.98609 6.37477 7.79062
#
# Compressibility (1/GPa) = 0.01849960
#
# Stress axis : x y z
#
# Youngs Moduli (GPa) = 49.20774 117.77883 94.28778
#
# Poissons Ratio (x) = 0.37110 0.26768
# Poissons Ratio (y) = 0.15505 0.42142
# Poissons Ratio (z) = 0.13970 0.52641
#
# Static dielectric constant tensor:
#      x y z
#    x 1.498540 0.000000 0.000000 
#    y 0.000000 1.569640 0.000000 
#    z 0.000000 0.000000 1.542030 
# 
# From -- ./inp_files/60139.got.cif
#   From: 2010.05.17/outbox.cif.g08.bks.cpg/sg65_31_cif.got.tgz:60139.got - 2010.06.03 17:01:31.
