data_PCOD9483324
_publ_section_title
;
Structure prediction by ZEFSAII (Michael W. Deem and Ramdas Pophale) SiO2 
 PCOD9483324
Probable space group: C M M M
;
_chemical_formula_sum "Si O2"
_cell_formula_units_Z 104
_cell_length_a 28.191678
_cell_length_b 11.009819
_cell_length_c 20.085219
_cell_angle_alpha 90.000000
_cell_angle_beta 90.000000
_cell_angle_gamma 90.000000
_cell_volume 6234.156164
_symmetry_space_group_name_H-M "C M M M"
_symmetry_group_IT_number 65
_symmetry_cell_setting 'orthorhombic'
loop_
_space_group_symop_operation_xyz
x,y,z
-x,-y,z
x,-y,-z
-x,y,-z
-x,-y,-z
x,y,-z
-x,y,z
x,-y,z
1/2+x,1/2+y,z
1/2-x,1/2-y,z
1/2+x,1/2-y,-z
1/2-x,1/2+y,-z
1/2-x,1/2-y,-z
1/2+x,1/2+y,-z
1/2-x,1/2+y,z
1/2+x,1/2-y,z
loop_
_atom_site_type_symbol
_atom_site_label
_atom_site_fract_x
_atom_site_fract_y
_atom_site_fract_z
Si Si1 0.214174 0.140411 0.133858
Si Si2 0.610200 0.645854 0.925834
Si Si3 0.786234 0.859676 0.294304
Si Si4 0.108983 0.795611 0.663566
Si Si5 0.055221 0.852801 0.203564
Si Si6 0.946930 0.644068 0.575371
Si Si7 0.943627 0.000000 0.421065
O O1 0.250000 0.250000 0.116883
O O2 0.164287 0.163426 0.097593
O O3 0.206795 0.144024 0.213933
O O4 0.229311 0.000000 0.118089
O O5 0.603418 0.500000 0.928967
O O6 0.575590 0.689253 0.867431
O O7 0.601984 0.694928 0.000000
O O8 0.750000 0.750000 0.310693
O O9 0.836450 0.831406 0.328885
O O10 0.771578 0.000000 0.309951
O O11 0.085888 0.800489 0.736368
O O12 0.095014 0.673139 0.626192
O O13 0.080654 0.888070 0.616097
O O14 0.000000 0.823724 0.210983
O O15 0.060174 0.000000 0.207261
O O16 0.938693 0.691243 0.500000
O O17 0.950097 0.500000 0.570783
O O18 0.000000 0.688124 0.596468
O O19 0.935103 0.000000 0.500000
O O20 0.000000 0.000000 0.409962
#
# Coordination Sequence:
#
# PCOD9483324 Si02
#       7
#    16  16  16  16  16  16   8
#     4   9  17  31  50  73 101 133 171 218 270 321
#     4   9  17  29  45  67  99 137 175 212 256 311
#     4  10  20  35  54  77 106 140 182 229 278 327
#     4  12  19  32  54  79 104 136 174 217 267 316
#     4  10  18  28  45  71 104 138 171 209 259 314
#     4   9  19  35  53  76 109 144 173 207 259 322
#     4  11  22  32  50  84 115 135 161 203 263 327
#
# _framework density 16.682290999999999
#
# number of rings (size 3 to 8) (size 9 to 14) (size 15 to 20)
#    0.000    2.077    3.077    2.308    0.000    2.462 
#    0.000    1.538    0.000    1.846    0.000    0.000 
#    0.000    0.000    0.000    4.615    0.000    1.692 
#
# Total GULP energy -289639.311812 kJ/mol
# GULP energy per Si atom -5569.986766 kJ/mol
# Density = 1.664432 g / cm^3
# Si number density = 16.682291 Si / 1000 Ang^3
#
#
#
# Elastic Constant Matrix: (Units=GPa)
#
#
# Indices 1 2 3 4 5 6 
#
# 1 80.4110 37.3577 52.4401 0.0000 0.0000 0.0000
# 2 37.3577 63.2456 27.3573 0.0000 0.0000 0.0000
# 3 52.4401 27.3573 79.3497 0.0000 0.0000 0.0000
# 4 0.0000 0.0000 0.0000 12.9646 0.0000 0.0000
# 5 0.0000 0.0000 0.0000 0.0000 16.9962 0.0000
# 6 0.0000 0.0000 0.0000 0.0000 0.0000 23.0777
#
#
#
# Elastic Compliance Matrix: (Units=1/GPa)
#
#
# Indices 1 2 3 4 5 6 
#
# 1 0.025741 -0.009221 -0.013832 0.000000 0.000000 0.000000
# 2 -0.009221 0.021886 -0.001451 0.000000 0.000000 0.000000
# 3 -0.013832 -0.001451 0.022244 0.000000 0.000000 0.000000
# 4 0.000000 0.000000 0.000000 0.077133 0.000000 0.000000
# 5 0.000000 0.000000 0.000000 0.000000 0.058837 0.000000
# 6 0.000000 0.000000 0.000000 0.000000 0.000000 0.043332
#
#
# Mechanical properties :
#
#
# Convention : Reuss Voigt Hill
#
# Bulk Modulus (GPa) = 47.93622 50.81294 49.37458
# Shear Modulus (GPa) = 16.38611 17.66445 17.02528
#
# Velocity S-wave (km/s) = 3.13748 3.25757 3.19809
# Velocity P-wave (km/s) = 6.47474 6.68388 6.58014
#
# Compressibility (1/GPa) = 0.02086105
#
# Stress axis : x y z
#
# Youngs Moduli (GPa) = 38.84864 45.69122 44.95539
#
# Poissons Ratio (x) = 0.42133 0.62184
# Poissons Ratio (y) = 0.35824 0.06525
# Poissons Ratio (z) = 0.53737 0.06632
#
# Static dielectric constant tensor:
#      x y z
#    x 1.547480 0.000000 0.000000 
#    y 0.000000 1.689690 0.000000 
#    z 0.000000 0.000000 1.564200 
# 
# From -- ./inp_files/57555.got.cif
#   From: 2010.05.17/outbox.cif.g08.bks.cpg/sg65_29_cif.got.tgz:57555.got - 2010.06.03 17:01:31.
