data_PCOD9483344
_publ_section_title
;
Structure prediction by ZEFSAII (Michael W. Deem and Ramdas Pophale) SiO2 
 PCOD9483344
Probable space group: C M M M
;
_chemical_formula_sum "Si O2"
_cell_formula_units_Z 72
_cell_length_a 19.199417
_cell_length_b 8.181100
_cell_length_c 24.619259
_cell_angle_alpha 90.000000
_cell_angle_beta 90.000000
_cell_angle_gamma 90.000000
_cell_volume 3867.004877
_symmetry_space_group_name_H-M "C M M M"
_symmetry_group_IT_number 65
_symmetry_cell_setting 'orthorhombic'
loop_
_space_group_symop_operation_xyz
x,y,z
-x,-y,z
x,-y,-z
-x,y,-z
-x,-y,-z
x,y,-z
-x,y,z
x,-y,z
1/2+x,1/2+y,z
1/2-x,1/2-y,z
1/2+x,1/2-y,-z
1/2-x,1/2+y,-z
1/2-x,1/2-y,-z
1/2+x,1/2+y,-z
1/2-x,1/2+y,z
1/2+x,1/2-y,z
loop_
_atom_site_type_symbol
_atom_site_label
_atom_site_fract_x
_atom_site_fract_y
_atom_site_fract_z
Si Si1 0.919635 0.799775 0.500000
Si Si2 0.580827 0.800481 0.939573
Si Si3 0.830159 0.305377 0.161897
Si Si4 0.830477 0.802366 0.396685
Si Si5 0.830709 0.804813 0.722371
O O1 0.878074 0.745456 0.446331
O O2 0.000000 0.748286 0.500000
O O3 0.919148 0.000000 0.500000
O O4 0.500000 0.753673 0.933076
O O5 0.626939 0.740440 0.889546
O O6 0.582682 0.000000 0.939021
O O7 0.604341 0.748937 0.000000
O O8 0.830501 0.500000 0.159512
O O9 0.750000 0.250000 0.158942
O O10 0.860869 0.257124 0.220757
O O11 0.750000 0.750000 0.403552
O O12 0.856840 0.748240 0.336834
O O13 0.831265 0.000000 0.396832
O O14 0.750000 0.750000 0.722848
O O15 0.833551 0.000000 0.723675
#
# Coordination Sequence:
#
# PCOD9483344 Si02
#       5
#     8  16  16  16  16
#     4   9  17  30  47  67  92 119 148 182 220 265
#     4   8  15  29  47  65  86 115 152 188 218 255
#     4  10  18  28  46  70  93 117 145 180 223 265
#     4   9  17  29  48  70  88 114 151 186 219 257
#     4   9  16  27  43  65  92 118 146 180 219 261
#
# _framework density 18.619060000000001
#
# number of rings (size 3 to 8) (size 9 to 14) (size 15 to 20)
#    0.000    3.000    0.000    3.667    0.000    1.333 
#    0.000    1.111    0.000    7.333    0.000    6.222 
#    0.000    0.000    0.000    0.000    0.000    0.000 
#
# Total GULP energy -200488.354939 kJ/mol
# GULP energy per Si atom -5569.120971 kJ/mol
# Density = 1.857668 g / cm^3
# Si number density = 18.619060 Si / 1000 Ang^3
#
#
#
# Elastic Constant Matrix: (Units=GPa)
#
#
# Indices 1 2 3 4 5 6 
#
# 1 66.1881 5.8508 90.5425 0.0000 0.0000 0.0000
# 2 5.8508 17.9333 20.5577 0.0000 0.0000 0.0000
# 3 90.5425 20.5577 244.1577 0.0000 0.0000 0.0000
# 4 0.0000 0.0000 0.0000 59.4261 0.0000 0.0000
# 5 0.0000 0.0000 0.0000 0.0000 -6.3364 0.0000
# 6 0.0000 0.0000 0.0000 0.0000 0.0000 9.0580
#
#
#
# Elastic Compliance Matrix: (Units=1/GPa)
#
#
# Indices 1 2 3 4 5 6 
#
# 1 0.030847 0.003375 -0.011723 0.000000 0.000000 0.000000
# 2 0.003375 0.062089 -0.006479 0.000000 0.000000 0.000000
# 3 -0.011723 -0.006479 0.008989 0.000000 0.000000 0.000000
# 4 0.000000 0.000000 0.000000 0.016828 0.000000 0.000000
# 5 0.000000 0.000000 0.000000 0.000000 -0.157818 0.000000
# 6 0.000000 0.000000 0.000000 0.000000 0.000000 0.110400
#
#
# Mechanical properties :
#
#
# Convention : Reuss Voigt Hill
#
# Bulk Modulus (GPa) = 13.83718 62.46459 38.15088
# Shear Modulus (GPa) = 39.97440 26.51806 33.24623
#
# Velocity S-wave (km/s) = 4.63856 3.77801 4.23022
# Velocity P-wave (km/s) = 6.01134 7.25622 6.66291
#
# Compressibility (1/GPa) = 0.07226907
#
# Stress axis : x y z
#
# Youngs Moduli (GPa) = 32.41774 16.10602 111.25013
#
# Poissons Ratio (x) = -0.05436 1.30424
# Poissons Ratio (y) = -0.10941 0.72083
# Poissons Ratio (z) = 0.38005 0.10436
#
# Static dielectric constant tensor:
#      x y z
#    x 1.605270 0.000000 0.000000 
#    y 0.000000 1.652870 0.000000 
#    z 0.000000 0.000000 1.706660 
# 
# From -- ./inp_files/67253.got.cif
#   From: 2010.05.17/outbox.cif.g08.bks.cpg/sg65_34_cif.got.tgz:67253.got - 2010.06.03 17:01:31.
