data_PCOD9483310
_publ_section_title
;
Structure prediction by ZEFSAII (Michael W. Deem and Ramdas Pophale) SiO2 
 PCOD9483310
Probable space group: C M M M
;
_chemical_formula_sum "Si O2"
_cell_formula_units_Z 80
_cell_length_a 21.230384
_cell_length_b 26.134905
_cell_length_c 7.470440
_cell_angle_alpha 90.000000
_cell_angle_beta 90.000000
_cell_angle_gamma 90.000000
_cell_volume 4145.004031
_symmetry_space_group_name_H-M "C M M M"
_symmetry_group_IT_number 65
_symmetry_cell_setting 'orthorhombic'
loop_
_space_group_symop_operation_xyz
x,y,z
-x,-y,z
x,-y,-z
-x,y,-z
-x,-y,-z
x,y,-z
-x,y,z
x,-y,z
1/2+x,1/2+y,z
1/2-x,1/2-y,z
1/2+x,1/2-y,-z
1/2-x,1/2+y,-z
1/2-x,1/2-y,-z
1/2+x,1/2+y,-z
1/2-x,1/2+y,z
1/2+x,1/2-y,z
loop_
_atom_site_type_symbol
_atom_site_label
_atom_site_fract_x
_atom_site_fract_y
_atom_site_fract_z
Si Si1 0.385105 0.000000 0.280715
Si Si2 0.248921 0.891185 0.787595
Si Si3 0.895321 0.388598 0.705870
Si Si4 0.236229 0.000000 0.205954
Si Si5 0.308829 0.283612 0.284787
Si Si6 0.569426 0.777248 0.719183
O O1 0.411907 0.054963 0.220607
O O2 0.312576 0.000000 0.217281
O O3 0.384711 0.000000 0.500000
O O4 0.318966 0.883718 0.708695
O O5 0.219847 0.944480 0.716745
O O6 0.205689 0.842223 0.758384
O O7 0.259058 0.897288 0.000000
O O8 0.916605 0.389725 0.500000
O O9 0.920794 0.335713 0.783455
O O10 0.214734 0.000000 0.000000
O O11 0.309194 0.279565 0.500000
O O12 0.250000 0.250000 0.218139
O O13 0.373802 0.258907 0.220073
O O14 0.572273 0.778742 0.500000
O O15 0.500000 0.759239 0.769656
#
# Coordination Sequence:
#
# PCOD9483310 Si02
#       6
#     8  16  16   8  16  16
#     4   8  14  22  39  62  84 113 149 187 216 249
#     4  10  18  28  45  68  92 117 147 182 224 265
#     4   9  15  27  43  62  88 118 152 185 220 256
#     4   8  16  28  40  61  92 118 140 176 222 268
#     4  10  18  30  47  67  90 117 150 186 222 261
#     4   9  17  29  45  63  87 120 152 181 220 268
#
# _framework density 19.300343000000002
#
# number of rings (size 3 to 8) (size 9 to 14) (size 15 to 20)
#    0.000    2.800    2.000    0.600    0.000    1.200 
#    0.000    0.500    0.000    5.400    0.000    0.700 
#    0.000   13.600    0.000    0.000    0.000    0.000 
#
# Total GULP energy -222939.137817 kJ/mol
# GULP energy per Si atom -5573.478445 kJ/mol
# Density = 1.925641 g / cm^3
# Si number density = 19.300343 Si / 1000 Ang^3
#
#
#
# Elastic Constant Matrix: (Units=GPa)
#
#
# Indices 1 2 3 4 5 6 
#
# 1 97.6523 71.7626 2.7386 0.0000 0.0000 0.0000
# 2 71.7626 167.3220 -1.8438 0.0000 0.0000 0.0000
# 3 2.7386 -1.8438 62.0283 0.0000 0.0000 0.0000
# 4 0.0000 0.0000 0.0000 10.9478 0.0000 0.0000
# 5 0.0000 0.0000 0.0000 0.0000 32.4278 0.0000
# 6 0.0000 0.0000 0.0000 0.0000 0.0000 14.0266
#
#
#
# Elastic Compliance Matrix: (Units=1/GPa)
#
#
# Indices 1 2 3 4 5 6 
#
# 1 0.014999 -0.006442 -0.000854 0.000000 0.000000 0.000000
# 2 -0.006442 0.008745 0.000544 0.000000 0.000000 0.000000
# 3 -0.000854 0.000544 0.016176 0.000000 0.000000 0.000000
# 4 0.000000 0.000000 0.000000 0.091343 0.000000 0.000000
# 5 0.000000 0.000000 0.000000 0.000000 0.030838 0.000000
# 6 0.000000 0.000000 0.000000 0.000000 0.000000 0.071293
#
#
# Mechanical properties :
#
#
# Convention : Reuss Voigt Hill
#
# Bulk Modulus (GPa) = 37.85488 52.47970 45.16729
# Shear Modulus (GPa) = 19.55405 28.43679 23.99542
#
# Velocity S-wave (km/s) = 3.18645 3.84263 3.52982
# Velocity P-wave (km/s) = 5.76143 6.85112 6.32977
#
# Compressibility (1/GPa) = 0.02641668
#
# Stress axis : x y z
#
# Youngs Moduli (GPa) = 66.67318 114.34511 61.82173
#
# Poissons Ratio (x) = 0.73662 0.05278
# Poissons Ratio (y) = 0.42952 -0.03366
# Poissons Ratio (z) = 0.05692 -0.06225
#
# Static dielectric constant tensor:
#      x y z
#    x 1.634050 0.000000 0.000000 
#    y 0.000000 1.731240 0.000000 
#    z 0.000000 0.000000 1.853140 
# 
# From -- ./inp_files/11584.got.cif
#   From: 2010.05.17/outbox.cif.g08.bks.cpg/sg65_6_cif.got.tgz:11584.got - 2010.06.03 17:01:31.
