data_PCOD9483658
_publ_section_title
;
Structure prediction by ZEFSAII (Michael W. Deem and Ramdas Pophale) SiO2 
 PCOD9483658
Probable space group: C M M M
;
_chemical_formula_sum "Si O2"
_cell_formula_units_Z 80
_cell_length_a 7.736974
_cell_length_b 29.242736
_cell_length_c 20.770334
_cell_angle_alpha 90.000000
_cell_angle_beta 90.000000
_cell_angle_gamma 90.000000
_cell_volume 4699.294052
_symmetry_space_group_name_H-M "C M M M"
_symmetry_group_IT_number 65
_symmetry_cell_setting 'orthorhombic'
loop_
_space_group_symop_operation_xyz
x,y,z
-x,-y,z
x,-y,-z
-x,y,-z
-x,-y,-z
x,y,-z
-x,y,z
x,-y,z
1/2+x,1/2+y,z
1/2-x,1/2-y,z
1/2+x,1/2-y,-z
1/2-x,1/2+y,-z
1/2-x,1/2-y,-z
1/2+x,1/2+y,-z
1/2-x,1/2+y,z
1/2+x,1/2-y,z
loop_
_atom_site_type_symbol
_atom_site_label
_atom_site_fract_x
_atom_site_fract_y
_atom_site_fract_z
Si Si1 0.289685 0.446389 0.570402
Si Si2 0.704012 0.554717 0.172386
Si Si3 0.799517 0.803101 0.641992
Si Si4 0.500000 0.944589 0.926785
Si Si5 0.712060 0.606588 0.302427
Si Si6 0.704378 0.804030 0.500000
O O1 0.230886 0.428927 0.500000
O O2 0.500000 0.443974 0.570267
O O3 0.244494 0.500000 0.574605
O O4 0.229311 0.420377 0.633747
O O5 0.500000 0.563514 0.159814
O O6 0.721327 0.500000 0.183325
O O7 0.759380 0.581355 0.236802
O O8 0.829262 0.567941 0.113786
O O9 0.750000 0.750000 0.646352
O O10 0.723163 0.841364 0.689074
O O11 0.773956 0.820628 0.568435
O O12 0.000000 0.802933 0.655062
O O13 0.500000 0.000000 0.929782
O O14 0.500000 0.927384 0.000000
O O15 0.500000 0.606008 0.303329
O O16 0.750000 0.750000 0.500000
O O17 0.000000 0.691006 0.500000
#
# Coordination Sequence:
#
# PCOD9483658 Si02
#       6
#    16  16  16   8  16   8
#     4   8  13  21  35  57  83 111 150 198 238 271
#     4   9  17  31  50  73 102 134 164 194 233 282
#     4  10  19  31  45  62  86 116 153 202 249 295
#     4   9  18  32  50  76 107 135 163 191 224 276
#     4   9  17  27  43  64  88 122 159 198 235 287
#     4  10  18  30  44  58  77 106 151 197 251 298
#
# _framework density 17.023834000000001
#
# number of rings (size 3 to 8) (size 9 to 14) (size 15 to 20)
#    0.000    2.900    0.000    3.900    1.400    2.800 
#    3.600    2.000    0.000    0.000    0.000    0.000 
#    0.000    6.400    0.400    0.400    0.000    0.000 
#
# Total GULP energy -222862.304490 kJ/mol
# GULP energy per Si atom -5571.557612 kJ/mol
# Density = 1.698509 g / cm^3
# Si number density = 17.023834 Si / 1000 Ang^3
#
#
#
# Elastic Constant Matrix: (Units=GPa)
#
#
# Indices 1 2 3 4 5 6 
#
# 1 43.7395 25.5776 40.0293 0.0000 0.0000 0.0000
# 2 25.5776 65.1804 63.7453 0.0000 0.0000 0.0000
# 3 40.0293 63.7453 150.9555 0.0000 0.0000 0.0000
# 4 0.0000 0.0000 0.0000 14.4593 0.0000 0.0000
# 5 0.0000 0.0000 0.0000 0.0000 14.3871 0.0000
# 6 0.0000 0.0000 0.0000 0.0000 0.0000 6.3253
#
#
#
# Elastic Compliance Matrix: (Units=1/GPa)
#
#
# Indices 1 2 3 4 5 6 
#
# 1 0.032094 -0.007276 -0.005438 0.000000 0.000000 0.000000
# 2 -0.007276 0.027785 -0.009804 0.000000 0.000000 0.000000
# 3 -0.005438 -0.009804 0.012206 0.000000 0.000000 0.000000
# 4 0.000000 0.000000 0.000000 0.069160 0.000000 0.000000
# 5 0.000000 0.000000 0.000000 0.000000 0.069507 0.000000
# 6 0.000000 0.000000 0.000000 0.000000 0.000000 0.158095
#
#
# Mechanical properties :
#
#
# Convention : Reuss Voigt Hill
#
# Bulk Modulus (GPa) = 36.96805 57.61996 47.29400
# Shear Modulus (GPa) = 11.82316 15.73588 13.77952
#
# Velocity S-wave (km/s) = 2.63821 3.04360 2.84813
# Velocity P-wave (km/s) = 5.57161 6.80231 6.21749
#
# Compressibility (1/GPa) = 0.02705038
#
# Stress axis : x y z
#
# Youngs Moduli (GPa) = 31.15841 35.99071 81.92447
#
# Poissons Ratio (x) = 0.26186 0.44551
# Poissons Ratio (y) = 0.22670 0.80316
# Poissons Ratio (z) = 0.16944 0.35284
#
# Static dielectric constant tensor:
#      x y z
#    x 1.603620 0.000000 0.000000 
#    y 0.000000 1.629210 0.000000 
#    z 0.000000 0.000000 1.555760 
# 
# From -- ./inp_files/50250.got.cif
#   From: 2010.05.17/outbox.cif.g08.bks.cpg/sg65_26_cif.got.tgz:50250.got - 2010.06.03 17:01:31.
