data_PCOD9483954
_publ_section_title
;
Structure prediction by ZEFSAII (Michael W. Deem and Ramdas Pophale) SiO2 
 PCOD9483954
Probable space group: C M M M
;
_chemical_formula_sum "Si O2"
_cell_formula_units_Z 96
_cell_length_a 22.806303
_cell_length_b 19.081400
_cell_length_c 13.309966
_cell_angle_alpha 90.000000
_cell_angle_beta 90.000000
_cell_angle_gamma 90.000000
_cell_volume 5792.180294
_symmetry_space_group_name_H-M "C M M M"
_symmetry_group_IT_number 65
_symmetry_cell_setting 'orthorhombic'
loop_
_space_group_symop_operation_xyz
x,y,z
-x,-y,z
x,-y,-z
-x,y,-z
-x,-y,-z
x,y,-z
-x,y,z
x,-y,z
1/2+x,1/2+y,z
1/2-x,1/2-y,z
1/2+x,1/2-y,-z
1/2-x,1/2+y,-z
1/2-x,1/2-y,-z
1/2+x,1/2+y,-z
1/2-x,1/2+y,z
1/2+x,1/2-y,z
loop_
_atom_site_type_symbol
_atom_site_label
_atom_site_fract_x
_atom_site_fract_y
_atom_site_fract_z
Si Si1 0.386087 0.084259 0.254288
Si Si2 0.429474 0.342414 0.206166
Si Si3 0.428788 0.419263 0.000000
Si Si4 0.070081 0.304952 0.115350
Si Si5 0.500000 0.084809 0.386014
Si Si6 0.141022 0.915731 0.382193
Si Si7 0.223432 0.584994 0.613135
O O1 0.396837 0.126369 0.152702
O O2 0.441204 0.103625 0.325988
O O3 0.325916 0.106183 0.308177
O O4 0.386515 0.000000 0.241066
O O5 0.500000 0.349564 0.214892
O O6 0.416131 0.260839 0.186598
O O7 0.398919 0.375258 0.303083
O O8 0.410669 0.382182 0.103554
O O9 0.410397 0.500000 0.000000
O O10 0.500000 0.416659 0.000000
O O11 0.000000 0.317096 0.120838
O O12 0.083385 0.286751 0.000000
O O13 0.500000 0.111714 0.500000
O O14 0.500000 0.000000 0.391163
O O15 0.127893 0.901341 0.500000
O O16 0.209366 0.896377 0.364532
O O17 0.135082 0.000000 0.368246
O O18 0.208762 0.609153 0.500000
O O19 0.221864 0.500000 0.610655
#
# Coordination Sequence:
#
# PCOD9483954 Si02
#       7
#    16  16   8  16   8  16  16
#     4  10  18  30  51  77 100 130 171 214 254 297
#     4  10  19  33  52  74 103 137 168 208 259 305
#     4   9  16  28  50  78  96 119 167 214 248 295
#     4  10  20  35  52  70 100 139 171 209 263 311
#     4   9  16  26  43  73 105 123 150 207 262 295
#     4   9  18  33  54  79 106 136 168 204 251 309
#     4   8  15  30  52  75 101 135 169 203 249 302
#
# _framework density 16.574071
#
# number of rings (size 3 to 8) (size 9 to 14) (size 15 to 20)
#    0.000    2.667    1.667    2.000    0.000    3.667 
#    0.000    4.167    1.833    3.000    0.000    0.000 
#    0.000    0.000    0.000    0.000    0.000    0.000 
#
# Total GULP energy -267392.650131 kJ/mol
# GULP energy per Si atom -5570.680211 kJ/mol
# Density = 1.653635 g / cm^3
# Si number density = 16.574071 Si / 1000 Ang^3
#
#
#
# Elastic Constant Matrix: (Units=GPa)
#
#
# Indices 1 2 3 4 5 6 
#
# 1 58.1935 32.1052 53.5784 0.0000 0.0000 0.0000
# 2 32.1052 54.5578 45.3043 0.0000 0.0000 0.0000
# 3 53.5784 45.3043 101.9647 0.0000 0.0000 0.0000
# 4 0.0000 0.0000 0.0000 26.7245 0.0000 0.0000
# 5 0.0000 0.0000 0.0000 0.0000 22.6852 0.0000
# 6 0.0000 0.0000 0.0000 0.0000 0.0000 12.4689
#
#
#
# Elastic Compliance Matrix: (Units=1/GPa)
#
#
# Indices 1 2 3 4 5 6 
#
# 1 0.035664 -0.008597 -0.014920 0.000000 0.000000 0.000000
# 2 -0.008597 0.031118 -0.009309 0.000000 0.000000 0.000000
# 3 -0.014920 -0.009309 0.021783 0.000000 0.000000 0.000000
# 4 0.000000 0.000000 0.000000 0.037419 0.000000 0.000000
# 5 0.000000 0.000000 0.000000 0.000000 0.044082 0.000000
# 6 0.000000 0.000000 0.000000 0.000000 0.000000 0.080200
#
#
# Mechanical properties :
#
#
# Convention : Reuss Voigt Hill
#
# Bulk Modulus (GPa) = 43.64304 52.96575 48.30439
# Shear Modulus (GPa) = 15.45330 17.95761 16.70545
#
# Velocity S-wave (km/s) = 3.05680 3.29519 3.17823
# Velocity P-wave (km/s) = 6.23281 6.81939 6.53269
#
# Compressibility (1/GPa) = 0.02291316
#
# Stress axis : x y z
#
# Youngs Moduli (GPa) = 28.03945 32.13551 45.90699
#
# Poissons Ratio (x) = 0.27628 0.68494
# Poissons Ratio (y) = 0.24107 0.42733
# Poissons Ratio (z) = 0.41835 0.29914
#
# Static dielectric constant tensor:
#      x y z
#    x 1.546760 0.000000 0.000000 
#    y 0.000000 1.562330 0.000000 
#    z 0.000000 0.000000 1.554910 
# 
# From -- ./inp_files/30844.got.cif
#   From: 2010.05.17/outbox.cif.g08.bks.cpg/sg65_16_cif.got.tgz:30844.got - 2010.06.03 17:01:31.
