data_PCOD9483950
_publ_section_title
;
Structure prediction by ZEFSAII (Michael W. Deem and Ramdas Pophale) SiO2 
 PCOD9483950
Probable space group: C M M M
;
_chemical_formula_sum "Si O2"
_cell_formula_units_Z 104
_cell_length_a 27.012706
_cell_length_b 9.069828
_cell_length_c 25.180494
_cell_angle_alpha 90.000000
_cell_angle_beta 90.000000
_cell_angle_gamma 90.000000
_cell_volume 6169.236069
_symmetry_space_group_name_H-M "C M M M"
_symmetry_group_IT_number 65
_symmetry_cell_setting 'orthorhombic'
loop_
_space_group_symop_operation_xyz
x,y,z
-x,-y,z
x,-y,-z
-x,y,-z
-x,-y,-z
x,y,-z
-x,y,z
x,-y,z
1/2+x,1/2+y,z
1/2-x,1/2-y,z
1/2+x,1/2-y,-z
1/2-x,1/2+y,-z
1/2-x,1/2-y,-z
1/2+x,1/2+y,-z
1/2-x,1/2+y,z
1/2+x,1/2-y,z
loop_
_atom_site_type_symbol
_atom_site_label
_atom_site_fract_x
_atom_site_fract_y
_atom_site_fract_z
Si Si1 0.940800 0.675853 0.269455
Si Si2 0.098258 0.821438 0.374380
Si Si3 0.298164 0.667254 0.063922
Si Si4 0.558613 0.665536 0.838036
Si Si5 0.000000 0.179183 0.560601
Si Si6 0.302376 0.322621 0.562260
Si Si7 0.401768 0.823881 0.060885
O O1 0.935222 0.500000 0.269324
O O2 0.910753 0.749505 0.317243
O O3 0.923923 0.742756 0.213024
O O4 0.000000 0.707585 0.276821
O O5 0.149846 0.779455 0.402796
O O6 0.050372 0.777017 0.409579
O O7 0.097609 0.000000 0.369844
O O8 0.303743 0.500000 0.083932
O O9 0.250000 0.750000 0.085395
O O10 0.346389 0.766076 0.071536
O O11 0.292200 0.656117 0.000000
O O12 0.500000 0.653473 0.830894
O O13 0.579808 0.500000 0.839438
O O14 0.566945 0.747626 0.893424
O O15 0.000000 0.231094 0.500000
O O16 0.000000 0.000000 0.559806
O O17 0.311392 0.285474 0.500000
O O18 0.297687 0.500000 0.565589
O O19 0.250000 0.250000 0.577952
O O20 0.404452 0.000000 0.064446
O O21 0.415047 0.781766 0.000000
#
# Coordination Sequence:
#
# PCOD9483950 Si02
#       7
#    16  16  16  16   8  16  16
#     4  10  20  34  52  74 101 131 166 207 256 314
#     4  10  18  30  51  76 102 134 174 216 257 306
#     4   9  16  27  45  69  97 128 162 199 240 290
#     4  10  21  36  54  74  98 131 172 214 255 303
#     4   9  16  26  45  75 107 135 164 205 254 301
#     4   9  18  32  50  74 104 140 182 222 259 304
#     4  10  20  33  50  74 104 135 167 205 254 311
#
# _framework density 16.857841000000001
#
# number of rings (size 3 to 8) (size 9 to 14) (size 15 to 20)
#    0.000    2.385    0.769    2.308    0.000    7.077 
#    0.000    1.538    0.000    2.769    0.000    4.308 
#    0.000    0.000    0.000    0.000    0.000    0.000 
#
# Total GULP energy -289792.870278 kJ/mol
# GULP energy per Si atom -5572.939813 kJ/mol
# Density = 1.681947 g / cm^3
# Si number density = 16.857841 Si / 1000 Ang^3
#
#
#
# Elastic Constant Matrix: (Units=GPa)
#
#
# Indices 1 2 3 4 5 6 
#
# 1 81.5679 36.2875 55.5142 0.0000 0.0000 0.0000
# 2 36.2875 63.3218 51.1061 0.0000 0.0000 0.0000
# 3 55.5142 51.1061 122.4662 0.0000 0.0000 0.0000
# 4 0.0000 0.0000 0.0000 19.3574 0.0000 0.0000
# 5 0.0000 0.0000 0.0000 0.0000 19.3875 0.0000
# 6 0.0000 0.0000 0.0000 0.0000 0.0000 22.7961
#
#
#
# Elastic Compliance Matrix: (Units=1/GPa)
#
#
# Indices 1 2 3 4 5 6 
#
# 1 0.019119 -0.005974 -0.006174 0.000000 0.000000 0.000000
# 2 -0.005974 0.025679 -0.008008 0.000000 0.000000 0.000000
# 3 -0.006174 -0.008008 0.014306 0.000000 0.000000 0.000000
# 4 0.000000 0.000000 0.000000 0.051660 0.000000 0.000000
# 5 0.000000 0.000000 0.000000 0.000000 0.051580 0.000000
# 6 0.000000 0.000000 0.000000 0.000000 0.000000 0.043867
#
#
# Mechanical properties :
#
#
# Convention : Reuss Voigt Hill
#
# Bulk Modulus (GPa) = 53.21220 61.46349 57.33785
# Shear Modulus (GPa) = 19.77957 20.60475 20.19216
#
# Velocity S-wave (km/s) = 3.42909 3.49988 3.46467
# Velocity P-wave (km/s) = 6.87837 7.27126 7.07754
#
# Compressibility (1/GPa) = 0.01879268
#
# Stress axis : x y z
#
# Youngs Moduli (GPa) = 52.30365 38.94251 69.90073
#
# Poissons Ratio (x) = 0.23263 0.43156
# Poissons Ratio (y) = 0.31244 0.55977
# Poissons Ratio (z) = 0.32292 0.31186
#
# Static dielectric constant tensor:
#      x y z
#    x 1.574440 0.000000 0.000000 
#    y 0.000000 1.576430 0.000000 
#    z 0.000000 0.000000 1.557540 
# 
# From -- ./inp_files/71851.got.cif
#   From: 2010.05.17/outbox.cif.g08.bks.cpg/sg65_36_cif.got.tgz:71851.got - 2010.06.03 17:01:31.
