data_PCOD9483918
_publ_section_title
;
Structure prediction by ZEFSAII (Michael W. Deem and Ramdas Pophale) SiO2 
 PCOD9483918
Probable space group: C M M M
;
_chemical_formula_sum "Si O2"
_cell_formula_units_Z 88
_cell_length_a 8.607418
_cell_length_b 24.251469
_cell_length_c 23.876543
_cell_angle_alpha 90.000000
_cell_angle_beta 90.000000
_cell_angle_gamma 90.000000
_cell_volume 4984.050013
_symmetry_space_group_name_H-M "C M M M"
_symmetry_group_IT_number 65
_symmetry_cell_setting 'orthorhombic'
loop_
_space_group_symop_operation_xyz
x,y,z
-x,-y,z
x,-y,-z
-x,y,-z
-x,-y,-z
x,y,-z
-x,y,z
x,-y,z
1/2+x,1/2+y,z
1/2-x,1/2-y,z
1/2+x,1/2-y,-z
1/2-x,1/2+y,-z
1/2-x,1/2-y,-z
1/2+x,1/2+y,-z
1/2-x,1/2+y,z
1/2+x,1/2-y,z
loop_
_atom_site_type_symbol
_atom_site_label
_atom_site_fract_x
_atom_site_fract_y
_atom_site_fract_z
Si Si1 0.186678 0.812340 0.382811
Si Si2 0.185733 0.500000 0.241982
Si Si3 0.687839 0.614130 0.936599
Si Si4 0.687469 0.616875 0.274522
Si Si5 0.685448 0.812602 0.500000
Si Si6 0.687602 0.311565 0.166923
Si Si7 0.313586 0.000000 0.111397
O O1 0.250000 0.750000 0.375365
O O2 0.232766 0.849906 0.330255
O O3 0.251404 0.835858 0.441491
O O4 0.000000 0.809445 0.385887
O O5 0.247021 0.444467 0.270438
O O6 0.236982 0.500000 0.176603
O O7 0.000000 0.500000 0.242698
O O8 0.500000 0.611992 0.935312
O O9 0.738429 0.658640 0.890386
O O10 0.750435 0.554623 0.918338
O O11 0.736570 0.627322 0.000000
O O12 0.500000 0.613942 0.273508
O O13 0.738035 0.651354 0.219740
O O14 0.500000 0.811995 0.500000
O O15 0.750000 0.750000 0.500000
O O16 0.500000 0.309836 0.167468
O O17 0.750000 0.250000 0.171406
O O18 0.500000 0.000000 0.109540
#
# Coordination Sequence:
#
# PCOD9483918 Si02
#       7
#    16   8  16  16   8  16   8
#     4  10  19  32  53  82 113 146 183 221 264 314
#     4  11  23  36  56  82 107 136 175 222 272 319
#     4  10  21  37  57  78 103 140 180 217 264 324
#     4  10  21  37  57  79 106 143 180 218 268 320
#     4  10  18  30  50  77 112 151 184 220 264 306
#     4  10  21  36  54  77 106 139 176 217 263 319
#     4  11  22  36  55  82 107 133 171 224 277 316
#
# _framework density 17.656323
#
# number of rings (size 3 to 8) (size 9 to 14) (size 15 to 20)
#    0.000    1.818    1.818    3.818    0.000    5.455 
#    0.000    0.000    0.000    0.545    0.000    3.818 
#    0.000    0.000    0.000    0.000    0.000    0.000 
#
# Total GULP energy -245686.257092 kJ/mol
# GULP energy per Si atom -5583.778570 kJ/mol
# Density = 1.761614 g / cm^3
# Si number density = 17.656323 Si / 1000 Ang^3
#
#
#
# Elastic Constant Matrix: (Units=GPa)
#
#
# Indices 1 2 3 4 5 6 
#
# 1 31.2099 25.9895 42.8434 0.0000 0.0000 0.0000
# 2 25.9895 140.7774 87.0248 0.0000 0.0000 0.0000
# 3 42.8434 87.0248 185.3698 0.0000 0.0000 0.0000
# 4 0.0000 0.0000 0.0000 12.4658 0.0000 0.0000
# 5 0.0000 0.0000 0.0000 0.0000 20.7094 0.0000
# 6 0.0000 0.0000 0.0000 0.0000 0.0000 30.0518
#
#
#
# Elastic Compliance Matrix: (Units=1/GPa)
#
#
# Indices 1 2 3 4 5 6 
#
# 1 0.047705 -0.002805 -0.009709 0.000000 0.000000 0.000000
# 2 -0.002805 0.010173 -0.004127 0.000000 0.000000 0.000000
# 3 -0.009709 -0.004127 0.009576 0.000000 0.000000 0.000000
# 4 0.000000 0.000000 0.000000 0.080219 0.000000 0.000000
# 5 0.000000 0.000000 0.000000 0.000000 0.048287 0.000000
# 6 0.000000 0.000000 0.000000 0.000000 0.000000 0.033276
#
#
# Mechanical properties :
#
#
# Convention : Reuss Voigt Hill
#
# Bulk Modulus (GPa) = 29.26461 74.34137 51.80299
# Shear Modulus (GPa) = 18.25421 26.07870 22.16645
#
# Velocity S-wave (km/s) = 3.21886 3.84737 3.54706
# Velocity P-wave (km/s) = 5.51591 7.86971 6.79550
#
# Compressibility (1/GPa) = 0.03417096
#
# Stress axis : x y z
#
# Youngs Moduli (GPa) = 20.96223 98.30180 104.42546
#
# Poissons Ratio (x) = 0.27577 1.01384
# Poissons Ratio (y) = 0.05881 0.43100
# Poissons Ratio (z) = 0.20352 0.40573
#
# Static dielectric constant tensor:
#      x y z
#    x 1.600610 0.000000 0.000000 
#    y 0.000000 1.582610 0.000000 
#    z 0.000000 0.000000 1.628050 
# 
# From -- ./inp_files/67646.got.cif
#   From: 2010.05.17/outbox.cif.g08.bks.cpg/sg65_34_cif.got.tgz:67646.got - 2010.06.03 17:01:31.
