data_PCOD9483501
_publ_section_title
;
Structure prediction by ZEFSAII (Michael W. Deem and Ramdas Pophale) SiO2 
 PCOD9483501
Probable space group: C M M M
;
_chemical_formula_sum "Si O2"
_cell_formula_units_Z 120
_cell_length_a 30.408868
_cell_length_b 27.739349
_cell_length_c 7.941546
_cell_angle_alpha 90.000000
_cell_angle_beta 90.000000
_cell_angle_gamma 90.000000
_cell_volume 6698.870370
_symmetry_space_group_name_H-M "C M M M"
_symmetry_group_IT_number 65
_symmetry_cell_setting 'orthorhombic'
loop_
_space_group_symop_operation_xyz
x,y,z
-x,-y,z
x,-y,-z
-x,y,-z
-x,-y,-z
x,y,-z
-x,y,z
x,-y,z
1/2+x,1/2+y,z
1/2-x,1/2-y,z
1/2+x,1/2-y,-z
1/2-x,1/2+y,-z
1/2-x,1/2-y,-z
1/2+x,1/2+y,-z
1/2-x,1/2+y,z
1/2+x,1/2-y,z
loop_
_atom_site_type_symbol
_atom_site_label
_atom_site_fract_x
_atom_site_fract_y
_atom_site_fract_z
Si Si1 0.128540 0.625375 0.799743
Si Si2 0.315521 0.212346 0.701963
Si Si3 0.105483 0.056141 0.809436
Si Si4 0.297031 0.946379 0.205810
Si Si5 0.449124 0.441092 0.500000
Si Si6 0.050684 0.554561 0.702532
Si Si7 0.783032 0.815486 0.704712
Si Si8 0.700892 0.578563 0.196201
O O1 0.142978 0.679866 0.753815
O O2 0.168741 0.592815 0.730245
O O3 0.083888 0.597725 0.748771
O O4 0.129475 0.623193 0.000000
O O5 0.314744 0.212595 0.500000
O O6 0.268302 0.190033 0.757023
O O7 0.310681 0.268157 0.755480
O O8 0.073860 0.077737 0.669178
O O9 0.155113 0.058498 0.738955
O O10 0.093817 0.000000 0.825728
O O11 0.103911 0.076854 0.000000
O O12 0.247432 0.938309 0.269102
O O13 0.311970 0.000000 0.248991
O O14 0.295862 0.942856 0.000000
O O15 0.444779 0.500000 0.500000
O O16 0.500000 0.429608 0.500000
O O17 0.050023 0.552735 0.500000
O O18 0.064070 0.500000 0.761415
O O19 0.000000 0.562587 0.759145
O O20 0.783869 0.818673 0.500000
O O21 0.800623 0.864184 0.783292
O O22 0.701783 0.564175 0.000000
#
# Coordination Sequence:
#
# PCOD9483501 Si02
#       8
#    16  16  16  16   8  16  16  16
#     4  11  20  30  48  74 100 129 165 209 255 297
#     4   9  18  33  48  66  95 130 166 206 249 292
#     4   9  18  31  47  70 101 135 168 204 247 295
#     4   9  17  28  41  62  96 134 166 195 233 285
#     4   9  18  32  50  72  96 125 164 208 249 288
#     4   9  19  36  55  73  97 132 170 209 256 309
#     4   9  18  31  48  67  93 130 168 208 247 284
#     4  10  18  29  46  68  96 133 168 199 239 293
#
# _framework density 17.913468000000002
#
# number of rings (size 3 to 8) (size 9 to 14) (size 15 to 20)
#    0.000    2.600    1.333    2.400    0.933    3.467 
#    0.000    3.333    0.000    0.800    0.000    0.933 
#    0.000    2.133    0.000    0.000    0.000    0.000 
#
# Total GULP energy -334161.182551 kJ/mol
# GULP energy per Si atom -5569.353043 kJ/mol
# Density = 1.787270 g / cm^3
# Si number density = 17.913468 Si / 1000 Ang^3
#
#
#
# Elastic Constant Matrix: (Units=GPa)
#
#
# Indices 1 2 3 4 5 6 
#
# 1 80.8026 18.6537 20.2448 0.0000 0.0000 0.0000
# 2 18.6537 65.8060 0.1213 0.0000 0.0000 0.0000
# 3 20.2448 0.1213 30.5933 0.0000 0.0000 0.0000
# 4 0.0000 0.0000 0.0000 12.0891 0.0000 0.0000
# 5 0.0000 0.0000 0.0000 0.0000 22.1637 0.0000
# 6 0.0000 0.0000 0.0000 0.0000 0.0000 17.8545
#
#
#
# Elastic Compliance Matrix: (Units=1/GPa)
#
#
# Indices 1 2 3 4 5 6 
#
# 1 0.016087 -0.004540 -0.010627 0.000000 0.000000 0.000000
# 2 -0.004540 0.016478 0.002939 0.000000 0.000000 0.000000
# 3 -0.010627 0.002939 0.039708 0.000000 0.000000 0.000000
# 4 0.000000 0.000000 0.000000 0.082719 0.000000 0.000000
# 5 0.000000 0.000000 0.000000 0.000000 0.045119 0.000000
# 6 0.000000 0.000000 0.000000 0.000000 0.000000 0.056008
#
#
# Mechanical properties :
#
#
# Convention : Reuss Voigt Hill
#
# Bulk Modulus (GPa) = 20.91378 28.36018 24.63698
# Shear Modulus (GPa) = 16.86263 19.63359 18.24811
#
# Velocity S-wave (km/s) = 3.07145 3.31422 3.19514
# Velocity P-wave (km/s) = 4.92734 5.52372 5.23403
#
# Compressibility (1/GPa) = 0.04781537
#
# Stress axis : x y z
#
# Youngs Moduli (GPa) = 62.16345 60.68770 25.18407
#
# Poissons Ratio (x) = 0.27555 0.26764
# Poissons Ratio (y) = 0.28225 -0.07402
# Poissons Ratio (z) = 0.66062 -0.17837
#
# Static dielectric constant tensor:
#      x y z
#    x 1.619660 0.000000 0.000000 
#    y 0.000000 1.628150 0.000000 
#    z 0.000000 0.000000 1.659890 
# 
# From -- ./inp_files/17080.got.cif
#   From: 2010.05.17/outbox.cif.g08.bks.cpg/sg65_9_cif.got.tgz:17080.got - 2010.06.03 17:01:31.
