data_PCOD9483855
_publ_section_title
;
Structure prediction by ZEFSAII (Michael W. Deem and Ramdas Pophale) SiO2 
 PCOD9483855
Probable space group: C M M M
;
_chemical_formula_sum "Si O2"
_cell_formula_units_Z 88
_cell_length_a 17.316024
_cell_length_b 17.993821
_cell_length_c 19.640166
_cell_angle_alpha 90.000000
_cell_angle_beta 90.000000
_cell_angle_gamma 90.000000
_cell_volume 6119.511131
_symmetry_space_group_name_H-M "C M M M"
_symmetry_group_IT_number 65
_symmetry_cell_setting 'orthorhombic'
loop_
_space_group_symop_operation_xyz
x,y,z
-x,-y,z
x,-y,-z
-x,y,-z
-x,-y,-z
x,y,-z
-x,y,z
x,-y,z
1/2+x,1/2+y,z
1/2-x,1/2-y,z
1/2+x,1/2-y,-z
1/2-x,1/2+y,-z
1/2-x,1/2-y,-z
1/2+x,1/2+y,-z
1/2-x,1/2+y,z
1/2+x,1/2-y,z
loop_
_atom_site_type_symbol
_atom_site_label
_atom_site_fract_x
_atom_site_fract_y
_atom_site_fract_z
Si Si1 0.593115 0.089722 0.651781
Si Si2 0.784357 0.085222 0.146349
Si Si3 0.205406 0.581807 0.000000
Si Si4 0.091322 0.798693 0.858148
Si Si5 0.815935 0.692306 0.758208
Si Si6 0.843091 0.261939 0.000000
Si Si7 0.406676 0.914373 0.500000
O O1 0.500000 0.098577 0.660171
O O2 0.640068 0.141089 0.703790
O O3 0.615145 0.114619 0.574519
O O4 0.607923 0.000000 0.659016
O O5 0.868081 0.121961 0.153175
O O6 0.727395 0.137225 0.189450
O O7 0.781484 0.000000 0.168740
O O8 0.757082 0.088034 0.067758
O O9 0.169115 0.500000 0.000000
O O10 0.146308 0.649373 0.000000
O O11 0.124708 0.742010 0.801928
O O12 0.000000 0.801863 0.856168
O O13 0.120965 0.771458 0.931935
O O14 0.750000 0.750000 0.731441
O O15 0.750000 0.250000 0.000000
O O16 0.500000 0.914420 0.500000
O O17 0.381263 0.000000 0.500000
#
# Coordination Sequence:
#
# PCOD9483855 Si02
#       7
#    16  16   8  16  16   8   8
#     4   9  16  28  47  69  91 114 144 182 217 253
#     4  10  19  32  49  65  84 114 150 185 220 260
#     4  10  18  30  50  64  79 109 146 182 215 258
#     4  11  21  31  46  67  89 114 145 182 225 266
#     4  10  19  31  45  64  90 121 150 175 213 263
#     4  12  17  34  49  62  85 113 146 179 221 270
#     4   7  12  24  43  66  90 116 141 169 216 264
#
# _framework density 14.380234
#
# number of rings (size 3 to 8) (size 9 to 14) (size 15 to 20)
#    0.000    2.091    3.636    3.000    0.000    0.364 
#    0.000    0.455    0.000    4.909    0.000    0.000 
#    0.000    0.000    0.000    0.000    0.000  109.091 
#
# Total GULP energy -245004.885958 kJ/mol
# GULP energy per Si atom -5568.292863 kJ/mol
# Density = 1.434750 g / cm^3
# Si number density = 14.380234 Si / 1000 Ang^3
#
#
#
# Elastic Constant Matrix: (Units=GPa)
#
#
# Indices 1 2 3 4 5 6 
#
# 1 57.1363 12.5883 23.8417 0.0000 0.0000 0.0000
# 2 12.5883 76.4848 18.5538 0.0000 0.0000 0.0000
# 3 23.8417 18.5538 86.8422 0.0000 0.0000 0.0000
# 4 0.0000 0.0000 0.0000 2.9069 0.0000 0.0000
# 5 0.0000 0.0000 0.0000 0.0000 14.4325 0.0000
# 6 0.0000 0.0000 0.0000 0.0000 0.0000 19.7820
#
#
#
# Elastic Compliance Matrix: (Units=1/GPa)
#
#
# Indices 1 2 3 4 5 6 
#
# 1 0.020074 -0.002075 -0.005068 0.000000 0.000000 0.000000
# 2 -0.002075 0.014004 -0.002422 0.000000 0.000000 0.000000
# 3 -0.005068 -0.002422 0.013424 0.000000 0.000000 0.000000
# 4 0.000000 0.000000 0.000000 0.344009 0.000000 0.000000
# 5 0.000000 0.000000 0.000000 0.000000 0.069288 0.000000
# 6 0.000000 0.000000 0.000000 0.000000 0.000000 0.050551
#
#
# Mechanical properties :
#
#
# Convention : Reuss Voigt Hill
#
# Bulk Modulus (GPa) = 35.24605 36.71455 35.98030
# Shear Modulus (GPa) = 9.26036 18.45624 13.85830
#
# Velocity S-wave (km/s) = 2.54040 3.58641 3.10773
# Velocity P-wave (km/s) = 5.75918 6.53731 6.16054
#
# Compressibility (1/GPa) = 0.02837197
#
# Stress axis : x y z
#
# Youngs Moduli (GPa) = 49.81632 71.41053 74.49351
#
# Poissons Ratio (x) = 0.14814 0.37752
# Poissons Ratio (y) = 0.10334 0.18045
# Poissons Ratio (z) = 0.25246 0.17298
#
# Static dielectric constant tensor:
#      x y z
#    x 1.453610 0.000000 0.000000 
#    y 0.000000 1.488520 0.000000 
#    z 0.000000 0.000000 1.479720 
# 
# From -- ./inp_files/62794.got.cif
#   From: 2010.05.17/outbox.cif.g08.bks.cpg/sg65_32_cif.got.tgz:62794.got - 2010.06.03 17:01:31.
