data_PCOD9483418
_publ_section_title
;
Structure prediction by ZEFSAII (Michael W. Deem and Ramdas Pophale) SiO2 
 PCOD9483418
Probable space group: C M M M
;
_chemical_formula_sum "Si O2"
_cell_formula_units_Z 88
_cell_length_a 24.150634
_cell_length_b 30.955954
_cell_length_c 9.011459
_cell_angle_alpha 90.000000
_cell_angle_beta 90.000000
_cell_angle_gamma 90.000000
_cell_volume 6737.020053
_symmetry_space_group_name_H-M "C M M M"
_symmetry_group_IT_number 65
_symmetry_cell_setting 'orthorhombic'
loop_
_space_group_symop_operation_xyz
x,y,z
-x,-y,z
x,-y,-z
-x,y,-z
-x,-y,-z
x,y,-z
-x,y,z
x,-y,z
1/2+x,1/2+y,z
1/2-x,1/2-y,z
1/2+x,1/2-y,-z
1/2-x,1/2+y,-z
1/2-x,1/2-y,-z
1/2+x,1/2+y,-z
1/2-x,1/2+y,z
1/2+x,1/2-y,z
loop_
_atom_site_type_symbol
_atom_site_label
_atom_site_fract_x
_atom_site_fract_y
_atom_site_fract_z
Si Si1 0.000000 0.260679 0.671429
Si Si2 0.383264 0.751974 0.177372
Si Si3 0.066236 0.500000 0.321837
Si Si4 0.285352 0.705411 0.329535
Si Si5 0.186103 0.338198 0.177490
Si Si6 0.897444 0.588634 0.821916
Si Si7 0.500000 0.135632 0.672207
O O1 0.943508 0.246896 0.751502
O O2 0.000000 0.312862 0.674452
O O3 0.000000 0.246797 0.500000
O O4 0.340326 0.716422 0.237977
O O5 0.356368 0.798965 0.217671
O O6 0.386812 0.750337 0.000000
O O7 0.070399 0.500000 0.500000
O O8 0.094846 0.542281 0.253281
O O9 0.000000 0.500000 0.284684
O O10 0.298292 0.695203 0.500000
O O11 0.250000 0.750000 0.327267
O O12 0.243971 0.670838 0.257628
O O13 0.157763 0.383924 0.212361
O O14 0.193964 0.335238 0.000000
O O15 0.947131 0.617331 0.756992
O O16 0.902186 0.584961 0.000000
O O17 0.500000 0.120845 0.500000
#
# Coordination Sequence:
#
# PCOD9483418 Si02
#       7
#     8  16   8  16  16  16   8
#     4  11  21  29  40  60  85 109 137 171 209 250
#     4  10  18  29  43  59  81 107 135 167 204 243
#     4  11  23  35  45  61  82 106 134 171 218 259
#     4   9  17  28  42  60  80 103 130 163 204 243
#     4   9  18  30  44  61  78 100 133 170 206 246
#     4  11  21  33  48  62  77 103 138 173 211 256
#     4  11  21  30  42  59  81 105 132 172 215 253
#
# _framework density 13.062154
#
# number of rings (size 3 to 8) (size 9 to 14) (size 15 to 20)
#    0.000    1.909    2.727    2.455    0.000    5.455 
#    0.000    0.000    0.000    0.000    0.000    0.000 
#    0.000    0.000    0.000    0.000    0.000    0.909 
#
# Total GULP energy -245377.614732 kJ/mol
# GULP energy per Si atom -5576.763971 kJ/mol
# Density = 1.303242 g / cm^3
# Si number density = 13.062154 Si / 1000 Ang^3
#
#
#
# Elastic Constant Matrix: (Units=GPa)
#
#
# Indices 1 2 3 4 5 6 
#
# 1 102.0525 45.3084 57.8324 0.0000 0.0000 0.0000
# 2 45.3084 60.8728 38.2265 0.0000 0.0000 0.0000
# 3 57.8324 38.2265 72.2547 0.0000 0.0000 0.0000
# 4 0.0000 0.0000 0.0000 17.2068 0.0000 0.0000
# 5 0.0000 0.0000 0.0000 0.0000 18.5886 0.0000
# 6 0.0000 0.0000 0.0000 0.0000 0.0000 9.6917
#
#
#
# Elastic Compliance Matrix: (Units=1/GPa)
#
#
# Indices 1 2 3 4 5 6 
#
# 1 0.019826 -0.007176 -0.012072 0.000000 0.000000 0.000000
# 2 -0.007176 0.027198 -0.008646 0.000000 0.000000 0.000000
# 3 -0.012072 -0.008646 0.028077 0.000000 0.000000 0.000000
# 4 0.000000 0.000000 0.000000 0.058117 0.000000 0.000000
# 5 0.000000 0.000000 0.000000 0.000000 0.053796 0.000000
# 6 0.000000 0.000000 0.000000 0.000000 0.000000 0.103181
#
#
# Mechanical properties :
#
#
# Convention : Reuss Voigt Hill
#
# Bulk Modulus (GPa) = 51.77845 57.54606 54.66226
# Shear Modulus (GPa) = 14.18760 15.35158 14.76959
#
# Velocity S-wave (km/s) = 3.29927 3.43194 3.36626
# Velocity P-wave (km/s) = 7.36476 7.73663 7.55299
#
# Compressibility (1/GPa) = 0.01931305
#
# Stress axis : x y z
#
# Youngs Moduli (GPa) = 50.43890 36.76749 35.61664
#
# Poissons Ratio (x) = 0.26383 0.42998
# Poissons Ratio (y) = 0.36193 0.30794
# Poissons Ratio (z) = 0.60892 0.31789
#
# Static dielectric constant tensor:
#      x y z
#    x 1.416630 0.000000 0.000000 
#    y 0.000000 1.414340 0.000000 
#    z 0.000000 0.000000 1.437960 
# 
# From -- ./inp_files/12678.got.cif
#   From: 2010.05.17/outbox.cif.g08.bks.cpg/sg65_7_cif.got.tgz:12678.got - 2010.06.03 17:01:31.
