data_PCOD9483806
_publ_section_title
;
Structure prediction by ZEFSAII (Michael W. Deem and Ramdas Pophale) SiO2 
 PCOD9483806
Probable space group: C M M M
;
_chemical_formula_sum "Si O2"
_cell_formula_units_Z 72
_cell_length_a 23.048697
_cell_length_b 17.542572
_cell_length_c 10.523465
_cell_angle_alpha 90.000000
_cell_angle_beta 90.000000
_cell_angle_gamma 90.000000
_cell_volume 4254.988663
_symmetry_space_group_name_H-M "C M M M"
_symmetry_group_IT_number 65
_symmetry_cell_setting 'orthorhombic'
loop_
_space_group_symop_operation_xyz
x,y,z
-x,-y,z
x,-y,-z
-x,y,-z
-x,-y,-z
x,y,-z
-x,y,z
x,-y,z
1/2+x,1/2+y,z
1/2-x,1/2-y,z
1/2+x,1/2-y,-z
1/2-x,1/2+y,-z
1/2-x,1/2-y,-z
1/2+x,1/2+y,-z
1/2-x,1/2+y,z
1/2+x,1/2-y,z
loop_
_atom_site_type_symbol
_atom_site_label
_atom_site_fract_x
_atom_site_fract_y
_atom_site_fract_z
Si Si1 0.137297 0.907817 0.748910
Si Si2 0.374529 0.088857 0.654611
Si Si3 0.933633 0.092828 0.500000
Si Si4 0.500000 0.093154 0.351764
Si Si5 0.932722 0.092916 0.000000
Si Si6 0.246700 0.659195 0.648374
O O1 0.100450 0.883109 0.625619
O O2 0.102768 0.883935 0.874782
O O3 0.201691 0.875800 0.731103
O O4 0.140239 0.000000 0.748555
O O5 0.377180 0.092045 0.500000
O O6 0.437524 0.117006 0.702585
O O7 0.316980 0.133316 0.692436
O O8 0.367910 0.000000 0.688846
O O9 0.000000 0.119137 0.500000
O O10 0.934689 0.000000 0.500000
O O11 0.500000 0.116115 0.500000
O O12 0.500000 0.000000 0.350287
O O13 0.000000 0.118084 0.000000
O O14 0.934325 0.000000 0.000000
O O15 0.254259 0.633597 0.500000
O O16 0.250000 0.750000 0.649941
#
# Coordination Sequence:
#
# PCOD9483806 Si02
#       6
#    16  16   8   8   8  16
#     4  10  18  30  49  71  95 124 164 201 242 293
#     4   8  13  22  39  59  81 113 152 191 232 278
#     4   9  16  26  45  70  94 121 155 196 236 284
#     4   7  10  18  34  56  76  99 138 186 229 268
#     4   9  18  32  51  74  98 123 157 208 252 280
#     4  10  19  29  42  62  98 131 159 193 239 285
#
# _framework density 16.921315
#
# number of rings (size 3 to 8) (size 9 to 14) (size 15 to 20)
#    0.000    3.000    1.111    2.667    0.000    3.556 
#    0.000    0.556    4.889    0.000    0.000    0.000 
#    0.000    0.000    0.000    8.222    0.000    2.222 
#
# Total GULP energy -200408.201625 kJ/mol
# GULP energy per Si atom -5566.894490 kJ/mol
# Density = 1.688280 g / cm^3
# Si number density = 16.921315 Si / 1000 Ang^3
#
#
#
# Elastic Constant Matrix: (Units=GPa)
#
#
# Indices 1 2 3 4 5 6 
#
# 1 217.3731 40.6802 58.9236 0.0000 0.0000 0.0000
# 2 40.6802 16.8283 12.5414 0.0000 0.0000 0.0000
# 3 58.9236 12.5414 83.4151 0.0000 0.0000 0.0000
# 4 0.0000 0.0000 0.0000 -375.7595 0.0000 0.0000
# 5 0.0000 0.0000 0.0000 0.0000 20.8308 0.0000
# 6 0.0000 0.0000 0.0000 0.0000 0.0000 -6.3624
#
#
#
# Elastic Compliance Matrix: (Units=1/GPa)
#
#
# Indices 1 2 3 4 5 6 
#
# 1 0.009260 -0.019721 -0.003577 0.000000 0.000000 0.000000
# 2 -0.019721 0.108918 -0.002445 0.000000 0.000000 0.000000
# 3 -0.003577 -0.002445 0.014882 0.000000 0.000000 0.000000
# 4 0.000000 0.000000 0.000000 -0.002661 0.000000 0.000000
# 5 0.000000 0.000000 0.000000 0.000000 0.048006 0.000000
# 6 0.000000 0.000000 0.000000 0.000000 0.000000 -0.157173
#
#
# Mechanical properties :
#
#
# Convention : Reuss Voigt Hill
#
# Bulk Modulus (GPa) = 12.25849 60.21187 36.23518
# Shear Modulus (GPa) = 50.04514 -58.56015 -4.25751
#
# Velocity S-wave (km/s) = 5.44421 -5.88918 -1.58793
# Velocity P-wave (km/s) = 6.83954 3.25309 4.25422
#
# Compressibility (1/GPa) = 0.08157612
#
# Stress axis : x y z
#
# Youngs Moduli (GPa) = 107.98568 9.18120 67.19380
#
# Poissons Ratio (x) = 0.18106 0.24032
# Poissons Ratio (y) = 2.12954 0.16431
# Poissons Ratio (z) = 0.38622 0.02245
#
# Static dielectric constant tensor:
#      x y z
#    x 1.602700 0.000000 0.000000 
#    y 0.000000 1.553750 0.000000 
#    z 0.000000 0.000000 1.560270 
# 
# From -- ./inp_files/13626.got.cif
#   From: 2010.05.17/outbox.cif.g08.bks.cpg/sg65_7_cif.got.tgz:13626.got - 2010.06.03 17:01:31.
