data_PCOD9483173
_publ_section_title
;
Structure prediction by ZEFSAII (Michael W. Deem and Ramdas Pophale) SiO2 
 PCOD9483173
Probable space group: C M M M
;
_chemical_formula_sum "Si O2"
_cell_formula_units_Z 96
_cell_length_a 14.017719
_cell_length_b 16.538687
_cell_length_c 24.650286
_cell_angle_alpha 90.000000
_cell_angle_beta 90.000000
_cell_angle_gamma 90.000000
_cell_volume 5714.790846
_symmetry_space_group_name_H-M "C M M M"
_symmetry_group_IT_number 65
_symmetry_cell_setting 'orthorhombic'
loop_
_space_group_symop_operation_xyz
x,y,z
-x,-y,z
x,-y,-z
-x,y,-z
-x,-y,-z
x,y,-z
-x,y,z
x,-y,z
1/2+x,1/2+y,z
1/2-x,1/2-y,z
1/2+x,1/2-y,-z
1/2-x,1/2+y,-z
1/2-x,1/2-y,-z
1/2+x,1/2+y,-z
1/2-x,1/2+y,z
1/2+x,1/2-y,z
loop_
_atom_site_type_symbol
_atom_site_label
_atom_site_fract_x
_atom_site_fract_y
_atom_site_fract_z
Si Si1 0.883916 0.906485 0.500000
Si Si2 0.720293 0.905460 0.107732
Si Si3 0.889422 0.901082 0.381569
Si Si4 0.222015 0.095450 0.275221
Si Si5 0.110342 0.598757 0.000000
Si Si6 0.608831 0.844115 0.790890
Si Si7 0.390806 0.342603 0.173339
O O1 0.856736 0.871868 0.441254
O O2 0.000000 0.907598 0.500000
O O3 0.851929 0.000000 0.500000
O O4 0.667091 0.875835 0.053831
O O5 0.648488 0.895329 0.158411
O O6 0.816498 0.859857 0.125217
O O7 0.743131 0.000000 0.100988
O O8 0.824856 0.875944 0.331198
O O9 0.000000 0.877539 0.372856
O O10 0.888785 0.000000 0.382915
O O11 0.318032 0.140872 0.257844
O O12 0.147991 0.109177 0.225772
O O13 0.242000 0.000000 0.279161
O O14 0.108202 0.500000 0.000000
O O15 0.000000 0.625760 0.000000
O O16 0.500000 0.864566 0.777942
O O17 0.613755 0.751259 0.809960
O O18 0.500000 0.363732 0.160706
#
# Coordination Sequence:
#
# PCOD9483173 Si02
#       7
#     8  16  16  16   8  16  16
#     4   7  10  18  32  52  84 121 147 173 217 270
#     4  10  19  32  52  73  91 114 147 186 224 263
#     4   8  13  21  35  59  90 119 146 179 223 272
#     4  10  18  27  44  69  92 115 147 187 227 267
#     4   9  18  32  50  73  97 119 147 184 224 262
#     4  10  20  33  47  64  89 121 153 184 221 263
#     4  10  20  33  47  65  93 124 149 178 221 273
#
# _framework density 16.798514999999998
#
# number of rings (size 3 to 8) (size 9 to 14) (size 15 to 20)
#    0.000    2.667    0.000    6.000    0.000    4.000 
#    0.000    2.083    0.000    3.500    0.000    2.917 
#    0.000    6.000    0.000    0.000    0.000    0.000 
#
# Total GULP energy -267463.864547 kJ/mol
# GULP energy per Si atom -5572.163845 kJ/mol
# Density = 1.676028 g / cm^3
# Si number density = 16.798515 Si / 1000 Ang^3
#
#
#
# Elastic Constant Matrix: (Units=GPa)
#
#
# Indices 1 2 3 4 5 6 
#
# 1 155.4964 22.0307 83.9704 0.0000 0.0000 0.0000
# 2 22.0307 23.5440 5.9033 0.0000 0.0000 0.0000
# 3 83.9704 5.9033 142.5636 0.0000 0.0000 0.0000
# 4 0.0000 0.0000 0.0000 0.1486 0.0000 0.0000
# 5 0.0000 0.0000 0.0000 0.0000 24.0994 0.0000
# 6 0.0000 0.0000 0.0000 0.0000 0.0000 26.3142
#
#
#
# Elastic Compliance Matrix: (Units=1/GPa)
#
#
# Indices 1 2 3 4 5 6 
#
# 1 0.010957 -0.008725 -0.006093 0.000000 0.000000 0.000000
# 2 -0.008725 0.049867 0.003074 0.000000 0.000000 0.000000
# 3 -0.006093 0.003074 0.010476 0.000000 0.000000 0.000000
# 4 0.000000 0.000000 0.000000 6.731050 0.000000 0.000000
# 5 0.000000 0.000000 0.000000 0.000000 0.041495 0.000000
# 6 0.000000 0.000000 0.000000 0.000000 0.000000 0.038002
#
#
# Mechanical properties :
#
#
# Convention : Reuss Voigt Hill
#
# Bulk Modulus (GPa) = 20.91477 60.60143 40.75810
# Shear Modulus (GPa) = 0.72241 24.09241 12.40741
#
# Velocity S-wave (km/s) = 0.65649 3.79119 2.72067
# Velocity P-wave (km/s) = 3.61276 7.43760 5.84679
#
# Compressibility (1/GPa) = 0.04781311
#
# Stress axis : x y z
#
# Youngs Moduli (GPa) = 91.26306 20.05320 95.45926
#
# Poissons Ratio (x) = 0.17497 0.58160
# Poissons Ratio (y) = 0.79631 -0.29348
# Poissons Ratio (z) = 0.55603 -0.06165
#
# Static dielectric constant tensor:
#      x y z
#    x 1.561130 0.000000 0.000000 
#    y 0.000000 1.581730 0.000000 
#    z 0.000000 0.000000 1.584530 
# 
# From -- ./inp_files/69891.got.cif
#   From: 2010.05.17/outbox.cif.g08.bks.cpg/sg65_35_cif.got.tgz:69891.got - 2010.06.03 17:01:31.
