data_PCOD9483856
_publ_section_title
;
Structure prediction by ZEFSAII (Michael W. Deem and Ramdas Pophale) SiO2 
 PCOD9483856
Probable space group: C M M M
;
_chemical_formula_sum "Si O2"
_cell_formula_units_Z 80
_cell_length_a 17.379185
_cell_length_b 18.134619
_cell_length_c 16.445251
_cell_angle_alpha 90.000000
_cell_angle_beta 90.000000
_cell_angle_gamma 90.000000
_cell_volume 5182.965862
_symmetry_space_group_name_H-M "C M M M"
_symmetry_group_IT_number 65
_symmetry_cell_setting 'orthorhombic'
loop_
_space_group_symop_operation_xyz
x,y,z
-x,-y,z
x,-y,-z
-x,y,-z
-x,-y,-z
x,y,-z
-x,y,z
x,-y,z
1/2+x,1/2+y,z
1/2-x,1/2-y,z
1/2+x,1/2-y,-z
1/2-x,1/2+y,-z
1/2-x,1/2-y,-z
1/2+x,1/2+y,-z
1/2-x,1/2+y,z
1/2+x,1/2-y,z
loop_
_atom_site_type_symbol
_atom_site_label
_atom_site_fract_x
_atom_site_fract_y
_atom_site_fract_z
Si Si1 0.815375 0.192328 0.287457
Si Si2 0.706588 0.581507 0.000000
Si Si3 0.214752 0.414960 0.825014
Si Si4 0.591186 0.797698 0.831182
Si Si5 0.157327 0.762890 0.000000
Si Si6 0.090945 0.914800 0.402736
O O1 0.750000 0.250000 0.317569
O O2 0.772904 0.135403 0.226667
O O3 0.875200 0.240553 0.234887
O O4 0.858099 0.144395 0.355345
O O5 0.757952 0.587847 0.918925
O O6 0.670874 0.500000 0.000000
O O7 0.647935 0.648916 0.000000
O O8 0.215356 0.500000 0.799252
O O9 0.132305 0.376142 0.816944
O O10 0.500000 0.801352 0.828490
O O11 0.620727 0.770536 0.919222
O O12 0.250000 0.750000 0.000000
O O13 0.100567 0.908013 0.500000
O O14 0.000000 0.904207 0.384925
O O15 0.110224 0.000000 0.380513
#
# Coordination Sequence:
#
# PCOD9483856 Si02
#       6
#    16   8  16  16   8  16
#     4  10  19  32  50  72  96 125 161 193 228 280
#     4  10  18  30  50  66  87 121 160 200 233 268
#     4  10  19  32  50  69  92 126 163 199 234 274
#     4  11  21  31  47  71  97 126 157 196 243 282
#     4  12  17  34  49  64  93 123 164 199 233 280
#     4   9  18  33  52  73  98 125 151 188 239 285
#
# _framework density 15.435178000000001
#
# number of rings (size 3 to 8) (size 9 to 14) (size 15 to 20)
#    0.000    1.800    4.000    2.700    0.000    0.800 
#    0.000    0.000    0.000    5.400    0.000    0.000 
#    0.000    0.000    0.000   37.200    0.000    0.000 
#
# Total GULP energy -223059.872103 kJ/mol
# GULP energy per Si atom -5576.496803 kJ/mol
# Density = 1.540005 g / cm^3
# Si number density = 15.435178 Si / 1000 Ang^3
#
#
#
# Elastic Constant Matrix: (Units=GPa)
#
#
# Indices 1 2 3 4 5 6 
#
# 1 78.5749 33.7125 28.0958 0.0000 0.0000 0.0000
# 2 33.7125 117.6135 32.5401 0.0000 0.0000 0.0000
# 3 28.0958 32.5401 57.4690 0.0000 0.0000 0.0000
# 4 0.0000 0.0000 0.0000 21.3341 0.0000 0.0000
# 5 0.0000 0.0000 0.0000 0.0000 22.2028 0.0000
# 6 0.0000 0.0000 0.0000 0.0000 0.0000 21.5972
#
#
#
# Elastic Compliance Matrix: (Units=1/GPa)
#
#
# Indices 1 2 3 4 5 6 
#
# 1 0.016222 -0.002912 -0.006282 0.000000 0.000000 0.000000
# 2 -0.002912 0.010604 -0.004581 0.000000 0.000000 0.000000
# 3 -0.006282 -0.004581 0.023066 0.000000 0.000000 0.000000
# 4 0.000000 0.000000 0.000000 0.046873 0.000000 0.000000
# 5 0.000000 0.000000 0.000000 0.000000 0.045039 0.000000
# 6 0.000000 0.000000 0.000000 0.000000 0.000000 0.046302
#
#
# Mechanical properties :
#
#
# Convention : Reuss Voigt Hill
#
# Bulk Modulus (GPa) = 44.75720 49.15046 46.95383
# Shear Modulus (GPa) = 22.41099 23.64742 23.02920
#
# Velocity S-wave (km/s) = 3.81457 3.91838 3.86683
# Velocity P-wave (km/s) = 6.96140 7.23767 7.10088
#
# Compressibility (1/GPa) = 0.02234278
#
# Stress axis : x y z
#
# Youngs Moduli (GPa) = 61.64351 94.29983 43.35434
#
# Poissons Ratio (x) = 0.27459 0.27236
# Poissons Ratio (y) = 0.17950 0.19860
# Poissons Ratio (z) = 0.38725 0.43198
#
# Static dielectric constant tensor:
#      x y z
#    x 1.492870 0.000000 0.000000 
#    y 0.000000 1.531210 0.000000 
#    z 0.000000 0.000000 1.495490 
# 
# From -- ./inp_files/42374.got.cif
#   From: 2010.05.17/outbox.cif.g08.bks.cpg/sg65_22_cif.got.tgz:42374.got - 2010.06.03 17:01:31.
