data_PCOD9483705
_publ_section_title
;
Structure prediction by ZEFSAII (Michael W. Deem and Ramdas Pophale) SiO2 
 PCOD9483705
Probable space group: C M M M
;
_chemical_formula_sum "Si O2"
_cell_formula_units_Z 96
_cell_length_a 14.786660
_cell_length_b 10.849063
_cell_length_c 28.799015
_cell_angle_alpha 90.000000
_cell_angle_beta 90.000000
_cell_angle_gamma 90.000000
_cell_volume 4619.978475
_symmetry_space_group_name_H-M "C M M M"
_symmetry_group_IT_number 65
_symmetry_cell_setting 'orthorhombic'
loop_
_space_group_symop_operation_xyz
x,y,z
-x,-y,z
x,-y,-z
-x,y,-z
-x,-y,-z
x,y,-z
-x,y,z
x,-y,z
1/2+x,1/2+y,z
1/2-x,1/2-y,z
1/2+x,1/2-y,-z
1/2-x,1/2+y,-z
1/2-x,1/2-y,-z
1/2+x,1/2+y,-z
1/2-x,1/2+y,z
1/2+x,1/2-y,z
loop_
_atom_site_type_symbol
_atom_site_label
_atom_site_fract_x
_atom_site_fract_y
_atom_site_fract_z
Si Si1 0.358751 0.000000 0.189500
Si Si2 0.389452 0.246743 0.351716
Si Si3 0.355146 0.500000 0.194959
Si Si4 0.609464 0.500000 0.303910
Si Si5 0.609188 0.358247 0.052072
Si Si6 0.355605 0.253101 0.149055
Si Si7 0.610144 0.856616 0.551765
Si Si8 0.891946 0.500000 0.701008
O O1 0.250649 0.000000 0.181559
O O2 0.395254 0.874842 0.166918
O O3 0.373571 0.000000 0.244463
O O4 0.500000 0.247751 0.350828
O O5 0.359675 0.375149 0.329303
O O6 0.361193 0.226326 0.405021
O O7 0.359365 0.126430 0.322751
O O8 0.362583 0.500000 0.250263
O O9 0.395073 0.375124 0.173306
O O10 0.500000 0.500000 0.304771
O O11 0.500000 0.359494 0.052001
O O12 0.639063 0.500000 0.061043
O O13 0.638478 0.271927 0.093957
O O14 0.638764 0.323320 0.000000
O O15 0.250000 0.250000 0.162375
O O16 0.639916 0.819565 0.500000
O O17 0.500000 0.855149 0.551521
O O18 0.635714 0.000000 0.559671
O O19 0.000000 0.500000 0.694152
#
# Coordination Sequence:
#
# PCOD9483705 Si02
#       8
#     8  16   8   8  16  16  16   8
#     4  10  22  34  49  74 101 130 164 204 251 292
#     4   9  16  27  41  63  92 120 153 196 241 285
#     4  10  20  36  51  68  97 132 170 206 241 292
#     4  10  20  30  45  67  93 124 160 203 247 288
#     4   9  18  34  57  82 105 133 171 209 242 288
#     4  10  20  35  54  75 102 133 166 208 251 293
#     4   8  12  20  37  59  85 120 155 187 233 292
#     4  10  18  30  47  65  91 124 156 193 237 288
#
# _framework density 20.779316999999999
#
# number of rings (size 3 to 8) (size 9 to 14) (size 15 to 20)
#    0.000    2.667    1.667    2.000    0.000    1.667 
#    0.000    0.833    0.000    3.500    0.000    0.000 
#    0.000    4.000    0.000    0.000    0.000    0.000 
#
# Total GULP energy -267886.557136 kJ/mol
# GULP energy per Si atom -5580.969940 kJ/mol
# Density = 2.073202 g / cm^3
# Si number density = 20.779317 Si / 1000 Ang^3
#
#
#
# Elastic Constant Matrix: (Units=GPa)
#
#
# Indices 1 2 3 4 5 6 
#
# 1 52.9310 13.4760 -15.7842 0.0000 0.0000 0.0000
# 2 13.4760 190.4357 112.4304 0.0000 0.0000 0.0000
# 3 -15.7842 112.4304 163.0884 0.0000 0.0000 0.0000
# 4 0.0000 0.0000 0.0000 -16.8186 0.0000 0.0000
# 5 0.0000 0.0000 0.0000 0.0000 28.3155 0.0000
# 6 0.0000 0.0000 0.0000 0.0000 0.0000 -11.7154
#
#
#
# Elastic Compliance Matrix: (Units=1/GPa)
#
#
# Indices 1 2 3 4 5 6 
#
# 1 0.021669 -0.004674 0.005319 0.000000 0.000000 0.000000
# 2 -0.004674 0.009863 -0.007252 0.000000 0.000000 0.000000
# 3 0.005319 -0.007252 0.011646 0.000000 0.000000 0.000000
# 4 0.000000 0.000000 0.000000 -0.059458 0.000000 0.000000
# 5 0.000000 0.000000 0.000000 0.000000 0.035316 0.000000
# 6 0.000000 0.000000 0.000000 0.000000 0.000000 -0.085357
#
#
# Mechanical properties :
#
#
# Convention : Reuss Voigt Hill
#
# Bulk Modulus (GPa) = 33.37259 69.63327 51.50293
# Shear Modulus (GPa) = -115.95426 19.71184 -48.12121
#
# Velocity S-wave (km/s) = -7.47823 3.08332 -4.81752
# Velocity P-wave (km/s) = 7.64656 6.80143 2.47087
#
# Compressibility (1/GPa) = 0.02996471
#
# Stress axis : x y z
#
# Youngs Moduli (GPa) = 46.14971 101.38631 85.86798
#
# Poissons Ratio (x) = 0.47385 -0.45674
# Poissons Ratio (y) = 0.21569 0.62271
# Poissons Ratio (z) = -0.24548 0.73524
#
# Static dielectric constant tensor:
#      x y z
#    x 1.766570 0.000000 0.000000 
#    y 0.000000 1.750180 0.000000 
#    z 0.000000 0.000000 1.716650 
# 
# From -- ./inp_files/71193.got.cif
#   From: 2010.05.17/outbox.cif.g08.bks.cpg/sg65_36_cif.got.tgz:71193.got - 2010.06.03 17:01:31.
