data_PCOD9483886
_publ_section_title
;
Structure prediction by ZEFSAII (Michael W. Deem and Ramdas Pophale) SiO2 
 PCOD9483886
Probable space group: C M M M
;
_chemical_formula_sum "Si O2"
_cell_formula_units_Z 80
_cell_length_a 26.108165
_cell_length_b 11.831661
_cell_length_c 16.718855
_cell_angle_alpha 90.000000
_cell_angle_beta 90.000000
_cell_angle_gamma 90.000000
_cell_volume 5164.503757
_symmetry_space_group_name_H-M "C M M M"
_symmetry_group_IT_number 65
_symmetry_cell_setting 'orthorhombic'
loop_
_space_group_symop_operation_xyz
x,y,z
-x,-y,z
x,-y,-z
-x,y,-z
-x,-y,-z
x,y,-z
-x,y,z
x,-y,z
1/2+x,1/2+y,z
1/2-x,1/2-y,z
1/2+x,1/2-y,-z
1/2-x,1/2+y,-z
1/2-x,1/2-y,-z
1/2+x,1/2+y,-z
1/2-x,1/2+y,z
1/2+x,1/2-y,z
loop_
_atom_site_type_symbol
_atom_site_label
_atom_site_fract_x
_atom_site_fract_y
_atom_site_fract_z
Si Si1 0.442950 0.500000 0.273699
Si Si2 0.559997 0.727672 0.830102
Si Si3 0.398154 0.135391 0.690155
Si Si4 0.562362 0.368176 0.000000
Si Si5 0.000000 0.362528 0.407874
Si Si6 0.809366 0.242939 0.406885
Si Si7 0.859892 0.000000 0.411015
O O1 0.500000 0.500000 0.308441
O O2 0.437768 0.610133 0.218552
O O3 0.401979 0.500000 0.342979
O O4 0.500000 0.763443 0.832460
O O5 0.592348 0.816545 0.778878
O O6 0.577461 0.697794 0.919653
O O7 0.448577 0.172373 0.638825
O O8 0.348139 0.186622 0.648060
O O9 0.396059 0.000000 0.689886
O O10 0.579215 0.500000 0.000000
O O11 0.500000 0.372204 0.000000
O O12 0.000000 0.500000 0.408704
O O13 0.000000 0.323976 0.500000
O O14 0.813930 0.280940 0.500000
O O15 0.750000 0.250000 0.383447
O O16 0.826447 0.112671 0.403597
O O17 0.883256 0.000000 0.500000
#
# Coordination Sequence:
#
# PCOD9483886 Si02
#       7
#     8  16  16   8   8  16   8
#     4  10  18  30  50  74 105 139 167 205 257 303
#     4  10  18  31  50  75 106 136 170 212 255 304
#     4  11  21  33  51  74 104 141 176 211 258 312
#     4   9  16  28  49  77 102 135 175 211 252 310
#     4   9  18  32  48  68  97 136 180 214 242 294
#     4  10  22  37  53  73 100 136 179 225 262 298
#     4  10  20  35  51  73 104 135 173 217 260 302
#
# _framework density 15.490356
#
# number of rings (size 3 to 8) (size 9 to 14) (size 15 to 20)
#    0.000    2.000    4.000    0.600    1.400    1.400 
#    0.000    0.500    0.000    1.800    0.000    0.700 
#    0.000    0.000    0.000    0.000    0.000    0.000 
#
# Total GULP energy -223108.085628 kJ/mol
# GULP energy per Si atom -5577.702141 kJ/mol
# Density = 1.545510 g / cm^3
# Si number density = 15.490356 Si / 1000 Ang^3
#
#
#
# Elastic Constant Matrix: (Units=GPa)
#
#
# Indices 1 2 3 4 5 6 
#
# 1 100.3628 34.6248 68.5153 0.0000 0.0000 0.0000
# 2 34.6248 69.5794 42.1854 0.0000 0.0000 0.0000
# 3 68.5153 42.1854 129.1007 0.0000 0.0000 0.0000
# 4 0.0000 0.0000 0.0000 19.5999 0.0000 0.0000
# 5 0.0000 0.0000 0.0000 0.0000 15.0868 0.0000
# 6 0.0000 0.0000 0.0000 0.0000 0.0000 4.3402
#
#
#
# Elastic Compliance Matrix: (Units=1/GPa)
#
#
# Indices 1 2 3 4 5 6 
#
# 1 0.016309 -0.003577 -0.007486 0.000000 0.000000 0.000000
# 2 -0.003577 0.018707 -0.004215 0.000000 0.000000 0.000000
# 3 -0.007486 -0.004215 0.013096 0.000000 0.000000 0.000000
# 4 0.000000 0.000000 0.000000 0.051021 0.000000 0.000000
# 5 0.000000 0.000000 0.000000 0.000000 0.066283 0.000000
# 6 0.000000 0.000000 0.000000 0.000000 0.000000 0.230402
#
#
# Mechanical properties :
#
#
# Convention : Reuss Voigt Hill
#
# Bulk Modulus (GPa) = 56.95892 65.52154 61.24023
# Shear Modulus (GPa) = 11.56803 18.05322 14.81062
#
# Velocity S-wave (km/s) = 2.73571 3.41757 3.09547
# Velocity P-wave (km/s) = 6.84319 7.61335 7.23852
#
# Compressibility (1/GPa) = 0.01755651
#
# Stress axis : x y z
#
# Youngs Moduli (GPa) = 61.31729 53.45528 76.35785
#
# Poissons Ratio (x) = 0.19119 0.57165
# Poissons Ratio (y) = 0.21931 0.32182
# Poissons Ratio (z) = 0.45905 0.22529
#
# Static dielectric constant tensor:
#      x y z
#    x 1.492280 0.000000 0.000000 
#    y 0.000000 1.522630 0.000000 
#    z 0.000000 0.000000 1.517170 
# 
# From -- ./inp_files/55635.got.cif
#   From: 2010.05.17/outbox.cif.g08.bks.cpg/sg65_28_cif.got.tgz:55635.got - 2010.06.03 17:01:31.
