data_PCOD9483569
_publ_section_title
;
Structure prediction by ZEFSAII (Michael W. Deem and Ramdas Pophale) SiO2 
 PCOD9483569
Probable space group: C M M M
;
_chemical_formula_sum "Si O2"
_cell_formula_units_Z 104
_cell_length_a 23.334605
_cell_length_b 16.230957
_cell_length_c 17.197126
_cell_angle_alpha 90.000000
_cell_angle_beta 90.000000
_cell_angle_gamma 90.000000
_cell_volume 6513.290583
_symmetry_space_group_name_H-M "C M M M"
_symmetry_group_IT_number 65
_symmetry_cell_setting 'orthorhombic'
loop_
_space_group_symop_operation_xyz
x,y,z
-x,-y,z
x,-y,-z
-x,y,-z
-x,-y,-z
x,y,-z
-x,y,z
x,-y,z
1/2+x,1/2+y,z
1/2-x,1/2-y,z
1/2+x,1/2-y,-z
1/2-x,1/2+y,-z
1/2-x,1/2-y,-z
1/2+x,1/2+y,-z
1/2-x,1/2+y,z
1/2+x,1/2-y,z
loop_
_atom_site_type_symbol
_atom_site_label
_atom_site_fract_x
_atom_site_fract_y
_atom_site_fract_z
Si Si1 0.808884 0.194930 0.654208
Si Si2 0.680084 0.743561 0.090292
Si Si3 0.379225 0.848291 0.339763
Si Si4 0.500000 0.900610 0.407110
Si Si5 0.335650 0.090494 0.824123
Si Si6 0.189658 0.094260 0.500000
Si Si7 0.198768 0.092324 0.807242
Si Si8 0.673430 0.091444 0.500000
O O1 0.750000 0.250000 0.649555
O O2 0.860257 0.255413 0.677711
O O3 0.823831 0.148602 0.575083
O O4 0.801720 0.126810 0.720092
O O5 0.750000 0.750000 0.094426
O O6 0.652221 0.825646 0.128021
O O7 0.668693 0.660344 0.138559
O O8 0.664591 0.736878 0.000000
O O9 0.444192 0.866317 0.363241
O O10 0.357828 0.898696 0.264538
O O11 0.345563 0.868141 0.419775
O O12 0.500000 0.879280 0.500000
O O13 0.500000 0.000000 0.402721
O O14 0.266518 0.088255 0.826060
O O15 0.355683 0.000000 0.853055
O O16 0.258561 0.087563 0.500000
O O17 0.167220 0.000000 0.500000
O O18 0.175361 0.000000 0.814073
O O19 0.647388 0.000000 0.500000
#
# Coordination Sequence:
#
# PCOD9483569 Si02
#       8
#    16  16  16   8  16   8  16   8
#     4  12  19  32  48  71 101 134 172 215 264 314
#     4   9  17  30  45  68 104 139 170 206 248 310
#     4  12  21  33  51  69 100 138 175 217 263 302
#     4  11  24  38  50  72 101 137 182 225 262 308
#     4  10  18  29  48  72 100 138 173 206 253 308
#     4  11  22  30  42  73 104 134 171 212 264 319
#     4  10  18  30  47  71 103 137 170 207 254 310
#     4  11  19  28  44  68  97 135 170 204 252 303
#
# _framework density 15.967351000000001
#
# number of rings (size 3 to 8) (size 9 to 14) (size 15 to 20)
#    0.000    1.308    5.385    3.000    0.000    3.077 
#    0.000    3.077    0.000    0.000    0.000    3.231 
#    0.000    1.846    0.000    1.385    0.000    0.154 
#
# Total GULP energy -289688.295786 kJ/mol
# GULP energy per Si atom -5570.928765 kJ/mol
# Density = 1.593101 g / cm^3
# Si number density = 15.967351 Si / 1000 Ang^3
#
#
#
# Elastic Constant Matrix: (Units=GPa)
#
#
# Indices 1 2 3 4 5 6 
#
# 1 38.8580 15.2492 -5.8046 0.0000 0.0000 0.0000
# 2 15.2492 138.7212 53.2208 0.0000 0.0000 0.0000
# 3 -5.8046 53.2208 88.1416 0.0000 0.0000 0.0000
# 4 0.0000 0.0000 0.0000 -20.5825 0.0000 0.0000
# 5 0.0000 0.0000 0.0000 0.0000 8.6631 0.0000
# 6 0.0000 0.0000 0.0000 0.0000 0.0000 11.5465
#
#
#
# Elastic Compliance Matrix: (Units=1/GPa)
#
#
# Indices 1 2 3 4 5 6 
#
# 1 0.028429 -0.005002 0.004892 0.000000 0.000000 0.000000
# 2 -0.005002 0.010262 -0.006526 0.000000 0.000000 0.000000
# 3 0.004892 -0.006526 0.015608 0.000000 0.000000 0.000000
# 4 0.000000 0.000000 0.000000 -0.048585 0.000000 0.000000
# 5 0.000000 0.000000 0.000000 0.000000 0.115432 0.000000
# 6 0.000000 0.000000 0.000000 0.000000 0.000000 0.086606
#
#
# Mechanical properties :
#
#
# Convention : Reuss Voigt Hill
#
# Bulk Modulus (GPa) = 24.37372 43.45020 33.91196
# Shear Modulus (GPa) = 21.30387 13.46245 17.38316
#
# Velocity S-wave (km/s) = 3.65665 2.90681 3.30308
# Velocity P-wave (km/s) = 5.75552 6.20782 5.98594
#
# Compressibility (1/GPa) = 0.04102779
#
# Stress axis : x y z
#
# Youngs Moduli (GPa) = 35.17593 97.44467 64.06985
#
# Poissons Ratio (x) = 0.48743 -0.31346
# Poissons Ratio (y) = 0.17595 0.41811
# Poissons Ratio (z) = -0.17210 0.63591
#
# Static dielectric constant tensor:
#      x y z
#    x 1.517020 0.000000 0.000000 
#    y 0.000000 1.594420 0.000000 
#    z 0.000000 0.000000 1.663130 
# 
# From -- ./inp_files/53526.got.cif
#   From: 2010.05.17/outbox.cif.g08.bks.cpg/sg65_27_cif.got.tgz:53526.got - 2010.06.03 17:01:31.
