data_PCOD9483766
_publ_section_title
;
Structure prediction by ZEFSAII (Michael W. Deem and Ramdas Pophale) SiO2 
 PCOD9483766
Probable space group: C M M M
;
_chemical_formula_sum "Si O2"
_cell_formula_units_Z 104
_cell_length_a 29.383781
_cell_length_b 8.676088
_cell_length_c 23.985209
_cell_angle_alpha 90.000000
_cell_angle_beta 90.000000
_cell_angle_gamma 90.000000
_cell_volume 6114.699711
_symmetry_space_group_name_H-M "C M M M"
_symmetry_group_IT_number 65
_symmetry_cell_setting 'orthorhombic'
loop_
_space_group_symop_operation_xyz
x,y,z
-x,-y,z
x,-y,-z
-x,y,-z
-x,-y,-z
x,y,-z
-x,y,z
x,-y,z
1/2+x,1/2+y,z
1/2-x,1/2-y,z
1/2+x,1/2-y,-z
1/2-x,1/2+y,-z
1/2-x,1/2-y,-z
1/2+x,1/2+y,-z
1/2-x,1/2+y,z
1/2+x,1/2-y,z
loop_
_atom_site_type_symbol
_atom_site_label
_atom_site_fract_x
_atom_site_fract_y
_atom_site_fract_z
Si Si1 0.698459 0.684318 0.000000
Si Si2 0.800691 0.816778 0.333875
Si Si3 0.854129 0.314360 0.772414
Si Si4 0.644382 0.816391 0.437884
Si Si5 0.801325 0.685636 0.116099
Si Si6 0.949103 0.315072 0.724900
Si Si7 0.948473 0.816143 0.600594
O O1 0.750000 0.750000 0.000000
O O2 0.679157 0.747925 0.941900
O O3 0.699232 0.500000 0.000000
O O4 0.750000 0.750000 0.334734
O O5 0.826854 0.755115 0.279502
O O6 0.827613 0.763569 0.388862
O O7 0.798969 0.000000 0.331889
O O8 0.850659 0.500000 0.768879
O O9 0.831519 0.268502 0.830780
O O10 0.907164 0.272926 0.764497
O O11 0.660380 0.773687 0.500000
O O12 0.591783 0.767943 0.431470
O O13 0.648238 0.000000 0.431295
O O14 0.799003 0.500000 0.112501
O O15 0.750000 0.750000 0.123488
O O16 0.946553 0.500000 0.714686
O O17 0.943806 0.230975 0.665579
O O18 0.000000 0.281247 0.746308
O O19 0.000000 0.774098 0.583260
O O20 0.943406 0.000000 0.594900
#
# Coordination Sequence:
#
# PCOD9483766 Si02
#       7
#     8  16  16  16  16  16  16
#     4  10  18  30  48  70 101 140 179 219 258 305
#     4  12  25  40  59  79 104 137 171 216 265 314
#     4  10  20  34  54  81 111 140 175 216 259 311
#     4  11  24  41  59  78 102 134 175 218 262 318
#     4  10  19  31  48  73 106 143 179 217 257 303
#     4   9  17  31  53  78 106 140 173 209 256 311
#     4  10  20  34  54  81 109 136 168 210 262 317
#
# _framework density 17.008195000000001
#
# number of rings (size 3 to 8) (size 9 to 14) (size 15 to 20)
#    0.000    1.692    1.538    4.846    0.000    5.231 
#    0.000    1.538    0.000    0.000    0.000    0.538 
#    0.000    4.308    0.000    0.000    0.000    0.000 
#
# Total GULP energy -290340.234311 kJ/mol
# GULP energy per Si atom -5583.466044 kJ/mol
# Density = 1.696948 g / cm^3
# Si number density = 17.008195 Si / 1000 Ang^3
#
#
#
# Elastic Constant Matrix: (Units=GPa)
#
#
# Indices 1 2 3 4 5 6 
#
# 1 98.6603 26.9117 63.9948 0.0000 0.0000 0.0000
# 2 26.9117 43.5035 41.8695 0.0000 0.0000 0.0000
# 3 63.9948 41.8695 141.6405 0.0000 0.0000 0.0000
# 4 0.0000 0.0000 0.0000 14.9389 0.0000 0.0000
# 5 0.0000 0.0000 0.0000 0.0000 32.0533 0.0000
# 6 0.0000 0.0000 0.0000 0.0000 0.0000 20.6998
#
#
#
# Elastic Compliance Matrix: (Units=1/GPa)
#
#
# Indices 1 2 3 4 5 6 
#
# 1 0.014772 -0.003794 -0.005553 0.000000 0.000000 0.000000
# 2 -0.003794 0.033101 -0.008071 0.000000 0.000000 0.000000
# 3 -0.005553 -0.008071 0.011955 0.000000 0.000000 0.000000
# 4 0.000000 0.000000 0.000000 0.066939 0.000000 0.000000
# 5 0.000000 0.000000 0.000000 0.000000 0.031198 0.000000
# 6 0.000000 0.000000 0.000000 0.000000 0.000000 0.048310
#
#
# Mechanical properties :
#
#
# Convention : Reuss Voigt Hill
#
# Bulk Modulus (GPa) = 40.01089 61.03958 50.52523
# Shear Modulus (GPa) = 20.04478 23.60695 21.82587
#
# Velocity S-wave (km/s) = 3.43671 3.72960 3.58614
# Velocity P-wave (km/s) = 6.27084 7.38328 6.84968
#
# Compressibility (1/GPa) = 0.02499320
#
# Stress axis : x y z
#
# Youngs Moduli (GPa) = 67.69337 30.21039 83.64944
#
# Poissons Ratio (x) = 0.11462 0.46449
# Poissons Ratio (y) = 0.25684 0.67510
# Poissons Ratio (z) = 0.37589 0.24382
#
# Static dielectric constant tensor:
#      x y z
#    x 1.578830 0.000000 0.000000 
#    y 0.000000 1.574500 0.000000 
#    z 0.000000 0.000000 1.578770 
# 
# From -- ./inp_files/71836.got.cif
#   From: 2010.05.17/outbox.cif.g08.bks.cpg/sg65_36_cif.got.tgz:71836.got - 2010.06.03 17:01:31.
