data_PCOD9483221
_publ_section_title
;
Structure prediction by ZEFSAII (Michael W. Deem and Ramdas Pophale) SiO2 
 PCOD9483221
Probable space group: C M M M
;
_chemical_formula_sum "Si O2"
_cell_formula_units_Z 96
_cell_length_a 28.190271
_cell_length_b 8.514143
_cell_length_c 24.813790
_cell_angle_alpha 90.000000
_cell_angle_beta 90.000000
_cell_angle_gamma 90.000000
_cell_volume 5955.706583
_symmetry_space_group_name_H-M "C M M M"
_symmetry_group_IT_number 65
_symmetry_cell_setting 'orthorhombic'
loop_
_space_group_symop_operation_xyz
x,y,z
-x,-y,z
x,-y,-z
-x,y,-z
-x,-y,-z
x,y,-z
-x,y,z
x,-y,z
1/2+x,1/2+y,z
1/2-x,1/2-y,z
1/2+x,1/2-y,-z
1/2-x,1/2+y,-z
1/2-x,1/2-y,-z
1/2+x,1/2+y,-z
1/2-x,1/2+y,z
1/2+x,1/2-y,z
loop_
_atom_site_type_symbol
_atom_site_label
_atom_site_fract_x
_atom_site_fract_y
_atom_site_fract_z
Si Si1 0.945318 0.312308 0.000000
Si Si2 0.552973 0.308664 0.780592
Si Si3 0.696074 0.188275 0.382444
Si Si4 0.102276 0.189682 0.891717
Si Si5 0.147946 0.189694 0.724405
Si Si6 0.697857 0.310720 0.834868
Si Si7 0.196027 0.689375 0.500000
O O1 0.918109 0.255437 0.946807
O O2 0.946480 0.500000 0.000000
O O3 0.000000 0.254002 0.000000
O O4 0.500000 0.253000 0.768569
O O5 0.552548 0.500000 0.779648
O O6 0.569390 0.264231 0.840860
O O7 0.594730 0.259080 0.740263
O O8 0.750000 0.250000 0.377508
O O9 0.666210 0.248055 0.332115
O O10 0.676523 0.239406 0.441547
O O11 0.697520 0.000000 0.381171
O O12 0.155815 0.238744 0.875550
O O13 0.101902 0.000000 0.894572
O O14 0.181454 0.239006 0.774628
O O15 0.148744 0.000000 0.723193
O O16 0.698551 0.500000 0.835047
O O17 0.750000 0.250000 0.847672
O O18 0.196153 0.500000 0.500000
O O19 0.250000 0.750000 0.500000
#
# Coordination Sequence:
#
# PCOD9483221 Si02
#       7
#     8  16  16  16  16  16   8
#     4  11  23  35  48  71  98 117 138 177 228 271
#     4   8  14  27  48  70  90 114 145 181 219 258
#     4  10  18  28  42  61  87 118 150 182 217 257
#     4   9  18  33  52  71  89 115 153 184 209 255
#     4   9  17  28  43  67  94 116 144 181 219 261
#     4   9  18  31  47  68  93 120 149 181 215 255
#     4   8  16  28  40  56  81 114 149 183 216 253
#
# _framework density 16.118994000000001
#
# number of rings (size 3 to 8) (size 9 to 14) (size 15 to 20)
#    0.000    2.917    0.000    3.750    0.000    4.667 
#    0.000    2.917    0.000    1.500    0.000    0.583 
#    0.000    4.667    0.000    0.000    0.000    0.000 
#
# Total GULP energy -267368.417383 kJ/mol
# GULP energy per Si atom -5570.175362 kJ/mol
# Density = 1.608231 g / cm^3
# Si number density = 16.118994 Si / 1000 Ang^3
#
#
#
# Elastic Constant Matrix: (Units=GPa)
#
#
# Indices 1 2 3 4 5 6 
#
# 1 131.5918 20.6036 83.4591 0.0000 0.0000 0.0000
# 2 20.6036 13.0913 25.8513 0.0000 0.0000 0.0000
# 3 83.4591 25.8513 162.7757 0.0000 0.0000 0.0000
# 4 0.0000 0.0000 0.0000 20.5009 0.0000 0.0000
# 5 0.0000 0.0000 0.0000 0.0000 17.8250 0.0000
# 6 0.0000 0.0000 0.0000 0.0000 0.0000 18.2463
#
#
#
# Elastic Compliance Matrix: (Units=1/GPa)
#
#
# Indices 1 2 3 4 5 6 
#
# 1 0.012079 -0.009879 -0.004624 0.000000 0.000000 0.000000
# 2 -0.009879 0.119367 -0.013892 0.000000 0.000000 0.000000
# 3 -0.004624 -0.013892 0.010721 0.000000 0.000000 0.000000
# 4 0.000000 0.000000 0.000000 0.048778 0.000000 0.000000
# 5 0.000000 0.000000 0.000000 0.000000 0.056101 0.000000
# 6 0.000000 0.000000 0.000000 0.000000 0.000000 0.054806
#
#
# Mechanical properties :
#
#
# Convention : Reuss Voigt Hill
#
# Bulk Modulus (GPa) = 11.71290 63.03190 37.37240
# Shear Modulus (GPa) = 12.91655 23.15075 18.03365
#
# Velocity S-wave (km/s) = 2.83384 3.79389 3.34845
# Velocity P-wave (km/s) = 4.24144 7.64071 6.17941
#
# Compressibility (1/GPa) = 0.08537599
#
# Stress axis : x y z
#
# Youngs Moduli (GPa) = 82.78976 8.37753 93.27775
#
# Poissons Ratio (x) = 0.08276 0.43134
# Poissons Ratio (y) = 0.81786 1.29584
# Poissons Ratio (z) = 0.38284 0.11638
#
# Static dielectric constant tensor:
#      x y z
#    x 1.533410 0.000000 0.000000 
#    y 0.000000 1.560330 0.000000 
#    z 0.000000 0.000000 1.544430 
# 
# From -- ./inp_files/71756.got.cif
#   From: 2010.05.17/outbox.cif.g08.bks.cpg/sg65_36_cif.got.tgz:71756.got - 2010.06.03 17:01:31.
