data_PCOD9483878
_publ_section_title
;
Structure prediction by ZEFSAII (Michael W. Deem and Ramdas Pophale) SiO2 
 PCOD9483878
Probable space group: C M M M
;
_chemical_formula_sum "Si O2"
_cell_formula_units_Z 80
_cell_length_a 7.502870
_cell_length_b 24.492044
_cell_length_c 21.337803
_cell_angle_alpha 90.000000
_cell_angle_beta 90.000000
_cell_angle_gamma 90.000000
_cell_volume 3921.047955
_symmetry_space_group_name_H-M "C M M M"
_symmetry_group_IT_number 65
_symmetry_cell_setting 'orthorhombic'
loop_
_space_group_symop_operation_xyz
x,y,z
-x,-y,z
x,-y,-z
-x,y,-z
-x,-y,-z
x,y,-z
-x,y,z
x,-y,z
1/2+x,1/2+y,z
1/2-x,1/2-y,z
1/2+x,1/2-y,-z
1/2-x,1/2+y,-z
1/2-x,1/2-y,-z
1/2+x,1/2+y,-z
1/2-x,1/2+y,z
1/2+x,1/2-y,z
loop_
_atom_site_type_symbol
_atom_site_label
_atom_site_fract_x
_atom_site_fract_y
_atom_site_fract_z
Si Si1 0.287055 0.387797 0.303476
Si Si2 0.216206 0.000000 0.901795
Si Si3 0.786628 0.561688 0.429290
Si Si4 0.717913 0.378554 0.068124
Si Si5 0.282869 0.500000 0.756134
Si Si6 0.713523 0.686078 0.191539
O O1 0.500000 0.387703 0.297020
O O2 0.254228 0.392866 0.377438
O O3 0.217812 0.445124 0.276124
O O4 0.220237 0.340565 0.256914
O O5 0.275217 0.058064 0.928524
O O6 0.262649 0.000000 0.828754
O O7 0.000000 0.000000 0.907639
O O8 0.722953 0.573286 0.500000
O O9 0.721006 0.500000 0.411877
O O10 0.000000 0.558281 0.431742
O O11 0.500000 0.378407 0.070005
O O12 0.779734 0.345993 0.129666
O O13 0.770698 0.355702 0.000000
O O14 0.500000 0.500000 0.752758
O O15 0.500000 0.679272 0.190806
O O16 0.750000 0.750000 0.188004
#
# Coordination Sequence:
#
# PCOD9483878 Si02
#       6
#    16   8  16  16   8  16
#     4  10  18  30  50  73  98 128 164 205 245 286
#     4   9  13  22  41  68 100 126 152 195 250 299
#     4   9  18  31  47  73 109 139 158 183 229 291
#     4   9  16  26  43  69  99 128 159 199 248 298
#     4   9  14  23  42  69  97 122 151 196 250 290
#     4  10  21  35  50  70  96 128 169 213 250 287
#
# _framework density 20.402709999999999
#
# number of rings (size 3 to 8) (size 9 to 14) (size 15 to 20)
#    0.000    2.600    3.000    0.900    0.000    2.800 
#    0.000    1.000    0.000    0.600    0.000    0.000 
#    0.000    1.600    0.000    0.000    0.000    0.000 
#
# Total GULP energy -223040.538904 kJ/mol
# GULP energy per Si atom -5576.013473 kJ/mol
# Density = 2.035627 g / cm^3
# Si number density = 20.402710 Si / 1000 Ang^3
#
#
#
# Elastic Constant Matrix: (Units=GPa)
#
#
# Indices 1 2 3 4 5 6 
#
# 1 53.9803 2.1323 5.5443 0.0000 0.0000 0.0000
# 2 2.1323 121.8125 88.8495 0.0000 0.0000 0.0000
# 3 5.5443 88.8495 188.2601 0.0000 0.0000 0.0000
# 4 0.0000 0.0000 0.0000 -33.9287 0.0000 0.0000
# 5 0.0000 0.0000 0.0000 0.0000 86.9848 0.0000
# 6 0.0000 0.0000 0.0000 0.0000 0.0000 11.1994
#
#
#
# Elastic Compliance Matrix: (Units=1/GPa)
#
#
# Indices 1 2 3 4 5 6 
#
# 1 0.018582 0.000113 -0.000600 0.000000 0.000000 0.000000
# 2 0.000113 0.012519 -0.005912 0.000000 0.000000 0.000000
# 3 -0.000600 -0.005912 0.008120 0.000000 0.000000 0.000000
# 4 0.000000 0.000000 0.000000 -0.029474 0.000000 0.000000
# 5 0.000000 0.000000 0.000000 0.000000 0.011496 0.000000
# 6 0.000000 0.000000 0.000000 0.000000 0.000000 0.089290
#
#
# Mechanical properties :
#
#
# Convention : Reuss Voigt Hill
#
# Bulk Modulus (GPa) = 37.84688 61.90058 49.87373
# Shear Modulus (GPa) = 37.83830 30.68622 34.26226
#
# Velocity S-wave (km/s) = 4.31115 3.88239 4.10237
# Velocity P-wave (km/s) = 6.58571 7.10651 6.85106
#
# Compressibility (1/GPa) = 0.02642226
#
# Stress axis : x y z
#
# Youngs Moduli (GPa) = 53.81409 79.87553 123.15862
#
# Poissons Ratio (x) = -0.00900 0.07395
# Poissons Ratio (y) = -0.00606 0.72810
# Poissons Ratio (z) = 0.03231 0.47222
#
# Static dielectric constant tensor:
#      x y z
#    x 1.796470 0.000000 0.000000 
#    y 0.000000 1.698900 0.000000 
#    z 0.000000 0.000000 1.771310 
# 
# From -- ./inp_files/59688.got.cif
#   From: 2010.05.17/outbox.cif.g08.bks.cpg/sg65_30_cif.got.tgz:59688.got - 2010.06.03 17:01:31.
