data_PCOD9483610
_publ_section_title
;
Structure prediction by ZEFSAII (Michael W. Deem and Ramdas Pophale) SiO2 
 PCOD9483610
Probable space group: C M M M
;
_chemical_formula_sum "Si O2"
_cell_formula_units_Z 80
_cell_length_a 27.605439
_cell_length_b 14.647547
_cell_length_c 11.993479
_cell_angle_alpha 90.000000
_cell_angle_beta 90.000000
_cell_angle_gamma 90.000000
_cell_volume 4849.586803
_symmetry_space_group_name_H-M "C M M M"
_symmetry_group_IT_number 65
_symmetry_cell_setting 'orthorhombic'
loop_
_space_group_symop_operation_xyz
x,y,z
-x,-y,z
x,-y,-z
-x,y,-z
-x,-y,-z
x,y,-z
-x,y,z
x,-y,z
1/2+x,1/2+y,z
1/2-x,1/2-y,z
1/2+x,1/2-y,-z
1/2-x,1/2+y,-z
1/2-x,1/2-y,-z
1/2+x,1/2+y,-z
1/2-x,1/2+y,z
1/2+x,1/2-y,z
loop_
_atom_site_type_symbol
_atom_site_label
_atom_site_fract_x
_atom_site_fract_y
_atom_site_fract_z
Si Si1 0.280300 0.344320 0.000000
Si Si2 0.138527 0.199687 0.366516
Si Si3 0.669482 0.902189 0.633625
Si Si4 0.611792 0.608781 0.000000
Si Si5 0.734103 0.643930 0.245570
Si Si6 0.056367 0.890979 0.231025
O O1 0.250000 0.250000 0.000000
O O2 0.338556 0.334084 0.000000
O O3 0.268769 0.390395 0.118574
O O4 0.143511 0.192098 0.500000
O O5 0.144110 0.306942 0.334044
O O6 0.182183 0.144635 0.306144
O O7 0.088249 0.160367 0.322521
O O8 0.673021 0.899590 0.500000
O O9 0.723310 0.900560 0.684045
O O10 0.646409 0.000000 0.665408
O O11 0.580638 0.626873 0.110520
O O12 0.624471 0.500000 0.000000
O O13 0.750000 0.750000 0.240359
O O14 0.000000 0.865063 0.231441
O O15 0.059294 0.000000 0.249768
#
# Coordination Sequence:
#
# PCOD9483610 Si02
#       6
#     8  16  16   8  16  16
#     4  10  18  29  49  74 103 132 158 197 243 287
#     4  10  19  32  51  73 100 132 165 203 252 300
#     4   9  18  32  50  72 100 134 171 205 237 288
#     4  10  19  34  54  73  98 132 166 198 239 294
#     4   9  17  29  46  70  99 133 165 198 236 290
#     4  10  21  36  54  75  97 125 165 210 252 296
#
# _framework density 16.49625
#
# number of rings (size 3 to 8) (size 9 to 14) (size 15 to 20)
#    0.000    2.400    2.000    0.900    0.000    6.000 
#    0.000    1.000    0.000    0.600    0.000    2.800 
#    0.000    1.600    0.000    0.000    0.000    0.000 
#
# Total GULP energy -222826.521591 kJ/mol
# GULP energy per Si atom -5570.663040 kJ/mol
# Density = 1.645870 g / cm^3
# Si number density = 16.496250 Si / 1000 Ang^3
#
#
#
# Elastic Constant Matrix: (Units=GPa)
#
#
# Indices 1 2 3 4 5 6 
#
# 1 113.6322 33.3128 24.9659 0.0000 0.0000 0.0000
# 2 33.3128 59.3531 22.4705 0.0000 0.0000 0.0000
# 3 24.9659 22.4705 48.0495 0.0000 0.0000 0.0000
# 4 0.0000 0.0000 0.0000 10.2683 0.0000 0.0000
# 5 0.0000 0.0000 0.0000 0.0000 16.0597 0.0000
# 6 0.0000 0.0000 0.0000 0.0000 0.0000 19.7415
#
#
#
# Elastic Compliance Matrix: (Units=1/GPa)
#
#
# Indices 1 2 3 4 5 6 
#
# 1 0.010980 -0.004864 -0.003430 0.000000 0.000000 0.000000
# 2 -0.004864 0.022628 -0.008055 0.000000 0.000000 0.000000
# 3 -0.003430 -0.008055 0.026361 0.000000 0.000000 0.000000
# 4 0.000000 0.000000 0.000000 0.097387 0.000000 0.000000
# 5 0.000000 0.000000 0.000000 0.000000 0.062268 0.000000
# 6 0.000000 0.000000 0.000000 0.000000 0.000000 0.050655
#
#
# Mechanical properties :
#
#
# Convention : Reuss Voigt Hill
#
# Bulk Modulus (GPa) = 36.66943 42.50370 39.58657
# Shear Modulus (GPa) = 16.02225 18.56628 17.29427
#
# Velocity S-wave (km/s) = 3.11990 3.35846 3.24138
# Velocity P-wave (km/s) = 5.93764 6.39223 6.16912
#
# Compressibility (1/GPa) = 0.02727067
#
# Stress axis : x y z
#
# Youngs Moduli (GPa) = 91.07520 44.19363 37.93469
#
# Poissons Ratio (x) = 0.21495 0.13013
# Poissons Ratio (y) = 0.44298 0.30555
# Poissons Ratio (z) = 0.31242 0.35597
#
# Static dielectric constant tensor:
#      x y z
#    x 1.527210 0.000000 0.000000 
#    y 0.000000 1.608400 0.000000 
#    z 0.000000 0.000000 1.567400 
# 
# From -- ./inp_files/25023.got.cif
#   From: 2010.05.17/outbox.cif.g08.bks.cpg/sg65_13_cif.got.tgz:25023.got - 2010.06.03 17:01:31.
