data_PCOD9483306
_publ_section_title
;
Structure prediction by ZEFSAII (Michael W. Deem and Ramdas Pophale) SiO2 
 PCOD9483306
Probable space group: C M M M
;
_chemical_formula_sum "Si O2"
_cell_formula_units_Z 112
_cell_length_a 18.163381
_cell_length_b 16.642028
_cell_length_c 23.228779
_cell_angle_alpha 90.000000
_cell_angle_beta 90.000000
_cell_angle_gamma 90.000000
_cell_volume 7021.490675
_symmetry_space_group_name_H-M "C M M M"
_symmetry_group_IT_number 65
_symmetry_cell_setting 'orthorhombic'
loop_
_space_group_symop_operation_xyz
x,y,z
-x,-y,z
x,-y,-z
-x,y,-z
-x,-y,-z
x,y,-z
-x,y,z
x,-y,z
1/2+x,1/2+y,z
1/2-x,1/2-y,z
1/2+x,1/2-y,-z
1/2-x,1/2+y,-z
1/2-x,1/2-y,-z
1/2+x,1/2+y,-z
1/2-x,1/2+y,z
1/2+x,1/2-y,z
loop_
_atom_site_type_symbol
_atom_site_label
_atom_site_fract_x
_atom_site_fract_y
_atom_site_fract_z
Si Si1 0.336517 0.253870 0.569157
Si Si2 0.807695 0.819717 0.847360
Si Si3 0.414142 0.772253 0.933232
Si Si4 0.796825 0.594037 0.064458
Si Si5 0.913270 0.410937 0.569728
Si Si6 0.416113 0.594342 0.237902
Si Si7 0.413113 0.591307 0.375942
O O1 0.346379 0.257411 0.500000
O O2 0.250000 0.250000 0.581562
O O3 0.373126 0.169995 0.590009
O O4 0.371423 0.334572 0.595154
O O5 0.750000 0.750000 0.829453
O O6 0.868509 0.783783 0.890708
O O7 0.759303 0.879992 0.886036
O O8 0.852605 0.858777 0.795420
O O9 0.500000 0.776615 0.918869
O O10 0.372602 0.857425 0.928932
O O11 0.407613 0.745788 0.000000
O O12 0.809566 0.500000 0.066461
O O13 0.767874 0.615367 0.000000
O O14 0.907005 0.411434 0.500000
O O15 0.886868 0.500000 0.589414
O O16 0.000000 0.405197 0.583330
O O17 0.500000 0.622002 0.224058
O O18 0.411996 0.500000 0.222431
O O19 0.407129 0.599310 0.306811
O O20 0.500000 0.596451 0.390400
O O21 0.388266 0.500000 0.391600
#
# Coordination Sequence:
#
# PCOD9483306 Si02
#       7
#    16  16  16  16  16  16  16
#     4  10  20  31  46  71 100 126 150 180 223 274
#     4  10  18  28  45  67  90 116 147 184 228 276
#     4   9  17  28  42  62  89 119 150 185 223 264
#     4   9  17  28  42  62  89 119 149 182 221 267
#     4   8  14  26  44  64  87 117 151 182 209 244
#     4   9  18  33  51  68  87 114 151 193 230 266
#     4   9  19  35  52  70  93 122 157 196 234 272
#
# _framework density 15.951029
#
# number of rings (size 3 to 8) (size 9 to 14) (size 15 to 20)
#    0.000    2.857    0.000    3.000    0.000    4.286 
#    0.000    3.571    0.000    0.000    0.000    7.000 
#    0.000    4.571    0.000    0.000    0.000    0.000 
#
# Total GULP energy -311777.517380 kJ/mol
# GULP energy per Si atom -5567.455668 kJ/mol
# Density = 1.591472 g / cm^3
# Si number density = 15.951029 Si / 1000 Ang^3
#
#
#
# Elastic Constant Matrix: (Units=GPa)
#
#
# Indices 1 2 3 4 5 6 
#
# 1 93.5360 61.3664 34.3762 0.0000 0.0000 0.0000
# 2 61.3664 118.8290 32.3722 0.0000 0.0000 0.0000
# 3 34.3762 32.3722 21.2106 0.0000 0.0000 0.0000
# 4 0.0000 0.0000 0.0000 21.3542 0.0000 0.0000
# 5 0.0000 0.0000 0.0000 0.0000 12.1610 0.0000
# 6 0.0000 0.0000 0.0000 0.0000 0.0000 14.8736
#
#
#
# Elastic Compliance Matrix: (Units=1/GPa)
#
#
# Indices 1 2 3 4 5 6 
#
# 1 0.027262 -0.003495 -0.038849 0.000000 0.000000 0.000000
# 2 -0.003495 0.014853 -0.017004 0.000000 0.000000 0.000000
# 3 -0.038849 -0.017004 0.136062 0.000000 0.000000 0.000000
# 4 0.000000 0.000000 0.000000 0.046829 0.000000 0.000000
# 5 0.000000 0.000000 0.000000 0.000000 0.082230 0.000000
# 6 0.000000 0.000000 0.000000 0.000000 0.000000 0.067233
#
#
# Mechanical properties :
#
#
# Convention : Reuss Voigt Hill
#
# Bulk Modulus (GPa) = 16.81254 54.42282 35.61768
# Shear Modulus (GPa) = 9.74672 16.70847 13.22759
#
# Velocity S-wave (km/s) = 2.47460 3.24000 2.88282
# Velocity P-wave (km/s) = 4.32757 6.94187 5.78435
#
# Compressibility (1/GPa) = 0.05947941
#
# Stress axis : x y z
#
# Youngs Moduli (GPa) = 36.68095 67.32720 7.34960
#
# Poissons Ratio (x) = 0.23532 0.28553
# Poissons Ratio (y) = 0.12821 0.12497
# Poissons Ratio (z) = 1.42503 1.14483
#
# Static dielectric constant tensor:
#      x y z
#    x 1.517420 0.000000 0.000000 
#    y 0.000000 1.538750 0.000000 
#    z 0.000000 0.000000 1.523060 
# 
# From -- ./inp_files/70046.got.cif
#   From: 2010.05.17/outbox.cif.g08.bks.cpg/sg65_36_cif.got.tgz:70046.got - 2010.06.03 17:01:31.
