data_PCOD9483250
_publ_section_title
;
Structure prediction by ZEFSAII (Michael W. Deem and Ramdas Pophale) SiO2 
 PCOD9483250
Probable space group: C M M M
;
_chemical_formula_sum "Si O2"
_cell_formula_units_Z 104
_cell_length_a 8.145970
_cell_length_b 27.946202
_cell_length_c 28.784724
_cell_angle_alpha 90.000000
_cell_angle_beta 90.000000
_cell_angle_gamma 90.000000
_cell_volume 6552.811421
_symmetry_space_group_name_H-M "C M M M"
_symmetry_group_IT_number 65
_symmetry_cell_setting 'orthorhombic'
loop_
_space_group_symop_operation_xyz
x,y,z
-x,-y,z
x,-y,-z
-x,y,-z
-x,-y,-z
x,y,-z
-x,y,z
x,-y,z
1/2+x,1/2+y,z
1/2-x,1/2-y,z
1/2+x,1/2-y,-z
1/2-x,1/2+y,-z
1/2-x,1/2-y,-z
1/2+x,1/2+y,-z
1/2-x,1/2+y,z
1/2+x,1/2-y,z
loop_
_atom_site_type_symbol
_atom_site_label
_atom_site_fract_x
_atom_site_fract_y
_atom_site_fract_z
Si Si1 0.317864 0.558226 0.388123
Si Si2 0.301255 0.445890 0.098848
Si Si3 0.303093 0.803564 0.853944
Si Si4 0.803147 0.649460 0.051142
Si Si5 0.500000 0.058355 0.446236
Si Si6 0.192961 0.444723 0.711430
Si Si7 0.305215 0.602218 0.195063
O O1 0.500000 0.573163 0.403592
O O2 0.314283 0.500000 0.388585
O O3 0.165287 0.574120 0.419687
O O4 0.287542 0.572074 0.334518
O O5 0.500000 0.444616 0.097645
O O6 0.247811 0.500000 0.088843
O O7 0.237396 0.405344 0.064168
O O8 0.249579 0.429715 0.150805
O O9 0.500000 0.806882 0.853459
O O10 0.250000 0.750000 0.843083
O O11 0.242303 0.818661 0.905710
O O12 0.234265 0.843497 0.819181
O O13 0.000000 0.654408 0.050064
O O14 0.737992 0.661719 0.000000
O O15 0.500000 0.072844 0.500000
O O16 0.500000 0.000000 0.445157
O O17 0.241310 0.500000 0.721069
O O18 0.224490 0.414349 0.757310
O O19 0.000000 0.444569 0.699858
O O20 0.500000 0.595927 0.199668
#
# Coordination Sequence:
#
# PCOD9483250 Si02
#       7
#    16  16  16  16   8  16  16
#     4   9  16  26  39  56  81 115 155 199 243 281
#     4   9  18  31  45  63  89 116 142 175 213 255
#     4  10  20  35  52  68  87 110 137 175 219 266
#     4   9  19  34  49  66  87 110 139 174 213 260
#     4   9  16  26  38  54  80 114 158 208 245 277
#     4  10  18  28  43  64  92 122 152 191 233 272
#     4  10  19  31  47  67  88 113 147 182 218 269
#
# _framework density 15.871051
#
# number of rings (size 3 to 8) (size 9 to 14) (size 15 to 20)
#    0.000    2.538    0.769    1.846    0.000    4.308 
#    0.000    3.077    0.000    0.000    0.000    0.000 
#    0.000    0.000    0.000    0.000    0.000    0.769 
#
# Total GULP energy -289926.217566 kJ/mol
# GULP energy per Si atom -5575.504184 kJ/mol
# Density = 1.583493 g / cm^3
# Si number density = 15.871051 Si / 1000 Ang^3
#
#
#
# Elastic Constant Matrix: (Units=GPa)
#
#
# Indices 1 2 3 4 5 6 
#
# 1 54.0910 -2.8688 29.1680 0.0000 0.0000 0.0000
# 2 -2.8688 42.4457 9.0804 0.0000 0.0000 0.0000
# 3 29.1680 9.0804 89.4151 0.0000 0.0000 0.0000
# 4 0.0000 0.0000 0.0000 7.7980 0.0000 0.0000
# 5 0.0000 0.0000 0.0000 0.0000 13.7248 0.0000
# 6 0.0000 0.0000 0.0000 0.0000 0.0000 17.7509
#
#
#
# Elastic Compliance Matrix: (Units=1/GPa)
#
#
# Indices 1 2 3 4 5 6 
#
# 1 0.022853 0.003209 -0.007781 0.000000 0.000000 0.000000
# 2 0.003209 0.024533 -0.003538 0.000000 0.000000 0.000000
# 3 -0.007781 -0.003538 0.014081 0.000000 0.000000 0.000000
# 4 0.000000 0.000000 0.000000 0.128238 0.000000 0.000000
# 5 0.000000 0.000000 0.000000 0.000000 0.072861 0.000000
# 6 0.000000 0.000000 0.000000 0.000000 0.000000 0.056335
#
#
# Mechanical properties :
#
#
# Convention : Reuss Voigt Hill
#
# Bulk Modulus (GPa) = 22.10044 28.52345 25.31194
# Shear Modulus (GPa) = 14.27736 17.89289 16.08512
#
# Velocity S-wave (km/s) = 3.00256 3.36131 3.18699
# Velocity P-wave (km/s) = 5.09664 5.75113 5.43375
#
# Compressibility (1/GPa) = 0.04524797
#
# Stress axis : x y z
#
# Youngs Moduli (GPa) = 43.75733 40.76081 71.01613
#
# Poissons Ratio (x) = -0.13081 0.55257
# Poissons Ratio (y) = -0.14042 0.25128
# Poissons Ratio (z) = 0.34047 0.14422
#
# Static dielectric constant tensor:
#      x y z
#    x 1.564910 0.000000 0.000000 
#    y 0.000000 1.496900 0.000000 
#    z 0.000000 0.000000 1.530300 
# 
# From -- ./inp_files/73583.got.cif
#   From: 2010.05.17/outbox.cif.g08.bks.cpg/sg65_37_cif.got.tgz:73583.got - 2010.06.03 17:01:31.
