data_PCOD9483448
_publ_section_title
;
Structure prediction by ZEFSAII (Michael W. Deem and Ramdas Pophale) SiO2 
 PCOD9483448
Probable space group: C M M M
;
_chemical_formula_sum "Si O2"
_cell_formula_units_Z 72
_cell_length_a 8.429551
_cell_length_b 22.954129
_cell_length_c 17.452030
_cell_angle_alpha 90.000000
_cell_angle_beta 90.000000
_cell_angle_gamma 90.000000
_cell_volume 3376.845659
_symmetry_space_group_name_H-M "C M M M"
_symmetry_group_IT_number 65
_symmetry_cell_setting 'orthorhombic'
loop_
_space_group_symop_operation_xyz
x,y,z
-x,-y,z
x,-y,-z
-x,y,-z
-x,-y,-z
x,y,-z
-x,y,z
x,-y,z
1/2+x,1/2+y,z
1/2-x,1/2-y,z
1/2+x,1/2-y,-z
1/2-x,1/2+y,-z
1/2-x,1/2-y,-z
1/2+x,1/2+y,-z
1/2-x,1/2+y,z
1/2+x,1/2-y,z
loop_
_atom_site_type_symbol
_atom_site_label
_atom_site_fract_x
_atom_site_fract_y
_atom_site_fract_z
Si Si1 0.812782 0.684742 0.590731
Si Si2 0.687347 0.435292 0.000000
Si Si3 0.000000 0.334740 0.912956
Si Si4 0.323438 0.333261 0.119822
Si Si5 0.178151 0.106730 0.279623
Si Si6 0.000000 0.436687 0.212522
O O1 0.796409 0.673244 0.500000
O O2 0.750000 0.750000 0.604924
O O3 0.713930 0.640150 0.641890
O O4 0.000000 0.681229 0.610701
O O5 0.711081 0.394851 0.074692
O O6 0.762302 0.500000 0.000000
O O7 0.500000 0.444141 0.000000
O O8 0.837735 0.300092 0.900189
O O9 0.000000 0.384129 0.847718
O O10 0.000000 0.356970 0.000000
O O11 0.500000 0.315990 0.095067
O O12 0.326384 0.346564 0.209892
O O13 0.335960 0.069317 0.260642
O O14 0.000000 0.079648 0.279936
O O15 0.000000 0.500000 0.174654
#
# Coordination Sequence:
#
# PCOD9483448 Si02
#       6
#    16   8   8  16  16   8
#     4  10  20  36  62  95 123 143 171 222 289 354
#     4   9  16  27  43  65  97 135 180 234 280 314
#     4  10  18  29  44  69  99 140 192 243 287 323
#     4   9  18  30  43  64  98 140 181 222 276 327
#     4  10  20  36  56  79 114 154 190 233 286 338
#     4  10  22  37  51  76 116 159 205 242 277 330
#
# _framework density 21.321674000000002
#
# number of rings (size 3 to 8) (size 9 to 14) (size 15 to 20)
#    0.000    2.333    2.222    0.667    0.000    5.556 
#    0.000    4.444    0.000    1.333    0.000    2.333 
#    0.000    0.000    0.000    0.000    0.000    0.000 
#
# Total GULP energy -200614.028019 kJ/mol
# GULP energy per Si atom -5572.611889 kJ/mol
# Density = 2.127315 g / cm^3
# Si number density = 21.321674 Si / 1000 Ang^3
#
#
#
# Elastic Constant Matrix: (Units=GPa)
#
#
# Indices 1 2 3 4 5 6 
#
# 1 227.0497 41.7106 29.9820 0.0000 0.0000 0.0000
# 2 41.7106 68.1357 21.9470 0.0000 0.0000 0.0000
# 3 29.9820 21.9470 57.5611 0.0000 0.0000 0.0000
# 4 0.0000 0.0000 0.0000 -38.6280 0.0000 0.0000
# 5 0.0000 0.0000 0.0000 0.0000 34.7268 0.0000
# 6 0.0000 0.0000 0.0000 0.0000 0.0000 9.0909
#
#
#
# Elastic Compliance Matrix: (Units=1/GPa)
#
#
# Indices 1 2 3 4 5 6 
#
# 1 0.005100 -0.002584 -0.001671 0.000000 0.000000 0.000000
# 2 -0.002584 0.018040 -0.005533 0.000000 0.000000 0.000000
# 3 -0.001671 -0.005533 0.020353 0.000000 0.000000 0.000000
# 4 0.000000 0.000000 0.000000 -0.025888 0.000000 0.000000
# 5 0.000000 0.000000 0.000000 0.000000 0.028796 0.000000
# 6 0.000000 0.000000 0.000000 0.000000 0.000000 0.110000
#
#
# Mechanical properties :
#
#
# Convention : Reuss Voigt Hill
#
# Bulk Modulus (GPa) = 41.80982 60.00285 50.90634
# Shear Modulus (GPa) = 27.18149 18.31175 22.74662
#
# Velocity S-wave (km/s) = 3.57435 2.93376 3.26978
# Velocity P-wave (km/s) = 6.05692 6.29911 6.17920
#
# Compressibility (1/GPa) = 0.02391783
#
# Stress axis : x y z
#
# Youngs Moduli (GPa) = 196.09328 55.43151 49.13314
#
# Poissons Ratio (x) = 0.14321 0.08211
# Poissons Ratio (y) = 0.50661 0.27184
# Poissons Ratio (z) = 0.32771 0.30669
#
# Static dielectric constant tensor:
#      x y z
#    x 1.877410 0.000000 0.000000 
#    y 0.000000 1.821460 0.000000 
#    z 0.000000 0.000000 1.736820 
# 
# From -- ./inp_files/36695.got.cif
#   From: 2010.05.17/outbox.cif.g08.bks.cpg/sg65_19_cif.got.tgz:36695.got - 2010.06.03 17:01:31.
