data_PCOD9483740
_publ_section_title
;
Structure prediction by ZEFSAII (Michael W. Deem and Ramdas Pophale) SiO2 
 PCOD9483740
Probable space group: C M M M
;
_chemical_formula_sum "Si O2"
_cell_formula_units_Z 64
_cell_length_a 8.465729
_cell_length_b 29.618178
_cell_length_c 16.094528
_cell_angle_alpha 90.000000
_cell_angle_beta 90.000000
_cell_angle_gamma 90.000000
_cell_volume 4035.533395
_symmetry_space_group_name_H-M "C M M M"
_symmetry_group_IT_number 65
_symmetry_cell_setting 'orthorhombic'
loop_
_space_group_symop_operation_xyz
x,y,z
-x,-y,z
x,-y,-z
-x,y,-z
-x,-y,-z
x,y,-z
-x,y,z
x,-y,z
1/2+x,1/2+y,z
1/2-x,1/2-y,z
1/2+x,1/2-y,-z
1/2-x,1/2+y,-z
1/2-x,1/2-y,-z
1/2+x,1/2+y,-z
1/2-x,1/2+y,z
1/2+x,1/2-y,z
loop_
_atom_site_type_symbol
_atom_site_label
_atom_site_fract_x
_atom_site_fract_y
_atom_site_fract_z
Si Si1 0.311594 0.301117 0.000000
Si Si2 0.687915 0.301593 0.500000
Si Si3 0.691443 0.145167 0.839153
Si Si4 0.692228 0.050140 0.096916
Si Si5 0.310470 0.198534 0.675370
O O1 0.250000 0.250000 0.000000
O O2 0.250010 0.326689 0.081747
O O3 0.500000 0.301048 0.000000
O O4 0.500000 0.301419 0.500000
O O5 0.750000 0.250000 0.500000
O O6 0.750268 0.320557 0.412811
O O7 0.500000 0.145643 0.840620
O O8 0.744810 0.093329 0.850730
O O9 0.742204 0.168840 0.753810
O O10 0.500000 0.049790 0.098771
O O11 0.745449 0.000000 0.122982
O O12 0.736647 0.056701 0.000000
O O13 0.500000 0.199974 0.673257
O O14 0.250000 0.250000 0.684987
#
# Coordination Sequence:
#
# PCOD9483740 Si02
#       5
#     8   8  16  16  16
#     4  12  24  34  45  62  91 129 162 193 225 268
#     4  10  18  30  48  66  89 118 149 189 228 273
#     4  10  19  32  49  69  94 123 157 193 230 274
#     4   8  13  24  46  71  92 117 152 193 232 271
#     4  10  19  30  46  67  92 121 152 190 228 271
#
# _framework density 15.859118
#
# number of rings (size 3 to 8) (size 9 to 14) (size 15 to 20)
#    0.000    2.250    1.250    6.000    0.000    4.000 
#    0.000    0.000    0.000    1.500    0.000    0.875 
#    0.000    7.000    0.000    0.000    0.000    0.000 
#
# Total GULP energy -178405.927839 kJ/mol
# GULP energy per Si atom -5575.185245 kJ/mol
# Density = 1.582302 g / cm^3
# Si number density = 15.859118 Si / 1000 Ang^3
#
#
#
# Elastic Constant Matrix: (Units=GPa)
#
#
# Indices 1 2 3 4 5 6 
#
# 1 32.6747 17.0188 28.7072 0.0000 0.0000 0.0000
# 2 17.0188 126.2551 79.5541 0.0000 0.0000 0.0000
# 3 28.7072 79.5541 157.2317 0.0000 0.0000 0.0000
# 4 0.0000 0.0000 0.0000 6.8189 0.0000 0.0000
# 5 0.0000 0.0000 0.0000 0.0000 19.3001 0.0000
# 6 0.0000 0.0000 0.0000 0.0000 0.0000 11.4100
#
#
#
# Elastic Compliance Matrix: (Units=1/GPa)
#
#
# Indices 1 2 3 4 5 6 
#
# 1 0.036548 -0.001060 -0.006137 0.000000 0.000000 0.000000
# 2 -0.001060 0.011658 -0.005705 0.000000 0.000000 0.000000
# 3 -0.006137 -0.005705 0.010367 0.000000 0.000000 0.000000
# 4 0.000000 0.000000 0.000000 0.146652 0.000000 0.000000
# 5 0.000000 0.000000 0.000000 0.000000 0.051813 0.000000
# 6 0.000000 0.000000 0.000000 0.000000 0.000000 0.087642
#
#
# Mechanical properties :
#
#
# Convention : Reuss Voigt Hill
#
# Bulk Modulus (GPa) = 30.51553 62.96909 46.74231
# Shear Modulus (GPa) = 13.10931 20.23122 16.67027
#
# Velocity S-wave (km/s) = 2.87820 3.57555 3.24566
# Velocity P-wave (km/s) = 5.50716 7.53907 6.60175
#
# Compressibility (1/GPa) = 0.03277020
#
# Stress axis : x y z
#
# Youngs Moduli (GPa) = 27.36105 85.77663 96.45894
#
# Poissons Ratio (x) = 0.09091 0.59194
# Poissons Ratio (y) = 0.02900 0.55031
# Poissons Ratio (z) = 0.16791 0.48937
#
# Static dielectric constant tensor:
#      x y z
#    x 1.560770 0.000000 0.000000 
#    y 0.000000 1.531430 0.000000 
#    z 0.000000 0.000000 1.536290 
# 
# From -- ./inp_files/36845.got.cif
#   From: 2010.05.17/outbox.cif.g08.bks.cpg/sg65_19_cif.got.tgz:36845.got - 2010.06.03 17:01:31.
