data_PCOD9483846
_publ_section_title
;
Structure prediction by ZEFSAII (Michael W. Deem and Ramdas Pophale) SiO2 
 PCOD9483846
Probable space group: C M M M
;
_chemical_formula_sum "Si O2"
_cell_formula_units_Z 80
_cell_length_a 26.893643
_cell_length_b 8.677571
_cell_length_c 18.854742
_cell_angle_alpha 90.000000
_cell_angle_beta 90.000000
_cell_angle_gamma 90.000000
_cell_volume 4400.159358
_symmetry_space_group_name_H-M "C M M M"
_symmetry_group_IT_number 65
_symmetry_cell_setting 'orthorhombic'
loop_
_space_group_symop_operation_xyz
x,y,z
-x,-y,z
x,-y,-z
-x,y,-z
-x,-y,-z
x,y,-z
-x,y,z
x,-y,z
1/2+x,1/2+y,z
1/2-x,1/2-y,z
1/2+x,1/2-y,-z
1/2-x,1/2+y,-z
1/2-x,1/2-y,-z
1/2+x,1/2+y,-z
1/2-x,1/2+y,z
1/2+x,1/2-y,z
loop_
_atom_site_type_symbol
_atom_site_label
_atom_site_fract_x
_atom_site_fract_y
_atom_site_fract_z
Si Si1 0.697094 0.314413 0.081976
Si Si2 0.000000 0.815784 0.663579
Si Si3 0.897333 0.316687 0.335522
Si Si4 0.303275 0.680801 0.414788
Si Si5 0.396930 0.314483 0.823769
Si Si6 0.500000 0.815881 0.824489
O O1 0.699352 0.500000 0.083004
O O2 0.750000 0.250000 0.107273
O O3 0.650562 0.267663 0.129872
O O4 0.690360 0.264935 0.000000
O O5 0.051879 0.755059 0.632295
O O6 0.000000 0.746897 0.743454
O O7 0.000000 0.000000 0.666322
O O8 0.902607 0.500000 0.331902
O O9 0.849085 0.268056 0.379338
O O10 0.891694 0.249812 0.255938
O O11 0.306594 0.695294 0.500000
O O12 0.305526 0.500000 0.396507
O O13 0.250000 0.750000 0.392797
O O14 0.399929 0.500000 0.820822
O O15 0.448546 0.249048 0.855118
O O16 0.500000 0.000000 0.824359
#
# Coordination Sequence:
#
# PCOD9483846 Si02
#       6
#    16   8  16  16  16   8
#     4   9  19  35  54  75 100 133 171 211 257 307
#     4  10  18  32  53  76 105 138 173 212 259 308
#     4  11  21  34  54  80 109 138 173 214 257 307
#     4  10  21  38  58  79 105 138 175 214 259 309
#     4  10  19  33  53  76 104 136 172 212 256 306
#     4  10  18  30  49  74 103 133 169 210 257 307
#
# _framework density 18.181159999999998
#
# number of rings (size 3 to 8) (size 9 to 14) (size 15 to 20)
#    0.000    2.000    0.000    7.200    0.000    3.600 
#    0.000    3.000    0.000    6.000    0.000    0.000 
#    0.000    0.000    0.000    0.000    0.000    0.000 
#
# Total GULP energy -223237.006849 kJ/mol
# GULP energy per Si atom -5580.925171 kJ/mol
# Density = 1.813978 g / cm^3
# Si number density = 18.181160 Si / 1000 Ang^3
#
#
#
# Elastic Constant Matrix: (Units=GPa)
#
#
# Indices 1 2 3 4 5 6 
#
# 1 190.3524 68.6923 39.4839 0.0000 0.0000 0.0000
# 2 68.6923 122.0562 26.6245 0.0000 0.0000 0.0000
# 3 39.4839 26.6245 16.5226 0.0000 0.0000 0.0000
# 4 0.0000 0.0000 0.0000 14.0576 0.0000 0.0000
# 5 0.0000 0.0000 0.0000 0.0000 200.1700 0.0000
# 6 0.0000 0.0000 0.0000 0.0000 0.0000 38.2487
#
#
#
# Elastic Compliance Matrix: (Units=1/GPa)
#
#
# Indices 1 2 3 4 5 6 
#
# 1 0.010452 -0.000669 -0.023899 0.000000 0.000000 0.000000
# 2 -0.000669 0.012676 -0.018828 0.000000 0.000000 0.000000
# 3 -0.023899 -0.018828 0.147973 0.000000 0.000000 0.000000
# 4 0.000000 0.000000 0.000000 0.071136 0.000000 0.000000
# 5 0.000000 0.000000 0.000000 0.000000 0.004996 0.000000
# 6 0.000000 0.000000 0.000000 0.000000 0.000000 0.026145
#
#
# Mechanical properties :
#
#
# Convention : Reuss Voigt Hill
#
# Bulk Modulus (GPa) = 11.86097 66.50361 39.18229
# Shear Modulus (GPa) = 12.87751 63.43729 38.15740
#
# Velocity S-wave (km/s) = 2.66426 5.91333 4.58616
# Velocity P-wave (km/s) = 4.00029 9.12585 7.04569
#
# Compressibility (1/GPa) = 0.08431014
#
# Stress axis : x y z
#
# Youngs Moduli (GPa) = 95.67361 78.88615 6.75797
#
# Poissons Ratio (x) = 0.05279 0.16151
# Poissons Ratio (y) = 0.06403 0.12724
# Poissons Ratio (z) = 2.28652 1.48524
#
# Static dielectric constant tensor:
#      x y z
#    x 1.647980 0.000000 0.000000 
#    y 0.000000 1.614220 0.000000 
#    z 0.000000 0.000000 1.611020 
# 
# From -- ./inp_files/57297.got.cif
#   From: 2010.05.17/outbox.cif.g08.bks.cpg/sg65_29_cif.got.tgz:57297.got - 2010.06.03 17:01:31.
