data_PCOD9483835
_publ_section_title
;
Structure prediction by ZEFSAII (Michael W. Deem and Ramdas Pophale) SiO2 
 PCOD9483835
Probable space group: C M M M
;
_chemical_formula_sum "Si O2"
_cell_formula_units_Z 64
_cell_length_a 19.230565
_cell_length_b 8.548809
_cell_length_c 21.490127
_cell_angle_alpha 90.000000
_cell_angle_beta 90.000000
_cell_angle_gamma 90.000000
_cell_volume 3532.943078
_symmetry_space_group_name_H-M "C M M M"
_symmetry_group_IT_number 65
_symmetry_cell_setting 'orthorhombic'
loop_
_space_group_symop_operation_xyz
x,y,z
-x,-y,z
x,-y,-z
-x,y,-z
-x,-y,-z
x,y,-z
-x,y,z
x,-y,z
1/2+x,1/2+y,z
1/2-x,1/2-y,z
1/2+x,1/2-y,-z
1/2-x,1/2+y,-z
1/2-x,1/2-y,-z
1/2+x,1/2+y,-z
1/2-x,1/2+y,z
1/2+x,1/2-y,z
loop_
_atom_site_type_symbol
_atom_site_label
_atom_site_fract_x
_atom_site_fract_y
_atom_site_fract_z
Si Si1 0.828304 0.189511 0.000000
Si Si2 0.329370 0.686473 0.500000
Si Si3 0.671279 0.811984 0.630145
Si Si4 0.419590 0.688693 0.882402
Si Si5 0.919674 0.311376 0.748004
O O1 0.750000 0.250000 0.000000
O O2 0.870535 0.241081 0.938631
O O3 0.827435 0.000000 0.000000
O O4 0.328482 0.500000 0.500000
O O5 0.250000 0.750000 0.500000
O O6 0.359406 0.749123 0.435077
O O7 0.750000 0.750000 0.636103
O O8 0.626936 0.761216 0.689867
O O9 0.672919 0.000000 0.627368
O O10 0.500000 0.739736 0.891895
O O11 0.419594 0.500000 0.881958
O O12 0.396107 0.747817 0.814861
O O13 0.918092 0.500000 0.750191
O O14 0.000000 0.262066 0.739402
#
# Coordination Sequence:
#
# PCOD9483835 Si02
#       5
#     8   8  16  16  16
#     4  10  21  35  51  75 105 132 162 202 248 294
#     4  10  18  30  49  72  99 129 165 205 243 290
#     4  10  19  32  51  73  99 130 164 203 246 293
#     4   9  18  34  55  74  95 129 169 205 242 289
#     4   9  19  35  53  74 100 130 165 204 245 291
#
# _framework density 18.115207999999999
#
# number of rings (size 3 to 8) (size 9 to 14) (size 15 to 20)
#    0.000    2.500    0.000    3.750    0.000    5.500 
#    0.000    5.625    0.000    7.500    0.000    0.000 
#    0.000    0.000    0.000    0.000    0.000    0.000 
#
# Total GULP energy -178478.097738 kJ/mol
# GULP energy per Si atom -5577.440554 kJ/mol
# Density = 1.807398 g / cm^3
# Si number density = 18.115208 Si / 1000 Ang^3
#
#
#
# Elastic Constant Matrix: (Units=GPa)
#
#
# Indices 1 2 3 4 5 6 
#
# 1 71.4312 19.9934 98.4809 0.0000 0.0000 0.0000
# 2 19.9934 38.0307 39.5115 0.0000 0.0000 0.0000
# 3 98.4809 39.5115 229.0353 0.0000 0.0000 0.0000
# 4 0.0000 0.0000 0.0000 33.4492 0.0000 0.0000
# 5 0.0000 0.0000 0.0000 0.0000 39.7468 0.0000
# 6 0.0000 0.0000 0.0000 0.0000 0.0000 22.1484
#
#
#
# Elastic Compliance Matrix: (Units=1/GPa)
#
#
# Indices 1 2 3 4 5 6 
#
# 1 0.034726 -0.003342 -0.014355 0.000000 0.000000 0.000000
# 2 -0.003342 0.032358 -0.004145 0.000000 0.000000 0.000000
# 3 -0.014355 -0.004145 0.011254 0.000000 0.000000 0.000000
# 4 0.000000 0.000000 0.000000 0.029896 0.000000 0.000000
# 5 0.000000 0.000000 0.000000 0.000000 0.025159 0.000000
# 6 0.000000 0.000000 0.000000 0.000000 0.000000 0.045150
#
#
# Mechanical properties :
#
#
# Convention : Reuss Voigt Hill
#
# Bulk Modulus (GPa) = 28.85737 72.71875 50.78806
# Shear Modulus (GPa) = 21.38783 31.10299 26.24541
#
# Velocity S-wave (km/s) = 3.43980 4.14811 3.81045
# Velocity P-wave (km/s) = 5.63389 7.94808 6.88886
#
# Compressibility (1/GPa) = 0.03465319
#
# Stress axis : x y z
#
# Youngs Moduli (GPa) = 28.79713 30.90415 88.86086
#
# Poissons Ratio (x) = 0.10328 1.27558
# Poissons Ratio (y) = 0.09624 0.36834
# Poissons Ratio (z) = 0.41338 0.12810
#
# Static dielectric constant tensor:
#      x y z
#    x 1.635190 0.000000 0.000000 
#    y 0.000000 1.622380 0.000000 
#    z 0.000000 0.000000 1.633360 
# 
# From -- ./inp_files/63289.got.cif
#   From: 2010.05.17/outbox.cif.g08.bks.cpg/sg65_32_cif.got.tgz:63289.got - 2010.06.03 17:01:31.
