data_PCOD9483686
_publ_section_title
;
Structure prediction by ZEFSAII (Michael W. Deem and Ramdas Pophale) SiO2 
 PCOD9483686
Probable space group: C M M M
;
_chemical_formula_sum "Si O2"
_cell_formula_units_Z 88
_cell_length_a 8.728034
_cell_length_b 27.991201
_cell_length_c 21.891020
_cell_angle_alpha 90.000000
_cell_angle_beta 90.000000
_cell_angle_gamma 90.000000
_cell_volume 5348.154686
_symmetry_space_group_name_H-M "C M M M"
_symmetry_group_IT_number 65
_symmetry_cell_setting 'orthorhombic'
loop_
_space_group_symop_operation_xyz
x,y,z
-x,-y,z
x,-y,-z
-x,y,-z
-x,-y,-z
x,y,-z
-x,y,z
x,-y,z
1/2+x,1/2+y,z
1/2-x,1/2-y,z
1/2+x,1/2-y,-z
1/2-x,1/2+y,-z
1/2-x,1/2-y,-z
1/2+x,1/2+y,-z
1/2-x,1/2+y,z
1/2+x,1/2-y,z
loop_
_atom_site_type_symbol
_atom_site_label
_atom_site_fract_x
_atom_site_fract_y
_atom_site_fract_z
Si Si1 0.183651 0.851734 0.244388
Si Si2 0.816736 0.196030 0.000000
Si Si3 0.317672 0.196499 0.873996
Si Si4 0.316468 0.103901 0.431034
Si Si5 0.182857 0.802038 0.627022
Si Si6 0.315230 0.446295 0.686039
O O1 0.269687 0.833669 0.184852
O O2 0.215216 0.817731 0.302788
O O3 0.229198 0.904883 0.266278
O O4 0.000000 0.850656 0.233662
O O5 0.750000 0.250000 0.000000
O O6 0.753747 0.175382 0.063507
O O7 0.000000 0.197068 0.000000
O O8 0.500000 0.199883 0.880098
O O9 0.250000 0.250000 0.866013
O O10 0.271063 0.090958 0.500000
O O11 0.500000 0.103807 0.427139
O O12 0.255561 0.156723 0.414589
O O13 0.249732 0.069006 0.379638
O O14 0.250000 0.750000 0.614703
O O15 0.000000 0.802211 0.619130
O O16 0.500000 0.444635 0.682207
O O17 0.268165 0.500000 0.702323
#
# Coordination Sequence:
#
# PCOD9483686 Si02
#       6
#    16   8  16  16  16  16
#     4   9  18  32  49  71  96 123 158 196 236 283
#     4  10  18  30  46  66  97 134 169 202 234 269
#     4  11  20  30  46  70 101 135 168 198 232 274
#     4  10  21  35  50  70  96 125 158 196 239 290
#     4  10  20  33  50  70  95 127 162 200 239 283
#     4   9  19  36  56  75  95 121 155 198 246 294
#
# _framework density 16.454274000000002
#
# number of rings (size 3 to 8) (size 9 to 14) (size 15 to 20)
#    0.000    2.182    0.000    6.273    0.000    7.636 
#    0.000    1.818    0.000    0.000    0.000    0.636 
#    0.000    5.091    0.000    0.000    0.000    0.000 
#
# Total GULP energy -245523.768511 kJ/mol
# GULP energy per Si atom -5580.085648 kJ/mol
# Density = 1.641682 g / cm^3
# Si number density = 16.454274 Si / 1000 Ang^3
#
#
#
# Elastic Constant Matrix: (Units=GPa)
#
#
# Indices 1 2 3 4 5 6 
#
# 1 63.9372 19.3106 42.9435 0.0000 0.0000 0.0000
# 2 19.3106 78.5744 28.9649 0.0000 0.0000 0.0000
# 3 42.9435 28.9649 108.8145 0.0000 0.0000 0.0000
# 4 0.0000 0.0000 0.0000 9.2072 0.0000 0.0000
# 5 0.0000 0.0000 0.0000 0.0000 29.4124 0.0000
# 6 0.0000 0.0000 0.0000 0.0000 0.0000 20.2790
#
#
#
# Elastic Compliance Matrix: (Units=1/GPa)
#
#
# Indices 1 2 3 4 5 6 
#
# 1 0.021686 -0.002411 -0.007916 0.000000 0.000000 0.000000
# 2 -0.002411 0.014380 -0.002876 0.000000 0.000000 0.000000
# 3 -0.007916 -0.002876 0.013080 0.000000 0.000000 0.000000
# 4 0.000000 0.000000 0.000000 0.108611 0.000000 0.000000
# 5 0.000000 0.000000 0.000000 0.000000 0.033999 0.000000
# 6 0.000000 0.000000 0.000000 0.000000 0.000000 0.049312
#
#
# Mechanical properties :
#
#
# Convention : Reuss Voigt Hill
#
# Bulk Modulus (GPa) = 43.98010 48.19601 46.08806
# Shear Modulus (GPa) = 18.17827 22.45354 20.31590
#
# Velocity S-wave (km/s) = 3.32742 3.69806 3.51763
# Velocity P-wave (km/s) = 6.44585 6.89845 6.67599
#
# Compressibility (1/GPa) = 0.02273755
#
# Stress axis : x y z
#
# Youngs Moduli (GPa) = 46.11342 69.54305 76.45447
#
# Poissons Ratio (x) = 0.16769 0.60524
# Poissons Ratio (y) = 0.11119 0.21988
# Poissons Ratio (z) = 0.36505 0.20001
#
# Static dielectric constant tensor:
#      x y z
#    x 1.551610 0.000000 0.000000 
#    y 0.000000 1.543410 0.000000 
#    z 0.000000 0.000000 1.561510 
# 
# From -- ./inp_files/60639.got.cif
#   From: 2010.05.17/outbox.cif.g08.bks.cpg/sg65_31_cif.got.tgz:60639.got - 2010.06.03 17:01:31.
