data_PCOD9483200
_publ_section_title
;
Structure prediction by ZEFSAII (Michael W. Deem and Ramdas Pophale) SiO2 
 PCOD9483200
Probable space group: C M M M
;
_chemical_formula_sum "Si O2"
_cell_formula_units_Z 72
_cell_length_a 18.974777
_cell_length_b 35.362976
_cell_length_c 8.047286
_cell_angle_alpha 90.000000
_cell_angle_beta 90.000000
_cell_angle_gamma 90.000000
_cell_volume 5399.765792
_symmetry_space_group_name_H-M "C M M M"
_symmetry_group_IT_number 65
_symmetry_cell_setting 'orthorhombic'
loop_
_space_group_symop_operation_xyz
x,y,z
-x,-y,z
x,-y,-z
-x,y,-z
-x,-y,-z
x,y,-z
-x,y,z
x,-y,z
1/2+x,1/2+y,z
1/2-x,1/2-y,z
1/2+x,1/2-y,-z
1/2-x,1/2+y,-z
1/2-x,1/2-y,-z
1/2+x,1/2+y,-z
1/2-x,1/2+y,z
1/2+x,1/2-y,z
loop_
_atom_site_type_symbol
_atom_site_label
_atom_site_fract_x
_atom_site_fract_y
_atom_site_fract_z
Si Si1 0.914440 0.456778 0.500000
Si Si2 0.660659 0.831454 0.303627
Si Si3 0.707783 0.287819 0.700306
Si Si4 0.915849 0.594523 0.187129
Si Si5 0.419410 0.244108 0.197458
O O1 0.889235 0.500000 0.500000
O O2 0.894086 0.434027 0.666312
O O3 0.000000 0.457876 0.500000
O O4 0.661577 0.840028 0.500000
O O5 0.740664 0.821747 0.247520
O O6 0.624526 0.866049 0.210941
O O7 0.615580 0.793009 0.279298
O O8 0.705563 0.288232 0.500000
O O9 0.750000 0.250000 0.752884
O O10 0.629456 0.280388 0.764124
O O11 0.000000 0.601501 0.205597
O O12 0.904311 0.579841 0.000000
O O13 0.500000 0.248688 0.252683
O O14 0.418662 0.237796 0.000000
#
# Coordination Sequence:
#
# PCOD9483200 Si02
#       5
#     8  16  16  16  16
#     4   9  18  32  46  60  81 106 129 159 198 235
#     4  10  18  28  41  56  76 100 130 170 208 237
#     4   8  16  28  39  52  70  96 130 164 200 242
#     4  10  19  29  43  63  82 103 134 166 199 238
#     4  10  19  27  36  53  75 100 133 170 205 240
#
# _framework density 13.333911000000001
#
# number of rings (size 3 to 8) (size 9 to 14) (size 15 to 20)
#    0.000    2.556    1.111    3.333    0.000    9.778 
#    0.000    2.222    0.000    0.000    0.000    0.000 
#    0.000    0.000    0.000    0.000    0.000    2.222 
#
# Total GULP energy -200451.813975 kJ/mol
# GULP energy per Si atom -5568.105944 kJ/mol
# Density = 1.330356 g / cm^3
# Si number density = 13.333911 Si / 1000 Ang^3
#
#
#
# Elastic Constant Matrix: (Units=GPa)
#
#
# Indices 1 2 3 4 5 6 
#
# 1 69.0786 29.2704 14.5943 0.0000 0.0000 0.0000
# 2 29.2704 62.6806 32.9804 0.0000 0.0000 0.0000
# 3 14.5943 32.9804 58.0580 0.0000 0.0000 0.0000
# 4 0.0000 0.0000 0.0000 7.1912 0.0000 0.0000
# 5 0.0000 0.0000 0.0000 0.0000 20.5267 0.0000
# 6 0.0000 0.0000 0.0000 0.0000 0.0000 11.9401
#
#
#
# Elastic Compliance Matrix: (Units=1/GPa)
#
#
# Indices 1 2 3 4 5 6 
#
# 1 0.018053 -0.008618 0.000358 0.000000 0.000000 0.000000
# 2 -0.008618 0.026870 -0.013097 0.000000 0.000000 0.000000
# 3 0.000358 -0.013097 0.024574 0.000000 0.000000 0.000000
# 4 0.000000 0.000000 0.000000 0.139058 0.000000 0.000000
# 5 0.000000 0.000000 0.000000 0.000000 0.048717 0.000000
# 6 0.000000 0.000000 0.000000 0.000000 0.000000 0.083751
#
#
# Mechanical properties :
#
#
# Convention : Reuss Voigt Hill
#
# Bulk Modulus (GPa) = 37.33996 38.16749 37.75372
# Shear Modulus (GPa) = 12.73349 15.46309 14.09829
#
# Velocity S-wave (km/s) = 3.09361 3.40910 3.25518
# Velocity P-wave (km/s) = 6.38945 6.64699 6.51949
#
# Compressibility (1/GPa) = 0.02678096
#
# Stress axis : x y z
#
# Youngs Moduli (GPa) = 55.39394 37.21654 40.69315
#
# Poissons Ratio (x) = 0.32075 -0.01456
# Poissons Ratio (y) = 0.47741 0.53296
# Poissons Ratio (z) = -0.01982 0.48743
#
# Static dielectric constant tensor:
#      x y z
#    x 1.449690 0.000000 0.000000 
#    y 0.000000 1.414150 0.000000 
#    z 0.000000 0.000000 1.472820 
# 
# From -- ./inp_files/9443.got.cif
#   From: 2010.05.17/outbox.cif.g08.bks.cpg/sg65_5_cif.got.tgz:9443.got - 2010.06.03 17:01:31.
