data_PCOD9483134
_publ_section_title
;
Structure prediction by ZEFSAII (Michael W. Deem and Ramdas Pophale) SiO2 
 PCOD9483134
Probable space group: C M M M
;
_chemical_formula_sum "Si O2"
_cell_formula_units_Z 104
_cell_length_a 7.631153
_cell_length_b 28.001182
_cell_length_c 27.852497
_cell_angle_alpha 90.000000
_cell_angle_beta 90.000000
_cell_angle_gamma 90.000000
_cell_volume 5951.557879
_symmetry_space_group_name_H-M "C M M M"
_symmetry_group_IT_number 65
_symmetry_cell_setting 'orthorhombic'
loop_
_space_group_symop_operation_xyz
x,y,z
-x,-y,z
x,-y,-z
-x,y,-z
-x,-y,-z
x,y,-z
-x,y,z
x,-y,z
1/2+x,1/2+y,z
1/2-x,1/2-y,z
1/2+x,1/2-y,-z
1/2-x,1/2+y,-z
1/2-x,1/2-y,-z
1/2+x,1/2+y,-z
1/2-x,1/2+y,z
1/2+x,1/2-y,z
loop_
_atom_site_type_symbol
_atom_site_label
_atom_site_fract_x
_atom_site_fract_y
_atom_site_fract_z
Si Si1 0.291867 0.695787 0.198980
Si Si2 0.714907 0.349945 0.900027
Si Si3 0.204842 0.052930 0.855037
Si Si4 0.210407 0.806013 0.000000
Si Si5 0.210921 0.557335 0.551663
Si Si6 0.203711 0.401373 0.755056
Si Si7 0.785919 0.444101 0.656069
O O1 0.500000 0.689620 0.199417
O O2 0.250000 0.750000 0.211658
O O3 0.230642 0.683428 0.144724
O O4 0.218925 0.654696 0.233476
O O5 0.500000 0.350172 0.900406
O O6 0.776700 0.403358 0.886714
O O7 0.775736 0.330353 0.951044
O O8 0.214205 0.070478 0.799870
O O9 0.000000 0.049720 0.867523
O O10 0.282215 0.000000 0.860378
O O11 0.250000 0.750000 0.000000
O O12 0.000000 0.811338 0.000000
O O13 0.278826 0.575394 0.500000
O O14 0.238912 0.500000 0.552098
O O15 0.275525 0.574258 0.603758
O O16 0.000000 0.564261 0.551111
O O17 0.274761 0.415957 0.703057
O O18 0.000000 0.414949 0.755817
O O19 0.738812 0.500000 0.661062
O O20 0.000000 0.442235 0.654882
#
# Coordination Sequence:
#
# PCOD9483134 Si02
#       7
#    16  16  16   8  16  16  16
#     4  10  19  32  47  63  84 108 135 166 204 248
#     4   8  16  29  45  65  86 107 132 164 200 243
#     4   9  17  30  45  60  83 114 144 173 205 240
#     4  10  18  30  47  65  85 105 130 166 209 252
#     4   7   9  14  25  42  68 104 139 166 196 233
#     4  10  18  27  41  62  86 111 140 172 206 244
#     4   8  13  20  31  51  80 110 139 171 201 231
#
# _framework density 17.474415
#
# number of rings (size 3 to 8) (size 9 to 14) (size 15 to 20)
#    0.000    3.231    0.000    4.154    0.000    0.923 
#    0.000    3.462    0.000    2.308    0.000    0.000 
#    0.000    8.615    0.000   18.462    0.000   15.692 
#
# Total GULP energy -289587.128628 kJ/mol
# GULP energy per Si atom -5568.983243 kJ/mol
# Density = 1.743464 g / cm^3
# Si number density = 17.474415 Si / 1000 Ang^3
#
#
#
# Elastic Constant Matrix: (Units=GPa)
#
#
# Indices 1 2 3 4 5 6 
#
# 1 32.7092 -7.3373 -1.1505 0.0000 0.0000 0.0000
# 2 -7.3373 98.5438 65.8566 0.0000 0.0000 0.0000
# 3 -1.1505 65.8566 172.9229 0.0000 0.0000 0.0000
# 4 0.0000 0.0000 0.0000 17.2432 0.0000 0.0000
# 5 0.0000 0.0000 0.0000 0.0000 7.8643 0.0000
# 6 0.0000 0.0000 0.0000 0.0000 0.0000 7.0990
#
#
#
# Elastic Compliance Matrix: (Units=1/GPa)
#
#
# Indices 1 2 3 4 5 6 
#
# 1 0.031198 0.002930 -0.000908 0.000000 0.000000 0.000000
# 2 0.002930 0.013888 -0.005269 0.000000 0.000000 0.000000
# 3 -0.000908 -0.005269 0.007784 0.000000 0.000000 0.000000
# 4 0.000000 0.000000 0.000000 0.057994 0.000000 0.000000
# 5 0.000000 0.000000 0.000000 0.000000 0.127158 0.000000
# 6 0.000000 0.000000 0.000000 0.000000 0.000000 0.140865
#
#
# Mechanical properties :
#
#
# Convention : Reuss Voigt Hill
#
# Bulk Modulus (GPa) = 21.56414 46.54594 34.05504
# Shear Modulus (GPa) = 12.47384 22.89509 17.68447
#
# Velocity S-wave (km/s) = 2.67467 3.62360 3.18468
# Velocity P-wave (km/s) = 4.68035 6.64844 5.74924
#
# Compressibility (1/GPa) = 0.04637329
#
# Stress axis : x y z
#
# Youngs Moduli (GPa) = 32.05360 72.00714 128.47311
#
# Poissons Ratio (x) = -0.21097 0.11669
# Poissons Ratio (y) = -0.09391 0.67699
# Poissons Ratio (z) = 0.02911 0.37944
#
# Static dielectric constant tensor:
#      x y z
#    x 1.792330 0.000000 0.000000 
#    y 0.000000 1.590810 0.000000 
#    z 0.000000 0.000000 1.629720 
# 
# From -- ./inp_files/73777.got.cif
#   From: 2010.05.17/outbox.cif.g08.bks.cpg/sg65_37_cif.got.tgz:73777.got - 2010.06.03 17:01:31.
