data_PCOD9483654
_publ_section_title
;
Structure prediction by ZEFSAII (Michael W. Deem and Ramdas Pophale) SiO2 
 PCOD9483654
Probable space group: C M M M
;
_chemical_formula_sum "Si O2"
_cell_formula_units_Z 88
_cell_length_a 31.000030
_cell_length_b 24.555531
_cell_length_c 8.966533
_cell_angle_alpha 90.000000
_cell_angle_beta 90.000000
_cell_angle_gamma 90.000000
_cell_volume 6825.523956
_symmetry_space_group_name_H-M "C M M M"
_symmetry_group_IT_number 65
_symmetry_cell_setting 'orthorhombic'
loop_
_space_group_symop_operation_xyz
x,y,z
-x,-y,z
x,-y,-z
-x,y,-z
-x,-y,-z
x,y,-z
-x,y,z
x,-y,z
1/2+x,1/2+y,z
1/2-x,1/2-y,z
1/2+x,1/2-y,-z
1/2-x,1/2+y,-z
1/2-x,1/2-y,-z
1/2+x,1/2+y,-z
1/2-x,1/2+y,z
1/2+x,1/2-y,z
loop_
_atom_site_type_symbol
_atom_site_label
_atom_site_fract_x
_atom_site_fract_y
_atom_site_fract_z
Si Si1 0.249062 0.878793 0.321829
Si Si2 0.910970 0.399143 0.679875
Si Si3 0.295879 0.281858 0.171762
Si Si4 0.162436 0.317681 0.321293
Si Si5 0.360562 0.000000 0.178321
Si Si6 0.000000 0.434682 0.820481
Si Si7 0.267383 0.000000 0.679146
O O1 0.246521 0.872149 0.500000
O O2 0.214090 0.839417 0.247829
O O3 0.297163 0.857190 0.276848
O O4 0.244393 0.942693 0.287805
O O5 0.913359 0.403668 0.500000
O O6 0.883023 0.345447 0.717485
O O7 0.883190 0.448162 0.748005
O O8 0.957866 0.406329 0.751353
O O9 0.250000 0.250000 0.179738
O O10 0.328938 0.241187 0.251396
O O11 0.307442 0.289020 0.000000
O O12 0.164486 0.313283 0.500000
O O13 0.311151 0.000000 0.227448
O O14 0.365866 0.000000 0.000000
O O15 0.000000 0.500000 0.783996
O O16 0.000000 0.430651 0.000000
O O17 0.277406 0.000000 0.500000
#
# Coordination Sequence:
#
# PCOD9483654 Si02
#       7
#    16  16  16  16   8   8   8
#     4   9  16  27  42  58  78 103 133 166 198 235
#     4  11  21  34  49  61  75 103 138 170 206 251
#     4   9  17  27  39  57  80 102 126 159 202 243
#     4   9  17  29  45  60  74  97 133 170 201 237
#     4  12  22  29  41  60  82 104 129 170 213 249
#     4  11  23  35  45  63  84 104 130 167 214 253
#     4  10  18  30  43  59  80 108 140 169 202 244
#
# _framework density 12.892784000000001
#
# number of rings (size 3 to 8) (size 9 to 14) (size 15 to 20)
#    0.000    2.091    2.727    2.182    0.000    4.727 
#    0.000    0.000    0.000    0.000    0.000    0.000 
#    0.000    0.000    0.000    0.000    0.000    0.909 
#
# Total GULP energy -245196.420363 kJ/mol
# GULP energy per Si atom -5572.645917 kJ/mol
# Density = 1.286344 g / cm^3
# Si number density = 12.892784 Si / 1000 Ang^3
#
#
#
# Elastic Constant Matrix: (Units=GPa)
#
#
# Indices 1 2 3 4 5 6 
#
# 1 66.8322 55.4455 36.3689 0.0000 0.0000 0.0000
# 2 55.4455 109.6907 44.7160 0.0000 0.0000 0.0000
# 3 36.3689 44.7160 42.5644 0.0000 0.0000 0.0000
# 4 0.0000 0.0000 0.0000 3.5426 0.0000 0.0000
# 5 0.0000 0.0000 0.0000 0.0000 9.5513 0.0000
# 6 0.0000 0.0000 0.0000 0.0000 0.0000 94.9131
#
#
#
# Elastic Compliance Matrix: (Units=1/GPa)
#
#
# Indices 1 2 3 4 5 6 
#
# 1 0.032238 -0.008861 -0.018237 0.000000 0.000000 0.000000
# 2 -0.008861 0.018381 -0.011739 0.000000 0.000000 0.000000
# 3 -0.018237 -0.011739 0.051408 0.000000 0.000000 0.000000
# 4 0.000000 0.000000 0.000000 0.282275 0.000000 0.000000
# 5 0.000000 0.000000 0.000000 0.000000 0.104698 0.000000
# 6 0.000000 0.000000 0.000000 0.000000 0.000000 0.010536
#
#
# Mechanical properties :
#
#
# Convention : Reuss Voigt Hill
#
# Bulk Modulus (GPa) = 41.06064 54.68313 47.87189
# Shear Modulus (GPa) = 8.54222 27.10519 17.82370
#
# Velocity S-wave (km/s) = 2.57681 4.59012 3.72217
# Velocity P-wave (km/s) = 6.38515 8.40227 7.46218
#
# Compressibility (1/GPa) = 0.02435422
#
# Stress axis : x y z
#
# Youngs Moduli (GPa) = 31.01884 54.40387 19.45214
#
# Poissons Ratio (x) = 0.48209 0.35474
# Poissons Ratio (y) = 0.27487 0.22834
# Poissons Ratio (z) = 0.56568 0.63863
#
# Static dielectric constant tensor:
#      x y z
#    x 1.408990 0.000000 0.000000 
#    y 0.000000 1.428140 0.000000 
#    z 0.000000 0.000000 1.428890 
# 
# From -- ./inp_files/15014.got.cif
#   From: 2010.05.17/outbox.cif.g08.bks.cpg/sg65_8_cif.got.tgz:15014.got - 2010.06.03 17:01:31.
