data_PCOD9483795
_publ_section_title
;
Structure prediction by ZEFSAII (Michael W. Deem and Ramdas Pophale) SiO2 
 PCOD9483795
Probable space group: C M M M
;
_chemical_formula_sum "Si O2"
_cell_formula_units_Z 88
_cell_length_a 19.689014
_cell_length_b 8.478708
_cell_length_c 29.853394
_cell_angle_alpha 90.000000
_cell_angle_beta 90.000000
_cell_angle_gamma 90.000000
_cell_volume 4983.647991
_symmetry_space_group_name_H-M "C M M M"
_symmetry_group_IT_number 65
_symmetry_cell_setting 'orthorhombic'
loop_
_space_group_symop_operation_xyz
x,y,z
-x,-y,z
x,-y,-z
-x,y,-z
-x,-y,-z
x,y,-z
-x,y,z
x,-y,z
1/2+x,1/2+y,z
1/2-x,1/2-y,z
1/2+x,1/2-y,-z
1/2-x,1/2+y,-z
1/2-x,1/2-y,-z
1/2+x,1/2+y,-z
1/2-x,1/2+y,z
1/2+x,1/2-y,z
loop_
_atom_site_type_symbol
_atom_site_label
_atom_site_fract_x
_atom_site_fract_y
_atom_site_fract_z
Si Si1 0.827290 0.810410 0.094514
Si Si2 0.421454 0.193081 0.368763
Si Si3 0.577752 0.689077 0.824509
Si Si4 0.827677 0.687966 0.000000
Si Si5 0.082504 0.682809 0.270765
Si Si6 0.673611 0.190636 0.449672
O O1 0.750000 0.750000 0.099211
O O2 0.873280 0.754635 0.135937
O O3 0.825584 0.000000 0.093689
O O4 0.856373 0.751181 0.046861
O O5 0.500000 0.240611 0.374592
O O6 0.395838 0.245367 0.319555
O O7 0.375623 0.245575 0.410102
O O8 0.421019 0.000000 0.367603
O O9 0.500000 0.748802 0.829385
O O10 0.575200 0.500000 0.827561
O O11 0.603110 0.732209 0.774796
O O12 0.750000 0.750000 0.000000
O O13 0.827672 0.500000 0.000000
O O14 0.102524 0.500000 0.267173
O O15 0.000000 0.688557 0.272375
O O16 0.652238 0.239684 0.500000
O O17 0.750000 0.250000 0.442577
O O18 0.673868 0.000000 0.448865
#
# Coordination Sequence:
#
# PCOD9483795 Si02
#       6
#    16  16  16   8  16  16
#     4  10  19  32  50  70  93 120 151 187 225 265
#     4   8  14  26  45  68  89 110 145 190 227 260
#     4   9  18  32  49  69  93 121 152 185 222 266
#     4  10  18  30  49  70  93 121 153 187 223 266
#     4   8  14  26  45  66  88 116 147 181 223 268
#     4   9  17  29  45  64  88 119 150 181 221 269
#
# _framework density 17.657747000000001
#
# number of rings (size 3 to 8) (size 9 to 14) (size 15 to 20)
#    0.000    3.091    0.000    3.545    0.000    1.818 
#    0.000    4.091    0.000    8.727    0.000    2.545 
#    0.000    0.000    0.000    0.000    0.000    0.000 
#
# Total GULP energy -244984.581073 kJ/mol
# GULP energy per Si atom -5567.831388 kJ/mol
# Density = 1.761756 g / cm^3
# Si number density = 17.657747 Si / 1000 Ang^3
#
#
#
# Elastic Constant Matrix: (Units=GPa)
#
#
# Indices 1 2 3 4 5 6 
#
# 1 52.0960 11.4470 81.9413 0.0000 0.0000 0.0000
# 2 11.4470 23.5014 24.8404 0.0000 0.0000 0.0000
# 3 81.9413 24.8404 214.8653 0.0000 0.0000 0.0000
# 4 0.0000 0.0000 0.0000 21.7926 0.0000 0.0000
# 5 0.0000 0.0000 0.0000 0.0000 64.3143 0.0000
# 6 0.0000 0.0000 0.0000 0.0000 0.0000 16.0101
#
#
#
# Elastic Compliance Matrix: (Units=1/GPa)
#
#
# Indices 1 2 3 4 5 6 
#
# 1 0.048408 -0.004632 -0.017925 0.000000 0.000000 0.000000
# 2 -0.004632 0.048917 -0.003889 0.000000 0.000000 0.000000
# 3 -0.017925 -0.003889 0.011940 0.000000 0.000000 0.000000
# 4 0.000000 0.000000 0.000000 0.045887 0.000000 0.000000
# 5 0.000000 0.000000 0.000000 0.000000 0.015549 0.000000
# 6 0.000000 0.000000 0.000000 0.000000 0.000000 0.062460
#
#
# Mechanical properties :
#
#
# Convention : Reuss Voigt Hill
#
# Bulk Modulus (GPa) = 17.73911 58.54668 38.14289
# Shear Modulus (GPa) = 16.40185 31.90565 24.15375
#
# Velocity S-wave (km/s) = 3.05105 4.25537 3.70250
# Velocity P-wave (km/s) = 4.74128 7.57447 6.31872
#
# Compressibility (1/GPa) = 0.05637263
#
# Stress axis : x y z
#
# Youngs Moduli (GPa) = 20.65788 20.44271 83.75413
#
# Poissons Ratio (x) = 0.09468 1.50132
# Poissons Ratio (y) = 0.09568 0.32571
# Poissons Ratio (z) = 0.37030 0.07950
#
# Static dielectric constant tensor:
#      x y z
#    x 1.580260 0.000000 0.000000 
#    y 0.000000 1.609660 0.000000 
#    z 0.000000 0.000000 1.641500 
# 
# From -- ./inp_files/77888.got.cif
#   From: 2010.05.17/outbox.cif.g08.bks.cpg/sg65_39_cif.got.tgz:77888.got - 2010.06.03 17:01:31.
