data_PCOD9483817
_publ_section_title
;
Structure prediction by ZEFSAII (Michael W. Deem and Ramdas Pophale) SiO2 
 PCOD9483817
Probable space group: C M M M
;
_chemical_formula_sum "Si O2"
_cell_formula_units_Z 80
_cell_length_a 17.437379
_cell_length_b 14.206089
_cell_length_c 13.371091
_cell_angle_alpha 90.000000
_cell_angle_beta 90.000000
_cell_angle_gamma 90.000000
_cell_volume 3312.245988
_symmetry_space_group_name_H-M "C M M M"
_symmetry_group_IT_number 65
_symmetry_cell_setting 'orthorhombic'
loop_
_space_group_symop_operation_xyz
x,y,z
-x,-y,z
x,-y,-z
-x,y,-z
-x,-y,-z
x,y,-z
-x,y,z
x,-y,z
1/2+x,1/2+y,z
1/2-x,1/2-y,z
1/2+x,1/2-y,-z
1/2-x,1/2+y,-z
1/2-x,1/2-y,-z
1/2+x,1/2+y,-z
1/2-x,1/2+y,z
1/2+x,1/2-y,z
loop_
_atom_site_type_symbol
_atom_site_label
_atom_site_fract_x
_atom_site_fract_y
_atom_site_fract_z
Si Si1 0.087535 0.288115 0.888431
Si Si2 0.190958 0.895866 0.887161
Si Si3 0.916661 0.136518 0.617284
Si Si4 0.084219 0.357869 0.330691
Si Si5 0.752055 0.362980 0.684801
O O1 0.137465 0.194488 0.871040
O O2 0.088611 0.353445 0.790595
O O3 0.000000 0.254575 0.892649
O O4 0.105467 0.326853 0.000000
O O5 0.254035 0.886985 0.802189
O O6 0.154222 0.000000 0.878396
O O7 0.220600 0.888564 0.000000
O O8 0.918293 0.116449 0.500000
O O9 0.916632 0.249091 0.634105
O O10 0.832952 0.103201 0.653792
O O11 0.000000 0.104622 0.659959
O O12 0.167790 0.395492 0.363763
O O13 0.000000 0.396332 0.359364
O O14 0.750000 0.250000 0.671791
#
# Coordination Sequence:
#
# PCOD9483817 Si02
#       5
#    16  16  16  16  16
#     4   9  16  27  43  64  92 123 156 192 230 278
#     4  10  20  31  44  67  98 129 160 194 236 286
#     4   9  17  29  46  70 100 127 153 193 239 284
#     4   9  17  29  45  70  97 120 157 202 241 276
#     4  10  18  30  49  72  90 125 165 198 237 281
#
# _framework density 24.152795000000001
#
# number of rings (size 3 to 8) (size 9 to 14) (size 15 to 20)
#    0.000    2.600    4.000    0.000    0.000    5.200 
#    0.000    2.000    0.000    1.200    0.000    2.800 
#    0.000    0.000    0.000   52.400    0.000    0.000 
#
# Total GULP energy -222809.172953 kJ/mol
# GULP energy per Si atom -5570.229324 kJ/mol
# Density = 2.409782 g / cm^3
# Si number density = 24.152795 Si / 1000 Ang^3
#
#
#
# Elastic Constant Matrix: (Units=GPa)
#
#
# Indices 1 2 3 4 5 6 
#
# 1 256.3788 22.6050 27.7181 0.0000 0.0000 0.0000
# 2 22.6050 76.5056 -9.6865 0.0000 0.0000 0.0000
# 3 27.7181 -9.6865 51.9201 0.0000 0.0000 0.0000
# 4 0.0000 0.0000 0.0000 -26.2272 0.0000 0.0000
# 5 0.0000 0.0000 0.0000 0.0000 5.8262 0.0000
# 6 0.0000 0.0000 0.0000 0.0000 0.0000 -28.6504
#
#
#
# Elastic Compliance Matrix: (Units=1/GPa)
#
#
# Indices 1 2 3 4 5 6 
#
# 1 0.004324 -0.001608 -0.002609 0.000000 0.000000 0.000000
# 2 -0.001608 0.013985 0.003468 0.000000 0.000000 0.000000
# 3 -0.002609 0.003468 0.021300 0.000000 0.000000 0.000000
# 4 0.000000 0.000000 0.000000 -0.038128 0.000000 0.000000
# 5 0.000000 0.000000 0.000000 0.000000 0.171638 0.000000
# 6 0.000000 0.000000 0.000000 0.000000 0.000000 -0.034904
#
#
# Mechanical properties :
#
#
# Convention : Reuss Voigt Hill
#
# Bulk Modulus (GPa) = 26.23887 51.78640 39.01264
# Shear Modulus (GPa) = 32.80482 13.13427 22.96954
#
# Velocity S-wave (km/s) = 3.68940 2.33448 3.08719
# Velocity P-wave (km/s) = 5.38853 5.36229 5.37542
#
# Compressibility (1/GPa) = 0.03811140
#
# Stress axis : x y z
#
# Youngs Moduli (GPa) = 231.25270 71.50478 46.94853
#
# Poissons Ratio (x) = 0.11498 0.12247
# Poissons Ratio (y) = 0.37185 -0.16280
# Poissons Ratio (z) = 0.60323 -0.24795
#
# Static dielectric constant tensor:
#      x y z
#    x 2.005940 0.000000 0.000000 
#    y 0.000000 1.907050 0.000000 
#    z 0.000000 0.000000 1.958090 
# 
# From -- ./inp_files/42357.got.cif
#   From: 2010.05.17/outbox.cif.g08.bks.cpg/sg65_22_cif.got.tgz:42357.got - 2010.06.03 17:01:31.
