data_PCOD9483797
_publ_section_title
;
Structure prediction by ZEFSAII (Michael W. Deem and Ramdas Pophale) SiO2 
 PCOD9483797
Probable space group: C M M M
;
_chemical_formula_sum "Si O2"
_cell_formula_units_Z 104
_cell_length_a 7.322663
_cell_length_b 29.426251
_cell_length_c 22.203677
_cell_angle_alpha 90.000000
_cell_angle_beta 90.000000
_cell_angle_gamma 90.000000
_cell_volume 4784.415446
_symmetry_space_group_name_H-M "C M M M"
_symmetry_group_IT_number 65
_symmetry_cell_setting 'orthorhombic'
loop_
_space_group_symop_operation_xyz
x,y,z
-x,-y,z
x,-y,-z
-x,y,-z
-x,-y,-z
x,y,-z
-x,y,z
x,-y,z
1/2+x,1/2+y,z
1/2-x,1/2-y,z
1/2+x,1/2-y,-z
1/2-x,1/2+y,-z
1/2-x,1/2-y,-z
1/2+x,1/2+y,-z
1/2-x,1/2+y,z
1/2+x,1/2-y,z
loop_
_atom_site_type_symbol
_atom_site_label
_atom_site_fract_x
_atom_site_fract_y
_atom_site_fract_z
Si Si1 0.219760 0.049001 0.751831
Si Si2 0.791252 0.548651 0.107636
Si Si3 0.275985 0.148363 0.118591
Si Si4 0.715495 0.197599 0.000000
Si Si5 0.718439 0.195755 0.243331
Si Si6 0.221973 0.551437 0.429621
Si Si7 0.705171 0.873278 0.338155
O O1 0.289432 0.047872 0.819682
O O2 0.301225 0.090485 0.716221
O O3 0.000000 0.053285 0.753064
O O4 0.266345 0.000000 0.724136
O O5 0.710406 0.500000 0.087880
O O6 0.710931 0.598246 0.098500
O O7 0.000000 0.549234 0.085419
O O8 0.500000 0.146350 0.122027
O O9 0.216020 0.179206 0.063397
O O10 0.216153 0.169118 0.182981
O O11 0.750000 0.250000 0.000000
O O12 0.500000 0.186908 0.000000
O O13 0.500000 0.189653 0.244539
O O14 0.750000 0.250000 0.240237
O O15 0.787193 0.170937 0.304636
O O16 0.265340 0.557589 0.500000
O O17 0.283496 0.500000 0.412778
O O18 0.288525 0.594331 0.390151
O O19 0.000000 0.551137 0.423892
O O20 0.500000 0.861074 0.358529
#
# Coordination Sequence:
#
# PCOD9483797 Si02
#       7
#    16  16  16   8  16  16  16
#     4  10  19  28  41  68 102 128 154 191 232 277
#     4   9  16  29  49  69  93 126 159 190 231 288
#     4   9  17  32  50  72  97 123 156 198 241 283
#     4  10  20  34  53  71  95 125 160 206 245 284
#     4  10  20  33  48  68  94 122 159 202 246 291
#     4   8  14  25  44  73 102 124 153 194 235 275
#     4  10  18  30  49  70  94 127 162 196 237 286
#
# _framework density 21.737241000000001
#
# number of rings (size 3 to 8) (size 9 to 14) (size 15 to 20)
#    0.000    2.615    1.538    1.846    0.000    2.154 
#    0.000    1.154    0.000    3.231    0.000    2.154 
#    0.000    3.077    0.000    0.000    0.000    0.000 
#
# Total GULP energy -289768.089666 kJ/mol
# GULP energy per Si atom -5572.463263 kJ/mol
# Density = 2.168777 g / cm^3
# Si number density = 21.737241 Si / 1000 Ang^3
#
#
#
# Elastic Constant Matrix: (Units=GPa)
#
#
# Indices 1 2 3 4 5 6 
#
# 1 93.1350 0.6165 -0.2432 0.0000 0.0000 0.0000
# 2 0.6165 192.1144 64.3327 0.0000 0.0000 0.0000
# 3 -0.2432 64.3327 100.0121 0.0000 0.0000 0.0000
# 4 0.0000 0.0000 0.0000 33.4289 0.0000 0.0000
# 5 0.0000 0.0000 0.0000 0.0000 -18.1133 0.0000
# 6 0.0000 0.0000 0.0000 0.0000 0.0000 6.4654
#
#
#
# Elastic Compliance Matrix: (Units=1/GPa)
#
#
# Indices 1 2 3 4 5 6 
#
# 1 0.010738 -0.000055 0.000062 0.000000 0.000000 0.000000
# 2 -0.000055 0.006635 -0.004268 0.000000 0.000000 0.000000
# 3 0.000062 -0.004268 0.012744 0.000000 0.000000 0.000000
# 4 0.000000 0.000000 0.000000 0.029914 0.000000 0.000000
# 5 0.000000 0.000000 0.000000 0.000000 -0.055208 0.000000
# 6 0.000000 0.000000 0.000000 0.000000 0.000000 0.154669
#
#
# Mechanical properties :
#
#
# Convention : Reuss Voigt Hill
#
# Bulk Modulus (GPa) = 46.30981 57.18595 51.74788
# Shear Modulus (GPa) = 28.53678 25.72656 27.13167
#
# Velocity S-wave (km/s) = 3.62720 3.44397 3.53677
# Velocity P-wave (km/s) = 6.23640 6.49458 6.36680
#
# Compressibility (1/GPa) = 0.02159370
#
# Stress axis : x y z
#
# Youngs Moduli (GPa) = 93.13049 150.72609 78.46710
#
# Poissons Ratio (x) = 0.00830 -0.00483
# Poissons Ratio (y) = 0.00513 0.33488
# Poissons Ratio (z) = -0.00573 0.64327
#
# Static dielectric constant tensor:
#      x y z
#    x 1.904220 0.000000 0.000000 
#    y 0.000000 1.844680 0.000000 
#    z 0.000000 0.000000 1.779120 
# 
# From -- ./inp_files/68258.got.cif
#   From: 2010.05.17/outbox.cif.g08.bks.cpg/sg65_35_cif.got.tgz:68258.got - 2010.06.03 17:01:31.
