data_PCOD9483406
_publ_section_title
;
Structure prediction by ZEFSAII (Michael W. Deem and Ramdas Pophale) SiO2 
 PCOD9483406
Probable space group: C M M M
;
_chemical_formula_sum "Si O2"
_cell_formula_units_Z 96
_cell_length_a 24.970265
_cell_length_b 22.199826
_cell_length_c 7.321647
_cell_angle_alpha 90.000000
_cell_angle_beta 90.000000
_cell_angle_gamma 90.000000
_cell_volume 4058.649130
_symmetry_space_group_name_H-M "C M M M"
_symmetry_group_IT_number 65
_symmetry_cell_setting 'orthorhombic'
loop_
_space_group_symop_operation_xyz
x,y,z
-x,-y,z
x,-y,-z
-x,y,-z
-x,-y,-z
x,y,-z
-x,y,z
x,-y,z
1/2+x,1/2+y,z
1/2-x,1/2-y,z
1/2+x,1/2-y,-z
1/2-x,1/2+y,-z
1/2-x,1/2-y,-z
1/2+x,1/2+y,-z
1/2-x,1/2+y,z
1/2+x,1/2-y,z
loop_
_atom_site_type_symbol
_atom_site_label
_atom_site_fract_x
_atom_site_fract_y
_atom_site_fract_z
Si Si1 0.761798 0.316616 0.206446
Si Si2 0.321164 0.065883 0.211742
Si Si3 0.558944 0.095878 0.720483
Si Si4 0.356943 0.666489 0.278309
Si Si5 0.440885 0.431509 0.722163
Si Si6 0.440907 0.764006 0.278353
O O1 0.750000 0.250000 0.290979
O O2 0.798550 0.370235 0.288416
O O3 0.701853 0.341773 0.203416
O O4 0.782142 0.304889 0.000000
O O5 0.385704 0.067280 0.217591
O O6 0.304203 0.000000 0.287916
O O7 0.304047 0.066610 0.000000
O O8 0.559117 0.092162 0.500000
O O9 0.500000 0.073433 0.780142
O O10 0.562209 0.166273 0.773169
O O11 0.353073 0.667390 0.500000
O O12 0.394809 0.612404 0.219489
O O13 0.389326 0.726328 0.220386
O O14 0.440911 0.430815 0.500000
O O15 0.500000 0.411555 0.779326
O O16 0.432975 0.500000 0.779601
O O17 0.440947 0.761510 0.500000
O O18 0.500000 0.740941 0.221318
#
# Coordination Sequence:
#
# PCOD9483406 Si02
#       6
#    16  16  16  16  16  16
#     4  10  22  39  55  71  97 134 171 208 253 300
#     4  10  22  39  56  74  99 133 171 207 245 295
#     4   9  18  33  54  80 107 132 159 197 248 300
#     4  10  18  28  49  77  98 124 168 213 248 289
#     4   8  14  25  42  68 103 136 163 197 244 296
#     4   8  14  26  46  74 106 134 161 199 247 297
#
# _framework density 23.653189000000001
#
# number of rings (size 3 to 8) (size 9 to 14) (size 15 to 20)
#    0.000    2.833    0.000    3.000    0.000    4.667 
#    0.000    1.667    0.000    3.000    0.000    1.167 
#    0.000    0.000    0.000    0.000    0.000    0.000 
#
# Total GULP energy -267884.749888 kJ/mol
# GULP energy per Si atom -5580.932289 kJ/mol
# Density = 2.359935 g / cm^3
# Si number density = 23.653189 Si / 1000 Ang^3
#
#
#
# Elastic Constant Matrix: (Units=GPa)
#
#
# Indices 1 2 3 4 5 6 
#
# 1 134.7921 65.9879 -2.0394 0.0000 0.0000 0.0000
# 2 65.9879 149.0809 5.4398 0.0000 0.0000 0.0000
# 3 -2.0394 5.4398 94.2851 0.0000 0.0000 0.0000
# 4 0.0000 0.0000 0.0000 91.1695 0.0000 0.0000
# 5 0.0000 0.0000 0.0000 0.0000 18.1846 0.0000
# 6 0.0000 0.0000 0.0000 0.0000 0.0000 20.1046
#
#
#
# Elastic Compliance Matrix: (Units=1/GPa)
#
#
# Indices 1 2 3 4 5 6 
#
# 1 0.009490 -0.004217 0.000449 0.000000 0.000000 0.000000
# 2 -0.004217 0.008596 -0.000587 0.000000 0.000000 0.000000
# 3 0.000449 -0.000587 0.010650 0.000000 0.000000 0.000000
# 4 0.000000 0.000000 0.000000 0.010969 0.000000 0.000000
# 5 0.000000 0.000000 0.000000 0.000000 0.054992 0.000000
# 6 0.000000 0.000000 0.000000 0.000000 0.000000 0.049740
#
#
# Mechanical properties :
#
#
# Convention : Reuss Voigt Hill
#
# Bulk Modulus (GPa) = 49.93902 57.43719 53.68811
# Shear Modulus (GPa) = 31.28491 46.47639 38.88065
#
# Velocity S-wave (km/s) = 3.64077 4.43754 4.05875
# Velocity P-wave (km/s) = 6.23157 7.11277 6.68670
#
# Compressibility (1/GPa) = 0.02002442
#
# Stress axis : x y z
#
# Youngs Moduli (GPa) = 105.37359 116.33649 93.89932
#
# Poissons Ratio (x) = 0.49059 -0.04212
# Poissons Ratio (y) = 0.44436 0.05513
# Poissons Ratio (z) = -0.04727 0.06831
#
# Static dielectric constant tensor:
#      x y z
#    x 1.851800 0.000000 0.000000 
#    y 0.000000 1.920650 0.000000 
#    z 0.000000 0.000000 1.926960 
# 
# From -- ./inp_files/12224.got.cif
#   From: 2010.05.17/outbox.cif.g08.bks.cpg/sg65_7_cif.got.tgz:12224.got - 2010.06.03 17:01:31.
