data_PCOD9483433
_publ_section_title
;
Structure prediction by ZEFSAII (Michael W. Deem and Ramdas Pophale) SiO2 
 PCOD9483433
Probable space group: C M M M
;
_chemical_formula_sum "Si O2"
_cell_formula_units_Z 80
_cell_length_a 29.703125
_cell_length_b 8.035365
_cell_length_c 22.856511
_cell_angle_alpha 90.000000
_cell_angle_beta 90.000000
_cell_angle_gamma 90.000000
_cell_volume 5455.288072
_symmetry_space_group_name_H-M "C M M M"
_symmetry_group_IT_number 65
_symmetry_cell_setting 'orthorhombic'
loop_
_space_group_symop_operation_xyz
x,y,z
-x,-y,z
x,-y,-z
-x,y,-z
-x,-y,-z
x,y,-z
-x,y,z
x,-y,z
1/2+x,1/2+y,z
1/2-x,1/2-y,z
1/2+x,1/2-y,-z
1/2-x,1/2+y,-z
1/2-x,1/2-y,-z
1/2+x,1/2+y,-z
1/2-x,1/2+y,z
1/2+x,1/2-y,z
loop_
_atom_site_type_symbol
_atom_site_label
_atom_site_fract_x
_atom_site_fract_y
_atom_site_fract_z
Si Si1 0.700520 0.700312 0.932537
Si Si2 0.448159 0.802605 0.770979
Si Si3 0.945044 0.500000 0.432405
Si Si4 0.948303 0.203059 0.000000
Si Si5 0.554717 0.684134 0.356697
Si Si6 0.606371 0.701763 0.884567
O O1 0.698617 0.500000 0.934441
O O2 0.750000 0.750000 0.911295
O O3 0.657796 0.757289 0.895060
O O4 0.695837 0.760167 0.000000
O O5 0.500000 0.750465 0.783877
O O6 0.433082 0.716079 0.710917
O O7 0.416831 0.764184 0.825810
O O8 0.448772 0.000000 0.759811
O O9 0.931165 0.500000 0.500000
O O10 0.930123 0.665166 0.397860
O O11 0.000000 0.500000 0.431576
O O12 0.922290 0.255164 0.058532
O O13 0.000000 0.258479 0.000000
O O14 0.948164 0.000000 0.000000
O O15 0.500000 0.687492 0.357764
O O16 0.569242 0.500000 0.375518
O O17 0.605699 0.500000 0.883191
#
# Coordination Sequence:
#
# PCOD9483433 Si02
#       6
#    16  16   8   8  16  16
#     4   9  17  30  46  62  80 101 130 174 223 271
#     4  10  19  30  42  58  83 113 145 184 222 261
#     4   9  16  26  40  60  86 111 143 189 225 252
#     4   9  16  26  40  57  79 103 131 175 224 264
#     4   9  16  27  42  58  80 113 149 183 220 260
#     4  10  18  29  44  62  79 102 141 181 219 270
#
# _framework density 14.664669999999999
#
# number of rings (size 3 to 8) (size 9 to 14) (size 15 to 20)
#    0.000    2.600    2.000    1.200    0.000    3.200 
#    0.000    2.500    0.000    1.800    0.000    0.000 
#    0.000    0.000    0.000    0.000    0.000    1.000 
#
# Total GULP energy -222940.630870 kJ/mol
# GULP energy per Si atom -5573.515772 kJ/mol
# Density = 1.463129 g / cm^3
# Si number density = 14.664670 Si / 1000 Ang^3
#
#
#
# Elastic Constant Matrix: (Units=GPa)
#
#
# Indices 1 2 3 4 5 6 
#
# 1 75.3053 17.9069 37.6899 0.0000 0.0000 0.0000
# 2 17.9069 63.5390 43.0851 0.0000 0.0000 0.0000
# 3 37.6899 43.0851 101.8207 0.0000 0.0000 0.0000
# 4 0.0000 0.0000 0.0000 13.8411 0.0000 0.0000
# 5 0.0000 0.0000 0.0000 0.0000 2.1576 0.0000
# 6 0.0000 0.0000 0.0000 0.0000 0.0000 13.9636
#
#
#
# Elastic Compliance Matrix: (Units=1/GPa)
#
#
# Indices 1 2 3 4 5 6 
#
# 1 0.016321 -0.000706 -0.005743 0.000000 0.000000 0.000000
# 2 -0.000706 0.022102 -0.009091 0.000000 0.000000 0.000000
# 3 -0.005743 -0.009091 0.015794 0.000000 0.000000 0.000000
# 4 0.000000 0.000000 0.000000 0.072249 0.000000 0.000000
# 5 0.000000 0.000000 0.000000 0.000000 0.463473 0.000000
# 6 0.000000 0.000000 0.000000 0.000000 0.000000 0.071615
#
#
# Mechanical properties :
#
#
# Convention : Reuss Voigt Hill
#
# Bulk Modulus (GPa) = 43.21938 48.66988 45.94463
# Shear Modulus (GPa) = 7.13933 15.45799 11.29866
#
# Velocity S-wave (km/s) = 2.20884 3.25021 2.77874
# Velocity P-wave (km/s) = 6.00342 6.88082 6.45704
#
# Compressibility (1/GPa) = 0.02313777
#
# Stress axis : x y z
#
# Youngs Moduli (GPa) = 61.26933 45.24517 63.31563
#
# Poissons Ratio (x) = 0.03192 0.36362
# Poissons Ratio (y) = 0.04323 0.57561
# Poissons Ratio (z) = 0.35187 0.41133
#
# Static dielectric constant tensor:
#      x y z
#    x 1.465110 0.000000 0.000000 
#    y 0.000000 1.530200 0.000000 
#    z 0.000000 0.000000 1.465980 
# 
# From -- ./inp_files/66161.got.cif
#   From: 2010.05.17/outbox.cif.g08.bks.cpg/sg65_34_cif.got.tgz:66161.got - 2010.06.03 17:01:31.
