data_PCOD9483020
_publ_section_title
;
Structure prediction by ZEFSAII (Michael W. Deem and Ramdas Pophale) SiO2 
 PCOD9483020
Probable space group: C M M M
;
_chemical_formula_sum "Si O2"
_cell_formula_units_Z 68
_cell_length_a 24.120565
_cell_length_b 7.435159
_cell_length_c 18.112053
_cell_angle_alpha 90.000000
_cell_angle_beta 90.000000
_cell_angle_gamma 90.000000
_cell_volume 3248.219858
_symmetry_space_group_name_H-M "C M M M"
_symmetry_group_IT_number 65
_symmetry_cell_setting 'orthorhombic'
loop_
_space_group_symop_operation_xyz
x,y,z
-x,-y,z
x,-y,-z
-x,y,-z
-x,-y,-z
x,y,-z
-x,y,z
x,-y,z
1/2+x,1/2+y,z
1/2-x,1/2-y,z
1/2+x,1/2-y,-z
1/2-x,1/2+y,-z
1/2-x,1/2-y,-z
1/2+x,1/2+y,-z
1/2-x,1/2+y,z
1/2+x,1/2-y,z
loop_
_atom_site_type_symbol
_atom_site_label
_atom_site_fract_x
_atom_site_fract_y
_atom_site_fract_z
Si Si1 0.382832 0.719816 0.916913
Si Si2 0.000000 0.217562 0.848983
Si Si3 0.638536 0.000000 0.500000
Si Si4 0.185136 0.214086 0.777293
Si Si5 0.500000 0.208005 0.324568
Si Si6 0.622487 0.292519 0.370365
O O1 0.381995 0.500000 0.917984
O O2 0.444395 0.773414 0.891018
O O3 0.340567 0.782905 0.853855
O O4 0.370650 0.779846 0.000000
O O5 0.000000 0.278769 0.764210
O O6 0.000000 0.000000 0.846511
O O7 0.636597 0.842115 0.564325
O O8 0.250000 0.250000 0.771070
O O9 0.151780 0.274350 0.705079
O O10 0.176783 0.000000 0.778755
O O11 0.556491 0.290857 0.355369
O O12 0.500000 0.000000 0.347223
O O13 0.639674 0.500000 0.384852
#
# Coordination Sequence:
#
# PCOD9483020 Si02
#       6
#    16   8   4  16   8  16
#     4   9  17  31  56  93 127 163 214 263 314 378
#     4  10  17  32  58  89 125 168 211 263 319 375
#     4  12  26  45  72 102 130 162 212 269 338 384
#     4  10  22  39  64  89 122 171 217 264 323 380
#     4  12  22  37  64  97 127 172 214 256 318 396
#     4  11  24  44  67  96 132 169 212 264 323 396
#
# _framework density 20.934543000000001
#
# number of rings (size 3 to 8) (size 9 to 14) (size 15 to 20)
#    0.000    1.647    3.529    1.765    1.647    2.824 
#    0.000    1.765    0.000    2.824    0.000    0.000 
#    0.000    0.000    0.000    0.000    0.000    0.235 
#
# Total GULP energy -189504.904408 kJ/mol
# GULP energy per Si atom -5573.673659 kJ/mol
# Density = 2.088690 g / cm^3
# Si number density = 20.934543 Si / 1000 Ang^3
#
#
#
# Elastic Constant Matrix: (Units=GPa)
#
#
# Indices 1 2 3 4 5 6 
#
# 1 63.9594 3.0314 2.2939 0.0000 0.0000 0.0000
# 2 3.0314 105.9862 47.4745 0.0000 0.0000 0.0000
# 3 2.2939 47.4745 130.8701 0.0000 0.0000 0.0000
# 4 0.0000 0.0000 0.0000 -6.2173 0.0000 0.0000
# 5 0.0000 0.0000 0.0000 0.0000 -20.2407 0.0000
# 6 0.0000 0.0000 0.0000 0.0000 0.0000 5.1537
#
#
#
# Elastic Compliance Matrix: (Units=1/GPa)
#
#
# Indices 1 2 3 4 5 6 
#
# 1 0.015658 -0.000388 -0.000134 0.000000 0.000000 0.000000
# 2 -0.000388 0.011275 -0.004083 0.000000 0.000000 0.000000
# 3 -0.000134 -0.004083 0.009125 0.000000 0.000000 0.000000
# 4 0.000000 0.000000 0.000000 -0.160842 0.000000 0.000000
# 5 0.000000 0.000000 0.000000 0.000000 -0.049406 0.000000
# 6 0.000000 0.000000 0.000000 0.000000 0.000000 0.194036
#
#
# Mechanical properties :
#
#
# Convention : Reuss Voigt Hill
#
# Bulk Modulus (GPa) = 37.24665 45.15726 41.20195
# Shear Modulus (GPa) = 131.55711 12.27354 71.91532
#
# Velocity S-wave (km/s) = 7.93590 2.42395 5.86746
# Velocity P-wave (km/s) = 10.08970 5.42693 8.10104
#
# Compressibility (1/GPa) = 0.02684805
#
# Stress axis : x y z
#
# Youngs Moduli (GPa) = 63.86466 88.68864 109.59103
#
# Poissons Ratio (x) = 0.03441 0.01465
# Poissons Ratio (y) = 0.02478 0.44751
# Poissons Ratio (z) = 0.00854 0.36216
#
# Static dielectric constant tensor:
#      x y z
#    x 1.772940 0.000000 0.000000 
#    y 0.000000 1.773600 0.000000 
#    z 0.000000 0.000000 1.717290 
# 
# From -- ./inp_files/55424.got.cif
#   From: 2010.05.17/outbox.cif.g08.bks.cpg/sg65_28_cif.got.tgz:55424.got - 2010.06.03 17:01:31.
