data_PCOD9483223
_publ_section_title
;
Structure prediction by ZEFSAII (Michael W. Deem and Ramdas Pophale) SiO2 
 PCOD9483223
Probable space group: C M M M
;
_chemical_formula_sum "Si O2"
_cell_formula_units_Z 104
_cell_length_a 28.073257
_cell_length_b 8.483449
_cell_length_c 27.702317
_cell_angle_alpha 90.000000
_cell_angle_beta 90.000000
_cell_angle_gamma 90.000000
_cell_volume 6597.529632
_symmetry_space_group_name_H-M "C M M M"
_symmetry_group_IT_number 65
_symmetry_cell_setting 'orthorhombic'
loop_
_space_group_symop_operation_xyz
x,y,z
-x,-y,z
x,-y,-z
-x,y,-z
-x,-y,-z
x,y,-z
-x,y,z
x,-y,z
1/2+x,1/2+y,z
1/2-x,1/2-y,z
1/2+x,1/2-y,-z
1/2-x,1/2+y,-z
1/2-x,1/2-y,-z
1/2+x,1/2+y,-z
1/2-x,1/2+y,z
1/2+x,1/2-y,z
loop_
_atom_site_type_symbol
_atom_site_label
_atom_site_fract_x
_atom_site_fract_y
_atom_site_fract_z
Si Si1 0.944615 0.306944 0.000000
Si Si2 0.852310 0.186983 0.246466
Si Si3 0.897355 0.308292 0.099494
Si Si4 0.446055 0.190674 0.199292
Si Si5 0.804466 0.690338 0.551868
Si Si6 0.695635 0.189461 0.342412
Si Si7 0.697576 0.811383 0.150750
O O1 0.917922 0.253636 0.048551
O O2 0.944122 0.500000 0.000000
O O3 0.000000 0.259836 0.000000
O O4 0.905850 0.241057 0.234175
O O5 0.834611 0.246444 0.298070
O O6 0.819253 0.256966 0.203832
O O7 0.848908 0.000000 0.244332
O O8 0.897011 0.500000 0.097994
O O9 0.930838 0.264183 0.144699
O O10 0.843961 0.257345 0.113889
O O11 0.500000 0.240095 0.209582
O O12 0.443767 0.000000 0.201742
O O13 0.825828 0.742108 0.500000
O O14 0.804267 0.500000 0.551842
O O15 0.750000 0.750000 0.551674
O O16 0.823567 0.739592 0.604409
O O17 0.750000 0.250000 0.338017
O O18 0.696359 0.000000 0.340359
O O19 0.750000 0.750000 0.139582
O O20 0.698140 0.000000 0.150452
#
# Coordination Sequence:
#
# PCOD9483223 Si02
#       7
#     8  16  16  16  16  16  16
#     4   9  14  22  41  68  93 113 137 173 216 259
#     4  11  21  31  44  64  89 115 147 183 219 260
#     4   8  15  26  42  66  92 115 140 173 211 255
#     4   9  17  31  49  67  89 116 144 175 215 260
#     4   8  14  24  38  56  79 110 146 180 213 251
#     4  10  18  28  42  61  88 119 150 183 219 256
#     4  10  19  32  47  63  86 116 150 183 219 259
#
# _framework density 15.763476000000001
#
# number of rings (size 3 to 8) (size 9 to 14) (size 15 to 20)
#    0.000    2.692    0.000    4.154    0.000    2.769 
#    0.000    0.385    0.000    0.000    0.000   12.923 
#    0.000   20.923    0.000    7.077    0.000    2.000 
#
# Total GULP energy -289663.694672 kJ/mol
# GULP energy per Si atom -5570.455667 kJ/mol
# Density = 1.572760 g / cm^3
# Si number density = 15.763476 Si / 1000 Ang^3
#
#
#
# Elastic Constant Matrix: (Units=GPa)
#
#
# Indices 1 2 3 4 5 6 
#
# 1 108.0679 23.9598 73.4206 0.0000 0.0000 0.0000
# 2 23.9598 34.1062 22.9841 0.0000 0.0000 0.0000
# 3 73.4206 22.9841 160.4539 0.0000 0.0000 0.0000
# 4 0.0000 0.0000 0.0000 7.8999 0.0000 0.0000
# 5 0.0000 0.0000 0.0000 0.0000 19.6338 0.0000
# 6 0.0000 0.0000 0.0000 0.0000 0.0000 19.5931
#
#
#
# Elastic Compliance Matrix: (Units=1/GPa)
#
#
# Indices 1 2 3 4 5 6 
#
# 1 0.014576 -0.006359 -0.005759 0.000000 0.000000 0.000000
# 2 -0.006359 0.035227 -0.002136 0.000000 0.000000 0.000000
# 3 -0.005759 -0.002136 0.009173 0.000000 0.000000 0.000000
# 4 0.000000 0.000000 0.000000 0.126584 0.000000 0.000000
# 5 0.000000 0.000000 0.000000 0.000000 0.050933 0.000000
# 6 0.000000 0.000000 0.000000 0.000000 0.000000 0.051038
#
#
# Mechanical properties :
#
#
# Convention : Reuss Voigt Hill
#
# Bulk Modulus (GPa) = 32.82095 60.37300 46.59697
# Shear Modulus (GPa) = 15.32829 21.57628 18.45228
#
# Velocity S-wave (km/s) = 3.12170 3.70368 3.42507
# Velocity P-wave (km/s) = 5.81889 7.52809 6.72798
#
# Compressibility (1/GPa) = 0.03046834
#
# Stress axis : x y z
#
# Youngs Moduli (GPa) = 68.60772 28.38739 109.01072
#
# Poissons Ratio (x) = 0.18051 0.62776
# Poissons Ratio (y) = 0.43625 0.23290
# Poissons Ratio (z) = 0.39509 0.06065
#
# Static dielectric constant tensor:
#      x y z
#    x 1.509510 0.000000 0.000000 
#    y 0.000000 1.536680 0.000000 
#    z 0.000000 0.000000 1.551590 
# 
# From -- ./inp_files/75987.got.cif
#   From: 2010.05.17/outbox.cif.g08.bks.cpg/sg65_38_cif.got.tgz:75987.got - 2010.06.03 17:01:31.
