data_PCOD9483195
_publ_section_title
;
Structure prediction by ZEFSAII (Michael W. Deem and Ramdas Pophale) SiO2 
 PCOD9483195
Probable space group: C M M M
;
_chemical_formula_sum "Si O2"
_cell_formula_units_Z 72
_cell_length_a 25.749955
_cell_length_b 7.922494
_cell_length_c 21.182897
_cell_angle_alpha 90.000000
_cell_angle_beta 90.000000
_cell_angle_gamma 90.000000
_cell_volume 4321.392838
_symmetry_space_group_name_H-M "C M M M"
_symmetry_group_IT_number 65
_symmetry_cell_setting 'orthorhombic'
loop_
_space_group_symop_operation_xyz
x,y,z
-x,-y,z
x,-y,-z
-x,y,-z
-x,-y,-z
x,y,-z
-x,y,z
x,-y,z
1/2+x,1/2+y,z
1/2-x,1/2-y,z
1/2+x,1/2-y,-z
1/2-x,1/2+y,-z
1/2-x,1/2-y,-z
1/2+x,1/2+y,-z
1/2-x,1/2+y,z
1/2+x,1/2-y,z
loop_
_atom_site_type_symbol
_atom_site_label
_atom_site_fract_x
_atom_site_fract_y
_atom_site_fract_z
Si Si1 0.129543 0.688111 0.241939
Si Si2 0.061392 0.000000 0.200872
Si Si3 0.190286 0.303717 0.112976
Si Si4 0.689416 0.302606 0.637599
Si Si5 0.310830 0.200724 0.500000
Si Si6 0.381413 0.500000 0.069648
O O1 0.107179 0.500000 0.235294
O O2 0.087882 0.834917 0.231398
O O3 0.172338 0.707829 0.186276
O O4 0.157512 0.706974 0.308990
O O5 0.078186 0.000000 0.127202
O O6 0.000000 0.000000 0.208123
O O7 0.183508 0.500000 0.093349
O O8 0.250000 0.250000 0.106278
O O9 0.154535 0.166551 0.077947
O O10 0.686406 0.500000 0.651601
O O11 0.750000 0.250000 0.639438
O O12 0.668900 0.269349 0.566647
O O13 0.250000 0.250000 0.500000
O O14 0.315047 0.000000 0.500000
O O15 0.404859 0.500000 0.000000
#
# Coordination Sequence:
#
# PCOD9483195 Si02
#       6
#    16   8  16  16   8   8
#     4  10  20  34  54  79 104 134 177 220 269 318
#     4  10  22  41  60  79 102 128 171 230 277 315
#     4  10  19  32  50  75 109 144 174 209 249 303
#     4  11  19  29  46  74 110 150 182 215 254 307
#     4  10  18  28  40  64 106 151 190 214 245 298
#     4  10  22  37  54  78 107 139 175 208 253 317
#
# _framework density 16.661294999999999
#
# number of rings (size 3 to 8) (size 9 to 14) (size 15 to 20)
#    0.000    1.778    2.222    5.000    0.000    3.333 
#    0.000    0.000    0.000    0.000    0.000    7.778 
#    0.000    2.667    0.000    0.000    0.000    0.000 
#
# Total GULP energy -200846.758337 kJ/mol
# GULP energy per Si atom -5579.076620 kJ/mol
# Density = 1.662337 g / cm^3
# Si number density = 16.661295 Si / 1000 Ang^3
#
#
#
# Elastic Constant Matrix: (Units=GPa)
#
#
# Indices 1 2 3 4 5 6 
#
# 1 61.8796 24.7133 18.5935 0.0000 0.0000 0.0000
# 2 24.7133 125.1780 17.0651 0.0000 0.0000 0.0000
# 3 18.5935 17.0651 101.0576 0.0000 0.0000 0.0000
# 4 0.0000 0.0000 0.0000 1.3491 0.0000 0.0000
# 5 0.0000 0.0000 0.0000 0.0000 3.3156 0.0000
# 6 0.0000 0.0000 0.0000 0.0000 0.0000 8.5770
#
#
#
# Elastic Compliance Matrix: (Units=1/GPa)
#
#
# Indices 1 2 3 4 5 6 
#
# 1 0.018297 -0.003228 -0.002821 0.000000 0.000000 0.000000
# 2 -0.003228 0.008746 -0.000883 0.000000 0.000000 0.000000
# 3 -0.002821 -0.000883 0.010564 0.000000 0.000000 0.000000
# 4 0.000000 0.000000 0.000000 0.741227 0.000000 0.000000
# 5 0.000000 0.000000 0.000000 0.000000 0.301608 0.000000
# 6 0.000000 0.000000 0.000000 0.000000 0.000000 0.116590
#
#
# Mechanical properties :
#
#
# Convention : Reuss Voigt Hill
#
# Bulk Modulus (GPa) = 42.11832 45.42879 43.77356
# Shear Modulus (GPa) = 4.10236 17.83123 10.96679
#
# Velocity S-wave (km/s) = 1.57084 3.27497 2.56836
# Velocity P-wave (km/s) = 5.35015 6.45181 5.92663
#
# Compressibility (1/GPa) = 0.02374264
#
# Stress axis : x y z
#
# Youngs Moduli (GPa) = 54.65290 114.33481 94.66485
#
# Poissons Ratio (x) = 0.36904 0.26709
# Poissons Ratio (y) = 0.17640 0.08360
# Poissons Ratio (z) = 0.15420 0.10097
#
# Static dielectric constant tensor:
#      x y z
#    x 1.506260 0.000000 0.000000 
#    y 0.000000 1.581340 0.000000 
#    z 0.000000 0.000000 1.583610 
# 
# From -- ./inp_files/64396.got.cif
#   From: 2010.05.17/outbox.cif.g08.bks.cpg/sg65_33_cif.got.tgz:64396.got - 2010.06.03 17:01:31.
