data_PCOD9483633
_publ_section_title
;
Structure prediction by ZEFSAII (Michael W. Deem and Ramdas Pophale) SiO2 
 PCOD9483633
Probable space group: C M M M
;
_chemical_formula_sum "Si O2"
_cell_formula_units_Z 80
_cell_length_a 29.324456
_cell_length_b 21.617358
_cell_length_c 7.758321
_cell_angle_alpha 90.000000
_cell_angle_beta 90.000000
_cell_angle_gamma 90.000000
_cell_volume 4918.133618
_symmetry_space_group_name_H-M "C M M M"
_symmetry_group_IT_number 65
_symmetry_cell_setting 'orthorhombic'
loop_
_space_group_symop_operation_xyz
x,y,z
-x,-y,z
x,-y,-z
-x,y,-z
-x,-y,-z
x,y,-z
-x,y,z
x,-y,z
1/2+x,1/2+y,z
1/2-x,1/2-y,z
1/2+x,1/2-y,-z
1/2-x,1/2+y,-z
1/2-x,1/2-y,-z
1/2+x,1/2+y,-z
1/2-x,1/2+y,z
1/2+x,1/2-y,z
loop_
_atom_site_type_symbol
_atom_site_label
_atom_site_fract_x
_atom_site_fract_y
_atom_site_fract_z
Si Si1 0.947529 0.291413 0.500000
Si Si2 0.421353 0.066465 0.500000
Si Si3 0.852936 0.592189 0.195062
Si Si4 0.250609 0.567229 0.708441
Si Si5 0.787803 0.800863 0.709014
Si Si6 0.378836 0.233950 0.195463
O O1 0.946211 0.367042 0.500000
O O2 0.919223 0.267546 0.665517
O O3 0.000000 0.271828 0.500000
O O4 0.388565 0.068001 0.333711
O O5 0.446147 0.000000 0.500000
O O6 0.802048 0.571250 0.236589
O O7 0.855185 0.666510 0.209726
O O8 0.865120 0.575210 0.000000
O O9 0.251841 0.568386 0.500000
O O10 0.268961 0.500000 0.765102
O O11 0.274650 0.630179 0.768710
O O12 0.787071 0.799998 0.500000
O O13 0.750000 0.750000 0.766333
O O14 0.838195 0.781488 0.766535
O O15 0.395645 0.241267 0.000000
#
# Coordination Sequence:
#
# PCOD9483633 Si02
#       6
#     8   8  16  16  16  16
#     4  10  22  39  56  74  98 125 162 217 271 308
#     4  10  20  33  49  69  96 127 166 213 256 301
#     4  10  19  30  46  69  98 133 172 210 247 287
#     4  10  19  29  43  67 103 142 174 208 244 283
#     4  10  18  29  50  73 103 139 174 210 243 292
#     4  10  20  34  54  77  99 129 170 210 255 304
#
# _framework density 16.266334000000001
#
# number of rings (size 3 to 8) (size 9 to 14) (size 15 to 20)
#    0.000    2.000    4.000    0.600    0.000    3.400 
#    0.000    0.000    0.000    0.000    0.000    5.600 
#    0.000    1.600    0.000    1.800    0.000    0.000 
#
# Total GULP energy -223106.902997 kJ/mol
# GULP energy per Si atom -5577.672575 kJ/mol
# Density = 1.622931 g / cm^3
# Si number density = 16.266334 Si / 1000 Ang^3
#
#
#
# Elastic Constant Matrix: (Units=GPa)
#
#
# Indices 1 2 3 4 5 6 
#
# 1 99.8653 51.2138 40.3506 0.0000 0.0000 0.0000
# 2 51.2138 103.0289 43.3692 0.0000 0.0000 0.0000
# 3 40.3506 43.3692 68.2339 0.0000 0.0000 0.0000
# 4 0.0000 0.0000 0.0000 18.4409 0.0000 0.0000
# 5 0.0000 0.0000 0.0000 0.0000 -4.6881 0.0000
# 6 0.0000 0.0000 0.0000 0.0000 0.0000 -3.9683
#
#
#
# Elastic Compliance Matrix: (Units=1/GPa)
#
#
# Indices 1 2 3 4 5 6 
#
# 1 0.014850 -0.005031 -0.005584 0.000000 0.000000 0.000000
# 2 -0.005031 0.014956 -0.006531 0.000000 0.000000 0.000000
# 3 -0.005584 -0.006531 0.022108 0.000000 0.000000 0.000000
# 4 0.000000 0.000000 0.000000 0.054227 0.000000 0.000000
# 5 0.000000 0.000000 0.000000 0.000000 -0.213304 0.000000
# 6 0.000000 0.000000 0.000000 0.000000 0.000000 -0.251999
#
#
# Mechanical properties :
#
#
# Convention : Reuss Voigt Hill
#
# Bulk Modulus (GPa) = 56.74457 60.11062 58.42759
# Shear Modulus (GPa) = -15.67416 11.03653 -2.31881
#
# Velocity S-wave (km/s) = -3.10755 2.60761 -1.19525
# Velocity P-wave (km/s) = 4.69942 6.78973 5.83888
#
# Compressibility (1/GPa) = 0.01762283
#
# Stress axis : x y z
#
# Youngs Moduli (GPa) = 67.34149 66.86301 45.23173
#
# Poissons Ratio (x) = 0.33639 0.25256
# Poissons Ratio (y) = 0.33880 0.29540
# Poissons Ratio (z) = 0.37602 0.43667
#
# Static dielectric constant tensor:
#      x y z
#    x 1.492490 0.000000 0.000000 
#    y 0.000000 1.590410 0.000000 
#    z 0.000000 0.000000 1.570260 
# 
# From -- ./inp_files/13830.got.cif
#   From: 2010.05.17/outbox.cif.g08.bks.cpg/sg65_7_cif.got.tgz:13830.got - 2010.06.03 17:01:31.
