data_PCOD9483394
_publ_section_title
;
Structure prediction by ZEFSAII (Michael W. Deem and Ramdas Pophale) SiO2 
 PCOD9483394
Probable space group: C M M M
;
_chemical_formula_sum "Si O2"
_cell_formula_units_Z 96
_cell_length_a 14.295932
_cell_length_b 22.072441
_cell_length_c 15.261317
_cell_angle_alpha 90.000000
_cell_angle_beta 90.000000
_cell_angle_gamma 90.000000
_cell_volume 4815.649298
_symmetry_space_group_name_H-M "C M M M"
_symmetry_group_IT_number 65
_symmetry_cell_setting 'orthorhombic'
loop_
_space_group_symop_operation_xyz
x,y,z
-x,-y,z
x,-y,-z
-x,y,-z
-x,-y,-z
x,y,-z
-x,y,z
x,-y,z
1/2+x,1/2+y,z
1/2-x,1/2-y,z
1/2+x,1/2-y,-z
1/2-x,1/2+y,-z
1/2-x,1/2-y,-z
1/2+x,1/2+y,-z
1/2-x,1/2+y,z
1/2+x,1/2-y,z
loop_
_atom_site_type_symbol
_atom_site_label
_atom_site_fract_x
_atom_site_fract_y
_atom_site_fract_z
Si Si1 0.395443 0.428806 0.225982
Si Si2 0.305702 0.612866 0.397977
Si Si3 0.274009 0.348675 0.098973
Si Si4 0.605947 0.263497 0.356753
Si Si5 0.609579 0.234827 0.150812
Si Si6 0.101220 0.376177 0.398853
O O1 0.500000 0.405178 0.205574
O O2 0.393107 0.500000 0.208802
O O3 0.374281 0.417040 0.328169
O O4 0.319654 0.394731 0.167181
O O5 0.316347 0.595497 0.500000
O O6 0.324919 0.685183 0.390752
O O7 0.199861 0.599439 0.365544
O O8 0.343334 0.290531 0.100125
O O9 0.173714 0.323160 0.130371
O O10 0.267982 0.372273 0.000000
O O11 0.500000 0.286150 0.371943
O O12 0.619546 0.252628 0.253230
O O13 0.610443 0.196820 0.397432
O O14 0.500000 0.226604 0.131858
O O15 0.097206 0.395376 0.500000
O O16 0.000000 0.390803 0.357020
#
# Coordination Sequence:
#
# PCOD9483394 Si02
#       6
#    16  16  16  16  16  16
#     4  11  25  44  63  83 112 152 198 249 301 354
#     4  11  21  34  56  82 112 152 197 245 293 342
#     4  11  23  38  61  91 121 154 195 242 291 347
#     4  10  18  28  47  77 116 158 191 225 277 341
#     4  10  20  35  58  90 128 160 186 227 288 355
#     4   9  18  30  46  75 113 152 193 232 276 339
#
# _framework density 19.935006000000001
#
# number of rings (size 3 to 8) (size 9 to 14) (size 15 to 20)
#    0.000    1.667    1.667    4.000    2.333    6.333 
#    0.000    1.667    0.000    2.000    0.000    3.500 
#    0.000    0.000    0.000    0.000    0.000    0.000 
#
# Total GULP energy -267977.780056 kJ/mol
# GULP energy per Si atom -5582.870418 kJ/mol
# Density = 1.988963 g / cm^3
# Si number density = 19.935006 Si / 1000 Ang^3
#
#
#
# Elastic Constant Matrix: (Units=GPa)
#
#
# Indices 1 2 3 4 5 6 
#
# 1 137.6729 16.7113 31.7069 0.0000 0.0000 0.0000
# 2 16.7113 30.5672 10.6312 0.0000 0.0000 0.0000
# 3 31.7069 10.6312 83.9743 0.0000 0.0000 0.0000
# 4 0.0000 0.0000 0.0000 -1.5685 0.0000 0.0000
# 5 0.0000 0.0000 0.0000 0.0000 13.0922 0.0000
# 6 0.0000 0.0000 0.0000 0.0000 0.0000 19.6378
#
#
#
# Elastic Compliance Matrix: (Units=1/GPa)
#
#
# Indices 1 2 3 4 5 6 
#
# 1 0.008321 -0.003615 -0.002684 0.000000 0.000000 0.000000
# 2 -0.003615 0.035793 -0.003166 0.000000 0.000000 0.000000
# 3 -0.002684 -0.003166 0.013323 0.000000 0.000000 0.000000
# 4 0.000000 0.000000 0.000000 -0.637565 0.000000 0.000000
# 5 0.000000 0.000000 0.000000 0.000000 0.076381 0.000000
# 6 0.000000 0.000000 0.000000 0.000000 0.000000 0.050922
#
#
# Mechanical properties :
#
#
# Convention : Reuss Voigt Hill
#
# Bulk Modulus (GPa) = 25.97099 41.14592 33.55845
# Shear Modulus (GPa) = -11.87480 19.10997 3.61759
#
# Velocity S-wave (km/s) = -2.44329 3.09951 1.34857
# Velocity P-wave (km/s) = 2.25755 5.78741 4.39264
#
# Compressibility (1/GPa) = 0.03850451
#
# Stress axis : x y z
#
# Youngs Moduli (GPa) = 120.18394 27.93875 75.06004
#
# Poissons Ratio (x) = 0.10101 0.20146
# Poissons Ratio (y) = 0.43452 0.23766
# Poissons Ratio (z) = 0.32257 0.08846
#
# Static dielectric constant tensor:
#      x y z
#    x 1.762110 0.000000 0.000000 
#    y 0.000000 1.685800 0.000000 
#    z 0.000000 0.000000 1.714940 
# 
# From -- ./inp_files/40362.got.cif
#   From: 2010.05.17/outbox.cif.g08.bks.cpg/sg65_21_cif.got.tgz:40362.got - 2010.06.03 17:01:31.
