data_PCOD9483244
_publ_section_title
;
Structure prediction by ZEFSAII (Michael W. Deem and Ramdas Pophale) SiO2 
 PCOD9483244
Probable space group: C M M M
;
_chemical_formula_sum "Si O2"
_cell_formula_units_Z 96
_cell_length_a 12.843057
_cell_length_b 14.688396
_cell_length_c 19.204980
_cell_angle_alpha 90.000000
_cell_angle_beta 90.000000
_cell_angle_gamma 90.000000
_cell_volume 3622.902462
_symmetry_space_group_name_H-M "C M M M"
_symmetry_group_IT_number 65
_symmetry_cell_setting 'orthorhombic'
loop_
_space_group_symop_operation_xyz
x,y,z
-x,-y,z
x,-y,-z
-x,y,-z
-x,-y,-z
x,y,-z
-x,y,z
x,-y,z
1/2+x,1/2+y,z
1/2-x,1/2-y,z
1/2+x,1/2-y,-z
1/2-x,1/2+y,-z
1/2-x,1/2-y,-z
1/2+x,1/2+y,-z
1/2-x,1/2+y,z
1/2+x,1/2-y,z
loop_
_atom_site_type_symbol
_atom_site_label
_atom_site_fract_x
_atom_site_fract_y
_atom_site_fract_z
Si Si1 0.649511 0.131010 0.419636
Si Si2 0.619852 0.095434 0.890600
Si Si3 0.845007 0.369411 0.268323
Si Si4 0.110886 0.848526 0.420922
Si Si5 0.620333 0.656626 0.769078
Si Si6 0.126434 0.202536 0.924042
O O1 0.622812 0.101164 0.500000
O O2 0.610965 0.100148 0.343099
O O3 0.772763 0.117445 0.408913
O O4 0.622709 0.238637 0.419504
O O5 0.500000 0.094159 0.914374
O O6 0.616817 0.096233 0.806337
O O7 0.662919 0.191905 0.916621
O O8 0.669993 0.000000 0.912979
O O9 0.720218 0.388334 0.266499
O O10 0.869673 0.260804 0.259324
O O11 0.097780 0.876474 0.500000
O O12 0.000000 0.872396 0.385109
O O13 0.500000 0.627089 0.762593
O O14 0.648413 0.653943 0.851004
O O15 0.000000 0.208035 0.922282
O O16 0.152072 0.164470 0.000000
#
# Coordination Sequence:
#
# PCOD9483244 Si02
#       6
#    16  16  16  16  16  16
#     4   9  17  25  34  53  78 105 141 178 211 251
#     4   9  18  32  48  64  83 111 147 184 221 259
#     4  10  18  28  43  62  86 117 147 177 217 263
#     4   8  13  21  32  48  74 104 130 160 200 246
#     4   9  17  28  42  64  93 120 143 169 210 262
#     4   8  14  26  45  68  93 119 145 174 209 251
#
# _framework density 26.498092
#
# number of rings (size 3 to 8) (size 9 to 14) (size 15 to 20)
#    0.000    3.167    0.000    4.500    0.000    3.667 
#    0.000    8.333    0.000    1.000    0.000    1.167 
#    0.000    0.000    0.000   23.333    0.000    1.500 
#
# Total GULP energy -267368.277873 kJ/mol
# GULP energy per Si atom -5570.172456 kJ/mol
# Density = 2.643778 g / cm^3
# Si number density = 26.498092 Si / 1000 Ang^3
#
#
#
# Elastic Constant Matrix: (Units=GPa)
#
#
# Indices 1 2 3 4 5 6 
#
# 1 195.9375 -15.5603 21.1739 0.0000 0.0000 0.0000
# 2 -15.5603 64.4846 2.3379 0.0000 0.0000 0.0000
# 3 21.1739 2.3379 262.0422 0.0000 0.0000 0.0000
# 4 0.0000 0.0000 0.0000 -22.9058 0.0000 0.0000
# 5 0.0000 0.0000 0.0000 0.0000 -59.2906 0.0000
# 6 0.0000 0.0000 0.0000 0.0000 0.0000 4.9090
#
#
#
# Elastic Compliance Matrix: (Units=1/GPa)
#
#
# Indices 1 2 3 4 5 6 
#
# 1 0.005253 0.001283 -0.000436 0.000000 0.000000 0.000000
# 2 0.001283 0.015826 -0.000245 0.000000 0.000000 0.000000
# 3 -0.000436 -0.000245 0.003854 0.000000 0.000000 0.000000
# 4 0.000000 0.000000 0.000000 -0.043657 0.000000 0.000000
# 5 0.000000 0.000000 0.000000 0.000000 -0.016866 0.000000
# 6 0.000000 0.000000 0.000000 0.000000 0.000000 0.203707
#
#
# Mechanical properties :
#
#
# Convention : Reuss Voigt Hill
#
# Bulk Modulus (GPa) = 38.25934 59.81857 49.03896
# Shear Modulus (GPa) = 28.46992 18.84338 23.65665
#
# Velocity S-wave (km/s) = 3.28138 2.66958 2.99116
# Velocity P-wave (km/s) = 5.36903 5.66797 5.52052
#
# Compressibility (1/GPa) = 0.02613741
#
# Stress axis : x y z
#
# Youngs Moduli (GPa) = 190.37890 63.18673 259.49859
#
# Poissons Ratio (x) = -0.08109 0.11311
# Poissons Ratio (y) = -0.24431 0.06355
# Poissons Ratio (z) = 0.08298 0.01547
#
# Static dielectric constant tensor:
#      x y z
#    x 2.077800 0.000000 0.000000 
#    y 0.000000 2.025480 0.000000 
#    z 0.000000 0.000000 2.043400 
# 
# From -- ./inp_files/62947.got.cif
#   From: 2010.05.17/outbox.cif.g08.bks.cpg/sg65_32_cif.got.tgz:62947.got - 2010.06.03 17:01:31.
