data_PCOD9483273
_publ_section_title
;
Structure prediction by ZEFSAII (Michael W. Deem and Ramdas Pophale) SiO2 
 PCOD9483273
Probable space group: C M M M
;
_chemical_formula_sum "Si O2"
_cell_formula_units_Z 72
_cell_length_a 14.794253
_cell_length_b 36.125688
_cell_length_c 9.514349
_cell_angle_alpha 90.000000
_cell_angle_beta 90.000000
_cell_angle_gamma 90.000000
_cell_volume 5084.968257
_symmetry_space_group_name_H-M "C M M M"
_symmetry_group_IT_number 65
_symmetry_cell_setting 'orthorhombic'
loop_
_space_group_symop_operation_xyz
x,y,z
-x,-y,z
x,-y,-z
-x,y,-z
-x,-y,-z
x,y,-z
-x,y,z
x,-y,z
1/2+x,1/2+y,z
1/2-x,1/2-y,z
1/2+x,1/2-y,-z
1/2-x,1/2+y,-z
1/2-x,1/2-y,-z
1/2+x,1/2+y,-z
1/2-x,1/2+y,z
1/2+x,1/2-y,z
loop_
_atom_site_type_symbol
_atom_site_label
_atom_site_fract_x
_atom_site_fract_y
_atom_site_fract_z
Si Si1 0.609679 0.000000 0.161659
Si Si2 0.200717 0.789063 0.830672
Si Si3 0.000000 0.231030 0.168311
Si Si4 0.313921 0.151492 0.663258
Si Si5 0.107406 0.573269 0.331764
Si Si6 0.500000 0.803836 0.656497
O O1 0.635488 0.037013 0.245711
O O2 0.500000 0.000000 0.160003
O O3 0.640658 0.000000 0.000000
O O4 0.250000 0.750000 0.791814
O O5 0.248813 0.823633 0.757501
O O6 0.095158 0.787070 0.789253
O O7 0.207340 0.792158 0.000000
O O8 0.000000 0.272235 0.228618
O O9 0.000000 0.232525 0.000000
O O10 0.284102 0.151895 0.500000
O O11 0.333445 0.109185 0.705900
O O12 0.411559 0.171223 0.668343
O O13 0.115131 0.567172 0.500000
O O14 0.000000 0.580422 0.304756
O O15 0.500000 0.786642 0.500000
#
# Coordination Sequence:
#
# PCOD9483273 Si02
#       6
#     8  16   8  16  16   8
#     4   9  17  27  39  61  89 116 147 180 213 251
#     4  10  20  32  46  63  85 115 150 186 226 267
#     4  10  20  34  46  60  85 116 149 186 227 272
#     4  10  19  30  45  66  89 114 150 189 222 259
#     4   9  16  28  44  61  85 118 149 177 214 260
#     4  10  18  28  44  65  87 112 146 189 226 256
#
# _framework density 14.159380000000001
#
# number of rings (size 3 to 8) (size 9 to 14) (size 15 to 20)
#    0.000    2.333    3.333    0.333    0.000    3.556 
#    0.000    0.000    0.000    0.000    0.000    0.000 
#    0.000    0.889    0.000   10.000    0.000    4.444 
#
# Total GULP energy -200554.800408 kJ/mol
# GULP energy per Si atom -5570.966678 kJ/mol
# Density = 1.412715 g / cm^3
# Si number density = 14.159380 Si / 1000 Ang^3
#
#
#
# Elastic Constant Matrix: (Units=GPa)
#
#
# Indices 1 2 3 4 5 6 
#
# 1 77.4567 47.8740 32.8272 0.0000 0.0000 0.0000
# 2 47.8740 131.7277 55.4882 0.0000 0.0000 0.0000
# 3 32.8272 55.4882 32.8587 0.0000 0.0000 0.0000
# 4 0.0000 0.0000 0.0000 -1.3949 0.0000 0.0000
# 5 0.0000 0.0000 0.0000 0.0000 10.8325 0.0000
# 6 0.0000 0.0000 0.0000 0.0000 0.0000 10.1585
#
#
#
# Elastic Compliance Matrix: (Units=1/GPa)
#
#
# Indices 1 2 3 4 5 6 
#
# 1 0.023171 0.004607 -0.030929 0.000000 0.000000 0.000000
# 2 0.004607 0.027214 -0.050559 0.000000 0.000000 0.000000
# 3 -0.030929 -0.050559 0.146711 0.000000 0.000000 0.000000
# 4 0.000000 0.000000 0.000000 -0.716890 0.000000 0.000000
# 5 0.000000 0.000000 0.000000 0.000000 0.092315 0.000000
# 6 0.000000 0.000000 0.000000 0.000000 0.000000 0.098440
#
#
# Mechanical properties :
#
#
# Convention : Reuss Voigt Hill
#
# Bulk Modulus (GPa) = 23.07617 57.15800 40.11709
# Shear Modulus (GPa) = -31.08825 10.97614 -10.05606
#
# Velocity S-wave (km/s) = -4.69080 2.78723 -2.66786
# Velocity P-wave (km/s) = 3.60629 7.12836 4.34788
#
# Compressibility (1/GPa) = 0.04333474
#
# Stress axis : x y z
#
# Youngs Moduli (GPa) = 43.15767 36.74542 6.81611
#
# Poissons Ratio (x) = -0.16929 0.21081
# Poissons Ratio (y) = -0.19884 0.34462
# Poissons Ratio (z) = 1.33481 1.85782
#
# Static dielectric constant tensor:
#      x y z
#    x 1.461020 0.000000 0.000000 
#    y 0.000000 1.452220 0.000000 
#    z 0.000000 0.000000 1.475240 
# 
# From -- ./inp_files/7762.got.cif
#   From: 2010.05.17/outbox.cif.g08.bks.cpg/sg65_4_cif.got.tgz:7762.got - 2010.06.03 17:01:31.
