data_PCOD9483764
_publ_section_title
;
Structure prediction by ZEFSAII (Michael W. Deem and Ramdas Pophale) SiO2 
 PCOD9483764
Probable space group: C M M M
;
_chemical_formula_sum "Si O2"
_cell_formula_units_Z 104
_cell_length_a 20.953721
_cell_length_b 29.821133
_cell_length_c 7.310030
_cell_angle_alpha 90.000000
_cell_angle_beta 90.000000
_cell_angle_gamma 90.000000
_cell_volume 4567.772399
_symmetry_space_group_name_H-M "C M M M"
_symmetry_group_IT_number 65
_symmetry_cell_setting 'orthorhombic'
loop_
_space_group_symop_operation_xyz
x,y,z
-x,-y,z
x,-y,-z
-x,y,-z
-x,-y,-z
x,y,-z
-x,y,z
x,-y,z
1/2+x,1/2+y,z
1/2-x,1/2-y,z
1/2+x,1/2-y,-z
1/2-x,1/2+y,-z
1/2-x,1/2-y,-z
1/2+x,1/2+y,-z
1/2-x,1/2+y,z
1/2+x,1/2-y,z
loop_
_atom_site_type_symbol
_atom_site_label
_atom_site_fract_x
_atom_site_fract_y
_atom_site_fract_z
Si Si1 0.367079 0.813138 0.706646
Si Si2 0.182589 0.773856 0.292826
Si Si3 0.860627 0.588435 0.276094
Si Si4 0.275985 0.550407 0.277041
Si Si5 0.500000 0.217825 0.215887
Si Si6 0.500000 0.052440 0.721874
Si Si7 0.500000 0.673599 0.718956
Si Si8 0.363272 0.633001 0.277699
O O1 0.338511 0.812291 0.500000
O O2 0.354569 0.765794 0.803980
O O3 0.348486 0.860516 0.785802
O O4 0.441831 0.808753 0.696586
O O5 0.155468 0.778042 0.500000
O O6 0.250000 0.750000 0.301072
O O7 0.179769 0.823899 0.223004
O O8 0.862204 0.588437 0.500000
O O9 0.797515 0.560802 0.222831
O O10 0.931484 0.572776 0.217647
O O11 0.275928 0.551799 0.500000
O O12 0.293351 0.500000 0.221543
O O13 0.327125 0.588039 0.215697
O O14 0.500000 0.272452 0.242499
O O15 0.500000 0.210243 0.000000
O O16 0.500000 0.055755 0.500000
O O17 0.500000 0.000000 0.769862
O O18 0.500000 0.670763 0.500000
O O19 0.565069 0.648203 0.780848
O O20 0.365110 0.629247 0.500000
#
# Coordination Sequence:
#
# PCOD9483764 Si02
#       8
#    16  16  16  16   8   8   8  16
#     4  10  18  30  48  69  96 129 166 202 235 282
#     4   9  15  23  40  67  92 117 157 204 239 278
#     4   9  16  25  40  64  93 128 167 197 233 289
#     4   9  16  26  40  65 104 137 156 194 257 306
#     4  12  23  33  47  70 101 133 166 201 252 306
#     4   9  15  22  32  51  85 126 160 192 234 285
#     4  10  18  33  52  70  93 129 172 211 246 290
#     4   9  16  26  42  64  90 126 170 201 237 294
#
# _framework density 22.76821
#
# number of rings (size 3 to 8) (size 9 to 14) (size 15 to 20)
#    0.000    2.538    1.538    2.538    0.000    6.769 
#    0.000    0.385    0.000    2.769    0.000    0.000 
#    0.000   13.538    0.000    0.000    0.000    0.000 
#
# Total GULP energy -289690.359731 kJ/mol
# GULP energy per Si atom -5570.968456 kJ/mol
# Density = 2.271639 g / cm^3
# Si number density = 22.768210 Si / 1000 Ang^3
#
#
#
# Elastic Constant Matrix: (Units=GPa)
#
#
# Indices 1 2 3 4 5 6 
#
# 1 97.8153 59.4012 0.1517 0.0000 0.0000 0.0000
# 2 59.4012 204.6080 3.5767 0.0000 0.0000 0.0000
# 3 0.1517 3.5767 100.4932 0.0000 0.0000 0.0000
# 4 0.0000 0.0000 0.0000 -30.0704 0.0000 0.0000
# 5 0.0000 0.0000 0.0000 0.0000 125.4120 0.0000
# 6 0.0000 0.0000 0.0000 0.0000 0.0000 38.7797
#
#
#
# Elastic Compliance Matrix: (Units=1/GPa)
#
#
# Indices 1 2 3 4 5 6 
#
# 1 0.012413 -0.003606 0.000110 0.000000 0.000000 0.000000
# 2 -0.003606 0.005938 -0.000206 0.000000 0.000000 0.000000
# 3 0.000110 -0.000206 0.009958 0.000000 0.000000 0.000000
# 4 0.000000 0.000000 0.000000 -0.033255 0.000000 0.000000
# 5 0.000000 0.000000 0.000000 0.000000 0.007974 0.000000
# 6 0.000000 0.000000 0.000000 0.000000 0.000000 0.025787
#
#
# Mechanical properties :
#
#
# Convention : Reuss Voigt Hill
#
# Bulk Modulus (GPa) = 47.83571 58.79730 53.31651
# Shear Modulus (GPa) = 115.77901 49.47671 82.62786
#
# Velocity S-wave (km/s) = 7.13874 4.66667 6.03073
# Velocity P-wave (km/s) = 9.43421 7.41063 8.48297
#
# Compressibility (1/GPa) = 0.02090488
#
# Stress axis : x y z
#
# Youngs Moduli (GPa) = 80.56223 168.41401 100.42096
#
# Poissons Ratio (x) = 0.60723 -0.01101
# Poissons Ratio (y) = 0.29047 0.02068
# Poissons Ratio (z) = -0.00883 0.03467
#
# Static dielectric constant tensor:
#      x y z
#    x 1.738380 0.000000 0.000000 
#    y 0.000000 1.888710 0.000000 
#    z 0.000000 0.000000 1.896540 
# 
# From -- ./inp_files/12883.got.cif
#   From: 2010.05.17/outbox.cif.g08.bks.cpg/sg65_7_cif.got.tgz:12883.got - 2010.06.03 17:01:31.
