data_PCOD9483476
_publ_section_title
;
Structure prediction by ZEFSAII (Michael W. Deem and Ramdas Pophale) SiO2 
 PCOD9483476
Probable space group: C M M M
;
_chemical_formula_sum "Si O2"
_cell_formula_units_Z 112
_cell_length_a 24.873119
_cell_length_b 16.300244
_cell_length_c 15.151091
_cell_angle_alpha 90.000000
_cell_angle_beta 90.000000
_cell_angle_gamma 90.000000
_cell_volume 6142.826650
_symmetry_space_group_name_H-M "C M M M"
_symmetry_group_IT_number 65
_symmetry_cell_setting 'orthorhombic'
loop_
_space_group_symop_operation_xyz
x,y,z
-x,-y,z
x,-y,-z
-x,y,-z
-x,-y,-z
x,y,-z
-x,y,z
x,-y,z
1/2+x,1/2+y,z
1/2-x,1/2-y,z
1/2+x,1/2-y,-z
1/2-x,1/2+y,-z
1/2-x,1/2-y,-z
1/2+x,1/2+y,-z
1/2-x,1/2+y,z
1/2+x,1/2-y,z
loop_
_atom_site_type_symbol
_atom_site_label
_atom_site_fract_x
_atom_site_fract_y
_atom_site_fract_z
Si Si1 0.390803 0.406876 0.894568
Si Si2 0.639978 0.097422 0.597896
Si Si3 0.060574 0.403966 0.751349
Si Si4 0.790948 0.325817 0.903528
Si Si5 0.414707 0.773077 0.897704
Si Si6 0.738731 0.345768 0.403728
Si Si7 0.714500 0.593375 0.774346
O O1 0.412425 0.500000 0.876806
O O2 0.423399 0.323165 0.873296
O O3 0.334623 0.399797 0.842558
O O4 0.380872 0.402503 0.000000
O O5 0.626598 0.131512 0.500000
O O6 0.603133 0.126388 0.678321
O O7 0.703144 0.112900 0.611435
O O8 0.631113 0.000000 0.594824
O O9 0.072629 0.500000 0.775779
O O10 0.061783 0.341791 0.833473
O O11 0.000000 0.403729 0.714216
O O12 0.750000 0.250000 0.904718
O O13 0.850510 0.290795 0.893280
O O14 0.768870 0.380002 0.824058
O O15 0.787721 0.367716 0.000000
O O16 0.431251 0.783792 0.000000
O O17 0.717799 0.373791 0.500000
O O18 0.750000 0.250000 0.409335
O O19 0.704341 0.358835 0.316108
O O20 0.719743 0.500000 0.747300
#
# Coordination Sequence:
#
# PCOD9483476 Si02
#       7
#    16  16  16  16  16  16  16
#     4   9  18  32  49  73 102 132 171 215 255 296
#     4   9  18  34  55  76 100 133 173 215 258 305
#     4  10  22  38  55  78 105 132 169 219 272 322
#     4  10  18  29  45  69 100 131 166 207 248 296
#     4  10  20  33  52  73 100 141 176 208 256 310
#     4  10  21  33  46  69 102 139 173 205 245 299
#     4  11  20  28  44  67  95 135 173 209 250 289
#
# _framework density 18.232648999999999
#
# number of rings (size 3 to 8) (size 9 to 14) (size 15 to 20)
#    0.000    2.143    1.429    2.143    2.000    4.286 
#    0.000    3.571    0.000    0.429    0.000    2.000 
#    0.000    0.000    0.000    1.286    0.000    0.143 
#
# Total GULP energy -311975.921803 kJ/mol
# GULP energy per Si atom -5570.998604 kJ/mol
# Density = 1.819115 g / cm^3
# Si number density = 18.232649 Si / 1000 Ang^3
#
#
#
# Elastic Constant Matrix: (Units=GPa)
#
#
# Indices 1 2 3 4 5 6 
#
# 1 26.2428 -4.4857 0.8421 0.0000 0.0000 0.0000
# 2 -4.4857 69.9854 33.1261 0.0000 0.0000 0.0000
# 3 0.8421 33.1261 72.0456 0.0000 0.0000 0.0000
# 4 0.0000 0.0000 0.0000 18.9962 0.0000 0.0000
# 5 0.0000 0.0000 0.0000 0.0000 -1.2682 0.0000
# 6 0.0000 0.0000 0.0000 0.0000 0.0000 14.4919
#
#
#
# Elastic Compliance Matrix: (Units=1/GPa)
#
#
# Indices 1 2 3 4 5 6 
#
# 1 0.038761 0.003450 -0.002039 0.000000 0.000000 0.000000
# 2 0.003450 0.018570 -0.008579 0.000000 0.000000 0.000000
# 3 -0.002039 -0.008579 0.017848 0.000000 0.000000 0.000000
# 4 0.000000 0.000000 0.000000 0.052642 0.000000 0.000000
# 5 0.000000 0.000000 0.000000 0.000000 -0.788505 0.000000
# 6 0.000000 0.000000 0.000000 0.000000 0.000000 0.069004
#
#
# Mechanical properties :
#
#
# Convention : Reuss Voigt Hill
#
# Bulk Modulus (GPa) = 16.43581 25.24875 20.84228
# Shear Modulus (GPa) = -8.97567 15.69673 3.36053
#
# Velocity S-wave (km/s) = -2.22116 2.93732 1.35910
# Velocity P-wave (km/s) = 1.56717 5.03805 3.73081
#
# Compressibility (1/GPa) = 0.06084276
#
# Stress axis : x y z
#
# Youngs Moduli (GPa) = 25.79926 53.84908 56.02733
#
# Poissons Ratio (x) = -0.18576 0.11425
# Poissons Ratio (y) = -0.08900 0.48065
# Poissons Ratio (z) = 0.05261 0.46196
#
# Static dielectric constant tensor:
#      x y z
#    x 1.633400 0.000000 0.000000 
#    y 0.000000 1.659470 0.000000 
#    z 0.000000 0.000000 1.679740 
# 
# From -- ./inp_files/40822.got.cif
#   From: 2010.05.17/outbox.cif.g08.bks.cpg/sg65_21_cif.got.tgz:40822.got - 2010.06.03 17:01:31.
