data_PCOD9483589
_publ_section_title
;
Structure prediction by ZEFSAII (Michael W. Deem and Ramdas Pophale) SiO2 
 PCOD9483589
Probable space group: C M M M
;
_chemical_formula_sum "Si O2"
_cell_formula_units_Z 112
_cell_length_a 26.018632
_cell_length_b 15.879548
_cell_length_c 14.802874
_cell_angle_alpha 90.000000
_cell_angle_beta 90.000000
_cell_angle_gamma 90.000000
_cell_volume 6116.016347
_symmetry_space_group_name_H-M "C M M M"
_symmetry_group_IT_number 65
_symmetry_cell_setting 'orthorhombic'
loop_
_space_group_symop_operation_xyz
x,y,z
-x,-y,z
x,-y,-z
-x,y,-z
-x,-y,-z
x,y,-z
-x,y,z
x,-y,z
1/2+x,1/2+y,z
1/2-x,1/2-y,z
1/2+x,1/2-y,-z
1/2-x,1/2+y,-z
1/2-x,1/2-y,-z
1/2+x,1/2+y,-z
1/2-x,1/2+y,z
1/2+x,1/2-y,z
loop_
_atom_site_type_symbol
_atom_site_label
_atom_site_fract_x
_atom_site_fract_y
_atom_site_fract_z
Si Si1 0.288137 0.830147 0.395280
Si Si2 0.059451 0.362581 0.103063
Si Si3 0.746023 0.897403 0.897219
Si Si4 0.057600 0.159334 0.103156
Si Si5 0.345674 0.601441 0.787757
Si Si6 0.152796 0.599390 0.766535
Si Si7 0.683627 0.403720 0.401697
O O1 0.305158 0.827976 0.500000
O O2 0.250000 0.750000 0.378936
O O3 0.332797 0.847865 0.323358
O O4 0.244949 0.902961 0.386304
O O5 0.059560 0.260807 0.103132
O O6 0.098804 0.389727 0.181064
O O7 0.000000 0.389392 0.117477
O O8 0.074510 0.389422 0.000000
O O9 0.797482 0.867702 0.846882
O O10 0.696432 0.874680 0.839009
O O11 0.747544 0.000000 0.899800
O O12 0.743512 0.867227 0.000000
O O13 0.101445 0.124496 0.166273
O O14 0.000000 0.133703 0.129848
O O15 0.066488 0.131058 0.000000
O O16 0.340760 0.500000 0.783511
O O17 0.341801 0.635825 0.686081
O O18 0.158672 0.500000 0.745795
O O19 0.673975 0.364073 0.500000
O O20 0.666189 0.500000 0.406516
#
# Coordination Sequence:
#
# PCOD9483589 Si02
#       7
#    16  16  16  16  16  16  16
#     4  10  21  35  52  78 110 143 176 211 254 313
#     4   9  20  38  56  75 103 142 184 225 273 327
#     4   9  17  28  42  68 105 134 158 198 254 311
#     4   9  19  35  52  71  99 138 181 220 261 313
#     4  10  18  29  48  74 102 136 174 214 263 316
#     4  11  21  33  54  82 107 136 175 222 271 315
#     4   9  17  31  50  71 100 136 171 208 252 305
#
# _framework density 18.312573
#
# number of rings (size 3 to 8) (size 9 to 14) (size 15 to 20)
#    0.000    2.429    1.429    2.143    2.000    3.143 
#    0.000    1.429    0.000    4.286    0.000    5.000 
#    0.000    0.000    0.000    0.000    0.000    0.000 
#
# Total GULP energy -312173.104654 kJ/mol
# GULP energy per Si atom -5574.519726 kJ/mol
# Density = 1.827089 g / cm^3
# Si number density = 18.312573 Si / 1000 Ang^3
#
#
#
# Elastic Constant Matrix: (Units=GPa)
#
#
# Indices 1 2 3 4 5 6 
#
# 1 107.6586 14.0571 86.2056 0.0000 0.0000 0.0000
# 2 14.0571 30.0277 30.1162 0.0000 0.0000 0.0000
# 3 86.2056 30.1162 151.7929 0.0000 0.0000 0.0000
# 4 0.0000 0.0000 0.0000 14.0924 0.0000 0.0000
# 5 0.0000 0.0000 0.0000 0.0000 23.7938 0.0000
# 6 0.0000 0.0000 0.0000 0.0000 0.0000 23.3521
#
#
#
# Elastic Compliance Matrix: (Units=1/GPa)
#
#
# Indices 1 2 3 4 5 6 
#
# 1 0.017148 0.002172 -0.010170 0.000000 0.000000 0.000000
# 2 0.002172 0.041851 -0.009537 0.000000 0.000000 0.000000
# 3 -0.010170 -0.009537 0.014256 0.000000 0.000000 0.000000
# 4 0.000000 0.000000 0.000000 0.070960 0.000000 0.000000
# 5 0.000000 0.000000 0.000000 0.000000 0.042028 0.000000
# 6 0.000000 0.000000 0.000000 0.000000 0.000000 0.042823
#
#
# Mechanical properties :
#
#
# Convention : Reuss Voigt Hill
#
# Bulk Modulus (GPa) = 26.18796 61.13745 43.66271
# Shear Modulus (GPa) = 18.05948 22.85433 20.45690
#
# Velocity S-wave (km/s) = 3.14376 3.53656 3.34592
# Velocity P-wave (km/s) = 5.24492 7.08056 6.23071
#
# Compressibility (1/GPa) = 0.03818548
#
# Stress axis : x y z
#
# Youngs Moduli (GPa) = 58.31515 23.89442 70.14798
#
# Poissons Ratio (x) = -0.05190 0.71338
# Poissons Ratio (y) = -0.12666 0.66899
# Poissons Ratio (z) = 0.59305 0.22788
#
# Static dielectric constant tensor:
#      x y z
#    x 1.594350 0.000000 0.000000 
#    y 0.000000 1.704570 0.000000 
#    z 0.000000 0.000000 1.654550 
# 
# From -- ./inp_files/47028.got.cif
#   From: 2010.05.17/outbox.cif.g08.bks.cpg/sg65_24_cif.got.tgz:47028.got - 2010.06.03 17:01:31.
