data_PCOD9483384
_publ_section_title
;
Structure prediction by ZEFSAII (Michael W. Deem and Ramdas Pophale) SiO2 
 PCOD9483384
Probable space group: C M M M
;
_chemical_formula_sum "Si O2"
_cell_formula_units_Z 72
_cell_length_a 16.245924
_cell_length_b 22.531346
_cell_length_c 9.322922
_cell_angle_alpha 90.000000
_cell_angle_beta 90.000000
_cell_angle_gamma 90.000000
_cell_volume 3412.586000
_symmetry_space_group_name_H-M "C M M M"
_symmetry_group_IT_number 65
_symmetry_cell_setting 'orthorhombic'
loop_
_space_group_symop_operation_xyz
x,y,z
-x,-y,z
x,-y,-z
-x,y,-z
-x,-y,-z
x,y,-z
-x,y,z
x,-y,z
1/2+x,1/2+y,z
1/2-x,1/2-y,z
1/2+x,1/2-y,-z
1/2-x,1/2+y,-z
1/2-x,1/2-y,-z
1/2+x,1/2+y,-z
1/2-x,1/2+y,z
1/2+x,1/2-y,z
loop_
_atom_site_type_symbol
_atom_site_label
_atom_site_fract_x
_atom_site_fract_y
_atom_site_fract_z
Si Si1 0.677195 0.906928 0.660743
Si Si2 0.000000 0.601743 0.326480
Si Si3 0.000000 0.271049 0.828981
Si Si4 0.339948 0.764942 0.335782
Si Si5 0.000000 0.927183 0.335889
Si Si6 0.840244 0.928876 0.161179
O O1 0.699669 0.926988 0.500000
O O2 0.586556 0.930853 0.699678
O O3 0.661466 0.836289 0.655652
O O4 0.752445 0.918239 0.765404
O O5 0.000000 0.660375 0.227015
O O6 0.000000 0.616760 0.500000
O O7 0.916851 0.245191 0.759040
O O8 0.000000 0.267659 0.000000
O O9 0.346555 0.741940 0.500000
O O10 0.250000 0.750000 0.276695
O O11 0.082703 0.907344 0.255034
O O12 0.000000 0.907418 0.500000
O O13 0.000000 0.000000 0.336535
O O14 0.849912 0.000000 0.152516
O O15 0.842892 0.904477 0.000000
#
# Coordination Sequence:
#
# PCOD9483384 Si02
#       6
#    16   8   8  16   8  16
#     4   9  17  31  52  75  96 123 163 205 240 279
#     4   8  16  32  51  70  95 129 167 200 234 285
#     4  10  18  28  47  74 101 128 160 200 242 287
#     4   9  18  34  54  73  96 129 166 201 239 287
#     4   9  17  31  52  73  92 121 163 204 238 281
#     4  10  20  33  49  71 100 131 160 194 241 293
#
# _framework density 21.098369000000002
#
# number of rings (size 3 to 8) (size 9 to 14) (size 15 to 20)
#    0.000    2.778    0.000    3.333    0.000    6.667 
#    0.000    1.667    0.000    6.000    0.000    0.000 
#    0.000    0.000    0.000    0.000    0.000    0.000 
#
# Total GULP energy -200800.729920 kJ/mol
# GULP energy per Si atom -5577.798053 kJ/mol
# Density = 2.105035 g / cm^3
# Si number density = 21.098369 Si / 1000 Ang^3
#
#
#
# Elastic Constant Matrix: (Units=GPa)
#
#
# Indices 1 2 3 4 5 6 
#
# 1 246.0393 6.3398 132.9779 0.0000 0.0000 0.0000
# 2 6.3398 28.0496 -5.3002 0.0000 0.0000 0.0000
# 3 132.9779 -5.3002 163.0862 0.0000 0.0000 0.0000
# 4 0.0000 0.0000 0.0000 8.3077 0.0000 0.0000
# 5 0.0000 0.0000 0.0000 0.0000 -0.7794 0.0000
# 6 0.0000 0.0000 0.0000 0.0000 0.0000 -94.4840
#
#
#
# Elastic Compliance Matrix: (Units=1/GPa)
#
#
# Indices 1 2 3 4 5 6 
#
# 1 0.007489 -0.002864 -0.006199 0.000000 0.000000 0.000000
# 2 -0.002864 0.036967 0.003537 0.000000 0.000000 0.000000
# 3 -0.006199 0.003537 0.011301 0.000000 0.000000 0.000000
# 4 0.000000 0.000000 0.000000 0.120370 0.000000 0.000000
# 5 0.000000 0.000000 0.000000 0.000000 -1.283040 0.000000
# 6 0.000000 0.000000 0.000000 0.000000 0.000000 -0.010584
#
#
# Mechanical properties :
#
#
# Convention : Reuss Voigt Hill
#
# Bulk Modulus (GPa) = 22.36954 78.35667 50.36310
# Shear Modulus (GPa) = -4.58067 2.81938 -0.88065
#
# Velocity S-wave (km/s) = -1.47506 1.15724 -0.64677
# Velocity P-wave (km/s) = 2.77929 6.24540 4.83370
#
# Compressibility (1/GPa) = 0.04470364
#
# Stress axis : x y z
#
# Youngs Moduli (GPa) = 133.53385 27.05139 88.48418
#
# Poissons Ratio (x) = 0.07748 0.54854
# Poissons Ratio (y) = 0.38244 -0.31294
# Poissons Ratio (z) = 0.82781 -0.09567
#
# Static dielectric constant tensor:
#      x y z
#    x 1.791300 0.000000 0.000000 
#    y 0.000000 1.826400 0.000000 
#    z 0.000000 0.000000 1.727890 
# 
# From -- ./inp_files/7738.got.cif
#   From: 2010.05.17/outbox.cif.g08.bks.cpg/sg65_4_cif.got.tgz:7738.got - 2010.06.03 17:01:31.
