data_PCOD9483463
_publ_section_title
;
Structure prediction by ZEFSAII (Michael W. Deem and Ramdas Pophale) SiO2 
 PCOD9483463
Probable space group: C M M M
;
_chemical_formula_sum "Si O2"
_cell_formula_units_Z 104
_cell_length_a 16.916614
_cell_length_b 26.707182
_cell_length_c 14.093334
_cell_angle_alpha 90.000000
_cell_angle_beta 90.000000
_cell_angle_gamma 90.000000
_cell_volume 6367.299088
_symmetry_space_group_name_H-M "C M M M"
_symmetry_group_IT_number 65
_symmetry_cell_setting 'orthorhombic'
loop_
_space_group_symop_operation_xyz
x,y,z
-x,-y,z
x,-y,-z
-x,y,-z
-x,-y,-z
x,y,-z
-x,y,z
x,-y,z
1/2+x,1/2+y,z
1/2-x,1/2-y,z
1/2+x,1/2-y,-z
1/2-x,1/2+y,-z
1/2-x,1/2-y,-z
1/2+x,1/2+y,-z
1/2-x,1/2+y,z
1/2+x,1/2-y,z
loop_
_atom_site_type_symbol
_atom_site_label
_atom_site_fract_x
_atom_site_fract_y
_atom_site_fract_z
Si Si1 0.000000 0.059628 0.394143
Si Si2 0.405384 0.251158 0.889359
Si Si3 0.913527 0.803187 0.612767
Si Si4 0.344699 0.559197 0.731566
Si Si5 0.242875 0.130259 0.613185
Si Si6 0.405507 0.367264 0.887407
Si Si7 0.829398 0.716544 0.712569
O O1 0.078512 0.068920 0.334577
O O2 0.000000 0.083255 0.500000
O O3 0.000000 0.000000 0.407085
O O4 0.500000 0.245142 0.879601
O O5 0.387186 0.309245 0.862007
O O6 0.358154 0.214449 0.820719
O O7 0.385671 0.245009 0.000000
O O8 0.915527 0.796559 0.500000
O O9 0.839497 0.839344 0.630377
O O10 0.894902 0.749974 0.659713
O O11 0.000000 0.821902 0.644912
O O12 0.340985 0.500000 0.752181
O O13 0.270915 0.579133 0.670190
O O14 0.358093 0.593334 0.824204
O O15 0.252621 0.124299 0.500000
O O16 0.309710 0.165190 0.659596
O O17 0.500000 0.374507 0.873153
O O18 0.390806 0.372999 0.000000
O O19 0.750000 0.750000 0.708838
#
# Coordination Sequence:
#
# PCOD9483463 Si02
#       7
#     8  16  16  16  16  16  16
#     4   9  18  30  43  61  83 109 150 206 253 283
#     4   9  18  32  51  74  98 126 158 192 233 284
#     4   9  17  28  44  65  88 117 152 190 234 283
#     4  11  21  32  46  64  87 122 166 210 250 283
#     4  10  21  33  45  64  93 127 162 198 242 294
#     4   9  17  30  47  68  94 122 155 196 240 285
#     4  10  18  29  45  65  92 125 155 190 231 281
#
# _framework density 16.333456000000002
#
# number of rings (size 3 to 8) (size 9 to 14) (size 15 to 20)
#    0.000    2.385    0.769    4.154    1.077    4.615 
#    0.000    1.538    0.000    0.000    0.000    0.000 
#    0.000    2.462    0.000    9.231    0.000    0.154 
#
# Total GULP energy -290043.912565 kJ/mol
# GULP energy per Si atom -5577.767549 kJ/mol
# Density = 1.629628 g / cm^3
# Si number density = 16.333456 Si / 1000 Ang^3
#
#
#
# Elastic Constant Matrix: (Units=GPa)
#
#
# Indices 1 2 3 4 5 6 
#
# 1 22.5168 20.4821 19.0869 0.0000 0.0000 0.0000
# 2 20.4821 58.3961 44.3701 0.0000 0.0000 0.0000
# 3 19.0869 44.3701 89.8941 0.0000 0.0000 0.0000
# 4 0.0000 0.0000 0.0000 21.1149 0.0000 0.0000
# 5 0.0000 0.0000 0.0000 0.0000 20.9764 0.0000
# 6 0.0000 0.0000 0.0000 0.0000 0.0000 19.8733
#
#
#
# Elastic Compliance Matrix: (Units=1/GPa)
#
#
# Indices 1 2 3 4 5 6 
#
# 1 0.066174 -0.020056 -0.004151 0.000000 0.000000 0.000000
# 2 -0.020056 0.033479 -0.012266 0.000000 0.000000 0.000000
# 3 -0.004151 -0.012266 0.018060 0.000000 0.000000 0.000000
# 4 0.000000 0.000000 0.000000 0.047360 0.000000 0.000000
# 5 0.000000 0.000000 0.000000 0.000000 0.047673 0.000000
# 6 0.000000 0.000000 0.000000 0.000000 0.000000 0.050319
#
#
# Mechanical properties :
#
#
# Convention : Reuss Voigt Hill
#
# Bulk Modulus (GPa) = 22.33833 37.63169 29.98501
# Shear Modulus (GPa) = 14.24773 18.18410 16.21592
#
# Velocity S-wave (km/s) = 2.95668 3.34024 3.15430
# Velocity P-wave (km/s) = 5.03608 6.16165 5.62708
#
# Compressibility (1/GPa) = 0.04476610
#
# Stress axis : x y z
#
# Youngs Moduli (GPa) = 15.11170 29.86947 55.37093
#
# Poissons Ratio (x) = 0.59906 0.22986
# Poissons Ratio (y) = 0.30308 0.67919
# Poissons Ratio (z) = 0.06273 0.36639
#
# Static dielectric constant tensor:
#      x y z
#    x 1.551100 0.000000 0.000000 
#    y 0.000000 1.556630 0.000000 
#    z 0.000000 0.000000 1.584980 
# 
# From -- ./inp_files/43090.got.cif
#   From: 2010.05.17/outbox.cif.g08.bks.cpg/sg65_22_cif.got.tgz:43090.got - 2010.06.03 17:01:31.
