data_PCOD9483109
_publ_section_title
;
Structure prediction by ZEFSAII (Michael W. Deem and Ramdas Pophale) SiO2 
 PCOD9483109
Probable space group: C M M M
;
_chemical_formula_sum "Si O2"
_cell_formula_units_Z 96
_cell_length_a 7.317764
_cell_length_b 30.532678
_cell_length_c 19.943389
_cell_angle_alpha 90.000000
_cell_angle_beta 90.000000
_cell_angle_gamma 90.000000
_cell_volume 4455.969989
_symmetry_space_group_name_H-M "C M M M"
_symmetry_group_IT_number 65
_symmetry_cell_setting 'orthorhombic'
loop_
_space_group_symop_operation_xyz
x,y,z
-x,-y,z
x,-y,-z
-x,y,-z
-x,-y,-z
x,y,-z
-x,y,z
x,-y,z
1/2+x,1/2+y,z
1/2-x,1/2-y,z
1/2+x,1/2-y,-z
1/2-x,1/2+y,-z
1/2-x,1/2-y,-z
1/2+x,1/2+y,-z
1/2-x,1/2+y,z
1/2+x,1/2-y,z
loop_
_atom_site_type_symbol
_atom_site_label
_atom_site_fract_x
_atom_site_fract_y
_atom_site_fract_z
Si Si1 0.279210 0.681952 0.429210
Si Si2 0.276973 0.630801 0.811908
Si Si3 0.783364 0.203825 0.711632
Si Si4 0.777400 0.049648 0.275875
Si Si5 0.781530 0.199398 0.076388
Si Si6 0.720414 0.577997 0.425468
O O1 0.208621 0.698549 0.500000
O O2 0.500000 0.686089 0.430026
O O3 0.205885 0.704034 0.362886
O O4 0.242548 0.630031 0.424379
O O5 0.500000 0.629315 0.815688
O O6 0.216324 0.663126 0.752715
O O7 0.219895 0.583485 0.782797
O O8 0.217090 0.658612 0.877517
O O9 0.750000 0.250000 0.745527
O O10 0.000000 0.197821 0.707171
O O11 0.716945 0.059963 0.353013
O O12 0.000000 0.052486 0.278252
O O13 0.726300 0.000000 0.259939
O O14 0.750000 0.250000 0.099223
O O15 0.000000 0.195169 0.074837
O O16 0.712133 0.196349 0.000000
O O17 0.783048 0.561754 0.500000
O O18 0.500000 0.572202 0.425967
#
# Coordination Sequence:
#
# PCOD9483109 Si02
#       6
#    16  16  16  16  16  16
#     4   8  13  22  35  49  69 100 133 163 199 241
#     4   9  16  27  40  56  81 110 136 166 207 248
#     4  10  18  27  40  57  78 105 136 166 199 242
#     4   9  15  22  34  53  77 107 142 174 206 249
#     4   9  17  29  46  67  90 115 142 171 203 242
#     4   8  12  19  31  47  70 101 136 172 210 249
#
# _framework density 21.544129000000002
#
# number of rings (size 3 to 8) (size 9 to 14) (size 15 to 20)
#    0.000    3.167    1.667    1.500    0.000    0.667 
#    0.000    1.667    0.000    0.500    0.000    3.500 
#    0.000    2.667    0.000    4.167    0.000   10.000 
#
# Total GULP energy -267407.990940 kJ/mol
# GULP energy per Si atom -5570.999811 kJ/mol
# Density = 2.149509 g / cm^3
# Si number density = 21.544129 Si / 1000 Ang^3
#
#
#
# Elastic Constant Matrix: (Units=GPa)
#
#
# Indices 1 2 3 4 5 6 
#
# 1 85.2548 1.4196 7.0676 0.0000 0.0000 0.0000
# 2 1.4196 158.0249 88.9232 0.0000 0.0000 0.0000
# 3 7.0676 88.9232 165.7099 0.0000 0.0000 0.0000
# 4 0.0000 0.0000 0.0000 35.1486 0.0000 0.0000
# 5 0.0000 0.0000 0.0000 0.0000 -8.8525 0.0000
# 6 0.0000 0.0000 0.0000 0.0000 0.0000 3.6897
#
#
#
# Elastic Compliance Matrix: (Units=1/GPa)
#
#
# Indices 1 2 3 4 5 6 
#
# 1 0.011778 0.000253 -0.000638 0.000000 0.000000 0.000000
# 2 0.000253 0.009071 -0.004879 0.000000 0.000000 0.000000
# 3 -0.000638 -0.004879 0.008680 0.000000 0.000000 0.000000
# 4 0.000000 0.000000 0.000000 0.028451 0.000000 0.000000
# 5 0.000000 0.000000 0.000000 0.000000 -0.112963 0.000000
# 6 0.000000 0.000000 0.000000 0.000000 0.000000 0.271022
#
#
# Mechanical properties :
#
#
# Convention : Reuss Voigt Hill
#
# Bulk Modulus (GPa) = 52.62553 67.09001 59.85777
# Shear Modulus (GPa) = 21.46850 26.76913 24.11881
#
# Velocity S-wave (km/s) = 3.16015 3.52877 3.34953
# Velocity P-wave (km/s) = 6.14778 6.91457 6.54242
#
# Compressibility (1/GPa) = 0.01900219
#
# Stress axis : x y z
#
# Youngs Moduli (GPa) = 84.90230 110.24066 115.21035
#
# Poissons Ratio (x) = -0.02793 0.07354
# Poissons Ratio (y) = -0.02151 0.56206
# Poissons Ratio (z) = 0.05419 0.53781
#
# Static dielectric constant tensor:
#      x y z
#    x 1.943730 0.000000 0.000000 
#    y 0.000000 1.744400 0.000000 
#    z 0.000000 0.000000 1.824730 
# 
# From -- ./inp_files/61896.got.cif
#   From: 2010.05.17/outbox.cif.g08.bks.cpg/sg65_31_cif.got.tgz:61896.got - 2010.06.03 17:01:31.
