data_PCOD9483662
_publ_section_title
;
Structure prediction by ZEFSAII (Michael W. Deem and Ramdas Pophale) SiO2 
 PCOD9483662
Probable space group: C M M M
;
_chemical_formula_sum "Si O2"
_cell_formula_units_Z 96
_cell_length_a 28.140524
_cell_length_b 23.760666
_cell_length_c 7.445060
_cell_angle_alpha 90.000000
_cell_angle_beta 90.000000
_cell_angle_gamma 90.000000
_cell_volume 4978.046989
_symmetry_space_group_name_H-M "C M M M"
_symmetry_group_IT_number 65
_symmetry_cell_setting 'orthorhombic'
loop_
_space_group_symop_operation_xyz
x,y,z
-x,-y,z
x,-y,-z
-x,y,-z
-x,-y,-z
x,y,-z
-x,y,z
x,-y,z
1/2+x,1/2+y,z
1/2-x,1/2-y,z
1/2+x,1/2-y,-z
1/2-x,1/2+y,-z
1/2-x,1/2-y,-z
1/2+x,1/2+y,-z
1/2-x,1/2+y,z
1/2+x,1/2-y,z
loop_
_atom_site_type_symbol
_atom_site_label
_atom_site_fract_x
_atom_site_fract_y
_atom_site_fract_z
Si Si1 0.806148 0.822188 0.710909
Si Si2 0.785676 0.387773 0.794804
Si Si3 0.446956 0.735170 0.780154
Si Si4 0.352290 0.204464 0.783051
Si Si5 0.123956 0.000000 0.221135
Si Si6 0.734964 0.500000 0.779428
Si Si7 0.904346 0.880145 0.794093
O O1 0.804109 0.834281 0.500000
O O2 0.757482 0.843157 0.794679
O O3 0.818164 0.756832 0.736310
O O4 0.850319 0.856815 0.791358
O O5 0.829952 0.353669 0.714210
O O6 0.763022 0.444503 0.717452
O O7 0.798518 0.401891 0.000000
O O8 0.500000 0.751181 0.726827
O O9 0.404664 0.776577 0.721978
O O10 0.434370 0.671747 0.716643
O O11 0.445220 0.733846 0.000000
O O12 0.353343 0.201230 0.000000
O O13 0.179596 0.000000 0.275241
O O14 0.098597 0.942716 0.282941
O O15 0.123980 0.000000 0.000000
O O16 0.733702 0.500000 0.000000
O O17 0.920328 0.886344 0.000000
#
# Coordination Sequence:
#
# PCOD9483662 Si02
#       7
#    16  16  16  16   8   8  16
#     4  11  20  28  41  63  91 117 141 175 213 249
#     4  10  18  30  45  62  84 114 148 174 203 248
#     4   8  14  26  44  65  85 104 134 180 224 254
#     4   9  18  30  46  64  83 111 144 174 209 257
#     4   9  14  24  43  62  81 111 150 182 205 236
#     4   9  16  26  44  63  83 112 146 181 203 231
#     4   9  16  28  45  62  83 115 149 178 209 250
#
# _framework density 19.284669999999998
#
# number of rings (size 3 to 8) (size 9 to 14) (size 15 to 20)
#    0.000    2.667    1.667    3.000    0.000    2.667 
#    0.000    2.083    0.000   10.500    0.000    0.583 
#    0.000   10.000    0.000    0.000    0.000    9.333 
#
# Total GULP energy -267668.420943 kJ/mol
# GULP energy per Si atom -5576.425436 kJ/mol
# Density = 1.924078 g / cm^3
# Si number density = 19.284670 Si / 1000 Ang^3
#
#
#
# Elastic Constant Matrix: (Units=GPa)
#
#
# Indices 1 2 3 4 5 6 
#
# 1 97.5746 46.8093 -3.8663 0.0000 0.0000 0.0000
# 2 46.8093 51.8704 -0.2158 0.0000 0.0000 0.0000
# 3 -3.8663 -0.2158 67.8972 0.0000 0.0000 0.0000
# 4 0.0000 0.0000 0.0000 -92.0647 0.0000 0.0000
# 5 0.0000 0.0000 0.0000 0.0000 -26.7604 0.0000
# 6 0.0000 0.0000 0.0000 0.0000 0.0000 8.3697
#
#
#
# Elastic Compliance Matrix: (Units=1/GPa)
#
#
# Indices 1 2 3 4 5 6 
#
# 1 0.018138 -0.016364 0.000981 0.000000 0.000000 0.000000
# 2 -0.016364 0.034043 -0.000824 0.000000 0.000000 0.000000
# 3 0.000981 -0.000824 0.014781 0.000000 0.000000 0.000000
# 4 0.000000 0.000000 0.000000 -0.010862 0.000000 0.000000
# 5 0.000000 0.000000 0.000000 0.000000 -0.037369 0.000000
# 6 0.000000 0.000000 0.000000 0.000000 0.000000 0.119478
#
#
# Mechanical properties :
#
#
# Convention : Reuss Voigt Hill
#
# Bulk Modulus (GPa) = 28.94496 33.64406 31.29451
# Shear Modulus (GPa) = 27.45168 -10.45007 8.50080
#
# Velocity S-wave (km/s) = 3.77702 -2.33037 2.10182
# Velocity P-wave (km/s) = 5.83636 3.20048 4.70670
#
# Compressibility (1/GPa) = 0.03454833
#
# Stress axis : x y z
#
# Youngs Moduli (GPa) = 55.13414 29.37504 67.65266
#
# Poissons Ratio (x) = 0.48069 -0.06635
# Poissons Ratio (y) = 0.90220 0.05572
# Poissons Ratio (z) = -0.05408 0.02419
#
# Static dielectric constant tensor:
#      x y z
#    x 1.660940 0.000000 0.000000 
#    y 0.000000 1.688110 0.000000 
#    z 0.000000 0.000000 1.720620 
# 
# From -- ./inp_files/16697.got.cif
#   From: 2010.05.17/outbox.cif.g08.bks.cpg/sg65_9_cif.got.tgz:16697.got - 2010.06.03 17:01:31.
