data_PCOD9483405
_publ_section_title
;
Structure prediction by ZEFSAII (Michael W. Deem and Ramdas Pophale) SiO2 
 PCOD9483405
Probable space group: C M M M
;
_chemical_formula_sum "Si O2"
_cell_formula_units_Z 80
_cell_length_a 26.623130
_cell_length_b 19.915428
_cell_length_c 8.821813
_cell_angle_alpha 90.000000
_cell_angle_beta 90.000000
_cell_angle_gamma 90.000000
_cell_volume 4677.422545
_symmetry_space_group_name_H-M "C M M M"
_symmetry_group_IT_number 65
_symmetry_cell_setting 'orthorhombic'
loop_
_space_group_symop_operation_xyz
x,y,z
-x,-y,z
x,-y,-z
-x,y,-z
-x,-y,-z
x,y,-z
-x,y,z
x,-y,z
1/2+x,1/2+y,z
1/2-x,1/2-y,z
1/2+x,1/2-y,-z
1/2-x,1/2+y,-z
1/2-x,1/2-y,-z
1/2+x,1/2+y,-z
1/2-x,1/2+y,z
1/2+x,1/2-y,z
loop_
_atom_site_type_symbol
_atom_site_label
_atom_site_fract_x
_atom_site_fract_y
_atom_site_fract_z
Si Si1 0.253242 0.331513 0.174482
Si Si2 0.443132 0.423116 0.315378
Si Si3 0.357433 0.172776 0.817882
Si Si4 0.942432 0.578701 0.682275
Si Si5 0.356914 0.678605 0.318723
O O1 0.250000 0.250000 0.175042
O O2 0.198155 0.353639 0.229325
O O3 0.302198 0.348762 0.270393
O O4 0.260527 0.352607 0.000000
O O5 0.442684 0.422764 0.500000
O O6 0.500000 0.405138 0.268489
O O7 0.433097 0.500000 0.268276
O O8 0.400881 0.371140 0.265356
O O9 0.401560 0.125150 0.760922
O O10 0.363606 0.247606 0.752058
O O11 0.356775 0.176827 0.000000
O O12 0.938418 0.585686 0.500000
O O13 0.934768 0.500000 0.718639
O O14 0.000000 0.596192 0.724311
O O15 0.358963 0.684451 0.500000
#
# Coordination Sequence:
#
# PCOD9483405 Si02
#       5
#    16  16  16  16  16
#     4   8  16  31  47  65  95 131 161 194 239 286
#     4   8  15  29  47  67  94 126 157 192 237 286
#     4  10  20  33  50  72  99 131 164 196 235 290
#     4   9  19  36  55  74  98 127 159 200 248 290
#     4  10  18  28  49  77  98 122 162 207 247 286
#
# _framework density 17.103437
#
# number of rings (size 3 to 8) (size 9 to 14) (size 15 to 20)
#    0.000    3.000    0.000    3.600    0.000    6.000 
#    0.000    4.000    0.000    7.800    0.000    5.600 
#    0.000    0.000    0.000    0.000    0.000    0.000 
#
# Total GULP energy -222829.628682 kJ/mol
# GULP energy per Si atom -5570.740717 kJ/mol
# Density = 1.706451 g / cm^3
# Si number density = 17.103437 Si / 1000 Ang^3
#
#
#
# Elastic Constant Matrix: (Units=GPa)
#
#
# Indices 1 2 3 4 5 6 
#
# 1 187.8891 94.2604 50.5964 0.0000 0.0000 0.0000
# 2 94.2604 69.1848 31.5984 0.0000 0.0000 0.0000
# 3 50.5964 31.5984 33.6938 0.0000 0.0000 0.0000
# 4 0.0000 0.0000 0.0000 -3.5899 0.0000 0.0000
# 5 0.0000 0.0000 0.0000 0.0000 15.3191 0.0000
# 6 0.0000 0.0000 0.0000 0.0000 0.0000 -24.8535
#
#
#
# Elastic Compliance Matrix: (Units=1/GPa)
#
#
# Indices 1 2 3 4 5 6 
#
# 1 0.017696 -0.020944 -0.006932 0.000000 0.000000 0.000000
# 2 -0.020944 0.050072 -0.015507 0.000000 0.000000 0.000000
# 3 -0.006932 -0.015507 0.054631 0.000000 0.000000 0.000000
# 4 0.000000 0.000000 0.000000 -0.278558 0.000000 0.000000
# 5 0.000000 0.000000 0.000000 0.000000 0.065278 0.000000
# 6 0.000000 0.000000 0.000000 0.000000 0.000000 -0.040236
#
#
# Mechanical properties :
#
#
# Convention : Reuss Voigt Hill
#
# Bulk Modulus (GPa) = 28.06401 71.51978 49.79190
# Shear Modulus (GPa) = -153.97415 4.99597 -74.48909
#
# Velocity S-wave (km/s) = -9.49846 1.71096 -6.60656
# Velocity P-wave (km/s) = 10.19069 6.76831 5.38703
#
# Compressibility (1/GPa) = 0.03563282
#
# Stress axis : x y z
#
# Youngs Moduli (GPa) = 56.50907 19.97137 18.30464
#
# Poissons Ratio (x) = 0.41828 0.12689
# Poissons Ratio (y) = 1.18354 0.28385
# Poissons Ratio (z) = 0.39172 0.30969
#
# Static dielectric constant tensor:
#      x y z
#    x 1.599730 0.000000 0.000000 
#    y 0.000000 1.553550 0.000000 
#    z 0.000000 0.000000 1.577490 
# 
# From -- ./inp_files/9871.got.cif
#   From: 2010.05.17/outbox.cif.g08.bks.cpg/sg65_5_cif.got.tgz:9871.got - 2010.06.03 17:01:31.
