data_PCOD9483356
_publ_section_title
;
Structure prediction by ZEFSAII (Michael W. Deem and Ramdas Pophale) SiO2 
 PCOD9483356
Probable space group: C M M M
;
_chemical_formula_sum "Si O2"
_cell_formula_units_Z 104
_cell_length_a 16.164682
_cell_length_b 14.946496
_cell_length_c 24.099917
_cell_angle_alpha 90.000000
_cell_angle_beta 90.000000
_cell_angle_gamma 90.000000
_cell_volume 5822.668999
_symmetry_space_group_name_H-M "C M M M"
_symmetry_group_IT_number 65
_symmetry_cell_setting 'orthorhombic'
loop_
_space_group_symop_operation_xyz
x,y,z
-x,-y,z
x,-y,-z
-x,y,-z
-x,-y,-z
x,y,-z
-x,y,z
x,-y,z
1/2+x,1/2+y,z
1/2-x,1/2-y,z
1/2+x,1/2-y,-z
1/2-x,1/2+y,-z
1/2-x,1/2-y,-z
1/2+x,1/2+y,-z
1/2-x,1/2+y,z
1/2+x,1/2-y,z
loop_
_atom_site_type_symbol
_atom_site_label
_atom_site_fract_x
_atom_site_fract_y
_atom_site_fract_z
Si Si1 0.648143 0.103235 0.159516
Si Si2 0.398907 0.896263 0.620953
Si Si3 0.403302 0.402323 0.239100
Si Si4 0.336599 0.400487 0.880514
Si Si5 0.904245 0.608923 0.500000
Si Si6 0.600919 0.210024 0.270009
Si Si7 0.903919 0.731684 0.937982
O O1 0.745450 0.104470 0.145713
O O2 0.630300 0.154788 0.216493
O O3 0.607676 0.156235 0.108447
O O4 0.620744 0.000000 0.163201
O O5 0.500000 0.894939 0.618993
O O6 0.368652 0.865190 0.560003
O O7 0.373388 0.836906 0.672964
O O8 0.375270 0.000000 0.629428
O O9 0.500000 0.405803 0.254006
O O10 0.365703 0.500000 0.252582
O O11 0.396269 0.391105 0.172678
O O12 0.368185 0.312280 0.265663
O O13 0.347868 0.500000 0.904906
O O14 0.351579 0.318767 0.921366
O O15 0.905181 0.500000 0.500000
O O16 0.000000 0.638729 0.500000
O O17 0.500000 0.210838 0.267882
O O18 0.000000 0.758676 0.937690
O O19 0.882348 0.700138 0.000000
#
# Coordination Sequence:
#
# PCOD9483356 Si02
#       7
#    16  16  16  16   8  16  16
#     4  11  23  36  52  75 103 133 161 194 241 298
#     4   8  13  21  35  59  92 129 167 203 239 285
#     4   9  17  30  49  71  94 121 156 199 247 294
#     4  10  21  37  56  76  98 124 156 201 252 294
#     4   7  10  18  32  52  85 128 167 203 241 277
#     4  10  18  28  46  71  98 131 166 200 242 291
#     4  11  24  40  57  76  97 126 164 202 243 293
#
# _framework density 17.861225000000001
#
# number of rings (size 3 to 8) (size 9 to 14) (size 15 to 20)
#    0.000    2.385    1.538    2.769    0.000    4.615 
#    0.000    3.077    0.000    0.000    0.000    0.538 
#    0.000    6.769    0.000    5.923    0.000    8.538 
#
# Total GULP energy -289826.836403 kJ/mol
# GULP energy per Si atom -5573.593008 kJ/mol
# Density = 1.782057 g / cm^3
# Si number density = 17.861225 Si / 1000 Ang^3
#
#
#
# Elastic Constant Matrix: (Units=GPa)
#
#
# Indices 1 2 3 4 5 6 
#
# 1 18.3131 11.2395 7.9152 0.0000 0.0000 0.0000
# 2 11.2395 121.7321 77.8955 0.0000 0.0000 0.0000
# 3 7.9152 77.8955 150.2415 0.0000 0.0000 0.0000
# 4 0.0000 0.0000 0.0000 26.1294 0.0000 0.0000
# 5 0.0000 0.0000 0.0000 0.0000 3.1116 0.0000
# 6 0.0000 0.0000 0.0000 0.0000 0.0000 19.1519
#
#
#
# Elastic Compliance Matrix: (Units=1/GPa)
#
#
# Indices 1 2 3 4 5 6 
#
# 1 0.057903 -0.005079 -0.000417 0.000000 0.000000 0.000000
# 2 -0.005079 0.012739 -0.006337 0.000000 0.000000 0.000000
# 3 -0.000417 -0.006337 0.009963 0.000000 0.000000 0.000000
# 4 0.000000 0.000000 0.000000 0.038271 0.000000 0.000000
# 5 0.000000 0.000000 0.000000 0.000000 0.321380 0.000000
# 6 0.000000 0.000000 0.000000 0.000000 0.000000 0.052214
#
#
# Mechanical properties :
#
#
# Convention : Reuss Voigt Hill
#
# Bulk Modulus (GPa) = 17.56277 53.82079 35.69178
# Shear Modulus (GPa) = 9.34374 22.56101 15.95238
#
# Velocity S-wave (km/s) = 2.28969 3.55791 2.99177
# Velocity P-wave (km/s) = 4.10420 6.86123 5.65336
#
# Compressibility (1/GPa) = 0.05693862
#
# Stress axis : x y z
#
# Youngs Moduli (GPa) = 17.27020 78.50045 100.36636
#
# Poissons Ratio (x) = 0.39873 0.04186
# Poissons Ratio (y) = 0.08772 0.63603
# Poissons Ratio (z) = 0.00720 0.49746
#
# Static dielectric constant tensor:
#      x y z
#    x 1.642540 0.000000 0.000000 
#    y 0.000000 1.631270 0.000000 
#    z 0.000000 0.000000 1.611970 
# 
# From -- ./inp_files/70553.got.cif
#   From: 2010.05.17/outbox.cif.g08.bks.cpg/sg65_36_cif.got.tgz:70553.got - 2010.06.03 17:01:31.
