data_PCOD9483938
_publ_section_title
;
Structure prediction by ZEFSAII (Michael W. Deem and Ramdas Pophale) SiO2 
 PCOD9483938
Probable space group: C M M M
;
_chemical_formula_sum "Si O2"
_cell_formula_units_Z 104
_cell_length_a 29.439386
_cell_length_b 8.470745
_cell_length_c 23.712958
_cell_angle_alpha 90.000000
_cell_angle_beta 90.000000
_cell_angle_gamma 90.000000
_cell_volume 5913.384085
_symmetry_space_group_name_H-M "C M M M"
_symmetry_group_IT_number 65
_symmetry_cell_setting 'orthorhombic'
loop_
_space_group_symop_operation_xyz
x,y,z
-x,-y,z
x,-y,-z
-x,y,-z
-x,-y,-z
x,y,-z
-x,y,z
x,-y,z
1/2+x,1/2+y,z
1/2-x,1/2-y,z
1/2+x,1/2-y,-z
1/2-x,1/2+y,-z
1/2-x,1/2-y,-z
1/2+x,1/2+y,-z
1/2-x,1/2+y,z
1/2+x,1/2-y,z
loop_
_atom_site_type_symbol
_atom_site_label
_atom_site_fract_x
_atom_site_fract_y
_atom_site_fract_z
Si Si1 0.301295 0.310312 0.220609
Si Si2 0.949512 0.692211 0.277130
Si Si3 0.198652 0.687227 0.000000
Si Si4 0.145020 0.811430 0.108288
Si Si5 0.143858 0.691147 0.671596
Si Si6 0.948847 0.690440 0.854317
Si Si7 0.699237 0.809135 0.563932
O O1 0.301299 0.500000 0.222382
O O2 0.250000 0.250000 0.215459
O O3 0.330560 0.257949 0.166284
O O4 0.324202 0.245784 0.277314
O O5 0.949630 0.500000 0.278016
O O6 0.907194 0.746423 0.314332
O O7 0.942741 0.737492 0.211539
O O8 0.000000 0.744462 0.294686
O O9 0.250000 0.750000 0.000000
O O10 0.171987 0.744840 0.944797
O O11 0.200233 0.500000 0.000000
O O12 0.092718 0.758481 0.110597
O O13 0.147144 0.000000 0.106406
O O14 0.143454 0.500000 0.671283
O O15 0.164605 0.744944 0.612154
O O16 0.946936 0.500000 0.856410
O O17 0.000000 0.738323 0.871403
O O18 0.687923 0.757901 0.500000
O O19 0.750000 0.750000 0.576942
O O20 0.699885 0.000000 0.564434
#
# Coordination Sequence:
#
# PCOD9483938 Si02
#       7
#    16  16   8  16  16  16  16
#     4  11  23  35  50  75 106 136 167 211 261 312
#     4   8  14  26  47  75 103 133 170 208 253 311
#     4  12  26  44  65  84 107 142 184 225 261 313
#     4  11  23  39  58  82 111 143 177 217 266 317
#     4  10  18  30  51  74 100 134 171 215 261 308
#     4   9  17  32  56  83 110 141 177 217 262 317
#     4   9  18  31  46  67  96 133 175 216 260 310
#
# _framework density 17.587222000000001
#
# number of rings (size 3 to 8) (size 9 to 14) (size 15 to 20)
#    0.000    2.154    1.538    3.462    0.000    5.231 
#    0.000    0.385    0.000    3.231    0.000    3.231 
#    0.000    0.000    0.000    5.231    0.000    5.538 
#
# Total GULP energy -290193.686750 kJ/mol
# GULP energy per Si atom -5580.647822 kJ/mol
# Density = 1.754719 g / cm^3
# Si number density = 17.587222 Si / 1000 Ang^3
#
#
#
# Elastic Constant Matrix: (Units=GPa)
#
#
# Indices 1 2 3 4 5 6 
#
# 1 179.3707 29.5064 89.0266 0.0000 0.0000 0.0000
# 2 29.5064 21.6671 24.7577 0.0000 0.0000 0.0000
# 3 89.0266 24.7577 113.1985 0.0000 0.0000 0.0000
# 4 0.0000 0.0000 0.0000 18.0067 0.0000 0.0000
# 5 0.0000 0.0000 0.0000 0.0000 27.8574 0.0000
# 6 0.0000 0.0000 0.0000 0.0000 0.0000 21.1258
#
#
#
# Elastic Compliance Matrix: (Units=1/GPa)
#
#
# Indices 1 2 3 4 5 6 
#
# 1 0.009694 -0.005986 -0.006315 0.000000 0.000000 0.000000
# 2 -0.005986 0.065226 -0.009558 0.000000 0.000000 0.000000
# 3 -0.006315 -0.009558 0.015891 0.000000 0.000000 0.000000
# 4 0.000000 0.000000 0.000000 0.055535 0.000000 0.000000
# 5 0.000000 0.000000 0.000000 0.000000 0.035897 0.000000
# 6 0.000000 0.000000 0.000000 0.000000 0.000000 0.047335
#
#
# Mechanical properties :
#
#
# Convention : Reuss Voigt Hill
#
# Bulk Modulus (GPa) = 21.23434 66.75750 43.99592
# Shear Modulus (GPa) = 17.30148 24.79436 21.04792
#
# Velocity S-wave (km/s) = 3.13989 3.75880 3.46319
# Velocity P-wave (km/s) = 5.02445 7.54178 6.40795
#
# Compressibility (1/GPa) = 0.04709353
#
# Stress axis : x y z
#
# Youngs Moduli (GPa) = 103.15788 15.33136 62.92956
#
# Poissons Ratio (x) = 0.09177 0.39738
# Poissons Ratio (y) = 0.61748 0.60148
# Poissons Ratio (z) = 0.65142 0.14654
#
# Static dielectric constant tensor:
#      x y z
#    x 1.591760 0.000000 0.000000 
#    y 0.000000 1.604580 0.000000 
#    z 0.000000 0.000000 1.589760 
# 
# From -- ./inp_files/66349.got.cif
#   From: 2010.05.17/outbox.cif.g08.bks.cpg/sg65_34_cif.got.tgz:66349.got - 2010.06.03 17:01:31.
