data_PCOD9483219
_publ_section_title
;
Structure prediction by ZEFSAII (Michael W. Deem and Ramdas Pophale) SiO2 
 PCOD9483219
Probable space group: C M M M
;
_chemical_formula_sum "Si O2"
_cell_formula_units_Z 88
_cell_length_a 14.592107
_cell_length_b 7.694266
_cell_length_c 33.101740
_cell_angle_alpha 90.000000
_cell_angle_beta 90.000000
_cell_angle_gamma 90.000000
_cell_volume 3716.516156
_symmetry_space_group_name_H-M "C M M M"
_symmetry_group_IT_number 65
_symmetry_cell_setting 'orthorhombic'
loop_
_space_group_symop_operation_xyz
x,y,z
-x,-y,z
x,-y,-z
-x,y,-z
-x,-y,-z
x,y,-z
-x,y,z
x,-y,z
1/2+x,1/2+y,z
1/2-x,1/2-y,z
1/2+x,1/2-y,-z
1/2-x,1/2+y,-z
1/2-x,1/2-y,-z
1/2+x,1/2+y,-z
1/2-x,1/2+y,z
1/2+x,1/2-y,z
loop_
_atom_site_type_symbol
_atom_site_label
_atom_site_fract_x
_atom_site_fract_y
_atom_site_fract_z
Si Si1 0.858532 0.794501 0.630112
Si Si2 0.358967 0.290310 0.543509
Si Si3 0.144099 0.296132 0.717785
Si Si4 0.112414 0.000000 0.953756
Si Si5 0.890951 0.302332 0.805544
Si Si6 0.888186 0.702143 0.893496
O O1 0.750000 0.750000 0.630444
O O2 0.893953 0.723699 0.587000
O O3 0.897388 0.747153 0.674041
O O4 0.867520 0.000000 0.627903
O O5 0.394026 0.225352 0.500000
O O6 0.370998 0.500000 0.543269
O O7 0.250000 0.250000 0.543554
O O8 0.126965 0.500000 0.722338
O O9 0.250000 0.250000 0.712989
O O10 0.122311 0.216126 0.761746
O O11 0.142256 0.169390 0.928626
O O12 0.000000 0.000000 0.954195
O O13 0.143336 0.000000 0.000000
O O14 0.852446 0.500000 0.804097
O O15 0.860162 0.229262 0.848748
O O16 0.000000 0.316344 0.808957
O O17 0.860870 0.500000 0.897819
O O18 0.000000 0.703270 0.894578
#
# Coordination Sequence:
#
# PCOD9483219 Si02
#       6
#    16  16  16   8  16  16
#     4   9  15  23  34  49  73 102 132 162 202 250
#     4   8  13  20  30  44  63  91 126 161 194 235
#     4  10  18  28  42  60  85 112 137 173 213 253
#     4   9  16  24  36  60  90 116 144 174 212 264
#     4   8  15  29  47  62  79 112 151 178 205 248
#     4   8  14  26  41  57  81 113 146 178 214 255
#
# _framework density 23.678087999999999
#
# number of rings (size 3 to 8) (size 9 to 14) (size 15 to 20)
#    0.000    3.364    0.000    3.273    0.000    1.091 
#    3.273    1.818    0.000    0.000    0.000    0.000 
#    0.000    1.455    0.364    9.091    0.000    4.182 
#
# Total GULP energy -244970.279029 kJ/mol
# GULP energy per Si atom -5567.506342 kJ/mol
# Density = 2.362420 g / cm^3
# Si number density = 23.678088 Si / 1000 Ang^3
#
#
#
# Elastic Constant Matrix: (Units=GPa)
#
#
# Indices 1 2 3 4 5 6 
#
# 1 64.4194 -4.1913 15.1783 0.0000 0.0000 0.0000
# 2 -4.1913 76.3470 74.8833 0.0000 0.0000 0.0000
# 3 15.1783 74.8833 344.2781 0.0000 0.0000 0.0000
# 4 0.0000 0.0000 0.0000 58.1705 0.0000 0.0000
# 5 0.0000 0.0000 0.0000 0.0000 11.1334 0.0000
# 6 0.0000 0.0000 0.0000 0.0000 0.0000 -7.4542
#
#
#
# Elastic Compliance Matrix: (Units=1/GPa)
#
#
# Indices 1 2 3 4 5 6 
#
# 1 0.015920 0.001986 -0.001134 0.000000 0.000000 0.000000
# 2 0.001986 0.016898 -0.003763 0.000000 0.000000 0.000000
# 3 -0.001134 -0.003763 0.003773 0.000000 0.000000 0.000000
# 4 0.000000 0.000000 0.000000 0.017191 0.000000 0.000000
# 5 0.000000 0.000000 0.000000 0.000000 0.089820 0.000000
# 6 0.000000 0.000000 0.000000 0.000000 0.000000 -0.134153
#
#
# Mechanical properties :
#
#
# Convention : Reuss Voigt Hill
#
# Bulk Modulus (GPa) = 32.50008 72.97614 52.73811
# Shear Modulus (GPa) = 195.87367 38.98154 117.42761
#
# Velocity S-wave (km/s) = 9.10512 4.06188 7.04990
# Velocity P-wave (km/s) = 11.14869 7.27224 9.41219
#
# Compressibility (1/GPa) = 0.03076916
#
# Stress axis : x y z
#
# Youngs Moduli (GPa) = 62.81543 59.17866 265.03388
#
# Poissons Ratio (x) = -0.11753 0.30051
# Poissons Ratio (y) = -0.12476 0.99733
# Poissons Ratio (z) = 0.07122 0.22269
#
# Static dielectric constant tensor:
#      x y z
#    x 1.769000 0.000000 0.000000 
#    y 0.000000 1.889280 0.000000 
#    z 0.000000 0.000000 1.998720 
# 
# From -- ./inp_files/78128.got.cif
#   From: 2010.05.17/outbox.cif.g08.bks.cpg/sg65_40_cif.got.tgz:78128.got - 2010.06.03 17:01:31.
