data_PCOD9483971
_publ_section_title
;
Structure prediction by ZEFSAII (Michael W. Deem and Ramdas Pophale) SiO2 
 PCOD9483971
Probable space group: C M M M
;
_chemical_formula_sum "Si O2"
_cell_formula_units_Z 80
_cell_length_a 19.317225
_cell_length_b 8.742855
_cell_length_c 26.050928
_cell_angle_alpha 90.000000
_cell_angle_beta 90.000000
_cell_angle_gamma 90.000000
_cell_volume 4399.681239
_symmetry_space_group_name_H-M "C M M M"
_symmetry_group_IT_number 65
_symmetry_cell_setting 'orthorhombic'
loop_
_space_group_symop_operation_xyz
x,y,z
-x,-y,z
x,-y,-z
-x,y,-z
-x,-y,-z
x,y,-z
-x,y,z
x,-y,z
1/2+x,1/2+y,z
1/2-x,1/2-y,z
1/2+x,1/2-y,-z
1/2-x,1/2+y,-z
1/2-x,1/2-y,-z
1/2+x,1/2+y,-z
1/2-x,1/2+y,z
1/2+x,1/2-y,z
loop_
_atom_site_type_symbol
_atom_site_label
_atom_site_fract_x
_atom_site_fract_y
_atom_site_fract_z
Si Si1 0.674665 0.182745 0.707493
Si Si2 0.580542 0.316895 0.500000
Si Si3 0.327620 0.684025 0.893612
Si Si4 0.674586 0.816815 0.411640
Si Si5 0.579881 0.684342 0.204818
Si Si6 0.828180 0.316778 0.000000
O O1 0.750000 0.250000 0.721241
O O2 0.660627 0.223627 0.647951
O O3 0.617335 0.246664 0.745681
O O4 0.677803 0.000000 0.711241
O O5 0.586501 0.500000 0.500000
O O6 0.500000 0.274733 0.500000
O O7 0.618655 0.250871 0.549886
O O8 0.323128 0.500000 0.897959
O O9 0.250000 0.750000 0.886119
O O10 0.375681 0.725250 0.845558
O O11 0.357554 0.752684 0.946656
O O12 0.750000 0.750000 0.424903
O O13 0.676425 0.000000 0.416072
O O14 0.500000 0.732895 0.200716
O O15 0.581341 0.500000 0.208776
O O16 0.750000 0.250000 0.000000
O O17 0.826967 0.500000 0.000000
#
# Coordination Sequence:
#
# PCOD9483971 Si02
#       6
#    16   8  16  16  16   8
#     4  10  21  37  59  85 110 141 181 225 272 321
#     4  11  24  39  56  81 113 149 186 223 268 321
#     4  10  19  33  54  78 105 137 176 220 266 318
#     4  10  21  38  60  84 111 143 181 225 272 322
#     4  10  22  38  55  78 110 147 183 221 269 323
#     4  10  18  30  51  78 105 133 171 219 269 316
#
# _framework density 18.183136999999999
#
# number of rings (size 3 to 8) (size 9 to 14) (size 15 to 20)
#    0.000    1.900    0.000    5.100    0.000    7.600 
#    0.000    4.500    0.000    3.000    0.000    0.000 
#    0.000    0.000    0.000    0.000    0.000    0.000 
#
# Total GULP energy -223416.876752 kJ/mol
# GULP energy per Si atom -5585.421919 kJ/mol
# Density = 1.814175 g / cm^3
# Si number density = 18.183137 Si / 1000 Ang^3
#
#
#
# Elastic Constant Matrix: (Units=GPa)
#
#
# Indices 1 2 3 4 5 6 
#
# 1 144.1987 52.5759 109.3844 0.0000 0.0000 0.0000
# 2 52.5759 59.5688 54.1669 0.0000 0.0000 0.0000
# 3 109.3844 54.1669 135.1059 0.0000 0.0000 0.0000
# 4 0.0000 0.0000 0.0000 27.5314 0.0000 0.0000
# 5 0.0000 0.0000 0.0000 0.0000 -7.5609 0.0000
# 6 0.0000 0.0000 0.0000 0.0000 0.0000 27.0484
#
#
#
# Elastic Compliance Matrix: (Units=1/GPa)
#
#
# Indices 1 2 3 4 5 6 
#
# 1 0.018646 -0.004296 -0.013374 0.000000 0.000000 0.000000
# 2 -0.004296 0.027408 -0.007510 0.000000 0.000000 0.000000
# 3 -0.013374 -0.007510 0.021241 0.000000 0.000000 0.000000
# 4 0.000000 0.000000 0.000000 0.036322 0.000000 0.000000
# 5 0.000000 0.000000 0.000000 0.000000 -0.132259 0.000000
# 6 0.000000 0.000000 0.000000 0.000000 0.000000 0.036971
#
#
# Mechanical properties :
#
#
# Convention : Reuss Voigt Hill
#
# Bulk Modulus (GPa) = 59.05214 85.68087 72.36650
# Shear Modulus (GPa) = 77.71709 17.58685 47.65197
#
# Velocity S-wave (km/s) = 6.54478 3.11337 5.12480
# Velocity P-wave (km/s) = 9.46884 7.75548 8.65466
#
# Compressibility (1/GPa) = 0.01693419
#
# Stress axis : x y z
#
# Youngs Moduli (GPa) = 53.62949 36.48512 47.07967
#
# Poissons Ratio (x) = 0.15675 0.62965
# Poissons Ratio (y) = 0.23040 0.35358
# Poissons Ratio (z) = 0.71725 0.27402
#
# Static dielectric constant tensor:
#      x y z
#    x 1.592420 0.000000 0.000000 
#    y 0.000000 1.610370 0.000000 
#    z 0.000000 0.000000 1.636650 
# 
# From -- ./inp_files/75112.got.cif
#   From: 2010.05.17/outbox.cif.g08.bks.cpg/sg65_38_cif.got.tgz:75112.got - 2010.06.03 17:01:31.
