data_PCOD9483431
_publ_section_title
;
Structure prediction by ZEFSAII (Michael W. Deem and Ramdas Pophale) SiO2 
 PCOD9483431
Probable space group: C M M M
;
_chemical_formula_sum "Si O2"
_cell_formula_units_Z 80
_cell_length_a 29.170725
_cell_length_b 9.571342
_cell_length_c 21.146429
_cell_angle_alpha 90.000000
_cell_angle_beta 90.000000
_cell_angle_gamma 90.000000
_cell_volume 5904.146107
_symmetry_space_group_name_H-M "C M M M"
_symmetry_group_IT_number 65
_symmetry_cell_setting 'orthorhombic'
loop_
_space_group_symop_operation_xyz
x,y,z
-x,-y,z
x,-y,-z
-x,y,-z
-x,-y,-z
x,y,-z
-x,y,z
x,-y,z
1/2+x,1/2+y,z
1/2-x,1/2-y,z
1/2+x,1/2-y,-z
1/2-x,1/2+y,-z
1/2-x,1/2-y,-z
1/2+x,1/2+y,-z
1/2-x,1/2+y,z
1/2+x,1/2-y,z
loop_
_atom_site_type_symbol
_atom_site_label
_atom_site_fract_x
_atom_site_fract_y
_atom_site_fract_z
Si Si1 0.795477 0.833997 0.574633
Si Si2 0.444319 0.159966 0.119789
Si Si3 0.052395 0.169559 0.500000
Si Si4 0.555966 0.660374 0.000000
Si Si5 0.393896 0.331391 0.372700
Si Si6 0.554309 0.832225 0.736291
O O1 0.805127 0.806430 0.500000
O O2 0.750000 0.750000 0.592357
O O3 0.840604 0.798484 0.614574
O O4 0.787477 0.000000 0.580361
O O5 0.500000 0.158787 0.118801
O O6 0.432073 0.202131 0.191256
O O7 0.429545 0.000000 0.108697
O O8 0.428939 0.259513 0.063308
O O9 0.078676 0.210377 0.436332
O O10 0.000000 0.218927 0.500000
O O11 0.051926 0.000000 0.500000
O O12 0.570447 0.500000 0.000000
O O13 0.500000 0.662541 0.000000
O O14 0.398064 0.500000 0.365508
O O15 0.416011 0.252081 0.313928
O O16 0.500000 0.800200 0.728325
O O17 0.559259 0.000000 0.728782
#
# Coordination Sequence:
#
# PCOD9483431 Si02
#       6
#    16  16   8   8  16  16
#     4   9  17  30  46  63  81  99 126 166 210 256
#     4   8  14  25  38  50  70 104 138 164 196 238
#     4   9  16  26  40  57  77 103 135 167 200 239
#     4   9  15  21  33  55  77  95 126 173 208 229
#     4  10  18  29  44  61  79 103 136 172 207 247
#     4   9  18  30  41  56  81 111 142 173 203 240
#
# _framework density 13.549799999999999
#
# number of rings (size 3 to 8) (size 9 to 14) (size 15 to 20)
#    0.000    3.000    1.000    2.100    0.000    4.000 
#    0.000    2.500    0.000    1.800    0.000    0.000 
#    0.000    0.000    0.000    0.900    0.000   11.900 
#
# Total GULP energy -222706.524651 kJ/mol
# GULP energy per Si atom -5567.663116 kJ/mol
# Density = 1.351896 g / cm^3
# Si number density = 13.549800 Si / 1000 Ang^3
#
#
#
# Elastic Constant Matrix: (Units=GPa)
#
#
# Indices 1 2 3 4 5 6 
#
# 1 78.1667 42.6873 56.9127 0.0000 0.0000 0.0000
# 2 42.6873 52.8519 69.6979 0.0000 0.0000 0.0000
# 3 56.9127 69.6979 133.1106 0.0000 0.0000 0.0000
# 4 0.0000 0.0000 0.0000 24.2132 0.0000 0.0000
# 5 0.0000 0.0000 0.0000 0.0000 2.5416 0.0000
# 6 0.0000 0.0000 0.0000 0.0000 0.0000 18.0717
#
#
#
# Elastic Compliance Matrix: (Units=1/GPa)
#
#
# Indices 1 2 3 4 5 6 
#
# 1 0.022894 -0.018037 -0.000344 0.000000 0.000000 0.000000
# 2 -0.018037 0.075345 -0.031739 0.000000 0.000000 0.000000
# 3 -0.000344 -0.031739 0.024279 0.000000 0.000000 0.000000
# 4 0.000000 0.000000 0.000000 0.041300 0.000000 0.000000
# 5 0.000000 0.000000 0.000000 0.000000 0.393448 0.000000
# 6 0.000000 0.000000 0.000000 0.000000 0.000000 0.055335
#
#
# Mechanical properties :
#
#
# Convention : Reuss Voigt Hill
#
# Bulk Modulus (GPa) = 44.89061 66.96946 55.93003
# Shear Modulus (GPa) = 6.94187 15.28739 11.11463
#
# Velocity S-wave (km/s) = 2.26591 3.36257 2.86716
# Velocity P-wave (km/s) = 6.32833 8.03790 7.23380
#
# Compressibility (1/GPa) = 0.02227637
#
# Stress axis : x y z
#
# Youngs Moduli (GPa) = 43.67977 13.27227 41.18835
#
# Poissons Ratio (x) = 0.23939 0.01417
# Poissons Ratio (y) = 0.78786 1.30729
# Poissons Ratio (z) = 0.01503 0.42125
#
# Static dielectric constant tensor:
#      x y z
#    x 1.419140 0.000000 0.000000 
#    y 0.000000 1.448500 0.000000 
#    z 0.000000 0.000000 1.441100 
# 
# From -- ./inp_files/65678.got.cif
#   From: 2010.05.17/outbox.cif.g08.bks.cpg/sg65_33_cif.got.tgz:65678.got - 2010.06.03 17:01:31.
