data_PCOD9483179
_publ_section_title
;
Structure prediction by ZEFSAII (Michael W. Deem and Ramdas Pophale) SiO2 
 PCOD9483179
Probable space group: C M M M
;
_chemical_formula_sum "Si O2"
_cell_formula_units_Z 88
_cell_length_a 30.792697
_cell_length_b 20.299459
_cell_length_c 7.868154
_cell_angle_alpha 90.000000
_cell_angle_beta 90.000000
_cell_angle_gamma 90.000000
_cell_volume 4918.187072
_symmetry_space_group_name_H-M "C M M M"
_symmetry_group_IT_number 65
_symmetry_cell_setting 'orthorhombic'
loop_
_space_group_symop_operation_xyz
x,y,z
-x,-y,z
x,-y,-z
-x,y,-z
-x,-y,-z
x,y,-z
-x,y,z
x,-y,z
1/2+x,1/2+y,z
1/2-x,1/2-y,z
1/2+x,1/2-y,-z
1/2-x,1/2+y,-z
1/2-x,1/2-y,-z
1/2+x,1/2+y,-z
1/2-x,1/2+y,z
1/2+x,1/2-y,z
loop_
_atom_site_type_symbol
_atom_site_label
_atom_site_fract_x
_atom_site_fract_y
_atom_site_fract_z
Si Si1 0.418566 0.141089 0.796687
Si Si2 0.097036 0.885847 0.807179
Si Si3 0.205612 0.208764 0.500000
Si Si4 0.500000 0.227432 0.791950
Si Si5 0.950700 0.500000 0.701083
Si Si6 0.500000 0.620750 0.697151
Si Si7 0.339817 0.574242 0.500000
Si Si8 0.143824 0.749919 0.802161
O O1 0.458936 0.184603 0.735506
O O2 0.375749 0.180148 0.744648
O O3 0.425598 0.065950 0.750102
O O4 0.419452 0.145257 0.000000
O O5 0.128571 0.915284 0.663578
O O6 0.106422 0.806746 0.795748
O O7 0.046229 0.900943 0.775581
O O8 0.108485 0.905674 0.000000
O O9 0.250000 0.250000 0.500000
O O10 0.198390 0.129109 0.500000
O O11 0.180278 0.229585 0.329342
O O12 0.500000 0.300087 0.717556
O O13 0.500000 0.233483 0.000000
O O14 0.954893 0.500000 0.500000
O O15 0.000000 0.500000 0.775290
O O16 0.500000 0.602138 0.500000
O O17 0.323068 0.500000 0.500000
O O18 0.157698 0.746905 0.000000
#
# Coordination Sequence:
#
# PCOD9483179 Si02
#       8
#    16  16   8   8   8   8   8  16
#     4  10  19  32  48  68 100 145 191 236 280 324
#     4  10  19  34  54  82 117 154 195 235 276 318
#     4  10  22  40  67  93 113 141 173 220 290 354
#     4  10  18  27  45  70 100 142 191 241 282 319
#     4  11  23  31  39  65 105 151 201 243 275 321
#     4  12  20  28  47  79 116 154 195 243 279 312
#     4  10  22  41  62  88 117 144 186 231 272 336
#     4   9  19  34  57  86 112 140 183 235 283 335
#
# _framework density 17.892771
#
# number of rings (size 3 to 8) (size 9 to 14) (size 15 to 20)
#    0.000    1.909    3.636    1.091    1.273    1.818 
#    0.000    0.909    2.000    1.091    0.000    0.000 
#    0.000    0.000    0.000    0.000    0.000    0.000 
#
# Total GULP energy -245337.754979 kJ/mol
# GULP energy per Si atom -5575.858068 kJ/mol
# Density = 1.785205 g / cm^3
# Si number density = 17.892771 Si / 1000 Ang^3
#
#
#
# Elastic Constant Matrix: (Units=GPa)
#
#
# Indices 1 2 3 4 5 6 
#
# 1 75.7933 32.1160 33.7006 0.0000 0.0000 0.0000
# 2 32.1160 105.0118 20.9186 0.0000 0.0000 0.0000
# 3 33.7006 20.9186 82.3375 0.0000 0.0000 0.0000
# 4 0.0000 0.0000 0.0000 -5.3623 0.0000 0.0000
# 5 0.0000 0.0000 0.0000 0.0000 14.8844 0.0000
# 6 0.0000 0.0000 0.0000 0.0000 0.0000 12.7717
#
#
#
# Elastic Compliance Matrix: (Units=1/GPa)
#
#
# Indices 1 2 3 4 5 6 
#
# 1 0.017720 -0.004186 -0.006189 0.000000 0.000000 0.000000
# 2 -0.004186 0.011019 -0.001086 0.000000 0.000000 0.000000
# 3 -0.006189 -0.001086 0.014954 0.000000 0.000000 0.000000
# 4 0.000000 0.000000 0.000000 -0.186488 0.000000 0.000000
# 5 0.000000 0.000000 0.000000 0.000000 0.067185 0.000000
# 6 0.000000 0.000000 0.000000 0.000000 0.000000 0.078298
#
#
# Mechanical properties :
#
#
# Convention : Reuss Voigt Hill
#
# Bulk Modulus (GPa) = 48.14579 48.51255 48.32917
# Shear Modulus (GPa) = 153.68435 16.21925 84.95180
#
# Velocity S-wave (km/s) = 9.27784 3.01403 6.89792
# Velocity P-wave (km/s) = 11.90536 6.26772 9.51372
#
# Compressibility (1/GPa) = 0.02077025
#
# Stress axis : x y z
#
# Youngs Moduli (GPa) = 56.43490 90.74892 66.87074
#
# Poissons Ratio (x) = 0.37991 0.41386
# Poissons Ratio (y) = 0.23626 0.07263
# Poissons Ratio (z) = 0.34928 0.09856
#
# Static dielectric constant tensor:
#      x y z
#    x 1.602620 0.000000 0.000000 
#    y 0.000000 1.544860 0.000000 
#    z 0.000000 0.000000 1.622740 
# 
# From -- ./inp_files/14122.got.cif
#   From: 2010.05.17/outbox.cif.g08.bks.cpg/sg65_8_cif.got.tgz:14122.got - 2010.06.03 17:01:31.
