data_PCOD9483217
_publ_section_title
;
Structure prediction by ZEFSAII (Michael W. Deem and Ramdas Pophale) SiO2 
 PCOD9483217
Probable space group: C M M M
;
_chemical_formula_sum "Si O2"
_cell_formula_units_Z 104
_cell_length_a 18.106567
_cell_length_b 13.814140
_cell_length_c 25.336021
_cell_angle_alpha 90.000000
_cell_angle_beta 90.000000
_cell_angle_gamma 90.000000
_cell_volume 6337.214094
_symmetry_space_group_name_H-M "C M M M"
_symmetry_group_IT_number 65
_symmetry_cell_setting 'orthorhombic'
loop_
_space_group_symop_operation_xyz
x,y,z
-x,-y,z
x,-y,-z
-x,y,-z
-x,-y,-z
x,y,-z
-x,y,z
x,-y,z
1/2+x,1/2+y,z
1/2-x,1/2-y,z
1/2+x,1/2-y,-z
1/2-x,1/2+y,-z
1/2-x,1/2-y,-z
1/2+x,1/2+y,-z
1/2-x,1/2+y,z
1/2+x,1/2-y,z
loop_
_atom_site_type_symbol
_atom_site_label
_atom_site_fract_x
_atom_site_fract_y
_atom_site_fract_z
Si Si1 0.798252 0.381812 0.560241
Si Si2 0.351668 0.383727 0.618204
Si Si3 0.086994 0.882558 0.056883
Si Si4 0.414244 0.112353 0.650009
Si Si5 0.589811 0.612443 0.171870
Si Si6 0.500000 0.618049 0.440326
Si Si7 0.588000 0.708296 0.719317
O O1 0.807978 0.347529 0.500000
O O2 0.798176 0.500000 0.557856
O O3 0.720000 0.352432 0.585655
O O4 0.861846 0.356214 0.601955
O O5 0.350550 0.500000 0.618312
O O6 0.426379 0.351527 0.589260
O O7 0.361094 0.348741 0.677874
O O8 0.117276 0.852982 0.114208
O O9 0.000000 0.856528 0.056077
O O10 0.089732 0.000000 0.057724
O O11 0.118890 0.850764 0.000000
O O12 0.500000 0.119683 0.633850
O O13 0.404341 0.180981 0.700609
O O14 0.398331 0.000000 0.661994
O O15 0.500000 0.611338 0.168843
O O16 0.611964 0.500000 0.181032
O O17 0.608855 0.679365 0.221450
O O18 0.500000 0.500000 0.441160
O O19 0.500000 0.652702 0.500000
O O20 0.500000 0.682240 0.712439
#
# Coordination Sequence:
#
# PCOD9483217 Si02
#       7
#    16  16  16  16  16   8  16
#     4   9  18  33  51  67  82 103 133 169 213 263
#     4  10  18  28  44  66  90 112 130 155 195 248
#     4   7   9  14  25  44  74 112 148 173 193 223
#     4   9  19  35  51  62  75  99 135 182 228 260
#     4   8  13  20  33  55  83 114 143 171 201 239
#     4   9  16  26  40  58  85 117 136 148 177 228
#     4  10  18  28  42  60  84 110 143 172 203 248
#
# _framework density 16.410996999999998
#
# number of rings (size 3 to 8) (size 9 to 14) (size 15 to 20)
#    0.000    3.154    0.769    2.308    0.000    3.385 
#    0.000    3.846    0.000    0.000    0.000    0.000 
#    0.000    0.615    0.000   11.385    0.000   18.923 
#
# Total GULP energy -289524.693362 kJ/mol
# GULP energy per Si atom -5567.782565 kJ/mol
# Density = 1.637364 g / cm^3
# Si number density = 16.410997 Si / 1000 Ang^3
#
#
#
# Elastic Constant Matrix: (Units=GPa)
#
#
# Indices 1 2 3 4 5 6 
#
# 1 41.8014 27.2186 43.9213 0.0000 0.0000 0.0000
# 2 27.2186 55.1085 42.5355 0.0000 0.0000 0.0000
# 3 43.9213 42.5355 188.1053 0.0000 0.0000 0.0000
# 4 0.0000 0.0000 0.0000 10.2917 0.0000 0.0000
# 5 0.0000 0.0000 0.0000 0.0000 10.3031 0.0000
# 6 0.0000 0.0000 0.0000 0.0000 0.0000 13.7411
#
#
#
# Elastic Compliance Matrix: (Units=1/GPa)
#
#
# Indices 1 2 3 4 5 6 
#
# 1 0.040037 -0.015215 -0.005908 0.000000 0.000000 0.000000
# 2 -0.015215 0.027765 -0.002726 0.000000 0.000000 0.000000
# 3 -0.005908 -0.002726 0.007312 0.000000 0.000000 0.000000
# 4 0.000000 0.000000 0.000000 0.097165 0.000000 0.000000
# 5 0.000000 0.000000 0.000000 0.000000 0.097059 0.000000
# 6 0.000000 0.000000 0.000000 0.000000 0.000000 0.072775
#
#
# Mechanical properties :
#
#
# Convention : Reuss Voigt Hill
#
# Bulk Modulus (GPa) = 36.47381 56.92954 46.70168
# Shear Modulus (GPa) = 12.53297 18.28982 15.41140
#
# Velocity S-wave (km/s) = 2.76650 3.34201 3.06778
# Velocity P-wave (km/s) = 5.69896 7.04679 6.40841
#
# Compressibility (1/GPa) = 0.02741693
#
# Stress axis : x y z
#
# Youngs Moduli (GPa) = 24.97687 36.01721 136.76124
#
# Poissons Ratio (x) = 0.54799 0.80798
# Poissons Ratio (y) = 0.38001 0.37278
# Poissons Ratio (z) = 0.14756 0.09817
#
# Static dielectric constant tensor:
#      x y z
#    x 1.556170 0.000000 0.000000 
#    y 0.000000 1.586630 0.000000 
#    z 0.000000 0.000000 1.578660 
# 
# From -- ./inp_files/70548.got.cif
#   From: 2010.05.17/outbox.cif.g08.bks.cpg/sg65_36_cif.got.tgz:70548.got - 2010.06.03 17:01:31.
