data_PCOD9483753
_publ_section_title
;
Structure prediction by ZEFSAII (Michael W. Deem and Ramdas Pophale) SiO2 
 PCOD9483753
Probable space group: C M M M
;
_chemical_formula_sum "Si O2"
_cell_formula_units_Z 88
_cell_length_a 25.519657
_cell_length_b 23.463062
_cell_length_c 7.601615
_cell_angle_alpha 90.000000
_cell_angle_beta 90.000000
_cell_angle_gamma 90.000000
_cell_volume 4551.613650
_symmetry_space_group_name_H-M "C M M M"
_symmetry_group_IT_number 65
_symmetry_cell_setting 'orthorhombic'
loop_
_space_group_symop_operation_xyz
x,y,z
-x,-y,z
x,-y,-z
-x,y,-z
-x,-y,-z
x,y,-z
-x,y,z
x,-y,z
1/2+x,1/2+y,z
1/2-x,1/2-y,z
1/2+x,1/2-y,-z
1/2-x,1/2+y,-z
1/2-x,1/2-y,-z
1/2+x,1/2+y,-z
1/2-x,1/2+y,z
1/2+x,1/2-y,z
loop_
_atom_site_type_symbol
_atom_site_label
_atom_site_fract_x
_atom_site_fract_y
_atom_site_fract_z
Si Si1 0.262229 0.434068 0.712111
Si Si2 0.144800 0.564685 0.208964
Si Si3 0.441022 0.716145 0.211399
Si Si4 0.439622 0.500000 0.715648
Si Si5 0.940085 0.345396 0.784965
Si Si6 0.127932 0.891865 0.290203
O O1 0.262418 0.433993 0.500000
O O2 0.268505 0.500000 0.769760
O O3 0.204455 0.414731 0.766520
O O4 0.312646 0.399176 0.776129
O O5 0.141077 0.500000 0.281100
O O6 0.101970 0.608759 0.279061
O O7 0.135867 0.560729 0.000000
O O8 0.500000 0.701137 0.274306
O O9 0.428627 0.780426 0.271756
O O10 0.399403 0.668245 0.258254
O O11 0.443208 0.718162 0.000000
O O12 0.500000 0.500000 0.772168
O O13 0.439848 0.500000 0.500000
O O14 0.408662 0.443611 0.775081
O O15 0.000000 0.359022 0.734556
O O16 0.938749 0.345407 0.000000
O O17 0.130727 0.899557 0.500000
#
# Coordination Sequence:
#
# PCOD9483753 Si02
#       6
#    16  16  16   8  16  16
#     4   9  17  31  48  66  93 127 157 186 230 283
#     4   9  17  29  49  76  97 115 150 195 233 272
#     4   9  18  32  48  66  92 126 157 186 230 283
#     4   9  16  26  43  67  91 113 146 195 238 268
#     4   8  15  30  50  70  95 125 152 183 229 283
#     4  10  18  30  48  69  90 120 161 197 230 270
#
# _framework density 19.333801999999999
#
# number of rings (size 3 to 8) (size 9 to 14) (size 15 to 20)
#    0.000    3.000    0.909    1.636    0.000    2.182 
#    0.000    4.091    0.000    8.727    0.000    2.545 
#    0.000    0.000    0.000    0.000    0.000    0.000 
#
# Total GULP energy -245340.050256 kJ/mol
# GULP energy per Si atom -5575.910233 kJ/mol
# Density = 1.928980 g / cm^3
# Si number density = 19.333802 Si / 1000 Ang^3
#
#
#
# Elastic Constant Matrix: (Units=GPa)
#
#
# Indices 1 2 3 4 5 6 
#
# 1 194.8854 130.3185 1.4241 0.0000 0.0000 0.0000
# 2 130.3185 125.8402 2.5955 0.0000 0.0000 0.0000
# 3 1.4241 2.5955 36.6247 0.0000 0.0000 0.0000
# 4 0.0000 0.0000 0.0000 14.2118 0.0000 0.0000
# 5 0.0000 0.0000 0.0000 0.0000 24.1418 0.0000
# 6 0.0000 0.0000 0.0000 0.0000 0.0000 28.8210
#
#
#
# Elastic Compliance Matrix: (Units=1/GPa)
#
#
# Indices 1 2 3 4 5 6 
#
# 1 0.016699 -0.017305 0.000577 0.000000 0.000000 0.000000
# 2 -0.017305 0.025891 -0.001162 0.000000 0.000000 0.000000
# 3 0.000577 -0.001162 0.027364 0.000000 0.000000 0.000000
# 4 0.000000 0.000000 0.000000 0.070364 0.000000 0.000000
# 5 0.000000 0.000000 0.000000 0.000000 0.041422 0.000000
# 6 0.000000 0.000000 0.000000 0.000000 0.000000 0.034697
#
#
# Mechanical properties :
#
#
# Convention : Reuss Voigt Hill
#
# Bulk Modulus (GPa) = 29.26177 69.55850 49.41013
# Shear Modulus (GPa) = 18.96765 28.30241 23.63503
#
# Velocity S-wave (km/s) = 3.13559 3.83022 3.50018
# Velocity P-wave (km/s) = 5.31762 7.45765 6.47664
#
# Compressibility (1/GPa) = 0.03417428
#
# Stress axis : x y z
#
# Youngs Moduli (GPa) = 59.88555 38.62337 36.54447
#
# Poissons Ratio (x) = 0.66836 -0.02109
# Poissons Ratio (y) = 1.03630 0.04246
# Poissons Ratio (z) = -0.03456 0.04488
#
# Static dielectric constant tensor:
#      x y z
#    x 1.673760 0.000000 0.000000 
#    y 0.000000 1.659240 0.000000 
#    z 0.000000 0.000000 1.740020 
# 
# From -- ./inp_files/13946.got.cif
#   From: 2010.05.17/outbox.cif.g08.bks.cpg/sg65_7_cif.got.tgz:13946.got - 2010.06.03 17:01:31.
