data_PCOD9483730
_publ_section_title
;
Structure prediction by ZEFSAII (Michael W. Deem and Ramdas Pophale) SiO2 
 PCOD9483730
Probable space group: C M M M
;
_chemical_formula_sum "Si O2"
_cell_formula_units_Z 90
_cell_length_a 24.447317
_cell_length_b 32.330188
_cell_length_c 8.090135
_cell_angle_alpha 90.000000
_cell_angle_beta 90.000000
_cell_angle_gamma 90.000000
_cell_volume 6394.332312
_symmetry_space_group_name_H-M "C M M M"
_symmetry_group_IT_number 65
_symmetry_cell_setting 'orthorhombic'
loop_
_space_group_symop_operation_xyz
x,y,z
-x,-y,z
x,-y,-z
-x,y,-z
-x,-y,-z
x,y,-z
-x,y,z
x,-y,z
1/2+x,1/2+y,z
1/2-x,1/2-y,z
1/2+x,1/2-y,-z
1/2-x,1/2+y,-z
1/2-x,1/2-y,-z
1/2+x,1/2+y,-z
1/2-x,1/2+y,z
1/2+x,1/2-y,z
loop_
_atom_site_type_symbol
_atom_site_label
_atom_site_fract_x
_atom_site_fract_y
_atom_site_fract_z
Si Si1 0.380852 0.755725 0.300344
Si Si2 0.682525 0.161287 0.304620
Si Si3 0.000000 0.278099 0.701534
Si Si4 0.500000 0.000000 0.000000
Si Si5 0.385751 0.915566 0.192482
Si Si6 0.281263 0.291454 0.803231
Si Si7 0.500000 0.125276 0.300905
Si Si8 0.086773 0.500000 0.313102
O O1 0.379906 0.756224 0.500000
O O2 0.352049 0.798645 0.242360
O O3 0.443601 0.757039 0.244185
O O4 0.343785 0.717422 0.243198
O O5 0.673517 0.159083 0.500000
O O6 0.658323 0.119827 0.229165
O O7 0.745935 0.171105 0.268793
O O8 0.000000 0.326515 0.749490
O O9 0.000000 0.277853 0.500000
O O10 0.546605 0.000000 0.152213
O O11 0.445601 0.896961 0.236586
O O12 0.379552 0.957642 0.294131
O O13 0.384669 0.925193 0.000000
O O14 0.250000 0.250000 0.740407
O O15 0.276375 0.293084 0.000000
O O16 0.500000 0.123549 0.500000
O O17 0.062395 0.500000 0.500000
#
# Coordination Sequence:
#
# PCOD9483730 Si02
#       8
#    16  16   8   2  16  16   8   8
#     4   9  16  28  43  60  83 110 144 178 212 265
#     4  10  18  30  48  65  80 109 144 177 224 270
#     4   9  16  28  43  61  84 111 146 182 217 259
#     4  12  22  44  52  74  88 112 158 192 228 288
#     4  12  23  36  48  68  90 109 145 190 230 277
#     4   9  17  28  41  60  84 107 134 175 221 260
#     4  11  20  33  47  62  81 112 149 182 224 272
#     4  12  25  41  55  66  89 119 148 190 236 279
#
# _framework density 14.074964
#
# number of rings (size 3 to 8) (size 9 to 14) (size 15 to 20)
#    0.000    1.778    2.667    3.600    0.000    2.844 
#    0.000    0.444    0.000    0.000    0.000    0.000 
#    0.000    0.000    0.000    0.000    0.000    0.889 
#
# Total GULP energy -250641.264286 kJ/mol
# GULP energy per Si atom -5569.805873 kJ/mol
# Density = 1.404293 g / cm^3
# Si number density = 14.074964 Si / 1000 Ang^3
#
#
#
# Elastic Constant Matrix: (Units=GPa)
#
#
# Indices 1 2 3 4 5 6 
#
# 1 79.7171 44.2914 9.2634 0.0000 0.0000 0.0000
# 2 44.2914 68.0803 15.3303 0.0000 0.0000 0.0000
# 3 9.2634 15.3303 57.2811 0.0000 0.0000 0.0000
# 4 0.0000 0.0000 0.0000 17.6751 0.0000 0.0000
# 5 0.0000 0.0000 0.0000 0.0000 18.2660 0.0000
# 6 0.0000 0.0000 0.0000 0.0000 0.0000 -18.0543
#
#
#
# Elastic Compliance Matrix: (Units=1/GPa)
#
#
# Indices 1 2 3 4 5 6 
#
# 1 0.019649 -0.012842 0.000259 0.000000 0.000000 0.000000
# 2 -0.012842 0.024023 -0.004353 0.000000 0.000000 0.000000
# 3 0.000259 -0.004353 0.018581 0.000000 0.000000 0.000000
# 4 0.000000 0.000000 0.000000 0.056577 0.000000 0.000000
# 5 0.000000 0.000000 0.000000 0.000000 0.054747 0.000000
# 6 0.000000 0.000000 0.000000 0.000000 0.000000 -0.055388
#
#
# Mechanical properties :
#
#
# Convention : Reuss Voigt Hill
#
# Bulk Modulus (GPa) = 35.23248 38.09430 36.66339
# Shear Modulus (GPa) = 30.95611 12.65692 21.80651
#
# Velocity S-wave (km/s) = 4.69484 3.00200 3.94040
# Velocity P-wave (km/s) = 7.38072 6.25620 6.84160
#
# Compressibility (1/GPa) = 0.02838290
#
# Stress axis : x y z
#
# Youngs Moduli (GPa) = 50.89275 41.62654 53.81909
#
# Poissons Ratio (x) = 0.53455 -0.01395
# Poissons Ratio (y) = 0.65355 0.23426
# Poissons Ratio (z) = -0.01319 0.18119
#
# Static dielectric constant tensor:
#      x y z
#    x 1.475360 0.000000 0.000000 
#    y 0.000000 1.463200 0.000000 
#    z 0.000000 0.000000 1.494360 
# 
# From -- ./inp_files/15025.got.cif
#   From: 2010.05.17/outbox.cif.g08.bks.cpg/sg65_8_cif.got.tgz:15025.got - 2010.06.03 17:01:31.
