data_PCOD9483419
_publ_section_title
;
Structure prediction by ZEFSAII (Michael W. Deem and Ramdas Pophale) SiO2 
 PCOD9483419
Probable space group: C M M M
;
_chemical_formula_sum "Si O2"
_cell_formula_units_Z 96
_cell_length_a 28.652040
_cell_length_b 16.901458
_cell_length_c 12.078282
_cell_angle_alpha 90.000000
_cell_angle_beta 90.000000
_cell_angle_gamma 90.000000
_cell_volume 5849.043947
_symmetry_space_group_name_H-M "C M M M"
_symmetry_group_IT_number 65
_symmetry_cell_setting 'orthorhombic'
loop_
_space_group_symop_operation_xyz
x,y,z
-x,-y,z
x,-y,-z
-x,y,-z
-x,-y,-z
x,y,-z
-x,y,z
x,-y,z
1/2+x,1/2+y,z
1/2-x,1/2-y,z
1/2+x,1/2-y,-z
1/2-x,1/2+y,-z
1/2-x,1/2-y,-z
1/2+x,1/2+y,-z
1/2-x,1/2+y,z
1/2+x,1/2-y,z
loop_
_atom_site_type_symbol
_atom_site_label
_atom_site_fract_x
_atom_site_fract_y
_atom_site_fract_z
Si Si1 0.410903 0.910716 0.263797
Si Si2 0.371328 0.904279 0.500000
Si Si3 0.736776 0.905187 0.500000
Si Si4 0.820238 0.378437 0.873930
Si Si5 0.733819 0.657891 0.266506
Si Si6 0.052282 0.735517 0.868544
Si Si7 0.648606 0.694276 0.125832
O O1 0.398009 0.882472 0.387626
O O2 0.361903 0.914214 0.197731
O O3 0.440767 0.845179 0.200045
O O4 0.430667 0.000000 0.267108
O O5 0.317544 0.876397 0.500000
O O6 0.369362 0.000000 0.500000
O O7 0.761549 0.874690 0.389657
O O8 0.735910 0.000000 0.500000
O O9 0.771395 0.386278 0.811359
O O10 0.832497 0.284809 0.878519
O O11 0.819034 0.406902 0.000000
O O12 0.750000 0.750000 0.268934
O O13 0.682947 0.652234 0.211441
O O14 0.094516 0.795196 0.840984
O O15 0.000000 0.766288 0.851523
O O16 0.058018 0.717428 0.000000
O O17 0.651988 0.662621 0.000000
#
# Coordination Sequence:
#
# PCOD9483419 Si02
#       7
#    16   8   8  16  16  16  16
#     4  10  18  29  43  60  86 125 167 198 227 268
#     4   9  18  31  44  56  80 124 167 196 222 263
#     4  11  21  33  45  63  96 132 160 190 231 269
#     4   9  16  25  40  63  89 115 146 190 236 272
#     4  10  18  29  46  68  91 120 159 195 223 273
#     4   9  18  32  48  67  91 117 148 194 247 285
#     4   8  15  28  45  65  88 114 144 184 234 281
#
# _framework density 16.412939000000001
#
# number of rings (size 3 to 8) (size 9 to 14) (size 15 to 20)
#    0.000    2.667    1.667    2.250    0.000    3.667 
#    0.000    1.250    0.000    3.000    0.000    0.000 
#    0.000    1.333    0.000    4.167    0.000    0.000 
#
# Total GULP energy -267427.902994 kJ/mol
# GULP energy per Si atom -5571.414646 kJ/mol
# Density = 1.637558 g / cm^3
# Si number density = 16.412939 Si / 1000 Ang^3
#
#
#
# Elastic Constant Matrix: (Units=GPa)
#
#
# Indices 1 2 3 4 5 6 
#
# 1 112.1743 3.4721 40.5369 0.0000 0.0000 0.0000
# 2 3.4721 7.4924 3.1740 0.0000 0.0000 0.0000
# 3 40.5369 3.1740 99.4033 0.0000 0.0000 0.0000
# 4 0.0000 0.0000 0.0000 -90.3229 0.0000 0.0000
# 5 0.0000 0.0000 0.0000 0.0000 -11.1366 0.0000
# 6 0.0000 0.0000 0.0000 0.0000 0.0000 10.4862
#
#
#
# Elastic Compliance Matrix: (Units=1/GPa)
#
#
# Indices 1 2 3 4 5 6 
#
# 1 0.010526 -0.003101 -0.004194 0.000000 0.000000 0.000000
# 2 -0.003101 0.136212 -0.003085 0.000000 0.000000 0.000000
# 3 -0.004194 -0.003085 0.011869 0.000000 0.000000 0.000000
# 4 0.000000 0.000000 0.000000 -0.011071 0.000000 0.000000
# 5 0.000000 0.000000 0.000000 0.000000 -0.089794 0.000000
# 6 0.000000 0.000000 0.000000 0.000000 0.000000 0.095363
#
#
# Mechanical properties :
#
#
# Convention : Reuss Voigt Hill
#
# Bulk Modulus (GPa) = 7.25438 34.82622 21.04030
# Shear Modulus (GPa) = 22.74661 -6.73552 8.00554
#
# Velocity S-wave (km/s) = 3.72680 -2.02798 2.21092
# Velocity P-wave (km/s) = 4.79043 3.97256 4.40054
#
# Compressibility (1/GPa) = 0.13784783
#
# Stress axis : x y z
#
# Youngs Moduli (GPa) = 95.00168 7.34149 84.25548
#
# Poissons Ratio (x) = 0.02277 0.35333
# Poissons Ratio (y) = 0.29464 0.25990
# Poissons Ratio (z) = 0.39839 0.02265
#
# Static dielectric constant tensor:
#      x y z
#    x 1.567460 0.000000 0.000000 
#    y 0.000000 1.546680 0.000000 
#    z 0.000000 0.000000 1.557330 
# 
# From -- ./inp_files/31000.got.cif
#   From: 2010.05.17/outbox.cif.g08.bks.cpg/sg65_16_cif.got.tgz:31000.got - 2010.06.03 17:01:31.
