data_PCOD9483078
_publ_section_title
;
Structure prediction by ZEFSAII (Michael W. Deem and Ramdas Pophale) SiO2 
 PCOD9483078
Probable space group: C M M M
;
_chemical_formula_sum "Si O2"
_cell_formula_units_Z 104
_cell_length_a 7.402453
_cell_length_b 32.290000
_cell_length_c 20.282119
_cell_angle_alpha 90.000000
_cell_angle_beta 90.000000
_cell_angle_gamma 90.000000
_cell_volume 4847.937700
_symmetry_space_group_name_H-M "C M M M"
_symmetry_group_IT_number 65
_symmetry_cell_setting 'orthorhombic'
loop_
_space_group_symop_operation_xyz
x,y,z
-x,-y,z
x,-y,-z
-x,y,-z
-x,-y,-z
x,y,-z
-x,y,z
x,-y,z
1/2+x,1/2+y,z
1/2-x,1/2-y,z
1/2+x,1/2-y,-z
1/2-x,1/2+y,-z
1/2-x,1/2-y,-z
1/2+x,1/2+y,-z
1/2-x,1/2+y,z
1/2+x,1/2-y,z
loop_
_atom_site_type_symbol
_atom_site_label
_atom_site_fract_x
_atom_site_fract_y
_atom_site_fract_z
Si Si1 0.284094 0.701263 0.726839
Si Si2 0.213373 0.797195 0.000000
Si Si3 0.218895 0.923928 0.923813
Si Si4 0.780193 0.165275 0.133650
Si Si5 0.212693 0.887231 0.313336
Si Si6 0.217432 0.453788 0.575809
Si Si7 0.779195 0.955582 0.788968
O O1 0.500000 0.699909 0.726277
O O2 0.250000 0.750000 0.711387
O O3 0.218323 0.687767 0.800012
O O4 0.220473 0.660610 0.684562
O O5 0.250000 0.750000 0.000000
O O6 0.287244 0.812353 0.931294
O O7 0.000000 0.808481 0.000000
O O8 0.265812 0.881430 0.886070
O O9 0.273794 0.955034 0.866018
O O10 0.000000 0.925458 0.928929
O O11 0.283782 0.926775 0.000000
O O12 0.000000 0.166422 0.137498
O O13 0.231155 0.915650 0.377800
O O14 0.285803 0.916400 0.253964
O O15 0.000000 0.883511 0.299457
O O16 0.275928 0.447807 0.500000
O O17 0.280600 0.500000 0.597072
O O18 0.000000 0.455007 0.575964
O O19 0.000000 0.953898 0.787825
O O20 0.724596 0.000000 0.759699
#
# Coordination Sequence:
#
# PCOD9483078 Si02
#       7
#    16   8  16  16  16  16  16
#     4  10  20  33  49  70  98 132 170 213 259 305
#     4  10  18  26  40  60  81 111 153 201 254 308
#     4   9  14  22  37  56  84 124 165 203 248 303
#     4   9  15  26  41  58  83 118 158 202 254 305
#     4  10  19  32  52  77 106 138 171 211 257 301
#     4   9  19  36  57  83 115 145 169 197 239 292
#     4   9  16  25  39  63  95 128 163 205 252 300
#
# _framework density 21.45242
#
# number of rings (size 3 to 8) (size 9 to 14) (size 15 to 20)
#    0.000    2.615    2.308    1.385    0.000    2.154 
#    0.000    2.308    0.000    0.462    0.000    0.000 
#    0.000    0.000    0.000    3.231    0.000    3.077 
#
# Total GULP energy -289494.005425 kJ/mol
# GULP energy per Si atom -5567.192412 kJ/mol
# Density = 2.140359 g / cm^3
# Si number density = 21.452420 Si / 1000 Ang^3
#
#
#
# Elastic Constant Matrix: (Units=GPa)
#
#
# Indices 1 2 3 4 5 6 
#
# 1 70.4978 8.2018 -1.5209 0.0000 0.0000 0.0000
# 2 8.2018 214.6211 85.0032 0.0000 0.0000 0.0000
# 3 -1.5209 85.0032 114.6587 0.0000 0.0000 0.0000
# 4 0.0000 0.0000 0.0000 49.3591 0.0000 0.0000
# 5 0.0000 0.0000 0.0000 0.0000 52.6335 0.0000
# 6 0.0000 0.0000 0.0000 0.0000 0.0000 7.6243
#
#
#
# Elastic Compliance Matrix: (Units=1/GPa)
#
#
# Indices 1 2 3 4 5 6 
#
# 1 0.014305 -0.000880 0.000842 0.000000 0.000000 0.000000
# 2 -0.000880 0.006650 -0.004942 0.000000 0.000000 0.000000
# 3 0.000842 -0.004942 0.012396 0.000000 0.000000 0.000000
# 4 0.000000 0.000000 0.000000 0.020260 0.000000 0.000000
# 5 0.000000 0.000000 0.000000 0.000000 0.018999 0.000000
# 6 0.000000 0.000000 0.000000 0.000000 0.000000 0.131160
#
#
# Mechanical properties :
#
#
# Convention : Reuss Voigt Hill
#
# Bulk Modulus (GPa) = 42.74884 64.79398 53.77141
# Shear Modulus (GPa) = 22.57047 42.46294 32.51670
#
# Velocity S-wave (km/s) = 3.24715 4.45387 3.89750
# Velocity P-wave (km/s) = 5.83346 7.53117 6.73601
#
# Compressibility (1/GPa) = 0.02339245
#
# Stress axis : x y z
#
# Youngs Moduli (GPa) = 69.90353 150.36827 80.66808
#
# Poissons Ratio (x) = 0.13237 -0.06795
# Poissons Ratio (y) = 0.06154 0.39866
# Poissons Ratio (z) = -0.05889 0.74311
#
# Static dielectric constant tensor:
#      x y z
#    x 1.864110 0.000000 0.000000 
#    y 0.000000 1.860990 0.000000 
#    z 0.000000 0.000000 1.740340 
# 
# From -- ./inp_files/52118.got.cif
#   From: 2010.05.17/outbox.cif.g08.bks.cpg/sg65_27_cif.got.tgz:52118.got - 2010.06.03 17:01:31.
