data_PCOD9483442
_publ_section_title
;
Structure prediction by ZEFSAII (Michael W. Deem and Ramdas Pophale) SiO2 
 PCOD9483442
Probable space group: C M M M
;
_chemical_formula_sum "Si O2"
_cell_formula_units_Z 104
_cell_length_a 26.641976
_cell_length_b 9.054273
_cell_length_c 26.467290
_cell_angle_alpha 90.000000
_cell_angle_beta 90.000000
_cell_angle_gamma 90.000000
_cell_volume 6384.538257
_symmetry_space_group_name_H-M "C M M M"
_symmetry_group_IT_number 65
_symmetry_cell_setting 'orthorhombic'
loop_
_space_group_symop_operation_xyz
x,y,z
-x,-y,z
x,-y,-z
-x,y,-z
-x,-y,-z
x,y,-z
-x,y,z
x,-y,z
1/2+x,1/2+y,z
1/2-x,1/2-y,z
1/2+x,1/2-y,-z
1/2-x,1/2+y,-z
1/2-x,1/2-y,-z
1/2+x,1/2+y,-z
1/2-x,1/2+y,z
1/2+x,1/2-y,z
loop_
_atom_site_type_symbol
_atom_site_label
_atom_site_fract_x
_atom_site_fract_y
_atom_site_fract_z
Si Si1 0.057769 0.822956 0.214707
Si Si2 0.803585 0.171495 0.060580
Si Si3 0.643738 0.676319 0.294776
Si Si4 0.294499 0.164674 0.786532
Si Si5 0.618659 0.833640 0.131018
Si Si6 0.804191 0.676010 0.500000
Si Si7 0.193961 0.677976 0.387864
O O1 0.094181 0.781639 0.261898
O O2 0.075082 0.750381 0.161743
O O3 0.000000 0.786104 0.225405
O O4 0.062724 0.000000 0.209323
O O5 0.750000 0.250000 0.071022
O O6 0.851278 0.247792 0.087374
O O7 0.800460 0.000000 0.076491
O O8 0.810278 0.177358 0.000000
O O9 0.644169 0.500000 0.300949
O O10 0.688969 0.732545 0.259424
O O11 0.655177 0.756504 0.347334
O O12 0.250000 0.250000 0.813341
O O13 0.339676 0.154243 0.825149
O O14 0.280995 0.000000 0.769786
O O15 0.604198 0.000000 0.115398
O O16 0.798226 0.500000 0.500000
O O17 0.750000 0.750000 0.500000
O O18 0.825606 0.713470 0.555196
O O19 0.198443 0.500000 0.382250
O O20 0.250000 0.750000 0.381846
#
# Coordination Sequence:
#
# PCOD9483442 Si02
#       7
#    16  16  16  16  16   8  16
#     4   9  19  36  55  72  92 120 154 194 241 291
#     4  10  20  33  50  73 102 135 167 197 230 271
#     4  10  19  30  45  66  90 117 150 187 230 278
#     4  10  19  29  41  61  90 122 153 183 220 267
#     4  10  20  32  49  72  96 124 157 194 235 280
#     4   8  16  28  42  60  85 122 161 193 224 263
#     4  10  18  29  44  64  93 126 159 192 227 268
#
# _framework density 16.289352999999998
#
# number of rings (size 3 to 8) (size 9 to 14) (size 15 to 20)
#    0.000    2.308    0.000    3.231    0.000    5.538 
#    0.000    0.000    0.000    0.462    0.000    3.769 
#    0.000    4.308    0.000    0.000    0.000    0.000 
#
# Total GULP energy -289507.048518 kJ/mol
# GULP energy per Si atom -5567.443241 kJ/mol
# Density = 1.625228 g / cm^3
# Si number density = 16.289353 Si / 1000 Ang^3
#
#
#
# Elastic Constant Matrix: (Units=GPa)
#
#
# Indices 1 2 3 4 5 6 
#
# 1 74.2939 40.6237 32.5889 0.0000 0.0000 0.0000
# 2 40.6237 78.3865 43.3919 0.0000 0.0000 0.0000
# 3 32.5889 43.3919 96.5693 0.0000 0.0000 0.0000
# 4 0.0000 0.0000 0.0000 26.6280 0.0000 0.0000
# 5 0.0000 0.0000 0.0000 0.0000 19.5604 0.0000
# 6 0.0000 0.0000 0.0000 0.0000 0.0000 18.0503
#
#
#
# Elastic Compliance Matrix: (Units=1/GPa)
#
#
# Indices 1 2 3 4 5 6 
#
# 1 0.019292 -0.008511 -0.002686 0.000000 0.000000 0.000000
# 2 -0.008511 0.020736 -0.006445 0.000000 0.000000 0.000000
# 3 -0.002686 -0.006445 0.014158 0.000000 0.000000 0.000000
# 4 0.000000 0.000000 0.000000 0.037554 0.000000 0.000000
# 5 0.000000 0.000000 0.000000 0.000000 0.051124 0.000000
# 6 0.000000 0.000000 0.000000 0.000000 0.000000 0.055401
#
#
# Mechanical properties :
#
#
# Convention : Reuss Voigt Hill
#
# Bulk Modulus (GPa) = 52.90714 53.60653 53.25683
# Shear Modulus (GPa) = 20.84636 21.69077 21.26857
#
# Velocity S-wave (km/s) = 3.58125 3.65306 3.61733
# Velocity P-wave (km/s) = 7.04631 7.12555 7.08604
#
# Compressibility (1/GPa) = 0.01890104
#
# Stress axis : x y z
#
# Youngs Moduli (GPa) = 51.83435 48.22524 70.63268
#
# Poissons Ratio (x) = 0.41046 0.18973
# Poissons Ratio (y) = 0.44118 0.45524
# Poissons Ratio (z) = 0.13923 0.31082
#
# Static dielectric constant tensor:
#      x y z
#    x 1.562780 0.000000 0.000000 
#    y 0.000000 1.593080 0.000000 
#    z 0.000000 0.000000 1.578140 
# 
# From -- ./inp_files/75977.got.cif
#   From: 2010.05.17/outbox.cif.g08.bks.cpg/sg65_38_cif.got.tgz:75977.got - 2010.06.03 17:01:31.
