data_PCOD9483108
_publ_section_title
;
Structure prediction by ZEFSAII (Michael W. Deem and Ramdas Pophale) SiO2 
 PCOD9483108
Probable space group: C M M M
;
_chemical_formula_sum "Si O2"
_cell_formula_units_Z 96
_cell_length_a 28.875829
_cell_length_b 28.811899
_cell_length_c 9.589594
_cell_angle_alpha 90.000000
_cell_angle_beta 90.000000
_cell_angle_gamma 90.000000
_cell_volume 7978.230246
_symmetry_space_group_name_H-M "C M M M"
_symmetry_group_IT_number 65
_symmetry_cell_setting 'orthorhombic'
loop_
_space_group_symop_operation_xyz
x,y,z
-x,-y,z
x,-y,-z
-x,y,-z
-x,-y,-z
x,y,-z
-x,y,z
x,-y,z
1/2+x,1/2+y,z
1/2-x,1/2-y,z
1/2+x,1/2-y,-z
1/2-x,1/2+y,-z
1/2-x,1/2-y,-z
1/2+x,1/2+y,-z
1/2-x,1/2+y,z
1/2+x,1/2-y,z
loop_
_atom_site_type_symbol
_atom_site_label
_atom_site_fract_x
_atom_site_fract_y
_atom_site_fract_z
Si Si1 0.400966 0.500000 0.835641
Si Si2 0.194587 0.000000 0.331839
Si Si3 0.324837 0.265696 0.162446
Si Si4 0.871073 0.842884 0.665553
Si Si5 0.774937 0.101145 0.335387
Si Si6 0.054445 0.099755 0.164867
Si Si7 0.271824 0.823310 0.161370
O O1 0.355007 0.500000 0.742946
O O2 0.430215 0.546536 0.809312
O O3 0.388223 0.500000 0.000000
O O4 0.221014 0.047372 0.294341
O O5 0.187837 0.000000 0.500000
O O6 0.359042 0.293963 0.261467
O O7 0.311327 0.213334 0.205660
O O8 0.276356 0.294233 0.166273
O O9 0.339813 0.265561 0.000000
O O10 0.877887 0.838211 0.500000
O O11 0.825734 0.875733 0.687315
O O12 0.913918 0.867303 0.741232
O O13 0.765512 0.104077 0.500000
O O14 0.737707 0.131566 0.252670
O O15 0.000000 0.105250 0.192031
O O16 0.062820 0.109074 0.000000
O O17 0.279929 0.835392 0.000000
#
# Coordination Sequence:
#
# PCOD9483108 Si02
#       7
#     8   8  16  16  16  16  16
#     4  10  19  30  44  56  64  84 120 158 192 227
#     4  10  18  29  39  51  74  98 120 148 185 225
#     4   8  14  25  39  54  72  91 109 135 173 214
#     4  10  18  27  40  56  71  90 114 144 180 221
#     4   9  17  26  37  51  71  95 117 144 178 215
#     4  10  20  32  43  54  69  89 116 153 194 232
#     4   8  14  24  38  54  71  90 112 139 171 208
#
# _framework density 12.032743999999999
#
# number of rings (size 3 to 8) (size 9 to 14) (size 15 to 20)
#    0.000    2.833    1.667    1.750    0.000    3.333 
#    0.000    3.333    0.000    1.500    0.000    0.000 
#    0.000    0.000    0.000    0.000    0.000    0.000 
#
# Total GULP energy -267219.798564 kJ/mol
# GULP energy per Si atom -5567.079137 kJ/mol
# Density = 1.200536 g / cm^3
# Si number density = 12.032744 Si / 1000 Ang^3
#
#
#
# Elastic Constant Matrix: (Units=GPa)
#
#
# Indices 1 2 3 4 5 6 
#
# 1 42.8753 50.1653 41.2515 0.0000 0.0000 0.0000
# 2 50.1653 101.4896 60.6745 0.0000 0.0000 0.0000
# 3 41.2515 60.6745 54.9782 0.0000 0.0000 0.0000
# 4 0.0000 0.0000 0.0000 19.5339 0.0000 0.0000
# 5 0.0000 0.0000 0.0000 0.0000 13.6741 0.0000
# 6 0.0000 0.0000 0.0000 0.0000 0.0000 10.2790
#
#
#
# Elastic Compliance Matrix: (Units=1/GPa)
#
#
# Indices 1 2 3 4 5 6 
#
# 1 0.088497 -0.011892 -0.053277 0.000000 0.000000 0.000000
# 2 -0.011892 0.030559 -0.024803 0.000000 0.000000 0.000000
# 3 -0.053277 -0.024803 0.085537 0.000000 0.000000 0.000000
# 4 0.000000 0.000000 0.000000 0.051193 0.000000 0.000000
# 5 0.000000 0.000000 0.000000 0.000000 0.073131 0.000000
# 6 0.000000 0.000000 0.000000 0.000000 0.000000 0.097285
#
#
# Mechanical properties :
#
#
# Convention : Reuss Voigt Hill
#
# Bulk Modulus (GPa) = 40.56954 55.94729 48.25841
# Shear Modulus (GPa) = 8.13851 11.84753 9.99302
#
# Velocity S-wave (km/s) = 2.60352 3.14125 2.88494
# Velocity P-wave (km/s) = 6.54423 7.73003 7.16171
#
# Compressibility (1/GPa) = 0.02464904
#
# Stress axis : x y z
#
# Youngs Moduli (GPa) = 11.29987 32.72314 11.69082
#
# Poissons Ratio (x) = 0.38913 0.62286
# Poissons Ratio (y) = 0.13437 0.28997
# Poissons Ratio (z) = 0.60203 0.81163
#
# Static dielectric constant tensor:
#      x y z
#    x 1.358030 0.000000 0.000000 
#    y 0.000000 1.396760 0.000000 
#    z 0.000000 0.000000 1.398440 
# 
# From -- ./inp_files/19189.got.cif
#   From: 2010.05.17/outbox.cif.g08.bks.cpg/sg65_10_cif.got.tgz:19189.got - 2010.06.03 17:01:31.
