data_PCOD9483046
_publ_section_title
;
Structure prediction by ZEFSAII (Michael W. Deem and Ramdas Pophale) SiO2 
 PCOD9483046
Probable space group: C M M M
;
_chemical_formula_sum "Si O2"
_cell_formula_units_Z 120
_cell_length_a 20.443138
_cell_length_b 13.907500
_cell_length_c 20.643789
_cell_angle_alpha 90.000000
_cell_angle_beta 90.000000
_cell_angle_gamma 90.000000
_cell_volume 5869.296379
_symmetry_space_group_name_H-M "C M M M"
_symmetry_group_IT_number 65
_symmetry_cell_setting 'orthorhombic'
loop_
_space_group_symop_operation_xyz
x,y,z
-x,-y,z
x,-y,-z
-x,y,-z
-x,-y,-z
x,y,-z
-x,y,z
x,-y,z
1/2+x,1/2+y,z
1/2-x,1/2-y,z
1/2+x,1/2-y,-z
1/2-x,1/2+y,-z
1/2-x,1/2-y,-z
1/2+x,1/2+y,-z
1/2-x,1/2+y,z
1/2+x,1/2-y,z
loop_
_atom_site_type_symbol
_atom_site_label
_atom_site_fract_x
_atom_site_fract_y
_atom_site_fract_z
Si Si1 0.375995 0.391891 0.577236
Si Si2 0.928518 0.686961 0.236969
Si Si3 0.751128 0.604954 0.338873
Si Si4 0.073594 0.386700 0.500000
Si Si5 0.382569 0.804705 0.367527
Si Si6 0.809813 0.824693 0.790194
Si Si7 0.922591 0.608961 0.899904
Si Si8 0.675258 0.712398 0.070322
O O1 0.379600 0.373787 0.500000
O O2 0.401617 0.500000 0.589297
O O3 0.301275 0.390861 0.603215
O O4 0.405775 0.304336 0.618120
O O5 0.922569 0.647905 0.309352
O O6 0.873854 0.768069 0.232154
O O7 0.917671 0.613629 0.178419
O O8 0.000000 0.729105 0.226621
O O9 0.783952 0.500000 0.341817
O O10 0.807103 0.684325 0.346131
O O11 0.713846 0.610655 0.269661
O O12 0.068704 0.500000 0.500000
O O13 0.110054 0.355070 0.564221
O O14 0.000000 0.344664 0.500000
O O15 0.750000 0.750000 0.797121
O O16 0.826192 0.853199 0.864679
O O17 0.905418 0.500000 0.921288
O O18 0.874371 0.695507 0.921754
O O19 0.000000 0.625353 0.916452
O O20 0.750000 0.750000 0.067224
O O21 0.660521 0.667406 0.000000
#
# Coordination Sequence:
#
# PCOD9483046 Si02
#       8
#    16  16  16   8  16  16  16  16
#     4  10  21  36  57  84 115 146 186 243 303 360
#     4  10  20  34  56  82 112 153 197 239 300 365
#     4  11  22  34  57  90 114 146 195 249 304 357
#     4  11  26  42  54  79 119 163 203 241 303 384
#     4  12  21  38  59  80 114 154 201 247 303 356
#     4  10  17  36  56  77 110 149 194 245 291 344
#     4   9  19  35  57  88 123 158 201 256 314 374
#     4   9  19  34  53  79 115 159 201 241 296 366
#
# _framework density 20.44538
#
# number of rings (size 3 to 8) (size 9 to 14) (size 15 to 20)
#    0.000    1.800    3.333    1.200    0.933    2.133 
#    0.000    2.000    0.000    4.400    0.000    0.000 
#    0.000    1.600    0.000   13.200    0.000    0.000 
#
# Total GULP energy -334138.569309 kJ/mol
# GULP energy per Si atom -5568.976155 kJ/mol
# Density = 2.039885 g / cm^3
# Si number density = 20.445380 Si / 1000 Ang^3
#
#
#
# Elastic Constant Matrix: (Units=GPa)
#
#
# Indices 1 2 3 4 5 6 
#
# 1 78.3628 10.8556 14.8752 0.0000 0.0000 0.0000
# 2 10.8556 52.0602 9.1685 0.0000 0.0000 0.0000
# 3 14.8752 9.1685 147.0554 0.0000 0.0000 0.0000
# 4 0.0000 0.0000 0.0000 9.8402 0.0000 0.0000
# 5 0.0000 0.0000 0.0000 0.0000 30.7056 0.0000
# 6 0.0000 0.0000 0.0000 0.0000 0.0000 16.4005
#
#
#
# Elastic Compliance Matrix: (Units=1/GPa)
#
#
# Indices 1 2 3 4 5 6 
#
# 1 0.013343 -0.002573 -0.001189 0.000000 0.000000 0.000000
# 2 -0.002573 0.019918 -0.000982 0.000000 0.000000 0.000000
# 3 -0.001189 -0.000982 0.006982 0.000000 0.000000 0.000000
# 4 0.000000 0.000000 0.000000 0.101624 0.000000 0.000000
# 5 0.000000 0.000000 0.000000 0.000000 0.032567 0.000000
# 6 0.000000 0.000000 0.000000 0.000000 0.000000 0.060974
#
#
# Mechanical properties :
#
#
# Convention : Reuss Voigt Hill
#
# Bulk Modulus (GPa) = 32.51470 38.58634 35.55052
# Shear Modulus (GPa) = 19.59654 27.56120 23.57887
#
# Velocity S-wave (km/s) = 3.09930 3.67555 3.39965
# Velocity P-wave (km/s) = 5.36146 6.07674 5.73027
#
# Compressibility (1/GPa) = 0.03075532
#
# Stress axis : x y z
#
# Youngs Moduli (GPa) = 74.94378 50.20615 143.23236
#
# Poissons Ratio (x) = 0.12918 0.17035
# Poissons Ratio (y) = 0.19282 0.14059
# Poissons Ratio (z) = 0.08913 0.04928
#
# Static dielectric constant tensor:
#      x y z
#    x 1.330830 0.000000 0.000000 
#    y 0.000000 1.746140 0.000000 
#    z 0.000000 0.000000 1.810580 
# 
# From -- ./inp_files/64778.got.cif
#   From: 2010.05.17/outbox.cif.g08.bks.cpg/sg65_33_cif.got.tgz:64778.got - 2010.06.03 17:01:31.
