data_PCOD9483436
_publ_section_title
;
Structure prediction by ZEFSAII (Michael W. Deem and Ramdas Pophale) SiO2 
 PCOD9483436
Probable space group: C M M M
;
_chemical_formula_sum "Si O2"
_cell_formula_units_Z 104
_cell_length_a 28.236578
_cell_length_b 8.427703
_cell_length_c 27.691356
_cell_angle_alpha 90.000000
_cell_angle_beta 90.000000
_cell_angle_gamma 90.000000
_cell_volume 6589.697951
_symmetry_space_group_name_H-M "C M M M"
_symmetry_group_IT_number 65
_symmetry_cell_setting 'orthorhombic'
loop_
_space_group_symop_operation_xyz
x,y,z
-x,-y,z
x,-y,-z
-x,y,-z
-x,-y,-z
x,y,-z
-x,y,z
x,-y,z
1/2+x,1/2+y,z
1/2-x,1/2-y,z
1/2+x,1/2-y,-z
1/2-x,1/2+y,-z
1/2-x,1/2-y,-z
1/2+x,1/2+y,-z
1/2-x,1/2+y,z
1/2+x,1/2-y,z
loop_
_atom_site_type_symbol
_atom_site_label
_atom_site_fract_x
_atom_site_fract_y
_atom_site_fract_z
Si Si1 0.304083 0.691273 0.500000
Si Si2 0.301896 0.689814 0.203956
Si Si3 0.103964 0.192000 0.849039
Si Si4 0.852691 0.310035 0.701308
Si Si5 0.553154 0.191733 0.754191
Si Si6 0.804190 0.809682 0.394410
Si Si7 0.054976 0.193377 0.054001
O O1 0.304866 0.500000 0.500000
O O2 0.250000 0.750000 0.500000
O O3 0.322961 0.742999 0.552462
O O4 0.301608 0.500000 0.205064
O O5 0.250000 0.750000 0.191194
O O6 0.343505 0.742860 0.167426
O O7 0.317362 0.750706 0.256781
O O8 0.068696 0.250273 0.807165
O O9 0.086959 0.248016 0.901491
O O10 0.103069 0.000000 0.848977
O O11 0.851946 0.500000 0.701365
O O12 0.905245 0.255783 0.717709
O O13 0.835577 0.250212 0.649679
O O14 0.500000 0.245864 0.742462
O O15 0.553337 0.000000 0.754418
O O16 0.750000 0.750000 0.388974
O O17 0.803002 0.000000 0.393326
O O18 0.000000 0.238450 0.061778
O O19 0.056108 0.000000 0.053974
O O20 0.069135 0.245223 0.000000
#
# Coordination Sequence:
#
# PCOD9483436 Si02
#       7
#     8  16  16  16  16  16  16
#     4   8  16  28  42  60  83 112 141 171 206 245
#     4  10  19  30  43  60  83 111 143 176 209 246
#     4   9  17  28  44  65  85 108 140 175 208 245
#     4  10  19  30  44  63  86 112 141 172 208 248
#     4   9  18  31  45  62  86 114 140 168 207 253
#     4  10  18  29  44  63  88 115 143 173 207 246
#     4   8  13  22  39  64  89 108 129 164 210 253
#
# _framework density 15.782209999999999
#
# number of rings (size 3 to 8) (size 9 to 14) (size 15 to 20)
#    0.000    2.769    0.000    2.769    0.000    2.769 
#    0.000    0.000    0.000    0.923    0.000    2.692 
#    0.000    4.308    0.000    0.000    0.000    0.462 
#
# Total GULP energy -289672.289370 kJ/mol
# GULP energy per Si atom -5570.620949 kJ/mol
# Density = 1.574629 g / cm^3
# Si number density = 15.782210 Si / 1000 Ang^3
#
#
#
# Elastic Constant Matrix: (Units=GPa)
#
#
# Indices 1 2 3 4 5 6 
#
# 1 98.8706 15.6713 72.2709 0.0000 0.0000 0.0000
# 2 15.6713 17.2063 18.9355 0.0000 0.0000 0.0000
# 3 72.2709 18.9355 164.2346 0.0000 0.0000 0.0000
# 4 0.0000 0.0000 0.0000 9.1500 0.0000 0.0000
# 5 0.0000 0.0000 0.0000 0.0000 20.9202 0.0000
# 6 0.0000 0.0000 0.0000 0.0000 0.0000 12.0168
#
#
#
# Elastic Compliance Matrix: (Units=1/GPa)
#
#
# Indices 1 2 3 4 5 6 
#
# 1 0.015752 -0.007695 -0.006045 0.000000 0.000000 0.000000
# 2 -0.007695 0.070323 -0.004722 0.000000 0.000000 0.000000
# 3 -0.006045 -0.004722 0.009293 0.000000 0.000000 0.000000
# 4 0.000000 0.000000 0.000000 0.109290 0.000000 0.000000
# 5 0.000000 0.000000 0.000000 0.000000 0.047801 0.000000
# 6 0.000000 0.000000 0.000000 0.000000 0.000000 0.083217
#
#
# Mechanical properties :
#
#
# Convention : Reuss Voigt Hill
#
# Bulk Modulus (GPa) = 17.10986 54.89633 36.00309
# Shear Modulus (GPa) = 12.75249 19.97965 16.36607
#
# Velocity S-wave (km/s) = 2.84567 3.56189 3.22373
# Velocity P-wave (km/s) = 4.65423 7.19551 6.05959
#
# Compressibility (1/GPa) = 0.05844584
#
# Stress axis : x y z
#
# Youngs Moduli (GPa) = 63.48300 14.22010 107.60636
#
# Poissons Ratio (x) = 0.10942 0.65043
# Poissons Ratio (y) = 0.48850 0.50809
# Poissons Ratio (z) = 0.38373 0.06714
#
# Static dielectric constant tensor:
#      x y z
#    x 1.522040 0.000000 0.000000 
#    y 0.000000 1.537300 0.000000 
#    z 0.000000 0.000000 1.538710 
# 
# From -- ./inp_files/76044.got.cif
#   From: 2010.05.17/outbox.cif.g08.bks.cpg/sg65_39_cif.got.tgz:76044.got - 2010.06.03 17:01:31.
