data_PCOD9483137
_publ_section_title
;
Structure prediction by ZEFSAII (Michael W. Deem and Ramdas Pophale) SiO2 
 PCOD9483137
Probable space group: C M M M
;
_chemical_formula_sum "Si O2"
_cell_formula_units_Z 88
_cell_length_a 27.553889
_cell_length_b 21.347792
_cell_length_c 7.595141
_cell_angle_alpha 90.000000
_cell_angle_beta 90.000000
_cell_angle_gamma 90.000000
_cell_volume 4467.573518
_symmetry_space_group_name_H-M "C M M M"
_symmetry_group_IT_number 65
_symmetry_cell_setting 'orthorhombic'
loop_
_space_group_symop_operation_xyz
x,y,z
-x,-y,z
x,-y,-z
-x,y,-z
-x,-y,-z
x,y,-z
-x,y,z
x,-y,z
1/2+x,1/2+y,z
1/2-x,1/2-y,z
1/2+x,1/2-y,-z
1/2-x,1/2+y,-z
1/2-x,1/2-y,-z
1/2+x,1/2+y,-z
1/2-x,1/2+y,z
1/2+x,1/2-y,z
loop_
_atom_site_type_symbol
_atom_site_label
_atom_site_fract_x
_atom_site_fract_y
_atom_site_fract_z
Si Si1 0.638840 0.268733 0.710231
Si Si2 0.440573 0.500000 0.203481
Si Si3 0.718788 0.635518 0.711187
Si Si4 0.330994 0.135221 0.716263
Si Si5 0.227933 0.000000 0.795995
Si Si6 0.055239 0.135775 0.212438
Si Si7 0.338435 0.000000 0.300249
O O1 0.645558 0.264655 0.500000
O O2 0.683190 0.311131 0.780493
O O3 0.641176 0.197428 0.774489
O O4 0.590337 0.307635 0.742518
O O5 0.500000 0.500000 0.201696
O O6 0.426929 0.432412 0.280721
O O7 0.423762 0.500000 0.000000
O O8 0.719740 0.640486 0.500000
O O9 0.774532 0.641869 0.770927
O O10 0.701712 0.565133 0.755825
O O11 0.331263 0.132142 0.500000
O O12 0.350330 0.067735 0.779617
O O13 0.279226 0.000000 0.693814
O O14 0.240900 0.000000 0.000000
O O15 0.000000 0.145839 0.273195
O O16 0.053869 0.130574 0.000000
O O17 0.357297 0.000000 0.500000
#
# Coordination Sequence:
#
# PCOD9483137 Si02
#       7
#    16   8  16  16   8  16   8
#     4  10  19  29  45  69  92 114 145 185 224 261
#     4   7  12  27  49  64  76 106 151 186 209 246
#     4   9  17  30  45  61  88 124 154 179 215 265
#     4   8  14  27  47  68  88 115 149 180 214 261
#     4  10  18  27  41  62  88 119 156 193 220 244
#     4   9  18  33  50  66  87 117 150 182 221 268
#     4   8  14  28  49  65  83 116 152 181 214 263
#
# _framework density 19.697493000000001
#
# number of rings (size 3 to 8) (size 9 to 14) (size 15 to 20)
#    0.000    3.182    0.000    3.545    0.000    4.000 
#    0.000    5.909    0.000    7.091    0.000    0.636 
#    0.000    5.091    0.000    0.000    0.000    0.000 
#
# Total GULP energy -245218.545764 kJ/mol
# GULP energy per Si atom -5573.148767 kJ/mol
# Density = 1.965266 g / cm^3
# Si number density = 19.697493 Si / 1000 Ang^3
#
#
#
# Elastic Constant Matrix: (Units=GPa)
#
#
# Indices 1 2 3 4 5 6 
#
# 1 50.8584 71.0581 -0.9162 0.0000 0.0000 0.0000
# 2 71.0581 243.4540 3.2542 0.0000 0.0000 0.0000
# 3 -0.9162 3.2542 45.8159 0.0000 0.0000 0.0000
# 4 0.0000 0.0000 0.0000 22.1430 0.0000 0.0000
# 5 0.0000 0.0000 0.0000 0.0000 16.7730 0.0000
# 6 0.0000 0.0000 0.0000 0.0000 0.0000 -85.1087
#
#
#
# Elastic Compliance Matrix: (Units=1/GPa)
#
#
# Indices 1 2 3 4 5 6 
#
# 1 0.033286 -0.009734 0.001357 0.000000 0.000000 0.000000
# 2 -0.009734 0.006958 -0.000689 0.000000 0.000000 0.000000
# 3 0.001357 -0.000689 0.021903 0.000000 0.000000 0.000000
# 4 0.000000 0.000000 0.000000 0.045161 0.000000 0.000000
# 5 0.000000 0.000000 0.000000 0.000000 0.059620 0.000000
# 6 0.000000 0.000000 0.000000 0.000000 0.000000 -0.011750
#
#
# Mechanical properties :
#
#
# Convention : Reuss Voigt Hill
#
# Bulk Modulus (GPa) = 22.71914 54.10229 38.41072
# Shear Modulus (GPa) = 26.59848 8.54360 17.57104
#
# Velocity S-wave (km/s) = 3.67870 2.08490 2.98995
# Velocity P-wave (km/s) = 5.44085 5.77252 5.60913
#
# Compressibility (1/GPa) = 0.04401575
#
# Stress axis : x y z
#
# Youngs Moduli (GPa) = 30.04228 143.72451 45.65682
#
# Poissons Ratio (x) = 1.39896 -0.06195
# Poissons Ratio (y) = 0.29242 0.03145
# Poissons Ratio (z) = -0.04077 0.09900
#
# Static dielectric constant tensor:
#      x y z
#    x 1.658350 0.000000 0.000000 
#    y 0.000000 1.757160 0.000000 
#    z 0.000000 0.000000 1.751900 
# 
# From -- ./inp_files/18571.got.cif
#   From: 2010.05.17/outbox.cif.g08.bks.cpg/sg65_10_cif.got.tgz:18571.got - 2010.06.03 17:01:31.
