data_PCOD9483550
_publ_section_title
;
Structure prediction by ZEFSAII (Michael W. Deem and Ramdas Pophale) SiO2 
 PCOD9483550
Probable space group: C M M M
;
_chemical_formula_sum "Si O2"
_cell_formula_units_Z 104
_cell_length_a 28.289405
_cell_length_b 23.154895
_cell_length_c 7.674780
_cell_angle_alpha 90.000000
_cell_angle_beta 90.000000
_cell_angle_gamma 90.000000
_cell_volume 5027.274095
_symmetry_space_group_name_H-M "C M M M"
_symmetry_group_IT_number 65
_symmetry_cell_setting 'orthorhombic'
loop_
_space_group_symop_operation_xyz
x,y,z
-x,-y,z
x,-y,-z
-x,y,-z
-x,-y,-z
x,y,-z
-x,y,z
x,-y,z
1/2+x,1/2+y,z
1/2-x,1/2-y,z
1/2+x,1/2-y,-z
1/2-x,1/2+y,-z
1/2-x,1/2-y,-z
1/2+x,1/2+y,-z
1/2-x,1/2+y,z
1/2+x,1/2-y,z
loop_
_atom_site_type_symbol
_atom_site_label
_atom_site_fract_x
_atom_site_fract_y
_atom_site_fract_z
Si Si1 0.054434 0.253971 0.710594
Si Si2 0.094089 0.128713 0.210226
Si Si3 0.500000 0.433861 0.786866
Si Si4 0.371485 0.159254 0.698354
Si Si5 0.697879 0.255685 0.202133
Si Si6 0.297572 0.065306 0.292331
Si Si7 0.807109 0.893135 0.198346
O O1 0.053659 0.257241 0.500000
O O2 0.084556 0.196696 0.756039
O O3 0.081112 0.311958 0.776883
O O4 0.000000 0.248414 0.771288
O O5 0.046961 0.097828 0.274082
O O6 0.141196 0.096393 0.280300
O O7 0.097155 0.123408 0.000000
O O8 0.500000 0.500000 0.736013
O O9 0.500000 0.431087 0.000000
O O10 0.383029 0.141742 0.500000
O O11 0.337313 0.215026 0.696677
O O12 0.338292 0.108771 0.777091
O O13 0.750000 0.250000 0.276132
O O14 0.689619 0.323563 0.197764
O O15 0.697604 0.235102 0.000000
O O16 0.304659 0.063339 0.500000
O O17 0.243716 0.087985 0.269587
O O18 0.301190 0.000000 0.223261
O O19 0.806823 0.915124 0.000000
#
# Coordination Sequence:
#
# PCOD9483550 Si02
#       7
#    16  16   8  16  16  16  16
#     4  10  20  33  51  77 106 131 160 208 267 317
#     4  10  19  32  53  77 101 133 171 211 252 296
#     4   9  18  32  49  69  95 131 174 211 240 280
#     4  10  20  33  52  75  99 133 171 207 254 311
#     4  10  18  29  47  74 105 129 155 199 250 296
#     4  10  22  38  53  71 100 139 179 214 249 300
#     4  10  20  32  50  78 106 133 166 208 254 300
#
# _framework density 20.687155000000001
#
# number of rings (size 3 to 8) (size 9 to 14) (size 15 to 20)
#    0.000    2.077    3.846    0.000    0.000    2.462 
#    0.000    1.538    0.000    1.385    0.000    3.231 
#    0.000    0.000    0.000    4.154    0.000    4.615 
#
# Total GULP energy -289676.876625 kJ/mol
# GULP energy per Si atom -5570.709166 kJ/mol
# Density = 2.064007 g / cm^3
# Si number density = 20.687155 Si / 1000 Ang^3
#
#
#
# Elastic Constant Matrix: (Units=GPa)
#
#
# Indices 1 2 3 4 5 6 
#
# 1 105.3103 46.5474 -0.5802 0.0000 0.0000 0.0000
# 2 46.5474 108.9649 0.0034 0.0000 0.0000 0.0000
# 3 -0.5802 0.0034 41.5157 0.0000 0.0000 0.0000
# 4 0.0000 0.0000 0.0000 6.2399 0.0000 0.0000
# 5 0.0000 0.0000 0.0000 0.0000 8.0453 0.0000
# 6 0.0000 0.0000 0.0000 0.0000 0.0000 12.9155
#
#
#
# Elastic Compliance Matrix: (Units=1/GPa)
#
#
# Indices 1 2 3 4 5 6 
#
# 1 0.011707 -0.005001 0.000164 0.000000 0.000000 0.000000
# 2 -0.005001 0.011314 -0.000071 0.000000 0.000000 0.000000
# 3 0.000164 -0.000071 0.024090 0.000000 0.000000 0.000000
# 4 0.000000 0.000000 0.000000 0.160259 0.000000 0.000000
# 5 0.000000 0.000000 0.000000 0.000000 0.124296 0.000000
# 6 0.000000 0.000000 0.000000 0.000000 0.000000 0.077426
#
#
# Mechanical properties :
#
#
# Convention : Reuss Voigt Hill
#
# Bulk Modulus (GPa) = 26.81350 38.63690 32.72520
# Shear Modulus (GPa) = 11.59183 19.42818 15.51001
#
# Velocity S-wave (km/s) = 2.36972 3.06787 2.74111
# Velocity P-wave (km/s) = 4.52515 5.59164 5.08642
#
# Compressibility (1/GPa) = 0.03729464
#
# Stress axis : x y z
#
# Youngs Moduli (GPa) = 85.41815 88.38922 41.51176
#
# Poissons Ratio (x) = 0.44204 -0.00681
# Poissons Ratio (y) = 0.42718 0.00294
# Poissons Ratio (z) = -0.01401 0.00626
#
# Static dielectric constant tensor:
#      x y z
#    x 1.833420 0.000000 0.000000 
#    y 0.000000 1.760490 0.000000 
#    z 0.000000 0.000000 1.797260 
# 
# From -- ./inp_files/18891.got.cif
#   From: 2010.05.17/outbox.cif.g08.bks.cpg/sg65_10_cif.got.tgz:18891.got - 2010.06.03 17:01:31.
