data_PCOD9483428
_publ_section_title
;
Structure prediction by ZEFSAII (Michael W. Deem and Ramdas Pophale) SiO2 
 PCOD9483428
Probable space group: C M M M
;
_chemical_formula_sum "Si O2"
_cell_formula_units_Z 112
_cell_length_a 31.548568
_cell_length_b 33.514669
_cell_length_c 9.155812
_cell_angle_alpha 90.000000
_cell_angle_beta 90.000000
_cell_angle_gamma 90.000000
_cell_volume 9680.804557
_symmetry_space_group_name_H-M "C M M M"
_symmetry_group_IT_number 65
_symmetry_cell_setting 'orthorhombic'
loop_
_space_group_symop_operation_xyz
x,y,z
-x,-y,z
x,-y,-z
-x,y,-z
-x,-y,-z
x,y,-z
-x,y,z
x,-y,z
1/2+x,1/2+y,z
1/2-x,1/2-y,z
1/2+x,1/2-y,-z
1/2-x,1/2+y,-z
1/2-x,1/2-y,-z
1/2+x,1/2+y,-z
1/2-x,1/2+y,z
1/2+x,1/2-y,z
loop_
_atom_site_type_symbol
_atom_site_label
_atom_site_fract_x
_atom_site_fract_y
_atom_site_fract_z
Si Si1 0.581384 0.000000 0.823735
Si Si2 0.882257 0.364984 0.173072
Si Si3 0.181330 0.500000 0.177197
Si Si4 0.162128 0.705360 0.331484
Si Si5 0.950232 0.580519 0.327054
Si Si6 0.251043 0.656133 0.667898
Si Si7 0.294156 0.913155 0.826403
Si Si8 0.794514 0.774717 0.831405
O O1 0.560707 0.960689 0.755002
O O2 0.631466 0.000000 0.786244
O O3 0.577331 0.000000 0.000000
O O4 0.869820 0.322390 0.241153
O O5 0.920889 0.385643 0.256202
O O6 0.840770 0.393327 0.192568
O O7 0.890157 0.362166 0.000000
O O8 0.202628 0.458764 0.225800
O O9 0.182867 0.500000 0.000000
O O10 0.149259 0.709809 0.500000
O O11 0.206857 0.681201 0.330623
O O12 0.172356 0.747423 0.255920
O O13 0.941180 0.576527 0.500000
O O14 0.000000 0.589170 0.309789
O O15 0.263713 0.651174 0.500000
O O16 0.239284 0.614503 0.743489
O O17 0.284207 0.683325 0.755370
O O18 0.285360 0.912281 0.000000
O O19 0.750000 0.750000 0.829525
O O20 0.806688 0.779500 0.000000
#
# Coordination Sequence:
#
# PCOD9483428 Si02
#       8
#     8  16   8  16  16  16  16  16
#     4  11  20  34  49  60  68  82 108 140 174 216
#     4  10  18  29  44  57  69  86 111 136 162 202
#     4   9  16  28  42  55  68  84 108 140 174 208
#     4   9  16  25  37  53  73  91 106 128 159 191
#     4  11  23  35  44  56  73  89 106 135 177 219
#     4   9  16  24  34  50  70  89 109 131 158 191
#     4   9  16  27  40  52  67  86 108 136 168 202
#     4   9  15  23  35  51  69  90 113 131 151 182
#
# _framework density 11.569286
#
# number of rings (size 3 to 8) (size 9 to 14) (size 15 to 20)
#    0.000    2.429    1.429    2.571    0.000    7.714 
#    0.000    0.357    0.000    0.000    0.000    0.000 
#    0.000    0.000    0.000    0.000    0.000    0.000 
#
# Total GULP energy -312069.544398 kJ/mol
# GULP energy per Si atom -5572.670436 kJ/mol
# Density = 1.154295 g / cm^3
# Si number density = 11.569286 Si / 1000 Ang^3
#
#
#
# Elastic Constant Matrix: (Units=GPa)
#
#
# Indices 1 2 3 4 5 6 
#
# 1 30.6629 40.9085 33.0586 0.0000 0.0000 0.0000
# 2 40.9085 88.2345 57.9671 0.0000 0.0000 0.0000
# 3 33.0586 57.9671 89.3418 0.0000 0.0000 0.0000
# 4 0.0000 0.0000 0.0000 15.6270 0.0000 0.0000
# 5 0.0000 0.0000 0.0000 0.0000 13.8819 0.0000
# 6 0.0000 0.0000 0.0000 0.0000 0.0000 4.1477
#
#
#
# Elastic Compliance Matrix: (Units=1/GPa)
#
#
# Indices 1 2 3 4 5 6 
#
# 1 0.091320 -0.035102 -0.011015 0.000000 0.000000 0.000000
# 2 -0.035102 0.033246 -0.008582 0.000000 0.000000 0.000000
# 3 -0.011015 -0.008582 0.020837 0.000000 0.000000 0.000000
# 4 0.000000 0.000000 0.000000 0.063992 0.000000 0.000000
# 5 0.000000 0.000000 0.000000 0.000000 0.072036 0.000000
# 6 0.000000 0.000000 0.000000 0.000000 0.000000 0.241099
#
#
# Mechanical properties :
#
#
# Convention : Reuss Voigt Hill
#
# Bulk Modulus (GPa) = 27.77491 52.45638 40.11565
# Shear Modulus (GPa) = 7.76480 11.81831 9.79155
#
# Velocity S-wave (km/s) = 2.59348 3.19960 2.91235
# Velocity P-wave (km/s) = 5.74698 7.68696 6.78665
#
# Compressibility (1/GPa) = 0.03600371
#
# Stress axis : x y z
#
# Youngs Moduli (GPa) = 10.95050 30.07845 47.99080
#
# Poissons Ratio (x) = 1.05582 0.52863
# Poissons Ratio (y) = 0.38439 0.41187
# Poissons Ratio (z) = 0.12062 0.25814
#
# Static dielectric constant tensor:
#      x y z
#    x 1.340730 0.000000 0.000000 
#    y 0.000000 1.371820 0.000000 
#    z 0.000000 0.000000 1.386510 
# 
# From -- ./inp_files/19216.got.cif
#   From: 2010.05.17/outbox.cif.g08.bks.cpg/sg65_10_cif.got.tgz:19216.got - 2010.06.03 17:01:31.
