data_PCOD9483504
_publ_section_title
;
Structure prediction by ZEFSAII (Michael W. Deem and Ramdas Pophale) SiO2 
 PCOD9483504
Probable space group: C M M M
;
_chemical_formula_sum "Si O2"
_cell_formula_units_Z 96
_cell_length_a 7.827714
_cell_length_b 26.739249
_cell_length_c 24.304694
_cell_angle_alpha 90.000000
_cell_angle_beta 90.000000
_cell_angle_gamma 90.000000
_cell_volume 5087.147296
_symmetry_space_group_name_H-M "C M M M"
_symmetry_group_IT_number 65
_symmetry_cell_setting 'orthorhombic'
loop_
_space_group_symop_operation_xyz
x,y,z
-x,-y,z
x,-y,-z
-x,y,-z
-x,-y,-z
x,y,-z
-x,y,z
x,-y,z
1/2+x,1/2+y,z
1/2-x,1/2-y,z
1/2+x,1/2-y,-z
1/2-x,1/2+y,-z
1/2-x,1/2-y,-z
1/2+x,1/2+y,-z
1/2-x,1/2+y,z
1/2+x,1/2-y,z
loop_
_atom_site_type_symbol
_atom_site_label
_atom_site_fract_x
_atom_site_fract_y
_atom_site_fract_z
Si Si1 0.209688 0.097385 0.436588
Si Si2 0.295268 0.000000 0.241380
Si Si3 0.790150 0.598777 0.823764
Si Si4 0.298058 0.306380 0.371580
Si Si5 0.208150 0.441782 0.938787
Si Si6 0.294115 0.500000 0.369438
Si Si7 0.297173 0.806361 0.243827
O O1 0.261977 0.093224 0.500000
O O2 0.272025 0.148790 0.408764
O O3 0.265778 0.049818 0.400769
O O4 0.000000 0.097468 0.436092
O O5 0.234167 0.050390 0.211357
O O6 0.254256 0.000000 0.305660
O O7 0.500000 0.000000 0.235354
O O8 0.735469 0.590553 0.886776
O O9 0.729079 0.649526 0.794876
O O10 0.000000 0.599178 0.823478
O O11 0.500000 0.309195 0.375865
O O12 0.250000 0.250000 0.387781
O O13 0.253935 0.313721 0.307428
O O14 0.256393 0.500000 0.930263
O O15 0.000000 0.440960 0.939043
O O16 0.265097 0.426477 0.000000
O O17 0.500000 0.500000 0.372287
O O18 0.500000 0.809493 0.242324
O O19 0.250000 0.750000 0.227321
#
# Coordination Sequence:
#
# PCOD9483504 Si02
#       7
#    16   8  16  16  16   8  16
#     4   9  18  32  50  70  90 116 150 186 223 265
#     4  10  18  29  46  69  98 122 141 178 232 280
#     4   9  16  26  42  66  94 122 151 183 227 275
#     4  10  19  32  50  70  92 116 147 188 230 272
#     4   8  12  20  37  62  93 123 149 182 225 269
#     4  10  19  32  50  69  91 119 153 186 216 262
#     4  10  19  31  47  66  91 123 155 186 222 268
#
# _framework density 18.871085999999998
#
# number of rings (size 3 to 8) (size 9 to 14) (size 15 to 20)
#    0.000    2.667    0.833    3.750    0.000    1.333 
#    0.000    1.667    0.000    5.000    0.000    0.000 
#    0.000    6.000    0.000    0.000    0.000    0.667 
#
# Total GULP energy -267769.558263 kJ/mol
# GULP energy per Si atom -5578.532464 kJ/mol
# Density = 1.882814 g / cm^3
# Si number density = 18.871086 Si / 1000 Ang^3
#
#
#
# Elastic Constant Matrix: (Units=GPa)
#
#
# Indices 1 2 3 4 5 6 
#
# 1 22.3345 5.3941 -1.2781 0.0000 0.0000 0.0000
# 2 5.3941 146.1102 102.2205 0.0000 0.0000 0.0000
# 3 -1.2781 102.2205 152.3189 0.0000 0.0000 0.0000
# 4 0.0000 0.0000 0.0000 11.5899 0.0000 0.0000
# 5 0.0000 0.0000 0.0000 0.0000 -9.7125 0.0000
# 6 0.0000 0.0000 0.0000 0.0000 0.0000 -0.4807
#
#
#
# Elastic Compliance Matrix: (Units=1/GPa)
#
#
# Indices 1 2 3 4 5 6 
#
# 1 0.045831 -0.003697 0.002865 0.000000 0.000000 0.000000
# 2 -0.003697 0.013200 -0.008889 0.000000 0.000000 0.000000
# 3 0.002865 -0.008889 0.012555 0.000000 0.000000 0.000000
# 4 0.000000 0.000000 0.000000 0.086282 0.000000 0.000000
# 5 0.000000 0.000000 0.000000 0.000000 -0.102961 0.000000
# 6 0.000000 0.000000 0.000000 0.000000 0.000000 -2.080321
#
#
# Mechanical properties :
#
#
# Convention : Reuss Voigt Hill
#
# Bulk Modulus (GPa) = 19.17766 59.27073 39.22420
# Shear Modulus (GPa) = -2.51434 14.57448 6.03007
#
# Velocity S-wave (km/s) = -1.15554 2.78208 1.78951
# Velocity P-wave (km/s) = 2.89899 6.46501 5.01001
#
# Compressibility (1/GPa) = 0.05214399
#
# Stress axis : x y z
#
# Youngs Moduli (GPa) = 21.81947 75.75969 79.65122
#
# Poissons Ratio (x) = 0.28005 -0.22823
# Poissons Ratio (y) = 0.08066 0.70804
# Poissons Ratio (z) = -0.06252 0.67345
#
# Static dielectric constant tensor:
#      x y z
#    x 1.696050 0.000000 0.000000 
#    y 0.000000 1.665430 0.000000 
#    z 0.000000 0.000000 1.650920 
# 
# From -- ./inp_files/68092.got.cif
#   From: 2010.05.17/outbox.cif.g08.bks.cpg/sg65_35_cif.got.tgz:68092.got - 2010.06.03 17:01:31.
