data_PCOD9483403
_publ_section_title
;
Structure prediction by ZEFSAII (Michael W. Deem and Ramdas Pophale) SiO2 
 PCOD9483403
Probable space group: C M M M
;
_chemical_formula_sum "Si O2"
_cell_formula_units_Z 88
_cell_length_a 22.978629
_cell_length_b 22.571764
_cell_length_c 9.495365
_cell_angle_alpha 90.000000
_cell_angle_beta 90.000000
_cell_angle_gamma 90.000000
_cell_volume 4924.943786
_symmetry_space_group_name_H-M "C M M M"
_symmetry_group_IT_number 65
_symmetry_cell_setting 'orthorhombic'
loop_
_space_group_symop_operation_xyz
x,y,z
-x,-y,z
x,-y,-z
-x,y,-z
-x,-y,-z
x,y,-z
-x,y,z
x,-y,z
1/2+x,1/2+y,z
1/2-x,1/2-y,z
1/2+x,1/2-y,-z
1/2-x,1/2+y,-z
1/2-x,1/2-y,-z
1/2+x,1/2+y,-z
1/2-x,1/2+y,z
1/2+x,1/2-y,z
loop_
_atom_site_type_symbol
_atom_site_label
_atom_site_fract_x
_atom_site_fract_y
_atom_site_fract_z
Si Si1 0.629907 0.148594 0.164201
Si Si2 0.566858 0.500000 0.170047
Si Si3 0.888702 0.212461 0.836017
Si Si4 0.000000 0.342838 0.835328
Si Si5 0.166985 0.091169 0.165973
Si Si6 0.500000 0.721470 0.667000
Si Si7 0.716735 0.067160 0.665833
O O1 0.630128 0.219714 0.191510
O O2 0.562738 0.127232 0.183012
O O3 0.673356 0.113416 0.262426
O O4 0.645600 0.140180 0.000000
O O5 0.500000 0.500000 0.224107
O O6 0.607471 0.556617 0.206270
O O7 0.562318 0.500000 0.000000
O O8 0.840936 0.161774 0.819207
O O9 0.941965 0.195611 0.735599
O O10 0.907908 0.210530 0.000000
O O11 0.000000 0.288586 0.726968
O O12 0.000000 0.321643 0.000000
O O13 0.220905 0.071036 0.258591
O O14 0.177385 0.078293 0.000000
O O15 0.500000 0.719007 0.500000
O O16 0.722787 0.078728 0.500000
O O17 0.694389 0.000000 0.684303
#
# Coordination Sequence:
#
# PCOD9483403 Si02
#       7
#    16   8  16   8  16   8  16
#     4   9  18  35  59  84 111 142 182 225 273 333
#     4   9  18  32  55  89 115 138 185 236 271 311
#     4   9  19  34  54  82 112 144 181 232 285 325
#     4   8  16  34  57  83 113 142 174 223 277 322
#     4  10  20  36  60  83 109 145 188 234 276 324
#     4  10  18  28  48  78 114 152 185 215 261 333
#     4  11  24  40  56  76 109 149 186 226 278 335
#
# _framework density 17.868223
#
# number of rings (size 3 to 8) (size 9 to 14) (size 15 to 20)
#    0.000    2.455    0.909    2.455    1.273    5.455 
#    0.000    4.091    0.000    3.273    0.000    0.000 
#    0.000    0.000    0.000    0.000    0.000    0.000 
#
# Total GULP energy -245163.020715 kJ/mol
# GULP energy per Si atom -5571.886834 kJ/mol
# Density = 1.782755 g / cm^3
# Si number density = 17.868223 Si / 1000 Ang^3
#
#
#
# Elastic Constant Matrix: (Units=GPa)
#
#
# Indices 1 2 3 4 5 6 
#
# 1 97.0814 57.6648 47.5514 0.0000 0.0000 0.0000
# 2 57.6648 81.0383 56.7763 0.0000 0.0000 0.0000
# 3 47.5514 56.7763 74.6767 0.0000 0.0000 0.0000
# 4 0.0000 0.0000 0.0000 15.6835 0.0000 0.0000
# 5 0.0000 0.0000 0.0000 0.0000 -6.8211 0.0000
# 6 0.0000 0.0000 0.0000 0.0000 0.0000 25.0042
#
#
#
# Elastic Compliance Matrix: (Units=1/GPa)
#
#
# Indices 1 2 3 4 5 6 
#
# 1 0.018321 -0.010406 -0.003754 0.000000 0.000000 0.000000
# 2 -0.010406 0.032316 -0.017943 0.000000 0.000000 0.000000
# 3 -0.003754 -0.017943 0.029424 0.000000 0.000000 0.000000
# 4 0.000000 0.000000 0.000000 0.063761 0.000000 0.000000
# 5 0.000000 0.000000 0.000000 0.000000 -0.146604 0.000000
# 6 0.000000 0.000000 0.000000 0.000000 0.000000 0.039993
#
#
# Mechanical properties :
#
#
# Convention : Reuss Voigt Hill
#
# Bulk Modulus (GPa) = 63.07969 64.08681 63.58325
# Shear Modulus (GPa) = 46.85947 12.82693 29.84320
#
# Velocity S-wave (km/s) = 5.12659 2.68220 4.09122
# Velocity P-wave (km/s) = 8.39178 6.74807 7.61441
#
# Compressibility (1/GPa) = 0.01585296
#
# Stress axis : x y z
#
# Youngs Moduli (GPa) = 54.58346 30.94435 33.98626
#
# Poissons Ratio (x) = 0.32202 0.12758
# Poissons Ratio (y) = 0.56802 0.60983
# Poissons Ratio (z) = 0.20490 0.55524
#
# Static dielectric constant tensor:
#      x y z
#    x 1.626210 0.000000 0.000000 
#    y 0.000000 1.620040 0.000000 
#    z 0.000000 0.000000 1.583060 
# 
# From -- ./inp_files/14030.got.cif
#   From: 2010.05.17/outbox.cif.g08.bks.cpg/sg65_8_cif.got.tgz:14030.got - 2010.06.03 17:01:31.
