data_PCOD9483486
_publ_section_title
;
Structure prediction by ZEFSAII (Michael W. Deem and Ramdas Pophale) SiO2 
 PCOD9483486
Probable space group: C M M M
;
_chemical_formula_sum "Si O2"
_cell_formula_units_Z 80
_cell_length_a 9.171975
_cell_length_b 29.118755
_cell_length_c 21.281821
_cell_angle_alpha 90.000000
_cell_angle_beta 90.000000
_cell_angle_gamma 90.000000
_cell_volume 5683.874115
_symmetry_space_group_name_H-M "C M M M"
_symmetry_group_IT_number 65
_symmetry_cell_setting 'orthorhombic'
loop_
_space_group_symop_operation_xyz
x,y,z
-x,-y,z
x,-y,-z
-x,y,-z
-x,-y,-z
x,y,-z
-x,y,z
x,-y,z
1/2+x,1/2+y,z
1/2-x,1/2-y,z
1/2+x,1/2-y,-z
1/2-x,1/2+y,-z
1/2-x,1/2-y,-z
1/2+x,1/2+y,-z
1/2-x,1/2+y,z
1/2+x,1/2-y,z
loop_
_atom_site_type_symbol
_atom_site_label
_atom_site_fract_x
_atom_site_fract_y
_atom_site_fract_z
Si Si1 0.176063 0.111668 0.878419
Si Si2 0.173483 0.701689 0.925272
Si Si3 0.674673 0.553735 0.754798
Si Si4 0.667609 0.944149 0.373793
Si Si5 0.677075 0.447641 0.000000
Si Si6 0.168177 0.943992 0.500000
O O1 0.254877 0.160099 0.887231
O O2 0.212206 0.085160 0.814226
O O3 0.000000 0.117773 0.880813
O O4 0.219427 0.079744 0.937509
O O5 0.250000 0.750000 0.910127
O O6 0.000000 0.704354 0.915392
O O7 0.198858 0.693123 0.000000
O O8 0.500000 0.555668 0.745793
O O9 0.711382 0.500000 0.767335
O O10 0.753042 0.568741 0.690804
O O11 0.500000 0.929275 0.374556
O O12 0.750994 0.928865 0.436545
O O13 0.669065 0.000000 0.375051
O O14 0.730069 0.500000 0.000000
O O15 0.500000 0.449301 0.000000
O O16 0.000000 0.929881 0.500000
O O17 0.170659 0.000000 0.500000
#
# Coordination Sequence:
#
# PCOD9483486 Si02
#       6
#    16  16  16  16   8   8
#     4  10  18  29  46  65  85 110 142 179 217 256
#     4  10  20  33  49  66  84 104 132 172 220 270
#     4   9  17  28  41  59  84 115 149 180 210 249
#     4   9  16  25  37  54  77 107 142 178 214 251
#     4   9  16  26  42  63  84 109 144 181 212 245
#     4   9  15  23  37  55  75 101 136 179 218 251
#
# _framework density 14.074906
#
# number of rings (size 3 to 8) (size 9 to 14) (size 15 to 20)
#    0.000    2.600    1.000    2.100    0.000    7.600 
#    0.000    0.000    0.000    2.400    0.000    0.000 
#    0.000    0.000    0.000    0.900    0.000   12.100 
#
# Total GULP energy -222917.347055 kJ/mol
# GULP energy per Si atom -5572.933676 kJ/mol
# Density = 1.404287 g / cm^3
# Si number density = 14.074906 Si / 1000 Ang^3
#
#
#
# Elastic Constant Matrix: (Units=GPa)
#
#
# Indices 1 2 3 4 5 6 
#
# 1 65.9034 44.0575 69.9431 0.0000 0.0000 0.0000
# 2 44.0575 80.8047 59.1865 0.0000 0.0000 0.0000
# 3 69.9431 59.1865 144.1566 0.0000 0.0000 0.0000
# 4 0.0000 0.0000 0.0000 3.4246 0.0000 0.0000
# 5 0.0000 0.0000 0.0000 0.0000 16.0731 0.0000
# 6 0.0000 0.0000 0.0000 0.0000 0.0000 17.8763
#
#
#
# Elastic Compliance Matrix: (Units=1/GPa)
#
#
# Indices 1 2 3 4 5 6 
#
# 1 0.035968 -0.009765 -0.013442 0.000000 0.000000 0.000000
# 2 -0.009765 0.020349 -0.003617 0.000000 0.000000 0.000000
# 3 -0.013442 -0.003617 0.014944 0.000000 0.000000 0.000000
# 4 0.000000 0.000000 0.000000 0.292006 0.000000 0.000000
# 5 0.000000 0.000000 0.000000 0.000000 0.062216 0.000000
# 6 0.000000 0.000000 0.000000 0.000000 0.000000 0.055940
#
#
# Mechanical properties :
#
#
# Convention : Reuss Voigt Hill
#
# Bulk Modulus (GPa) = 56.77686 70.80432 63.79059
# Shear Modulus (GPa) = 9.24317 15.31997 12.28157
#
# Velocity S-wave (km/s) = 2.56542 3.30276 2.95716
# Velocity P-wave (km/s) = 7.01440 8.05971 7.55515
#
# Compressibility (1/GPa) = 0.01761281
#
# Stress axis : x y z
#
# Youngs Moduli (GPa) = 27.80283 49.14255 66.91827
#
# Poissons Ratio (x) = 0.47989 0.89950
# Poissons Ratio (y) = 0.27150 0.24203
# Poissons Ratio (z) = 0.37372 0.17774
#
# Static dielectric constant tensor:
#      x y z
#    x 1.469960 0.000000 0.000000 
#    y 0.000000 1.431990 0.000000 
#    z 0.000000 0.000000 1.453360 
# 
# From -- ./inp_files/50173.got.cif
#   From: 2010.05.17/outbox.cif.g08.bks.cpg/sg65_26_cif.got.tgz:50173.got - 2010.06.03 17:01:31.
