data_PCOD9483189
_publ_section_title
;
Structure prediction by ZEFSAII (Michael W. Deem and Ramdas Pophale) SiO2 
 PCOD9483189
Probable space group: C M M M
;
_chemical_formula_sum "Si O2"
_cell_formula_units_Z 72
_cell_length_a 32.144557
_cell_length_b 7.618125
_cell_length_c 15.004694
_cell_angle_alpha 90.000000
_cell_angle_beta 90.000000
_cell_angle_gamma 90.000000
_cell_volume 3674.368272
_symmetry_space_group_name_H-M "C M M M"
_symmetry_group_IT_number 65
_symmetry_cell_setting 'orthorhombic'
loop_
_space_group_symop_operation_xyz
x,y,z
-x,-y,z
x,-y,-z
-x,y,-z
-x,-y,-z
x,y,-z
-x,y,z
x,-y,z
1/2+x,1/2+y,z
1/2-x,1/2-y,z
1/2+x,1/2-y,-z
1/2-x,1/2+y,-z
1/2-x,1/2-y,-z
1/2+x,1/2+y,-z
1/2-x,1/2+y,z
1/2+x,1/2-y,z
loop_
_atom_site_type_symbol
_atom_site_label
_atom_site_fract_x
_atom_site_fract_y
_atom_site_fract_z
Si Si1 0.797078 0.292049 0.600339
Si Si2 0.453688 0.714210 0.396242
Si Si3 0.124260 0.791467 0.718483
Si Si4 0.591469 0.715539 0.100988
Si Si5 0.000000 0.801637 0.891745
O O1 0.803207 0.217419 0.500000
O O2 0.800205 0.500000 0.593919
O O3 0.750000 0.250000 0.628576
O O4 0.832832 0.235433 0.667402
O O5 0.448864 0.765151 0.500000
O O6 0.500000 0.768297 0.365534
O O7 0.453299 0.500000 0.394658
O O8 0.414944 0.778446 0.338265
O O9 0.122066 0.728151 0.820448
O O10 0.117812 0.000000 0.723403
O O11 0.589875 0.500000 0.097374
O O12 0.544917 0.775794 0.129130
O O13 0.600484 0.773452 0.000000
O O14 0.000000 0.000000 0.853976
O O15 0.000000 0.813254 0.000000
#
# Coordination Sequence:
#
# PCOD9483189 Si02
#       5
#    16  16  16  16   8
#     4  10  21  37  56  76  98 122 151 193 245 299
#     4   8  14  23  35  58  94 129 160 196 234 273
#     4  10  18  27  47  74  99 129 165 203 241 285
#     4   8  14  23  37  63  99 134 166 204 246 281
#     4   7  10  18  32  54  90 131 166 202 241 273
#
# _framework density 19.595206000000001
#
# number of rings (size 3 to 8) (size 9 to 14) (size 15 to 20)
#    0.000    3.222    0.000    3.333    1.556    2.222 
#    0.000    0.000    0.000    2.000    0.000    3.111 
#    0.000    2.667    0.000    0.000    0.000    0.000 
#
# Total GULP energy -200662.099216 kJ/mol
# GULP energy per Si atom -5573.947200 kJ/mol
# Density = 1.955061 g / cm^3
# Si number density = 19.595206 Si / 1000 Ang^3
#
#
#
# Elastic Constant Matrix: (Units=GPa)
#
#
# Indices 1 2 3 4 5 6 
#
# 1 140.2606 -5.0894 113.9792 0.0000 0.0000 0.0000
# 2 -5.0894 34.8488 6.2332 0.0000 0.0000 0.0000
# 3 113.9792 6.2332 138.2935 0.0000 0.0000 0.0000
# 4 0.0000 0.0000 0.0000 1.0222 0.0000 0.0000
# 5 0.0000 0.0000 0.0000 0.0000 27.0351 0.0000
# 6 0.0000 0.0000 0.0000 0.0000 0.0000 2.0309
#
#
#
# Elastic Compliance Matrix: (Units=1/GPa)
#
#
# Indices 1 2 3 4 5 6 
#
# 1 0.023097 0.006833 -0.019344 0.000000 0.000000 0.000000
# 2 0.006833 0.030950 -0.007027 0.000000 0.000000 0.000000
# 3 -0.019344 -0.007027 0.023491 0.000000 0.000000 0.000000
# 4 0.000000 0.000000 0.000000 0.978293 0.000000 0.000000
# 5 0.000000 0.000000 0.000000 0.000000 0.036989 0.000000
# 6 0.000000 0.000000 0.000000 0.000000 0.000000 0.492396
#
#
# Mechanical properties :
#
#
# Convention : Reuss Voigt Hill
#
# Bulk Modulus (GPa) = 25.99935 60.40542 43.20239
# Shear Modulus (GPa) = 3.05416 19.23630 11.14523
#
# Velocity S-wave (km/s) = 1.24980 3.13658 2.38748
# Velocity P-wave (km/s) = 3.92170 6.63409 5.44935
#
# Compressibility (1/GPa) = 0.03846249
#
# Stress axis : x y z
#
# Youngs Moduli (GPa) = 43.29533 32.31002 42.56957
#
# Poissons Ratio (x) = -0.22078 0.82348
# Poissons Ratio (y) = -0.29584 0.29913
# Poissons Ratio (z) = 0.83752 0.22704
#
# Static dielectric constant tensor:
#      x y z
#    x 1.787480 0.000000 0.000000 
#    y 0.000000 1.773560 0.000000 
#    z 0.000000 0.000000 1.724380 
# 
# From -- ./inp_files/47455.got.cif
#   From: 2010.05.17/outbox.cif.g08.bks.cpg/sg65_24_cif.got.tgz:47455.got - 2010.06.03 17:01:31.
