data_PCOD9483745
_publ_section_title
;
Structure prediction by ZEFSAII (Michael W. Deem and Ramdas Pophale) SiO2 
 PCOD9483745
Probable space group: C M M M
;
_chemical_formula_sum "Si O2"
_cell_formula_units_Z 104
_cell_length_a 28.226401
_cell_length_b 7.456392
_cell_length_c 24.341757
_cell_angle_alpha 90.000000
_cell_angle_beta 90.000000
_cell_angle_gamma 90.000000
_cell_volume 5123.139263
_symmetry_space_group_name_H-M "C M M M"
_symmetry_group_IT_number 65
_symmetry_cell_setting 'orthorhombic'
loop_
_space_group_symop_operation_xyz
x,y,z
-x,-y,z
x,-y,-z
-x,y,-z
-x,-y,-z
x,y,-z
-x,y,z
x,-y,z
1/2+x,1/2+y,z
1/2-x,1/2-y,z
1/2+x,1/2-y,-z
1/2-x,1/2+y,-z
1/2-x,1/2-y,-z
1/2+x,1/2+y,-z
1/2-x,1/2+y,z
1/2+x,1/2-y,z
loop_
_atom_site_type_symbol
_atom_site_label
_atom_site_fract_x
_atom_site_fract_y
_atom_site_fract_z
Si Si1 0.302769 0.785609 0.264999
Si Si2 0.608863 0.788770 0.667271
Si Si3 0.500000 0.215469 0.064875
Si Si4 0.197019 0.284781 0.139112
Si Si5 0.553753 0.285112 0.775146
Si Si6 0.445457 0.780998 0.562111
Si Si7 0.097762 0.295646 0.886459
O O1 0.250000 0.750000 0.285967
O O2 0.343641 0.713539 0.304662
O O3 0.304804 0.715494 0.202223
O O4 0.309221 0.000000 0.261223
O O5 0.569303 0.768407 0.714407
O O6 0.589054 0.715618 0.610075
O O7 0.617210 0.000000 0.658175
O O8 0.549609 0.287410 0.089071
O O9 0.500000 0.000000 0.076745
O O10 0.500000 0.241189 0.000000
O O11 0.191867 0.500000 0.141161
O O12 0.250000 0.250000 0.117593
O O13 0.150434 0.216817 0.107105
O O14 0.500000 0.227461 0.786533
O O15 0.556246 0.500000 0.779571
O O16 0.588031 0.204167 0.820997
O O17 0.432862 0.726784 0.500000
O O18 0.500000 0.727385 0.572789
O O19 0.445170 0.000000 0.563108
O O20 0.099360 0.500000 0.907772
#
# Coordination Sequence:
#
# PCOD9483745 Si02
#       7
#    16  16   8  16  16  16  16
#     4   9  17  28  42  63  91 120 156 191 233 289
#     4  10  18  30  48  68  91 123 160 196 238 289
#     4   9  18  32  55  83 103 127 166 209 246 279
#     4   9  17  29  45  69  96 128 164 198 239 291
#     4  11  22  31  42  68 103 130 156 191 238 292
#     4   8  14  25  43  68  92 114 148 195 240 280
#     4  10  18  32  53  73  99 131 164 201 241 287
#
# _framework density 20.300052000000001
#
# number of rings (size 3 to 8) (size 9 to 14) (size 15 to 20)
#    0.000    2.538    2.308    1.385    0.000    2.769 
#    0.000    0.000    0.000    2.308    0.000    2.154 
#    0.000    0.000    0.000    0.000    0.000    0.000 
#
# Total GULP energy -290026.752727 kJ/mol
# GULP energy per Si atom -5577.437552 kJ/mol
# Density = 2.025385 g / cm^3
# Si number density = 20.300052 Si / 1000 Ang^3
#
#
#
# Elastic Constant Matrix: (Units=GPa)
#
#
# Indices 1 2 3 4 5 6 
#
# 1 182.7869 5.8099 36.1340 0.0000 0.0000 0.0000
# 2 5.8099 61.7839 0.7261 0.0000 0.0000 0.0000
# 3 36.1340 0.7261 44.3366 0.0000 0.0000 0.0000
# 4 0.0000 0.0000 0.0000 -114.6718 0.0000 0.0000
# 5 0.0000 0.0000 0.0000 0.0000 11.6567 0.0000
# 6 0.0000 0.0000 0.0000 0.0000 0.0000 12.1290
#
#
#
# Elastic Compliance Matrix: (Units=1/GPa)
#
#
# Indices 1 2 3 4 5 6 
#
# 1 0.006540 -0.000552 -0.005321 0.000000 0.000000 0.000000
# 2 -0.000552 0.016235 0.000184 0.000000 0.000000 0.000000
# 3 -0.005321 0.000184 0.026888 0.000000 0.000000 0.000000
# 4 0.000000 0.000000 0.000000 -0.008721 0.000000 0.000000
# 5 0.000000 0.000000 0.000000 0.000000 0.085787 0.000000
# 6 0.000000 0.000000 0.000000 0.000000 0.000000 0.082447
#
#
# Mechanical properties :
#
#
# Convention : Reuss Voigt Hill
#
# Bulk Modulus (GPa) = 26.11967 41.58305 33.85136
# Shear Modulus (GPa) = 21.42994 -1.76139 9.83427
#
# Velocity S-wave (km/s) = 3.25262 -0.93250 2.20340
# Velocity P-wave (km/s) = 5.19622 4.40105 4.81508
#
# Compressibility (1/GPa) = 0.03828532
#
# Stress axis : x y z
#
# Youngs Moduli (GPa) = 152.89721 61.59444 37.19063
#
# Poissons Ratio (x) = 0.03403 0.19790
# Poissons Ratio (y) = 0.08447 -0.00686
# Poissons Ratio (z) = 0.81361 -0.01136
#
# Static dielectric constant tensor:
#      x y z
#    x 1.761980 0.000000 0.000000 
#    y 0.000000 1.787570 0.000000 
#    z 0.000000 0.000000 1.689660 
# 
# From -- ./inp_files/71842.got.cif
#   From: 2010.05.17/outbox.cif.g08.bks.cpg/sg65_36_cif.got.tgz:71842.got - 2010.06.03 17:01:31.
