data_PCOD9483991
_publ_section_title
;
Structure prediction by ZEFSAII (Michael W. Deem and Ramdas Pophale) SiO2 
 PCOD9483991
Probable space group: C M M M
;
_chemical_formula_sum "Si O2"
_cell_formula_units_Z 88
_cell_length_a 23.175353
_cell_length_b 23.522413
_cell_length_c 7.439687
_cell_angle_alpha 90.000000
_cell_angle_beta 90.000000
_cell_angle_gamma 90.000000
_cell_volume 4055.672643
_symmetry_space_group_name_H-M "C M M M"
_symmetry_group_IT_number 65
_symmetry_cell_setting 'orthorhombic'
loop_
_space_group_symop_operation_xyz
x,y,z
-x,-y,z
x,-y,-z
-x,y,-z
-x,-y,-z
x,y,-z
-x,y,z
x,-y,z
1/2+x,1/2+y,z
1/2-x,1/2-y,z
1/2+x,1/2-y,-z
1/2-x,1/2+y,-z
1/2-x,1/2-y,-z
1/2+x,1/2+y,-z
1/2-x,1/2+y,z
1/2+x,1/2-y,z
loop_
_atom_site_type_symbol
_atom_site_label
_atom_site_fract_x
_atom_site_fract_y
_atom_site_fract_z
Si Si1 0.376766 0.386854 0.210579
Si Si2 0.934416 0.437096 0.219031
Si Si3 0.500000 0.432774 0.780404
Si Si4 0.259635 0.562909 0.780306
Si Si5 0.188741 0.228443 0.704162
Si Si6 0.338812 0.850491 0.782109
O O1 0.440737 0.401371 0.281283
O O2 0.324728 0.425794 0.282746
O O3 0.350077 0.323008 0.222675
O O4 0.380506 0.400241 0.000000
O O5 0.915539 0.500000 0.274491
O O6 0.891375 0.389210 0.278450
O O7 0.000000 0.428367 0.276002
O O8 0.933950 0.436818 0.000000
O O9 0.500000 0.500000 0.731017
O O10 0.500000 0.430927 0.000000
O O11 0.239448 0.500000 0.726349
O O12 0.218775 0.615200 0.726307
O O13 0.259098 0.563631 0.000000
O O14 0.202238 0.211733 0.500000
O O15 0.250000 0.250000 0.789555
O O16 0.154832 0.287411 0.710411
O O17 0.338171 0.847374 0.000000
#
# Coordination Sequence:
#
# PCOD9483991 Si02
#       6
#    16  16   8  16  16  16
#     4  10  19  34  57  82 109 141 177 217 266 325
#     4   8  14  26  46  75 108 134 158 199 255 308
#     4   9  18  34  59  91 119 141 174 227 284 333
#     4   9  16  26  47  80 108 129 162 212 265 315
#     4  11  23  38  54  72 103 143 181 223 269 315
#     4  10  18  30  52  78 103 133 174 217 259 315
#
# _framework density 21.698001999999999
#
# number of rings (size 3 to 8) (size 9 to 14) (size 15 to 20)
#    0.000    2.455    1.818    2.182    0.000    5.091 
#    1.636    0.455    0.000    6.000    0.000    1.273 
#    0.000    0.000    0.000    0.000    0.000    0.000 
#
# Total GULP energy -245434.061839 kJ/mol
# GULP energy per Si atom -5578.046860 kJ/mol
# Density = 2.164862 g / cm^3
# Si number density = 21.698002 Si / 1000 Ang^3
#
#
#
# Elastic Constant Matrix: (Units=GPa)
#
#
# Indices 1 2 3 4 5 6 
#
# 1 102.7853 61.8835 -0.4391 0.0000 0.0000 0.0000
# 2 61.8835 128.1253 -5.3315 0.0000 0.0000 0.0000
# 3 -0.4391 -5.3315 66.3249 0.0000 0.0000 0.0000
# 4 0.0000 0.0000 0.0000 28.5579 0.0000 0.0000
# 5 0.0000 0.0000 0.0000 0.0000 -4.3997 0.0000
# 6 0.0000 0.0000 0.0000 0.0000 0.0000 19.9899
#
#
#
# Elastic Compliance Matrix: (Units=1/GPa)
#
#
# Indices 1 2 3 4 5 6 
#
# 1 0.013731 -0.006651 -0.000444 0.000000 0.000000 0.000000
# 2 -0.006651 0.011052 0.000844 0.000000 0.000000 0.000000
# 3 -0.000444 0.000844 0.015142 0.000000 0.000000 0.000000
# 4 0.000000 0.000000 0.000000 0.035017 0.000000 0.000000
# 5 0.000000 0.000000 0.000000 0.000000 -0.227289 0.000000
# 6 0.000000 0.000000 0.000000 0.000000 0.000000 0.050025
#
#
# Mechanical properties :
#
#
# Convention : Reuss Voigt Hill
#
# Bulk Modulus (GPa) = 36.46184 45.49569 40.97877
# Shear Modulus (GPa) = -61.97277 24.90447 -18.53415
#
# Velocity S-wave (km/s) = -5.35009 3.39156 -2.92582
# Velocity P-wave (km/s) = 4.61779 6.02911 2.74100
#
# Compressibility (1/GPa) = 0.02742593
#
# Stress axis : x y z
#
# Youngs Moduli (GPa) = 72.82709 90.48025 66.04046
#
# Poissons Ratio (x) = 0.60174 0.02930
# Poissons Ratio (y) = 0.48434 -0.05576
# Poissons Ratio (z) = 0.03231 -0.07640
#
# Static dielectric constant tensor:
#      x y z
#    x 1.807690 0.000000 0.000000 
#    y 0.000000 1.769210 0.000000 
#    z 0.000000 0.000000 1.873660 
# 
# From -- ./inp_files/11767.got.cif
#   From: 2010.05.17/outbox.cif.g08.bks.cpg/sg65_6_cif.got.tgz:11767.got - 2010.06.03 17:01:31.
