data_PCOD9483404
_publ_section_title
;
Structure prediction by ZEFSAII (Michael W. Deem and Ramdas Pophale) SiO2 
 PCOD9483404
Probable space group: C M M M
;
_chemical_formula_sum "Si O2"
_cell_formula_units_Z 104
_cell_length_a 21.568462
_cell_length_b 19.141137
_cell_length_c 14.867926
_cell_angle_alpha 90.000000
_cell_angle_beta 90.000000
_cell_angle_gamma 90.000000
_cell_volume 6138.147215
_symmetry_space_group_name_H-M "C M M M"
_symmetry_group_IT_number 65
_symmetry_cell_setting 'orthorhombic'
loop_
_space_group_symop_operation_xyz
x,y,z
-x,-y,z
x,-y,-z
-x,y,-z
-x,-y,-z
x,y,-z
-x,y,z
x,-y,z
1/2+x,1/2+y,z
1/2-x,1/2-y,z
1/2+x,1/2-y,-z
1/2-x,1/2+y,-z
1/2-x,1/2-y,-z
1/2+x,1/2+y,-z
1/2-x,1/2+y,z
1/2+x,1/2-y,z
loop_
_atom_site_type_symbol
_atom_site_label
_atom_site_fract_x
_atom_site_fract_y
_atom_site_fract_z
Si Si1 0.069788 0.728874 0.602729
Si Si2 0.500000 0.916477 0.104780
Si Si3 0.339133 0.578945 0.892429
Si Si4 0.897141 0.337133 0.782869
Si Si5 0.698098 0.311905 0.598991
Si Si6 0.746145 0.165271 0.218959
Si Si7 0.926230 0.201277 0.895196
O O1 0.073900 0.701584 0.500000
O O2 0.077446 0.672750 0.681893
O O3 0.129217 0.779957 0.612475
O O4 0.000000 0.759840 0.612467
O O5 0.559666 0.886512 0.157096
O O6 0.500000 0.000000 0.106068
O O7 0.500000 0.892817 0.000000
O O8 0.340683 0.500000 0.856757
O O9 0.281223 0.623490 0.857926
O O10 0.398451 0.626468 0.869103
O O11 0.337048 0.574854 0.000000
O O12 0.825329 0.356225 0.777751
O O13 0.900785 0.261401 0.830976
O O14 0.699658 0.345914 0.500000
O O15 0.750000 0.250000 0.595853
O O16 0.719027 0.352594 0.687422
O O17 0.750000 0.250000 0.206674
O O18 0.000000 0.201939 0.888648
O O19 0.909405 0.215261 0.000000
#
# Coordination Sequence:
#
# PCOD9483404 Si02
#       7
#    16   8  16  16  16  16  16
#     4  10  18  28  48  81 115 145 181 229 279 328
#     4  11  26  44  59  79 110 148 189 236 293 349
#     4  10  22  37  51  74 109 142 176 225 281 330
#     4  12  20  34  58  81 108 140 186 232 268 323
#     4   9  16  29  50  80 115 145 179 229 284 330
#     4  11  20  33  54  83 108 143 188 227 270 328
#     4  10  19  32  54  80 102 134 178 224 270 319
#
# _framework density 16.943223
#
# number of rings (size 3 to 8) (size 9 to 14) (size 15 to 20)
#    0.000    1.615    6.154    0.462    0.000    2.462 
#    0.000    3.077    0.000    1.385    0.000    2.154 
#    0.000    0.000    0.000   18.769    0.000    0.308 
#
# Total GULP energy -289704.082626 kJ/mol
# GULP energy per Si atom -5571.232358 kJ/mol
# Density = 1.690466 g / cm^3
# Si number density = 16.943223 Si / 1000 Ang^3
#
#
#
# Elastic Constant Matrix: (Units=GPa)
#
#
# Indices 1 2 3 4 5 6 
#
# 1 102.6685 2.2942 35.7853 0.0000 0.0000 0.0000
# 2 2.2942 52.0518 29.7103 0.0000 0.0000 0.0000
# 3 35.7853 29.7103 74.5416 0.0000 0.0000 0.0000
# 4 0.0000 0.0000 0.0000 4.2213 0.0000 0.0000
# 5 0.0000 0.0000 0.0000 0.0000 19.2456 0.0000
# 6 0.0000 0.0000 0.0000 0.0000 0.0000 12.6157
#
#
#
# Elastic Compliance Matrix: (Units=1/GPa)
#
#
# Indices 1 2 3 4 5 6 
#
# 1 0.012206 0.003633 -0.007308 0.000000 0.000000 0.000000
# 2 0.003633 0.025951 -0.012088 0.000000 0.000000 0.000000
# 3 -0.007308 -0.012088 0.021741 0.000000 0.000000 0.000000
# 4 0.000000 0.000000 0.000000 0.236896 0.000000 0.000000
# 5 0.000000 0.000000 0.000000 0.000000 0.051960 0.000000
# 6 0.000000 0.000000 0.000000 0.000000 0.000000 0.079267
#
#
# Mechanical properties :
#
#
# Convention : Reuss Voigt Hill
#
# Bulk Modulus (GPa) = 35.24355 40.53792 37.89074
# Shear Modulus (GPa) = 10.66091 17.98131 14.32111
#
# Velocity S-wave (km/s) = 2.51114 3.26125 2.91046
# Velocity P-wave (km/s) = 5.40868 6.17727 5.80571
#
# Compressibility (1/GPa) = 0.02837398
#
# Stress axis : x y z
#
# Youngs Moduli (GPa) = 81.92637 38.53433 45.99513
#
# Poissons Ratio (x) = -0.14000 0.33613
# Poissons Ratio (y) = -0.29766 0.55597
# Poissons Ratio (z) = 0.59871 0.46579
#
# Static dielectric constant tensor:
#      x y z
#    x 1.589420 0.000000 0.000000 
#    y 0.000000 1.549320 0.000000 
#    z 0.000000 0.000000 1.620990 
# 
# From -- ./inp_files/45949.got.cif
#   From: 2010.05.17/outbox.cif.g08.bks.cpg/sg65_23_cif.got.tgz:45949.got - 2010.06.03 17:01:31.
