data_PCOD9483831
_publ_section_title
;
Structure prediction by ZEFSAII (Michael W. Deem and Ramdas Pophale) SiO2 
 PCOD9483831
Probable space group: C M M M
;
_chemical_formula_sum "Si O2"
_cell_formula_units_Z 104
_cell_length_a 20.172788
_cell_length_b 8.617999
_cell_length_c 34.264288
_cell_angle_alpha 90.000000
_cell_angle_beta 90.000000
_cell_angle_gamma 90.000000
_cell_volume 5956.814494
_symmetry_space_group_name_H-M "C M M M"
_symmetry_group_IT_number 65
_symmetry_cell_setting 'orthorhombic'
loop_
_space_group_symop_operation_xyz
x,y,z
-x,-y,z
x,-y,-z
-x,y,-z
-x,-y,-z
x,y,-z
-x,y,z
x,-y,z
1/2+x,1/2+y,z
1/2-x,1/2-y,z
1/2+x,1/2-y,-z
1/2-x,1/2+y,-z
1/2-x,1/2-y,-z
1/2+x,1/2+y,-z
1/2-x,1/2+y,z
1/2+x,1/2-y,z
loop_
_atom_site_type_symbol
_atom_site_label
_atom_site_fract_x
_atom_site_fract_y
_atom_site_fract_z
Si Si1 0.576429 0.687116 0.348907
Si Si2 0.323309 0.185654 0.891793
Si Si3 0.576658 0.312845 0.044327
Si Si4 0.175016 0.813192 0.418140
Si Si5 0.325231 0.185491 0.500000
Si Si6 0.076223 0.687414 0.263946
Si Si7 0.176692 0.312530 0.802963
O O1 0.500000 0.736201 0.356581
O O2 0.577029 0.500000 0.347409
O O3 0.627284 0.734651 0.382688
O O4 0.595958 0.751026 0.306505
O O5 0.250000 0.250000 0.900117
O O6 0.375234 0.245230 0.923316
O O7 0.340920 0.234559 0.847345
O O8 0.321180 0.000000 0.892764
O O9 0.500000 0.267505 0.051007
O O10 0.579623 0.500000 0.045699
O O11 0.594732 0.265388 0.000000
O O12 0.250000 0.750000 0.412874
O O13 0.147002 0.749359 0.459270
O O14 0.178090 0.000000 0.420097
O O15 0.250000 0.250000 0.500000
O O16 0.324815 0.000000 0.500000
O O17 0.077690 0.500000 0.264859
O O18 0.124431 0.740648 0.229438
O O19 0.000000 0.735799 0.256929
O O20 0.178445 0.500000 0.802141
O O21 0.250000 0.250000 0.794521
#
# Coordination Sequence:
#
# PCOD9483831 Si02
#       7
#    16  16  16  16   8  16  16
#     4   9  19  35  52  71  97 129 164 201 240 284
#     4  10  20  34  53  76 103 135 170 209 251 299
#     4   9  19  36  55  75 102 134 167 207 254 301
#     4  10  19  32  51  73  98 127 160 199 241 286
#     4  10  18  30  49  72  99 127 159 199 239 284
#     4   9  18  33  52  72  96 128 163 199 242 290
#     4   9  19  34  51  73 101 131 163 202 247 292
#
# _framework density 17.458995999999999
#
# number of rings (size 3 to 8) (size 9 to 14) (size 15 to 20)
#    0.000    2.615    0.000    3.000    0.000    4.615 
#    0.000    5.769    0.000    4.154    0.000    0.000 
#    0.000    0.000    0.000    0.000    0.000    0.000 
#
# Total GULP energy -289955.881466 kJ/mol
# GULP energy per Si atom -5576.074644 kJ/mol
# Density = 1.741926 g / cm^3
# Si number density = 17.458996 Si / 1000 Ang^3
#
#
#
# Elastic Constant Matrix: (Units=GPa)
#
#
# Indices 1 2 3 4 5 6 
#
# 1 99.9072 30.3451 124.0286 0.0000 0.0000 0.0000
# 2 30.3451 32.8172 41.5085 0.0000 0.0000 0.0000
# 3 124.0286 41.5085 194.6077 0.0000 0.0000 0.0000
# 4 0.0000 0.0000 0.0000 29.7220 0.0000 0.0000
# 5 0.0000 0.0000 0.0000 0.0000 86.1621 0.0000
# 6 0.0000 0.0000 0.0000 0.0000 0.0000 24.5637
#
#
#
# Elastic Compliance Matrix: (Units=1/GPa)
#
#
# Indices 1 2 3 4 5 6 
#
# 1 0.049434 -0.008026 -0.029794 0.000000 0.000000 0.000000
# 2 -0.008026 0.043033 -0.004064 0.000000 0.000000 0.000000
# 3 -0.029794 -0.004064 0.024994 0.000000 0.000000 0.000000
# 4 0.000000 0.000000 0.000000 0.033645 0.000000 0.000000
# 5 0.000000 0.000000 0.000000 0.000000 0.011606 0.000000
# 6 0.000000 0.000000 0.000000 0.000000 0.000000 0.040710
#
#
# Mechanical properties :
#
#
# Convention : Reuss Voigt Hill
#
# Bulk Modulus (GPa) = 29.67868 79.89961 54.78915
# Shear Modulus (GPa) = 16.75487 36.85289 26.80388
#
# Velocity S-wave (km/s) = 3.10121 4.59936 3.92247
# Velocity P-wave (km/s) = 5.46437 8.60633 7.20862
#
# Compressibility (1/GPa) = 0.03369422
#
# Stress axis : x y z
#
# Youngs Moduli (GPa) = 20.22880 23.23811 40.00993
#
# Poissons Ratio (x) = 0.18651 1.19206
# Poissons Ratio (y) = 0.16235 0.16258
# Poissons Ratio (z) = 0.60270 0.09443
#
# Static dielectric constant tensor:
#      x y z
#    x 1.584630 0.000000 0.000000 
#    y 0.000000 1.592980 0.000000 
#    z 0.000000 0.000000 1.597630 
# 
# From -- ./inp_files/73329.got.cif
#   From: 2010.05.17/outbox.cif.g08.bks.cpg/sg65_37_cif.got.tgz:73329.got - 2010.06.03 17:01:31.
