data_PCOD9483150
_publ_section_title
;
Structure prediction by ZEFSAII (Michael W. Deem and Ramdas Pophale) SiO2 
 PCOD9483150
Probable space group: C M M M
;
_chemical_formula_sum "Si O2"
_cell_formula_units_Z 104
_cell_length_a 14.558530
_cell_length_b 15.223120
_cell_length_c 23.875845
_cell_angle_alpha 90.000000
_cell_angle_beta 90.000000
_cell_angle_gamma 90.000000
_cell_volume 5291.513974
_symmetry_space_group_name_H-M "C M M M"
_symmetry_group_IT_number 65
_symmetry_cell_setting 'orthorhombic'
loop_
_space_group_symop_operation_xyz
x,y,z
-x,-y,z
x,-y,-z
-x,y,-z
-x,-y,-z
x,y,-z
-x,y,z
x,-y,z
1/2+x,1/2+y,z
1/2-x,1/2-y,z
1/2+x,1/2-y,-z
1/2-x,1/2+y,-z
1/2-x,1/2-y,-z
1/2+x,1/2+y,-z
1/2-x,1/2+y,z
1/2+x,1/2-y,z
loop_
_atom_site_type_symbol
_atom_site_label
_atom_site_fract_x
_atom_site_fract_y
_atom_site_fract_z
Si Si1 0.652147 0.100809 0.156757
Si Si2 0.387825 0.898553 0.621634
Si Si3 0.396345 0.404149 0.260191
Si Si4 0.368821 0.405347 0.869944
Si Si5 0.893302 0.392877 0.500000
Si Si6 0.612082 0.209854 0.269332
Si Si7 0.861444 0.735429 0.935986
O O1 0.759533 0.096783 0.141150
O O2 0.640713 0.157937 0.213186
O O3 0.611829 0.155492 0.104725
O O4 0.619295 0.000000 0.163693
O O5 0.500000 0.897662 0.619361
O O6 0.353945 0.866557 0.560466
O O7 0.360889 0.842603 0.675167
O O8 0.360456 0.000000 0.629128
O O9 0.500000 0.405187 0.284153
O O10 0.352826 0.500000 0.273413
O O11 0.405294 0.400379 0.193007
O O12 0.352524 0.310191 0.273824
O O13 0.392214 0.500000 0.894779
O O14 0.396626 0.324716 0.907991
O O15 0.893263 0.500000 0.500000
O O16 0.000000 0.364890 0.500000
O O17 0.500000 0.214119 0.266913
O O18 0.750000 0.750000 0.935882
O O19 0.889084 0.722514 0.000000
#
# Coordination Sequence:
#
# PCOD9483150 Si02
#       7
#    16  16  16  16   8  16  16
#     4  10  19  29  43  63  86 111 137 170 208 249
#     4   8  13  21  34  55  83 113 143 171 200 239
#     4   9  17  29  45  63  82 105 134 170 213 256
#     4   9  17  30  47  64  82 104 132 173 218 255
#     4   7  10  18  32  50  77 112 143 171 201 231
#     4  10  18  27  42  63  87 116 144 171 206 245
#     4   9  17  29  44  62  83 107 136 171 209 250
#
# _framework density 19.654108999999998
#
# number of rings (size 3 to 8) (size 9 to 14) (size 15 to 20)
#    0.000    3.000    1.538    1.385    0.000    1.538 
#    0.000    3.077    0.000    1.846    0.000    3.769 
#    0.000    6.769    0.000    5.923    0.000    8.538 
#
# Total GULP energy -289714.359579 kJ/mol
# GULP energy per Si atom -5571.429992 kJ/mol
# Density = 1.960938 g / cm^3
# Si number density = 19.654109 Si / 1000 Ang^3
#
#
#
# Elastic Constant Matrix: (Units=GPa)
#
#
# Indices 1 2 3 4 5 6 
#
# 1 46.8879 11.7084 5.1040 0.0000 0.0000 0.0000
# 2 11.7084 183.0617 92.6903 0.0000 0.0000 0.0000
# 3 5.1040 92.6903 152.1422 0.0000 0.0000 0.0000
# 4 0.0000 0.0000 0.0000 26.1116 0.0000 0.0000
# 5 0.0000 0.0000 0.0000 0.0000 9.2200 0.0000
# 6 0.0000 0.0000 0.0000 0.0000 0.0000 0.0287
#
#
#
# Elastic Compliance Matrix: (Units=1/GPa)
#
#
# Indices 1 2 3 4 5 6 
#
# 1 0.021677 -0.001472 0.000170 0.000000 0.000000 0.000000
# 2 -0.001472 0.007999 -0.004824 0.000000 0.000000 0.000000
# 3 0.000170 -0.004824 0.009506 0.000000 0.000000 0.000000
# 4 0.000000 0.000000 0.000000 0.038297 0.000000 0.000000
# 5 0.000000 0.000000 0.000000 0.000000 0.108460 0.000000
# 6 0.000000 0.000000 0.000000 0.000000 0.000000 34.871601
#
#
# Mechanical properties :
#
#
# Convention : Reuss Voigt Hill
#
# Bulk Modulus (GPa) = 37.13495 66.78858 51.96176
# Shear Modulus (GPa) = 0.14254 25.24465 12.69359
#
# Velocity S-wave (km/s) = 0.26959 3.58781 2.54411
# Velocity P-wave (km/s) = 4.36259 7.15674 5.92668
#
# Compressibility (1/GPa) = 0.02692881
#
# Stress axis : x y z
#
# Youngs Moduli (GPa) = 46.13258 125.00873 105.19517
#
# Poissons Ratio (x) = 0.18406 -0.01787
# Poissons Ratio (y) = 0.06793 0.50748
# Poissons Ratio (z) = -0.00783 0.60306
#
# Static dielectric constant tensor:
#      x y z
#    x 1.861010 0.000000 0.000000 
#    y 0.000000 1.723390 0.000000 
#    z 0.000000 0.000000 1.661970 
# 
# From -- ./inp_files/63081.got.cif
#   From: 2010.05.17/outbox.cif.g08.bks.cpg/sg65_32_cif.got.tgz:63081.got - 2010.06.03 17:01:31.
