data_PCOD9483402
_publ_section_title
;
Structure prediction by ZEFSAII (Michael W. Deem and Ramdas Pophale) SiO2 
 PCOD9483402
Probable space group: C M M M
;
_chemical_formula_sum "Si O2"
_cell_formula_units_Z 72
_cell_length_a 26.151932
_cell_length_b 8.124736
_cell_length_c 17.791100
_cell_angle_alpha 90.000000
_cell_angle_beta 90.000000
_cell_angle_gamma 90.000000
_cell_volume 3780.209222
_symmetry_space_group_name_H-M "C M M M"
_symmetry_group_IT_number 65
_symmetry_cell_setting 'orthorhombic'
loop_
_space_group_symop_operation_xyz
x,y,z
-x,-y,z
x,-y,-z
-x,y,-z
-x,-y,-z
x,y,-z
-x,y,z
x,-y,z
1/2+x,1/2+y,z
1/2-x,1/2-y,z
1/2+x,1/2-y,-z
1/2-x,1/2+y,-z
1/2-x,1/2-y,-z
1/2+x,1/2+y,-z
1/2-x,1/2+y,z
1/2+x,1/2-y,z
loop_
_atom_site_type_symbol
_atom_site_label
_atom_site_fract_x
_atom_site_fract_y
_atom_site_fract_z
Si Si1 0.191155 0.194548 0.000000
Si Si2 0.307558 0.801397 0.414719
Si Si3 0.000000 0.807934 0.279412
Si Si4 0.000000 0.309560 0.888325
Si Si5 0.108210 0.699329 0.296682
Si Si6 0.888816 0.698717 0.123193
O O1 0.250000 0.250000 0.000000
O O2 0.158681 0.254161 0.928109
O O3 0.190859 0.000000 0.000000
O O4 0.318415 0.743523 0.500000
O O5 0.250000 0.750000 0.395532
O O6 0.348103 0.742852 0.353314
O O7 0.309579 0.000000 0.415427
O O8 0.000000 0.701258 0.202666
O O9 0.947531 0.763470 0.320135
O O10 0.000000 0.000000 0.258916
O O11 0.944095 0.238720 0.907919
O O12 0.000000 0.500000 0.912432
O O13 0.107366 0.500000 0.297018
O O14 0.117032 0.752621 0.209990
O O15 0.892395 0.500000 0.123455
#
# Coordination Sequence:
#
# PCOD9483402 Si02
#       6
#     8  16   8   8  16  16
#     4  12  26  41  54  71 101 138 174 216 261 302
#     4   9  18  33  53  77 104 134 170 213 258 303
#     4  10  18  28  48  78 108 136 169 213 256 293
#     4   8  16  33  57  81 106 135 164 200 251 310
#     4   9  18  34  55  77 104 139 173 204 249 310
#     4   9  18  35  57  79 103 134 171 208 250 303
#
# _framework density 19.046565999999999
#
# number of rings (size 3 to 8) (size 9 to 14) (size 15 to 20)
#    0.000    2.667    0.000    3.333    0.000    5.778 
#    0.000    5.000    0.000    3.333    0.000    0.000 
#    0.000    0.000    0.000    0.000    0.000    0.000 
#
# Total GULP energy -200705.047642 kJ/mol
# GULP energy per Si atom -5575.140212 kJ/mol
# Density = 1.900321 g / cm^3
# Si number density = 19.046566 Si / 1000 Ang^3
#
#
#
# Elastic Constant Matrix: (Units=GPa)
#
#
# Indices 1 2 3 4 5 6 
#
# 1 211.6233 15.0506 111.6135 0.0000 0.0000 0.0000
# 2 15.0506 20.2035 18.9858 0.0000 0.0000 0.0000
# 3 111.6135 18.9858 108.4487 0.0000 0.0000 0.0000
# 4 0.0000 0.0000 0.0000 10.2661 0.0000 0.0000
# 5 0.0000 0.0000 0.0000 0.0000 62.1673 0.0000
# 6 0.0000 0.0000 0.0000 0.0000 0.0000 27.3846
#
#
#
# Elastic Compliance Matrix: (Units=1/GPa)
#
#
# Indices 1 2 3 4 5 6 
#
# 1 0.010465 0.002783 -0.011257 0.000000 0.000000 0.000000
# 2 0.002783 0.059983 -0.013365 0.000000 0.000000 0.000000
# 3 -0.011257 -0.013365 0.023147 0.000000 0.000000 0.000000
# 4 0.000000 0.000000 0.000000 0.097408 0.000000 0.000000
# 5 0.000000 0.000000 0.000000 0.000000 0.016086 0.000000
# 6 0.000000 0.000000 0.000000 0.000000 0.000000 0.036517
#
#
# Mechanical properties :
#
#
# Convention : Reuss Voigt Hill
#
# Bulk Modulus (GPa) = 20.03402 70.17500 45.10451
# Shear Modulus (GPa) = 16.45156 32.93863 24.69510
#
# Velocity S-wave (km/s) = 2.94216 4.16309 3.60469
# Velocity P-wave (km/s) = 4.69926 7.74805 6.40762
#
# Compressibility (1/GPa) = 0.04991510
#
# Stress axis : x y z
#
# Youngs Moduli (GPa) = 95.55868 16.67142 43.20268
#
# Poissons Ratio (x) = -0.04640 0.48635
# Poissons Ratio (y) = -0.26596 0.57742
# Poissons Ratio (z) = 1.07574 0.22282
#
# Static dielectric constant tensor:
#      x y z
#    x 1.735790 0.000000 0.000000 
#    y 0.000000 1.675130 0.000000 
#    z 0.000000 0.000000 1.669350 
# 
# From -- ./inp_files/56490.got.cif
#   From: 2010.05.17/outbox.cif.g08.bks.cpg/sg65_29_cif.got.tgz:56490.got - 2010.06.03 17:01:31.
