data_PCOD9483118
_publ_section_title
;
Structure prediction by ZEFSAII (Michael W. Deem and Ramdas Pophale) SiO2 
 PCOD9483118
Probable space group: C M M M
;
_chemical_formula_sum "Si O2"
_cell_formula_units_Z 96
_cell_length_a 30.262639
_cell_length_b 24.318610
_cell_length_c 9.054522
_cell_angle_alpha 90.000000
_cell_angle_beta 90.000000
_cell_angle_gamma 90.000000
_cell_volume 6663.633049
_symmetry_space_group_name_H-M "C M M M"
_symmetry_group_IT_number 65
_symmetry_cell_setting 'orthorhombic'
loop_
_space_group_symop_operation_xyz
x,y,z
-x,-y,z
x,-y,-z
-x,y,-z
-x,-y,-z
x,y,-z
-x,y,z
x,-y,z
1/2+x,1/2+y,z
1/2-x,1/2-y,z
1/2+x,1/2-y,-z
1/2-x,1/2+y,-z
1/2-x,1/2-y,-z
1/2+x,1/2+y,-z
1/2-x,1/2+y,z
1/2+x,1/2-y,z
loop_
_atom_site_type_symbol
_atom_site_label
_atom_site_fract_x
_atom_site_fract_y
_atom_site_fract_z
Si Si1 0.000000 0.266441 0.829911
Si Si2 0.320852 0.730266 0.821880
Si Si3 0.591244 0.897119 0.675571
Si Si4 0.500000 0.900319 0.829555
Si Si5 0.238928 0.336601 0.821451
Si Si6 0.590666 0.234651 0.675053
Si Si7 0.819297 0.437531 0.822345
O O1 0.044444 0.248514 0.748170
O O2 0.000000 0.333371 0.827120
O O3 0.000000 0.249291 0.000000
O O4 0.287927 0.681322 0.773030
O O5 0.294247 0.786500 0.785986
O O6 0.368006 0.734196 0.745847
O O7 0.325962 0.728353 0.000000
O O8 0.589957 0.905920 0.500000
O O9 0.545205 0.916633 0.747951
O O10 0.595750 0.831217 0.702512
O O11 0.633755 0.925134 0.747671
O O12 0.500000 0.918142 0.000000
O O13 0.216868 0.393050 0.770488
O O14 0.241115 0.338538 0.000000
O O15 0.589243 0.242472 0.500000
O O16 0.805786 0.500000 0.792213
O O17 0.824527 0.431215 0.000000
#
# Coordination Sequence:
#
# PCOD9483118 Si02
#       7
#     8  16  16   8  16  16  16
#     4   9  17  27  41  60  82 113 144 166 200 251
#     4   9  15  26  45  62  81 109 138 170 204 246
#     4  10  19  30  43  60  83 108 134 170 216 259
#     4   9  17  29  46  62  77 101 137 179 213 249
#     4   8  15  27  43  63  82 104 137 173 209 245
#     4  10  18  27  40  62  88 111 136 172 210 245
#     4  10  19  31  47  63  80 105 139 177 212 249
#
# _framework density 14.406555000000001
#
# number of rings (size 3 to 8) (size 9 to 14) (size 15 to 20)
#    0.000    2.667    1.667    2.500    0.000    3.667 
#    0.000    2.917    0.000    2.500    0.000    0.000 
#    0.000    0.000    0.000    0.750    0.000   17.667 
#
# Total GULP energy -267476.810319 kJ/mol
# GULP energy per Si atom -5572.433548 kJ/mol
# Density = 1.437376 g / cm^3
# Si number density = 14.406555 Si / 1000 Ang^3
#
#
#
# Elastic Constant Matrix: (Units=GPa)
#
#
# Indices 1 2 3 4 5 6 
#
# 1 118.6549 51.9546 45.9012 0.0000 0.0000 0.0000
# 2 51.9546 61.2651 29.1320 0.0000 0.0000 0.0000
# 3 45.9012 29.1320 38.3742 0.0000 0.0000 0.0000
# 4 0.0000 0.0000 0.0000 9.2130 0.0000 0.0000
# 5 0.0000 0.0000 0.0000 0.0000 -13.8969 0.0000
# 6 0.0000 0.0000 0.0000 0.0000 0.0000 10.9669
#
#
#
# Elastic Compliance Matrix: (Units=1/GPa)
#
#
# Indices 1 2 3 4 5 6 
#
# 1 0.017770 -0.007766 -0.015360 0.000000 0.000000 0.000000
# 2 -0.007766 0.028937 -0.012679 0.000000 0.000000 0.000000
# 3 -0.015360 -0.012679 0.054057 0.000000 0.000000 0.000000
# 4 0.000000 0.000000 0.000000 0.108542 0.000000 0.000000
# 5 0.000000 0.000000 0.000000 0.000000 -0.071959 0.000000
# 6 0.000000 0.000000 0.000000 0.000000 0.000000 0.091184
#
#
# Mechanical properties :
#
#
# Convention : Reuss Voigt Hill
#
# Bulk Modulus (GPa) = 34.29938 52.47443 43.38690
# Shear Modulus (GPa) = 16.13635 7.34370 11.74003
#
# Velocity S-wave (km/s) = 3.35038 2.26021 2.85776
# Velocity P-wave (km/s) = 6.23110 6.58137 6.40863
#
# Compressibility (1/GPa) = 0.02915505
#
# Stress axis : x y z
#
# Youngs Moduli (GPa) = 56.27386 34.55802 18.49882
#
# Poissons Ratio (x) = 0.26837 0.28415
# Poissons Ratio (y) = 0.43701 0.23454
# Poissons Ratio (z) = 0.86439 0.43815
#
# Static dielectric constant tensor:
#      x y z
#    x 1.468400 0.000000 0.000000 
#    y 0.000000 1.469110 0.000000 
#    z 0.000000 0.000000 1.475690 
# 
# From -- ./inp_files/16686.got.cif
#   From: 2010.05.17/outbox.cif.g08.bks.cpg/sg65_9_cif.got.tgz:16686.got - 2010.06.03 17:01:31.
