data_PCOD9483064
_publ_section_title
;
Structure prediction by ZEFSAII (Michael W. Deem and Ramdas Pophale) SiO2 
 PCOD9483064
Probable space group: C M M M
;
_chemical_formula_sum "Si O2"
_cell_formula_units_Z 112
_cell_length_a 28.047922
_cell_length_b 8.398053
_cell_length_c 30.575112
_cell_angle_alpha 90.000000
_cell_angle_beta 90.000000
_cell_angle_gamma 90.000000
_cell_volume 7201.904509
_symmetry_space_group_name_H-M "C M M M"
_symmetry_group_IT_number 65
_symmetry_cell_setting 'orthorhombic'
loop_
_space_group_symop_operation_xyz
x,y,z
-x,-y,z
x,-y,-z
-x,y,-z
-x,-y,-z
x,y,-z
-x,y,z
x,-y,z
1/2+x,1/2+y,z
1/2-x,1/2-y,z
1/2+x,1/2-y,-z
1/2-x,1/2+y,-z
1/2-x,1/2-y,-z
1/2+x,1/2+y,-z
1/2-x,1/2+y,z
1/2+x,1/2-y,z
loop_
_atom_site_type_symbol
_atom_site_label
_atom_site_fract_x
_atom_site_fract_y
_atom_site_fract_z
Si Si1 0.601100 0.807410 0.908960
Si Si2 0.444644 0.805397 0.000000
Si Si3 0.195129 0.309142 0.405509
Si Si4 0.446922 0.307686 0.821465
Si Si5 0.195132 0.307691 0.500000
Si Si6 0.697805 0.809579 0.863907
Si Si7 0.804498 0.809493 0.313307
Si Si8 0.649168 0.692613 0.776595
O O1 0.567240 0.747655 0.870036
O O2 0.654753 0.756458 0.895857
O O3 0.600257 0.000000 0.908622
O O4 0.582202 0.753213 0.955966
O O5 0.500000 0.755742 0.000000
O O6 0.444448 0.000000 0.000000
O O7 0.195028 0.500000 0.403766
O O8 0.250000 0.250000 0.405713
O O9 0.174354 0.257087 0.452810
O O10 0.174649 0.245486 0.359993
O O11 0.500000 0.252051 0.809932
O O12 0.446877 0.500000 0.820915
O O13 0.404023 0.253541 0.789919
O O14 0.195325 0.500000 0.500000
O O15 0.250000 0.250000 0.500000
O O16 0.750000 0.750000 0.876386
O O17 0.683704 0.749107 0.815526
O O18 0.698071 0.000000 0.863169
O O19 0.750000 0.750000 0.309896
O O20 0.833187 0.752442 0.270766
O O21 0.803504 0.000000 0.313161
O O22 0.649726 0.500000 0.776588
#
# Coordination Sequence:
#
# PCOD9483064 Si02
#       8
#    16   8  16  16   8  16  16  16
#     4   9  18  31  47  67  87 108 136 166 196 234
#     4   9  16  28  48  69  87 107 131 163 202 241
#     4   9  15  23  34  48  68  95 128 163 197 231
#     4   9  17  30  47  65  85 108 132 161 199 240
#     4   8  14  22  32  46  64  90 125 162 195 229
#     4  10  19  30  45  63  83 108 138 170 200 233
#     4  10  18  26  36  52  75 102 132 164 196 229
#     4   9  18  30  43  60  82 107 135 166 199 238
#
# _framework density 15.551443000000001
#
# number of rings (size 3 to 8) (size 9 to 14) (size 15 to 20)
#    0.000    2.786    0.000    3.000    0.000    4.286 
#    0.000    0.714    0.000    1.286    0.000    0.000 
#    0.000    0.000    0.000    0.643    0.000   14.929 
#
# Total GULP energy -311833.979597 kJ/mol
# GULP energy per Si atom -5568.463921 kJ/mol
# Density = 1.551605 g / cm^3
# Si number density = 15.551443 Si / 1000 Ang^3
#
#
#
# Elastic Constant Matrix: (Units=GPa)
#
#
# Indices 1 2 3 4 5 6 
#
# 1 84.3964 10.8531 56.9697 0.0000 0.0000 0.0000
# 2 10.8531 12.9515 17.9381 0.0000 0.0000 0.0000
# 3 56.9697 17.9381 161.5358 0.0000 0.0000 0.0000
# 4 0.0000 0.0000 0.0000 -97.6817 0.0000 0.0000
# 5 0.0000 0.0000 0.0000 0.0000 12.9366 0.0000
# 6 0.0000 0.0000 0.0000 0.0000 0.0000 11.3265
#
#
#
# Elastic Compliance Matrix: (Units=1/GPa)
#
#
# Indices 1 2 3 4 5 6 
#
# 1 0.016017 -0.006616 -0.004914 0.000000 0.000000 0.000000
# 2 -0.006616 0.093978 -0.008103 0.000000 0.000000 0.000000
# 3 -0.004914 -0.008103 0.008823 0.000000 0.000000 0.000000
# 4 0.000000 0.000000 0.000000 -0.010237 0.000000 0.000000
# 5 0.000000 0.000000 0.000000 0.000000 0.077300 0.000000
# 6 0.000000 0.000000 0.000000 0.000000 0.000000 0.088288
#
#
# Mechanical properties :
#
#
# Convention : Reuss Voigt Hill
#
# Bulk Modulus (GPa) = 12.57026 47.82282 30.19654
# Shear Modulus (GPa) = 14.70798 -3.14221 5.78289
#
# Velocity S-wave (km/s) = 3.07866 -1.42299 1.93045
# Velocity P-wave (km/s) = 4.55391 5.30266 4.94249
#
# Compressibility (1/GPa) = 0.07955285
#
# Stress axis : x y z
#
# Youngs Moduli (GPa) = 62.43484 10.64083 113.33447
#
# Poissons Ratio (x) = 0.07040 0.55693
# Poissons Ratio (y) = 0.41304 0.91833
# Poissons Ratio (z) = 0.30681 0.08622
#
# Static dielectric constant tensor:
#      x y z
#    x 1.509920 0.000000 0.000000 
#    y 0.000000 1.426580 0.000000 
#    z 0.000000 0.000000 1.551870 
# 
# From -- ./inp_files/78536.got.cif
#   From: 2010.05.17/outbox.cif.g08.bks.cpg/sg65_40_cif.got.tgz:78536.got - 2010.06.03 17:01:31.
