data_PCOD9483590
_publ_section_title
;
Structure prediction by ZEFSAII (Michael W. Deem and Ramdas Pophale) SiO2 
 PCOD9483590
Probable space group: C M M M
;
_chemical_formula_sum "Si O2"
_cell_formula_units_Z 88
_cell_length_a 15.107387
_cell_length_b 29.783911
_cell_length_c 11.202210
_cell_angle_alpha 90.000000
_cell_angle_beta 90.000000
_cell_angle_gamma 90.000000
_cell_volume 5040.513587
_symmetry_space_group_name_H-M "C M M M"
_symmetry_group_IT_number 65
_symmetry_cell_setting 'orthorhombic'
loop_
_space_group_symop_operation_xyz
x,y,z
-x,-y,z
x,-y,-z
-x,y,-z
-x,-y,-z
x,y,-z
-x,y,z
x,-y,z
1/2+x,1/2+y,z
1/2-x,1/2-y,z
1/2+x,1/2-y,-z
1/2-x,1/2+y,-z
1/2-x,1/2-y,-z
1/2+x,1/2+y,-z
1/2-x,1/2+y,z
1/2+x,1/2-y,z
loop_
_atom_site_type_symbol
_atom_site_label
_atom_site_fract_x
_atom_site_fract_y
_atom_site_fract_z
Si Si1 0.646053 0.241275 0.500000
Si Si2 0.900525 0.684028 0.735397
Si Si3 0.606922 0.500000 0.635793
Si Si4 0.904261 0.224070 0.140717
Si Si5 0.606844 0.402395 0.731549
Si Si6 0.397460 0.653881 0.500000
Si Si7 0.762435 0.845768 0.859976
O O1 0.750000 0.250000 0.500000
O O2 0.618608 0.211872 0.385459
O O3 0.608848 0.292193 0.500000
O O4 0.898180 0.723513 0.834417
O O5 0.823688 0.650640 0.776840
O O6 0.000000 0.665326 0.729830
O O7 0.500000 0.500000 0.628589
O O8 0.640809 0.500000 0.500000
O O9 0.629705 0.453584 0.699859
O O10 0.817521 0.198368 0.183069
O O11 0.000000 0.208782 0.193171
O O12 0.907180 0.215469 0.000000
O O13 0.500000 0.398995 0.749808
O O14 0.635594 0.370536 0.619836
O O15 0.665047 0.384502 0.840522
O O16 0.500000 0.641594 0.500000
O O17 0.739304 0.841854 0.000000
#
# Coordination Sequence:
#
# PCOD9483590 Si02
#       7
#     8  16   8  16  16   8  16
#     4  12  22  32  49  73 103 136 172 219 273 317
#     4  11  22  35  49  68 100 140 181 223 264 306
#     4   9  16  32  55  81 112 141 165 198 254 332
#     4   9  17  30  48  68  94 133 178 221 263 304
#     4  10  19  32  53  80 109 138 170 211 263 325
#     4  10  18  29  48  74 104 137 171 208 252 305
#     4  11  22  34  49  71 100 137 183 228 263 305
#
# _framework density 17.458538999999998
#
# number of rings (size 3 to 8) (size 9 to 14) (size 15 to 20)
#    0.000    1.727    0.909    5.727    0.000    6.545 
#    0.000    0.455    0.000    1.636    0.000    0.636 
#    0.000    2.182    0.000    0.000    0.000    0.000 
#
# Total GULP energy -245330.770943 kJ/mol
# GULP energy per Si atom -5575.699340 kJ/mol
# Density = 1.741880 g / cm^3
# Si number density = 17.458539 Si / 1000 Ang^3
#
#
#
# Elastic Constant Matrix: (Units=GPa)
#
#
# Indices 1 2 3 4 5 6 
#
# 1 101.4366 11.9590 29.2679 0.0000 0.0000 0.0000
# 2 11.9590 57.4474 22.3444 0.0000 0.0000 0.0000
# 3 29.2679 22.3444 51.8630 0.0000 0.0000 0.0000
# 4 0.0000 0.0000 0.0000 20.0099 0.0000 0.0000
# 5 0.0000 0.0000 0.0000 0.0000 19.8730 0.0000
# 6 0.0000 0.0000 0.0000 0.0000 0.0000 12.4221
#
#
#
# Elastic Compliance Matrix: (Units=1/GPa)
#
#
# Indices 1 2 3 4 5 6 
#
# 1 0.011777 0.000160 -0.006715 0.000000 0.000000 0.000000
# 2 0.000160 0.020914 -0.009101 0.000000 0.000000 0.000000
# 3 -0.006715 -0.009101 0.026992 0.000000 0.000000 0.000000
# 4 0.000000 0.000000 0.000000 0.049975 0.000000 0.000000
# 5 0.000000 0.000000 0.000000 0.000000 0.050319 0.000000
# 6 0.000000 0.000000 0.000000 0.000000 0.000000 0.080502
#
#
# Mechanical properties :
#
#
# Convention : Reuss Voigt Hill
#
# Bulk Modulus (GPa) = 35.24682 37.54328 36.39505
# Shear Modulus (GPa) = 17.77794 20.27274 19.02534
#
# Velocity S-wave (km/s) = 3.19454 3.41133 3.30471
# Velocity P-wave (km/s) = 5.81717 6.08828 5.95427
#
# Compressibility (1/GPa) = 0.02837136
#
# Stress axis : x y z
#
# Youngs Moduli (GPa) = 84.91101 47.81571 37.04796
#
# Poissons Ratio (x) = -0.00766 0.24878
# Poissons Ratio (y) = -0.01361 0.33716
# Poissons Ratio (z) = 0.57019 0.43516
#
# Static dielectric constant tensor:
#      x y z
#    x 1.655020 0.000000 0.000000 
#    y 0.000000 1.600740 0.000000 
#    z 0.000000 0.000000 1.656410 
# 
# From -- ./inp_files/25410.got.cif
#   From: 2010.05.17/outbox.cif.g08.bks.cpg/sg65_13_cif.got.tgz:25410.got - 2010.06.03 17:01:31.
