data_PCOD9483302
_publ_section_title
;
Structure prediction by ZEFSAII (Michael W. Deem and Ramdas Pophale) SiO2 
 PCOD9483302
Probable space group: C M M M
;
_chemical_formula_sum "Si O2"
_cell_formula_units_Z 88
_cell_length_a 7.752247
_cell_length_b 27.950680
_cell_length_c 23.697078
_cell_angle_alpha 90.000000
_cell_angle_beta 90.000000
_cell_angle_gamma 90.000000
_cell_volume 5134.696491
_symmetry_space_group_name_H-M "C M M M"
_symmetry_group_IT_number 65
_symmetry_cell_setting 'orthorhombic'
loop_
_space_group_symop_operation_xyz
x,y,z
-x,-y,z
x,-y,-z
-x,y,-z
-x,-y,-z
x,y,-z
-x,y,z
x,-y,z
1/2+x,1/2+y,z
1/2-x,1/2-y,z
1/2+x,1/2-y,-z
1/2-x,1/2+y,-z
1/2-x,1/2-y,-z
1/2+x,1/2+y,-z
1/2-x,1/2+y,z
1/2+x,1/2-y,z
loop_
_atom_site_type_symbol
_atom_site_label
_atom_site_fract_x
_atom_site_fract_y
_atom_site_fract_z
Si Si1 0.794903 0.805390 0.664322
Si Si2 0.797028 0.693824 0.000000
Si Si3 0.000000 0.444130 0.605886
Si Si4 0.201158 0.806105 0.875792
Si Si5 0.000000 0.556216 0.258034
Si Si6 0.794759 0.125380 0.434241
Si Si7 0.788303 0.129919 0.228318
O O1 0.750000 0.750000 0.668289
O O2 0.738041 0.831526 0.607006
O O3 0.741077 0.836288 0.718459
O O4 0.000000 0.807686 0.664089
O O5 0.750000 0.750000 0.000000
O O6 0.733711 0.675743 0.939486
O O7 0.000000 0.689424 0.000000
O O8 0.000000 0.439093 0.673801
O O9 0.170216 0.418390 0.581523
O O10 0.000000 0.500000 0.591726
O O11 0.250000 0.750000 0.871437
O O12 0.270106 0.840867 0.827415
O O13 0.000000 0.806223 0.866125
O O14 0.172056 0.582755 0.235247
O O15 0.000000 0.500000 0.244196
O O16 0.774223 0.137447 0.500000
O O17 0.000000 0.115221 0.424688
O O18 0.000000 0.122141 0.228230
#
# Coordination Sequence:
#
# PCOD9483302 Si02
#       7
#    16   8   8  16   8  16  16
#     4  10  21  35  54  80 110 147 185 225 271 326
#     4  10  18  28  44  72 114 157 194 231 267 321
#     4  11  23  40  63  88 107 142 188 235 293 340
#     4  10  19  31  50  79 115 157 191 229 275 326
#     4  11  24  39  64  86 110 147 183 235 297 337
#     4  10  22  40  57  79 114 147 182 229 279 337
#     4  10  22  38  57  83 114 145 187 232 280 337
#
# _framework density 17.138306
#
# number of rings (size 3 to 8) (size 9 to 14) (size 15 to 20)
#    0.000    1.818    1.818    3.273    5.091    1.818 
#    0.000    2.727    0.000    0.000    0.000    1.273 
#    0.000    2.909    0.000    0.000    0.000    0.000 
#
# Total GULP energy -245260.821695 kJ/mol
# GULP energy per Si atom -5574.109584 kJ/mol
# Density = 1.709930 g / cm^3
# Si number density = 17.138306 Si / 1000 Ang^3
#
#
#
# Elastic Constant Matrix: (Units=GPa)
#
#
# Indices 1 2 3 4 5 6 
#
# 1 56.8143 43.2226 31.6967 0.0000 0.0000 0.0000
# 2 43.2226 127.2969 70.8262 0.0000 0.0000 0.0000
# 3 31.6967 70.8262 134.3135 0.0000 0.0000 0.0000
# 4 0.0000 0.0000 0.0000 23.4298 0.0000 0.0000
# 5 0.0000 0.0000 0.0000 0.0000 6116.1290 0.0000
# 6 0.0000 0.0000 0.0000 0.0000 0.0000 30.0853
#
#
#
# Elastic Compliance Matrix: (Units=1/GPa)
#
#
# Indices 1 2 3 4 5 6 
#
# 1 0.024084 -0.007098 -0.001941 0.000000 0.000000 0.000000
# 2 -0.007098 0.013209 -0.005290 0.000000 0.000000 0.000000
# 3 -0.001941 -0.005290 0.010693 0.000000 0.000000 0.000000
# 4 0.000000 0.000000 0.000000 0.042681 0.000000 0.000000
# 5 0.000000 0.000000 0.000000 0.000000 0.000164 0.000000
# 6 0.000000 0.000000 0.000000 0.000000 0.000000 0.033239
#
#
# Mechanical properties :
#
#
# Convention : Reuss Voigt Hill
#
# Bulk Modulus (GPa) = 51.73819 67.76840 59.75330
# Shear Modulus (GPa) = 31.41312 1245.44077 638.42694
#
# Velocity S-wave (km/s) = 4.28590 26.98662 19.32158
# Velocity P-wave (km/s) = 7.39906 31.79095 23.08041
#
# Compressibility (1/GPa) = 0.01932808
#
# Stress axis : x y z
#
# Youngs Moduli (GPa) = 41.52208 75.70538 93.51866
#
# Poissons Ratio (x) = 0.53732 0.18150
# Poissons Ratio (y) = 0.29470 0.49476
# Poissons Ratio (z) = 0.08059 0.40052
#
# Static dielectric constant tensor:
#      x y z
#    x 1.611140 0.000000 0.000000 
#    y 0.000000 1.595370 0.000000 
#    z 0.000000 0.000000 1.561820 
# 
# From -- ./inp_files/59869.got.cif
#   From: 2010.05.17/outbox.cif.g08.bks.cpg/sg65_30_cif.got.tgz:59869.got - 2010.06.03 17:01:31.
