data_PCOD9483666
_publ_section_title
;
Structure prediction by ZEFSAII (Michael W. Deem and Ramdas Pophale) SiO2 
 PCOD9483666
Probable space group: C M M M
;
_chemical_formula_sum "Si O2"
_cell_formula_units_Z 58
_cell_length_a 27.650935
_cell_length_b 9.249153
_cell_length_c 10.789366
_cell_angle_alpha 90.000000
_cell_angle_beta 90.000000
_cell_angle_gamma 90.000000
_cell_volume 2759.355845
_symmetry_space_group_name_H-M "C M M M"
_symmetry_group_IT_number 65
_symmetry_cell_setting 'orthorhombic'
loop_
_space_group_symop_operation_xyz
x,y,z
-x,-y,z
x,-y,-z
-x,y,-z
-x,-y,-z
x,y,-z
-x,y,z
x,-y,z
1/2+x,1/2+y,z
1/2-x,1/2-y,z
1/2+x,1/2-y,-z
1/2-x,1/2+y,-z
1/2-x,1/2-y,-z
1/2+x,1/2+y,-z
1/2-x,1/2+y,z
1/2+x,1/2-y,z
loop_
_atom_site_type_symbol
_atom_site_label
_atom_site_fract_x
_atom_site_fract_y
_atom_site_fract_z
Si Si1 0.500000 0.500000 0.500000
Si Si2 0.093037 0.336887 0.774397
Si Si3 0.500000 0.342139 0.146746
Si Si4 0.202962 0.325617 0.759837
Si Si5 0.808128 0.162948 0.500000
Si Si6 0.085326 0.238475 0.500000
O O1 0.541543 0.628183 0.500000
O O2 0.085572 0.500000 0.819181
O O3 0.148369 0.293863 0.808857
O O4 0.087811 0.331374 0.625316
O O5 0.049518 0.237619 0.819893
O O6 0.500000 0.500000 0.210825
O O7 0.500000 0.356678 0.000000
O O8 0.208230 0.500000 0.757388
O O9 0.250000 0.250000 0.821516
O O10 0.202188 0.256363 0.622197
O O11 0.865470 0.149108 0.500000
O O12 0.786692 0.000000 0.500000
#
# Coordination Sequence:
#
# PCOD9483666 Si02
#       6
#     2  16   8  16   8   8
#     4  12  20  28  42  76 110 152 190 236 276 336
#     4  10  22  39  61  86 119 157 195 239 288 348
#     4  11  26  44  63  87 114 148 193 244 294 344
#     4  10  20  33  51  79 113 151 192 235 285 338
#     4  10  18  30  45  70 109 156 198 232 277 329
#     4  10  21  31  52  84 120 151 194 234 288 341
#
# _framework density 21.019399
#
# number of rings (size 3 to 8) (size 9 to 14) (size 15 to 20)
#    0.000    1.793    0.690    3.310    3.862    6.621 
#    0.000    2.069    0.000    0.828    0.000    0.000 
#    0.000    0.000    0.000    0.000    0.000    0.000 
#
# Total GULP energy -161487.671744 kJ/mol
# GULP energy per Si atom -5568.540405 kJ/mol
# Density = 2.097156 g / cm^3
# Si number density = 21.019399 Si / 1000 Ang^3
#
#
#
# Elastic Constant Matrix: (Units=GPa)
#
#
# Indices 1 2 3 4 5 6 
#
# 1 252.2560 99.5651 14.0565 0.0000 0.0000 0.0000
# 2 99.5651 138.2360 4.3270 0.0000 0.0000 0.0000
# 3 14.0565 4.3270 24.2721 0.0000 0.0000 0.0000
# 4 0.0000 0.0000 0.0000 115.3785 0.0000 0.0000
# 5 0.0000 0.0000 0.0000 0.0000 73.8164 0.0000
# 6 0.0000 0.0000 0.0000 0.0000 0.0000 37.2491
#
#
#
# Elastic Compliance Matrix: (Units=1/GPa)
#
#
# Indices 1 2 3 4 5 6 
#
# 1 0.005695 -0.004021 -0.002581 0.000000 0.000000 0.000000
# 2 -0.004021 0.010114 0.000526 0.000000 0.000000 0.000000
# 3 -0.002581 0.000526 0.042601 0.000000 0.000000 0.000000
# 4 0.000000 0.000000 0.000000 0.008667 0.000000 0.000000
# 5 0.000000 0.000000 0.000000 0.000000 0.013547 0.000000
# 6 0.000000 0.000000 0.000000 0.000000 0.000000 0.026846
#
#
# Mechanical properties :
#
#
# Convention : Reuss Voigt Hill
#
# Bulk Modulus (GPa) = 21.61875 72.29570 46.95722
# Shear Modulus (GPa) = 37.02534 65.07649 51.05092
#
# Velocity S-wave (km/s) = 4.20156 5.57023 4.93358
# Velocity P-wave (km/s) = 5.81764 8.70858 7.40555
#
# Compressibility (1/GPa) = 0.04625615
#
# Stress axis : x y z
#
# Youngs Moduli (GPa) = 175.58523 98.87429 23.47380
#
# Poissons Ratio (x) = 0.39760 0.06059
# Poissons Ratio (y) = 0.70607 -0.01234
# Poissons Ratio (z) = 0.45325 -0.05198
#
# Static dielectric constant tensor:
#      x y z
#    x 1.798650 0.000000 0.000000 
#    y 0.000000 1.764310 0.000000 
#    z 0.000000 0.000000 1.809590 
# 
# From -- ./inp_files/20578.got.cif
#   From: 2010.05.17/outbox.cif.g08.bks.cpg/sg65_11_cif.got.tgz:20578.got - 2010.06.03 17:01:31.
