data_PCOD9483870
_publ_section_title
;
Structure prediction by ZEFSAII (Michael W. Deem and Ramdas Pophale) SiO2 
 PCOD9483870
Probable space group: C M M M
;
_chemical_formula_sum "Si O2"
_cell_formula_units_Z 96
_cell_length_a 29.834825
_cell_length_b 8.580762
_cell_length_c 21.158899
_cell_angle_alpha 90.000000
_cell_angle_beta 90.000000
_cell_angle_gamma 90.000000
_cell_volume 5416.795209
_symmetry_space_group_name_H-M "C M M M"
_symmetry_group_IT_number 65
_symmetry_cell_setting 'orthorhombic'
loop_
_space_group_symop_operation_xyz
x,y,z
-x,-y,z
x,-y,-z
-x,y,-z
-x,-y,-z
x,y,-z
-x,y,z
x,-y,z
1/2+x,1/2+y,z
1/2-x,1/2-y,z
1/2+x,1/2-y,-z
1/2-x,1/2+y,-z
1/2-x,1/2-y,-z
1/2+x,1/2+y,-z
1/2-x,1/2+y,z
1/2+x,1/2-y,z
loop_
_atom_site_type_symbol
_atom_site_label
_atom_site_fract_x
_atom_site_fract_y
_atom_site_fract_z
Si Si1 0.797332 0.813197 0.880759
Si Si2 0.551882 0.311229 0.807148
Si Si3 0.202709 0.313022 0.737736
Si Si4 0.607292 0.813638 0.687897
Si Si5 0.106456 0.189934 0.069631
Si Si6 0.051436 0.188040 0.427492
O O1 0.750000 0.750000 0.905795
O O2 0.802258 0.752765 0.808874
O O3 0.841893 0.764965 0.917996
O O4 0.795410 0.000000 0.879687
O O5 0.500000 0.263151 0.805227
O O6 0.553234 0.500000 0.805813
O O7 0.578743 0.250401 0.746798
O O8 0.576036 0.258375 0.871765
O O9 0.204618 0.500000 0.741397
O O10 0.250000 0.250000 0.712604
O O11 0.158978 0.265555 0.698342
O O12 0.585416 0.754427 0.623424
O O13 0.605665 0.000000 0.689325
O O14 0.105281 0.000000 0.070055
O O15 0.091752 0.241756 0.000000
O O16 0.060870 0.234657 0.500000
O O17 0.000000 0.235063 0.412504
O O18 0.052740 0.000000 0.424919
#
# Coordination Sequence:
#
# PCOD9483870 Si02
#       6
#    16  16  16  16  16  16
#     4  10  18  30  50  72  98 130 164 209 263 316
#     4  10  20  34  53  75  99 133 177 220 261 307
#     4  10  20  33  51  76 104 134 170 212 257 306
#     4  11  22  34  53  81 111 139 170 212 261 308
#     4   9  18  32  49  71  99 131 170 217 266 311
#     4   9  19  36  57  82 112 145 180 214 249 296
#
# _framework density 17.722657999999999
#
# number of rings (size 3 to 8) (size 9 to 14) (size 15 to 20)
#    0.000    2.167    1.667    3.500    0.000    5.667 
#    0.000    2.500    0.000    4.500    0.000    1.167 
#    0.000    0.000    0.000    0.000    0.000    0.000 
#
# Total GULP energy -267876.141195 kJ/mol
# GULP energy per Si atom -5580.752942 kJ/mol
# Density = 1.768232 g / cm^3
# Si number density = 17.722658 Si / 1000 Ang^3
#
#
#
# Elastic Constant Matrix: (Units=GPa)
#
#
# Indices 1 2 3 4 5 6 
#
# 1 147.6697 29.7762 79.5350 0.0000 0.0000 0.0000
# 2 29.7762 25.1670 19.2385 0.0000 0.0000 0.0000
# 3 79.5350 19.2385 108.5975 0.0000 0.0000 0.0000
# 4 0.0000 0.0000 0.0000 7.1067 0.0000 0.0000
# 5 0.0000 0.0000 0.0000 0.0000 71.2947 0.0000
# 6 0.0000 0.0000 0.0000 0.0000 0.0000 24.4838
#
#
#
# Elastic Compliance Matrix: (Units=1/GPa)
#
#
# Indices 1 2 3 4 5 6 
#
# 1 0.012802 -0.009229 -0.007741 0.000000 0.000000 0.000000
# 2 -0.009229 0.052612 -0.002561 0.000000 0.000000 0.000000
# 3 -0.007741 -0.002561 0.015331 0.000000 0.000000 0.000000
# 4 0.000000 0.000000 0.000000 0.140712 0.000000 0.000000
# 5 0.000000 0.000000 0.000000 0.000000 0.014026 0.000000
# 6 0.000000 0.000000 0.000000 0.000000 0.000000 0.040843
#
#
# Mechanical properties :
#
#
# Convention : Reuss Voigt Hill
#
# Bulk Modulus (GPa) = 23.99080 59.83708 41.91394
# Shear Modulus (GPa) = 15.18447 30.76936 22.97691
#
# Velocity S-wave (km/s) = 2.93026 4.17124 3.60456
# Velocity P-wave (km/s) = 5.00148 7.55218 6.40508
#
# Compressibility (1/GPa) = 0.04168265
#
# Stress axis : x y z
#
# Youngs Moduli (GPa) = 78.11109 19.00714 65.22522
#
# Poissons Ratio (x) = 0.17542 0.50492
# Poissons Ratio (y) = 0.72091 0.16704
# Poissons Ratio (z) = 0.60467 0.04868
#
# Static dielectric constant tensor:
#      x y z
#    x 1.614330 0.000000 0.000000 
#    y 0.000000 1.606200 0.000000 
#    z 0.000000 0.000000 1.583290 
# 
# From -- ./inp_files/60263.got.cif
#   From: 2010.05.17/outbox.cif.g08.bks.cpg/sg65_31_cif.got.tgz:60263.got - 2010.06.03 17:01:31.
