data_PCOD9483267
_publ_section_title
;
Structure prediction by ZEFSAII (Michael W. Deem and Ramdas Pophale) SiO2 
 PCOD9483267
Probable space group: C M M M
;
_chemical_formula_sum "Si O2"
_cell_formula_units_Z 80
_cell_length_a 24.208342
_cell_length_b 26.702640
_cell_length_c 8.914842
_cell_angle_alpha 90.000000
_cell_angle_beta 90.000000
_cell_angle_gamma 90.000000
_cell_volume 5762.791373
_symmetry_space_group_name_H-M "C M M M"
_symmetry_group_IT_number 65
_symmetry_cell_setting 'orthorhombic'
loop_
_space_group_symop_operation_xyz
x,y,z
-x,-y,z
x,-y,-z
-x,y,-z
-x,-y,-z
x,y,-z
-x,y,z
x,-y,z
1/2+x,1/2+y,z
1/2-x,1/2-y,z
1/2+x,1/2-y,-z
1/2-x,1/2+y,-z
1/2-x,1/2-y,-z
1/2+x,1/2+y,-z
1/2-x,1/2+y,z
1/2+x,1/2-y,z
loop_
_atom_site_type_symbol
_atom_site_label
_atom_site_fract_x
_atom_site_fract_y
_atom_site_fract_z
Si Si1 0.378301 0.761880 0.822139
Si Si2 0.888016 0.558946 0.178230
Si Si3 0.500000 0.211113 0.178740
Si Si4 0.000000 0.601378 0.679319
Si Si5 0.711184 0.299695 0.326526
Si Si6 0.183938 0.643215 0.319238
O O1 0.443398 0.759686 0.789031
O O2 0.342408 0.714739 0.767619
O O3 0.353976 0.811116 0.740432
O O4 0.370936 0.768425 0.000000
O O5 0.879058 0.500000 0.201565
O O6 0.945471 0.575502 0.253917
O O7 0.840214 0.592867 0.249766
O O8 0.891473 0.568662 0.000000
O O9 0.500000 0.159054 0.267925
O O10 0.500000 0.199171 0.000000
O O11 0.000000 0.598266 0.500000
O O12 0.695875 0.307737 0.500000
O O13 0.750000 0.250000 0.321816
O O14 0.752856 0.343365 0.276218
O O15 0.181050 0.642506 0.500000
#
# Coordination Sequence:
#
# PCOD9483267 Si02
#       6
#    16  16   8   8  16  16
#     4  10  18  28  44  63  85 113 143 174 213 258
#     4  11  23  36  48  62  83 111 144 186 228 261
#     4  10  20  31  43  62  90 117 143 181 218 249
#     4  12  23  33  48  63  80 112 150 185 223 261
#     4   8  16  29  43  61  85 107 134 175 215 253
#     4  10  19  31  46  63  83 108 140 180 220 258
#
# _framework density 13.882161
#
# number of rings (size 3 to 8) (size 9 to 14) (size 15 to 20)
#    0.000    2.000    2.000    4.200    0.000    8.000 
#    0.000    0.000    0.000    0.000    0.000    0.000 
#    0.000    0.000    0.000    0.900    0.000   17.600 
#
# Total GULP energy -223051.686828 kJ/mol
# GULP energy per Si atom -5576.292171 kJ/mol
# Density = 1.385056 g / cm^3
# Si number density = 13.882161 Si / 1000 Ang^3
#
#
#
# Elastic Constant Matrix: (Units=GPa)
#
#
# Indices 1 2 3 4 5 6 
#
# 1 111.6430 61.1703 62.1774 0.0000 0.0000 0.0000
# 2 61.1703 64.6835 43.3332 0.0000 0.0000 0.0000
# 3 62.1774 43.3332 70.1081 0.0000 0.0000 0.0000
# 4 0.0000 0.0000 0.0000 13.6489 0.0000 0.0000
# 5 0.0000 0.0000 0.0000 0.0000 28.1231 0.0000
# 6 0.0000 0.0000 0.0000 0.0000 0.0000 10.3926
#
#
#
# Elastic Compliance Matrix: (Units=1/GPa)
#
#
# Indices 1 2 3 4 5 6 
#
# 1 0.023334 -0.014000 -0.012041 0.000000 0.000000 0.000000
# 2 -0.014000 0.034785 -0.009084 0.000000 0.000000 0.000000
# 3 -0.012041 -0.009084 0.030558 0.000000 0.000000 0.000000
# 4 0.000000 0.000000 0.000000 0.073266 0.000000 0.000000
# 5 0.000000 0.000000 0.000000 0.000000 0.035558 0.000000
# 6 0.000000 0.000000 0.000000 0.000000 0.000000 0.096222
#
#
# Mechanical properties :
#
#
# Convention : Reuss Voigt Hill
#
# Bulk Modulus (GPa) = 54.27057 64.42183 59.34620
# Shear Modulus (GPa) = 13.50931 15.74983 14.62957
#
# Velocity S-wave (km/s) = 3.12291 3.37194 3.24981
# Velocity P-wave (km/s) = 7.22371 7.85283 7.54483
#
# Compressibility (1/GPa) = 0.01842619
#
# Stress axis : x y z
#
# Youngs Moduli (GPa) = 42.85620 28.74791 32.72514
#
# Poissons Ratio (x) = 0.40247 0.39405
# Poissons Ratio (y) = 0.59998 0.29728
# Poissons Ratio (z) = 0.51604 0.26115
#
# Static dielectric constant tensor:
#      x y z
#    x 1.467480 0.000000 0.000000 
#    y 0.000000 1.437660 0.000000 
#    z 0.000000 0.000000 1.466730 
# 
# From -- ./inp_files/14225.got.cif
#   From: 2010.05.17/outbox.cif.g08.bks.cpg/sg65_8_cif.got.tgz:14225.got - 2010.06.03 17:01:31.
