data_PCOD9483312
_publ_section_title
;
Structure prediction by ZEFSAII (Michael W. Deem and Ramdas Pophale) SiO2 
 PCOD9483312
Probable space group: C M M M
;
_chemical_formula_sum "Si O2"
_cell_formula_units_Z 80
_cell_length_a 8.057336
_cell_length_b 14.416024
_cell_length_c 30.713664
_cell_angle_alpha 90.000000
_cell_angle_beta 90.000000
_cell_angle_gamma 90.000000
_cell_volume 3567.537937
_symmetry_space_group_name_H-M "C M M M"
_symmetry_group_IT_number 65
_symmetry_cell_setting 'orthorhombic'
loop_
_space_group_symop_operation_xyz
x,y,z
-x,-y,z
x,-y,-z
-x,y,-z
-x,-y,-z
x,y,-z
-x,y,z
x,-y,z
1/2+x,1/2+y,z
1/2-x,1/2-y,z
1/2+x,1/2-y,-z
1/2-x,1/2+y,-z
1/2-x,1/2-y,-z
1/2+x,1/2+y,-z
1/2-x,1/2+y,z
1/2+x,1/2-y,z
loop_
_atom_site_type_symbol
_atom_site_label
_atom_site_fract_x
_atom_site_fract_y
_atom_site_fract_z
Si Si1 0.303691 0.643165 0.592758
Si Si2 0.000000 0.385728 0.255216
Si Si3 0.500000 0.886729 0.845141
Si Si4 0.805449 0.357901 0.500000
Si Si5 0.808124 0.886250 0.904245
Si Si6 0.201391 0.105764 0.000000
Si Si7 0.811337 0.892532 0.690155
O O1 0.500000 0.634727 0.593158
O O2 0.250000 0.750000 0.592067
O O3 0.249487 0.602317 0.546440
O O4 0.248911 0.608106 0.639967
O O5 0.000000 0.357354 0.204973
O O6 0.166365 0.352900 0.279803
O O7 0.000000 0.500000 0.256891
O O8 0.667687 0.857521 0.870144
O O9 0.500000 0.000000 0.845621
O O10 0.750000 0.250000 0.500000
O O11 0.000000 0.359660 0.500000
O O12 0.753599 0.855279 0.952868
O O13 0.000000 0.858197 0.895606
O O14 0.810736 0.000000 0.905030
O O15 0.000000 0.102908 0.000000
O O16 0.264288 0.000000 0.000000
O O17 0.000000 0.852830 0.692167
O O18 0.827459 0.000000 0.702838
#
# Coordination Sequence:
#
# PCOD9483312 Si02
#       7
#    16   8   8   8  16   8  16
#     4  10  19  31  50  72  95 119 147 183 219 262
#     4   9  18  30  45  59  81 111 143 189 229 265
#     4   9  16  23  32  51  67  90 131 171 220 259
#     4  10  18  28  45  68  97 123 144 174 214 264
#     4   8  13  20  29  42  64  90 122 167 212 256
#     4   7  10  17  27  39  58  89 121 156 209 256
#     4   9  19  34  50  67  88 119 153 184 225 270
#
# _framework density 22.424429
#
# number of rings (size 3 to 8) (size 9 to 14) (size 15 to 20)
#    0.000    3.100    0.000    3.900    2.800    1.200 
#    0.000    6.500    0.000    3.000    0.000    0.000 
#    0.000    0.000    0.000    0.000    0.000    0.000 
#
# Total GULP energy -223053.311494 kJ/mol
# GULP energy per Si atom -5576.332787 kJ/mol
# Density = 2.237339 g / cm^3
# Si number density = 22.424429 Si / 1000 Ang^3
#
#
#
# Elastic Constant Matrix: (Units=GPa)
#
#
# Indices 1 2 3 4 5 6 
#
# 1 133.4465 9.1058 137.1297 0.0000 0.0000 0.0000
# 2 9.1058 64.8167 6.3236 0.0000 0.0000 0.0000
# 3 137.1297 6.3236 235.0496 0.0000 0.0000 0.0000
# 4 0.0000 0.0000 0.0000 -2.7456 0.0000 0.0000
# 5 0.0000 0.0000 0.0000 0.0000 46.7990 0.0000
# 6 0.0000 0.0000 0.0000 0.0000 0.0000 6.4705
#
#
#
# Elastic Compliance Matrix: (Units=1/GPa)
#
#
# Indices 1 2 3 4 5 6 
#
# 1 0.018871 -0.001581 -0.010967 0.000000 0.000000 0.000000
# 2 -0.001581 0.015601 0.000503 0.000000 0.000000 0.000000
# 3 -0.010967 0.000503 0.010639 0.000000 0.000000 0.000000
# 4 0.000000 0.000000 0.000000 -0.364225 0.000000 0.000000
# 5 0.000000 0.000000 0.000000 0.000000 0.021368 0.000000
# 6 0.000000 0.000000 0.000000 0.000000 0.000000 0.154548
#
#
# Mechanical properties :
#
#
# Convention : Reuss Voigt Hill
#
# Bulk Modulus (GPa) = 47.57234 82.04788 64.81011
# Shear Modulus (GPa) = -44.60347 28.82169 -7.89089
#
# Velocity S-wave (km/s) = -4.46472 3.58897 -1.87790
# Velocity P-wave (km/s) = 2.30603 7.33773 4.92568
#
# Compressibility (1/GPa) = 0.02102062
#
# Stress axis : x y z
#
# Youngs Moduli (GPa) = 52.99016 64.09760 93.99169
#
# Poissons Ratio (x) = 0.10135 1.03083
# Poissons Ratio (y) = 0.08379 -0.04725
# Poissons Ratio (z) = 0.58115 -0.03223
#
# Static dielectric constant tensor:
#      x y z
#    x 1.788620 0.000000 0.000000 
#    y 0.000000 1.917390 0.000000 
#    z 0.000000 0.000000 1.872800 
# 
# From -- ./inp_files/67408.got.cif
#   From: 2010.05.17/outbox.cif.g08.bks.cpg/sg65_34_cif.got.tgz:67408.got - 2010.06.03 17:01:31.
