data_PCOD9483097
_publ_section_title
;
Structure prediction by ZEFSAII (Michael W. Deem and Ramdas Pophale) SiO2 
 PCOD9483097
Probable space group: C M M M
;
_chemical_formula_sum "Si O2"
_cell_formula_units_Z 112
_cell_length_a 17.318678
_cell_length_b 32.894941
_cell_length_c 13.907325
_cell_angle_alpha 90.000000
_cell_angle_beta 90.000000
_cell_angle_gamma 90.000000
_cell_volume 7922.959815
_symmetry_space_group_name_H-M "C M M M"
_symmetry_group_IT_number 65
_symmetry_cell_setting 'orthorhombic'
loop_
_space_group_symop_operation_xyz
x,y,z
-x,-y,z
x,-y,-z
-x,y,-z
-x,-y,-z
x,y,-z
-x,y,z
x,-y,z
1/2+x,1/2+y,z
1/2-x,1/2-y,z
1/2+x,1/2-y,-z
1/2-x,1/2+y,-z
1/2-x,1/2-y,-z
1/2+x,1/2+y,-z
1/2-x,1/2+y,z
1/2+x,1/2-y,z
loop_
_atom_site_type_symbol
_atom_site_label
_atom_site_fract_x
_atom_site_fract_y
_atom_site_fract_z
Si Si1 0.591837 0.330148 0.112900
Si Si2 0.852067 0.909290 0.206573
Si Si3 0.186673 0.579092 0.116296
Si Si4 0.411126 0.158624 0.882979
Si Si5 0.162184 0.256407 0.883508
Si Si6 0.500000 0.452906 0.114709
Si Si7 0.911706 0.500000 0.116664
Si Si8 0.592402 0.452558 0.612941
O O1 0.500000 0.336300 0.120189
O O2 0.635352 0.362140 0.180004
O O3 0.613331 0.283925 0.137953
O O4 0.613748 0.337015 0.000000
O O5 0.770192 0.922663 0.164459
O O6 0.923033 0.931900 0.153663
O O7 0.862566 0.922455 0.316865
O O8 0.142015 0.620459 0.143669
O O9 0.134692 0.540433 0.143909
O O10 0.195886 0.578948 0.000000
O O11 0.500000 0.153885 0.851874
O O12 0.375664 0.201553 0.849795
O O13 0.412125 0.159362 0.000000
O O14 0.250000 0.250000 0.850196
O O15 0.164583 0.259167 0.000000
O O16 0.500000 0.500000 0.143737
O O17 0.500000 0.450063 0.000000
O O18 0.000000 0.500000 0.151333
O O19 0.914800 0.500000 0.000000
O O20 0.607954 0.446227 0.500000
O O21 0.500000 0.447133 0.627470
O O22 0.609768 0.500000 0.635635
#
# Coordination Sequence:
#
# PCOD9483097 Si02
#       8
#    16  16  16  16  16   8   8  16
#     4  10  18  27  38  56  86 121 148 172 209 261
#     4  12  20  30  44  63  89 118 150 181 223 263
#     4  10  20  29  42  63  89 119 153 190 220 259
#     4   9  16  28  43  58  80 119 164 198 225 254
#     4   9  16  25  38  56  80 113 154 193 222 250
#     4  11  22  30  39  57  89 129 156 174 197 252
#     4   9  18  32  44  57  82 119 154 185 222 257
#     4   9  18  33  50  64  80 109 151 192 227 263
#
# _framework density 14.136131000000001
#
# number of rings (size 3 to 8) (size 9 to 14) (size 15 to 20)
#    0.000    2.143    1.429    3.857    2.000    5.714 
#    0.000    0.000    0.000    0.000    0.000    0.000 
#    0.000    8.000    0.000    1.429    0.000    0.000 
#
# Total GULP energy -312227.629805 kJ/mol
# GULP energy per Si atom -5575.493389 kJ/mol
# Density = 1.410396 g / cm^3
# Si number density = 14.136131 Si / 1000 Ang^3
#
#
#
# Elastic Constant Matrix: (Units=GPa)
#
#
# Indices 1 2 3 4 5 6 
#
# 1 110.8098 55.9341 25.6757 0.0000 0.0000 0.0000
# 2 55.9341 115.4273 33.7743 0.0000 0.0000 0.0000
# 3 25.6757 33.7743 41.7277 0.0000 0.0000 0.0000
# 4 0.0000 0.0000 0.0000 -2.6153 0.0000 0.0000
# 5 0.0000 0.0000 0.0000 0.0000 8.4090 0.0000
# 6 0.0000 0.0000 0.0000 0.0000 0.0000 21.5076
#
#
#
# Elastic Compliance Matrix: (Units=1/GPa)
#
#
# Indices 1 2 3 4 5 6 
#
# 1 0.012348 -0.004928 -0.003610 0.000000 0.000000 0.000000
# 2 -0.004928 0.013318 -0.007748 0.000000 0.000000 0.000000
# 3 -0.003610 -0.007748 0.032457 0.000000 0.000000 0.000000
# 4 0.000000 0.000000 0.000000 -0.382371 0.000000 0.000000
# 5 0.000000 0.000000 0.000000 0.000000 0.118920 0.000000
# 6 0.000000 0.000000 0.000000 0.000000 0.000000 0.046495
#
#
# Mechanical properties :
#
#
# Convention : Reuss Voigt Hill
#
# Bulk Modulus (GPa) = 39.13366 55.41480 47.27423
# Shear Modulus (GPa) = -42.46490 15.63230 -13.41630
#
# Velocity S-wave (km/s) = -5.48682 3.32903 -3.08405
# Velocity P-wave (km/s) = 3.52090 7.35272 4.56430
#
# Compressibility (1/GPa) = 0.02555345
#
# Stress axis : x y z
#
# Youngs Moduli (GPa) = 80.98367 75.08478 30.80992
#
# Poissons Ratio (x) = 0.36998 0.11121
# Poissons Ratio (y) = 0.39905 0.23871
# Poissons Ratio (z) = 0.29233 0.58174
#
# Static dielectric constant tensor:
#      x y z
#    x 1.467850 0.000000 0.000000 
#    y 0.000000 1.482110 0.000000 
#    z 0.000000 0.000000 1.439250 
# 
# From -- ./inp_files/43373.got.cif
#   From: 2010.05.17/outbox.cif.g08.bks.cpg/sg65_22_cif.got.tgz:43373.got - 2010.06.03 17:01:31.
