data_PCOD9483449
_publ_section_title
;
Structure prediction by ZEFSAII (Michael W. Deem and Ramdas Pophale) SiO2 
 PCOD9483449
Probable space group: C M M M
;
_chemical_formula_sum "Si O2"
_cell_formula_units_Z 96
_cell_length_a 32.394184
_cell_length_b 29.233999
_cell_length_c 7.725326
_cell_angle_alpha 90.000000
_cell_angle_beta 90.000000
_cell_angle_gamma 90.000000
_cell_volume 7315.972893
_symmetry_space_group_name_H-M "C M M M"
_symmetry_group_IT_number 65
_symmetry_cell_setting 'orthorhombic'
loop_
_space_group_symop_operation_xyz
x,y,z
-x,-y,z
x,-y,-z
-x,y,-z
-x,-y,-z
x,y,-z
-x,y,z
x,-y,z
1/2+x,1/2+y,z
1/2-x,1/2-y,z
1/2+x,1/2-y,-z
1/2-x,1/2+y,-z
1/2-x,1/2-y,-z
1/2+x,1/2+y,-z
1/2-x,1/2+y,z
1/2+x,1/2-y,z
loop_
_atom_site_type_symbol
_atom_site_label
_atom_site_fract_x
_atom_site_fract_y
_atom_site_fract_z
Si Si1 0.869148 0.228442 0.797131
Si Si2 0.761450 0.825236 0.500000
Si Si3 0.954671 0.080388 0.296490
Si Si4 0.454169 0.686691 0.209172
Si Si5 0.865746 0.050986 0.710190
Si Si6 0.687573 0.361703 0.805282
Si Si7 0.317057 0.232610 0.500000
O O1 0.916000 0.218304 0.739582
O O2 0.845582 0.179513 0.783959
O O3 0.845382 0.262553 0.670025
O O4 0.868193 0.241810 0.000000
O O5 0.776744 0.852972 0.333163
O O6 0.714049 0.809918 0.500000
O O7 0.788081 0.778067 0.500000
O O8 0.956139 0.068626 0.500000
O O9 0.949667 0.135204 0.279589
O O10 0.912854 0.058448 0.226272
O O11 0.000000 0.068588 0.222071
O O12 0.500000 0.703095 0.257978
O O13 0.452377 0.682947 0.000000
O O14 0.866338 0.054480 0.500000
O O15 0.836604 0.091152 0.776672
O O16 0.851972 0.000000 0.756991
O O17 0.703628 0.359117 0.000000
#
# Coordination Sequence:
#
# PCOD9483449 Si02
#       7
#    16   8  16  16  16  16   8
#     4   9  17  27  41  60  79  99 125 153 187 231
#     4   9  18  32  43  60  78  92 116 146 188 244
#     4   9  17  26  38  54  70  94 129 164 199 239
#     4   9  16  25  37  53  74 100 128 158 191 227
#     4  10  19  29  41  55  75 101 129 164 202 240
#     4  10  18  29  45  59  75  99 123 153 194 238
#     4   9  18  28  45  60  76  97 113 147 191 234
#
# _framework density 13.121974
#
# number of rings (size 3 to 8) (size 9 to 14) (size 15 to 20)
#    0.000    2.667    2.500    0.000    1.167    1.333 
#    0.000    5.000    0.000    0.000    0.000    3.500 
#    0.000    0.000    0.000    0.000    0.000    0.000 
#
# Total GULP energy -267464.670430 kJ/mol
# GULP energy per Si atom -5572.180634 kJ/mol
# Density = 1.309211 g / cm^3
# Si number density = 13.121974 Si / 1000 Ang^3
#
#
#
# Elastic Constant Matrix: (Units=GPa)
#
#
# Indices 1 2 3 4 5 6 
#
# 1 68.8433 37.8982 38.9926 0.0000 0.0000 0.0000
# 2 37.8982 38.9146 25.3296 0.0000 0.0000 0.0000
# 3 38.9926 25.3296 60.9321 0.0000 0.0000 0.0000
# 4 0.0000 0.0000 0.0000 1.0509 0.0000 0.0000
# 5 0.0000 0.0000 0.0000 0.0000 7.6196 0.0000
# 6 0.0000 0.0000 0.0000 0.0000 0.0000 15.5329
#
#
#
# Elastic Compliance Matrix: (Units=1/GPa)
#
#
# Indices 1 2 3 4 5 6 
#
# 1 0.036606 -0.027970 -0.011798 0.000000 0.000000 0.000000
# 2 -0.027970 0.056602 -0.005630 0.000000 0.000000 0.000000
# 3 -0.011798 -0.005630 0.026302 0.000000 0.000000 0.000000
# 4 0.000000 0.000000 0.000000 0.951597 0.000000 0.000000
# 5 0.000000 0.000000 0.000000 0.000000 0.131241 0.000000
# 6 0.000000 0.000000 0.000000 0.000000 0.000000 0.064379
#
#
# Mechanical properties :
#
#
# Convention : Reuss Voigt Hill
#
# Bulk Modulus (GPa) = 34.82798 41.45899 38.14349
# Shear Modulus (GPa) = 3.65739 9.27197 6.46468
#
# Velocity S-wave (km/s) = 1.67131 2.66108 2.22200
# Velocity P-wave (km/s) = 5.50670 6.41135 5.97617
#
# Compressibility (1/GPa) = 0.02871255
#
# Stress axis : x y z
#
# Youngs Moduli (GPa) = 27.31816 17.66727 38.01961
#
# Poissons Ratio (x) = 0.49416 0.44855
# Poissons Ratio (y) = 0.76410 0.21406
# Poissons Ratio (z) = 0.32230 0.09947
#
# Static dielectric constant tensor:
#      x y z
#    x 1.435090 0.000000 0.000000 
#    y 0.000000 1.391380 0.000000 
#    z 0.000000 0.000000 1.473100 
# 
# From -- ./inp_files/19180.got.cif
#   From: 2010.05.17/outbox.cif.g08.bks.cpg/sg65_10_cif.got.tgz:19180.got - 2010.06.03 17:01:31.
