data_PCOD9483721
_publ_section_title
;
Structure prediction by ZEFSAII (Michael W. Deem and Ramdas Pophale) SiO2 
 PCOD9483721
Probable space group: C M M M
;
_chemical_formula_sum "Si O2"
_cell_formula_units_Z 104
_cell_length_a 17.147281
_cell_length_b 36.947428
_cell_length_c 7.506450
_cell_angle_alpha 90.000000
_cell_angle_beta 90.000000
_cell_angle_gamma 90.000000
_cell_volume 4755.695860
_symmetry_space_group_name_H-M "C M M M"
_symmetry_group_IT_number 65
_symmetry_cell_setting 'orthorhombic'
loop_
_space_group_symop_operation_xyz
x,y,z
-x,-y,z
x,-y,-z
-x,y,-z
-x,-y,-z
x,y,-z
-x,y,z
x,-y,z
1/2+x,1/2+y,z
1/2-x,1/2-y,z
1/2+x,1/2-y,-z
1/2-x,1/2+y,-z
1/2-x,1/2-y,-z
1/2+x,1/2+y,-z
1/2-x,1/2+y,z
1/2+x,1/2-y,z
loop_
_atom_site_type_symbol
_atom_site_label
_atom_site_fract_x
_atom_site_fract_y
_atom_site_fract_z
Si Si1 0.087698 0.578207 0.712399
Si Si2 0.410927 0.459509 0.214355
Si Si3 0.000000 0.153468 0.281728
Si Si4 0.653885 0.384974 0.710247
Si Si5 0.500000 0.262776 0.716853
Si Si6 0.668421 0.769927 0.282502
Si Si7 0.088956 0.500000 0.789412
Si Si8 0.314955 0.853216 0.281507
O O1 0.083421 0.582084 0.500000
O O2 0.126092 0.538741 0.742034
O O3 0.128146 0.614610 0.778781
O O4 0.000000 0.575908 0.785601
O O5 0.500000 0.451351 0.275843
O O6 0.390890 0.500000 0.275396
O O7 0.353008 0.427891 0.268189
O O8 0.412986 0.460073 0.000000
O O9 0.923892 0.132926 0.215720
O O10 0.000000 0.151985 0.500000
O O11 0.000000 0.195218 0.232890
O O12 0.654582 0.377537 0.500000
O O13 0.730498 0.366214 0.781435
O O14 0.500000 0.260099 0.500000
O O15 0.584054 0.246302 0.774120
O O16 0.669069 0.768212 0.500000
O O17 0.750000 0.750000 0.226961
O O18 0.669461 0.812075 0.228110
O O19 0.000000 0.500000 0.710897
O O20 0.082900 0.500000 0.000000
O O21 0.316760 0.853049 0.500000
#
# Coordination Sequence:
#
# PCOD9483721 Si02
#       8
#    16  16   8  16   8  16   8  16
#     4   9  17  30  49  69  93 127 162 197 241 290
#     4   9  18  33  51  70  95 126 161 203 246 288
#     4   9  16  26  42  66  95 126 159 193 232 283
#     4  10  18  30  47  69  97 129 161 198 241 285
#     4   9  16  24  40  64  94 132 165 194 241 297
#     4   9  16  26  40  62  95 134 167 199 243 297
#     4   9  17  31  51  73  95 120 157 202 244 290
#     4   9  18  29  43  66  98 130 162 201 242 285
#
# _framework density 21.868516
#
# number of rings (size 3 to 8) (size 9 to 14) (size 15 to 20)
#    0.000    2.846    0.769    1.615    1.077    4.923 
#    1.385    1.538    0.000    0.000    0.000    0.000 
#    0.000   13.538    0.000    0.000    0.000    0.000 
#
# Total GULP energy -290004.447472 kJ/mol
# GULP energy per Si atom -5577.008605 kJ/mol
# Density = 2.181874 g / cm^3
# Si number density = 21.868516 Si / 1000 Ang^3
#
#
#
# Elastic Constant Matrix: (Units=GPa)
#
#
# Indices 1 2 3 4 5 6 
#
# 1 118.3830 90.2464 3.4113 0.0000 0.0000 0.0000
# 2 90.2464 199.0024 -4.3799 0.0000 0.0000 0.0000
# 3 3.4113 -4.3799 57.3781 0.0000 0.0000 0.0000
# 4 0.0000 0.0000 0.0000 -3.8050 0.0000 0.0000
# 5 0.0000 0.0000 0.0000 0.0000 -2.6030 0.0000
# 6 0.0000 0.0000 0.0000 0.0000 0.0000 27.5370
#
#
#
# Elastic Compliance Matrix: (Units=1/GPa)
#
#
# Indices 1 2 3 4 5 6 
#
# 1 0.012996 -0.005920 -0.001225 0.000000 0.000000 0.000000
# 2 -0.005920 0.007731 0.000942 0.000000 0.000000 0.000000
# 3 -0.001225 0.000942 0.017573 0.000000 0.000000 0.000000
# 4 0.000000 0.000000 0.000000 -0.262809 0.000000 0.000000
# 5 0.000000 0.000000 0.000000 0.000000 -0.384173 0.000000
# 6 0.000000 0.000000 0.000000 0.000000 0.000000 0.036315
#
#
# Mechanical properties :
#
#
# Convention : Reuss Voigt Hill
#
# Bulk Modulus (GPa) = 38.61962 61.47989 50.04976
# Shear Modulus (GPa) = -9.06896 23.25817 7.09461
#
# Velocity S-wave (km/s) = -2.03864 3.26474 1.80312
# Velocity P-wave (km/s) = 3.48667 6.51044 5.22220
#
# Compressibility (1/GPa) = 0.02589357
#
# Stress axis : x y z
#
# Youngs Moduli (GPa) = 76.94819 129.35464 56.90562
#
# Poissons Ratio (x) = 0.76584 0.06968
# Poissons Ratio (y) = 0.45557 -0.05361
# Poissons Ratio (z) = 0.09423 -0.12187
#
# Static dielectric constant tensor:
#      x y z
#    x 1.802860 0.000000 0.000000 
#    y 0.000000 1.780250 0.000000 
#    z 0.000000 0.000000 1.816490 
# 
# From -- ./inp_files/27739.got.cif
#   From: 2010.05.17/outbox.cif.g08.bks.cpg/sg65_14_cif.got.tgz:27739.got - 2010.06.03 17:01:31.
