data_PCOD9483100
_publ_section_title
;
Structure prediction by ZEFSAII (Michael W. Deem and Ramdas Pophale) SiO2 
 PCOD9483100
Probable space group: C M M M
;
_chemical_formula_sum "Si O2"
_cell_formula_units_Z 112
_cell_length_a 19.636933
_cell_length_b 14.430011
_cell_length_c 18.993130
_cell_angle_alpha 90.000000
_cell_angle_beta 90.000000
_cell_angle_gamma 90.000000
_cell_volume 5381.915334
_symmetry_space_group_name_H-M "C M M M"
_symmetry_group_IT_number 65
_symmetry_cell_setting 'orthorhombic'
loop_
_space_group_symop_operation_xyz
x,y,z
-x,-y,z
x,-y,-z
-x,y,-z
-x,-y,-z
x,y,-z
-x,y,z
x,-y,z
1/2+x,1/2+y,z
1/2-x,1/2-y,z
1/2+x,1/2-y,-z
1/2-x,1/2+y,-z
1/2-x,1/2-y,-z
1/2+x,1/2+y,-z
1/2-x,1/2+y,z
1/2+x,1/2-y,z
loop_
_atom_site_type_symbol
_atom_site_label
_atom_site_fract_x
_atom_site_fract_y
_atom_site_fract_z
Si Si1 0.274847 0.893288 0.076813
Si Si2 0.717828 0.613411 0.778196
Si Si3 0.576786 0.604442 0.235254
Si Si4 0.867018 0.386701 0.727033
Si Si5 0.423337 0.847064 0.124284
Si Si6 0.580366 0.887999 0.423750
Si Si7 0.578679 0.636173 0.075515
O O1 0.232269 0.852291 0.141654
O O2 0.355196 0.895274 0.095831
O O3 0.252888 0.000000 0.073356
O O4 0.266801 0.850794 0.000000
O O5 0.714696 0.500000 0.778451
O O6 0.648420 0.648882 0.741674
O O7 0.788066 0.635919 0.739629
O O8 0.500000 0.644968 0.241586
O O9 0.572624 0.500000 0.264287
O O10 0.594844 0.596468 0.151884
O O11 0.874875 0.500000 0.732430
O O12 0.911361 0.345663 0.791409
O O13 0.888557 0.355636 0.649570
O O14 0.500000 0.883596 0.110189
O O15 0.419454 0.746128 0.088930
O O16 0.607116 0.854604 0.500000
O O17 0.500000 0.868197 0.421708
O O18 0.587636 0.000000 0.423789
O O19 0.500000 0.609823 0.068389
O O20 0.612157 0.613040 0.000000
#
# Coordination Sequence:
#
# PCOD9483100 Si02
#       7
#    16  16  16  16  16  16  16
#     4   9  17  27  37  50  71 101 135 169 202 230
#     4   8  15  27  41  58  79 100 126 165 207 244
#     4   9  17  30  48  64  74  89 120 164 214 268
#     4   9  16  26  40  58  84 117 146 168 193 227
#     4  10  18  27  39  54  76 107 141 172 198 227
#     4   8  13  21  35  58  87 116 146 177 199 214
#     4   9  18  30  41  56  79 102 126 167 220 258
#
# _framework density 20.810434999999998
#
# number of rings (size 3 to 8) (size 9 to 14) (size 15 to 20)
#    0.000    3.143    0.000    2.571    0.000    3.429 
#    0.000    6.429    0.000    4.286    0.000    0.000 
#    0.000    2.857    0.000   12.286    0.000   14.000 
#
# Total GULP energy -311860.463000 kJ/mol
# GULP energy per Si atom -5568.936839 kJ/mol
# Density = 2.076307 g / cm^3
# Si number density = 20.810435 Si / 1000 Ang^3
#
#
#
# Elastic Constant Matrix: (Units=GPa)
#
#
# Indices 1 2 3 4 5 6 
#
# 1 144.3779 7.2461 28.0681 0.0000 0.0000 0.0000
# 2 7.2461 51.5656 -0.4413 0.0000 0.0000 0.0000
# 3 28.0681 -0.4413 111.6594 0.0000 0.0000 0.0000
# 4 0.0000 0.0000 0.0000 16.1272 0.0000 0.0000
# 5 0.0000 0.0000 0.0000 0.0000 3.2416 0.0000
# 6 0.0000 0.0000 0.0000 0.0000 0.0000 12.6510
#
#
#
# Elastic Compliance Matrix: (Units=1/GPa)
#
#
# Indices 1 2 3 4 5 6 
#
# 1 0.007338 -0.001047 -0.001849 0.000000 0.000000 0.000000
# 2 -0.001047 0.019543 0.000340 0.000000 0.000000 0.000000
# 3 -0.001849 0.000340 0.009422 0.000000 0.000000 0.000000
# 4 0.000000 0.000000 0.000000 0.062007 0.000000 0.000000
# 5 0.000000 0.000000 0.000000 0.000000 0.308486 0.000000
# 6 0.000000 0.000000 0.000000 0.000000 0.000000 0.079045
#
#
# Mechanical properties :
#
#
# Convention : Reuss Voigt Hill
#
# Bulk Modulus (GPa) = 32.05924 41.92761 36.99343
# Shear Modulus (GPa) = 9.97309 24.58596 17.27953
#
# Velocity S-wave (km/s) = 2.19152 3.44091 2.88467
# Velocity P-wave (km/s) = 4.67359 5.99814 5.37681
#
# Compressibility (1/GPa) = 0.03119225
#
# Stress axis : x y z
#
# Youngs Moduli (GPa) = 136.27269 51.16970 106.13590
#
# Poissons Ratio (x) = 0.05357 0.19622
# Poissons Ratio (y) = 0.14268 -0.03613
# Poissons Ratio (z) = 0.25194 -0.01742
#
# Static dielectric constant tensor:
#      x y z
#    x 1.801910 0.000000 0.000000 
#    y 0.000000 1.795360 0.000000 
#    z 0.000000 0.000000 1.786050 
# 
# From -- ./inp_files/56064.got.cif
#   From: 2010.05.17/outbox.cif.g08.bks.cpg/sg65_29_cif.got.tgz:56064.got - 2010.06.03 17:01:31.
