data_PCOD9483076
_publ_section_title
;
Structure prediction by ZEFSAII (Michael W. Deem and Ramdas Pophale) SiO2 
 PCOD9483076
Probable space group: C M M M
;
_chemical_formula_sum "Si O2"
_cell_formula_units_Z 96
_cell_length_a 8.540252
_cell_length_b 28.149722
_cell_length_c 25.080242
_cell_angle_alpha 90.000000
_cell_angle_beta 90.000000
_cell_angle_gamma 90.000000
_cell_volume 6029.433626
_symmetry_space_group_name_H-M "C M M M"
_symmetry_group_IT_number 65
_symmetry_cell_setting 'orthorhombic'
loop_
_space_group_symop_operation_xyz
x,y,z
-x,-y,z
x,-y,-z
-x,y,-z
-x,-y,-z
x,y,-z
-x,y,z
x,-y,z
1/2+x,1/2+y,z
1/2-x,1/2-y,z
1/2+x,1/2-y,-z
1/2-x,1/2+y,-z
1/2-x,1/2-y,-z
1/2+x,1/2+y,-z
1/2-x,1/2+y,z
1/2+x,1/2-y,z
loop_
_atom_site_type_symbol
_atom_site_label
_atom_site_fract_x
_atom_site_fract_y
_atom_site_fract_z
Si Si1 0.687570 0.695814 0.442015
Si Si2 0.810731 0.394922 0.940393
Si Si3 0.310293 0.149407 0.220448
Si Si4 0.190695 0.552985 0.833839
Si Si5 0.313652 0.698056 0.115026
Si Si6 0.312509 0.196093 0.330828
O O1 0.732331 0.674782 0.500000
O O2 0.500000 0.696869 0.438954
O O3 0.750000 0.750000 0.442583
O O4 0.753599 0.675125 0.387121
O O5 0.761387 0.430687 0.893364
O O6 0.751347 0.342923 0.923651
O O7 0.000000 0.393942 0.939718
O O8 0.759258 0.407664 0.000000
O O9 0.500000 0.151739 0.217246
O O10 0.261811 0.095693 0.205397
O O11 0.243517 0.183224 0.174251
O O12 0.262471 0.166649 0.278893
O O13 0.246198 0.500000 0.821164
O O14 0.000000 0.552081 0.833183
O O15 0.500000 0.698142 0.113501
O O16 0.250000 0.750000 0.101533
O O17 0.500000 0.198049 0.332206
O O18 0.250000 0.250000 0.325768
#
# Coordination Sequence:
#
# PCOD9483076 Si02
#       6
#    16  16  16  16  16  16
#     4   9  16  25  37  54  79 112 148 181 210 242
#     4   9  18  32  48  67  90 112 138 173 209 251
#     4   9  18  31  45  65  90 113 143 179 213 254
#     4   8  14  27  48  70  89 109 135 171 214 257
#     4  11  21  32  47  64  85 115 146 176 212 251
#     4  10  18  26  39  59  85 116 147 178 209 244
#
# _framework density 15.921894
#
# number of rings (size 3 to 8) (size 9 to 14) (size 15 to 20)
#    0.000    2.667    0.000    5.000    0.000    4.667 
#    0.000    1.667    0.000    8.000    0.000    4.667 
#    0.000    0.667    0.000    8.333    0.000    1.333 
#
# Total GULP energy -267435.279584 kJ/mol
# GULP energy per Si atom -5571.568325 kJ/mol
# Density = 1.588566 g / cm^3
# Si number density = 15.921894 Si / 1000 Ang^3
#
#
#
# Elastic Constant Matrix: (Units=GPa)
#
#
# Indices 1 2 3 4 5 6 
#
# 1 21.6799 5.5253 20.1216 0.0000 0.0000 0.0000
# 2 5.5253 66.1495 25.6521 0.0000 0.0000 0.0000
# 3 20.1216 25.6521 124.8409 0.0000 0.0000 0.0000
# 4 0.0000 0.0000 0.0000 10.3553 0.0000 0.0000
# 5 0.0000 0.0000 0.0000 0.0000 19.0096 0.0000
# 6 0.0000 0.0000 0.0000 0.0000 0.0000 11.4308
#
#
#
# Elastic Compliance Matrix: (Units=1/GPa)
#
#
# Indices 1 2 3 4 5 6 
#
# 1 0.054333 -0.001241 -0.008502 0.000000 0.000000 0.000000
# 2 -0.001241 0.016454 -0.003181 0.000000 0.000000 0.000000
# 3 -0.008502 -0.003181 0.010034 0.000000 0.000000 0.000000
# 4 0.000000 0.000000 0.000000 0.096569 0.000000 0.000000
# 5 0.000000 0.000000 0.000000 0.000000 0.052605 0.000000
# 6 0.000000 0.000000 0.000000 0.000000 0.000000 0.087483
#
#
# Mechanical properties :
#
#
# Convention : Reuss Voigt Hill
#
# Bulk Modulus (GPa) = 18.19077 35.02980 26.61028
# Shear Modulus (GPa) = 13.82546 18.91723 16.37134
#
# Velocity S-wave (km/s) = 2.94994 3.45066 3.21008
# Velocity P-wave (km/s) = 4.80132 6.15832 5.52166
#
# Compressibility (1/GPa) = 0.05497294
#
# Stress axis : x y z
#
# Youngs Moduli (GPa) = 18.40496 60.77367 99.65920
#
# Poissons Ratio (x) = 0.07543 0.84733
# Poissons Ratio (y) = 0.02284 0.31701
# Poissons Ratio (z) = 0.15648 0.19332
#
# Static dielectric constant tensor:
#      x y z
#    x 1.560840 0.000000 0.000000 
#    y 0.000000 1.511160 0.000000 
#    z 0.000000 0.000000 1.566900 
# 
# From -- ./inp_files/68037.got.cif
#   From: 2010.05.17/outbox.cif.g08.bks.cpg/sg65_35_cif.got.tgz:68037.got - 2010.06.03 17:01:31.
