data_PCOD9483632
_publ_section_title
;
Structure prediction by ZEFSAII (Michael W. Deem and Ramdas Pophale) SiO2 
 PCOD9483632
Probable space group: C M M M
;
_chemical_formula_sum "Si O2"
_cell_formula_units_Z 96
_cell_length_a 24.429301
_cell_length_b 26.399784
_cell_length_c 7.741731
_cell_angle_alpha 90.000000
_cell_angle_beta 90.000000
_cell_angle_gamma 90.000000
_cell_volume 4992.861178
_symmetry_space_group_name_H-M "C M M M"
_symmetry_group_IT_number 65
_symmetry_cell_setting 'orthorhombic'
loop_
_space_group_symop_operation_xyz
x,y,z
-x,-y,z
x,-y,-z
-x,y,-z
-x,-y,-z
x,y,-z
-x,y,z
x,-y,z
1/2+x,1/2+y,z
1/2-x,1/2-y,z
1/2+x,1/2-y,-z
1/2-x,1/2+y,-z
1/2-x,1/2-y,-z
1/2+x,1/2+y,-z
1/2-x,1/2+y,z
1/2+x,1/2-y,z
loop_
_atom_site_type_symbol
_atom_site_label
_atom_site_fract_x
_atom_site_fract_y
_atom_site_fract_z
Si Si1 0.629856 0.846318 0.303700
Si Si2 0.062016 0.250747 0.706879
Si Si3 0.684896 0.557662 0.291948
Si Si4 0.244453 0.309774 0.800737
Si Si5 0.688987 0.941946 0.711317
Si Si6 0.639602 0.658382 0.203353
O O1 0.610094 0.854603 0.500000
O O2 0.592948 0.801340 0.224551
O O3 0.691019 0.823739 0.304044
O O4 0.643648 0.901679 0.226029
O O5 0.060412 0.256663 0.500000
O O6 0.094401 0.198229 0.736612
O O7 0.000000 0.247713 0.772684
O O8 0.685713 0.557927 0.500000
O O9 0.673918 0.500000 0.235080
O O10 0.747898 0.570068 0.235005
O O11 0.639426 0.598166 0.233840
O O12 0.250000 0.250000 0.809728
O O13 0.301119 0.328022 0.719555
O O14 0.237482 0.327971 0.000000
O O15 0.688911 0.939675 0.500000
O O16 0.678052 0.000000 0.760621
O O17 0.643717 0.667438 0.000000
#
# Coordination Sequence:
#
# PCOD9483632 Si02
#       6
#    16  16  16  16  16  16
#     4  10  18  29  50  72  94 129 168 204 242 293
#     4  10  22  37  51  70  96 128 169 215 256 294
#     4   9  17  30  49  74 105 137 165 195 237 292
#     4  10  19  30  43  68 104 131 153 193 248 300
#     4   8  14  25  43  70 101 130 161 195 233 285
#     4  11  21  32  50  74 102 134 164 200 247 299
#
# _framework density 19.227452
#
# number of rings (size 3 to 8) (size 9 to 14) (size 15 to 20)
#    0.000    2.333    3.333    1.500    0.000    1.667 
#    0.000    0.000    0.000    1.500    0.000    7.000 
#    0.000    0.000    0.000    3.000    0.000    3.333 
#
# Total GULP energy -267267.380323 kJ/mol
# GULP energy per Si atom -5568.070423 kJ/mol
# Density = 1.918369 g / cm^3
# Si number density = 19.227452 Si / 1000 Ang^3
#
#
#
# Elastic Constant Matrix: (Units=GPa)
#
#
# Indices 1 2 3 4 5 6 
#
# 1 105.5881 73.6607 2.6861 0.0000 0.0000 0.0000
# 2 73.6607 167.7307 1.9524 0.0000 0.0000 0.0000
# 3 2.6861 1.9524 33.7599 0.0000 0.0000 0.0000
# 4 0.0000 0.0000 0.0000 14.9585 0.0000 0.0000
# 5 0.0000 0.0000 0.0000 0.0000 -0.2786 0.0000
# 6 0.0000 0.0000 0.0000 0.0000 0.0000 11.8788
#
#
#
# Elastic Compliance Matrix: (Units=1/GPa)
#
#
# Indices 1 2 3 4 5 6 
#
# 1 0.013672 -0.005996 -0.000741 0.000000 0.000000 0.000000
# 2 -0.005996 0.008595 -0.000020 0.000000 0.000000 0.000000
# 3 -0.000741 -0.000020 0.029681 0.000000 0.000000 0.000000
# 4 0.000000 0.000000 0.000000 0.066851 0.000000 0.000000
# 5 0.000000 0.000000 0.000000 0.000000 -3.589621 0.000000
# 6 0.000000 0.000000 0.000000 0.000000 0.000000 0.084184
#
#
# Mechanical properties :
#
#
# Convention : Reuss Voigt Hill
#
# Bulk Modulus (GPa) = 26.01795 51.51968 38.76881
# Shear Modulus (GPa) = -1.48796 20.56372 9.53788
#
# Velocity S-wave (km/s) = -0.88065 3.27387 2.22965
# Velocity P-wave (km/s) = 3.53935 6.41436 5.18030
#
# Compressibility (1/GPa) = 0.03843500
#
# Stress axis : x y z
#
# Youngs Moduli (GPa) = 73.14009 116.34311 33.69149
#
# Poissons Ratio (x) = 0.69756 0.02497
# Poissons Ratio (y) = 0.43853 0.00067
# Poissons Ratio (z) = 0.05420 0.00233
#
# Static dielectric constant tensor:
#      x y z
#    x 1.655760 0.000000 0.000000 
#    y 0.000000 1.767010 0.000000 
#    z 0.000000 0.000000 1.727000 
# 
# From -- ./inp_files/12178.got.cif
#   From: 2010.05.17/outbox.cif.g08.bks.cpg/sg65_7_cif.got.tgz:12178.got - 2010.06.03 17:01:31.
