data_PCOD9483261
_publ_section_title
;
Structure prediction by ZEFSAII (Michael W. Deem and Ramdas Pophale) SiO2 
 PCOD9483261
Probable space group: C M M M
;
_chemical_formula_sum "Si O2"
_cell_formula_units_Z 68
_cell_length_a 21.770359
_cell_length_b 13.852643
_cell_length_c 12.218375
_cell_angle_alpha 90.000000
_cell_angle_beta 90.000000
_cell_angle_gamma 90.000000
_cell_volume 3684.781014
_symmetry_space_group_name_H-M "C M M M"
_symmetry_group_IT_number 65
_symmetry_cell_setting 'orthorhombic'
loop_
_space_group_symop_operation_xyz
x,y,z
-x,-y,z
x,-y,-z
-x,y,-z
-x,-y,-z
x,y,-z
-x,y,z
x,-y,z
1/2+x,1/2+y,z
1/2-x,1/2-y,z
1/2+x,1/2-y,-z
1/2-x,1/2+y,-z
1/2-x,1/2-y,-z
1/2+x,1/2+y,-z
1/2-x,1/2+y,z
1/2+x,1/2-y,z
loop_
_atom_site_type_symbol
_atom_site_label
_atom_site_fract_x
_atom_site_fract_y
_atom_site_fract_z
Si Si1 0.930172 0.500000 0.741137
Si Si2 0.426387 0.218011 0.000000
Si Si3 0.090641 0.500000 0.000000
Si Si4 0.572843 0.197320 0.629698
Si Si5 0.649012 0.284448 0.800583
Si Si6 0.762661 0.609831 0.869368
O O1 0.932911 0.500000 0.872862
O O2 0.905732 0.401313 0.690045
O O3 0.000000 0.500000 0.700219
O O4 0.403178 0.274329 0.893576
O O5 0.391689 0.113793 0.000000
O O6 0.500000 0.200058 0.000000
O O7 0.580238 0.189420 0.500000
O O8 0.500000 0.212051 0.652899
O O9 0.614854 0.278279 0.685342
O O10 0.695170 0.372735 0.819388
O O11 0.692892 0.190977 0.820701
O O12 0.785353 0.500000 0.852587
O O13 0.756217 0.625065 0.000000
#
# Coordination Sequence:
#
# PCOD9483261 Si02
#       6
#     8   8   4  16  16  16
#     4  10  18  28  43  71 112 148 176 205 254 328
#     4  12  21  29  48  82 115 139 171 219 273 327
#     4  12  21  26  42  82 120 144 166 208 269 318
#     4  10  21  35  52  76 111 151 182 218 272 330
#     4  11  20  35  56  81 107 143 184 222 267 322
#     4  10  21  37  56  79 110 146 182 223 275 325
#
# _framework density 18.454284999999999
#
# number of rings (size 3 to 8) (size 9 to 14) (size 15 to 20)
#    0.000    1.412    4.706    2.824    3.294    1.412 
#    0.000    2.353    0.000    5.647    0.000    1.647 
#    0.000    0.000    0.000    0.000    0.000    0.000 
#
# Total GULP energy -189409.448076 kJ/mol
# GULP energy per Si atom -5570.866120 kJ/mol
# Density = 1.841228 g / cm^3
# Si number density = 18.454285 Si / 1000 Ang^3
#
#
#
# Elastic Constant Matrix: (Units=GPa)
#
#
# Indices 1 2 3 4 5 6 
#
# 1 82.3166 11.0450 37.3771 0.0000 0.0000 0.0000
# 2 11.0450 32.1407 6.1788 0.0000 0.0000 0.0000
# 3 37.3771 6.1788 90.3892 0.0000 0.0000 0.0000
# 4 0.0000 0.0000 0.0000 12.3632 0.0000 0.0000
# 5 0.0000 0.0000 0.0000 0.0000 29.5415 0.0000
# 6 0.0000 0.0000 0.0000 0.0000 0.0000 27.9963
#
#
#
# Elastic Compliance Matrix: (Units=1/GPa)
#
#
# Indices 1 2 3 4 5 6 
#
# 1 0.015483 -0.004144 -0.006119 0.000000 0.000000 0.000000
# 2 -0.004144 0.032637 -0.000517 0.000000 0.000000 0.000000
# 3 -0.006119 -0.000517 0.013629 0.000000 0.000000 0.000000
# 4 0.000000 0.000000 0.000000 0.080885 0.000000 0.000000
# 5 0.000000 0.000000 0.000000 0.000000 0.033851 0.000000
# 6 0.000000 0.000000 0.000000 0.000000 0.000000 0.035719
#
#
# Mechanical properties :
#
#
# Convention : Reuss Voigt Hill
#
# Bulk Modulus (GPa) = 24.88340 34.89423 29.88882
# Shear Modulus (GPa) = 20.22977 23.99656 22.11317
#
# Velocity S-wave (km/s) = 3.31450 3.60991 3.46536
# Velocity P-wave (km/s) = 5.30669 6.02701 5.67828
#
# Compressibility (1/GPa) = 0.04018743
#
# Stress axis : x y z
#
# Youngs Moduli (GPa) = 64.58820 30.64023 73.37337
#
# Poissons Ratio (x) = 0.12698 0.44897
# Poissons Ratio (y) = 0.26767 0.03795
# Poissons Ratio (z) = 0.39522 0.01585
#
# Static dielectric constant tensor:
#      x y z
#    x 1.700650 0.000000 0.000000 
#    y 0.000000 1.677470 0.000000 
#    z 0.000000 0.000000 1.617210 
# 
# From -- ./inp_files/24533.got.cif
#   From: 2010.05.17/outbox.cif.g08.bks.cpg/sg65_13_cif.got.tgz:24533.got - 2010.06.03 17:01:31.
