data_PCOD9483801
_publ_section_title
;
Structure prediction by ZEFSAII (Michael W. Deem and Ramdas Pophale) SiO2 
 PCOD9483801
Probable space group: C M M M
;
_chemical_formula_sum "Si O2"
_cell_formula_units_Z 80
_cell_length_a 18.385069
_cell_length_b 7.985793
_cell_length_c 28.753240
_cell_angle_alpha 90.000000
_cell_angle_beta 90.000000
_cell_angle_gamma 90.000000
_cell_volume 4221.532160
_symmetry_space_group_name_H-M "C M M M"
_symmetry_group_IT_number 65
_symmetry_cell_setting 'orthorhombic'
loop_
_space_group_symop_operation_xyz
x,y,z
-x,-y,z
x,-y,-z
-x,y,-z
-x,-y,-z
x,y,-z
-x,y,z
x,-y,z
1/2+x,1/2+y,z
1/2-x,1/2-y,z
1/2+x,1/2-y,-z
1/2-x,1/2+y,-z
1/2-x,1/2-y,-z
1/2+x,1/2+y,-z
1/2-x,1/2+y,z
1/2+x,1/2-y,z
loop_
_atom_site_type_symbol
_atom_site_label
_atom_site_fract_x
_atom_site_fract_y
_atom_site_fract_z
Si Si1 0.666038 0.799069 0.784536
Si Si2 0.334957 0.302894 0.500000
Si Si3 0.412328 0.196278 0.880074
Si Si4 0.588425 0.500000 0.053189
Si Si5 0.583961 0.794485 0.692097
Si Si6 0.834527 0.698406 0.600358
O O1 0.750000 0.750000 0.786067
O O2 0.624217 0.750079 0.831517
O O3 0.627558 0.736159 0.737588
O O4 0.661590 0.000000 0.782977
O O5 0.337428 0.500000 0.500000
O O6 0.250000 0.250000 0.500000
O O7 0.365298 0.243359 0.549437
O O8 0.500000 0.202475 0.875202
O O9 0.390386 0.331069 0.919179
O O10 0.393582 0.000000 0.889948
O O11 0.500000 0.500000 0.052259
O O12 0.614164 0.500000 0.000000
O O13 0.500000 0.744691 0.694491
O O14 0.621474 0.734313 0.644509
O O15 0.585570 0.000000 0.691918
O O16 0.836001 0.500000 0.603408
O O17 0.750000 0.750000 0.602945
#
# Coordination Sequence:
#
# PCOD9483801 Si02
#       6
#    16   8  16   8  16  16
#     4  10  20  33  53  79 104 138 173 215 262 317
#     4  10  18  30  49  70  97 129 165 209 255 302
#     4   9  18  33  54  80 110 146 184 224 270 319
#     4   9  18  32  54  84 114 144 181 228 274 316
#     4   9  18  33  52  74 102 134 170 211 258 311
#     4  10  18  30  51  75  99 129 166 212 255 307
#
# _framework density 18.950465999999999
#
# number of rings (size 3 to 8) (size 9 to 14) (size 15 to 20)
#    0.000    2.500    0.000    3.900    1.400    2.800 
#    0.000    3.500    0.000    8.400    0.000    0.000 
#    0.000    0.000    0.000    0.000    0.000    0.000 
#
# Total GULP energy -223063.880999 kJ/mol
# GULP energy per Si atom -5576.597025 kJ/mol
# Density = 1.890733 g / cm^3
# Si number density = 18.950466 Si / 1000 Ang^3
#
#
#
# Elastic Constant Matrix: (Units=GPa)
#
#
# Indices 1 2 3 4 5 6 
#
# 1 63.9661 22.0413 69.0772 0.0000 0.0000 0.0000
# 2 22.0413 59.1929 62.7302 0.0000 0.0000 0.0000
# 3 69.0772 62.7302 219.3326 0.0000 0.0000 0.0000
# 4 0.0000 0.0000 0.0000 20.8798 0.0000 0.0000
# 5 0.0000 0.0000 0.0000 0.0000 36.5082 0.0000
# 6 0.0000 0.0000 0.0000 0.0000 0.0000 17.4667
#
#
#
# Elastic Compliance Matrix: (Units=1/GPa)
#
#
# Indices 1 2 3 4 5 6 
#
# 1 0.023762 -0.001316 -0.007107 0.000000 0.000000 0.000000
# 2 -0.001316 0.024314 -0.006540 0.000000 0.000000 0.000000
# 3 -0.007107 -0.006540 0.008668 0.000000 0.000000 0.000000
# 4 0.000000 0.000000 0.000000 0.047893 0.000000 0.000000
# 5 0.000000 0.000000 0.000000 0.000000 0.027391 0.000000
# 6 0.000000 0.000000 0.000000 0.000000 0.000000 0.057252
#
#
# Mechanical properties :
#
#
# Convention : Reuss Voigt Hill
#
# Bulk Modulus (GPa) = 37.28771 72.24321 54.76546
# Shear Modulus (GPa) = 21.91585 27.54713 24.73149
#
# Velocity S-wave (km/s) = 3.40440 3.81680 3.61648
# Velocity P-wave (km/s) = 5.93063 7.59136 6.81180
#
# Compressibility (1/GPa) = 0.02681849
#
# Stress axis : x y z
#
# Youngs Moduli (GPa) = 42.08417 41.12806 115.36716
#
# Poissons Ratio (x) = 0.05413 0.81994
# Poissons Ratio (y) = 0.05539 0.75444
# Poissons Ratio (z) = 0.29910 0.26896
#
# Static dielectric constant tensor:
#      x y z
#    x 1.641760 0.000000 0.000000 
#    y 0.000000 1.670330 0.000000 
#    z 0.000000 0.000000 1.703540 
# 
# From -- ./inp_files/70865.got.cif
#   From: 2010.05.17/outbox.cif.g08.bks.cpg/sg65_36_cif.got.tgz:70865.got - 2010.06.03 17:01:31.
