data_PCOD9483601
_publ_section_title
;
Structure prediction by ZEFSAII (Michael W. Deem and Ramdas Pophale) SiO2 
 PCOD9483601
Probable space group: C M M M
;
_chemical_formula_sum "Si O2"
_cell_formula_units_Z 96
_cell_length_a 30.520415
_cell_length_b 20.560386
_cell_length_c 7.447350
_cell_angle_alpha 90.000000
_cell_angle_beta 90.000000
_cell_angle_gamma 90.000000
_cell_volume 4673.297868
_symmetry_space_group_name_H-M "C M M M"
_symmetry_group_IT_number 65
_symmetry_cell_setting 'orthorhombic'
loop_
_space_group_symop_operation_xyz
x,y,z
-x,-y,z
x,-y,-z
-x,y,-z
-x,-y,-z
x,y,-z
-x,y,z
x,-y,z
1/2+x,1/2+y,z
1/2-x,1/2-y,z
1/2+x,1/2-y,-z
1/2-x,1/2+y,-z
1/2-x,1/2-y,-z
1/2+x,1/2+y,-z
1/2-x,1/2+y,z
1/2+x,1/2-y,z
loop_
_atom_site_type_symbol
_atom_site_label
_atom_site_fract_x
_atom_site_fract_y
_atom_site_fract_z
Si Si1 0.774252 0.927536 0.716568
Si Si2 0.552853 0.430637 0.284999
Si Si3 0.123280 0.695831 0.705203
Si Si4 0.949257 0.210562 0.279632
Si Si5 0.704336 0.718008 0.209884
Si Si6 0.672650 0.071984 0.719132
O O1 0.775365 0.928648 0.500000
O O2 0.796602 0.860042 0.770998
O O3 0.723360 0.920742 0.774190
O O4 0.789669 0.000000 0.775901
O O5 0.560225 0.431468 0.500000
O O6 0.500000 0.430236 0.259944
O O7 0.569553 0.500000 0.213787
O O8 0.567998 0.360471 0.218851
O O9 0.111139 0.679736 0.500000
O O10 0.081714 0.732161 0.785999
O O11 0.163053 0.747229 0.702267
O O12 0.142729 0.630201 0.786783
O O13 0.948105 0.209572 0.500000
O O14 0.000000 0.217725 0.228755
O O15 0.750000 0.750000 0.278716
O O16 0.702000 0.734190 0.000000
O O17 0.673499 0.074944 0.500000
O O18 0.657701 0.000000 0.770363
#
# Coordination Sequence:
#
# PCOD9483601 Si02
#       6
#    16  16  16  16  16  16
#     4   9  17  31  51  71  92 123 163 201 233 275
#     4   7   9  15  29  49  76 109 139 170 212 259
#     4  10  18  29  49  70  91 124 160 197 240 285
#     4   8  14  24  39  63  90 115 151 197 242 283
#     4  11  22  33  46  68  99 129 155 193 241 288
#     4   8  14  25  43  67  90 115 153 196 233 275
#
# _framework density 20.542238000000001
#
# number of rings (size 3 to 8) (size 9 to 14) (size 15 to 20)
#    0.000    3.167    1.667    3.000    0.000    1.000 
#    0.000    0.833    0.000    4.500    0.000    3.500 
#    0.000    0.000    0.000    7.167    0.000    7.167 
#
# Total GULP energy -267532.123085 kJ/mol
# GULP energy per Si atom -5573.585898 kJ/mol
# Density = 2.049548 g / cm^3
# Si number density = 20.542238 Si / 1000 Ang^3
#
#
#
# Elastic Constant Matrix: (Units=GPa)
#
#
# Indices 1 2 3 4 5 6 
#
# 1 45.9735 45.1429 -4.5115 0.0000 0.0000 0.0000
# 2 45.1429 177.2426 -4.9682 0.0000 0.0000 0.0000
# 3 -4.5115 -4.9682 62.2480 0.0000 0.0000 0.0000
# 4 0.0000 0.0000 0.0000 -23.6045 0.0000 0.0000
# 5 0.0000 0.0000 0.0000 0.0000 894.6847 0.0000
# 6 0.0000 0.0000 0.0000 0.0000 0.0000 27.3028
#
#
#
# Elastic Compliance Matrix: (Units=1/GPa)
#
#
# Indices 1 2 3 4 5 6 
#
# 1 0.029149 -0.007381 0.001523 0.000000 0.000000 0.000000
# 2 -0.007381 0.007524 0.000066 0.000000 0.000000 0.000000
# 3 0.001523 0.000066 0.016180 0.000000 0.000000 0.000000
# 4 0.000000 0.000000 0.000000 -0.042365 0.000000 0.000000
# 5 0.000000 0.000000 0.000000 0.000000 0.001118 0.000000
# 6 0.000000 0.000000 0.000000 0.000000 0.000000 0.036626
#
#
# Mechanical properties :
#
#
# Convention : Reuss Voigt Hill
#
# Bulk Modulus (GPa) = 24.23152 39.64340 31.93746
# Shear Modulus (GPa) = 67.95890 196.33000 132.14445
#
# Velocity S-wave (km/s) = 5.75798 9.78679 8.02919
# Velocity P-wave (km/s) = 7.48514 12.12637 10.07661
#
# Compressibility (1/GPa) = 0.04126856
#
# Stress axis : x y z
#
# Youngs Moduli (GPa) = 34.30619 132.91068 61.80314
#
# Poissons Ratio (x) = 0.98108 -0.09416
# Poissons Ratio (y) = 0.25323 -0.00405
# Poissons Ratio (z) = -0.05226 -0.00871
#
# Static dielectric constant tensor:
#      x y z
#    x 1.710150 0.000000 0.000000 
#    y 0.000000 1.770570 0.000000 
#    z 0.000000 0.000000 1.792910 
# 
# From -- ./inp_files/16329.got.cif
#   From: 2010.05.17/outbox.cif.g08.bks.cpg/sg65_9_cif.got.tgz:16329.got - 2010.06.03 17:01:31.
