data_PCOD9483407
_publ_section_title
;
Structure prediction by ZEFSAII (Michael W. Deem and Ramdas Pophale) SiO2 
 PCOD9483407
Probable space group: C M M M
;
_chemical_formula_sum "Si O2"
_cell_formula_units_Z 96
_cell_length_a 19.210072
_cell_length_b 20.372155
_cell_length_c 14.345653
_cell_angle_alpha 90.000000
_cell_angle_beta 90.000000
_cell_angle_gamma 90.000000
_cell_volume 5614.179397
_symmetry_space_group_name_H-M "C M M M"
_symmetry_group_IT_number 65
_symmetry_cell_setting 'orthorhombic'
loop_
_space_group_symop_operation_xyz
x,y,z
-x,-y,z
x,-y,-z
-x,y,-z
-x,-y,-z
x,y,-z
-x,y,z
x,-y,z
1/2+x,1/2+y,z
1/2-x,1/2-y,z
1/2+x,1/2-y,-z
1/2-x,1/2+y,-z
1/2-x,1/2-y,-z
1/2+x,1/2+y,-z
1/2-x,1/2+y,z
1/2+x,1/2-y,z
loop_
_atom_site_type_symbol
_atom_site_label
_atom_site_fract_x
_atom_site_fract_y
_atom_site_fract_z
Si Si1 0.287945 0.574534 0.195296
Si Si2 0.080955 0.877662 0.710778
Si Si3 0.919883 0.319480 0.000000
Si Si4 0.416416 0.342773 0.500000
Si Si5 0.422372 0.767959 0.798566
Si Si6 0.788274 0.420973 0.000000
Si Si7 0.824279 0.286256 0.500000
Si Si8 0.705987 0.818140 0.303229
O O1 0.266334 0.500000 0.211733
O O2 0.369381 0.581480 0.220862
O O3 0.259409 0.591951 0.091933
O O4 0.253545 0.624181 0.267531
O O5 0.102262 0.875958 0.600227
O O6 0.085322 0.803278 0.751124
O O7 0.000000 0.897900 0.714294
O O8 0.915165 0.272968 0.090433
O O9 0.857820 0.374471 0.000000
O O10 0.000000 0.347560 0.000000
O O11 0.500000 0.336694 0.500000
O O12 0.381544 0.270949 0.500000
O O13 0.500000 0.791421 0.774329
O O14 0.360876 0.812032 0.760966
O O15 0.805358 0.500000 0.000000
O O16 0.750000 0.250000 0.500000
O O17 0.823342 0.327030 0.593620
O O18 0.750000 0.750000 0.298431
#
# Coordination Sequence:
#
# PCOD9483407 Si02
#       8
#    16  16   8   8  16   8   8  16
#     4  11  23  39  56  79 111 149 189 230 276 329
#     4  10  20  36  56  82 114 148 185 227 276 329
#     4  10  20  34  55  84 113 139 177 236 288 328
#     4  10  18  32  56  84 112 144 186 233 273 324
#     4  10  19  32  53  82 113 138 174 225 278 325
#     4  10  22  38  56  77 105 145 193 229 267 336
#     4  10  18  28  50  81 110 136 184 224 268 328
#     4  11  19  34  55  80 109 146 184 226 279 327
#
# _framework density 17.09956
#
# number of rings (size 3 to 8) (size 9 to 14) (size 15 to 20)
#    0.000    1.667    5.000    1.000    0.000    1.167 
#    0.000    4.583    0.000    3.500    0.000    0.000 
#    0.000    2.000    0.000    0.000    0.000    0.000 
#
# Total GULP energy -267261.335124 kJ/mol
# GULP energy per Si atom -5567.944482 kJ/mol
# Density = 1.706064 g / cm^3
# Si number density = 17.099560 Si / 1000 Ang^3
#
#
#
# Elastic Constant Matrix: (Units=GPa)
#
#
# Indices 1 2 3 4 5 6 
#
# 1 74.4367 15.1725 39.8771 0.0000 0.0000 0.0000
# 2 15.1725 39.0276 15.3835 0.0000 0.0000 0.0000
# 3 39.8771 15.3835 111.3669 0.0000 0.0000 0.0000
# 4 0.0000 0.0000 0.0000 109.8706 0.0000 0.0000
# 5 0.0000 0.0000 0.0000 0.0000 32.8598 0.0000
# 6 0.0000 0.0000 0.0000 0.0000 0.0000 21.1762
#
#
#
# Elastic Compliance Matrix: (Units=1/GPa)
#
#
# Indices 1 2 3 4 5 6 
#
# 1 0.017353 -0.004544 -0.005586 0.000000 0.000000 0.000000
# 2 -0.004544 0.028288 -0.002280 0.000000 0.000000 0.000000
# 3 -0.005586 -0.002280 0.011294 0.000000 0.000000 0.000000
# 4 0.000000 0.000000 0.000000 0.009102 0.000000 0.000000
# 5 0.000000 0.000000 0.000000 0.000000 0.030432 0.000000
# 6 0.000000 0.000000 0.000000 0.000000 0.000000 0.047223
#
#
# Mechanical properties :
#
#
# Convention : Reuss Voigt Hill
#
# Bulk Modulus (GPa) = 31.13849 40.63305 35.88577
# Shear Modulus (GPa) = 27.89887 43.07452 35.48670
#
# Velocity S-wave (km/s) = 4.04363 5.02445 4.56049
# Velocity P-wave (km/s) = 6.32858 7.58118 6.98303
#
# Compressibility (1/GPa) = 0.03211460
#
# Stress axis : x y z
#
# Youngs Moduli (GPa) = 57.62714 35.35015 88.53917
#
# Poissons Ratio (x) = 0.16065 0.49456
# Poissons Ratio (y) = 0.26188 0.20190
# Poissons Ratio (z) = 0.32189 0.08061
#
# Static dielectric constant tensor:
#      x y z
#    x 1.598530 0.000000 0.000000 
#    y 0.000000 1.569040 0.000000 
#    z 0.000000 0.000000 1.554610 
# 
# From -- ./inp_files/29124.got.cif
#   From: 2010.05.17/outbox.cif.g08.bks.cpg/sg65_15_cif.got.tgz:29124.got - 2010.06.03 17:01:31.
