data_PCOD9483293
_publ_section_title
;
Structure prediction by ZEFSAII (Michael W. Deem and Ramdas Pophale) SiO2 
 PCOD9483293
Probable space group: C M M M
;
_chemical_formula_sum "Si O2"
_cell_formula_units_Z 120
_cell_length_a 25.920238
_cell_length_b 9.116737
_cell_length_c 28.637770
_cell_angle_alpha 90.000000
_cell_angle_beta 90.000000
_cell_angle_gamma 90.000000
_cell_volume 6767.333948
_symmetry_space_group_name_H-M "C M M M"
_symmetry_group_IT_number 65
_symmetry_cell_setting 'orthorhombic'
loop_
_space_group_symop_operation_xyz
x,y,z
-x,-y,z
x,-y,-z
-x,y,-z
-x,-y,-z
x,y,-z
-x,y,z
x,-y,z
1/2+x,1/2+y,z
1/2-x,1/2-y,z
1/2+x,1/2-y,-z
1/2-x,1/2+y,-z
1/2-x,1/2-y,-z
1/2+x,1/2+y,-z
1/2-x,1/2+y,z
1/2+x,1/2-y,z
loop_
_atom_site_type_symbol
_atom_site_label
_atom_site_fract_x
_atom_site_fract_y
_atom_site_fract_z
Si Si1 0.206483 0.663561 0.298516
Si Si2 0.306752 0.176457 0.871152
Si Si3 0.941937 0.824320 0.709294
Si Si4 0.649250 0.324554 0.220230
Si Si5 0.113290 0.335100 0.370557
Si Si6 0.000000 0.829776 0.056789
Si Si7 0.194939 0.674817 0.555230
Si Si8 0.894108 0.675205 0.945492
O O1 0.221240 0.500000 0.284065
O O2 0.250000 0.750000 0.326185
O O3 0.193117 0.767767 0.255439
O O4 0.157705 0.652376 0.331492
O O5 0.250000 0.250000 0.873212
O O6 0.338863 0.241863 0.827623
O O7 0.342898 0.208909 0.915956
O O8 0.301138 0.000000 0.866616
O O9 0.902853 0.782843 0.751329
O O10 0.927735 0.758936 0.658470
O O11 0.000000 0.781798 0.721570
O O12 0.938114 0.000000 0.705620
O O13 0.650499 0.500000 0.213915
O O14 0.094040 0.500000 0.381387
O O15 0.145268 0.273906 0.414777
O O16 0.053439 0.753386 0.071936
O O17 0.000000 0.000000 0.070273
O O18 0.000000 0.820498 0.000000
O O19 0.185503 0.694570 0.500000
O O20 0.199792 0.500000 0.564946
O O21 0.250000 0.750000 0.565567
O O22 0.902514 0.500000 0.942849
O O23 0.886767 0.714495 0.000000
#
# Coordination Sequence:
#
# PCOD9483293 Si02
#       8
#    16  16  16  16  16   8  16  16
#     4  10  18  28  44  67  95 124 160 201 243 292
#     4  11  23  38  56  79 110 144 182 220 262 316
#     4   9  19  36  56  76  98 126 164 211 262 313
#     4  10  20  35  53  72  99 132 166 203 255 312
#     4   9  18  30  46  70  97 127 164 205 250 299
#     4   9  17  31  55  85 111 135 171 221 267 307
#     4   9  17  29  45  68 101 137 171 208 250 299
#     4   9  19  37  59  81 109 146 183 221 268 319
#
# _framework density 17.732240999999998
#
# number of rings (size 3 to 8) (size 9 to 14) (size 15 to 20)
#    0.000    2.467    0.000    2.200    0.000    4.000 
#    1.200    0.000    0.000    0.400    0.000    2.800 
#    0.000    0.000    0.000    0.000    0.000    0.000 
#
# Total GULP energy -334078.921047 kJ/mol
# GULP energy per Si atom -5567.982017 kJ/mol
# Density = 1.769188 g / cm^3
# Si number density = 17.732241 Si / 1000 Ang^3
#
#
#
# Elastic Constant Matrix: (Units=GPa)
#
#
# Indices 1 2 3 4 5 6 
#
# 1 127.2575 50.2797 51.1523 0.0000 0.0000 0.0000
# 2 50.2797 54.1274 34.2464 0.0000 0.0000 0.0000
# 3 51.1523 34.2464 91.6858 0.0000 0.0000 0.0000
# 4 0.0000 0.0000 0.0000 22.1972 0.0000 0.0000
# 5 0.0000 0.0000 0.0000 0.0000 16.1925 0.0000
# 6 0.0000 0.0000 0.0000 0.0000 0.0000 20.7480
#
#
#
# Elastic Compliance Matrix: (Units=1/GPa)
#
#
# Indices 1 2 3 4 5 6 
#
# 1 0.013296 -0.010027 -0.003673 0.000000 0.000000 0.000000
# 2 -0.010027 0.031754 -0.006266 0.000000 0.000000 0.000000
# 3 -0.003673 -0.006266 0.015296 0.000000 0.000000 0.000000
# 4 0.000000 0.000000 0.000000 0.045051 0.000000 0.000000
# 5 0.000000 0.000000 0.000000 0.000000 0.061757 0.000000
# 6 0.000000 0.000000 0.000000 0.000000 0.000000 0.048197
#
#
# Mechanical properties :
#
#
# Convention : Reuss Voigt Hill
#
# Bulk Modulus (GPa) = 48.98608 60.49195 54.73901
# Shear Modulus (GPa) = 19.07748 20.98704 20.03226
#
# Velocity S-wave (km/s) = 3.28359 3.44401 3.36476
# Velocity P-wave (km/s) = 6.48548 7.07129 6.78471
#
# Compressibility (1/GPa) = 0.02041396
#
# Stress axis : x y z
#
# Youngs Moduli (GPa) = 75.20979 31.49193 65.37454
#
# Poissons Ratio (x) = 0.31578 0.24010
# Poissons Ratio (y) = 0.75415 0.40967
# Poissons Ratio (z) = 0.27622 0.19734
#
# Static dielectric constant tensor:
#      x y z
#    x 1.650640 0.000000 0.000000 
#    y 0.000000 1.629320 0.000000 
#    z 0.000000 0.000000 1.619850 
# 
# From -- ./inp_files/76157.got.cif
#   From: 2010.05.17/outbox.cif.g08.bks.cpg/sg65_39_cif.got.tgz:76157.got - 2010.06.03 17:01:31.
