data_PCOD9483035
_publ_section_title
;
Structure prediction by ZEFSAII (Michael W. Deem and Ramdas Pophale) SiO2 
 PCOD9483035
Probable space group: C M M M
;
_chemical_formula_sum "Si O2"
_cell_formula_units_Z 80
_cell_length_a 24.450162
_cell_length_b 8.589390
_cell_length_c 20.844941
_cell_angle_alpha 90.000000
_cell_angle_beta 90.000000
_cell_angle_gamma 90.000000
_cell_volume 4377.687269
_symmetry_space_group_name_H-M "C M M M"
_symmetry_group_IT_number 65
_symmetry_cell_setting 'orthorhombic'
loop_
_space_group_symop_operation_xyz
x,y,z
-x,-y,z
x,-y,-z
-x,y,-z
-x,-y,-z
x,y,-z
-x,y,z
x,-y,z
1/2+x,1/2+y,z
1/2-x,1/2-y,z
1/2+x,1/2-y,-z
1/2-x,1/2+y,-z
1/2-x,1/2-y,-z
1/2+x,1/2+y,-z
1/2-x,1/2+y,z
1/2+x,1/2-y,z
loop_
_atom_site_type_symbol
_atom_site_label
_atom_site_fract_x
_atom_site_fract_y
_atom_site_fract_z
Si Si1 0.117163 0.810124 0.427967
Si Si2 0.809978 0.313526 0.925395
Si Si3 0.311226 0.688075 0.692716
Si Si4 0.000000 0.188444 0.372700
Si Si5 0.885045 0.813370 0.185422
Si Si6 0.500000 0.814883 0.227865
O O1 0.130477 0.757978 0.500000
O O2 0.159134 0.759343 0.372870
O O3 0.055606 0.763290 0.408314
O O4 0.117692 0.000000 0.427963
O O5 0.809717 0.500000 0.920362
O O6 0.750000 0.250000 0.907260
O O7 0.854836 0.243636 0.878285
O O8 0.819459 0.271059 0.000000
O O9 0.309716 0.500000 0.692408
O O10 0.250000 0.750000 0.697978
O O11 0.348301 0.736098 0.753272
O O12 0.000000 0.249642 0.300371
O O13 0.000000 0.000000 0.370077
O O14 0.945315 0.745250 0.193702
O O15 0.888172 0.000000 0.186090
O O16 0.500000 0.000000 0.229677
#
# Coordination Sequence:
#
# PCOD9483035 Si02
#       6
#    16  16  16   8  16   8
#     4   9  17  31  54  81 107 141 187 236 285 338
#     4  10  21  38  61  91 125 159 195 235 280 333
#     4  10  21  35  53  79 110 145 187 234 281 335
#     4  10  17  34  58  81 107 139 188 239 285 341
#     4  11  22  39  61  85 114 150 194 242 286 337
#     4  12  24  37  58  86 116 149 184 232 294 352
#
# _framework density 18.27449
#
# number of rings (size 3 to 8) (size 9 to 14) (size 15 to 20)
#    0.000    1.800    2.000    3.000    0.000    6.000 
#    0.000    0.500    0.000    5.400    0.000    0.000 
#    0.000    0.000    0.000    0.000    0.000    0.000 
#
# Total GULP energy -223455.230569 kJ/mol
# GULP energy per Si atom -5586.380764 kJ/mol
# Density = 1.823290 g / cm^3
# Si number density = 18.274490 Si / 1000 Ang^3
#
#
#
# Elastic Constant Matrix: (Units=GPa)
#
#
# Indices 1 2 3 4 5 6 
#
# 1 168.2304 30.5114 79.9497 0.0000 0.0000 0.0000
# 2 30.5114 25.8230 24.9840 0.0000 0.0000 0.0000
# 3 79.9497 24.9840 109.0472 0.0000 0.0000 0.0000
# 4 0.0000 0.0000 0.0000 18.9068 0.0000 0.0000
# 5 0.0000 0.0000 0.0000 0.0000 34.6592 0.0000
# 6 0.0000 0.0000 0.0000 0.0000 0.0000 30.3053
#
#
#
# Elastic Compliance Matrix: (Units=1/GPa)
#
#
# Indices 1 2 3 4 5 6 
#
# 1 0.009783 -0.005935 -0.005813 0.000000 0.000000 0.000000
# 2 -0.005935 0.053355 -0.007873 0.000000 0.000000 0.000000
# 3 -0.005813 -0.007873 0.015236 0.000000 0.000000 0.000000
# 4 0.000000 0.000000 0.000000 0.052891 0.000000 0.000000
# 5 0.000000 0.000000 0.000000 0.000000 0.028852 0.000000
# 6 0.000000 0.000000 0.000000 0.000000 0.000000 0.032997
#
#
# Mechanical properties :
#
#
# Convention : Reuss Voigt Hill
#
# Bulk Modulus (GPa) = 25.55436 63.77673 44.66554
# Shear Modulus (GPa) = 20.37485 27.95131 24.16308
#
# Velocity S-wave (km/s) = 3.34268 3.91516 3.64019
# Velocity P-wave (km/s) = 5.37699 7.44399 6.49327
#
# Compressibility (1/GPa) = 0.03913227
#
# Stress axis : x y z
#
# Youngs Moduli (GPa) = 102.21595 18.74240 65.63483
#
# Poissons Ratio (x) = 0.11124 0.38152
# Poissons Ratio (y) = 0.60670 0.51671
# Poissons Ratio (z) = 0.59416 0.14755
#
# Static dielectric constant tensor:
#      x y z
#    x 1.595580 0.000000 0.000000 
#    y 0.000000 1.620860 0.000000 
#    z 0.000000 0.000000 1.620310 
# 
# From -- ./inp_files/57319.got.cif
#   From: 2010.05.17/outbox.cif.g08.bks.cpg/sg65_29_cif.got.tgz:57319.got - 2010.06.03 17:01:31.
