data_PCOD9483983
_publ_section_title
;
Structure prediction by ZEFSAII (Michael W. Deem and Ramdas Pophale) SiO2 
 PCOD9483983
Probable space group: C M M M
;
_chemical_formula_sum "Si O2"
_cell_formula_units_Z 52
_cell_length_a 12.486370
_cell_length_b 14.433119
_cell_length_c 12.480754
_cell_angle_alpha 90.000000
_cell_angle_beta 90.000000
_cell_angle_gamma 90.000000
_cell_volume 2249.247340
_symmetry_space_group_name_H-M "C M M M"
_symmetry_group_IT_number 65
_symmetry_cell_setting 'orthorhombic'
loop_
_space_group_symop_operation_xyz
x,y,z
-x,-y,z
x,-y,-z
-x,y,-z
-x,-y,-z
x,y,-z
-x,y,z
x,-y,z
1/2+x,1/2+y,z
1/2-x,1/2-y,z
1/2+x,1/2-y,-z
1/2-x,1/2+y,-z
1/2-x,1/2-y,-z
1/2+x,1/2+y,-z
1/2-x,1/2+y,z
1/2+x,1/2-y,z
loop_
_atom_site_type_symbol
_atom_site_label
_atom_site_fract_x
_atom_site_fract_y
_atom_site_fract_z
Si Si1 0.748936 0.639275 0.500000
Si Si2 0.879731 0.391043 0.717390
Si Si3 0.500000 0.632870 0.500000
Si Si4 0.500000 0.612480 0.734649
Si Si5 0.706176 0.386832 0.122082
O O1 0.750000 0.750000 0.500000
O O2 0.813473 0.613835 0.392968
O O3 0.627158 0.600674 0.500000
O O4 0.889114 0.500000 0.740347
O O5 0.810096 0.351044 0.814665
O O6 0.000000 0.354306 0.708249
O O7 0.500000 0.666337 0.622507
O O8 0.500000 0.500000 0.708463
O O9 0.603635 0.633093 0.804853
O O10 0.710783 0.500000 0.118146
O O11 0.697126 0.354758 0.000000
#
# Coordination Sequence:
#
# PCOD9483983 Si02
#       5
#     8  16   4   8  16
#     4  12  26  40  58  83 116 148 189 239 295 347
#     4  10  21  38  60  85 115 153 192 237 289 343
#     4  12  23  36  56  84 105 152 192 230 288 334
#     4  10  18  30  51  83 120 147 179 230 285 339
#     4   9  17  30  51  82 117 149 183 229 285 339
#
# _framework density 23.118843999999999
#
# number of rings (size 3 to 8) (size 9 to 14) (size 15 to 20)
#    0.000    1.846    3.077    1.615    2.154    4.923 
#    0.000    3.077    0.000    0.923    0.000    0.000 
#    0.000    0.000    0.000    0.000    0.000    0.000 
#
# Total GULP energy -145130.141411 kJ/mol
# GULP energy per Si atom -5581.928516 kJ/mol
# Density = 2.306622 g / cm^3
# Si number density = 23.118844 Si / 1000 Ang^3
#
#
#
# Elastic Constant Matrix: (Units=GPa)
#
#
# Indices 1 2 3 4 5 6 
#
# 1 232.2943 15.0843 116.5778 0.0000 0.0000 0.0000
# 2 15.0843 82.6048 5.0750 0.0000 0.0000 0.0000
# 3 116.5778 5.0750 241.5991 0.0000 0.0000 0.0000
# 4 0.0000 0.0000 0.0000 -37.6537 0.0000 0.0000
# 5 0.0000 0.0000 0.0000 0.0000 12.5169 0.0000
# 6 0.0000 0.0000 0.0000 0.0000 0.0000 -1.4634
#
#
#
# Elastic Compliance Matrix: (Units=1/GPa)
#
#
# Indices 1 2 3 4 5 6 
#
# 1 0.005744 -0.000880 -0.002753 0.000000 0.000000 0.000000
# 2 -0.000880 0.012256 0.000167 0.000000 0.000000 0.000000
# 3 -0.002753 0.000167 0.005464 0.000000 0.000000 0.000000
# 4 0.000000 0.000000 0.000000 -0.026558 0.000000 0.000000
# 5 0.000000 0.000000 0.000000 0.000000 0.079892 0.000000
# 6 0.000000 0.000000 0.000000 0.000000 0.000000 -0.683345
#
#
# Mechanical properties :
#
#
# Convention : Reuss Voigt Hill
#
# Bulk Modulus (GPa) = 60.48689 92.21915 76.35302
# Shear Modulus (GPa) = -8.41601 22.66404 7.12401
#
# Velocity S-wave (km/s) = -1.91003 3.13442 1.75732
# Velocity P-wave (km/s) = 4.62125 7.28527 6.10046
#
# Compressibility (1/GPa) = 0.01653251
#
# Stress axis : x y z
#
# Youngs Moduli (GPa) = 174.10725 81.59128 183.01781
#
# Poissons Ratio (x) = 0.07178 0.50384
# Poissons Ratio (y) = 0.15316 -0.03057
# Poissons Ratio (z) = 0.47931 -0.01363
#
# Static dielectric constant tensor:
#      x y z
#    x 1.852790 0.000000 0.000000 
#    y 0.000000 1.990210 0.000000 
#    z 0.000000 0.000000 1.800940 
# 
# From -- ./inp_files/21862.got.cif
#   From: 2010.05.17/outbox.cif.g08.bks.cpg/sg65_11_cif.got.tgz:21862.got - 2010.06.03 17:01:31.
