data_PCOD9483820
_publ_section_title
;
Structure prediction by ZEFSAII (Michael W. Deem and Ramdas Pophale) SiO2 
 PCOD9483820
Probable space group: C M M M
;
_chemical_formula_sum "Si O2"
_cell_formula_units_Z 96
_cell_length_a 8.246011
_cell_length_b 28.537703
_cell_length_c 22.962126
_cell_angle_alpha 90.000000
_cell_angle_beta 90.000000
_cell_angle_gamma 90.000000
_cell_volume 5403.498302
_symmetry_space_group_name_H-M "C M M M"
_symmetry_group_IT_number 65
_symmetry_cell_setting 'orthorhombic'
loop_
_space_group_symop_operation_xyz
x,y,z
-x,-y,z
x,-y,-z
-x,y,-z
-x,-y,-z
x,y,-z
-x,y,z
x,-y,z
1/2+x,1/2+y,z
1/2-x,1/2-y,z
1/2+x,1/2-y,-z
1/2-x,1/2+y,-z
1/2-x,1/2-y,-z
1/2+x,1/2+y,-z
1/2-x,1/2+y,z
1/2+x,1/2-y,z
loop_
_atom_site_type_symbol
_atom_site_label
_atom_site_fract_x
_atom_site_fract_y
_atom_site_fract_z
Si Si1 0.304294 0.354755 0.118490
Si Si2 0.192945 0.301494 0.769318
Si Si3 0.696255 0.604202 0.567869
Si Si4 0.694552 0.197253 0.636524
Si Si5 0.308305 0.500000 0.570632
Si Si6 0.304126 0.303272 0.000000
Si Si7 0.697646 0.448265 0.066858
O O1 0.500000 0.353292 0.117434
O O2 0.249647 0.335396 0.180000
O O3 0.248063 0.326914 0.060548
O O4 0.247518 0.407709 0.108943
O O5 0.250000 0.250000 0.787111
O O6 0.254359 0.309432 0.703427
O O7 0.000000 0.302553 0.766639
O O8 0.744676 0.608169 0.500000
O O9 0.500000 0.602862 0.569961
O O10 0.750739 0.651441 0.600639
O O11 0.754392 0.551994 0.589267
O O12 0.500000 0.198150 0.635891
O O13 0.750000 0.250000 0.617615
O O14 0.500000 0.500000 0.585023
O O15 0.295957 0.500000 0.500000
O O16 0.250000 0.250000 0.000000
O O17 0.500000 0.306655 0.000000
O O18 0.500000 0.448774 0.067477
O O19 0.754956 0.500000 0.081696
O O20 0.742757 0.437632 0.000000
#
# Coordination Sequence:
#
# PCOD9483820 Si02
#       7
#    16  16  16  16   8   8  16
#     4  10  18  30  49  72  96 123 156 196 241 288
#     4  10  21  36  52  70  93 126 167 204 242 288
#     4   9  17  31  54  82 109 136 167 206 250 294
#     4  10  21  36  53  73 100 135 174 212 251 298
#     4   7  12  26  49  77 107 137 167 200 243 292
#     4  10  20  30  41  65  97 121 148 188 239 290
#     4   8  13  24  45  71  96 121 151 191 237 283
#
# _framework density 17.766268
#
# number of rings (size 3 to 8) (size 9 to 14) (size 15 to 20)
#    0.000    2.750    0.833    3.000    0.000    4.667 
#    0.000    0.417    1.833    2.000    0.000    1.167 
#    0.000    0.000    0.000    0.000    0.000    0.000 
#
# Total GULP energy -267222.033421 kJ/mol
# GULP energy per Si atom -5567.125696 kJ/mol
# Density = 1.772583 g / cm^3
# Si number density = 17.766268 Si / 1000 Ang^3
#
#
#
# Elastic Constant Matrix: (Units=GPa)
#
#
# Indices 1 2 3 4 5 6 
#
# 1 13.1138 20.5243 12.4839 0.0000 0.0000 0.0000
# 2 20.5243 191.9403 85.9465 0.0000 0.0000 0.0000
# 3 12.4839 85.9465 69.6482 0.0000 0.0000 0.0000
# 4 0.0000 0.0000 0.0000 26.0085 0.0000 0.0000
# 5 0.0000 0.0000 0.0000 0.0000 25.5208 0.0000
# 6 0.0000 0.0000 0.0000 0.0000 0.0000 21.1851
#
#
#
# Elastic Compliance Matrix: (Units=1/GPa)
#
#
# Indices 1 2 3 4 5 6 
#
# 1 0.094598 -0.005639 -0.009998 0.000000 0.000000 0.000000
# 2 -0.005639 0.011980 -0.013773 0.000000 0.000000 0.000000
# 3 -0.009998 -0.013773 0.033146 0.000000 0.000000 0.000000
# 4 0.000000 0.000000 0.000000 0.038449 0.000000 0.000000
# 5 0.000000 0.000000 0.000000 0.000000 0.039184 0.000000
# 6 0.000000 0.000000 0.000000 0.000000 0.000000 0.047203
#
#
# Mechanical properties :
#
#
# Convention : Reuss Voigt Hill
#
# Bulk Modulus (GPa) = 12.36013 56.95686 34.65850
# Shear Modulus (GPa) = 14.27156 24.92603 19.59879
#
# Velocity S-wave (km/s) = 2.83732 3.74972 3.32497
# Velocity P-wave (km/s) = 4.20785 7.13273 5.85585
#
# Compressibility (1/GPa) = 0.08090527
#
# Stress axis : x y z
#
# Youngs Moduli (GPa) = 10.57102 83.47203 30.16974
#
# Poissons Ratio (x) = 0.47066 0.30164
# Poissons Ratio (y) = 0.05961 0.41552
# Poissons Ratio (z) = 0.10569 1.14965
#
# Static dielectric constant tensor:
#      x y z
#    x 1.632960 0.000000 0.000000 
#    y 0.000000 1.634430 0.000000 
#    z 0.000000 0.000000 1.600430 
# 
# From -- ./inp_files/68095.got.cif
#   From: 2010.05.17/outbox.cif.g08.bks.cpg/sg65_35_cif.got.tgz:68095.got - 2010.06.03 17:01:31.
