data_PCOD9483222
_publ_section_title
;
Structure prediction by ZEFSAII (Michael W. Deem and Ramdas Pophale) SiO2 
 PCOD9483222
Probable space group: C M M M
;
_chemical_formula_sum "Si O2"
_cell_formula_units_Z 88
_cell_length_a 8.298676
_cell_length_b 29.410786
_cell_length_c 21.905104
_cell_angle_alpha 90.000000
_cell_angle_beta 90.000000
_cell_angle_gamma 90.000000
_cell_volume 5346.391524
_symmetry_space_group_name_H-M "C M M M"
_symmetry_group_IT_number 65
_symmetry_cell_setting 'orthorhombic'
loop_
_space_group_symop_operation_xyz
x,y,z
-x,-y,z
x,-y,-z
-x,y,-z
-x,-y,-z
x,y,-z
-x,y,z
x,-y,z
1/2+x,1/2+y,z
1/2-x,1/2-y,z
1/2+x,1/2-y,-z
1/2-x,1/2+y,-z
1/2-x,1/2-y,-z
1/2+x,1/2+y,-z
1/2-x,1/2+y,z
1/2+x,1/2-y,z
loop_
_atom_site_type_symbol
_atom_site_label
_atom_site_fract_x
_atom_site_fract_y
_atom_site_fract_z
Si Si1 0.807681 0.697786 0.803869
Si Si2 0.192889 0.802494 0.066047
Si Si3 0.315510 0.555275 0.500000
Si Si4 0.192939 0.551293 0.632033
Si Si5 0.197525 0.357747 0.686245
Si Si6 0.305317 0.802130 0.432608
O O1 0.750000 0.750000 0.798008
O O2 0.756544 0.678661 0.870024
O O3 0.747782 0.667751 0.747214
O O4 0.000000 0.698804 0.802057
O O5 0.250000 0.750000 0.065852
O O6 0.000000 0.803109 0.068023
O O7 0.245113 0.822107 0.000000
O O8 0.313408 0.500000 0.500000
O O9 0.500000 0.570479 0.500000
O O10 0.230920 0.567867 0.563197
O O11 0.258176 0.500000 0.640321
O O12 0.250425 0.590081 0.678186
O O13 0.000000 0.548641 0.637066
O O14 0.250479 0.330674 0.625611
O O15 0.000000 0.357375 0.686705
O O16 0.251359 0.818611 0.500000
O O17 0.500000 0.803171 0.432282
O O18 0.250000 0.750000 0.426468
#
# Coordination Sequence:
#
# PCOD9483222 Si02
#       6
#    16  16   8  16  16  16
#     4  10  18  28  42  61  88 117 144 174 206 244
#     4   9  16  26  41  61  85 113 144 174 203 239
#     4   9  17  29  43  61  84 103 124 165 220 263
#     4   9  17  30  48  65  80 104 139 173 208 259
#     4   9  18  29  43  63  83 107 139 174 213 249
#     4   9  17  29  43  56  75 105 137 173 208 239
#
# _framework density 16.459700000000002
#
# number of rings (size 3 to 8) (size 9 to 14) (size 15 to 20)
#    0.000    2.818    0.000    3.000    1.273    2.182 
#    0.000    3.636    0.000    0.000    0.000    0.000 
#    0.000    0.727    0.000    9.091    0.000    1.455 
#
# Total GULP energy -245088.530363 kJ/mol
# GULP energy per Si atom -5570.193872 kJ/mol
# Density = 1.642224 g / cm^3
# Si number density = 16.459700 Si / 1000 Ang^3
#
#
#
# Elastic Constant Matrix: (Units=GPa)
#
#
# Indices 1 2 3 4 5 6 
#
# 1 16.7046 7.1741 16.5777 0.0000 0.0000 0.0000
# 2 7.1741 68.9179 69.5232 0.0000 0.0000 0.0000
# 3 16.5777 69.5232 160.4097 0.0000 0.0000 0.0000
# 4 0.0000 0.0000 0.0000 9.1680 0.0000 0.0000
# 5 0.0000 0.0000 0.0000 0.0000 7.8779 0.0000
# 6 0.0000 0.0000 0.0000 0.0000 0.0000 9.2520
#
#
#
# Elastic Compliance Matrix: (Units=1/GPa)
#
#
# Indices 1 2 3 4 5 6 
#
# 1 0.066705 0.000019 -0.006902 0.000000 0.000000 0.000000
# 2 0.000019 0.025783 -0.011176 0.000000 0.000000 0.000000
# 3 -0.006902 -0.011176 0.011791 0.000000 0.000000 0.000000
# 4 0.000000 0.000000 0.000000 0.109075 0.000000 0.000000
# 5 0.000000 0.000000 0.000000 0.000000 0.126937 0.000000
# 6 0.000000 0.000000 0.000000 0.000000 0.000000 0.108085
#
#
# Mechanical properties :
#
#
# Convention : Reuss Voigt Hill
#
# Bulk Modulus (GPa) = 14.67137 48.06471 31.36804
# Shear Modulus (GPa) = 9.85777 15.44341 12.65059
#
# Velocity S-wave (km/s) = 2.44991 3.06642 2.77533
# Velocity P-wave (km/s) = 4.11529 6.46545 5.41930
#
# Compressibility (1/GPa) = 0.06815994
#
# Stress axis : x y z
#
# Youngs Moduli (GPa) = 14.99138 38.78585 84.80848
#
# Poissons Ratio (x) = -0.00073 0.58533
# Poissons Ratio (y) = -0.00028 0.94785
# Poissons Ratio (z) = 0.10347 0.43349
#
# Static dielectric constant tensor:
#      x y z
#    x 1.622850 0.000000 0.000000 
#    y 0.000000 1.559420 0.000000 
#    z 0.000000 0.000000 1.589580 
# 
# From -- ./inp_files/60692.got.cif
#   From: 2010.05.17/outbox.cif.g08.bks.cpg/sg65_31_cif.got.tgz:60692.got - 2010.06.03 17:01:31.
