data_PCOD9483074
_publ_section_title
;
Structure prediction by ZEFSAII (Michael W. Deem and Ramdas Pophale) SiO2 
 PCOD9483074
Probable space group: C M M M
;
_chemical_formula_sum "Si O2"
_cell_formula_units_Z 96
_cell_length_a 27.966511
_cell_length_b 8.674762
_cell_length_c 24.973133
_cell_angle_alpha 90.000000
_cell_angle_beta 90.000000
_cell_angle_gamma 90.000000
_cell_volume 6058.552662
_symmetry_space_group_name_H-M "C M M M"
_symmetry_group_IT_number 65
_symmetry_cell_setting 'orthorhombic'
loop_
_space_group_symop_operation_xyz
x,y,z
-x,-y,z
x,-y,-z
-x,y,-z
-x,-y,-z
x,y,-z
-x,y,z
x,-y,z
1/2+x,1/2+y,z
1/2-x,1/2-y,z
1/2+x,1/2-y,-z
1/2-x,1/2+y,-z
1/2-x,1/2-y,-z
1/2+x,1/2+y,-z
1/2-x,1/2+y,z
1/2+x,1/2-y,z
loop_
_atom_site_type_symbol
_atom_site_label
_atom_site_fract_x
_atom_site_fract_y
_atom_site_fract_z
Si Si1 0.699110 0.815957 0.615079
Si Si2 0.899916 0.313979 0.560512
Si Si3 0.650459 0.686304 0.280670
Si Si4 0.303874 0.684925 0.831161
Si Si5 0.446914 0.685850 0.665031
Si Si6 0.195875 0.684718 0.941552
O O1 0.750000 0.750000 0.597847
O O2 0.654544 0.772397 0.577069
O O3 0.685334 0.753373 0.673921
O O4 0.701788 0.000000 0.616916
O O5 0.910505 0.264811 0.500000
O O6 0.903482 0.500000 0.563066
O O7 0.933744 0.243072 0.605640
O O8 0.652739 0.500000 0.283802
O O9 0.666662 0.731782 0.221397
O O10 0.596807 0.736137 0.296875
O O11 0.301336 0.500000 0.833507
O O12 0.250000 0.750000 0.825903
O O13 0.325307 0.746566 0.887103
O O14 0.500000 0.738857 0.680475
O O15 0.446765 0.500000 0.664998
O O16 0.197775 0.500000 0.937372
O O17 0.250000 0.750000 0.942535
O O18 0.174409 0.724545 0.000000
#
# Coordination Sequence:
#
# PCOD9483074 Si02
#       6
#    16  16  16  16  16  16
#     4  10  19  30  45  63  84 113 144 173 208 247
#     4   9  19  34  48  64  87 112 139 171 207 251
#     4   9  18  31  45  63  86 111 141 175 211 253
#     4  10  18  26  39  59  84 114 145 174 204 240
#     4   9  18  33  51  68  86 108 135 171 215 259
#     4   9  16  25  37  54  79 112 147 178 206 236
#
# _framework density 15.845368000000001
#
# number of rings (size 3 to 8) (size 9 to 14) (size 15 to 20)
#    0.000    2.667    0.000    3.000    0.000    5.667 
#    0.000    1.667    0.000    0.000    0.000    0.000 
#    0.000    0.667    0.000    8.333    0.000    1.333 
#
# Total GULP energy -267455.719937 kJ/mol
# GULP energy per Si atom -5571.994165 kJ/mol
# Density = 1.580930 g / cm^3
# Si number density = 15.845368 Si / 1000 Ang^3
#
#
#
# Elastic Constant Matrix: (Units=GPa)
#
#
# Indices 1 2 3 4 5 6 
#
# 1 61.7949 10.1783 19.5390 0.0000 0.0000 0.0000
# 2 10.1783 20.3949 19.7570 0.0000 0.0000 0.0000
# 3 19.5390 19.7570 114.8219 0.0000 0.0000 0.0000
# 4 0.0000 0.0000 0.0000 23.6416 0.0000 0.0000
# 5 0.0000 0.0000 0.0000 0.0000 11.5719 0.0000
# 6 0.0000 0.0000 0.0000 0.0000 0.0000 15.0413
#
#
#
# Elastic Compliance Matrix: (Units=1/GPa)
#
#
# Indices 1 2 3 4 5 6 
#
# 1 0.017942 -0.007196 -0.001815 0.000000 0.000000 0.000000
# 2 -0.007196 0.061726 -0.009396 0.000000 0.000000 0.000000
# 3 -0.001815 -0.009396 0.010635 0.000000 0.000000 0.000000
# 4 0.000000 0.000000 0.000000 0.042298 0.000000 0.000000
# 5 0.000000 0.000000 0.000000 0.000000 0.086416 0.000000
# 6 0.000000 0.000000 0.000000 0.000000 0.000000 0.066484
#
#
# Mechanical properties :
#
#
# Convention : Reuss Voigt Hill
#
# Bulk Modulus (GPa) = 18.69591 32.88449 25.79020
# Shear Modulus (GPa) = 14.69968 19.88680 17.29324
#
# Velocity S-wave (km/s) = 3.04911 3.54652 3.30718
# Velocity P-wave (km/s) = 4.92146 6.12934 5.55831
#
# Compressibility (1/GPa) = 0.05348763
#
# Stress axis : x y z
#
# Youngs Moduli (GPa) = 55.73615 16.20076 94.03109
#
# Poissons Ratio (x) = 0.11658 0.17066
# Poissons Ratio (y) = 0.40107 0.88355
# Poissons Ratio (z) = 0.10116 0.15223
#
# Static dielectric constant tensor:
#      x y z
#    x 1.522240 0.000000 0.000000 
#    y 0.000000 1.538090 0.000000 
#    z 0.000000 0.000000 1.551430 
# 
# From -- ./inp_files/67851.got.cif
#   From: 2010.05.17/outbox.cif.g08.bks.cpg/sg65_34_cif.got.tgz:67851.got - 2010.06.03 17:01:31.
