data_PCOD9483648
_publ_section_title
;
Structure prediction by ZEFSAII (Michael W. Deem and Ramdas Pophale) SiO2 
 PCOD9483648
Probable space group: C M M M
;
_chemical_formula_sum "Si O2"
_cell_formula_units_Z 88
_cell_length_a 8.811550
_cell_length_b 31.304272
_cell_length_c 17.754184
_cell_angle_alpha 90.000000
_cell_angle_beta 90.000000
_cell_angle_gamma 90.000000
_cell_volume 4897.299165
_symmetry_space_group_name_H-M "C M M M"
_symmetry_group_IT_number 65
_symmetry_cell_setting 'orthorhombic'
loop_
_space_group_symop_operation_xyz
x,y,z
-x,-y,z
x,-y,-z
-x,y,-z
-x,-y,-z
x,y,-z
-x,y,z
x,-y,z
1/2+x,1/2+y,z
1/2-x,1/2-y,z
1/2+x,1/2-y,-z
1/2-x,1/2+y,-z
1/2-x,1/2-y,-z
1/2+x,1/2+y,-z
1/2-x,1/2+y,z
1/2+x,1/2-y,z
loop_
_atom_site_type_symbol
_atom_site_label
_atom_site_fract_x
_atom_site_fract_y
_atom_site_fract_z
Si Si1 0.317658 0.050222 0.500000
Si Si2 0.173707 0.206272 0.387351
Si Si3 0.184706 0.548831 0.914864
Si Si4 0.175120 0.794063 0.795876
Si Si5 0.316313 0.612160 0.376698
Si Si6 0.682182 0.116628 0.789826
O O1 0.500000 0.053825 0.500000
O O2 0.249681 0.074901 0.571850
O O3 0.278401 0.000000 0.500000
O O4 0.250000 0.250000 0.413185
O O5 0.176926 0.207032 0.295805
O O6 0.235856 0.159213 0.406440
O O7 0.000000 0.207454 0.411465
O O8 0.231894 0.500000 0.899401
O O9 0.232542 0.581732 0.850956
O O10 0.000000 0.549136 0.914947
O O11 0.233083 0.560143 0.000000
O O12 0.250000 0.750000 0.822283
O O13 0.267403 0.836337 0.816532
O O14 0.000000 0.797193 0.819101
O O15 0.500000 0.611993 0.378063
O O16 0.258577 0.608326 0.291114
O O17 0.500000 0.115223 0.781360
#
# Coordination Sequence:
#
# PCOD9483648 Si02
#       6
#     8  16  16  16  16  16
#     4  11  25  43  60  77  98 129 174 225 272 315
#     4   8  15  27  46  72 100 130 163 199 241 293
#     4   8  15  29  49  74 104 136 170 211 260 311
#     4   9  16  27  44  69 102 137 173 212 255 305
#     4  10  21  37  55  77 106 139 175 212 255 311
#     4  10  18  29  51  81 108 136 173 216 258 303
#
# _framework density 17.969087999999999
#
# number of rings (size 3 to 8) (size 9 to 14) (size 15 to 20)
#    0.000    2.818    0.000    3.545    0.000    6.545 
#    0.000    2.273    0.000    4.364    0.000    5.091 
#    0.000    0.000    0.000    0.000    0.000    0.000 
#
# Total GULP energy -245266.730903 kJ/mol
# GULP energy per Si atom -5574.243884 kJ/mol
# Density = 1.792819 g / cm^3
# Si number density = 17.969088 Si / 1000 Ang^3
#
#
#
# Elastic Constant Matrix: (Units=GPa)
#
#
# Indices 1 2 3 4 5 6 
#
# 1 57.4004 53.8802 27.1030 0.0000 0.0000 0.0000
# 2 53.8802 187.5480 88.0363 0.0000 0.0000 0.0000
# 3 27.1030 88.0363 88.6708 0.0000 0.0000 0.0000
# 4 0.0000 0.0000 0.0000-1005.9125 0.0000 0.0000
# 5 0.0000 0.0000 0.0000 0.0000 -110.9570 0.0000
# 6 0.0000 0.0000 0.0000 0.0000 0.0000 29.3779
#
#
#
# Elastic Compliance Matrix: (Units=1/GPa)
#
#
# Indices 1 2 3 4 5 6 
#
# 1 0.023894 -0.006435 -0.000914 0.000000 0.000000 0.000000
# 2 -0.006435 0.011719 -0.009668 0.000000 0.000000 0.000000
# 3 -0.000914 -0.009668 0.021156 0.000000 0.000000 0.000000
# 4 0.000000 0.000000 0.000000 -0.000994 0.000000 0.000000
# 5 0.000000 0.000000 0.000000 0.000000 -0.009012 0.000000
# 6 0.000000 0.000000 0.000000 0.000000 0.000000 0.034039
#
#
# Mechanical properties :
#
#
# Convention : Reuss Voigt Hill
#
# Bulk Modulus (GPa) = 43.98752 74.62868 59.30810
# Shear Modulus (GPa) = 40.84484 -206.52501 -82.84009
#
# Velocity S-wave (km/s) = 4.77284 -10.73233 -6.79717
# Velocity P-wave (km/s) = 7.40986 10.58090 5.34086
#
# Compressibility (1/GPa) = 0.02273372
#
# Stress axis : x y z
#
# Youngs Moduli (GPa) = 41.85197 85.33113 47.26771
#
# Poissons Ratio (x) = 0.54913 0.04321
# Poissons Ratio (y) = 0.26933 0.45699
# Poissons Ratio (z) = 0.03826 0.82500
#
# Static dielectric constant tensor:
#      x y z
#    x 1.606850 0.000000 0.000000 
#    y 0.000000 1.623720 0.000000 
#    z 0.000000 0.000000 1.615550 
# 
# From -- ./inp_files/50386.got.cif
#   From: 2010.05.17/outbox.cif.g08.bks.cpg/sg65_26_cif.got.tgz:50386.got - 2010.06.03 17:01:31.
