data_PCOD9483049
_publ_section_title
;
Structure prediction by ZEFSAII (Michael W. Deem and Ramdas Pophale) SiO2 
 PCOD9483049
Probable space group: C M M M
;
_chemical_formula_sum "Si O2"
_cell_formula_units_Z 80
_cell_length_a 28.866511
_cell_length_b 22.671027
_cell_length_c 7.623896
_cell_angle_alpha 90.000000
_cell_angle_beta 90.000000
_cell_angle_gamma 90.000000
_cell_volume 4989.332564
_symmetry_space_group_name_H-M "C M M M"
_symmetry_group_IT_number 65
_symmetry_cell_setting 'orthorhombic'
loop_
_space_group_symop_operation_xyz
x,y,z
-x,-y,z
x,-y,-z
-x,y,-z
-x,-y,-z
x,y,-z
-x,y,z
x,-y,z
1/2+x,1/2+y,z
1/2-x,1/2-y,z
1/2+x,1/2-y,-z
1/2-x,1/2+y,-z
1/2-x,1/2-y,-z
1/2+x,1/2+y,-z
1/2-x,1/2+y,z
1/2+x,1/2-y,z
loop_
_atom_site_type_symbol
_atom_site_label
_atom_site_fract_x
_atom_site_fract_y
_atom_site_fract_z
Si Si1 0.261696 0.152085 0.500000
Si Si2 0.000000 0.258931 0.801763
Si Si3 0.799355 0.566981 0.791403
Si Si4 0.598321 0.902898 0.207818
Si Si5 0.326401 0.731970 0.500000
Si Si6 0.898350 0.737990 0.211322
Si Si7 0.000000 0.610343 0.305563
O O1 0.272032 0.112471 0.670736
O O2 0.297112 0.207191 0.500000
O O3 0.210535 0.179433 0.500000
O O4 0.050102 0.242640 0.727842
O O5 0.000000 0.330801 0.811945
O O6 0.000000 0.236202 0.000000
O O7 0.782602 0.500000 0.770353
O O8 0.853488 0.569140 0.733956
O O9 0.797886 0.581975 0.000000
O O10 0.603293 0.832765 0.242691
O O11 0.548527 0.922579 0.280358
O O12 0.595313 0.912013 0.000000
O O13 0.358921 0.732810 0.671742
O O14 0.893624 0.746518 0.000000
O O15 0.000000 0.635567 0.500000
#
# Coordination Sequence:
#
# PCOD9483049 Si02
#       7
#     8   8  16  16   8  16   8
#     4  11  23  36  48  72  97 123 159 212 247 294
#     4   8  16  26  40  63  91 126 162 190 227 273
#     4  10  21  37  56  71  87 122 166 207 253 292
#     4   9  17  30  45  63  89 120 159 202 243 284
#     4  11  22  31  50  72  97 130 162 190 255 295
#     4   9  17  30  46  68  98 129 161 198 231 280
#     4  10  18  22  39  65  90 121 151 195 246 287
#
# _framework density 16.034209000000001
#
# number of rings (size 3 to 8) (size 9 to 14) (size 15 to 20)
#    0.000    2.400    2.000    2.400    7.000    0.800 
#    0.000    2.500    0.000    3.000    0.000    0.000 
#    0.000    0.000    0.000    7.200    0.000   41.600 
#
# Total GULP energy -222865.810389 kJ/mol
# GULP energy per Si atom -5571.645260 kJ/mol
# Density = 1.599771 g / cm^3
# Si number density = 16.034209 Si / 1000 Ang^3
#
#
#
# Elastic Constant Matrix: (Units=GPa)
#
#
# Indices 1 2 3 4 5 6 
#
# 1 127.3363 50.6820 53.8947 0.0000 0.0000 0.0000
# 2 50.6820 54.2576 38.2062 0.0000 0.0000 0.0000
# 3 53.8947 38.2062 77.9039 0.0000 0.0000 0.0000
# 4 0.0000 0.0000 0.0000 7.0188 0.0000 0.0000
# 5 0.0000 0.0000 0.0000 0.0000 8.5576 0.0000
# 6 0.0000 0.0000 0.0000 0.0000 0.0000 10.3026
#
#
#
# Elastic Compliance Matrix: (Units=1/GPa)
#
#
# Indices 1 2 3 4 5 6 
#
# 1 0.013606 -0.009289 -0.004857 0.000000 0.000000 0.000000
# 2 -0.009289 0.034495 -0.010491 0.000000 0.000000 0.000000
# 3 -0.004857 -0.010491 0.021342 0.000000 0.000000 0.000000
# 4 0.000000 0.000000 0.000000 0.142475 0.000000 0.000000
# 5 0.000000 0.000000 0.000000 0.000000 0.116856 0.000000
# 6 0.000000 0.000000 0.000000 0.000000 0.000000 0.097063
#
#
# Mechanical properties :
#
#
# Convention : Reuss Voigt Hill
#
# Bulk Modulus (GPa) = 49.58324 60.56263 55.07293
# Shear Modulus (GPa) = 10.37700 12.95677 11.66688
#
# Velocity S-wave (km/s) = 2.54673 2.84574 2.70038
# Velocity P-wave (km/s) = 6.29590 6.97499 6.64413
#
# Compressibility (1/GPa) = 0.02016811
#
# Stress axis : x y z
#
# Youngs Moduli (GPa) = 73.49486 28.98956 46.85677
#
# Poissons Ratio (x) = 0.26930 0.22759
# Poissons Ratio (y) = 0.68273 0.49157
# Poissons Ratio (z) = 0.35698 0.30413
#
# Static dielectric constant tensor:
#      x y z
#    x 1.566060 0.000000 0.000000 
#    y 0.000000 1.503540 0.000000 
#    z 0.000000 0.000000 1.571000 
# 
# From -- ./inp_files/13883.got.cif
#   From: 2010.05.17/outbox.cif.g08.bks.cpg/sg65_7_cif.got.tgz:13883.got - 2010.06.03 17:01:31.
