data_PCOD9483079
_publ_section_title
;
Structure prediction by ZEFSAII (Michael W. Deem and Ramdas Pophale) SiO2 
 PCOD9483079
Probable space group: C M M M
;
_chemical_formula_sum "Si O2"
_cell_formula_units_Z 96
_cell_length_a 33.061076
_cell_length_b 20.483432
_cell_length_c 7.348551
_cell_angle_alpha 90.000000
_cell_angle_beta 90.000000
_cell_angle_gamma 90.000000
_cell_volume 4976.470351
_symmetry_space_group_name_H-M "C M M M"
_symmetry_group_IT_number 65
_symmetry_cell_setting 'orthorhombic'
loop_
_space_group_symop_operation_xyz
x,y,z
-x,-y,z
x,-y,-z
-x,y,-z
-x,-y,-z
x,y,-z
-x,y,z
x,-y,z
1/2+x,1/2+y,z
1/2-x,1/2-y,z
1/2+x,1/2-y,-z
1/2-x,1/2+y,-z
1/2-x,1/2-y,-z
1/2+x,1/2+y,-z
1/2-x,1/2+y,z
1/2+x,1/2-y,z
loop_
_atom_site_type_symbol
_atom_site_label
_atom_site_fract_x
_atom_site_fract_y
_atom_site_fract_z
Si Si1 0.132344 0.787412 0.783242
Si Si2 0.256770 0.927480 0.221018
Si Si3 0.545119 0.711189 0.282179
Si Si4 0.451339 0.568419 0.290186
Si Si5 0.837748 0.073198 0.221138
Si Si6 0.789520 0.708593 0.777797
O O1 0.088308 0.755554 0.749271
O O2 0.138403 0.862391 0.714949
O O3 0.169538 0.743541 0.715869
O O4 0.136884 0.791583 0.000000
O O5 0.209543 0.917385 0.268503
O O6 0.282915 0.865948 0.281639
O O7 0.268993 0.000000 0.281878
O O8 0.257747 0.927835 0.000000
O O9 0.541657 0.704995 0.500000
O O10 0.500000 0.732848 0.219773
O O11 0.554414 0.638819 0.204064
O O12 0.437348 0.569461 0.500000
O O13 0.500000 0.565081 0.297386
O O14 0.437246 0.500000 0.205898
O O15 0.849282 0.000000 0.284160
O O16 0.840357 0.071873 0.000000
O O17 0.750000 0.750000 0.724717
O O18 0.790083 0.708565 0.000000
#
# Coordination Sequence:
#
# PCOD9483079 Si02
#       6
#    16  16  16  16  16  16
#     4  10  18  26  40  61  82 105 133 169 208 240
#     4   8  12  19  33  53  79 110 139 164 191 229
#     4   9  18  31  43  54  73 103 137 172 207 244
#     4   7  10  19  36  53  65  84 122 167 202 230
#     4   8  13  21  33  53  81 108 134 165 200 235
#     4   9  14  22  36  57  84 110 135 163 197 239
#
# _framework density 19.290780999999999
#
# number of rings (size 3 to 8) (size 9 to 14) (size 15 to 20)
#    0.000    3.500    1.667    2.500    0.000    1.000 
#    0.000    0.000    0.000    0.500    0.000    4.667 
#    0.000    1.333    0.000    8.333    0.000    1.333 
#
# Total GULP energy -267289.427656 kJ/mol
# GULP energy per Si atom -5568.529743 kJ/mol
# Density = 1.924687 g / cm^3
# Si number density = 19.290781 Si / 1000 Ang^3
#
#
#
# Elastic Constant Matrix: (Units=GPa)
#
#
# Indices 1 2 3 4 5 6 
#
# 1 166.5097 71.9662 4.0978 0.0000 0.0000 0.0000
# 2 71.9662 97.0120 5.0971 0.0000 0.0000 0.0000
# 3 4.0978 5.0971 74.9467 0.0000 0.0000 0.0000
# 4 0.0000 0.0000 0.0000 158.5837 0.0000 0.0000
# 5 0.0000 0.0000 0.0000 0.0000 13.3549 0.0000
# 6 0.0000 0.0000 0.0000 0.0000 0.0000 12.8102
#
#
#
# Elastic Compliance Matrix: (Units=1/GPa)
#
#
# Indices 1 2 3 4 5 6 
#
# 1 0.008840 -0.006556 -0.000037 0.000000 0.000000 0.000000
# 2 -0.006556 0.015207 -0.000676 0.000000 0.000000 0.000000
# 3 -0.000037 -0.000676 0.013391 0.000000 0.000000 0.000000
# 4 0.000000 0.000000 0.000000 0.006306 0.000000 0.000000
# 5 0.000000 0.000000 0.000000 0.000000 0.074879 0.000000
# 6 0.000000 0.000000 0.000000 0.000000 0.000000 0.078063
#
#
# Mechanical properties :
#
#
# Convention : Reuss Voigt Hill
#
# Bulk Modulus (GPa) = 43.66901 55.64341 49.65621
# Shear Modulus (GPa) = 22.84601 54.10359 38.47480
#
# Velocity S-wave (km/s) = 3.44509 5.30163 4.47079
# Velocity P-wave (km/s) = 6.20575 8.14761 7.24206
#
# Compressibility (1/GPa) = 0.02289953
#
# Stress axis : x y z
#
# Youngs Moduli (GPa) = 113.12184 65.76009 74.67804
#
# Poissons Ratio (x) = 0.43111 0.00280
# Poissons Ratio (y) = 0.74161 0.05046
# Poissons Ratio (z) = 0.00424 0.04444
#
# Static dielectric constant tensor:
#      x y z
#    x 1.718950 0.000000 0.000000 
#    y 0.000000 1.710560 0.000000 
#    z 0.000000 0.000000 1.749690 
# 
# From -- ./inp_files/32679.got.cif
#   From: 2010.05.17/outbox.cif.g08.bks.cpg/sg65_17_cif.got.tgz:32679.got - 2010.06.03 17:01:31.
