data_PCOD9483379
_publ_section_title
;
Structure prediction by ZEFSAII (Michael W. Deem and Ramdas Pophale) SiO2 
 PCOD9483379
Probable space group: C M M M
;
_chemical_formula_sum "Si O2"
_cell_formula_units_Z 112
_cell_length_a 30.126961
_cell_length_b 7.477394
_cell_length_c 24.337399
_cell_angle_alpha 90.000000
_cell_angle_beta 90.000000
_cell_angle_gamma 90.000000
_cell_volume 5482.514041
_symmetry_space_group_name_H-M "C M M M"
_symmetry_group_IT_number 65
_symmetry_cell_setting 'orthorhombic'
loop_
_space_group_symop_operation_xyz
x,y,z
-x,-y,z
x,-y,-z
-x,y,-z
-x,-y,-z
x,y,-z
-x,y,z
x,-y,z
1/2+x,1/2+y,z
1/2-x,1/2-y,z
1/2+x,1/2-y,-z
1/2-x,1/2+y,-z
1/2-x,1/2-y,-z
1/2+x,1/2+y,-z
1/2-x,1/2+y,z
1/2+x,1/2-y,z
loop_
_atom_site_type_symbol
_atom_site_label
_atom_site_fract_x
_atom_site_fract_y
_atom_site_fract_z
Si Si1 0.861443 0.789892 0.060686
Si Si2 0.801598 0.214144 0.840820
Si Si3 0.551233 0.216176 0.245380
Si Si4 0.050062 0.781570 0.436696
Si Si5 0.698636 0.714750 0.282758
Si Si6 0.449681 0.784110 0.879476
Si Si7 0.615597 0.293382 0.344632
O O1 0.832522 0.713233 0.110795
O O2 0.912671 0.775380 0.078097
O O3 0.850290 0.000000 0.057784
O O4 0.853791 0.713271 0.000000
O O5 0.750000 0.250000 0.852790
O O6 0.810686 0.283463 0.779182
O O7 0.807872 0.000000 0.838394
O O8 0.500000 0.267644 0.256420
O O9 0.562086 0.272963 0.182935
O O10 0.584351 0.288225 0.290838
O O11 0.553290 0.000000 0.247094
O O12 0.057856 0.730489 0.500000
O O13 0.087000 0.714775 0.394461
O O14 0.000000 0.725448 0.420953
O O15 0.049960 0.000000 0.434937
O O16 0.693312 0.500000 0.280864
O O17 0.750000 0.750000 0.295737
O O18 0.662608 0.785557 0.325777
O O19 0.500000 0.724690 0.891279
O O20 0.450035 0.000000 0.879296
O O21 0.623797 0.500000 0.359808
#
# Coordination Sequence:
#
# PCOD9483379 Si02
#       7
#    16  16  16  16  16  16  16
#     4  10  21  35  50  70  95 120 149 190 237 279
#     4   9  18  33  50  68  92 119 147 184 232 284
#     4   9  18  31  46  68  98 126 151 185 234 286
#     4   8  14  25  42  67  99 130 159 194 233 269
#     4   9  18  31  47  68  92 118 151 191 235 282
#     4   9  19  35  51  67  91 124 159 192 227 273
#     4  10  18  28  47  73  96 122 160 200 234 273
#
# _framework density 20.428584000000001
#
# number of rings (size 3 to 8) (size 9 to 14) (size 15 to 20)
#    0.000    2.857    0.000    2.571    0.000    4.857 
#    0.000    5.714    0.000    0.857    0.000    2.000 
#    0.000    0.000    0.000    0.000    0.000    0.000 
#
# Total GULP energy -312551.075737 kJ/mol
# GULP energy per Si atom -5581.269210 kJ/mol
# Density = 2.038209 g / cm^3
# Si number density = 20.428584 Si / 1000 Ang^3
#
#
#
# Elastic Constant Matrix: (Units=GPa)
#
#
# Indices 1 2 3 4 5 6 
#
# 1 129.1879 -0.4875 107.0969 0.0000 0.0000 0.0000
# 2 -0.4875 59.2600 5.6330 0.0000 0.0000 0.0000
# 3 107.0969 5.6330 123.6731 0.0000 0.0000 0.0000
# 4 0.0000 0.0000 0.0000 -8.5353 0.0000 0.0000
# 5 0.0000 0.0000 0.0000 0.0000 34.7918 0.0000
# 6 0.0000 0.0000 0.0000 0.0000 0.0000 9.9478
#
#
#
# Elastic Compliance Matrix: (Units=1/GPa)
#
#
# Indices 1 2 3 4 5 6 
#
# 1 0.027811 0.002529 -0.024198 0.000000 0.000000 0.000000
# 2 0.002529 0.017178 -0.002972 0.000000 0.000000 0.000000
# 3 -0.024198 -0.002972 0.029176 0.000000 0.000000 0.000000
# 4 0.000000 0.000000 0.000000 -0.117161 0.000000 0.000000
# 5 0.000000 0.000000 0.000000 0.000000 0.028742 0.000000
# 6 0.000000 0.000000 0.000000 0.000000 0.000000 0.100525
#
#
# Mechanical properties :
#
#
# Convention : Reuss Voigt Hill
#
# Bulk Modulus (GPa) = 40.19060 59.62284 49.90672
# Shear Modulus (GPa) = 34.75874 20.56610 27.66242
#
# Velocity S-wave (km/s) = 4.12937 3.17635 3.68381
# Velocity P-wave (km/s) = 6.51552 6.53464 6.52509
#
# Compressibility (1/GPa) = 0.02488144
#
# Stress axis : x y z
#
# Youngs Moduli (GPa) = 35.95753 58.21350 34.27460
#
# Poissons Ratio (x) = -0.14722 0.82939
# Poissons Ratio (y) = -0.09094 0.10188
# Poissons Ratio (z) = 0.87011 0.17303
#
# Static dielectric constant tensor:
#      x y z
#    x 1.716140 0.000000 0.000000 
#    y 0.000000 1.862010 0.000000 
#    z 0.000000 0.000000 1.721770 
# 
# From -- ./inp_files/61824.got.cif
#   From: 2010.05.17/outbox.cif.g08.bks.cpg/sg65_31_cif.got.tgz:61824.got - 2010.06.03 17:01:31.
