data_PCOD9483998
_publ_section_title
;
Structure prediction by ZEFSAII (Michael W. Deem and Ramdas Pophale) SiO2 
 PCOD9483998
Probable space group: C M M M
;
_chemical_formula_sum "Si O2"
_cell_formula_units_Z 88
_cell_length_a 22.877165
_cell_length_b 23.054021
_cell_length_c 9.136501
_cell_angle_alpha 90.000000
_cell_angle_beta 90.000000
_cell_angle_gamma 90.000000
_cell_volume 4818.687861
_symmetry_space_group_name_H-M "C M M M"
_symmetry_group_IT_number 65
_symmetry_cell_setting 'orthorhombic'
loop_
_space_group_symop_operation_xyz
x,y,z
-x,-y,z
x,-y,-z
-x,y,-z
-x,-y,-z
x,y,-z
-x,y,z
x,-y,z
1/2+x,1/2+y,z
1/2-x,1/2-y,z
1/2+x,1/2-y,-z
1/2-x,1/2+y,-z
1/2-x,1/2-y,-z
1/2+x,1/2+y,-z
1/2-x,1/2+y,z
1/2+x,1/2-y,z
loop_
_atom_site_type_symbol
_atom_site_label
_atom_site_fract_x
_atom_site_fract_y
_atom_site_fract_z
Si Si1 0.931885 0.000000 0.678085
Si Si2 0.000000 0.788772 0.672728
Si Si3 0.500000 0.168057 0.171509
Si Si4 0.160181 0.098565 0.674171
Si Si5 0.130541 0.341914 0.172074
Si Si6 0.880429 0.793242 0.175101
Si Si7 0.207910 0.436898 0.326028
O O1 0.893148 0.056301 0.720724
O O2 0.932818 0.000000 0.500000
O O3 0.000000 0.000000 0.726642
O O4 0.058318 0.810734 0.749931
O O5 0.000000 0.799376 0.500000
O O6 0.000000 0.720738 0.714395
O O7 0.437368 0.138325 0.190648
O O8 0.500000 0.190261 0.000000
O O9 0.153203 0.109941 0.500000
O O10 0.162532 0.158677 0.761930
O O11 0.222502 0.068131 0.695835
O O12 0.133316 0.273700 0.215895
O O13 0.173844 0.383793 0.255398
O O14 0.143778 0.343925 0.000000
O O15 0.884782 0.795374 0.000000
O O16 0.198107 0.435002 0.500000
O O17 0.188001 0.500000 0.270085
#
# Coordination Sequence:
#
# PCOD9483998 Si02
#       7
#     8   8   8  16  16  16  16
#     4   9  18  34  57  83 111 144 188 235 273 320
#     4  10  18  30  52  80 110 146 186 218 263 335
#     4   8  16  34  55  79 113 144 172 221 280 323
#     4  10  20  36  57  81 110 146 189 231 278 334
#     4   9  19  36  58  81 109 146 184 223 273 336
#     4  10  21  36  53  80 116 147 179 231 287 327
#     4  10  21  38  57  78 110 148 184 230 284 333
#
# _framework density 18.262232000000001
#
# number of rings (size 3 to 8) (size 9 to 14) (size 15 to 20)
#    0.000    2.455    0.909    2.455    1.273    5.455 
#    0.000    4.545    0.000    3.273    0.000    0.000 
#    0.000    0.000    0.000    0.000    0.000    0.000 
#
# Total GULP energy -245158.161293 kJ/mol
# GULP energy per Si atom -5571.776393 kJ/mol
# Density = 1.822067 g / cm^3
# Si number density = 18.262232 Si / 1000 Ang^3
#
#
#
# Elastic Constant Matrix: (Units=GPa)
#
#
# Indices 1 2 3 4 5 6 
#
# 1 70.3035 56.1187 33.3357 0.0000 0.0000 0.0000
# 2 56.1187 116.2343 43.9560 0.0000 0.0000 0.0000
# 3 33.3357 43.9560 41.1500 0.0000 0.0000 0.0000
# 4 0.0000 0.0000 0.0000 14.0424 0.0000 0.0000
# 5 0.0000 0.0000 0.0000 0.0000 27.4934 0.0000
# 6 0.0000 0.0000 0.0000 0.0000 0.0000 -7.2084
#
#
#
# Elastic Compliance Matrix: (Units=1/GPa)
#
#
# Indices 1 2 3 4 5 6 
#
# 1 0.026863 -0.007952 -0.013267 0.000000 0.000000 0.000000
# 2 -0.007952 0.016788 -0.011491 0.000000 0.000000 0.000000
# 3 -0.013267 -0.011491 0.047323 0.000000 0.000000 0.000000
# 4 0.000000 0.000000 0.000000 0.071213 0.000000 0.000000
# 5 0.000000 0.000000 0.000000 0.000000 0.036372 0.000000
# 6 0.000000 0.000000 0.000000 0.000000 0.000000 -0.138727
#
#
# Mechanical properties :
#
#
# Convention : Reuss Voigt Hill
#
# Bulk Modulus (GPa) = 39.13278 54.94541 47.03909
# Shear Modulus (GPa) = 37.37743 13.15063 25.26403
#
# Velocity S-wave (km/s) = 4.52896 2.68638 3.72345
# Velocity P-wave (km/s) = 6.98738 6.30669 6.65574
#
# Compressibility (1/GPa) = 0.02555403
#
# Stress axis : x y z
#
# Youngs Moduli (GPa) = 37.22644 59.56568 21.13133
#
# Poissons Ratio (x) = 0.47369 0.28035
# Poissons Ratio (y) = 0.29604 0.24281
# Poissons Ratio (z) = 0.49388 0.68445
#
# Static dielectric constant tensor:
#      x y z
#    x 1.665230 0.000000 0.000000 
#    y 0.000000 1.636030 0.000000 
#    z 0.000000 0.000000 1.605950 
# 
# From -- ./inp_files/14081.got.cif
#   From: 2010.05.17/outbox.cif.g08.bks.cpg/sg65_8_cif.got.tgz:14081.got - 2010.06.03 17:01:31.
