data_PCOD9483330
_publ_section_title
;
Structure prediction by ZEFSAII (Michael W. Deem and Ramdas Pophale) SiO2 
 PCOD9483330
Probable space group: C M M M
;
_chemical_formula_sum "Si O2"
_cell_formula_units_Z 80
_cell_length_a 26.161820
_cell_length_b 21.162844
_cell_length_c 8.310272
_cell_angle_alpha 90.000000
_cell_angle_beta 90.000000
_cell_angle_gamma 90.000000
_cell_volume 4601.052858
_symmetry_space_group_name_H-M "C M M M"
_symmetry_group_IT_number 65
_symmetry_cell_setting 'orthorhombic'
loop_
_space_group_symop_operation_xyz
x,y,z
-x,-y,z
x,-y,-z
-x,y,-z
-x,-y,-z
x,y,-z
-x,y,z
x,-y,z
1/2+x,1/2+y,z
1/2-x,1/2-y,z
1/2+x,1/2-y,-z
1/2-x,1/2+y,-z
1/2-x,1/2-y,-z
1/2+x,1/2+y,-z
1/2-x,1/2+y,z
1/2+x,1/2-y,z
loop_
_atom_site_type_symbol
_atom_site_label
_atom_site_fract_x
_atom_site_fract_y
_atom_site_fract_z
Si Si1 0.892578 0.618327 0.692409
Si Si2 0.889628 0.233490 0.303491
Si Si3 0.215344 0.569845 0.807618
Si Si4 0.000000 0.769525 0.689988
Si Si5 0.718868 0.312202 0.305595
Si Si6 0.500000 0.872817 0.811007
O O1 0.896351 0.616075 0.500000
O O2 0.885196 0.692332 0.740817
O O3 0.842202 0.582367 0.747542
O O4 0.946382 0.595133 0.765103
O O5 0.890349 0.232206 0.500000
O O6 0.944947 0.209304 0.244529
O O7 0.839631 0.195937 0.249908
O O8 0.231876 0.500000 0.753341
O O9 0.252262 0.625157 0.747879
O O10 0.214770 0.571372 0.000000
O O11 0.000000 0.693433 0.712961
O O12 0.000000 0.783404 0.500000
O O13 0.718830 0.311340 0.500000
O O14 0.750000 0.250000 0.251839
O O15 0.500000 0.858801 0.000000
#
# Coordination Sequence:
#
# PCOD9483330 Si02
#       6
#    16  16  16   8  16   8
#     4  10  18  33  53  72  97 133 175 213 253 300
#     4   8  14  26  47  74 100 127 162 208 250 292
#     4  11  24  38  50  71 104 137 169 212 264 311
#     4   8  14  26  44  69 102 137 168 200 250 304
#     4  10  18  32  53  77 102 131 171 214 253 302
#     4  10  18  28  45  73 104 133 167 210 256 298
#
# _framework density 17.387325000000001
#
# number of rings (size 3 to 8) (size 9 to 14) (size 15 to 20)
#    0.000    2.400    2.000    3.300    0.000    2.000 
#    0.000    1.500    0.000    3.000    0.000    0.700 
#    0.000    5.600    0.000    0.000    0.000    0.000 
#
# Total GULP energy -222962.705145 kJ/mol
# GULP energy per Si atom -5574.067629 kJ/mol
# Density = 1.734775 g / cm^3
# Si number density = 17.387325 Si / 1000 Ang^3
#
#
#
# Elastic Constant Matrix: (Units=GPa)
#
#
# Indices 1 2 3 4 5 6 
#
# 1 164.8778 66.2804 19.0104 0.0000 0.0000 0.0000
# 2 66.2804 88.7252 14.6822 0.0000 0.0000 0.0000
# 3 19.0104 14.6822 13.8732 0.0000 0.0000 0.0000
# 4 0.0000 0.0000 0.0000 16.1938 0.0000 0.0000
# 5 0.0000 0.0000 0.0000 0.0000 11.7144 0.0000
# 6 0.0000 0.0000 0.0000 0.0000 0.0000 11.7663
#
#
#
# Elastic Compliance Matrix: (Units=1/GPa)
#
#
# Indices 1 2 3 4 5 6 
#
# 1 0.009115 -0.005749 -0.006406 0.000000 0.000000 0.000000
# 2 -0.005749 0.017290 -0.010420 0.000000 0.000000 0.000000
# 3 -0.006406 -0.010420 0.091887 0.000000 0.000000 0.000000
# 4 0.000000 0.000000 0.000000 0.061752 0.000000 0.000000
# 5 0.000000 0.000000 0.000000 0.000000 0.085365 0.000000
# 6 0.000000 0.000000 0.000000 0.000000 0.000000 0.084989
#
#
# Mechanical properties :
#
#
# Convention : Reuss Voigt Hill
#
# Bulk Modulus (GPa) = 13.67204 51.93582 32.80393
# Shear Modulus (GPa) = 11.90681 19.10177 15.50429
#
# Velocity S-wave (km/s) = 2.61970 3.31811 2.98938
# Velocity P-wave (km/s) = 4.12683 6.67942 5.55182
#
# Compressibility (1/GPa) = 0.07314198
#
# Stress axis : x y z
#
# Youngs Moduli (GPa) = 109.71223 57.83774 10.88290
#
# Poissons Ratio (x) = 0.33251 0.06971
# Poissons Ratio (y) = 0.63073 0.11340
# Poissons Ratio (z) = 0.70279 0.60268
#
# Static dielectric constant tensor:
#      x y z
#    x 1.637720 0.000000 0.000000 
#    y 0.000000 1.571190 0.000000 
#    z 0.000000 0.000000 1.597910 
# 
# From -- ./inp_files/11554.got.cif
#   From: 2010.05.17/outbox.cif.g08.bks.cpg/sg65_6_cif.got.tgz:11554.got - 2010.06.03 17:01:31.
