data_PCOD9483012
_publ_section_title
;
Structure prediction by ZEFSAII (Michael W. Deem and Ramdas Pophale) SiO2 
 PCOD9483012
Probable space group: C M M M
;
_chemical_formula_sum "Si O2"
_cell_formula_units_Z 84
_cell_length_a 23.433036
_cell_length_b 10.565525
_cell_length_c 17.973145
_cell_angle_alpha 90.000000
_cell_angle_beta 90.000000
_cell_angle_gamma 90.000000
_cell_volume 4449.833075
_symmetry_space_group_name_H-M "C M M M"
_symmetry_group_IT_number 65
_symmetry_cell_setting 'orthorhombic'
loop_
_space_group_symop_operation_xyz
x,y,z
-x,-y,z
x,-y,-z
-x,y,-z
-x,-y,-z
x,y,-z
-x,y,z
x,-y,z
1/2+x,1/2+y,z
1/2-x,1/2-y,z
1/2+x,1/2-y,-z
1/2-x,1/2+y,-z
1/2-x,1/2-y,-z
1/2+x,1/2+y,-z
1/2-x,1/2+y,z
1/2+x,1/2-y,z
loop_
_atom_site_type_symbol
_atom_site_label
_atom_site_fract_x
_atom_site_fract_y
_atom_site_fract_z
Si Si1 0.500000 0.777535 0.322830
Si Si2 0.700864 0.145274 0.288082
Si Si3 0.500000 0.500000 0.310430
Si Si4 0.801546 0.651061 0.000000
Si Si5 0.607956 0.500000 0.583388
Si Si6 0.624605 0.151887 0.147056
Si Si7 0.000000 0.642116 0.836835
Si Si8 0.381166 0.218372 0.587088
O O1 0.500000 0.641281 0.279513
O O2 0.500000 0.868999 0.252865
O O3 0.443779 0.789779 0.374284
O O4 0.750000 0.250000 0.293461
O O5 0.658806 0.189228 0.221141
O O6 0.663506 0.143979 0.363057
O O7 0.720519 0.000000 0.272701
O O8 0.556138 0.500000 0.360584
O O9 0.750000 0.750000 0.000000
O O10 0.838936 0.675419 0.073579
O O11 0.785543 0.500000 0.000000
O O12 0.583139 0.500000 0.500000
O O13 0.638670 0.633751 0.591573
O O14 0.560365 0.203971 0.142168
O O15 0.618523 0.000000 0.154366
O O16 0.000000 0.500000 0.870272
O O17 0.384243 0.183556 0.500000
#
# Coordination Sequence:
#
# PCOD9483012 Si02
#       8
#     8  16   4   8   8  16   8  16
#     4  10  17  32  55  80 114 148 185 234 292 340
#     4  11  24  40  57  79 112 149 193 240 289 341
#     4   8  15  24  44  74 108 139 182 222 268 331
#     4  10  20  37  65  91 121 154 197 234 272 326
#     4   8  15  28  48  74 104 136 178 233 284 329
#     4   9  19  36  59  90 118 147 183 233 285 340
#     4  10  18  32  57  85 118 147 177 225 292 342
#     4  10  20  34  55  81 110 146 193 240 291 345
#
# _framework density 18.877113999999999
#
# number of rings (size 3 to 8) (size 9 to 14) (size 15 to 20)
#    0.000    2.286    1.905    1.000    1.333    3.429 
#    0.000    1.905    2.095    1.714    0.000    0.667 
#    0.000    0.000    0.000    0.000    0.000    0.000 
#
# Total GULP energy -233871.710624 kJ/mol
# GULP energy per Si atom -5568.374062 kJ/mol
# Density = 1.883415 g / cm^3
# Si number density = 18.877114 Si / 1000 Ang^3
#
#
#
# Elastic Constant Matrix: (Units=GPa)
#
#
# Indices 1 2 3 4 5 6 
#
# 1 138.7017 46.9241 51.7607 0.0000 0.0000 0.0000
# 2 46.9241 73.4598 18.2438 0.0000 0.0000 0.0000
# 3 51.7607 18.2438 83.2280 0.0000 0.0000 0.0000
# 4 0.0000 0.0000 0.0000 15.3387 0.0000 0.0000
# 5 0.0000 0.0000 0.0000 0.0000 8.8180 0.0000
# 6 0.0000 0.0000 0.0000 0.0000 0.0000 10.4420
#
#
#
# Elastic Compliance Matrix: (Units=1/GPa)
#
#
# Indices 1 2 3 4 5 6 
#
# 1 0.011327 -0.005802 -0.005772 0.000000 0.000000 0.000000
# 2 -0.005802 0.017368 -0.000199 0.000000 0.000000 0.000000
# 3 -0.005772 -0.000199 0.015649 0.000000 0.000000 0.000000
# 4 0.000000 0.000000 0.000000 0.065195 0.000000 0.000000
# 5 0.000000 0.000000 0.000000 0.000000 0.113404 0.000000
# 6 0.000000 0.000000 0.000000 0.000000 0.000000 0.095767
#
#
# Mechanical properties :
#
#
# Convention : Reuss Voigt Hill
#
# Bulk Modulus (GPa) = 48.08293 58.80519 53.44406
# Shear Modulus (GPa) = 14.31893 18.81713 16.56803
#
# Velocity S-wave (km/s) = 2.75714 3.16067 2.96578
# Velocity P-wave (km/s) = 5.97182 6.67376 6.33252
#
# Compressibility (1/GPa) = 0.02079740
#
# Stress axis : x y z
#
# Youngs Moduli (GPa) = 88.28781 57.57660 63.90258
#
# Poissons Ratio (x) = 0.33403 0.36888
# Poissons Ratio (y) = 0.51220 0.01272
# Poissons Ratio (z) = 0.50964 0.01146
#
# Static dielectric constant tensor:
#      x y z
#    x 1.670610 0.000000 0.000000 
#    y 0.000000 1.713660 0.000000 
#    z 0.000000 0.000000 1.632350 
# 
# From -- ./inp_files/45484.got.cif
#   From: 2010.05.17/outbox.cif.g08.bks.cpg/sg65_23_cif.got.tgz:45484.got - 2010.06.03 17:01:31.
