data_PCOD9483234
_publ_section_title
;
Structure prediction by ZEFSAII (Michael W. Deem and Ramdas Pophale) SiO2 
 PCOD9483234
Probable space group: C M M M
;
_chemical_formula_sum "Si O2"
_cell_formula_units_Z 80
_cell_length_a 7.384886
_cell_length_b 27.923325
_cell_length_c 21.060373
_cell_angle_alpha 90.000000
_cell_angle_beta 90.000000
_cell_angle_gamma 90.000000
_cell_volume 4342.871560
_symmetry_space_group_name_H-M "C M M M"
_symmetry_group_IT_number 65
_symmetry_cell_setting 'orthorhombic'
loop_
_space_group_symop_operation_xyz
x,y,z
-x,-y,z
x,-y,-z
-x,y,-z
-x,-y,-z
x,y,-z
-x,y,z
x,-y,z
1/2+x,1/2+y,z
1/2-x,1/2-y,z
1/2+x,1/2-y,-z
1/2-x,1/2+y,-z
1/2-x,1/2-y,-z
1/2+x,1/2+y,-z
1/2-x,1/2+y,z
1/2+x,1/2-y,z
loop_
_atom_site_type_symbol
_atom_site_label
_atom_site_fract_x
_atom_site_fract_y
_atom_site_fract_z
Si Si1 0.219358 0.446627 0.304484
Si Si2 0.216280 0.693485 0.500000
Si Si3 0.500000 0.442644 0.925345
Si Si4 0.717707 0.900056 0.169254
Si Si5 0.778459 0.349482 0.367464
Si Si6 0.284844 0.804648 0.763568
O O1 0.284793 0.500000 0.318652
O O2 0.262181 0.431039 0.232392
O O3 0.277624 0.403656 0.350521
O O4 0.000000 0.447375 0.307655
O O5 0.250000 0.750000 0.500000
O O6 0.285204 0.670024 0.434892
O O7 0.000000 0.686407 0.500000
O O8 0.500000 0.500000 0.917473
O O9 0.673454 0.420579 0.889687
O O10 0.500000 0.431834 0.000000
O O11 0.500000 0.901784 0.159993
O O12 0.775856 0.845931 0.188031
O O13 0.718274 0.317081 0.307574
O O14 0.000000 0.348575 0.368227
O O15 0.500000 0.811033 0.760601
O O16 0.250000 0.750000 0.781016
#
# Coordination Sequence:
#
# PCOD9483234 Si02
#       6
#    16   8   8  16  16  16
#     4   8  13  25  47  69  93 126 161 202 251 300
#     4  10  18  28  43  59  87 129 158 198 249 304
#     4  11  24  38  56  84 112 139 173 211 252 309
#     4   9  19  35  54  79 108 140 173 213 261 309
#     4   8  15  26  39  64  97 124 164 207 251 300
#     4   9  17  29  49  76 101 131 170 218 263 305
#
# _framework density 18.420991999999998
#
# number of rings (size 3 to 8) (size 9 to 14) (size 15 to 20)
#    0.000    3.100    0.000    3.600    1.400    1.600 
#    0.000    1.500    2.200    3.600    0.000    0.000 
#    0.000    0.800    0.000    0.000    0.000    0.000 
#
# Total GULP energy -223082.388483 kJ/mol
# GULP energy per Si atom -5577.059712 kJ/mol
# Density = 1.837906 g / cm^3
# Si number density = 18.420992 Si / 1000 Ang^3
#
#
#
# Elastic Constant Matrix: (Units=GPa)
#
#
# Indices 1 2 3 4 5 6 
#
# 1 74.9256 18.9098 37.4657 0.0000 0.0000 0.0000
# 2 18.9098 162.1453 91.2434 0.0000 0.0000 0.0000
# 3 37.4657 91.2434 153.1919 0.0000 0.0000 0.0000
# 4 0.0000 0.0000 0.0000 19.2485 0.0000 0.0000
# 5 0.0000 0.0000 0.0000 0.0000 49.7813 0.0000
# 6 0.0000 0.0000 0.0000 0.0000 0.0000 16.5441
#
#
#
# Elastic Compliance Matrix: (Units=1/GPa)
#
#
# Indices 1 2 3 4 5 6 
#
# 1 0.015231 0.000481 -0.004012 0.000000 0.000000 0.000000
# 2 0.000481 0.009292 -0.005652 0.000000 0.000000 0.000000
# 3 -0.004012 -0.005652 0.010875 0.000000 0.000000 0.000000
# 4 0.000000 0.000000 0.000000 0.051952 0.000000 0.000000
# 5 0.000000 0.000000 0.000000 0.000000 0.020088 0.000000
# 6 0.000000 0.000000 0.000000 0.000000 0.000000 0.060444
#
#
# Mechanical properties :
#
#
# Convention : Reuss Voigt Hill
#
# Bulk Modulus (GPa) = 58.70876 76.16673 67.43775
# Shear Modulus (GPa) = 26.05186 33.29106 29.67146
#
# Velocity S-wave (km/s) = 3.76473 4.25577 4.01776
# Velocity P-wave (km/s) = 7.13003 8.09854 7.62967
#
# Compressibility (1/GPa) = 0.01703323
#
# Stress axis : x y z
#
# Youngs Moduli (GPa) = 65.65519 107.62308 91.95198
#
# Poissons Ratio (x) = -0.05178 0.36887
# Poissons Ratio (y) = -0.03159 0.51971
# Poissons Ratio (z) = 0.26338 0.60828
#
# Static dielectric constant tensor:
#      x y z
#    x 1.720110 0.000000 0.000000 
#    y 0.000000 1.657880 0.000000 
#    z 0.000000 0.000000 1.594360 
# 
# From -- ./inp_files/60079.got.cif
#   From: 2010.05.17/outbox.cif.g08.bks.cpg/sg65_31_cif.got.tgz:60079.got - 2010.06.03 17:01:31.
