data_PCOD9483624
_publ_section_title
;
Structure prediction by ZEFSAII (Michael W. Deem and Ramdas Pophale) SiO2 
 PCOD9483624
Probable space group: C M M M
;
_chemical_formula_sum "Si O2"
_cell_formula_units_Z 104
_cell_length_a 27.964704
_cell_length_b 8.850394
_cell_length_c 24.585474
_cell_angle_alpha 90.000000
_cell_angle_beta 90.000000
_cell_angle_gamma 90.000000
_cell_volume 6084.871588
_symmetry_space_group_name_H-M "C M M M"
_symmetry_group_IT_number 65
_symmetry_cell_setting 'orthorhombic'
loop_
_space_group_symop_operation_xyz
x,y,z
-x,-y,z
x,-y,-z
-x,y,-z
-x,-y,-z
x,y,-z
-x,y,z
x,-y,z
1/2+x,1/2+y,z
1/2-x,1/2-y,z
1/2+x,1/2-y,-z
1/2-x,1/2+y,-z
1/2-x,1/2-y,-z
1/2+x,1/2+y,-z
1/2-x,1/2+y,z
1/2+x,1/2-y,z
loop_
_atom_site_type_symbol
_atom_site_label
_atom_site_fract_x
_atom_site_fract_y
_atom_site_fract_z
Si Si1 0.698632 0.681592 0.269381
Si Si2 0.398754 0.180064 0.937248
Si Si3 0.855593 0.820428 0.162175
Si Si4 0.500000 0.329771 0.065871
Si Si5 0.054858 0.683932 0.561708
Si Si6 0.109572 0.319307 0.332463
Si Si7 0.946350 0.820541 0.236894
O O1 0.699165 0.500000 0.271703
O O2 0.750000 0.750000 0.282369
O O3 0.683175 0.725590 0.207551
O O4 0.657539 0.742493 0.309601
O O5 0.359076 0.238298 0.895274
O O6 0.450570 0.247209 0.920729
O O7 0.401618 0.000000 0.935337
O O8 0.389642 0.226081 0.000000
O O9 0.906101 0.789994 0.192257
O O10 0.851551 0.000000 0.153422
O O11 0.500000 0.500000 0.088603
O O12 0.500000 0.338233 0.000000
O O13 0.066466 0.731559 0.500000
O O14 0.054786 0.500000 0.562167
O O15 0.091757 0.731902 0.608130
O O16 0.000000 0.730773 0.573826
O O17 0.115741 0.500000 0.332369
O O18 0.068204 0.272630 0.290040
O O19 0.000000 0.786447 0.218652
O O20 0.943320 0.000000 0.249473
#
# Coordination Sequence:
#
# PCOD9483624 Si02
#       7
#    16  16  16   8  16  16  16
#     4  10  21  38  58  78  99 124 157 204 258 308
#     4  10  20  32  46  68  98 128 161 203 245 284
#     4   9  19  33  50  72  95 125 162 197 242 300
#     4   9  17  29  45  63  87 127 171 201 230 277
#     4   8  14  25  43  71 108 146 180 212 243 278
#     4  10  18  29  49  76 102 131 170 210 249 299
#     4   9  18  31  45  65  98 135 166 204 250 293
#
# _framework density 17.091569
#
# number of rings (size 3 to 8) (size 9 to 14) (size 15 to 20)
#    0.000    2.692    0.000    3.462    1.077    5.846 
#    0.000    0.000    0.000    2.769    0.000    5.385 
#    0.000    0.000    0.000    0.000    0.000    0.000 
#
# Total GULP energy -289873.608780 kJ/mol
# GULP energy per Si atom -5574.492477 kJ/mol
# Density = 1.705267 g / cm^3
# Si number density = 17.091569 Si / 1000 Ang^3
#
#
#
# Elastic Constant Matrix: (Units=GPa)
#
#
# Indices 1 2 3 4 5 6 
#
# 1 67.4422 17.5651 33.7531 0.0000 0.0000 0.0000
# 2 17.5651 30.5512 32.2094 0.0000 0.0000 0.0000
# 3 33.7531 32.2094 105.5045 0.0000 0.0000 0.0000
# 4 0.0000 0.0000 0.0000 9.8929 0.0000 0.0000
# 5 0.0000 0.0000 0.0000 0.0000 18.2823 0.0000
# 6 0.0000 0.0000 0.0000 0.0000 0.0000 18.1618
#
#
#
# Elastic Compliance Matrix: (Units=1/GPa)
#
#
# Indices 1 2 3 4 5 6 
#
# 1 0.018484 -0.006478 -0.003936 0.000000 0.000000 0.000000
# 2 -0.006478 0.050537 -0.013356 0.000000 0.000000 0.000000
# 3 -0.003936 -0.013356 0.014815 0.000000 0.000000 0.000000
# 4 0.000000 0.000000 0.000000 0.101083 0.000000 0.000000
# 5 0.000000 0.000000 0.000000 0.000000 0.054698 0.000000
# 6 0.000000 0.000000 0.000000 0.000000 0.000000 0.055061
#
#
# Mechanical properties :
#
#
# Convention : Reuss Voigt Hill
#
# Bulk Modulus (GPa) = 27.55056 41.17257 34.36156
# Shear Modulus (GPa) = 14.11166 17.26542 15.68854
#
# Velocity S-wave (km/s) = 2.87653 3.18177 3.03299
# Velocity P-wave (km/s) = 5.21411 6.13514 5.69328
#
# Compressibility (1/GPa) = 0.03629690
#
# Stress axis : x y z
#
# Youngs Moduli (GPa) = 54.09944 19.78735 67.49941
#
# Poissons Ratio (x) = 0.12818 0.26567
# Poissons Ratio (y) = 0.35045 0.90153
# Poissons Ratio (z) = 0.21293 0.26428
#
# Static dielectric constant tensor:
#      x y z
#    x 1.566850 0.000000 0.000000 
#    y 0.000000 1.574380 0.000000 
#    z 0.000000 0.000000 1.602740 
# 
# From -- ./inp_files/71860.got.cif
#   From: 2010.05.17/outbox.cif.g08.bks.cpg/sg65_36_cif.got.tgz:71860.got - 2010.06.03 17:01:31.
