data_PCOD9483992
_publ_section_title
;
Structure prediction by ZEFSAII (Michael W. Deem and Ramdas Pophale) SiO2 
 PCOD9483992
Probable space group: C M M M
;
_chemical_formula_sum "Si O2"
_cell_formula_units_Z 92
_cell_length_a 27.549064
_cell_length_b 22.041953
_cell_length_c 7.427007
_cell_angle_alpha 90.000000
_cell_angle_beta 90.000000
_cell_angle_gamma 90.000000
_cell_volume 4509.939887
_symmetry_space_group_name_H-M "C M M M"
_symmetry_group_IT_number 65
_symmetry_cell_setting 'orthorhombic'
loop_
_space_group_symop_operation_xyz
x,y,z
-x,-y,z
x,-y,-z
-x,y,-z
-x,-y,-z
x,y,-z
-x,y,z
x,-y,z
1/2+x,1/2+y,z
1/2-x,1/2-y,z
1/2+x,1/2-y,-z
1/2-x,1/2+y,-z
1/2-x,1/2-y,-z
1/2+x,1/2+y,-z
1/2-x,1/2+y,z
1/2+x,1/2-y,z
loop_
_atom_site_type_symbol
_atom_site_label
_atom_site_fract_x
_atom_site_fract_y
_atom_site_fract_z
Si Si1 0.579052 0.376588 0.719389
Si Si2 0.609527 0.879158 0.290871
Si Si3 0.789876 0.430753 0.788769
Si Si4 0.500000 0.581915 0.000000
Si Si5 0.556450 0.000000 0.279619
Si Si6 0.444699 0.761978 0.281489
Si Si7 0.818337 0.931034 0.715461
O O1 0.572154 0.383889 0.500000
O O2 0.568864 0.306422 0.769360
O O3 0.634309 0.393660 0.766558
O O4 0.542227 0.414988 0.840504
O O5 0.594990 0.878022 0.500000
O O6 0.666985 0.889677 0.283994
O O7 0.590288 0.815567 0.215806
O O8 0.583652 0.939352 0.215245
O O9 0.792571 0.500000 0.713667
O O10 0.735182 0.407539 0.762746
O O11 0.798629 0.434941 0.000000
O O12 0.500000 0.000000 0.230004
O O13 0.558786 0.000000 0.500000
O O14 0.443693 0.761186 0.500000
O O15 0.500000 0.774725 0.225699
O O16 0.819525 0.934218 0.500000
O O17 0.821615 0.000000 0.786406
#
# Coordination Sequence:
#
# PCOD9483992 Si02
#       7
#    16  16  16   4   8  16  16
#     4  10  21  39  60  87 119 149 188 237 276 332
#     4  10  18  30  52  78 104 141 188 231 280 335
#     4  10  20  34  52  76 110 147 183 231 286 338
#     4  12  22  36  65  88 114 157 194 220 280 350
#     4   9  16  26  45  77 109 135 181 241 280 323
#     4   9  17  33  55  77 107 146 185 228 281 333
#     4   9  19  37  62  85 108 143 186 230 281 333
#
# _framework density 20.399384000000001
#
# number of rings (size 3 to 8) (size 9 to 14) (size 15 to 20)
#    0.000    2.348    1.739    1.304    1.217    2.783 
#    1.565    1.739    0.000    9.391    0.000    0.000 
#    0.000    0.000    0.000    0.000    0.000    0.000 
#
# Total GULP energy -256118.793015 kJ/mol
# GULP energy per Si atom -5567.799848 kJ/mol
# Density = 2.035295 g / cm^3
# Si number density = 20.399384 Si / 1000 Ang^3
#
#
#
# Elastic Constant Matrix: (Units=GPa)
#
#
# Indices 1 2 3 4 5 6 
#
# 1 144.6549 39.1841 -0.8310 0.0000 0.0000 0.0000
# 2 39.1841 36.3226 6.0397 0.0000 0.0000 0.0000
# 3 -0.8310 6.0397 75.9283 0.0000 0.0000 0.0000
# 4 0.0000 0.0000 0.0000 -6.4442 0.0000 0.0000
# 5 0.0000 0.0000 0.0000 0.0000 47.9626 0.0000
# 6 0.0000 0.0000 0.0000 0.0000 0.0000 27.1437
#
#
#
# Elastic Compliance Matrix: (Units=1/GPa)
#
#
# Indices 1 2 3 4 5 6 
#
# 1 0.009836 -0.010772 0.000964 0.000000 0.000000 0.000000
# 2 -0.010772 0.039696 -0.003275 0.000000 0.000000 0.000000
# 3 0.000964 -0.003275 0.013441 0.000000 0.000000 0.000000
# 4 0.000000 0.000000 0.000000 -0.155178 0.000000 0.000000
# 5 0.000000 0.000000 0.000000 0.000000 0.020850 0.000000
# 6 0.000000 0.000000 0.000000 0.000000 0.000000 0.036841
#
#
# Mechanical properties :
#
#
# Convention : Reuss Voigt Hill
#
# Bulk Modulus (GPa) = 27.16768 38.41017 32.78892
# Shear Modulus (GPa) = 1275.01317 27.89995 651.45656
#
# Velocity S-wave (km/s) = 25.02763 3.70224 17.88978
# Velocity P-wave (km/s) = 29.12942 6.09470 21.04363
#
# Compressibility (1/GPa) = 0.03680845
#
# Stress axis : x y z
#
# Youngs Moduli (GPa) = 101.66338 25.19142 74.39687
#
# Poissons Ratio (x) = 0.27135 -0.07175
# Poissons Ratio (y) = 1.09509 0.24369
# Poissons Ratio (z) = -0.09805 0.08251
#
# Static dielectric constant tensor:
#      x y z
#    x 1.704130 0.000000 0.000000 
#    y 0.000000 1.737910 0.000000 
#    z 0.000000 0.000000 1.774130 
# 
# From -- ./inp_files/14429.got.cif
#   From: 2010.05.17/outbox.cif.g08.bks.cpg/sg65_8_cif.got.tgz:14429.got - 2010.06.03 17:01:31.
