data_PCOD9483650
_publ_section_title
;
Structure prediction by ZEFSAII (Michael W. Deem and Ramdas Pophale) SiO2 
 PCOD9483650
Probable space group: C M M M
;
_chemical_formula_sum "Si O2"
_cell_formula_units_Z 82
_cell_length_a 23.990591
_cell_length_b 22.062594
_cell_length_c 7.387538
_cell_angle_alpha 90.000000
_cell_angle_beta 90.000000
_cell_angle_gamma 90.000000
_cell_volume 3910.184481
_symmetry_space_group_name_H-M "C M M M"
_symmetry_group_IT_number 65
_symmetry_cell_setting 'orthorhombic'
loop_
_space_group_symop_operation_xyz
x,y,z
-x,-y,z
x,-y,-z
-x,y,-z
-x,-y,-z
x,y,-z
-x,y,z
x,-y,z
1/2+x,1/2+y,z
1/2-x,1/2-y,z
1/2+x,1/2-y,-z
1/2-x,1/2+y,-z
1/2-x,1/2-y,-z
1/2+x,1/2+y,-z
1/2-x,1/2+y,z
1/2+x,1/2-y,z
loop_
_atom_site_type_symbol
_atom_site_label
_atom_site_fract_x
_atom_site_fract_y
_atom_site_fract_z
Si Si1 0.395823 0.500000 0.722060
Si Si2 0.835286 0.125051 0.295898
Si Si3 0.724371 0.933440 0.782073
Si Si4 0.687122 0.756150 0.206688
Si Si5 0.000000 0.571159 0.778218
Si Si6 0.885574 0.632304 0.219411
Si Si7 0.500000 0.500000 0.000000
O O1 0.402513 0.500000 0.500000
O O2 0.363068 0.437494 0.771093
O O3 0.451408 0.500000 0.839904
O O4 0.855224 0.133282 0.500000
O O5 0.769304 0.112568 0.291963
O O6 0.841249 0.190032 0.203666
O O7 0.661541 0.917094 0.736936
O O8 0.739168 0.000000 0.716903
O O9 0.729028 0.931853 0.000000
O O10 0.750000 0.750000 0.286768
O O11 0.643359 0.805044 0.283580
O O12 0.697184 0.777291 0.000000
O O13 0.945104 0.607970 0.718079
O O14 0.000000 0.500000 0.723741
O O15 0.000000 0.570235 0.000000
O O16 0.890471 0.636642 0.000000
#
# Coordination Sequence:
#
# PCOD9483650 Si02
#       7
#     8  16  16  16   8  16   2
#     4  10  25  45  65  98 129 154 207 268 310 376
#     4  11  22  36  56  84 121 151 187 249 311 364
#     4  10  18  29  52  82 113 145 192 239 296 368
#     4  10  19  33  53  79 117 154 196 248 299 361
#     4   9  16  28  49  76 113 149 190 234 289 349
#     4   9  17  30  47  76 113 153 190 244 299 346
#     4  12  26  44  80  90 112 176 194 234 326 390
#
# _framework density 20.970877999999999
#
# number of rings (size 3 to 8) (size 9 to 14) (size 15 to 20)
#    0.000    2.049    2.927    1.317    2.732    2.732 
#    0.000    0.976    2.146    0.000    0.000    2.049 
#    0.000    4.683    0.000    0.000    0.000    0.000 
#
# Total GULP energy -228339.318045 kJ/mol
# GULP energy per Si atom -5569.251660 kJ/mol
# Density = 2.092315 g / cm^3
# Si number density = 20.970878 Si / 1000 Ang^3
#
#
#
# Elastic Constant Matrix: (Units=GPa)
#
#
# Indices 1 2 3 4 5 6 
#
# 1 154.9581 63.0476 13.4585 0.0000 0.0000 0.0000
# 2 63.0476 160.0452 9.0204 0.0000 0.0000 0.0000
# 3 13.4585 9.0204 71.1716 0.0000 0.0000 0.0000
# 4 0.0000 0.0000 0.0000 17.2437 0.0000 0.0000
# 5 0.0000 0.0000 0.0000 0.0000 25.1028 0.0000
# 6 0.0000 0.0000 0.0000 0.0000 0.0000 23.0257
#
#
#
# Elastic Compliance Matrix: (Units=1/GPa)
#
#
# Indices 1 2 3 4 5 6 
#
# 1 0.007768 -0.002999 -0.001089 0.000000 0.000000 0.000000
# 2 -0.002999 0.007451 -0.000377 0.000000 0.000000 0.000000
# 3 -0.001089 -0.000377 0.014304 0.000000 0.000000 0.000000
# 4 0.000000 0.000000 0.000000 0.057992 0.000000 0.000000
# 5 0.000000 0.000000 0.000000 0.000000 0.039836 0.000000
# 6 0.000000 0.000000 0.000000 0.000000 0.000000 0.043430
#
#
# Mechanical properties :
#
#
# Convention : Reuss Voigt Hill
#
# Bulk Modulus (GPa) = 48.55933 61.91422 55.23678
# Shear Modulus (GPa) = 26.79882 33.11767 29.95824
#
# Velocity S-wave (km/s) = 3.57866 3.97825 3.78374
# Velocity P-wave (km/s) = 6.34678 7.11969 6.74432
#
# Compressibility (1/GPa) = 0.02059336
#
# Stress axis : x y z
#
# Youngs Moduli (GPa) = 128.73290 134.21357 69.90919
#
# Poissons Ratio (x) = 0.40247 0.07612
# Poissons Ratio (y) = 0.38604 0.02637
# Poissons Ratio (z) = 0.14017 0.05064
#
# Static dielectric constant tensor:
#      x y z
#    x 1.718090 0.000000 0.000000 
#    y 0.000000 1.765000 0.000000 
#    z 0.000000 0.000000 1.810250 
# 
# From -- ./inp_files/11657.got.cif
#   From: 2010.05.17/outbox.cif.g08.bks.cpg/sg65_6_cif.got.tgz:11657.got - 2010.06.03 17:01:31.
