data_PCOD9483936
_publ_section_title
;
Structure prediction by ZEFSAII (Michael W. Deem and Ramdas Pophale) SiO2 
 PCOD9483936
Probable space group: C M M M
;
_chemical_formula_sum "Si O2"
_cell_formula_units_Z 104
_cell_length_a 30.629316
_cell_length_b 21.395734
_cell_length_c 7.803509
_cell_angle_alpha 90.000000
_cell_angle_beta 90.000000
_cell_angle_gamma 90.000000
_cell_volume 5113.925819
_symmetry_space_group_name_H-M "C M M M"
_symmetry_group_IT_number 65
_symmetry_cell_setting 'orthorhombic'
loop_
_space_group_symop_operation_xyz
x,y,z
-x,-y,z
x,-y,-z
-x,y,-z
-x,-y,-z
x,y,-z
-x,y,z
x,-y,z
1/2+x,1/2+y,z
1/2-x,1/2-y,z
1/2+x,1/2-y,-z
1/2-x,1/2+y,-z
1/2-x,1/2-y,-z
1/2+x,1/2+y,-z
1/2-x,1/2+y,z
1/2+x,1/2-y,z
loop_
_atom_site_type_symbol
_atom_site_label
_atom_site_fract_x
_atom_site_fract_y
_atom_site_fract_z
Si Si1 0.798327 0.432805 0.700197
Si Si2 0.200978 0.930153 0.195761
Si Si3 0.294940 0.288179 0.790416
Si Si4 0.452398 0.202077 0.792083
Si Si5 0.053719 0.928336 0.500000
Si Si6 0.859236 0.680805 0.793852
Si Si7 0.052028 0.848197 0.188897
O O1 0.786079 0.428791 0.500000
O O2 0.820129 0.500000 0.729379
O O3 0.753716 0.431419 0.804277
O O4 0.828917 0.376347 0.746356
O O5 0.195224 0.859483 0.270388
O O6 0.188278 0.000000 0.268643
O O7 0.184360 0.929153 0.000000
O O8 0.250000 0.250000 0.739650
O O9 0.335062 0.243972 0.737616
O O10 0.292590 0.291630 0.000000
O O11 0.500000 0.182819 0.725758
O O12 0.408250 0.171292 0.727539
O O13 0.445949 0.275931 0.759690
O O14 0.454113 0.195906 0.000000
O O15 0.070293 0.893339 0.331848
O O16 0.000000 0.924577 0.500000
O O17 0.065699 0.000000 0.500000
O O18 0.861622 0.684860 0.000000
O O19 0.000000 0.861598 0.176053
O O20 0.071563 0.855832 0.000000
#
# Coordination Sequence:
#
# PCOD9483936 Si02
#       7
#    16  16  16  16   8  16  16
#     4  10  20  32  45  67 101 131 159 198 238 285
#     4   9  16  28  47  67  92 132 172 197 230 285
#     4   9  15  25  43  71 102 123 151 201 243 277
#     4   8  15  29  49  71  93 119 156 203 252 298
#     4   9  16  24  38  64  90 114 150 191 237 299
#     4  10  18  30  51  73  96 127 160 200 249 293
#     4   8  14  26  42  60  87 118 147 190 245 292
#
# _framework density 20.336627
#
# number of rings (size 3 to 8) (size 9 to 14) (size 15 to 20)
#    0.000    3.000    1.538    1.385    0.000    1.231 
#    1.385    3.077    0.000    1.385    0.000    7.538 
#    0.000    0.000    0.000    0.000    0.000    0.000 
#
# Total GULP energy -289503.200727 kJ/mol
# GULP energy per Si atom -5567.369245 kJ/mol
# Density = 2.029034 g / cm^3
# Si number density = 20.336627 Si / 1000 Ang^3
#
#
#
# Elastic Constant Matrix: (Units=GPa)
#
#
# Indices 1 2 3 4 5 6 
#
# 1 37.4026 20.2141 -1.3038 0.0000 0.0000 0.0000
# 2 20.2141 120.8909 2.7487 0.0000 0.0000 0.0000
# 3 -1.3038 2.7487 19.8580 0.0000 0.0000 0.0000
# 4 0.0000 0.0000 0.0000 16.4725 0.0000 0.0000
# 5 0.0000 0.0000 0.0000 0.0000 -6.9319 0.0000
# 6 0.0000 0.0000 0.0000 0.0000 0.0000 7.4768
#
#
#
# Elastic Compliance Matrix: (Units=1/GPa)
#
#
# Indices 1 2 3 4 5 6 
#
# 1 0.029529 -0.004997 0.002631 0.000000 0.000000 0.000000
# 2 -0.004997 0.009144 -0.001594 0.000000 0.000000 0.000000
# 3 0.002631 -0.001594 0.050751 0.000000 0.000000 0.000000
# 4 0.000000 0.000000 0.000000 0.060707 0.000000 0.000000
# 5 0.000000 0.000000 0.000000 0.000000 -0.144262 0.000000
# 6 0.000000 0.000000 0.000000 0.000000 0.000000 0.133748
#
#
# Mechanical properties :
#
#
# Convention : Reuss Voigt Hill
#
# Bulk Modulus (GPa) = 12.26963 24.60773 18.43868
# Shear Modulus (GPa) = 28.61972 13.83633 21.22802
#
# Velocity S-wave (km/s) = 3.75547 2.61121 3.23434
# Velocity P-wave (km/s) = 4.98509 4.60627 4.79942
#
# Compressibility (1/GPa) = 0.08150207
#
# Stress axis : x y z
#
# Youngs Moduli (GPa) = 33.86554 109.36433 19.70411
#
# Poissons Ratio (x) = 0.54652 -0.05183
# Poissons Ratio (y) = 0.16924 0.03140
# Poissons Ratio (z) = -0.08908 0.17430
#
# Static dielectric constant tensor:
#      x y z
#    x 1.738610 0.000000 0.000000 
#    y 0.000000 1.739230 0.000000 
#    z 0.000000 0.000000 1.774720 
# 
# From -- ./inp_files/18631.got.cif
#   From: 2010.05.17/outbox.cif.g08.bks.cpg/sg65_10_cif.got.tgz:18631.got - 2010.06.03 17:01:31.
