data_PCOD9483490
_publ_section_title
;
Structure prediction by ZEFSAII (Michael W. Deem and Ramdas Pophale) SiO2 
 PCOD9483490
Probable space group: C M M M
;
_chemical_formula_sum "Si O2"
_cell_formula_units_Z 96
_cell_length_a 15.202968
_cell_length_b 30.815117
_cell_length_c 12.604149
_cell_angle_alpha 90.000000
_cell_angle_beta 90.000000
_cell_angle_gamma 90.000000
_cell_volume 5904.807323
_symmetry_space_group_name_H-M "C M M M"
_symmetry_group_IT_number 65
_symmetry_cell_setting 'orthorhombic'
loop_
_space_group_symop_operation_xyz
x,y,z
-x,-y,z
x,-y,-z
-x,y,-z
-x,-y,-z
x,y,-z
-x,y,z
x,-y,z
1/2+x,1/2+y,z
1/2-x,1/2-y,z
1/2+x,1/2-y,-z
1/2-x,1/2+y,-z
1/2-x,1/2-y,-z
1/2+x,1/2+y,-z
1/2-x,1/2+y,z
1/2+x,1/2-y,z
loop_
_atom_site_type_symbol
_atom_site_label
_atom_site_fract_x
_atom_site_fract_y
_atom_site_fract_z
Si Si1 0.892574 0.876910 0.500000
Si Si2 0.394069 0.453140 0.656677
Si Si3 0.210917 0.834012 0.879619
Si Si4 0.595991 0.185890 0.123379
Si Si5 0.340023 0.277882 0.500000
Si Si6 0.901900 0.227856 0.263418
Si Si7 0.104360 0.077070 0.115667
O O1 0.868654 0.908549 0.598375
O O2 0.842437 0.830997 0.500000
O O3 0.000000 0.868742 0.500000
O O4 0.500000 0.454037 0.643329
O O5 0.361088 0.500000 0.617028
O O6 0.373875 0.450053 0.780763
O O7 0.314802 0.840887 0.861731
O O8 0.170315 0.802517 0.791567
O O9 0.157783 0.878466 0.877776
O O10 0.200266 0.815452 0.000000
O O11 0.500000 0.164615 0.140059
O O12 0.601377 0.226783 0.201321
O O13 0.597201 0.200725 0.000000
O O14 0.250000 0.250000 0.500000
O O15 0.386281 0.266546 0.611545
O O16 0.000000 0.208856 0.247453
O O17 0.000000 0.086557 0.121271
O O18 0.121098 0.056889 0.000000
#
# Coordination Sequence:
#
# PCOD9483490 Si02
#       7
#     8  16  16  16   8  16  16
#     4  10  19  32  48  65  87 118 159 201 237 275
#     4   9  17  29  46  67  91 121 156 193 232 276
#     4  10  18  29  46  66  89 118 155 197 237 279
#     4   9  18  31  46  64  86 115 154 200 244 282
#     4  12  24  35  47  64  90 127 166 200 235 278
#     4  11  21  32  45  62  86 117 155 197 241 286
#     4   9  17  27  40  62  91 121 151 182 220 270
#
# _framework density 16.257940000000001
#
# number of rings (size 3 to 8) (size 9 to 14) (size 15 to 20)
#    0.000    2.167    0.000    4.500    0.000    5.667 
#    0.000    1.667    0.000    0.000    0.000    0.000 
#    0.000    0.667    0.000    7.500    0.000   28.333 
#
# Total GULP energy -267263.170156 kJ/mol
# GULP energy per Si atom -5567.982712 kJ/mol
# Density = 1.622094 g / cm^3
# Si number density = 16.257940 Si / 1000 Ang^3
#
#
#
# Elastic Constant Matrix: (Units=GPa)
#
#
# Indices 1 2 3 4 5 6 
#
# 1 58.9796 14.7803 27.7428 0.0000 0.0000 0.0000
# 2 14.7803 58.8395 24.7112 0.0000 0.0000 0.0000
# 3 27.7428 24.7112 98.1003 0.0000 0.0000 0.0000
# 4 0.0000 0.0000 0.0000 11.9339 0.0000 0.0000
# 5 0.0000 0.0000 0.0000 0.0000 18.2703 0.0000
# 6 0.0000 0.0000 0.0000 0.0000 0.0000 10.3400
#
#
#
# Elastic Compliance Matrix: (Units=1/GPa)
#
#
# Indices 1 2 3 4 5 6 
#
# 1 0.020008 -0.002963 -0.004912 0.000000 0.000000 0.000000
# 2 -0.002963 0.019445 -0.004060 0.000000 0.000000 0.000000
# 3 -0.004912 -0.004060 0.012605 0.000000 0.000000 0.000000
# 4 0.000000 0.000000 0.000000 0.083795 0.000000 0.000000
# 5 0.000000 0.000000 0.000000 0.000000 0.054734 0.000000
# 6 0.000000 0.000000 0.000000 0.000000 0.000000 0.096712
#
#
# Mechanical properties :
#
#
# Convention : Reuss Voigt Hill
#
# Bulk Modulus (GPa) = 35.47594 38.93202 37.20398
# Shear Modulus (GPa) = 15.59749 18.02120 16.80935
#
# Velocity S-wave (km/s) = 3.10074 3.33296 3.21895
# Velocity P-wave (km/s) = 5.88961 6.22976 6.06207
#
# Compressibility (1/GPa) = 0.02818812
#
# Stress axis : x y z
#
# Youngs Moduli (GPa) = 49.98003 51.42749 79.33066
#
# Poissons Ratio (x) = 0.15238 0.38966
# Poissons Ratio (y) = 0.14809 0.32209
# Poissons Ratio (z) = 0.24550 0.20880
#
# Static dielectric constant tensor:
#      x y z
#    x 1.553680 0.000000 0.000000 
#    y 0.000000 1.530450 0.000000 
#    z 0.000000 0.000000 1.599100 
# 
# From -- ./inp_files/25463.got.cif
#   From: 2010.05.17/outbox.cif.g08.bks.cpg/sg65_13_cif.got.tgz:25463.got - 2010.06.03 17:01:31.
