data_PCOD9483285
_publ_section_title
;
Structure prediction by ZEFSAII (Michael W. Deem and Ramdas Pophale) SiO2 
 PCOD9483285
Probable space group: C M M M
;
_chemical_formula_sum "Si O2"
_cell_formula_units_Z 64
_cell_length_a 8.258684
_cell_length_b 18.478648
_cell_length_c 22.040008
_cell_angle_alpha 90.000000
_cell_angle_beta 90.000000
_cell_angle_gamma 90.000000
_cell_volume 3363.510514
_symmetry_space_group_name_H-M "C M M M"
_symmetry_group_IT_number 65
_symmetry_cell_setting 'orthorhombic'
loop_
_space_group_symop_operation_xyz
x,y,z
-x,-y,z
x,-y,-z
-x,y,-z
-x,-y,-z
x,y,-z
-x,y,z
x,-y,z
1/2+x,1/2+y,z
1/2-x,1/2-y,z
1/2+x,1/2-y,-z
1/2-x,1/2+y,-z
1/2-x,1/2-y,-z
1/2+x,1/2+y,-z
1/2-x,1/2+y,z
1/2+x,1/2-y,z
loop_
_atom_site_type_symbol
_atom_site_label
_atom_site_fract_x
_atom_site_fract_y
_atom_site_fract_z
Si Si1 0.306167 0.333921 0.630810
Si Si2 0.804234 0.834057 0.500000
Si Si3 0.198156 0.583326 0.879451
Si Si4 0.695632 0.832594 0.000000
Si Si5 0.806905 0.666807 0.759856
O O1 0.500000 0.335386 0.632254
O O2 0.250000 0.250000 0.630909
O O3 0.250599 0.365021 0.565393
O O4 0.244572 0.364643 0.694449
O O5 0.750000 0.750000 0.500000
O O6 0.000000 0.835753 0.500000
O O7 0.248819 0.500000 0.882027
O O8 0.253320 0.621946 0.817663
O O9 0.000000 0.584152 0.879175
O O10 0.251253 0.626680 0.939133
O O11 0.750000 0.750000 0.000000
O O12 0.500000 0.834626 0.000000
O O13 0.750000 0.750000 0.764324
O O14 0.000000 0.667430 0.761310
#
# Coordination Sequence:
#
# PCOD9483285 Si02
#       5
#    16   8  16   8  16
#     4   9  15  24  38  58  86 117 150 186 226 272
#     4   8  14  22  34  54  81 114 147 183 225 267
#     4   9  18  32  50  71  93 121 158 193 223 262
#     4  10  19  33  55  77  97 122 152 188 228 270
#     4  10  18  28  44  66  92 120 151 189 230 272
#
# _framework density 19.027739
#
# number of rings (size 3 to 8) (size 9 to 14) (size 15 to 20)
#    0.000    2.750    0.000    4.125    0.000    2.500 
#    0.000    1.250    0.000    7.500    0.000    0.875 
#    0.000    7.000    0.000    0.000    0.000    0.000 
#
# Total GULP energy -178262.211780 kJ/mol
# GULP energy per Si atom -5570.694118 kJ/mol
# Density = 1.898443 g / cm^3
# Si number density = 19.027739 Si / 1000 Ang^3
#
#
#
# Elastic Constant Matrix: (Units=GPa)
#
#
# Indices 1 2 3 4 5 6 
#
# 1 22.5912 6.7292 24.3404 0.0000 0.0000 0.0000
# 2 6.7292 80.8301 85.5599 0.0000 0.0000 0.0000
# 3 24.3404 85.5599 259.6381 0.0000 0.0000 0.0000
# 4 0.0000 0.0000 0.0000 -4.0766 0.0000 0.0000
# 5 0.0000 0.0000 0.0000 0.0000 14.6063 0.0000
# 6 0.0000 0.0000 0.0000 0.0000 0.0000 13.1285
#
#
#
# Elastic Compliance Matrix: (Units=1/GPa)
#
#
# Indices 1 2 3 4 5 6 
#
# 1 0.049315 0.001210 -0.005022 0.000000 0.000000 0.000000
# 2 0.001210 0.019028 -0.006384 0.000000 0.000000 0.000000
# 3 -0.005022 -0.006384 0.006426 0.000000 0.000000 0.000000
# 4 0.000000 0.000000 0.000000 -0.245302 0.000000 0.000000
# 5 0.000000 0.000000 0.000000 0.000000 0.068463 0.000000
# 6 0.000000 0.000000 0.000000 0.000000 0.000000 0.076170
#
#
# Mechanical properties :
#
#
# Convention : Reuss Voigt Hill
#
# Bulk Modulus (GPa) = 18.38962 66.25760 42.32361
# Shear Modulus (GPa) = 396.23404 21.16030 208.69717
#
# Velocity S-wave (km/s) = 14.44619 3.33840 10.48421
# Velocity P-wave (km/s) = 16.96885 7.05387 12.99421
#
# Compressibility (1/GPa) = 0.05437849
#
# Stress axis : x y z
#
# Youngs Moduli (GPa) = 20.27762 52.55296 155.61609
#
# Poissons Ratio (x) = -0.06361 0.78151
# Poissons Ratio (y) = -0.02454 0.99345
# Poissons Ratio (z) = 0.10183 0.33550
#
# Static dielectric constant tensor:
#      x y z
#    x 1.671770 0.000000 0.000000 
#    y 0.000000 1.616020 0.000000 
#    z 0.000000 0.000000 1.734650 
# 
# From -- ./inp_files/59111.got.cif
#   From: 2010.05.17/outbox.cif.g08.bks.cpg/sg65_30_cif.got.tgz:59111.got - 2010.06.03 17:01:31.
