data_PCOD9483483
_publ_section_title
;
Structure prediction by ZEFSAII (Michael W. Deem and Ramdas Pophale) SiO2 
 PCOD9483483
Probable space group: C M M M
;
_chemical_formula_sum "Si O2"
_cell_formula_units_Z 104
_cell_length_a 28.971112
_cell_length_b 9.330747
_cell_length_c 29.338636
_cell_angle_alpha 90.000000
_cell_angle_beta 90.000000
_cell_angle_gamma 90.000000
_cell_volume 7930.882175
_symmetry_space_group_name_H-M "C M M M"
_symmetry_group_IT_number 65
_symmetry_cell_setting 'orthorhombic'
loop_
_space_group_symop_operation_xyz
x,y,z
-x,-y,z
x,-y,-z
-x,y,-z
-x,-y,-z
x,y,-z
-x,y,z
x,-y,z
1/2+x,1/2+y,z
1/2-x,1/2-y,z
1/2+x,1/2-y,-z
1/2-x,1/2+y,-z
1/2-x,1/2-y,-z
1/2+x,1/2+y,-z
1/2-x,1/2+y,z
1/2+x,1/2-y,z
loop_
_atom_site_type_symbol
_atom_site_label
_atom_site_fract_x
_atom_site_fract_y
_atom_site_fract_z
Si Si1 0.445871 0.670811 0.822060
Si Si2 0.387223 0.672614 0.912179
Si Si3 0.298041 0.170121 0.054377
Si Si4 0.056326 0.165063 0.640321
Si Si5 0.056088 0.333113 0.550809
Si Si6 0.556131 0.164555 0.269719
Si Si7 0.552461 0.326161 0.000000
O O1 0.500000 0.703839 0.831775
O O2 0.443429 0.500000 0.813476
O O3 0.414272 0.703577 0.865503
O O4 0.431179 0.754952 0.776801
O O5 0.379480 0.500000 0.914653
O O6 0.339617 0.756531 0.918356
O O7 0.419865 0.714372 0.954700
O O8 0.250000 0.250000 0.064408
O O9 0.294744 0.000000 0.062943
O O10 0.307029 0.189762 0.000000
O O11 0.071817 0.238757 0.593308
O O12 0.071411 0.252429 0.684908
O O13 0.000000 0.167766 0.640154
O O14 0.070466 0.000000 0.642883
O O15 0.070929 0.286676 0.500000
O O16 0.068700 0.500000 0.557048
O O17 0.000000 0.328380 0.550864
O O18 0.500000 0.164757 0.270758
O O19 0.571414 0.000000 0.269984
O O20 0.550431 0.500000 0.000000
O O21 0.500000 0.272648 0.000000
#
# Coordination Sequence:
#
# PCOD9483483 Si02
#       7
#    16  16  16  16  16  16   8
#     4   9  17  28  41  58  79 102 128 157 187 221
#     4  10  18  29  46  65  84 105 129 156 187 224
#     4  10  20  33  49  66  84 103 126 155 188 225
#     4   9  15  21  30  43  58  77 104 141 181 220
#     4   8  13  20  28  38  54  76 101 131 171 220
#     4   9  16  25  36  48  63  87 118 150 184 221
#     4   9  16  26  42  63  84 107 134 157 178 215
#
# _framework density 13.113295000000001
#
# number of rings (size 3 to 8) (size 9 to 14) (size 15 to 20)
#    0.000    2.846    0.769    2.308    0.000    7.077 
#    0.000    1.538    0.000    1.846    0.000    0.000 
#    0.000    0.000    0.000    0.000    0.000    0.000 
#
# Total GULP energy -289554.301829 kJ/mol
# GULP energy per Si atom -5568.351958 kJ/mol
# Density = 1.308345 g / cm^3
# Si number density = 13.113295 Si / 1000 Ang^3
#
#
#
# Elastic Constant Matrix: (Units=GPa)
#
#
# Indices 1 2 3 4 5 6 
#
# 1 51.2936 36.2677 39.8970 0.0000 0.0000 0.0000
# 2 36.2677 79.8626 77.7378 0.0000 0.0000 0.0000
# 3 39.8970 77.7378 135.9460 0.0000 0.0000 0.0000
# 4 0.0000 0.0000 0.0000 23.0532 0.0000 0.0000
# 5 0.0000 0.0000 0.0000 0.0000 1.4093 0.0000
# 6 0.0000 0.0000 0.0000 0.0000 0.0000 13.2113
#
#
#
# Elastic Compliance Matrix: (Units=1/GPa)
#
#
# Indices 1 2 3 4 5 6 
#
# 1 0.029008 -0.011021 -0.002211 0.000000 0.000000 0.000000
# 2 -0.011021 0.032428 -0.015309 0.000000 0.000000 0.000000
# 3 -0.002211 -0.015309 0.016759 0.000000 0.000000 0.000000
# 4 0.000000 0.000000 0.000000 0.043378 0.000000 0.000000
# 5 0.000000 0.000000 0.000000 0.000000 0.709587 0.000000
# 6 0.000000 0.000000 0.000000 0.000000 0.000000 0.075693
#
#
# Mechanical properties :
#
#
# Convention : Reuss Voigt Hill
#
# Bulk Modulus (GPa) = 47.36444 63.87857 55.62150
# Shear Modulus (GPa) = 5.14948 15.08141 10.11545
#
# Velocity S-wave (km/s) = 1.98379 3.39497 2.78040
# Velocity P-wave (km/s) = 6.43778 8.01164 7.26744
#
# Compressibility (1/GPa) = 0.02111288
#
# Stress axis : x y z
#
# Youngs Moduli (GPa) = 34.47335 30.83753 59.67034
#
# Poissons Ratio (x) = 0.33986 0.13193
# Poissons Ratio (y) = 0.37994 0.91348
# Poissons Ratio (z) = 0.07622 0.47209
#
# Static dielectric constant tensor:
#      x y z
#    x 1.389230 0.000000 0.000000 
#    y 0.000000 1.437880 0.000000 
#    z 0.000000 0.000000 1.429950 
# 
# From -- ./inp_files/75969.got.cif
#   From: 2010.05.17/outbox.cif.g08.bks.cpg/sg65_38_cif.got.tgz:75969.got - 2010.06.03 17:01:31.
