data_PCOD9483515
_publ_section_title
;
Structure prediction by ZEFSAII (Michael W. Deem and Ramdas Pophale) SiO2 
 PCOD9483515
Probable space group: C M M M
;
_chemical_formula_sum "Si O2"
_cell_formula_units_Z 120
_cell_length_a 27.622946
_cell_length_b 19.295120
_cell_length_c 14.155483
_cell_angle_alpha 90.000000
_cell_angle_beta 90.000000
_cell_angle_gamma 90.000000
_cell_volume 7544.703392
_symmetry_space_group_name_H-M "C M M M"
_symmetry_group_IT_number 65
_symmetry_cell_setting 'orthorhombic'
loop_
_space_group_symop_operation_xyz
x,y,z
-x,-y,z
x,-y,-z
-x,y,-z
-x,-y,-z
x,y,-z
-x,y,z
x,-y,z
1/2+x,1/2+y,z
1/2-x,1/2-y,z
1/2+x,1/2-y,-z
1/2-x,1/2+y,-z
1/2-x,1/2-y,-z
1/2+x,1/2+y,-z
1/2-x,1/2+y,z
1/2+x,1/2-y,z
loop_
_atom_site_type_symbol
_atom_site_label
_atom_site_fract_x
_atom_site_fract_y
_atom_site_fract_z
Si Si1 0.790679 0.697612 0.388803
Si Si2 0.000000 0.583868 0.892436
Si Si3 0.553054 0.666652 0.614410
Si Si4 0.147938 0.916714 0.389708
Si Si5 0.099613 0.690941 0.611466
Si Si6 0.693808 0.083883 0.107199
Si Si7 0.403328 0.916492 0.776909
Si Si8 0.755311 0.082665 0.721814
O O1 0.782138 0.690543 0.500000
O O2 0.750000 0.750000 0.350450
O O3 0.845801 0.720609 0.376131
O O4 0.782924 0.623311 0.342132
O O5 0.048868 0.602213 0.836930
O O6 0.000000 0.500000 0.897235
O O7 0.000000 0.610073 0.000000
O O8 0.552392 0.662939 0.500000
O O9 0.500000 0.645103 0.649066
O O10 0.598352 0.619281 0.642088
O O11 0.563841 0.746661 0.637679
O O12 0.158626 0.896423 0.500000
O O13 0.192392 0.898794 0.320848
O O14 0.142477 0.000000 0.389173
O O15 0.093791 0.674294 0.500000
O O16 0.094761 0.625276 0.679156
O O17 0.644767 0.103012 0.163360
O O18 0.740322 0.102121 0.171492
O O19 0.692868 0.000000 0.102024
O O20 0.694845 0.110437 0.000000
O O21 0.402450 0.000000 0.762601
O O22 0.749986 0.000000 0.712403
#
# Coordination Sequence:
#
# PCOD9483515 Si02
#       8
#    16   8  16  16  16  16  16  16
#     4  10  19  30  45  66  94 129 164 192 222 268
#     4   9  18  32  51  71  89 113 153 208 254 282
#     4   9  18  32  48  66  92 127 163 195 234 285
#     4   9  17  29  47  73 101 124 151 193 239 285
#     4  10  20  31  44  66  96 129 164 196 226 274
#     4   9  17  30  48  69  95 124 156 198 243 285
#     4  10  19  32  48  70  95 122 161 203 241 279
#     4  10  18  29  46  71  98 126 159 194 237 282
#
# _framework density 15.905198
#
# number of rings (size 3 to 8) (size 9 to 14) (size 15 to 20)
#    0.000    2.467    1.333    1.600    0.933    5.067 
#    0.000    2.667    0.000    1.600    0.000    0.000 
#    0.000    0.000    0.000    5.200    0.000    0.133 
#
# Total GULP energy -334150.028358 kJ/mol
# GULP energy per Si atom -5569.167139 kJ/mol
# Density = 1.586900 g / cm^3
# Si number density = 15.905198 Si / 1000 Ang^3
#
#
#
# Elastic Constant Matrix: (Units=GPa)
#
#
# Indices 1 2 3 4 5 6 
#
# 1 111.1130 27.3144 58.4619 0.0000 0.0000 0.0000
# 2 27.3144 25.0815 25.7644 0.0000 0.0000 0.0000
# 3 58.4619 25.7644 77.9847 0.0000 0.0000 0.0000
# 4 0.0000 0.0000 0.0000 6.8097 0.0000 0.0000
# 5 0.0000 0.0000 0.0000 0.0000 10.7766 0.0000
# 6 0.0000 0.0000 0.0000 0.0000 0.0000 20.5271
#
#
#
# Elastic Compliance Matrix: (Units=1/GPa)
#
#
# Indices 1 2 3 4 5 6 
#
# 1 0.015767 -0.007612 -0.009305 0.000000 0.000000 0.000000
# 2 -0.007612 0.064027 -0.015446 0.000000 0.000000 0.000000
# 3 -0.009305 -0.015446 0.024902 0.000000 0.000000 0.000000
# 4 0.000000 0.000000 0.000000 0.146849 0.000000 0.000000
# 5 0.000000 0.000000 0.000000 0.000000 0.092794 0.000000
# 6 0.000000 0.000000 0.000000 0.000000 0.000000 0.048716
#
#
# Mechanical properties :
#
#
# Convention : Reuss Voigt Hill
#
# Bulk Modulus (GPa) = 25.01985 48.58451 36.80218
# Shear Modulus (GPa) = 10.61337 14.46525 12.53931
#
# Velocity S-wave (km/s) = 2.58600 3.01901 2.81085
# Velocity P-wave (km/s) = 4.96802 6.53951 5.80717
#
# Compressibility (1/GPa) = 0.03996827
#
# Stress axis : x y z
#
# Youngs Moduli (GPa) = 63.42403 15.61844 40.15809
#
# Poissons Ratio (x) = 0.11889 0.37366
# Poissons Ratio (y) = 0.48281 0.62029
# Poissons Ratio (z) = 0.59015 0.24125
#
# Static dielectric constant tensor:
#      x y z
#    x 1.560020 0.000000 0.000000 
#    y 0.000000 1.535150 0.000000 
#    z 0.000000 0.000000 1.523260 
# 
# From -- ./inp_files/34286.got.cif
#   From: 2010.05.17/outbox.cif.g08.bks.cpg/sg65_18_cif.got.tgz:34286.got - 2010.06.03 17:01:31.
