data_PCOD9483975
_publ_section_title
;
Structure prediction by ZEFSAII (Michael W. Deem and Ramdas Pophale) SiO2 
 PCOD9483975
Probable space group: C M M M
;
_chemical_formula_sum "Si O2"
_cell_formula_units_Z 88
_cell_length_a 8.709679
_cell_length_b 18.663013
_cell_length_c 29.064179
_cell_angle_alpha 90.000000
_cell_angle_beta 90.000000
_cell_angle_gamma 90.000000
_cell_volume 4724.348942
_symmetry_space_group_name_H-M "C M M M"
_symmetry_group_IT_number 65
_symmetry_cell_setting 'orthorhombic'
loop_
_space_group_symop_operation_xyz
x,y,z
-x,-y,z
x,-y,-z
-x,y,-z
-x,-y,-z
x,y,-z
-x,y,z
x,-y,z
1/2+x,1/2+y,z
1/2-x,1/2-y,z
1/2+x,1/2-y,-z
1/2-x,1/2+y,-z
1/2-x,1/2-y,-z
1/2+x,1/2+y,-z
1/2-x,1/2+y,z
1/2+x,1/2-y,z
loop_
_atom_site_type_symbol
_atom_site_label
_atom_site_fract_x
_atom_site_fract_y
_atom_site_fract_z
Si Si1 0.684360 0.169539 0.404790
Si Si2 0.184151 0.170163 0.773326
Si Si3 0.816212 0.671048 0.052788
Si Si4 0.185067 0.416787 0.687321
Si Si5 0.314698 0.582547 0.863848
Si Si6 0.183539 0.168893 0.500000
O O1 0.500000 0.173971 0.409015
O O2 0.750000 0.250000 0.398498
O O3 0.724408 0.121902 0.360664
O O4 0.753282 0.138112 0.452145
O O5 0.250000 0.250000 0.771992
O O6 0.241119 0.125485 0.729551
O O7 0.233728 0.129759 0.820009
O O8 0.000000 0.173362 0.772838
O O9 0.750000 0.750000 0.062820
O O10 0.751914 0.615836 0.089702
O O11 0.000000 0.673735 0.055608
O O12 0.773176 0.652964 0.000000
O O13 0.231392 0.500000 0.687319
O O14 0.000000 0.413620 0.691878
O O15 0.500000 0.584918 0.866137
O O16 0.267945 0.500000 0.857851
O O17 0.250000 0.250000 0.500000
O O18 0.000000 0.170405 0.500000
#
# Coordination Sequence:
#
# PCOD9483975 Si02
#       6
#    16  16  16  16  16   8
#     4  10  19  33  54  79 108 141 180 225 271 322
#     4  11  23  39  60  85 112 144 184 229 275 326
#     4  10  21  37  58  84 113 147 189 234 278 326
#     4  10  22  39  58  82 112 146 184 226 275 330
#     4  10  22  39  58  83 115 149 185 226 276 332
#     4  10  18  30  51  78 107 139 179 225 271 320
#
# _framework density 18.626905000000001
#
# number of rings (size 3 to 8) (size 9 to 14) (size 15 to 20)
#    0.000    1.818    0.000    5.182    0.000    8.727 
#    0.000    2.273    0.000    2.727    0.000    0.000 
#    0.000    0.000    0.000    0.000    0.000    0.000 
#
# Total GULP energy -245825.463507 kJ/mol
# GULP energy per Si atom -5586.942352 kJ/mol
# Density = 1.858451 g / cm^3
# Si number density = 18.626905 Si / 1000 Ang^3
#
#
#
# Elastic Constant Matrix: (Units=GPa)
#
#
# Indices 1 2 3 4 5 6 
#
# 1 47.8894 44.5223 51.6532 0.0000 0.0000 0.0000
# 2 44.5223 151.1776 105.3386 0.0000 0.0000 0.0000
# 3 51.6532 105.3386 160.0509 0.0000 0.0000 0.0000
# 4 0.0000 0.0000 0.0000 -19.1170 0.0000 0.0000
# 5 0.0000 0.0000 0.0000 0.0000 35.4831 0.0000
# 6 0.0000 0.0000 0.0000 0.0000 0.0000 21.4143
#
#
#
# Elastic Compliance Matrix: (Units=1/GPa)
#
#
# Indices 1 2 3 4 5 6 
#
# 1 0.033483 -0.004306 -0.007972 0.000000 0.000000 0.000000
# 2 -0.004306 0.012772 -0.007016 0.000000 0.000000 0.000000
# 3 -0.007972 -0.007016 0.013438 0.000000 0.000000 0.000000
# 4 0.000000 0.000000 0.000000 -0.052309 0.000000 0.000000
# 5 0.000000 0.000000 0.000000 0.000000 0.028182 0.000000
# 6 0.000000 0.000000 0.000000 0.000000 0.000000 0.046698
#
#
# Mechanical properties :
#
#
# Convention : Reuss Voigt Hill
#
# Bulk Modulus (GPa) = 47.38180 84.68288 66.03234
# Shear Modulus (GPa) = 39.09694 18.06300 28.57997
#
# Velocity S-wave (km/s) = 4.58640 3.11742 3.92131
# Velocity P-wave (km/s) = 7.31705 7.64978 7.48526
#
# Compressibility (1/GPa) = 0.02110515
#
# Stress axis : x y z
#
# Youngs Moduli (GPa) = 29.86556 78.29908 74.41384
#
# Poissons Ratio (x) = 0.33717 0.59322
# Poissons Ratio (y) = 0.12861 0.52208
# Poissons Ratio (z) = 0.23809 0.54934
#
# Static dielectric constant tensor:
#      x y z
#    x 1.631290 0.000000 0.000000 
#    y 0.000000 1.613350 0.000000 
#    z 0.000000 0.000000 1.642100 
# 
# From -- ./inp_files/67512.got.cif
#   From: 2010.05.17/outbox.cif.g08.bks.cpg/sg65_34_cif.got.tgz:67512.got - 2010.06.03 17:01:31.
