data_PCOD9483450
_publ_section_title
;
Structure prediction by ZEFSAII (Michael W. Deem and Ramdas Pophale) SiO2 
 PCOD9483450
Probable space group: C M M M
;
_chemical_formula_sum "Si O2"
_cell_formula_units_Z 96
_cell_length_a 29.642435
_cell_length_b 26.878958
_cell_length_c 8.904278
_cell_angle_alpha 90.000000
_cell_angle_beta 90.000000
_cell_angle_gamma 90.000000
_cell_volume 7094.552642
_symmetry_space_group_name_H-M "C M M M"
_symmetry_group_IT_number 65
_symmetry_cell_setting 'orthorhombic'
loop_
_space_group_symop_operation_xyz
x,y,z
-x,-y,z
x,-y,-z
-x,y,-z
-x,-y,-z
x,y,-z
-x,y,z
x,-y,z
1/2+x,1/2+y,z
1/2-x,1/2-y,z
1/2+x,1/2-y,-z
1/2-x,1/2+y,-z
1/2-x,1/2-y,-z
1/2+x,1/2+y,-z
1/2-x,1/2+y,z
1/2+x,1/2-y,z
loop_
_atom_site_type_symbol
_atom_site_label
_atom_site_fract_x
_atom_site_fract_y
_atom_site_fract_z
Si Si1 0.643558 0.056772 0.680822
Si Si2 0.775172 0.803697 0.672949
Si Si3 0.806934 0.649318 0.178183
Si Si4 0.141208 0.743678 0.319605
Si Si5 0.948751 0.716730 0.820882
Si Si6 0.449495 0.107535 0.320754
O O1 0.648504 0.060848 0.500000
O O2 0.675168 0.097263 0.758687
O O3 0.591705 0.071463 0.716781
O O4 0.652761 0.000000 0.724612
O O5 0.775290 0.821099 0.500000
O O6 0.750000 0.750000 0.673935
O O7 0.744429 0.839273 0.772566
O O8 0.825683 0.789354 0.721861
O O9 0.837126 0.693296 0.251582
O O10 0.811600 0.651662 0.000000
O O11 0.141945 0.739326 0.500000
O O12 0.090724 0.747270 0.258744
O O13 0.944201 0.659731 0.764665
O O14 0.000000 0.732458 0.783823
O O15 0.943123 0.718264 0.000000
O O16 0.446967 0.117688 0.500000
O O17 0.500000 0.087938 0.289429
#
# Coordination Sequence:
#
# PCOD9483450 Si02
#       6
#    16  16  16  16  16  16
#     4  10  20  32  45  59  77 104 136 171 211 252
#     4   8  16  29  44  61  80 101 126 159 197 240
#     4  11  20  29  43  61  81 103 127 164 208 248
#     4  10  18  29  45  62  80 104 133 163 198 240
#     4  10  19  28  40  60  84 108 133 164 204 244
#     4   9  17  29  44  58  73  98 132 170 211 252
#
# _framework density 13.531508000000001
#
# number of rings (size 3 to 8) (size 9 to 14) (size 15 to 20)
#    0.000    2.333    1.667    3.500    0.000    5.333 
#    0.000    1.667    0.000    0.000    0.000    3.500 
#    0.000    0.000    0.000    0.000    0.000    0.833 
#
# Total GULP energy -267523.638905 kJ/mol
# GULP energy per Si atom -5573.409144 kJ/mol
# Density = 1.350071 g / cm^3
# Si number density = 13.531508 Si / 1000 Ang^3
#
#
#
# Elastic Constant Matrix: (Units=GPa)
#
#
# Indices 1 2 3 4 5 6 
#
# 1 109.0196 52.3806 47.7869 0.0000 0.0000 0.0000
# 2 52.3806 48.5062 31.4019 0.0000 0.0000 0.0000
# 3 47.7869 31.4019 49.2757 0.0000 0.0000 0.0000
# 4 0.0000 0.0000 0.0000 -27.9142 0.0000 0.0000
# 5 0.0000 0.0000 0.0000 0.0000 17.9741 0.0000
# 6 0.0000 0.0000 0.0000 0.0000 0.0000 16.9656
#
#
#
# Elastic Compliance Matrix: (Units=1/GPa)
#
#
# Indices 1 2 3 4 5 6 
#
# 1 0.021833 -0.016801 -0.010466 0.000000 0.000000 0.000000
# 2 -0.016801 0.048023 -0.014310 0.000000 0.000000 0.000000
# 3 -0.010466 -0.014310 0.039564 0.000000 0.000000 0.000000
# 4 0.000000 0.000000 0.000000 -0.035824 0.000000 0.000000
# 5 0.000000 0.000000 0.000000 0.000000 0.055636 0.000000
# 6 0.000000 0.000000 0.000000 0.000000 0.000000 0.058943
#
#
# Mechanical properties :
#
#
# Convention : Reuss Voigt Hill
#
# Bulk Modulus (GPa) = 38.07466 52.21560 45.14513
# Shear Modulus (GPa) = 17.85177 6.42056 12.13617
#
# Velocity S-wave (km/s) = 3.63612 2.18064 2.99805
# Velocity P-wave (km/s) = 6.76959 6.70911 6.73942
#
# Compressibility (1/GPa) = 0.02626419
#
# Stress axis : x y z
#
# Youngs Moduli (GPa) = 45.80274 20.82328 25.27571
#
# Poissons Ratio (x) = 0.34985 0.26454
# Poissons Ratio (y) = 0.76953 0.36171
# Poissons Ratio (z) = 0.47939 0.29799
#
# Static dielectric constant tensor:
#      x y z
#    x 1.481150 0.000000 0.000000 
#    y 0.000000 1.407740 0.000000 
#    z 0.000000 0.000000 1.448850 
# 
# From -- ./inp_files/16928.got.cif
#   From: 2010.05.17/outbox.cif.g08.bks.cpg/sg65_9_cif.got.tgz:16928.got - 2010.06.03 17:01:31.
