data_PCOD9483712
_publ_section_title
;
Structure prediction by ZEFSAII (Michael W. Deem and Ramdas Pophale) SiO2 
 PCOD9483712
Probable space group: C M M M
;
_chemical_formula_sum "Si O2"
_cell_formula_units_Z 88
_cell_length_a 28.740783
_cell_length_b 19.951830
_cell_length_c 7.782996
_cell_angle_alpha 90.000000
_cell_angle_beta 90.000000
_cell_angle_gamma 90.000000
_cell_volume 4463.012864
_symmetry_space_group_name_H-M "C M M M"
_symmetry_group_IT_number 65
_symmetry_cell_setting 'orthorhombic'
loop_
_space_group_symop_operation_xyz
x,y,z
-x,-y,z
x,-y,-z
-x,y,-z
-x,-y,-z
x,y,-z
-x,y,z
x,-y,z
1/2+x,1/2+y,z
1/2-x,1/2-y,z
1/2+x,1/2-y,-z
1/2-x,1/2+y,-z
1/2-x,1/2-y,-z
1/2+x,1/2+y,-z
1/2-x,1/2+y,z
1/2+x,1/2-y,z
loop_
_atom_site_type_symbol
_atom_site_label
_atom_site_fract_x
_atom_site_fract_y
_atom_site_fract_z
Si Si1 0.000000 0.423481 0.788884
Si Si2 0.725644 0.418794 0.802549
Si Si3 0.671670 0.076146 0.300201
Si Si4 0.086278 0.335389 0.796751
Si Si5 0.553943 0.308518 0.210366
Si Si6 0.876004 0.922796 0.789236
O O1 0.045803 0.384212 0.729722
O O2 0.000000 0.500000 0.731917
O O3 0.000000 0.424348 0.000000
O O4 0.723249 0.500000 0.801116
O O5 0.774610 0.401913 0.717544
O O6 0.675324 0.398136 0.731404
O O7 0.728786 0.396421 0.000000
O O8 0.660710 0.071255 0.500000
O O9 0.635776 0.129410 0.226114
O O10 0.667085 0.000000 0.225338
O O11 0.078587 0.260209 0.730370
O O12 0.078050 0.330284 0.000000
O O13 0.500000 0.309311 0.263486
O O14 0.583544 0.372842 0.265848
O O15 0.554087 0.309594 0.000000
O O16 0.883258 0.000000 0.736130
O O17 0.874345 0.923108 0.000000
#
# Coordination Sequence:
#
# PCOD9483712 Si02
#       6
#     8  16  16  16  16  16
#     4   9  16  26  43  65  86 114 158 201 229 263
#     4   8  14  27  47  69  93 123 158 193 231 278
#     4  10  20  32  47  69  95 122 156 200 245 284
#     4  10  18  30  47  68  94 127 162 195 233 278
#     4   9  16  27  44  68  98 128 158 194 236 280
#     4   8  14  25  44  71  99 125 155 192 234 282
#
# _framework density 19.717621999999999
#
# number of rings (size 3 to 8) (size 9 to 14) (size 15 to 20)
#    0.000    3.000    0.909    2.182    0.000    2.182 
#    0.000    3.182    0.000    8.182    0.000    0.000 
#    0.000    0.000    0.000    8.727    0.000    9.091 
#
# Total GULP energy -245184.586532 kJ/mol
# GULP energy per Si atom -5572.376967 kJ/mol
# Density = 1.967274 g / cm^3
# Si number density = 19.717622 Si / 1000 Ang^3
#
#
#
# Elastic Constant Matrix: (Units=GPa)
#
#
# Indices 1 2 3 4 5 6 
#
# 1 151.7386 93.1598 -3.0743 0.0000 0.0000 0.0000
# 2 93.1598 129.6325 3.7942 0.0000 0.0000 0.0000
# 3 -3.0743 3.7942 17.4302 0.0000 0.0000 0.0000
# 4 0.0000 0.0000 0.0000 0.9737 0.0000 0.0000
# 5 0.0000 0.0000 0.0000 0.0000 -40.9557 0.0000
# 6 0.0000 0.0000 0.0000 0.0000 0.0000 -25.5220
#
#
#
# Elastic Compliance Matrix: (Units=1/GPa)
#
#
# Indices 1 2 3 4 5 6 
#
# 1 0.012070 -0.008793 0.004043 0.000000 0.000000 0.000000
# 2 -0.008793 0.014169 -0.004635 0.000000 0.000000 0.000000
# 3 0.004043 -0.004635 0.059094 0.000000 0.000000 0.000000
# 4 0.000000 0.000000 0.000000 1.027014 0.000000 0.000000
# 5 0.000000 0.000000 0.000000 0.000000 -0.024417 0.000000
# 6 0.000000 0.000000 0.000000 0.000000 0.000000 -0.039182
#
#
# Mechanical properties :
#
#
# Convention : Reuss Voigt Hill
#
# Bulk Modulus (GPa) = 15.02336 54.06231 34.54284
# Shear Modulus (GPa) = 4.58840 0.56064 2.57452
#
# Velocity S-wave (km/s) = 1.52712 0.53381 1.14391
# Velocity P-wave (km/s) = 3.27800 5.27804 4.39335
#
# Compressibility (1/GPa) = 0.06656300
#
# Stress axis : x y z
#
# Youngs Moduli (GPa) = 82.84670 70.57844 16.92232
#
# Poissons Ratio (x) = 0.62058 -0.06842
# Poissons Ratio (y) = 0.72845 0.07844
# Poissons Ratio (z) = -0.33494 0.32713
#
# Static dielectric constant tensor:
#      x y z
#    x 1.686960 0.000000 0.000000 
#    y 0.000000 1.682730 0.000000 
#    z 0.000000 0.000000 1.718590 
# 
# From -- ./inp_files/11763.got.cif
#   From: 2010.05.17/outbox.cif.g08.bks.cpg/sg65_6_cif.got.tgz:11763.got - 2010.06.03 17:01:31.
