data_PCOD9483691
_publ_section_title
;
Structure prediction by ZEFSAII (Michael W. Deem and Ramdas Pophale) SiO2 
 PCOD9483691
Probable space group: C M M M
;
_chemical_formula_sum "Si O2"
_cell_formula_units_Z 56
_cell_length_a 27.109153
_cell_length_b 8.728701
_cell_length_c 15.838395
_cell_angle_alpha 90.000000
_cell_angle_beta 90.000000
_cell_angle_gamma 90.000000
_cell_volume 3747.802836
_symmetry_space_group_name_H-M "C M M M"
_symmetry_group_IT_number 65
_symmetry_cell_setting 'orthorhombic'
loop_
_space_group_symop_operation_xyz
x,y,z
-x,-y,z
x,-y,-z
-x,y,-z
-x,-y,-z
x,y,-z
-x,y,z
x,-y,z
1/2+x,1/2+y,z
1/2-x,1/2-y,z
1/2+x,1/2-y,-z
1/2-x,1/2+y,-z
1/2-x,1/2-y,-z
1/2+x,1/2+y,-z
1/2-x,1/2+y,z
1/2+x,1/2-y,z
loop_
_atom_site_type_symbol
_atom_site_label
_atom_site_fract_x
_atom_site_fract_y
_atom_site_fract_z
Si Si1 0.194365 0.316731 0.175880
Si Si2 0.694367 0.683738 0.000000
Si Si3 0.558092 0.500000 0.398414
Si Si4 0.304470 0.181912 0.500000
Si Si5 0.854888 0.174642 0.336961
O O1 0.197671 0.500000 0.170576
O O2 0.250000 0.250000 0.188643
O O3 0.173766 0.248052 0.087916
O O4 0.160380 0.263122 0.253123
O O5 0.750000 0.750000 0.000000
O O6 0.694851 0.500000 0.000000
O O7 0.500000 0.500000 0.383818
O O8 0.567034 0.500000 0.500000
O O9 0.587422 0.356889 0.357011
O O10 0.250000 0.250000 0.500000
O O11 0.331822 0.242333 0.582923
O O12 0.302547 0.000000 0.500000
O O13 0.834214 0.000000 0.331235
#
# Coordination Sequence:
#
# PCOD9483691 Si02
#       5
#    16   8   8   8  16
#     4  11  20  31  47  72 107 144 175 209 250 300
#     4  10  18  30  46  68 100 141 184 213 243 290
#     4   9  18  36  62  77  95 129 177 226 262 303
#     4  12  22  32  46  69 107 141 169 200 244 303
#     4  10  19  34  50  74  97 128 172 207 255 305
#
# _framework density 14.942088999999999
#
# number of rings (size 3 to 8) (size 9 to 14) (size 15 to 20)
#    0.857    0.714    1.429    8.571    0.000    0.000 
#    0.000    0.000    0.000    4.286    0.000    2.000 
#    0.000    2.286    0.000    0.000    0.000    0.000 
#
# Total GULP energy -155985.101856 kJ/mol
# GULP energy per Si atom -5570.896495 kJ/mol
# Density = 1.490808 g / cm^3
# Si number density = 14.942089 Si / 1000 Ang^3
#
#
#
# Elastic Constant Matrix: (Units=GPa)
#
#
# Indices 1 2 3 4 5 6 
#
# 1 90.6652 34.5734 54.3922 0.0000 0.0000 0.0000
# 2 34.5734 151.0405 58.8601 0.0000 0.0000 0.0000
# 3 54.3922 58.8601 155.3866 0.0000 0.0000 0.0000
# 4 0.0000 0.0000 0.0000 32.8948 0.0000 0.0000
# 5 0.0000 0.0000 0.0000 0.0000 38.2740 0.0000
# 6 0.0000 0.0000 0.0000 0.0000 0.0000 17.4213
#
#
#
# Elastic Compliance Matrix: (Units=1/GPa)
#
#
# Indices 1 2 3 4 5 6 
#
# 1 0.014263 -0.001548 -0.004407 0.000000 0.000000 0.000000
# 2 -0.001548 0.007935 -0.002464 0.000000 0.000000 0.000000
# 3 -0.004407 -0.002464 0.008911 0.000000 0.000000 0.000000
# 4 0.000000 0.000000 0.000000 0.030400 0.000000 0.000000
# 5 0.000000 0.000000 0.000000 0.000000 0.026127 0.000000
# 6 0.000000 0.000000 0.000000 0.000000 0.000000 0.057401
#
#
# Mechanical properties :
#
#
# Convention : Reuss Voigt Hill
#
# Bulk Modulus (GPa) = 70.06040 76.97152 73.51596
# Shear Modulus (GPa) = 30.00607 34.33578 32.17093
#
# Velocity S-wave (km/s) = 4.48611 4.79887 4.64512
# Velocity P-wave (km/s) = 8.59205 9.07362 8.83612
#
# Compressibility (1/GPa) = 0.01427340
#
# Stress axis : x y z
#
# Youngs Moduli (GPa) = 70.10963 126.01974 112.21517
#
# Poissons Ratio (x) = 0.19504 0.49448
# Poissons Ratio (y) = 0.10851 0.27651
# Poissons Ratio (z) = 0.30894 0.31053
#
# Static dielectric constant tensor:
#      x y z
#    x 1.474070 0.000000 0.000000 
#    y 0.000000 1.498650 0.000000 
#    z 0.000000 0.000000 1.520300 
# 
# From -- ./inp_files/46312.got.cif
#   From: 2010.05.17/outbox.cif.g08.bks.cpg/sg65_24_cif.got.tgz:46312.got - 2010.06.03 17:01:31.
