data_PCOD9483493
_publ_section_title
;
Structure prediction by ZEFSAII (Michael W. Deem and Ramdas Pophale) SiO2 
 PCOD9483493
Probable space group: C M M M
;
_chemical_formula_sum "Si O2"
_cell_formula_units_Z 104
_cell_length_a 30.054732
_cell_length_b 7.845721
_cell_length_c 24.158296
_cell_angle_alpha 90.000000
_cell_angle_beta 90.000000
_cell_angle_gamma 90.000000
_cell_volume 5696.551370
_symmetry_space_group_name_H-M "C M M M"
_symmetry_group_IT_number 65
_symmetry_cell_setting 'orthorhombic'
loop_
_space_group_symop_operation_xyz
x,y,z
-x,-y,z
x,-y,-z
-x,y,-z
-x,-y,-z
x,y,-z
-x,y,z
x,-y,z
1/2+x,1/2+y,z
1/2-x,1/2-y,z
1/2+x,1/2-y,-z
1/2-x,1/2+y,-z
1/2-x,1/2-y,-z
1/2+x,1/2+y,-z
1/2-x,1/2+y,z
1/2+x,1/2-y,z
loop_
_atom_site_type_symbol
_atom_site_label
_atom_site_fract_x
_atom_site_fract_y
_atom_site_fract_z
Si Si1 0.606201 0.706566 0.438969
Si Si2 0.299355 0.698462 0.599871
Si Si3 0.798812 0.703511 0.728704
Si Si4 0.554011 0.803079 0.000000
Si Si5 0.891907 0.291347 0.773544
Si Si6 0.050335 0.704400 0.668607
Si Si7 0.551602 0.209114 0.121091
O O1 0.591446 0.762239 0.500000
O O2 0.607259 0.500000 0.438779
O O3 0.656284 0.774201 0.427269
O O4 0.574503 0.758520 0.388989
O O5 0.301730 0.500000 0.588796
O O6 0.250000 0.750000 0.581462
O O7 0.302349 0.727880 0.665980
O O8 0.801128 0.500000 0.724060
O O9 0.750000 0.750000 0.750527
O O10 0.840929 0.762820 0.764356
O O11 0.566077 0.729256 0.940081
O O12 0.500000 0.806008 0.000000
O O13 0.569333 0.000000 0.000000
O O14 0.892205 0.500000 0.774082
O O15 0.920127 0.233744 0.720139
O O16 0.916324 0.235921 0.829506
O O17 0.048112 0.500000 0.674503
O O18 0.000000 0.771371 0.670062
O O19 0.500000 0.258047 0.131158
O O20 0.551752 0.000000 0.119537
#
# Coordination Sequence:
#
# PCOD9483493 Si02
#       7
#    16  16  16   8  16  16  16
#     4  10  22  38  52  67  90 120 151 182 223 276
#     4  10  19  32  51  71  91 115 143 179 225 274
#     4  10  18  29  46  67  91 117 146 180 223 271
#     4   7  10  16  28  50  83 120 153 181 211 255
#     4   9  16  26  42  64  89 116 147 184 225 268
#     4  10  20  34  51  70  91 116 150 191 230 266
#     4   8  12  19  33  56  87 121 152 181 217 261
#
# _framework density 18.256661000000001
#
# number of rings (size 3 to 8) (size 9 to 14) (size 15 to 20)
#    0.000    2.692    1.538    3.231    0.000    3.692 
#    0.000    1.538    0.000    0.000    0.000    0.538 
#    0.000    0.000    0.000    5.538    0.000   52.231 
#
# Total GULP energy -289878.902757 kJ/mol
# GULP energy per Si atom -5574.594284 kJ/mol
# Density = 1.821511 g / cm^3
# Si number density = 18.256661 Si / 1000 Ang^3
#
#
#
# Elastic Constant Matrix: (Units=GPa)
#
#
# Indices 1 2 3 4 5 6 
#
# 1 133.3155 -1.1652 75.5119 0.0000 0.0000 0.0000
# 2 -1.1652 11.2459 -10.6700 0.0000 0.0000 0.0000
# 3 75.5119 -10.6700 136.4623 0.0000 0.0000 0.0000
# 4 0.0000 0.0000 0.0000 -0.2207 0.0000 0.0000
# 5 0.0000 0.0000 0.0000 0.0000 27.2978 0.0000
# 6 0.0000 0.0000 0.0000 0.0000 0.0000 195.6713
#
#
#
# Elastic Compliance Matrix: (Units=1/GPa)
#
#
# Indices 1 2 3 4 5 6 
#
# 1 0.011189 -0.005093 -0.006590 0.000000 0.000000 0.000000
# 2 -0.005093 0.098364 0.010509 0.000000 0.000000 0.000000
# 3 -0.006590 0.010509 0.011796 0.000000 0.000000 0.000000
# 4 0.000000 0.000000 0.000000 -4.531091 0.000000 0.000000
# 5 0.000000 0.000000 0.000000 0.000000 0.036633 0.000000
# 6 0.000000 0.000000 0.000000 0.000000 0.000000 0.005111
#
#
# Mechanical properties :
#
#
# Convention : Reuss Voigt Hill
#
# Bulk Modulus (GPa) = 8.40316 45.37524 26.88920
# Shear Modulus (GPa) = -1.15581 59.03948 28.94184
#
# Velocity S-wave (km/s) = -0.79653 5.69287 3.98587
# Velocity P-wave (km/s) = 1.94083 8.25347 5.99527
#
# Compressibility (1/GPa) = 0.11900281
#
# Stress axis : x y z
#
# Youngs Moduli (GPa) = 89.37363 10.16630 84.77331
#
# Poissons Ratio (x) = 0.05178 0.55863
# Poissons Ratio (y) = 0.45517 -0.89090
# Poissons Ratio (z) = 0.58894 -0.10684
#
# Static dielectric constant tensor:
#      x y z
#    x 1.642490 0.000000 0.000000 
#    y 0.000000 1.666080 0.000000 
#    z 0.000000 0.000000 1.623850 
# 
# From -- ./inp_files/72189.got.cif
#   From: 2010.05.17/outbox.cif.g08.bks.cpg/sg65_37_cif.got.tgz:72189.got - 2010.06.03 17:01:31.
