data_PCOD9483525
_publ_section_title
;
Structure prediction by ZEFSAII (Michael W. Deem and Ramdas Pophale) SiO2 
 PCOD9483525
Probable space group: C M M M
;
_chemical_formula_sum "Si O2"
_cell_formula_units_Z 112
_cell_length_a 30.259428
_cell_length_b 23.842101
_cell_length_c 7.377622
_cell_angle_alpha 90.000000
_cell_angle_beta 90.000000
_cell_angle_gamma 90.000000
_cell_volume 5322.573135
_symmetry_space_group_name_H-M "C M M M"
_symmetry_group_IT_number 65
_symmetry_cell_setting 'orthorhombic'
loop_
_space_group_symop_operation_xyz
x,y,z
-x,-y,z
x,-y,-z
-x,y,-z
-x,-y,-z
x,y,-z
-x,y,z
x,-y,z
1/2+x,1/2+y,z
1/2-x,1/2-y,z
1/2+x,1/2-y,-z
1/2-x,1/2+y,-z
1/2-x,1/2-y,-z
1/2+x,1/2+y,-z
1/2-x,1/2+y,z
1/2+x,1/2-y,z
loop_
_atom_site_type_symbol
_atom_site_label
_atom_site_fract_x
_atom_site_fract_y
_atom_site_fract_z
Si Si1 0.549600 0.795560 0.211821
Si Si2 0.200119 0.765435 0.779462
Si Si3 0.948981 0.832542 0.281426
Si Si4 0.698041 0.607800 0.781196
Si Si5 0.359887 0.161484 0.221993
Si Si6 0.604621 0.560930 0.287702
Si Si7 0.794191 0.435973 0.221213
O O1 0.500000 0.800288 0.290187
O O2 0.563504 0.730061 0.221745
O O3 0.589729 0.832469 0.285666
O O4 0.546064 0.809502 0.000000
O O5 0.250000 0.750000 0.725931
O O6 0.189671 0.828403 0.719169
O O7 0.166889 0.717022 0.720814
O O8 0.199376 0.765662 0.000000
O O9 0.946995 0.831514 0.500000
O O10 0.919037 0.883538 0.212703
O O11 0.000000 0.841668 0.228066
O O12 0.657061 0.569789 0.725966
O O13 0.745931 0.586163 0.720998
O O14 0.699079 0.608280 0.000000
O O15 0.332277 0.107076 0.278537
O O16 0.360216 0.161580 0.000000
O O17 0.592744 0.559506 0.500000
O O18 0.592482 0.500000 0.210424
O O19 0.800948 0.500000 0.278372
O O20 0.793818 0.435384 0.000000
#
# Coordination Sequence:
#
# PCOD9483525 Si02
#       7
#    16  16  16  16  16  16  16
#     4   9  17  29  47  71  94 114 140 178 228 279
#     4   9  14  22  38  63  88 109 138 180 223 260
#     4   9  18  33  51  68  87 114 149 187 223 262
#     4  10  18  29  47  68  90 115 150 193 228 260
#     4   9  15  24  39  61  89 119 146 177 220 266
#     4  10  21  34  46  63  90 123 154 184 222 266
#     4   9  16  25  39  62  90 118 151 189 220 251
#
# _framework density 21.042453999999999
#
# number of rings (size 3 to 8) (size 9 to 14) (size 15 to 20)
#    0.000    2.714    1.429    1.286    0.000    2.857 
#    0.000    1.429    0.000    1.714    0.000    6.000 
#    0.000    0.000    0.000    3.571    0.000    3.714 
#
# Total GULP energy -312709.948335 kJ/mol
# GULP energy per Si atom -5584.106220 kJ/mol
# Density = 2.099456 g / cm^3
# Si number density = 21.042454 Si / 1000 Ang^3
#
#
#
# Elastic Constant Matrix: (Units=GPa)
#
#
# Indices 1 2 3 4 5 6 
#
# 1 120.2907 65.3912 -0.6797 0.0000 0.0000 0.0000
# 2 65.3912 127.0267 -0.8817 0.0000 0.0000 0.0000
# 3 -0.6797 -0.8817 74.1958 0.0000 0.0000 0.0000
# 4 0.0000 0.0000 0.0000 0.2825 0.0000 0.0000
# 5 0.0000 0.0000 0.0000 0.0000 7.0608 0.0000
# 6 0.0000 0.0000 0.0000 0.0000 0.0000 16.8667
#
#
#
# Elastic Compliance Matrix: (Units=1/GPa)
#
#
# Indices 1 2 3 4 5 6 
#
# 1 0.011544 -0.005942 0.000035 0.000000 0.000000 0.000000
# 2 -0.005942 0.010932 0.000075 0.000000 0.000000 0.000000
# 3 0.000035 0.000075 0.013479 0.000000 0.000000 0.000000
# 4 0.000000 0.000000 0.000000 3.539365 0.000000 0.000000
# 5 0.000000 0.000000 0.000000 0.000000 0.141626 0.000000
# 6 0.000000 0.000000 0.000000 0.000000 0.000000 0.059288
#
#
# Mechanical properties :
#
#
# Convention : Reuss Voigt Hill
#
# Bulk Modulus (GPa) = 41.16698 49.90809 45.53754
# Shear Modulus (GPa) = 1.31718 22.02091 11.66904
#
# Velocity S-wave (km/s) = 0.79204 3.23847 2.35744
# Velocity P-wave (km/s) = 4.52136 6.14434 5.39424
#
# Compressibility (1/GPa) = 0.02429131
#
# Stress axis : x y z
#
# Youngs Moduli (GPa) = 86.62768 91.47583 74.18913
#
# Poissons Ratio (x) = 0.54357 -0.00261
# Poissons Ratio (y) = 0.51476 -0.00560
# Poissons Ratio (z) = -0.00304 -0.00690
#
# Static dielectric constant tensor:
#      x y z
#    x 1.746530 0.000000 0.000000 
#    y 0.000000 1.732930 0.000000 
#    z 0.000000 0.000000 1.828310 
# 
# From -- ./inp_files/32932.got.cif
#   From: 2010.05.17/outbox.cif.g08.bks.cpg/sg65_17_cif.got.tgz:32932.got - 2010.06.03 17:01:31.
