data_PCOD9483689
_publ_section_title
;
Structure prediction by ZEFSAII (Michael W. Deem and Ramdas Pophale) SiO2 
 PCOD9483689
Probable space group: C M M M
;
_chemical_formula_sum "Si O2"
_cell_formula_units_Z 56
_cell_length_a 8.583649
_cell_length_b 25.001311
_cell_length_c 14.852521
_cell_angle_alpha 90.000000
_cell_angle_beta 90.000000
_cell_angle_gamma 90.000000
_cell_volume 3187.387814
_symmetry_space_group_name_H-M "C M M M"
_symmetry_group_IT_number 65
_symmetry_cell_setting 'orthorhombic'
loop_
_space_group_symop_operation_xyz
x,y,z
-x,-y,z
x,-y,-z
-x,y,-z
-x,-y,-z
x,y,-z
-x,y,z
x,-y,z
1/2+x,1/2+y,z
1/2-x,1/2-y,z
1/2+x,1/2-y,-z
1/2-x,1/2+y,-z
1/2-x,1/2-y,-z
1/2+x,1/2+y,-z
1/2-x,1/2+y,z
1/2+x,1/2-y,z
loop_
_atom_site_type_symbol
_atom_site_label
_atom_site_fract_x
_atom_site_fract_y
_atom_site_fract_z
Si Si1 0.314896 0.689970 0.189267
Si Si2 0.812639 0.415440 0.750838
Si Si3 0.310863 0.000000 0.398037
Si Si4 0.313976 0.189577 0.000000
Si Si5 0.312283 0.500000 0.894001
O O1 0.500000 0.693160 0.187127
O O2 0.250000 0.750000 0.203911
O O3 0.254145 0.644230 0.255042
O O4 0.252676 0.668294 0.092845
O O5 0.766808 0.449039 0.662367
O O6 0.749526 0.449084 0.836812
O O7 0.000000 0.413766 0.757649
O O8 0.500000 0.000000 0.401669
O O9 0.252025 0.000000 0.500000
O O10 0.250000 0.250000 0.000000
O O11 0.500000 0.188411 0.000000
O O12 0.500000 0.500000 0.891732
O O13 0.264487 0.500000 0.000000
#
# Coordination Sequence:
#
# PCOD9483689 Si02
#       5
#    16  16   8   8   8
#     4  11  21  34  51  73 106 143 182 222 263 310
#     4  10  20  34  54  80 107 137 177 220 266 319
#     4   8  16  34  60  85 106 131 168 216 270 326
#     4  10  18  30  46  67  96 135 182 220 253 296
#     4  10  21  35  50  71 104 143 181 219 261 309
#
# _framework density 17.569247000000001
#
# number of rings (size 3 to 8) (size 9 to 14) (size 15 to 20)
#    0.000    2.000    0.000    7.714    2.000    1.143 
#    0.000    0.000    0.000   16.286    0.000    0.000 
#    0.000    0.000    0.000    0.000    0.000    0.000 
#
# Total GULP energy -156132.144302 kJ/mol
# GULP energy per Si atom -5576.148011 kJ/mol
# Density = 1.752926 g / cm^3
# Si number density = 17.569247 Si / 1000 Ang^3
#
#
#
# Elastic Constant Matrix: (Units=GPa)
#
#
# Indices 1 2 3 4 5 6 
#
# 1 121.9508 50.0963 37.4716 0.0000 0.0000 0.0000
# 2 50.0963 146.7856 64.4667 0.0000 0.0000 0.0000
# 3 37.4716 64.4667 122.5180 0.0000 0.0000 0.0000
# 4 0.0000 0.0000 0.0000 10.2451 0.0000 0.0000
# 5 0.0000 0.0000 0.0000 0.0000 9.6948 0.0000
# 6 0.0000 0.0000 0.0000 0.0000 0.0000 30.0299
#
#
#
# Elastic Compliance Matrix: (Units=1/GPa)
#
#
# Indices 1 2 3 4 5 6 
#
# 1 0.009774 -0.002631 -0.001605 0.000000 0.000000 0.000000
# 2 -0.002631 0.009568 -0.004230 0.000000 0.000000 0.000000
# 3 -0.001605 -0.004230 0.010879 0.000000 0.000000 0.000000
# 4 0.000000 0.000000 0.000000 0.097608 0.000000 0.000000
# 5 0.000000 0.000000 0.000000 0.000000 0.103148 0.000000
# 6 0.000000 0.000000 0.000000 0.000000 0.000000 0.033300
#
#
# Mechanical properties :
#
#
# Convention : Reuss Voigt Hill
#
# Bulk Modulus (GPa) = 75.24916 77.25819 76.25367
# Shear Modulus (GPa) = 17.50466 25.94194 21.72330
#
# Velocity S-wave (km/s) = 3.15988 3.84676 3.52012
# Velocity P-wave (km/s) = 7.49908 7.98744 7.74711
#
# Compressibility (1/GPa) = 0.01328919
#
# Stress axis : x y z
#
# Youngs Moduli (GPa) = 102.31306 104.51151 91.92252
#
# Poissons Ratio (x) = 0.27495 0.14754
# Poissons Ratio (y) = 0.26917 0.38884
# Poissons Ratio (z) = 0.16421 0.44209
#
# Static dielectric constant tensor:
#      x y z
#    x 1.589520 0.000000 0.000000 
#    y 0.000000 1.606000 0.000000 
#    z 0.000000 0.000000 1.647310 
# 
# From -- ./inp_files/35825.got.cif
#   From: 2010.05.17/outbox.cif.g08.bks.cpg/sg65_18_cif.got.tgz:35825.got - 2010.06.03 17:01:31.
