data_PCOD9483568
_publ_section_title
;
Structure prediction by ZEFSAII (Michael W. Deem and Ramdas Pophale) SiO2 
 PCOD9483568
Probable space group: C M M M
;
_chemical_formula_sum "Si O2"
_cell_formula_units_Z 120
_cell_length_a 14.339430
_cell_length_b 22.105585
_cell_length_c 15.989341
_cell_angle_alpha 90.000000
_cell_angle_beta 90.000000
_cell_angle_gamma 90.000000
_cell_volume 5068.325114
_symmetry_space_group_name_H-M "C M M M"
_symmetry_group_IT_number 65
_symmetry_cell_setting 'orthorhombic'
loop_
_space_group_symop_operation_xyz
x,y,z
-x,-y,z
x,-y,-z
-x,y,-z
-x,-y,-z
x,y,-z
-x,y,z
x,-y,z
1/2+x,1/2+y,z
1/2-x,1/2-y,z
1/2+x,1/2-y,-z
1/2-x,1/2+y,-z
1/2-x,1/2-y,-z
1/2+x,1/2+y,-z
1/2-x,1/2+y,z
1/2+x,1/2-y,z
loop_
_atom_site_type_symbol
_atom_site_label
_atom_site_fract_x
_atom_site_fract_y
_atom_site_fract_z
Si Si1 0.852170 0.934737 0.720627
Si Si2 0.819144 0.333579 0.000000
Si Si3 0.894304 0.570983 0.121401
Si Si4 0.611690 0.731127 0.126796
Si Si5 0.853941 0.197856 0.684083
Si Si6 0.348828 0.186923 0.598492
Si Si7 0.864390 0.432639 0.317201
Si Si8 0.887700 0.092221 0.908414
O O1 0.894404 0.870283 0.692110
O O2 0.748019 0.935624 0.684359
O O3 0.846619 0.931913 0.821928
O O4 0.895306 0.000000 0.698818
O O5 0.824293 0.386771 0.072565
O O6 0.839077 0.281984 0.072933
O O7 0.879455 0.500000 0.104989
O O8 0.890796 0.579188 0.220916
O O9 0.000000 0.587332 0.093866
O O10 0.500000 0.741973 0.123349
O O11 0.642259 0.725566 0.222806
O O12 0.629767 0.664498 0.089457
O O13 0.749903 0.188600 0.648012
O O14 0.896164 0.250167 0.625910
O O15 0.333148 0.186636 0.500000
O O16 0.394100 0.124135 0.627526
O O17 0.896947 0.500000 0.341187
O O18 0.000000 0.084101 0.899933
O O19 0.861957 0.068085 0.000000
#
# Coordination Sequence:
#
# PCOD9483568 Si02
#       8
#    16   8  16  16  16  16  16  16
#     4   9  18  32  49  68  96 134 169 208 254 299
#     4  12  20  29  48  73  99 134 187 230 251 290
#     4  10  20  33  50  72 101 139 179 217 258 307
#     4  10  18  29  48  72 100 135 172 213 255 296
#     4   9  18  32  51  72 101 129 166 205 258 307
#     4  10  19  34  59  80  97 127 165 208 259 318
#     4   9  19  36  54  76 107 134 165 210 261 315
#     4   9  17  30  47  69  99 131 170 216 255 294
#
# _framework density 23.676459999999999
#
# number of rings (size 3 to 8) (size 9 to 14) (size 15 to 20)
#    0.000    2.400    0.667    3.000    0.000    1.333 
#    1.200    0.667    0.000    8.000    0.000    1.867 
#    0.000    0.000    0.000   56.933    0.000    0.000 
#
# Total GULP energy -334367.439622 kJ/mol
# GULP energy per Si atom -5572.790660 kJ/mol
# Density = 2.362257 g / cm^3
# Si number density = 23.676460 Si / 1000 Ang^3
#
#
#
# Elastic Constant Matrix: (Units=GPa)
#
#
# Indices 1 2 3 4 5 6 
#
# 1 95.9619 23.4128 8.8598 0.0000 0.0000 0.0000
# 2 23.4128 207.3241 64.8607 0.0000 0.0000 0.0000
# 3 8.8598 64.8607 100.4300 0.0000 0.0000 0.0000
# 4 0.0000 0.0000 0.0000 -86.8992 0.0000 0.0000
# 5 0.0000 0.0000 0.0000 0.0000 -2.4551 0.0000
# 6 0.0000 0.0000 0.0000 0.0000 0.0000 -14.5382
#
#
#
# Elastic Compliance Matrix: (Units=1/GPa)
#
#
# Indices 1 2 3 4 5 6 
#
# 1 0.010719 -0.001146 -0.000205 0.000000 0.000000 0.000000
# 2 -0.001146 0.006167 -0.003882 0.000000 0.000000 0.000000
# 3 -0.000205 -0.003882 0.012482 0.000000 0.000000 0.000000
# 4 0.000000 0.000000 0.000000 -0.011508 0.000000 0.000000
# 5 0.000000 0.000000 0.000000 0.000000 -0.407314 0.000000
# 6 0.000000 0.000000 0.000000 0.000000 0.000000 -0.068784
#
#
# Mechanical properties :
#
#
# Convention : Reuss Voigt Hill
#
# Bulk Modulus (GPa) = 52.90444 66.44249 59.67347
# Shear Modulus (GPa) = -11.32581 -0.33964 -5.83273
#
# Velocity S-wave (km/s) = -2.18951 -0.37916 -1.57126
# Velocity P-wave (km/s) = 4.00016 5.28507 4.68686
#
# Compressibility (1/GPa) = 0.01890200
#
# Stress axis : x y z
#
# Youngs Moduli (GPa) = 93.28854 162.14705 80.11330
#
# Poissons Ratio (x) = 0.18587 0.01645
# Poissons Ratio (y) = 0.10694 0.31099
# Poissons Ratio (z) = 0.01916 0.62943
#
# Static dielectric constant tensor:
#      x y z
#    x 2.000920 0.000000 0.000000 
#    y 0.000000 1.944570 0.000000 
#    z 0.000000 0.000000 1.857100 
# 
# From -- ./inp_files/44691.got.cif
#   From: 2010.05.17/outbox.cif.g08.bks.cpg/sg65_23_cif.got.tgz:44691.got - 2010.06.03 17:01:31.
