data_PCOD9483912
_publ_section_title
;
Structure prediction by ZEFSAII (Michael W. Deem and Ramdas Pophale) SiO2 
 PCOD9483912
Probable space group: C M M M
;
_chemical_formula_sum "Si O2"
_cell_formula_units_Z 128
_cell_length_a 20.886423
_cell_length_b 14.639575
_cell_length_c 20.310923
_cell_angle_alpha 90.000000
_cell_angle_beta 90.000000
_cell_angle_gamma 90.000000
_cell_volume 6210.437534
_symmetry_space_group_name_H-M "C M M M"
_symmetry_group_IT_number 65
_symmetry_cell_setting 'orthorhombic'
loop_
_space_group_symop_operation_xyz
x,y,z
-x,-y,z
x,-y,-z
-x,y,-z
-x,-y,-z
x,y,-z
-x,y,z
x,-y,z
1/2+x,1/2+y,z
1/2-x,1/2-y,z
1/2+x,1/2-y,-z
1/2-x,1/2+y,-z
1/2-x,1/2-y,-z
1/2+x,1/2+y,-z
1/2-x,1/2+y,z
1/2+x,1/2-y,z
loop_
_atom_site_type_symbol
_atom_site_label
_atom_site_fract_x
_atom_site_fract_y
_atom_site_fract_z
Si Si1 0.649009 0.611094 0.574154
Si Si2 0.208386 0.388830 0.383665
Si Si3 0.932766 0.365724 0.253948
Si Si4 0.927476 0.153408 0.296587
Si Si5 0.928583 0.110279 0.923681
Si Si6 0.800586 0.645553 0.771959
Si Si7 0.429898 0.103949 0.407199
Si Si8 0.668508 0.646065 0.810634
O O1 0.629182 0.635234 0.500000
O O2 0.646251 0.500000 0.580135
O O3 0.723556 0.637740 0.585259
O O4 0.604137 0.650827 0.631440
O O5 0.205462 0.500000 0.384543
O O6 0.210144 0.358279 0.307198
O O7 0.141855 0.356426 0.418336
O O8 0.931353 0.256717 0.268691
O O9 0.869932 0.397577 0.217187
O O10 0.931147 0.402379 0.328087
O O11 0.000000 0.388664 0.221914
O O12 0.877798 0.107238 0.246319
O O13 0.000000 0.116960 0.297351
O O14 0.871782 0.142403 0.877044
O O15 0.000000 0.139932 0.900788
O O16 0.928250 0.000000 0.921768
O O17 0.921094 0.137427 0.000000
O O18 0.739229 0.603954 0.807544
O O19 0.813714 0.749791 0.792833
O O20 0.500000 0.146074 0.425251
O O21 0.430080 0.000000 0.431809
#
# Coordination Sequence:
#
# PCOD9483912 Si02
#       8
#    16  16  16  16  16  16  16  16
#     4  10  21  35  49  67  94 131 175 221 268 319
#     4   9  16  29  48  68  96 133 170 213 263 317
#     4   8  15  27  44  67  96 128 161 201 248 303
#     4  10  19  31  48  69  96 131 170 213 262 313
#     4   9  19  36  56  79 111 150 186 220 261 309
#     4   9  17  28  46  73 104 136 167 209 267 311
#     4   8  13  23  43  68  88 110 146 193 249 305
#     4  10  18  30  50  76 105 134 172 218 263 313
#
# _framework density 20.610462999999999
#
# number of rings (size 3 to 8) (size 9 to 14) (size 15 to 20)
#    0.000    2.875    1.250    0.750    0.000    2.000 
#    0.000    1.875    0.000   13.875    0.000    6.125 
#    0.000    0.000    0.000    2.750    0.000    0.000 
#
# Total GULP energy -356600.428134 kJ/mol
# GULP energy per Si atom -5571.881690 kJ/mol
# Density = 2.056355 g / cm^3
# Si number density = 20.610463 Si / 1000 Ang^3
#
#
#
# Elastic Constant Matrix: (Units=GPa)
#
#
# Indices 1 2 3 4 5 6 
#
# 1 243.6871 12.5445 71.5404 0.0000 0.0000 0.0000
# 2 12.5445 54.6528 3.1065 0.0000 0.0000 0.0000
# 3 71.5404 3.1065 76.1420 0.0000 0.0000 0.0000
# 4 0.0000 0.0000 0.0000 -8.2362 0.0000 0.0000
# 5 0.0000 0.0000 0.0000 0.0000 36.9776 0.0000
# 6 0.0000 0.0000 0.0000 0.0000 0.0000 1.7518
#
#
#
# Elastic Compliance Matrix: (Units=1/GPa)
#
#
# Indices 1 2 3 4 5 6 
#
# 1 0.005722 -0.001010 -0.005335 0.000000 0.000000 0.000000
# 2 -0.001010 0.018518 0.000194 0.000000 0.000000 0.000000
# 3 -0.005335 0.000194 0.018138 0.000000 0.000000 0.000000
# 4 0.000000 0.000000 0.000000 -0.121416 0.000000 0.000000
# 5 0.000000 0.000000 0.000000 0.000000 0.027043 0.000000
# 6 0.000000 0.000000 0.000000 0.000000 0.000000 0.570849
#
#
# Mechanical properties :
#
#
# Convention : Reuss Voigt Hill
#
# Bulk Modulus (GPa) = 33.25008 60.98497 47.11752
# Shear Modulus (GPa) = 9.23903 25.25134 17.24519
#
# Velocity S-wave (km/s) = 2.11953 3.50404 2.89575
# Velocity P-wave (km/s) = 4.70718 6.78415 5.83876
#
# Compressibility (1/GPa) = 0.03007511
#
# Stress axis : x y z
#
# Youngs Moduli (GPa) = 174.77102 54.00099 55.13345
#
# Poissons Ratio (x) = 0.05455 0.29412
# Poissons Ratio (y) = 0.17654 -0.01067
# Poissons Ratio (z) = 0.93236 -0.01045
#
# Static dielectric constant tensor:
#      x y z
#    x 1.880140 0.000000 0.000000 
#    y 0.000000 2.253590 0.000000 
#    z 0.000000 0.000000 1.686280 
# 
# From -- ./inp_files/64844.got.cif
#   From: 2010.05.17/outbox.cif.g08.bks.cpg/sg65_33_cif.got.tgz:64844.got - 2010.06.03 17:01:31.
