data_PCOD9483315
_publ_section_title
;
Structure prediction by ZEFSAII (Michael W. Deem and Ramdas Pophale) SiO2 
 PCOD9483315
Probable space group: C M M M
;
_chemical_formula_sum "Si O2"
_cell_formula_units_Z 104
_cell_length_a 28.312982
_cell_length_b 7.526464
_cell_length_c 24.837112
_cell_angle_alpha 90.000000
_cell_angle_beta 90.000000
_cell_angle_gamma 90.000000
_cell_volume 5292.705108
_symmetry_space_group_name_H-M "C M M M"
_symmetry_group_IT_number 65
_symmetry_cell_setting 'orthorhombic'
loop_
_space_group_symop_operation_xyz
x,y,z
-x,-y,z
x,-y,-z
-x,y,-z
-x,-y,-z
x,y,-z
-x,y,z
x,-y,z
1/2+x,1/2+y,z
1/2-x,1/2-y,z
1/2+x,1/2-y,-z
1/2-x,1/2+y,-z
1/2-x,1/2-y,-z
1/2+x,1/2+y,-z
1/2-x,1/2+y,z
1/2+x,1/2-y,z
loop_
_atom_site_type_symbol
_atom_site_label
_atom_site_fract_x
_atom_site_fract_y
_atom_site_fract_z
Si Si1 0.403937 0.283907 0.622043
Si Si2 0.552569 0.283829 0.266731
Si Si3 0.303139 0.713114 0.644057
Si Si4 0.000000 0.783258 0.437361
Si Si5 0.391210 0.712886 0.834499
Si Si6 0.697287 0.712578 0.767918
Si Si7 0.552943 0.212385 0.060567
O O1 0.404590 0.500000 0.617354
O O2 0.413744 0.235781 0.684243
O O3 0.349840 0.225191 0.611560
O O4 0.450446 0.222775 0.589485
O O5 0.500000 0.222617 0.278633
O O6 0.551916 0.500000 0.266076
O O7 0.570139 0.223184 0.208823
O O8 0.306843 0.500000 0.646504
O O9 0.250000 0.750000 0.623844
O O10 0.306030 0.780747 0.706198
O O11 0.000000 0.737110 0.500000
O O12 0.000000 0.000000 0.432602
O O13 0.389800 0.500000 0.831113
O O14 0.341855 0.779469 0.809754
O O15 0.408206 0.751246 0.894396
O O16 0.691076 0.500000 0.763904
O O17 0.750000 0.750000 0.787144
O O18 0.500000 0.277828 0.075968
O O19 0.549908 0.000000 0.057414
O O20 0.563475 0.278068 0.000000
#
# Coordination Sequence:
#
# PCOD9483315 Si02
#       7
#    16  16  16   8  16  16  16
#     4   9  14  23  39  59  89 124 152 186 232 278
#     4   9  14  21  36  60  88 115 140 173 227 283
#     4   9  16  27  43  64  91 124 157 188 228 279
#     4   9  16  24  38  64  95 127 162 197 234 276
#     4  10  18  28  45  70  92 112 147 192 229 270
#     4   9  17  28  42  63  92 119 148 184 225 277
#     4   9  19  35  50  64  88 123 155 180 216 271
#
# _framework density 19.649687
#
# number of rings (size 3 to 8) (size 9 to 14) (size 15 to 20)
#    0.000    2.846    2.308    0.923    0.000    1.846 
#    0.000    0.769    0.000    0.923    0.000    0.538 
#    0.000    0.615    0.000    0.000    0.000    0.000 
#
# Total GULP energy -289663.565450 kJ/mol
# GULP energy per Si atom -5570.453182 kJ/mol
# Density = 1.960496 g / cm^3
# Si number density = 19.649687 Si / 1000 Ang^3
#
#
#
# Elastic Constant Matrix: (Units=GPa)
#
#
# Indices 1 2 3 4 5 6 
#
# 1 182.4095 2.3684 51.4901 0.0000 0.0000 0.0000
# 2 2.3684 46.8084 -0.3847 0.0000 0.0000 0.0000
# 3 51.4901 -0.3847 67.0224 0.0000 0.0000 0.0000
# 4 0.0000 0.0000 0.0000 -33.8210 0.0000 0.0000
# 5 0.0000 0.0000 0.0000 0.0000 10.6993 0.0000
# 6 0.0000 0.0000 0.0000 0.0000 0.0000 2.1091
#
#
#
# Elastic Compliance Matrix: (Units=1/GPa)
#
#
# Indices 1 2 3 4 5 6 
#
# 1 0.007008 -0.000399 -0.005386 0.000000 0.000000 0.000000
# 2 -0.000399 0.021387 0.000429 0.000000 0.000000 0.000000
# 3 -0.005386 0.000429 0.019061 0.000000 0.000000 0.000000
# 4 0.000000 0.000000 0.000000 -0.029567 0.000000 0.000000
# 5 0.000000 0.000000 0.000000 0.000000 0.093464 0.000000
# 6 0.000000 0.000000 0.000000 0.000000 0.000000 0.474145
#
#
# Mechanical properties :
#
#
# Convention : Reuss Voigt Hill
#
# Bulk Modulus (GPa) = 27.21498 44.79865 36.00682
# Shear Modulus (GPa) = 8.21752 11.98190 10.09971
#
# Velocity S-wave (km/s) = 2.04721 2.47204 2.26959
# Velocity P-wave (km/s) = 4.41229 5.56742 5.02317
#
# Compressibility (1/GPa) = 0.03674447
#
# Stress axis : x y z
#
# Youngs Moduli (GPa) = 142.70042 46.75649 52.46412
#
# Poissons Ratio (x) = 0.01865 0.28257
# Poissons Ratio (y) = 0.05691 -0.02252
# Poissons Ratio (z) = 0.76858 -0.02007
#
# Static dielectric constant tensor:
#      x y z
#    x 1.736100 0.000000 0.000000 
#    y 0.000000 1.763490 0.000000 
#    z 0.000000 0.000000 1.666630 
# 
# From -- ./inp_files/71862.got.cif
#   From: 2010.05.17/outbox.cif.g08.bks.cpg/sg65_36_cif.got.tgz:71862.got - 2010.06.03 17:01:31.
