data_PCOD9483050
_publ_section_title
;
Structure prediction by ZEFSAII (Michael W. Deem and Ramdas Pophale) SiO2 
 PCOD9483050
Probable space group: C M M M
;
_chemical_formula_sum "Si O2"
_cell_formula_units_Z 80
_cell_length_a 25.664293
_cell_length_b 10.128410
_cell_length_c 20.771314
_cell_angle_alpha 90.000000
_cell_angle_beta 90.000000
_cell_angle_gamma 90.000000
_cell_volume 5399.263827
_symmetry_space_group_name_H-M "C M M M"
_symmetry_group_IT_number 65
_symmetry_cell_setting 'orthorhombic'
loop_
_space_group_symop_operation_xyz
x,y,z
-x,-y,z
x,-y,-z
-x,y,-z
-x,-y,-z
x,y,-z
-x,y,z
x,-y,z
1/2+x,1/2+y,z
1/2-x,1/2-y,z
1/2+x,1/2-y,-z
1/2-x,1/2+y,-z
1/2-x,1/2-y,-z
1/2+x,1/2+y,-z
1/2-x,1/2+y,z
1/2+x,1/2-y,z
loop_
_atom_site_type_symbol
_atom_site_label
_atom_site_fract_x
_atom_site_fract_y
_atom_site_fract_z
Si Si1 0.186619 0.764192 0.138734
Si Si2 0.836160 0.500000 0.356046
Si Si3 0.860284 0.226169 0.423725
Si Si4 0.559407 0.500000 0.578211
Si Si5 0.177261 0.500000 0.206366
Si Si6 0.802781 0.000000 0.771366
Si Si7 0.699068 0.343826 0.000000
Si Si8 0.787991 0.000000 0.622809
O O1 0.250000 0.750000 0.136835
O O2 0.164372 0.627591 0.164264
O O3 0.175386 0.873154 0.192409
O O4 0.171013 0.809660 0.067216
O O5 0.857592 0.364206 0.386409
O O6 0.844041 0.500000 0.278903
O O7 0.774139 0.500000 0.371678
O O8 0.863751 0.251921 0.500000
O O9 0.908234 0.130895 0.403463
O O10 0.810219 0.131677 0.410755
O O11 0.500000 0.500000 0.600832
O O12 0.559184 0.500000 0.500000
O O13 0.240222 0.500000 0.216704
O O14 0.810167 0.000000 0.695520
O O15 0.750000 0.250000 0.000000
O O16 0.712862 0.500000 0.000000
#
# Coordination Sequence:
#
# PCOD9483050 Si02
#       8
#    16   8  16   8   8   8   8   8
#     4   9  16  24  35  47  67  90 131 175 220 254
#     4  11  20  30  42  62  91 116 147 185 225 253
#     4  10  20  31  45  66  86 111 146 183 222 266
#     4   8  16  34  54  67  83 107 136 173 222 277
#     4   9  18  27  36  50  70 106 136 170 210 252
#     4   9  15  26  37  49  67 101 140 178 209 246
#     4  10  18  24  34  50  68  90 124 180 238 261
#     4  10  19  29  43  58  85 122 155 181 216 260
#
# _framework density 14.816836
#
# number of rings (size 3 to 8) (size 9 to 14) (size 15 to 20)
#    0.000    2.500    1.000    3.000    4.200    5.600 
#    0.000    0.500    0.000    2.400    0.000    0.000 
#    0.000    0.000    0.000    0.000    0.000    0.000 
#
# Total GULP energy -222721.825860 kJ/mol
# GULP energy per Si atom -5568.045646 kJ/mol
# Density = 1.478311 g / cm^3
# Si number density = 14.816836 Si / 1000 Ang^3
#
#
#
# Elastic Constant Matrix: (Units=GPa)
#
#
# Indices 1 2 3 4 5 6 
#
# 1 43.8401 25.4120 13.8312 0.0000 0.0000 0.0000
# 2 25.4120 158.7723 65.4277 0.0000 0.0000 0.0000
# 3 13.8312 65.4277 99.3502 0.0000 0.0000 0.0000
# 4 0.0000 0.0000 0.0000 29.8455 0.0000 0.0000
# 5 0.0000 0.0000 0.0000 0.0000 0.4440 0.0000
# 6 0.0000 0.0000 0.0000 0.0000 0.0000 2.8893
#
#
#
# Elastic Compliance Matrix: (Units=1/GPa)
#
#
# Indices 1 2 3 4 5 6 
#
# 1 0.025242 -0.003557 -0.001171 0.000000 0.000000 0.000000
# 2 -0.003557 0.009146 -0.005528 0.000000 0.000000 0.000000
# 3 -0.001171 -0.005528 0.013869 0.000000 0.000000 0.000000
# 4 0.000000 0.000000 0.000000 0.033506 0.000000 0.000000
# 5 0.000000 0.000000 0.000000 0.000000 2.252104 0.000000
# 6 0.000000 0.000000 0.000000 0.000000 0.000000 0.346104
#
#
# Mechanical properties :
#
#
# Convention : Reuss Voigt Hill
#
# Bulk Modulus (GPa) = 36.04463 56.81159 46.42811
# Shear Modulus (GPa) = 1.84520 19.78854 10.81687
#
# Velocity S-wave (km/s) = 1.11716 3.65847 2.70485
# Velocity P-wave (km/s) = 5.10330 7.50145 6.41543
#
# Compressibility (1/GPa) = 0.02774339
#
# Stress axis : x y z
#
# Youngs Moduli (GPa) = 39.61693 109.34297 72.10465
#
# Poissons Ratio (x) = 0.38897 0.08446
# Poissons Ratio (y) = 0.14093 0.39857
# Poissons Ratio (z) = 0.04641 0.60441
#
# Static dielectric constant tensor:
#      x y z
#    x 1.464380 0.000000 0.000000 
#    y 0.000000 1.462340 0.000000 
#    z 0.000000 0.000000 1.506750 
# 
# From -- ./inp_files/60141.got.cif
#   From: 2010.05.17/outbox.cif.g08.bks.cpg/sg65_31_cif.got.tgz:60141.got - 2010.06.03 17:01:31.
