data_PCOD9483153
_publ_section_title
;
Structure prediction by ZEFSAII (Michael W. Deem and Ramdas Pophale) SiO2 
 PCOD9483153
Probable space group: C M M M
;
_chemical_formula_sum "Si O2"
_cell_formula_units_Z 96
_cell_length_a 8.622862
_cell_length_b 28.123813
_cell_length_c 25.102236
_cell_angle_alpha 90.000000
_cell_angle_beta 90.000000
_cell_angle_gamma 90.000000
_cell_volume 6087.486984
_symmetry_space_group_name_H-M "C M M M"
_symmetry_group_IT_number 65
_symmetry_cell_setting 'orthorhombic'
loop_
_space_group_symop_operation_xyz
x,y,z
-x,-y,z
x,-y,-z
-x,y,-z
-x,-y,-z
x,y,-z
-x,y,z
x,-y,z
1/2+x,1/2+y,z
1/2-x,1/2-y,z
1/2+x,1/2-y,-z
1/2-x,1/2+y,-z
1/2-x,1/2-y,-z
1/2+x,1/2+y,-z
1/2-x,1/2+y,z
1/2+x,1/2-y,z
loop_
_atom_site_type_symbol
_atom_site_label
_atom_site_fract_x
_atom_site_fract_y
_atom_site_fract_z
Si Si1 0.312838 0.394089 0.940696
Si Si2 0.312813 0.696102 0.557231
Si Si3 0.814552 0.354989 0.777145
Si Si4 0.687570 0.445976 0.166638
Si Si5 0.814330 0.302309 0.114315
Si Si6 0.686244 0.696179 0.674090
O O1 0.500000 0.392678 0.940179
O O2 0.264514 0.428957 0.892777
O O3 0.250781 0.341954 0.925710
O O4 0.262355 0.408227 0.000000
O O5 0.263471 0.674349 0.500000
O O6 0.500000 0.697316 0.557181
O O7 0.250000 0.750000 0.556964
O O8 0.265920 0.676849 0.615285
O O9 0.753870 0.407048 0.792977
O O10 0.768020 0.320447 0.826399
O O11 0.747858 0.335242 0.722318
O O12 0.000000 0.355376 0.774775
O O13 0.500000 0.444227 0.168841
O O14 0.736845 0.500000 0.176769
O O15 0.750000 0.250000 0.104263
O O16 0.000000 0.301864 0.111481
O O17 0.500000 0.698131 0.676360
O O18 0.750000 0.750000 0.679324
#
# Coordination Sequence:
#
# PCOD9483153 Si02
#       6
#    16  16  16  16  16  16
#     4   9  18  32  49  69  91 113 139 172 210 256
#     4   8  14  24  37  55  82 117 154 187 217 250
#     4  10  20  32  46  65  89 116 148 185 221 261
#     4   9  18  33  52  71  90 112 138 173 219 267
#     4  10  20  32  46  63  85 116 149 180 215 253
#     4  10  18  27  42  64  91 123 156 188 221 257
#
# _framework density 15.770054
#
# number of rings (size 3 to 8) (size 9 to 14) (size 15 to 20)
#    0.000    2.667    0.000    2.000    0.000    5.333 
#    0.000    1.667    0.000    0.000    0.000    4.667 
#    0.000    0.667    0.000    7.667    0.000    2.167 
#
# Total GULP energy -267407.874445 kJ/mol
# GULP energy per Si atom -5570.997384 kJ/mol
# Density = 1.573416 g / cm^3
# Si number density = 15.770054 Si / 1000 Ang^3
#
#
#
# Elastic Constant Matrix: (Units=GPa)
#
#
# Indices 1 2 3 4 5 6 
#
# 1 16.4428 14.9621 22.5918 0.0000 0.0000 0.0000
# 2 14.9621 75.6539 37.8774 0.0000 0.0000 0.0000
# 3 22.5918 37.8774 134.0523 0.0000 0.0000 0.0000
# 4 0.0000 0.0000 0.0000 -11.1115 0.0000 0.0000
# 5 0.0000 0.0000 0.0000 0.0000 17.0223 0.0000
# 6 0.0000 0.0000 0.0000 0.0000 0.0000 19.0668
#
#
#
# Elastic Compliance Matrix: (Units=1/GPa)
#
#
# Indices 1 2 3 4 5 6 
#
# 1 0.086939 -0.011483 -0.011407 0.000000 0.000000 0.000000
# 2 -0.011483 0.016913 -0.002844 0.000000 0.000000 0.000000
# 3 -0.011407 -0.002844 0.010186 0.000000 0.000000 0.000000
# 4 0.000000 0.000000 0.000000 -0.089997 0.000000 0.000000
# 5 0.000000 0.000000 0.000000 0.000000 0.058747 0.000000
# 6 0.000000 0.000000 0.000000 0.000000 0.000000 0.052447
#
#
# Mechanical properties :
#
#
# Convention : Reuss Voigt Hill
#
# Bulk Modulus (GPa) = 15.98204 41.89018 28.93611
# Shear Modulus (GPa) = 24.08959 15.04335 19.56647
#
# Velocity S-wave (km/s) = 3.91263 3.09191 3.52623
# Velocity P-wave (km/s) = 5.52883 6.27434 5.91335
#
# Compressibility (1/GPa) = 0.06257025
#
# Stress axis : x y z
#
# Youngs Moduli (GPa) = 11.50230 59.12703 98.17651
#
# Poissons Ratio (x) = 0.67894 1.11993
# Poissons Ratio (y) = 0.13208 0.27918
# Poissons Ratio (z) = 0.13121 0.16814
#
# Static dielectric constant tensor:
#      x y z
#    x 1.534100 0.000000 0.000000 
#    y 0.000000 1.488780 0.000000 
#    z 0.000000 0.000000 1.568470 
# 
# From -- ./inp_files/67830.got.cif
#   From: 2010.05.17/outbox.cif.g08.bks.cpg/sg65_34_cif.got.tgz:67830.got - 2010.06.03 17:01:31.
