data_PCOD9483230
_publ_section_title
;
Structure prediction by ZEFSAII (Michael W. Deem and Ramdas Pophale) SiO2 
 PCOD9483230
Probable space group: C M M M
;
_chemical_formula_sum "Si O2"
_cell_formula_units_Z 88
_cell_length_a 28.148741
_cell_length_b 8.582069
_cell_length_c 22.139228
_cell_angle_alpha 90.000000
_cell_angle_beta 90.000000
_cell_angle_gamma 90.000000
_cell_volume 5348.271551
_symmetry_space_group_name_H-M "C M M M"
_symmetry_group_IT_number 65
_symmetry_cell_setting 'orthorhombic'
loop_
_space_group_symop_operation_xyz
x,y,z
-x,-y,z
x,-y,-z
-x,y,-z
-x,-y,-z
x,y,-z
-x,y,z
x,-y,z
1/2+x,1/2+y,z
1/2-x,1/2-y,z
1/2+x,1/2-y,-z
1/2-x,1/2+y,-z
1/2-x,1/2-y,-z
1/2+x,1/2+y,-z
1/2-x,1/2+y,z
1/2+x,1/2-y,z
loop_
_atom_site_type_symbol
_atom_site_label
_atom_site_fract_x
_atom_site_fract_y
_atom_site_fract_z
Si Si1 0.605405 0.311848 0.432851
Si Si2 0.446336 0.688257 0.311237
Si Si3 0.196166 0.687457 0.873698
Si Si4 0.354939 0.187643 0.751111
Si Si5 0.195935 0.814091 0.000000
Si Si6 0.697661 0.186645 0.628652
O O1 0.591047 0.261044 0.500000
O O2 0.606241 0.500000 0.432128
O O3 0.571159 0.261312 0.378167
O O4 0.657852 0.251318 0.416598
O O5 0.500000 0.741029 0.299345
O O6 0.445821 0.500000 0.310279
O O7 0.406789 0.748312 0.264939
O O8 0.197962 0.500000 0.876313
O O9 0.250000 0.750000 0.867092
O O10 0.166095 0.737209 0.815343
O O11 0.175611 0.751186 0.936935
O O12 0.320280 0.235156 0.695812
O O13 0.356876 0.000000 0.750802
O O14 0.250000 0.750000 0.000000
O O15 0.196582 0.000000 0.000000
O O16 0.750000 0.250000 0.616809
O O17 0.697988 0.000000 0.625956
#
# Coordination Sequence:
#
# PCOD9483230 Si02
#       6
#    16  16  16  16   8  16
#     4   9  18  32  48  66  89 117 149 184 224 272
#     4   9  18  32  50  71  92 114 144 186 233 277
#     4  10  18  29  45  67  96 128 160 190 222 260
#     4   9  19  32  47  68  92 120 153 188 226 270
#     4  10  18  28  42  64  95 130 163 190 220 257
#     4  10  19  31  46  65  90 119 152 188 225 266
#
# _framework density 16.453914999999999
#
# number of rings (size 3 to 8) (size 9 to 14) (size 15 to 20)
#    0.000    2.545    0.000    3.545    0.000    3.636 
#    0.000    1.818    0.000    0.000    0.000    5.727 
#    0.000    5.091    0.000    0.000    0.000    0.000 
#
# Total GULP energy -245325.116127 kJ/mol
# GULP energy per Si atom -5575.570821 kJ/mol
# Density = 1.641647 g / cm^3
# Si number density = 16.453915 Si / 1000 Ang^3
#
#
#
# Elastic Constant Matrix: (Units=GPa)
#
#
# Indices 1 2 3 4 5 6 
#
# 1 83.9373 10.2484 34.8978 0.0000 0.0000 0.0000
# 2 10.2484 27.0528 23.3832 0.0000 0.0000 0.0000
# 3 34.8978 23.3832 121.8275 0.0000 0.0000 0.0000
# 4 0.0000 0.0000 0.0000 21.1058 0.0000 0.0000
# 5 0.0000 0.0000 0.0000 0.0000 12.3003 0.0000
# 6 0.0000 0.0000 0.0000 0.0000 0.0000 22.0469
#
#
#
# Elastic Compliance Matrix: (Units=1/GPa)
#
#
# Indices 1 2 3 4 5 6 
#
# 1 0.013627 -0.002144 -0.003492 0.000000 0.000000 0.000000
# 2 -0.002144 0.044654 -0.007957 0.000000 0.000000 0.000000
# 3 -0.003492 -0.007957 0.010736 0.000000 0.000000 0.000000
# 4 0.000000 0.000000 0.000000 0.047380 0.000000 0.000000
# 5 0.000000 0.000000 0.000000 0.000000 0.081299 0.000000
# 6 0.000000 0.000000 0.000000 0.000000 0.000000 0.045358
#
#
# Mechanical properties :
#
#
# Convention : Reuss Voigt Hill
#
# Bulk Modulus (GPa) = 23.90519 41.09737 32.50128
# Shear Modulus (GPa) = 17.59424 22.04315 19.81869
#
# Velocity S-wave (km/s) = 3.27357 3.66415 3.47435
# Velocity P-wave (km/s) = 5.37108 6.55231 5.99088
#
# Compressibility (1/GPa) = 0.04183192
#
# Stress axis : x y z
#
# Youngs Moduli (GPa) = 73.38211 22.39425 93.14624
#
# Poissons Ratio (x) = 0.04801 0.32527
# Poissons Ratio (y) = 0.15734 0.74113
# Poissons Ratio (z) = 0.25625 0.17818
#
# Static dielectric constant tensor:
#      x y z
#    x 1.526250 0.000000 0.000000 
#    y 0.000000 1.557780 0.000000 
#    z 0.000000 0.000000 1.579490 
# 
# From -- ./inp_files/65752.got.cif
#   From: 2010.05.17/outbox.cif.g08.bks.cpg/sg65_33_cif.got.tgz:65752.got - 2010.06.03 17:01:31.
