data_PCOD9483255
_publ_section_title
;
Structure prediction by ZEFSAII (Michael W. Deem and Ramdas Pophale) SiO2 
 PCOD9483255
Probable space group: C M M M
;
_chemical_formula_sum "Si O2"
_cell_formula_units_Z 96
_cell_length_a 28.761245
_cell_length_b 22.458971
_cell_length_c 7.607032
_cell_angle_alpha 90.000000
_cell_angle_beta 90.000000
_cell_angle_gamma 90.000000
_cell_volume 4913.746858
_symmetry_space_group_name_H-M "C M M M"
_symmetry_group_IT_number 65
_symmetry_cell_setting 'orthorhombic'
loop_
_space_group_symop_operation_xyz
x,y,z
-x,-y,z
x,-y,-z
-x,y,-z
-x,-y,-z
x,y,-z
-x,y,z
x,-y,z
1/2+x,1/2+y,z
1/2-x,1/2-y,z
1/2+x,1/2-y,-z
1/2-x,1/2+y,-z
1/2-x,1/2-y,-z
1/2+x,1/2+y,-z
1/2-x,1/2+y,z
1/2+x,1/2-y,z
loop_
_atom_site_type_symbol
_atom_site_label
_atom_site_fract_x
_atom_site_fract_y
_atom_site_fract_z
Si Si1 0.447304 0.249447 0.715218
Si Si2 0.229335 0.120783 0.793454
Si Si3 0.639184 0.319370 0.698059
Si Si4 0.807339 0.296830 0.203910
Si Si5 0.776712 0.500000 0.213881
Si Si6 0.886479 0.500000 0.707546
Si Si7 0.394930 0.869913 0.286023
O O1 0.445898 0.250748 0.500000
O O2 0.500000 0.259866 0.770704
O O3 0.409750 0.298198 0.779106
O O4 0.429598 0.183362 0.766017
O O5 0.174732 0.132787 0.775496
O O6 0.259513 0.176531 0.723514
O O7 0.249492 0.058952 0.723370
O O8 0.240226 0.121026 0.000000
O O9 0.629854 0.338570 0.500000
O O10 0.668455 0.257751 0.699593
O O11 0.844465 0.350414 0.216198
O O12 0.802253 0.277790 0.000000
O O13 0.830479 0.500000 0.269863
O O14 0.776213 0.500000 0.000000
O O15 0.896597 0.500000 0.500000
O O16 0.905222 0.563189 0.776098
O O17 0.392707 0.870036 0.500000
#
# Coordination Sequence:
#
# PCOD9483255 Si02
#       7
#    16  16  16  16   8   8  16
#     4   8  15  30  49  67  89 118 152 192 239 287
#     4  10  20  32  46  66  94 125 158 188 220 268
#     4  10  20  31  47  70  94 119 150 191 238 281
#     4  10  18  29  46  66  92 125 158 190 224 271
#     4  10  20  34  48  65  92 132 168 187 214 265
#     4  10  18  28  43  66  96 125 159 198 232 264
#     4   9  17  28  44  67  93 123 158 197 235 271
#
# _framework density 19.537026000000001
#
# number of rings (size 3 to 8) (size 9 to 14) (size 15 to 20)
#    0.000    2.500    1.667    2.500    0.000    4.000 
#    0.000    0.417    0.000   15.000    0.000    0.583 
#    0.000   10.667    0.000    0.000    0.000    0.000 
#
# Total GULP energy -267620.537592 kJ/mol
# GULP energy per Si atom -5575.427867 kJ/mol
# Density = 1.949256 g / cm^3
# Si number density = 19.537026 Si / 1000 Ang^3
#
#
#
# Elastic Constant Matrix: (Units=GPa)
#
#
# Indices 1 2 3 4 5 6 
#
# 1 120.1024 12.5210 -3.3542 0.0000 0.0000 0.0000
# 2 12.5210 26.3386 -4.2757 0.0000 0.0000 0.0000
# 3 -3.3542 -4.2757 41.5291 0.0000 0.0000 0.0000
# 4 0.0000 0.0000 0.0000 9.4738 0.0000 0.0000
# 5 0.0000 0.0000 0.0000 0.0000 19.4429 0.0000
# 6 0.0000 0.0000 0.0000 0.0000 0.0000 20.6496
#
#
#
# Elastic Compliance Matrix: (Units=1/GPa)
#
#
# Indices 1 2 3 4 5 6 
#
# 1 0.008764 -0.004120 0.000284 0.000000 0.000000 0.000000
# 2 -0.004120 0.040549 0.003842 0.000000 0.000000 0.000000
# 3 0.000284 0.003842 0.024498 0.000000 0.000000 0.000000
# 4 0.000000 0.000000 0.000000 0.105554 0.000000 0.000000
# 5 0.000000 0.000000 0.000000 0.000000 0.051433 0.000000
# 6 0.000000 0.000000 0.000000 0.000000 0.000000 0.048427
#
#
# Mechanical properties :
#
#
# Convention : Reuss Voigt Hill
#
# Bulk Modulus (GPa) = 13.54604 21.97247 17.75926
# Shear Modulus (GPa) = 16.45707 22.11854 19.28781
#
# Velocity S-wave (km/s) = 2.90548 3.36837 3.14545
# Velocity P-wave (km/s) = 4.26665 5.13798 4.72246
#
# Compressibility (1/GPa) = 0.07382232
#
# Stress axis : x y z
#
# Youngs Moduli (GPa) = 114.10740 24.66131 40.81967
#
# Poissons Ratio (x) = 0.10161 -0.01158
# Poissons Ratio (y) = 0.47013 -0.15683
# Poissons Ratio (z) = -0.03236 -0.09475
#
# Static dielectric constant tensor:
#      x y z
#    x 1.690190 0.000000 0.000000 
#    y 0.000000 1.713640 0.000000 
#    z 0.000000 0.000000 1.727890 
# 
# From -- ./inp_files/16706.got.cif
#   From: 2010.05.17/outbox.cif.g08.bks.cpg/sg65_9_cif.got.tgz:16706.got - 2010.06.03 17:01:31.
