data_PCOD9483958
_publ_section_title
;
Structure prediction by ZEFSAII (Michael W. Deem and Ramdas Pophale) SiO2 
 PCOD9483958
Probable space group: C M M M
;
_chemical_formula_sum "Si O2"
_cell_formula_units_Z 104
_cell_length_a 29.668987
_cell_length_b 9.099383
_cell_length_c 23.391016
_cell_angle_alpha 90.000000
_cell_angle_beta 90.000000
_cell_angle_gamma 90.000000
_cell_volume 6314.860331
_symmetry_space_group_name_H-M "C M M M"
_symmetry_group_IT_number 65
_symmetry_cell_setting 'orthorhombic'
loop_
_space_group_symop_operation_xyz
x,y,z
-x,-y,z
x,-y,-z
-x,y,-z
-x,-y,-z
x,y,-z
-x,y,z
x,-y,z
1/2+x,1/2+y,z
1/2-x,1/2-y,z
1/2+x,1/2-y,-z
1/2-x,1/2+y,-z
1/2-x,1/2-y,-z
1/2+x,1/2+y,-z
1/2-x,1/2+y,z
1/2+x,1/2-y,z
loop_
_atom_site_type_symbol
_atom_site_label
_atom_site_fract_x
_atom_site_fract_y
_atom_site_fract_z
Si Si1 0.448300 0.678565 0.500000
Si Si2 0.388118 0.675587 0.933389
Si Si3 0.054010 0.669843 0.161471
Si Si4 0.202352 0.675120 0.568225
Si Si5 0.888072 0.177539 0.608971
Si Si6 0.794816 0.331983 0.930579
Si Si7 0.552640 0.323880 0.280703
O O1 0.450085 0.500000 0.500000
O O2 0.500000 0.731027 0.500000
O O3 0.420417 0.721542 0.556153
O O4 0.387013 0.500000 0.929353
O O5 0.424216 0.743106 0.890717
O O6 0.339689 0.742433 0.916852
O O7 0.396881 0.714603 0.000000
O O8 0.068357 0.500000 0.160001
O O9 0.065489 0.743106 0.222225
O O10 0.000000 0.675423 0.156627
O O11 0.195484 0.701568 0.500000
O O12 0.204526 0.500000 0.577142
O O13 0.250000 0.750000 0.583699
O O14 0.160045 0.745811 0.600804
O O15 0.914409 0.214115 0.667219
O O16 0.882338 0.000000 0.606656
O O17 0.797085 0.500000 0.910595
O O18 0.750000 0.250000 0.910081
O O19 0.792404 0.335834 0.000000
O O20 0.500000 0.288759 0.294280
O O21 0.554809 0.500000 0.272153
#
# Coordination Sequence:
#
# PCOD9483958 Si02
#       7
#     8  16  16  16  16  16  16
#     4   9  16  26  44  73 106 135 164 201 244 291
#     4  10  20  33  51  76 104 133 167 210 260 310
#     4  10  21  36  53  73  99 134 174 214 257 306
#     4  10  20  33  50  72 101 135 173 214 257 305
#     4  10  18  30  51  77 104 134 169 209 253 298
#     4   9  16  27  45  70 101 134 166 200 240 291
#     4   9  18  33  53  76 101 133 173 211 248 299
#
# _framework density 16.469090000000001
#
# number of rings (size 3 to 8) (size 9 to 14) (size 15 to 20)
#    0.000    2.385    0.769    2.308    0.000    7.077 
#    0.000    1.538    0.000    2.769    0.000    2.154 
#    0.000    0.000    0.000    0.000    0.000    0.000 
#
# Total GULP energy -290009.478275 kJ/mol
# GULP energy per Si atom -5577.105351 kJ/mol
# Density = 1.643161 g / cm^3
# Si number density = 16.469090 Si / 1000 Ang^3
#
#
#
# Elastic Constant Matrix: (Units=GPa)
#
#
# Indices 1 2 3 4 5 6 
#
# 1 105.0082 54.5592 66.5824 0.0000 0.0000 0.0000
# 2 54.5592 74.5155 58.5808 0.0000 0.0000 0.0000
# 3 66.5824 58.5808 97.6786 0.0000 0.0000 0.0000
# 4 0.0000 0.0000 0.0000 18.9566 0.0000 0.0000
# 5 0.0000 0.0000 0.0000 0.0000 6.9131 0.0000
# 6 0.0000 0.0000 0.0000 0.0000 0.0000 31.0964
#
#
#
# Elastic Compliance Matrix: (Units=1/GPa)
#
#
# Indices 1 2 3 4 5 6 
#
# 1 0.018454 -0.006854 -0.008468 0.000000 0.000000 0.000000
# 2 -0.006854 0.027938 -0.012083 0.000000 0.000000 0.000000
# 3 -0.008468 -0.012083 0.023257 0.000000 0.000000 0.000000
# 4 0.000000 0.000000 0.000000 0.052752 0.000000 0.000000
# 5 0.000000 0.000000 0.000000 0.000000 0.144654 0.000000
# 6 0.000000 0.000000 0.000000 0.000000 0.000000 0.032158
#
#
# Mechanical properties :
#
#
# Convention : Reuss Voigt Hill
#
# Bulk Modulus (GPa) = 67.39839 70.73856 69.06847
# Shear Modulus (GPa) = 13.92881 17.89187 15.91034
#
# Velocity S-wave (km/s) = 2.91134 3.29962 3.11154
# Velocity P-wave (km/s) = 7.23286 7.58698 7.41203
#
# Compressibility (1/GPa) = 0.01483715
#
# Stress axis : x y z
#
# Youngs Moduli (GPa) = 54.18936 35.79409 42.99871
#
# Poissons Ratio (x) = 0.24534 0.36413
# Poissons Ratio (y) = 0.37142 0.51955
# Poissons Ratio (z) = 0.45889 0.43249
#
# Static dielectric constant tensor:
#      x y z
#    x 1.540460 0.000000 0.000000 
#    y 0.000000 1.551590 0.000000 
#    z 0.000000 0.000000 1.529620 
# 
# From -- ./inp_files/71786.got.cif
#   From: 2010.05.17/outbox.cif.g08.bks.cpg/sg65_36_cif.got.tgz:71786.got - 2010.06.03 17:01:31.
