data_PCOD9483579
_publ_section_title
;
Structure prediction by ZEFSAII (Michael W. Deem and Ramdas Pophale) SiO2 
 PCOD9483579
Probable space group: C M M M
;
_chemical_formula_sum "Si O2"
_cell_formula_units_Z 88
_cell_length_a 7.596971
_cell_length_b 28.436998
_cell_length_c 18.960555
_cell_angle_alpha 90.000000
_cell_angle_beta 90.000000
_cell_angle_gamma 90.000000
_cell_volume 4096.144431
_symmetry_space_group_name_H-M "C M M M"
_symmetry_group_IT_number 65
_symmetry_cell_setting 'orthorhombic'
loop_
_space_group_symop_operation_xyz
x,y,z
-x,-y,z
x,-y,-z
-x,y,-z
-x,-y,-z
x,y,-z
-x,y,z
x,-y,z
1/2+x,1/2+y,z
1/2-x,1/2-y,z
1/2+x,1/2-y,-z
1/2-x,1/2+y,-z
1/2-x,1/2-y,-z
1/2+x,1/2+y,-z
1/2-x,1/2+y,z
1/2+x,1/2-y,z
loop_
_atom_site_type_symbol
_atom_site_label
_atom_site_fract_x
_atom_site_fract_y
_atom_site_fract_z
Si Si1 0.209144 0.379506 0.420772
Si Si2 0.288244 0.447081 0.303004
Si Si3 0.785424 0.000000 0.918916
Si Si4 0.210508 0.301947 0.311553
Si Si5 0.216476 0.904227 0.841190
Si Si6 0.697182 0.696851 0.148326
O O1 0.280831 0.378722 0.500000
O O2 0.236855 0.427864 0.379101
O O3 0.278805 0.339936 0.367181
O O4 0.000000 0.371344 0.425520
O O5 0.500000 0.447804 0.299386
O O6 0.225308 0.500000 0.290287
O O7 0.227361 0.413007 0.239949
O O8 0.729584 0.048615 0.882156
O O9 0.000000 0.000000 0.915307
O O10 0.732598 0.000000 0.000000
O O11 0.250000 0.250000 0.339693
O O12 0.295164 0.304334 0.233968
O O13 0.000000 0.307189 0.301688
O O14 0.282391 0.853815 0.869996
O O15 0.000000 0.902870 0.842102
O O16 0.500000 0.693178 0.121848
O O17 0.750000 0.750000 0.128225
#
# Coordination Sequence:
#
# PCOD9483579 Si02
#       6
#    16  16   8  16  16  16
#     4  10  22  37  49  65  95 131 167 211 259 307
#     4  10  19  33  53  73  96 126 165 210 257 305
#     4   9  16  28  50  82 114 139 164 200 251 305
#     4  10  19  31  48  69  94 124 164 209 257 305
#     4   9  16  28  48  75 105 135 164 205 254 295
#     4  10  18  29  48  73 103 134 168 210 255 297
#
# _framework density 21.483618
#
# number of rings (size 3 to 8) (size 9 to 14) (size 15 to 20)
#    0.000    2.273    2.727    2.182    0.000    2.182 
#    0.000    1.818    0.000    0.545    0.000    0.000 
#    0.000   12.364    0.000    0.000    0.000    0.727 
#
# Total GULP energy -245337.496094 kJ/mol
# GULP energy per Si atom -5575.852184 kJ/mol
# Density = 2.143472 g / cm^3
# Si number density = 21.483618 Si / 1000 Ang^3
#
#
#
# Elastic Constant Matrix: (Units=GPa)
#
#
# Indices 1 2 3 4 5 6 
#
# 1 43.8480 -4.7272 -9.7572 0.0000 0.0000 0.0000
# 2 -4.7272 176.2477 21.2279 0.0000 0.0000 0.0000
# 3 -9.7572 21.2279 47.8926 0.0000 0.0000 0.0000
# 4 0.0000 0.0000 0.0000 11.7983 0.0000 0.0000
# 5 0.0000 0.0000 0.0000 0.0000 -2.1063 0.0000
# 6 0.0000 0.0000 0.0000 0.0000 0.0000 17.9751
#
#
#
# Elastic Compliance Matrix: (Units=1/GPa)
#
#
# Indices 1 2 3 4 5 6 
#
# 1 0.023890 0.000058 0.004842 0.000000 0.000000 0.000000
# 2 0.000058 0.005994 -0.002645 0.000000 0.000000 0.000000
# 3 0.004842 -0.002645 0.023039 0.000000 0.000000 0.000000
# 4 0.000000 0.000000 0.000000 0.084758 0.000000 0.000000
# 5 0.000000 0.000000 0.000000 0.000000 -0.474773 0.000000
# 6 0.000000 0.000000 0.000000 0.000000 0.000000 0.055633
#
#
# Mechanical properties :
#
#
# Convention : Reuss Voigt Hill
#
# Bulk Modulus (GPa) = 17.41232 31.27503 24.34368
# Shear Modulus (GPa) = -18.73890 22.94975 2.10542
#
# Velocity S-wave (km/s) = -2.95658 3.27195 0.99103
# Velocity P-wave (km/s) = 1.87952 5.37247 3.55885
#
# Compressibility (1/GPa) = 0.05743059
#
# Stress axis : x y z
#
# Youngs Moduli (GPa) = 41.85917 166.83486 43.40511
#
# Poissons Ratio (x) = -0.00961 -0.21015
# Poissons Ratio (y) = -0.00241 0.11481
# Poissons Ratio (z) = -0.20266 0.44128
#
# Static dielectric constant tensor:
#      x y z
#    x 1.655080 0.000000 0.000000 
#    y 0.000000 1.830540 0.000000 
#    z 0.000000 0.000000 1.744860 
# 
# From -- ./inp_files/50380.got.cif
#   From: 2010.05.17/outbox.cif.g08.bks.cpg/sg65_26_cif.got.tgz:50380.got - 2010.06.03 17:01:31.
