data_PCOD9483538
_publ_section_title
;
Structure prediction by ZEFSAII (Michael W. Deem and Ramdas Pophale) SiO2 
 PCOD9483538
Probable space group: C M M M
;
_chemical_formula_sum "Si O2"
_cell_formula_units_Z 104
_cell_length_a 24.538747
_cell_length_b 28.862937
_cell_length_c 9.185495
_cell_angle_alpha 90.000000
_cell_angle_beta 90.000000
_cell_angle_gamma 90.000000
_cell_volume 6505.721524
_symmetry_space_group_name_H-M "C M M M"
_symmetry_group_IT_number 65
_symmetry_cell_setting 'orthorhombic'
loop_
_space_group_symop_operation_xyz
x,y,z
-x,-y,z
x,-y,-z
-x,y,-z
-x,-y,-z
x,y,-z
-x,y,z
x,-y,z
1/2+x,1/2+y,z
1/2-x,1/2-y,z
1/2+x,1/2-y,-z
1/2-x,1/2+y,-z
1/2-x,1/2-y,-z
1/2+x,1/2+y,-z
1/2-x,1/2+y,z
1/2+x,1/2-y,z
loop_
_atom_site_type_symbol
_atom_site_label
_atom_site_fract_x
_atom_site_fract_y
_atom_site_fract_z
Si Si1 0.562555 0.500000 0.677029
Si Si2 0.642912 0.054344 0.173527
Si Si3 0.435139 0.126682 0.672484
Si Si4 0.063949 0.175991 0.175779
Si Si5 0.433893 0.780003 0.167104
Si Si6 0.126882 0.092649 0.675818
Si Si7 0.743624 0.554816 0.327759
O O1 0.500000 0.500000 0.726175
O O2 0.562681 0.500000 0.500000
O O3 0.593656 0.546593 0.721566
O O4 0.598406 0.086915 0.247363
O O5 0.702605 0.065850 0.236819
O O6 0.632841 0.000000 0.207176
O O7 0.642119 0.059974 0.000000
O O8 0.426484 0.124327 0.500000
O O9 0.500000 0.121654 0.700580
O O10 0.417659 0.176938 0.733744
O O11 0.081944 0.228333 0.215924
O O12 0.100276 0.137073 0.250139
O O13 0.000000 0.169932 0.216099
O O14 0.066890 0.172986 0.000000
O O15 0.500000 0.779059 0.165033
O O16 0.415949 0.787390 0.000000
O O17 0.122904 0.096347 0.500000
O O18 0.190132 0.083825 0.712174
O O19 0.754586 0.561358 0.500000
O O20 0.730946 0.500000 0.307927
#
# Coordination Sequence:
#
# PCOD9483538 Si02
#       7
#     8  16  16  16  16  16  16
#     4   9  16  26  41  65  97 129 162 201 246 295
#     4  10  21  35  52  75 101 131 166 198 233 283
#     4  10  20  33  52  79 106 130 157 192 238 287
#     4   9  18  31  46  68  99 132 165 203 249 296
#     4   8  15  30  50  69  94 130 166 198 236 288
#     4  10  18  29  47  70  94 127 168 209 251 294
#     4   9  17  32  51  69  93 126 168 211 249 289
#
# _framework density 15.985929
#
# number of rings (size 3 to 8) (size 9 to 14) (size 15 to 20)
#    0.000    2.692    0.769    2.308    0.000    4.308 
#    0.000    3.462    0.000    2.308    0.000    6.462 
#    0.000    0.000    0.000    0.000    0.000    0.000 
#
# Total GULP energy -289844.284738 kJ/mol
# GULP energy per Si atom -5573.928553 kJ/mol
# Density = 1.594954 g / cm^3
# Si number density = 15.985929 Si / 1000 Ang^3
#
#
#
# Elastic Constant Matrix: (Units=GPa)
#
#
# Indices 1 2 3 4 5 6 
#
# 1 83.2377 82.1377 56.4140 0.0000 0.0000 0.0000
# 2 82.1377 138.6794 68.2898 0.0000 0.0000 0.0000
# 3 56.4140 68.2898 52.4579 0.0000 0.0000 0.0000
# 4 0.0000 0.0000 0.0000 29.6648 0.0000 0.0000
# 5 0.0000 0.0000 0.0000 0.0000 22.8449 0.0000
# 6 0.0000 0.0000 0.0000 0.0000 0.0000 6.2942
#
#
#
# Elastic Compliance Matrix: (Units=1/GPa)
#
#
# Indices 1 2 3 4 5 6 
#
# 1 0.047507 -0.008301 -0.040284 0.000000 0.000000 0.000000
# 2 -0.008301 0.021539 -0.019113 0.000000 0.000000 0.000000
# 3 -0.040284 -0.019113 0.087265 0.000000 0.000000 0.000000
# 4 0.000000 0.000000 0.000000 0.033710 0.000000 0.000000
# 5 0.000000 0.000000 0.000000 0.000000 0.043774 0.000000
# 6 0.000000 0.000000 0.000000 0.000000 0.000000 0.158877
#
#
# Mechanical properties :
#
#
# Convention : Reuss Voigt Hill
#
# Bulk Modulus (GPa) = 47.80780 76.45086 62.12933
# Shear Modulus (GPa) = 9.34513 16.26302 12.80408
#
# Velocity S-wave (km/s) = 2.42044 3.19303 2.83319
# Velocity P-wave (km/s) = 6.14675 7.84357 7.04642
#
# Compressibility (1/GPa) = 0.02091709
#
# Stress axis : x y z
#
# Youngs Moduli (GPa) = 21.04955 46.42764 11.45930
#
# Poissons Ratio (x) = 0.38539 0.46162
# Poissons Ratio (y) = 0.17473 0.21902
# Poissons Ratio (z) = 0.84795 0.88735
#
# Static dielectric constant tensor:
#      x y z
#    x 1.515990 0.000000 0.000000 
#    y 0.000000 1.527770 0.000000 
#    z 0.000000 0.000000 1.531330 
# 
# From -- ./inp_files/14705.got.cif
#   From: 2010.05.17/outbox.cif.g08.bks.cpg/sg65_8_cif.got.tgz:14705.got - 2010.06.03 17:01:31.
