data_PCOD9483243
_publ_section_title
;
Structure prediction by ZEFSAII (Michael W. Deem and Ramdas Pophale) SiO2 
 PCOD9483243
Probable space group: C M M M
;
_chemical_formula_sum "Si O2"
_cell_formula_units_Z 96
_cell_length_a 7.548380
_cell_length_b 27.531082
_cell_length_c 25.091328
_cell_angle_alpha 90.000000
_cell_angle_beta 90.000000
_cell_angle_gamma 90.000000
_cell_volume 5214.356053
_symmetry_space_group_name_H-M "C M M M"
_symmetry_group_IT_number 65
_symmetry_cell_setting 'orthorhombic'
loop_
_space_group_symop_operation_xyz
x,y,z
-x,-y,z
x,-y,-z
-x,y,-z
-x,-y,-z
x,y,-z
-x,y,z
x,-y,z
1/2+x,1/2+y,z
1/2-x,1/2-y,z
1/2+x,1/2-y,-z
1/2-x,1/2+y,-z
1/2-x,1/2-y,-z
1/2+x,1/2+y,-z
1/2-x,1/2+y,z
1/2+x,1/2-y,z
loop_
_atom_site_type_symbol
_atom_site_label
_atom_site_fract_x
_atom_site_fract_y
_atom_site_fract_z
Si Si1 0.295834 0.094325 0.785051
Si Si2 0.283323 0.655899 0.941415
Si Si3 0.710284 0.304118 0.169721
Si Si4 0.705565 0.446457 0.898363
Si Si5 0.784241 0.557061 0.327144
Si Si6 0.214107 0.558087 0.557385
O O1 0.500000 0.078268 0.785689
O O2 0.287362 0.151660 0.796465
O O3 0.210883 0.067399 0.835669
O O4 0.221057 0.082074 0.726977
O O5 0.500000 0.655589 0.941192
O O6 0.226159 0.688294 0.891350
O O7 0.221584 0.600738 0.928748
O O8 0.225366 0.671539 0.000000
O O9 0.500000 0.311390 0.170014
O O10 0.750000 0.250000 0.188197
O O11 0.500000 0.449135 0.914325
O O12 0.784166 0.500000 0.907066
O O13 0.740581 0.500000 0.323708
O O14 0.722041 0.576336 0.384953
O O15 0.000000 0.560538 0.328004
O O16 0.279873 0.577062 0.500000
O O17 0.247939 0.500000 0.557745
O O18 0.000000 0.563496 0.556976
#
# Coordination Sequence:
#
# PCOD9483243 Si02
#       6
#    16  16  16  16  16  16
#     4  10  18  28  43  62  85 112 141 173 207 245
#     4   8  15  28  45  65  86 106 131 164 201 244
#     4  10  20  34  50  66  83 103 129 164 208 256
#     4   9  17  28  42  61  86 115 144 173 203 236
#     4   8  13  20  32  54  83 114 146 174 199 231
#     4   7   9  14  25  43  72 110 145 173 200 228
#
# _framework density 18.410710000000002
#
# number of rings (size 3 to 8) (size 9 to 14) (size 15 to 20)
#    0.000    3.333    0.000    4.000    0.000    1.667 
#    0.000    1.667    0.000   12.000    0.000    4.667 
#    0.000    3.333    0.000   20.000    0.000   17.000 
#
# Total GULP energy -267307.809905 kJ/mol
# GULP energy per Si atom -5568.912706 kJ/mol
# Density = 1.836881 g / cm^3
# Si number density = 18.410710 Si / 1000 Ang^3
#
#
#
# Elastic Constant Matrix: (Units=GPa)
#
#
# Indices 1 2 3 4 5 6 
#
# 1 44.3386 -10.7940 -7.0211 0.0000 0.0000 0.0000
# 2 -10.7940 39.1097 -2.5330 0.0000 0.0000 0.0000
# 3 -7.0211 -2.5330 115.8845 0.0000 0.0000 0.0000
# 4 0.0000 0.0000 0.0000 9.4633 0.0000 0.0000
# 5 0.0000 0.0000 0.0000 0.0000 7.9247 0.0000
# 6 0.0000 0.0000 0.0000 0.0000 0.0000 2.8885
#
#
#
# Elastic Compliance Matrix: (Units=1/GPa)
#
#
# Indices 1 2 3 4 5 6 
#
# 1 0.024483 0.006863 0.001633 0.000000 0.000000 0.000000
# 2 0.006863 0.027529 0.001018 0.000000 0.000000 0.000000
# 3 0.001633 0.001018 0.008750 0.000000 0.000000 0.000000
# 4 0.000000 0.000000 0.000000 0.105671 0.000000 0.000000
# 5 0.000000 0.000000 0.000000 0.000000 0.126189 0.000000
# 6 0.000000 0.000000 0.000000 0.000000 0.000000 0.346201
#
#
# Mechanical properties :
#
#
# Convention : Reuss Voigt Hill
#
# Bulk Modulus (GPa) = 12.53281 17.62628 15.07954
# Shear Modulus (GPa) = 7.73523 18.70068 13.21796
#
# Velocity S-wave (km/s) = 2.05198 3.19054 2.68236
# Velocity P-wave (km/s) = 3.52651 4.81326 4.21922
#
# Compressibility (1/GPa) = 0.07979058
#
# Stress axis : x y z
#
# Youngs Moduli (GPa) = 40.84445 36.32510 114.27938
#
# Poissons Ratio (x) = -0.24930 -0.18666
# Poissons Ratio (y) = -0.28031 -0.11628
# Poissons Ratio (z) = -0.06671 -0.03696
#
# Static dielectric constant tensor:
#      x y z
#    x 1.736380 0.000000 0.000000 
#    y 0.000000 1.613910 0.000000 
#    z 0.000000 0.000000 1.685030 
# 
# From -- ./inp_files/68062.got.cif
#   From: 2010.05.17/outbox.cif.g08.bks.cpg/sg65_35_cif.got.tgz:68062.got - 2010.06.03 17:01:31.
