data_PCOD9483281
_publ_section_title
;
Structure prediction by ZEFSAII (Michael W. Deem and Ramdas Pophale) SiO2 
 PCOD9483281
Probable space group: C M M M
;
_chemical_formula_sum "Si O2"
_cell_formula_units_Z 88
_cell_length_a 27.635023
_cell_length_b 7.600628
_cell_length_c 22.231047
_cell_angle_alpha 90.000000
_cell_angle_beta 90.000000
_cell_angle_gamma 90.000000
_cell_volume 4669.487578
_symmetry_space_group_name_H-M "C M M M"
_symmetry_group_IT_number 65
_symmetry_cell_setting 'orthorhombic'
loop_
_space_group_symop_operation_xyz
x,y,z
-x,-y,z
x,-y,-z
-x,y,-z
-x,-y,-z
x,y,-z
-x,y,z
x,-y,z
1/2+x,1/2+y,z
1/2-x,1/2-y,z
1/2+x,1/2-y,-z
1/2-x,1/2+y,-z
1/2-x,1/2-y,-z
1/2+x,1/2+y,-z
1/2-x,1/2+y,z
1/2+x,1/2-y,z
loop_
_atom_site_type_symbol
_atom_site_label
_atom_site_fract_x
_atom_site_fract_y
_atom_site_fract_z
Si Si1 0.654878 0.215243 0.066259
Si Si2 0.595276 0.703444 0.756506
Si Si3 0.303997 0.209040 0.808775
Si Si4 0.946606 0.295314 0.883616
Si Si5 0.058572 0.209293 0.500000
Si Si6 0.556688 0.285230 0.369617
O O1 0.687626 0.271863 0.122389
O O2 0.600051 0.276668 0.081204
O O3 0.654547 0.000000 0.066481
O O4 0.670078 0.272909 0.000000
O O5 0.579966 0.500000 0.757410
O O6 0.652265 0.714566 0.769943
O O7 0.567764 0.788177 0.813086
O O8 0.582774 0.776228 0.690848
O O9 0.250000 0.250000 0.788623
O O10 0.310922 0.000000 0.808286
O O11 0.949335 0.500000 0.900985
O O12 0.000000 0.217437 0.893230
O O13 0.075070 0.278698 0.565034
O O14 0.000000 0.227002 0.500000
O O15 0.068678 0.000000 0.500000
O O16 0.500000 0.240688 0.364484
O O17 0.559676 0.500000 0.371185
#
# Coordination Sequence:
#
# PCOD9483281 Si02
#       6
#    16  16  16  16   8  16
#     4   8  15  28  45  65  87 110 139 175 214 260
#     4  10  18  28  44  66  90 116 147 181 217 257
#     4  10  20  34  50  67  86 108 137 176 223 269
#     4   9  17  28  42  62  89 120 151 181 213 249
#     4   7  10  18  32  54  88 123 150 177 206 237
#     4   8  13  21  36  61  92 123 151 177 206 242
#
# _framework density 18.845752000000001
#
# number of rings (size 3 to 8) (size 9 to 14) (size 15 to 20)
#    0.000    3.182    0.000    3.818    0.000    1.818 
#    0.000    1.818    0.000   13.091    0.000    8.273 
#    0.000   10.182    0.000    0.000    0.000    0.000 
#
# Total GULP energy -245150.939270 kJ/mol
# GULP energy per Si atom -5571.612256 kJ/mol
# Density = 1.880286 g / cm^3
# Si number density = 18.845752 Si / 1000 Ang^3
#
#
#
# Elastic Constant Matrix: (Units=GPa)
#
#
# Indices 1 2 3 4 5 6 
#
# 1 41.5833 -13.3755 -1.7703 0.0000 0.0000 0.0000
# 2 -13.3755 40.4839 -8.4394 0.0000 0.0000 0.0000
# 3 -1.7703 -8.4394 109.5944 0.0000 0.0000 0.0000
# 4 0.0000 0.0000 0.0000 9.7799 0.0000 0.0000
# 5 0.0000 0.0000 0.0000 0.0000 9.6733 0.0000
# 6 0.0000 0.0000 0.0000 0.0000 0.0000 6.6218
#
#
#
# Elastic Compliance Matrix: (Units=1/GPa)
#
#
# Indices 1 2 3 4 5 6 
#
# 1 0.027048 0.009175 0.001143 0.000000 0.000000 0.000000
# 2 0.009175 0.028216 0.002321 0.000000 0.000000 0.000000
# 3 0.001143 0.002321 0.009322 0.000000 0.000000 0.000000
# 4 0.000000 0.000000 0.000000 0.102250 0.000000 0.000000
# 5 0.000000 0.000000 0.000000 0.000000 0.103377 0.000000
# 6 0.000000 0.000000 0.000000 0.000000 0.000000 0.151017
#
#
# Mechanical properties :
#
#
# Convention : Reuss Voigt Hill
#
# Bulk Modulus (GPa) = 11.12792 16.05459 13.59125
# Shear Modulus (GPa) = 11.73965 19.56478 15.65222
#
# Velocity S-wave (km/s) = 2.49857 3.22553 2.88504
# Velocity P-wave (km/s) = 3.77377 4.73387 4.28082
#
# Compressibility (1/GPa) = 0.08986408
#
# Stress axis : x y z
#
# Youngs Moduli (GPa) = 36.97148 35.44060 107.27591
#
# Poissons Ratio (x) = -0.32516 -0.12266
# Poissons Ratio (y) = -0.33920 -0.24899
# Poissons Ratio (z) = -0.04227 -0.08226
#
# Static dielectric constant tensor:
#      x y z
#    x 1.640130 0.000000 0.000000 
#    y 0.000000 1.740680 0.000000 
#    z 0.000000 0.000000 1.685800 
# 
# From -- ./inp_files/66189.got.cif
#   From: 2010.05.17/outbox.cif.g08.bks.cpg/sg65_34_cif.got.tgz:66189.got - 2010.06.03 17:01:31.
