data_PCOD9483474
_publ_section_title
;
Structure prediction by ZEFSAII (Michael W. Deem and Ramdas Pophale) SiO2 
 PCOD9483474
Probable space group: C M M M
;
_chemical_formula_sum "Si O2"
_cell_formula_units_Z 96
_cell_length_a 29.099296
_cell_length_b 21.490617
_cell_length_c 7.326986
_cell_angle_alpha 90.000000
_cell_angle_beta 90.000000
_cell_angle_gamma 90.000000
_cell_volume 4582.017339
_symmetry_space_group_name_H-M "C M M M"
_symmetry_group_IT_number 65
_symmetry_cell_setting 'orthorhombic'
loop_
_space_group_symop_operation_xyz
x,y,z
-x,-y,z
x,-y,-z
-x,y,-z
-x,-y,-z
x,y,-z
-x,y,z
x,-y,z
1/2+x,1/2+y,z
1/2-x,1/2-y,z
1/2+x,1/2-y,-z
1/2-x,1/2+y,-z
1/2-x,1/2-y,-z
1/2+x,1/2+y,-z
1/2-x,1/2+y,z
1/2+x,1/2-y,z
loop_
_atom_site_type_symbol
_atom_site_label
_atom_site_fract_x
_atom_site_fract_y
_atom_site_fract_z
Si Si1 0.551242 0.427782 0.778071
Si Si2 0.948158 0.429019 0.280633
Si Si3 0.299801 0.500000 0.777966
Si Si4 0.146390 0.123733 0.222717
Si Si5 0.306322 0.000000 0.776626
Si Si6 0.696622 0.250584 0.776869
Si Si7 0.853097 0.626113 0.213778
O O1 0.500000 0.409569 0.718644
O O2 0.559142 0.500000 0.725538
O O3 0.593693 0.385694 0.718998
O O4 0.551118 0.427351 0.000000
O O5 0.948993 0.430861 0.500000
O O6 0.937475 0.500000 0.217819
O O7 0.907838 0.382153 0.228775
O O8 0.000000 0.413653 0.219366
O O9 0.325572 0.562530 0.719909
O O10 0.246820 0.500000 0.723760
O O11 0.300833 0.500000 0.000000
O O12 0.170887 0.186761 0.282189
O O13 0.146643 0.124115 0.000000
O O14 0.331100 0.937389 0.711396
O O15 0.308361 0.000000 0.000000
O O16 0.750000 0.250000 0.721895
O O17 0.669339 0.189198 0.713946
O O18 0.696324 0.251127 0.000000
O O19 0.841613 0.626472 0.000000
#
# Coordination Sequence:
#
# PCOD9483474 Si02
#       7
#    16  16   8  16   8  16  16
#     4   8  12  18  28  42  60  85 123 170 212 247
#     4   9  18  33  52  72  93 119 153 194 240 285
#     4   9  14  20  33  52  75 105 148 193 222 255
#     4   9  14  21  32  48  70 103 145 182 217 259
#     4   9  16  24  36  57  83 109 144 186 220 257
#     4   9  17  27  38  55  85 123 155 184 224 272
#     4  10  18  29  45  68  95 124 155 189 232 275
#
# _framework density 20.951471000000002
#
# number of rings (size 3 to 8) (size 9 to 14) (size 15 to 20)
#    0.000    3.000    1.667    2.000    0.000    4.333 
#    0.000    1.667    0.000    3.500    0.000    0.000 
#    0.000    0.000    0.000    0.000    0.000    2.500 
#
# Total GULP energy -267954.763771 kJ/mol
# GULP energy per Si atom -5582.390912 kJ/mol
# Density = 2.090378 g / cm^3
# Si number density = 20.951471 Si / 1000 Ang^3
#
#
#
# Elastic Constant Matrix: (Units=GPa)
#
#
# Indices 1 2 3 4 5 6 
#
# 1 210.9774 131.2572 -3.3311 0.0000 0.0000 0.0000
# 2 131.2572 191.9350 8.3228 0.0000 0.0000 0.0000
# 3 -3.3311 8.3228 80.5096 0.0000 0.0000 0.0000
# 4 0.0000 0.0000 0.0000 -11.8538 0.0000 0.0000
# 5 0.0000 0.0000 0.0000 0.0000 14.0437 0.0000
# 6 0.0000 0.0000 0.0000 0.0000 0.0000 38.0544
#
#
#
# Elastic Compliance Matrix: (Units=1/GPa)
#
#
# Indices 1 2 3 4 5 6 
#
# 1 0.008319 -0.005730 0.000937 0.000000 0.000000 0.000000
# 2 -0.005730 0.009180 -0.001186 0.000000 0.000000 0.000000
# 3 0.000937 -0.001186 0.012582 0.000000 0.000000 0.000000
# 4 0.000000 0.000000 0.000000 -0.084361 0.000000 0.000000
# 5 0.000000 0.000000 0.000000 0.000000 0.071206 0.000000
# 6 0.000000 0.000000 0.000000 0.000000 0.000000 0.026278
#
#
# Mechanical properties :
#
#
# Convention : Reuss Voigt Hill
#
# Bulk Modulus (GPa) = 55.17924 83.99110 69.58517
# Shear Modulus (GPa) = 81.69252 31.19373 56.44312
#
# Velocity S-wave (km/s) = 6.25108 3.86276 5.19600
# Velocity P-wave (km/s) = 8.85975 7.75048 8.32361
#
# Compressibility (1/GPa) = 0.01812276
#
# Stress axis : x y z
#
# Youngs Moduli (GPa) = 120.19970 108.93170 79.47712
#
# Poissons Ratio (x) = 0.62418 -0.07444
# Poissons Ratio (y) = 0.68874 0.09427
# Poissons Ratio (z) = -0.11258 0.12920
#
# Static dielectric constant tensor:
#      x y z
#    x 1.736600 0.000000 0.000000 
#    y 0.000000 1.705400 0.000000 
#    z 0.000000 0.000000 1.800940 
# 
# From -- ./inp_files/30992.got.cif
#   From: 2010.05.17/outbox.cif.g08.bks.cpg/sg65_16_cif.got.tgz:30992.got - 2010.06.03 17:01:31.
