data_PCOD9483882
_publ_section_title
;
Structure prediction by ZEFSAII (Michael W. Deem and Ramdas Pophale) SiO2 
 PCOD9483882
Probable space group: C M M M
;
_chemical_formula_sum "Si O2"
_cell_formula_units_Z 120
_cell_length_a 18.584336
_cell_length_b 21.120740
_cell_length_c 17.104737
_cell_angle_alpha 90.000000
_cell_angle_beta 90.000000
_cell_angle_gamma 90.000000
_cell_volume 6713.864624
_symmetry_space_group_name_H-M "C M M M"
_symmetry_group_IT_number 65
_symmetry_cell_setting 'orthorhombic'
loop_
_space_group_symop_operation_xyz
x,y,z
-x,-y,z
x,-y,-z
-x,y,-z
-x,-y,-z
x,y,-z
-x,y,z
x,-y,z
1/2+x,1/2+y,z
1/2-x,1/2-y,z
1/2+x,1/2-y,-z
1/2-x,1/2+y,-z
1/2-x,1/2-y,-z
1/2+x,1/2+y,-z
1/2-x,1/2+y,z
1/2+x,1/2-y,z
loop_
_atom_site_type_symbol
_atom_site_label
_atom_site_fract_x
_atom_site_fract_y
_atom_site_fract_z
Si Si1 0.208008 0.310972 0.911204
Si Si2 0.086748 0.890885 0.791056
Si Si3 0.912541 0.000000 0.089100
Si Si4 0.216108 0.682383 0.407719
Si Si5 0.195872 0.071343 0.335192
Si Si6 0.582659 0.848183 0.704334
Si Si7 0.581685 0.747122 0.157528
Si Si8 0.185444 0.570646 0.801633
O O1 0.250000 0.250000 0.876605
O O2 0.127019 0.284703 0.905954
O O3 0.208760 0.375208 0.862337
O O4 0.232381 0.320784 0.000000
O O5 0.108596 0.939918 0.858850
O O6 0.122723 0.909701 0.709224
O O7 0.110205 0.821819 0.819569
O O8 0.000000 0.891977 0.783848
O O9 0.000000 0.000000 0.085402
O O10 0.885836 0.000000 0.000000
O O11 0.201933 0.686346 0.500000
O O12 0.250000 0.750000 0.381736
O O13 0.273425 0.626243 0.390672
O O14 0.142333 0.666179 0.361727
O O15 0.253740 0.069063 0.264826
O O16 0.191104 0.000000 0.368744
O O17 0.500000 0.858036 0.678037
O O18 0.583168 0.788954 0.763835
O O19 0.613515 0.905926 0.756752
O O20 0.500000 0.739128 0.131256
O O21 0.177636 0.500000 0.834768
#
# Coordination Sequence:
#
# PCOD9483882 Si02
#       8
#    16  16   8  16  16  16  16  16
#     4  10  20  33  49  70 100 137 177 222 270 320
#     4  10  18  30  50  74 100 136 180 219 260 310
#     4   9  18  30  42  64 101 137 170 215 269 317
#     4  10  21  36  55  81 112 144 173 208 264 327
#     4  10  19  33  54  75 101 135 175 217 257 314
#     4   9  18  34  56  82 105 131 173 222 267 316
#     4   9  18  31  50  73  97 129 171 215 257 310
#     4   9  19  34  53  75 101 135 174 221 277 333
#
# _framework density 17.873462
#
# number of rings (size 3 to 8) (size 9 to 14) (size 15 to 20)
#    0.000    2.467    0.667    1.600    0.000    5.600 
#    0.000    2.000    0.000    1.200    0.000    8.400 
#    0.000    0.000    0.000    0.000    0.000    0.000 
#
# Total GULP energy -334321.531258 kJ/mol
# GULP energy per Si atom -5572.025521 kJ/mol
# Density = 1.783278 g / cm^3
# Si number density = 17.873462 Si / 1000 Ang^3
#
#
#
# Elastic Constant Matrix: (Units=GPa)
#
#
# Indices 1 2 3 4 5 6 
#
# 1 64.1047 27.3035 20.7256 0.0000 0.0000 0.0000
# 2 27.3035 142.1153 25.2695 0.0000 0.0000 0.0000
# 3 20.7256 25.2695 45.1441 0.0000 0.0000 0.0000
# 4 0.0000 0.0000 0.0000 15.9413 0.0000 0.0000
# 5 0.0000 0.0000 0.0000 0.0000 16.6656 0.0000
# 6 0.0000 0.0000 0.0000 0.0000 0.0000 19.9077
#
#
#
# Elastic Compliance Matrix: (Units=1/GPa)
#
#
# Indices 1 2 3 4 5 6 
#
# 1 0.018989 -0.002330 -0.007413 0.000000 0.000000 0.000000
# 2 -0.002330 0.008100 -0.003464 0.000000 0.000000 0.000000
# 3 -0.007413 -0.003464 0.027494 0.000000 0.000000 0.000000
# 4 0.000000 0.000000 0.000000 0.062730 0.000000 0.000000
# 5 0.000000 0.000000 0.000000 0.000000 0.060004 0.000000
# 6 0.000000 0.000000 0.000000 0.000000 0.000000 0.050232
#
#
# Mechanical properties :
#
#
# Convention : Reuss Voigt Hill
#
# Bulk Modulus (GPa) = 35.50229 44.21792 39.86010
# Shear Modulus (GPa) = 18.98589 22.37395 20.67992
#
# Velocity S-wave (km/s) = 3.26274 3.54191 3.40519
# Velocity P-wave (km/s) = 5.83954 6.44360 6.14899
#
# Compressibility (1/GPa) = 0.02816720
#
# Stress axis : x y z
#
# Youngs Moduli (GPa) = 52.66286 123.45398 36.37151
#
# Poissons Ratio (x) = 0.28764 0.26964
# Poissons Ratio (y) = 0.12270 0.12601
# Poissons Ratio (z) = 0.39042 0.42770
#
# Static dielectric constant tensor:
#      x y z
#    x 1.651570 0.000000 0.000000 
#    y 0.000000 1.632320 0.000000 
#    z 0.000000 0.000000 1.592600 
# 
# From -- ./inp_files/54970.got.cif
#   From: 2010.05.17/outbox.cif.g08.bks.cpg/sg65_28_cif.got.tgz:54970.got - 2010.06.03 17:01:31.
