data_PCOD9483511
_publ_section_title
;
Structure prediction by ZEFSAII (Michael W. Deem and Ramdas Pophale) SiO2 
 PCOD9483511
Probable space group: C M M M
;
_chemical_formula_sum "Si O2"
_cell_formula_units_Z 112
_cell_length_a 7.518197
_cell_length_b 30.089556
_cell_length_c 26.468285
_cell_angle_alpha 90.000000
_cell_angle_beta 90.000000
_cell_angle_gamma 90.000000
_cell_volume 5987.634514
_symmetry_space_group_name_H-M "C M M M"
_symmetry_group_IT_number 65
_symmetry_cell_setting 'orthorhombic'
loop_
_space_group_symop_operation_xyz
x,y,z
-x,-y,z
x,-y,-z
-x,y,-z
-x,-y,-z
x,y,-z
-x,y,z
x,-y,z
1/2+x,1/2+y,z
1/2-x,1/2-y,z
1/2+x,1/2-y,-z
1/2-x,1/2+y,-z
1/2-x,1/2-y,-z
1/2+x,1/2+y,-z
1/2-x,1/2+y,z
1/2+x,1/2-y,z
loop_
_atom_site_type_symbol
_atom_site_label
_atom_site_fract_x
_atom_site_fract_y
_atom_site_fract_z
Si Si1 0.217397 0.948869 0.749537
Si Si2 0.787222 0.200650 0.807441
Si Si3 0.212117 0.107769 0.346477
Si Si4 0.216939 0.948990 0.057217
Si Si5 0.786969 0.200771 0.691577
Si Si6 0.282492 0.607662 0.152091
Si Si7 0.786520 0.449966 0.556875
O O1 0.278871 0.923396 0.699184
O O2 0.270143 0.921703 0.799378
O O3 0.000000 0.949178 0.749082
O O4 0.275360 0.000000 0.750650
O O5 0.750000 0.250000 0.827451
O O6 0.718786 0.198401 0.749527
O O7 0.722952 0.158277 0.838828
O O8 0.000000 0.196356 0.804497
O O9 0.279515 0.158066 0.339080
O O10 0.242988 0.085201 0.400198
O O11 0.000000 0.109570 0.339896
O O12 0.277675 0.915606 0.100598
O O13 0.000000 0.948536 0.057452
O O14 0.269418 0.000000 0.068301
O O15 0.272963 0.938065 0.000000
O O16 0.750000 0.250000 0.671205
O O17 0.000000 0.197481 0.694353
O O18 0.500000 0.607550 0.151127
O O19 0.723142 0.439370 0.500000
O O20 0.722871 0.500000 0.570096
O O21 0.000000 0.452006 0.554704
#
# Coordination Sequence:
#
# PCOD9483511 Si02
#       7
#    16  16  16  16  16  16  16
#     4   9  15  22  35  58  86 112 136 167 215 269
#     4   9  16  27  42  60  84 113 146 180 215 260
#     4  10  18  29  46  70  94 114 143 187 228 262
#     4   8  13  20  31  51  80 113 148 182 215 256
#     4   9  17  29  44  64  91 117 146 183 221 266
#     4   9  14  22  36  54  80 114 145 175 215 263
#     4   9  19  35  51  67  91 124 157 183 210 254
#
# _framework density 18.705216
#
# number of rings (size 3 to 8) (size 9 to 14) (size 15 to 20)
#    0.000    3.000    1.429    1.714    0.000    3.429 
#    0.000    0.714    0.000    0.857    0.000    0.000 
#    0.000    1.714    0.000    1.571    0.000    2.429 
#
# Total GULP energy -312267.904930 kJ/mol
# GULP energy per Si atom -5576.212588 kJ/mol
# Density = 1.866264 g / cm^3
# Si number density = 18.705216 Si / 1000 Ang^3
#
#
#
# Elastic Constant Matrix: (Units=GPa)
#
#
# Indices 1 2 3 4 5 6 
#
# 1 45.8647 6.2965 1.9333 0.0000 0.0000 0.0000
# 2 6.2965 214.9887 118.6339 0.0000 0.0000 0.0000
# 3 1.9333 118.6339 130.7086 0.0000 0.0000 0.0000
# 4 0.0000 0.0000 0.0000 19.6779 0.0000 0.0000
# 5 0.0000 0.0000 0.0000 0.0000 65.6237 0.0000
# 6 0.0000 0.0000 0.0000 0.0000 0.0000 10.7316
#
#
#
# Elastic Compliance Matrix: (Units=1/GPa)
#
#
# Indices 1 2 3 4 5 6 
#
# 1 0.021909 -0.000927 0.000518 0.000000 0.000000 0.000000
# 2 -0.000927 0.009358 -0.008480 0.000000 0.000000 0.000000
# 3 0.000518 -0.008480 0.015339 0.000000 0.000000 0.000000
# 4 0.000000 0.000000 0.000000 0.050818 0.000000 0.000000
# 5 0.000000 0.000000 0.000000 0.000000 0.015238 0.000000
# 6 0.000000 0.000000 0.000000 0.000000 0.000000 0.093183
#
#
# Mechanical properties :
#
#
# Convention : Reuss Voigt Hill
#
# Bulk Modulus (GPa) = 34.68955 71.69882 53.19418
# Shear Modulus (GPa) = 21.43779 36.85319 29.14549
#
# Velocity S-wave (km/s) = 3.38906 4.44352 3.95162
# Velocity P-wave (km/s) = 5.82237 8.04616 7.02284
#
# Compressibility (1/GPa) = 0.02882713
#
# Stress axis : x y z
#
# Youngs Moduli (GPa) = 45.64384 106.86404 65.19273
#
# Poissons Ratio (x) = 0.09909 -0.03374
# Poissons Ratio (y) = 0.04232 0.55280
# Poissons Ratio (z) = -0.02362 0.90616
#
# Static dielectric constant tensor:
#      x y z
#    x 1.654490 0.000000 0.000000 
#    y 0.000000 1.657760 0.000000 
#    z 0.000000 0.000000 1.623050 
# 
# From -- ./inp_files/69141.got.cif
#   From: 2010.05.17/outbox.cif.g08.bks.cpg/sg65_35_cif.got.tgz:69141.got - 2010.06.03 17:01:31.
