data_PCOD9483481
_publ_section_title
;
Structure prediction by ZEFSAII (Michael W. Deem and Ramdas Pophale) SiO2 
 PCOD9483481
Probable space group: C M M M
;
_chemical_formula_sum "Si O2"
_cell_formula_units_Z 88
_cell_length_a 9.287650
_cell_length_b 29.030885
_cell_length_c 24.052920
_cell_angle_alpha 90.000000
_cell_angle_beta 90.000000
_cell_angle_gamma 90.000000
_cell_volume 6485.357528
_symmetry_space_group_name_H-M "C M M M"
_symmetry_group_IT_number 65
_symmetry_cell_setting 'orthorhombic'
loop_
_space_group_symop_operation_xyz
x,y,z
-x,-y,z
x,-y,-z
-x,y,-z
-x,-y,-z
x,y,-z
-x,y,z
x,-y,z
1/2+x,1/2+y,z
1/2-x,1/2-y,z
1/2+x,1/2-y,-z
1/2-x,1/2+y,-z
1/2-x,1/2-y,-z
1/2+x,1/2+y,-z
1/2-x,1/2+y,z
1/2+x,1/2-y,z
loop_
_atom_site_type_symbol
_atom_site_label
_atom_site_fract_x
_atom_site_fract_y
_atom_site_fract_z
Si Si1 0.667975 0.555979 0.938270
Si Si2 0.672246 0.553820 0.716604
Si Si3 0.665204 0.943934 0.171040
Si Si4 0.829018 0.701915 0.566317
Si Si5 0.174683 0.052405 0.500000
Si Si6 0.826221 0.112427 0.392691
O O1 0.500000 0.568333 0.931856
O O2 0.673708 0.500000 0.938079
O O3 0.759014 0.572227 0.885664
O O4 0.717126 0.570759 0.000000
O O5 0.500000 0.555475 0.724894
O O6 0.709245 0.500000 0.705197
O O7 0.750156 0.568829 0.773115
O O8 0.707859 0.585645 0.664138
O O9 0.500000 0.929202 0.173405
O O10 0.667703 0.000000 0.169548
O O11 0.808410 0.693148 0.500000
O O12 0.750000 0.750000 0.578877
O O13 0.755599 0.660338 0.599471
O O14 0.000000 0.704965 0.576530
O O15 0.215575 0.080010 0.555265
O O16 0.000000 0.050454 0.500000
O O17 0.228091 0.000000 0.500000
O O18 0.000000 0.119444 0.395057
#
# Coordination Sequence:
#
# PCOD9483481 Si02
#       6
#    16  16  16  16   8  16
#     4   8  13  21  33  48  66  90 122 162 205 243
#     4   9  17  28  41  57  78 107 141 171 199 237
#     4   9  16  24  34  49  70  98 131 167 204 237
#     4  10  20  33  49  66  84 103 126 158 201 250
#     4   9  16  26  42  63  84 105 132 167 202 237
#     4  10  18  29  46  65  83 104 133 168 205 243
#
# _framework density 13.569029
#
# number of rings (size 3 to 8) (size 9 to 14) (size 15 to 20)
#    0.000    2.818    0.909    2.182    0.000    6.182 
#    0.000    1.818    0.000    2.182    0.000    0.000 
#    0.000    0.000    0.000    0.000    0.000    0.909 
#
# Total GULP energy -245035.262553 kJ/mol
# GULP energy per Si atom -5568.983240 kJ/mol
# Density = 1.353815 g / cm^3
# Si number density = 13.569029 Si / 1000 Ang^3
#
#
#
# Elastic Constant Matrix: (Units=GPa)
#
#
# Indices 1 2 3 4 5 6 
#
# 1 56.3876 39.7637 65.9542 0.0000 0.0000 0.0000
# 2 39.7637 68.3052 51.5144 0.0000 0.0000 0.0000
# 3 65.9542 51.5144 139.3790 0.0000 0.0000 0.0000
# 4 0.0000 0.0000 0.0000 2.3393 0.0000 0.0000
# 5 0.0000 0.0000 0.0000 0.0000 11.0189 0.0000
# 6 0.0000 0.0000 0.0000 0.0000 0.0000 15.9930
#
#
#
# Elastic Compliance Matrix: (Units=1/GPa)
#
#
# Indices 1 2 3 4 5 6 
#
# 1 0.049086 -0.015331 -0.017561 0.000000 0.000000 0.000000
# 2 -0.015331 0.025087 -0.002017 0.000000 0.000000 0.000000
# 3 -0.017561 -0.002017 0.016230 0.000000 0.000000 0.000000
# 4 0.000000 0.000000 0.000000 0.427472 0.000000 0.000000
# 5 0.000000 0.000000 0.000000 0.000000 0.090753 0.000000
# 6 0.000000 0.000000 0.000000 0.000000 0.000000 0.062527
#
#
# Mechanical properties :
#
#
# Convention : Reuss Voigt Hill
#
# Bulk Modulus (GPa) = 48.58192 64.28182 56.43187
# Shear Modulus (GPa) = 6.68595 12.99288 9.83941
#
# Velocity S-wave (km/s) = 2.22217 3.09777 2.69576
# Velocity P-wave (km/s) = 6.51654 7.76348 7.16718
#
# Compressibility (1/GPa) = 0.02058379
#
# Stress axis : x y z
#
# Youngs Moduli (GPa) = 20.37224 39.86204 61.61307
#
# Poissons Ratio (x) = 0.61113 1.08201
# Poissons Ratio (y) = 0.31233 0.12429
# Poissons Ratio (z) = 0.35776 0.08041
#
# Static dielectric constant tensor:
#      x y z
#    x 1.451200 0.000000 0.000000 
#    y 0.000000 1.412810 0.000000 
#    z 0.000000 0.000000 1.445130 
# 
# From -- ./inp_files/60655.got.cif
#   From: 2010.05.17/outbox.cif.g08.bks.cpg/sg65_31_cif.got.tgz:60655.got - 2010.06.03 17:01:31.
