data_PCOD9483246
_publ_section_title
;
Structure prediction by ZEFSAII (Michael W. Deem and Ramdas Pophale) SiO2 
 PCOD9483246
Probable space group: C M M M
;
_chemical_formula_sum "Si O2"
_cell_formula_units_Z 88
_cell_length_a 28.389539
_cell_length_b 7.771189
_cell_length_c 22.439105
_cell_angle_alpha 90.000000
_cell_angle_beta 90.000000
_cell_angle_gamma 90.000000
_cell_volume 4950.525963
_symmetry_space_group_name_H-M "C M M M"
_symmetry_group_IT_number 65
_symmetry_cell_setting 'orthorhombic'
loop_
_space_group_symop_operation_xyz
x,y,z
-x,-y,z
x,-y,-z
-x,y,-z
-x,-y,-z
x,y,-z
-x,y,z
x,-y,z
1/2+x,1/2+y,z
1/2-x,1/2-y,z
1/2+x,1/2-y,-z
1/2-x,1/2+y,-z
1/2-x,1/2-y,-z
1/2+x,1/2+y,-z
1/2-x,1/2+y,z
1/2+x,1/2-y,z
loop_
_atom_site_type_symbol
_atom_site_label
_atom_site_fract_x
_atom_site_fract_y
_atom_site_fract_z
Si Si1 0.196792 0.206357 0.370644
Si Si2 0.102415 0.210135 0.433739
Si Si3 0.194903 0.704380 0.129211
Si Si4 0.352949 0.294041 0.747826
Si Si5 0.447422 0.710383 0.687055
Si Si6 0.305550 0.207141 0.000000
O O1 0.250000 0.250000 0.386560
O O2 0.155281 0.264743 0.414855
O O3 0.182366 0.269924 0.304292
O O4 0.194048 0.000000 0.369752
O O5 0.090134 0.269305 0.500000
O O6 0.068220 0.261448 0.379812
O O7 0.101925 0.000000 0.434452
O O8 0.192759 0.500000 0.125699
O O9 0.250000 0.750000 0.137359
O O10 0.165307 0.756505 0.186577
O O11 0.177662 0.773544 0.064571
O O12 0.354044 0.500000 0.742032
O O13 0.405372 0.232202 0.730739
O O14 0.500000 0.769552 0.701385
O O15 0.447893 0.500000 0.688104
O O16 0.250000 0.250000 0.000000
O O17 0.311480 0.000000 0.000000
#
# Coordination Sequence:
#
# PCOD9483246 Si02
#       6
#    16  16  16  16  16   8
#     4   9  17  27  38  54  79 109 137 167 202 239
#     4   8  14  24  37  55  79 104 132 168 208 248
#     4  10  18  28  43  63  88 116 143 169 199 236
#     4   9  17  28  41  60  85 110 138 172 209 248
#     4   8  14  25  41  60  81 105 134 171 215 257
#     4   8  16  28  40  58  85 114 141 169 198 231
#
# _framework density 17.775887999999998
#
# number of rings (size 3 to 8) (size 9 to 14) (size 15 to 20)
#    0.000    3.273    0.000    3.273    0.000    3.636 
#    0.000    1.818    0.000    0.545    0.000    0.636 
#    0.000    5.091    0.000    8.000    0.000    8.000 
#
# Total GULP energy -245001.739905 kJ/mol
# GULP energy per Si atom -5568.221361 kJ/mol
# Density = 1.773543 g / cm^3
# Si number density = 17.775888 Si / 1000 Ang^3
#
#
#
# Elastic Constant Matrix: (Units=GPa)
#
#
# Indices 1 2 3 4 5 6 
#
# 1 84.0532 1.8683 34.0312 0.0000 0.0000 0.0000
# 2 1.8683 21.5223 1.8849 0.0000 0.0000 0.0000
# 3 34.0312 1.8849 123.8208 0.0000 0.0000 0.0000
# 4 0.0000 0.0000 0.0000 11.6630 0.0000 0.0000
# 5 0.0000 0.0000 0.0000 0.0000 14.1900 0.0000
# 6 0.0000 0.0000 0.0000 0.0000 0.0000 10.3686
#
#
#
# Elastic Compliance Matrix: (Units=1/GPa)
#
#
# Indices 1 2 3 4 5 6 
#
# 1 0.013402 -0.000842 -0.003671 0.000000 0.000000 0.000000
# 2 -0.000842 0.046578 -0.000478 0.000000 0.000000 0.000000
# 3 -0.003671 -0.000478 0.009092 0.000000 0.000000 0.000000
# 4 0.000000 0.000000 0.000000 0.085741 0.000000 0.000000
# 5 0.000000 0.000000 0.000000 0.000000 0.070472 0.000000
# 6 0.000000 0.000000 0.000000 0.000000 0.000000 0.096445
#
#
# Mechanical properties :
#
#
# Convention : Reuss Voigt Hill
#
# Bulk Modulus (GPa) = 16.92270 33.88503 25.40386
# Shear Modulus (GPa) = 14.22845 20.01846 17.12346
#
# Velocity S-wave (km/s) = 2.83227 3.35947 3.10707
# Velocity P-wave (km/s) = 4.49848 5.84395 5.21479
#
# Compressibility (1/GPa) = 0.05909222
#
# Stress axis : x y z
#
# Youngs Moduli (GPa) = 74.61518 21.46923 109.98309
#
# Poissons Ratio (x) = 0.01808 0.40371
# Poissons Ratio (y) = 0.06282 0.05253
# Poissons Ratio (z) = 0.27389 0.01025
#
# Static dielectric constant tensor:
#      x y z
#    x 1.590940 0.000000 0.000000 
#    y 0.000000 1.689290 0.000000 
#    z 0.000000 0.000000 1.653070 
# 
# From -- ./inp_files/60714.got.cif
#   From: 2010.05.17/outbox.cif.g08.bks.cpg/sg65_31_cif.got.tgz:60714.got - 2010.06.03 17:01:31.
