data_PCOD9483068
_publ_section_title
;
Structure prediction by ZEFSAII (Michael W. Deem and Ramdas Pophale) SiO2 
 PCOD9483068
Probable space group: C M M M
;
_chemical_formula_sum "Si O2"
_cell_formula_units_Z 88
_cell_length_a 28.272476
_cell_length_b 25.895720
_cell_length_c 9.175178
_cell_angle_alpha 90.000000
_cell_angle_beta 90.000000
_cell_angle_gamma 90.000000
_cell_volume 6717.479241
_symmetry_space_group_name_H-M "C M M M"
_symmetry_group_IT_number 65
_symmetry_cell_setting 'orthorhombic'
loop_
_space_group_symop_operation_xyz
x,y,z
-x,-y,z
x,-y,-z
-x,y,-z
-x,-y,-z
x,y,-z
-x,y,z
x,-y,z
1/2+x,1/2+y,z
1/2-x,1/2-y,z
1/2+x,1/2-y,-z
1/2-x,1/2+y,-z
1/2-x,1/2-y,-z
1/2+x,1/2+y,-z
1/2-x,1/2+y,z
1/2+x,1/2-y,z
loop_
_atom_site_type_symbol
_atom_site_label
_atom_site_fract_x
_atom_site_fract_y
_atom_site_fract_z
Si Si1 0.679155 0.840824 0.332874
Si Si2 0.553995 0.760449 0.827465
Si Si3 0.000000 0.438381 0.171724
Si Si4 0.731891 0.309787 0.167269
Si Si5 0.141934 0.221791 0.331934
Si Si6 0.423379 0.869442 0.675882
O O1 0.692057 0.852204 0.500000
O O2 0.725155 0.842847 0.233012
O O3 0.660620 0.781346 0.329583
O O4 0.632705 0.873312 0.291567
O O5 0.500000 0.742421 0.808877
O O6 0.593667 0.723311 0.759527
O O7 0.559290 0.815252 0.744718
O O8 0.562806 0.768030 0.000000
O O9 0.045296 0.413614 0.251501
O O10 0.000000 0.500000 0.183343
O O11 0.000000 0.424103 0.000000
O O12 0.750000 0.250000 0.171480
O O13 0.684035 0.310976 0.260656
O O14 0.722608 0.322800 0.000000
O O15 0.133821 0.208078 0.500000
O O16 0.428866 0.867956 0.500000
#
# Coordination Sequence:
#
# PCOD9483068 Si02
#       6
#    16  16   8  16  16  16
#     4   8  15  25  36  51  67  84 104 130 163 200
#     4  10  18  26  37  52  70  90 113 144 177 208
#     4  11  23  35  45  57  73  91 111 141 181 221
#     4   9  15  22  33  49  67  87 108 131 161 199
#     4   9  16  24  34  47  66  90 113 138 165 198
#     4  10  19  30  44  57  69  85 109 138 170 213
#
# _framework density 13.100152
#
# number of rings (size 3 to 8) (size 9 to 14) (size 15 to 20)
#    0.000    2.636    0.909    3.545    0.000    9.091 
#    0.000    0.000    0.000    0.000    0.000    0.000 
#    0.000    0.000    0.000    0.000    0.000    0.000 
#
# Total GULP energy -244986.229649 kJ/mol
# GULP energy per Si atom -5567.868856 kJ/mol
# Density = 1.307034 g / cm^3
# Si number density = 13.100152 Si / 1000 Ang^3
#
#
#
# Elastic Constant Matrix: (Units=GPa)
#
#
# Indices 1 2 3 4 5 6 
#
# 1 111.9304 27.4483 74.8771 0.0000 0.0000 0.0000
# 2 27.4483 17.3174 20.2703 0.0000 0.0000 0.0000
# 3 74.8771 20.2703 104.2581 0.0000 0.0000 0.0000
# 4 0.0000 0.0000 0.0000 9.0961 0.0000 0.0000
# 5 0.0000 0.0000 0.0000 0.0000 27.2762 0.0000
# 6 0.0000 0.0000 0.0000 0.0000 0.0000 8.3831
#
#
#
# Elastic Compliance Matrix: (Units=1/GPa)
#
#
# Indices 1 2 3 4 5 6 
#
# 1 0.021866 -0.021072 -0.011607 0.000000 0.000000 0.000000
# 2 -0.021072 0.095065 -0.003349 0.000000 0.000000 0.000000
# 3 -0.011607 -0.003349 0.018579 0.000000 0.000000 0.000000
# 4 0.000000 0.000000 0.000000 0.109937 0.000000 0.000000
# 5 0.000000 0.000000 0.000000 0.000000 0.036662 0.000000
# 6 0.000000 0.000000 0.000000 0.000000 0.000000 0.119288
#
#
# Mechanical properties :
#
#
# Convention : Reuss Voigt Hill
#
# Bulk Modulus (GPa) = 15.75958 53.18861 34.47409
# Shear Modulus (GPa) = 10.10906 16.34509 13.22708
#
# Velocity S-wave (km/s) = 2.78092 3.53612 3.18101
# Velocity P-wave (km/s) = 4.72943 7.57376 6.31385
#
# Compressibility (1/GPa) = 0.06345348
#
# Stress axis : x y z
#
# Youngs Moduli (GPa) = 45.73233 10.51908 53.82414
#
# Poissons Ratio (x) = 0.22166 0.62475
# Poissons Ratio (y) = 0.96367 0.18028
# Poissons Ratio (z) = 0.53083 0.03523
#
# Static dielectric constant tensor:
#      x y z
#    x 1.451140 0.000000 0.000000 
#    y 0.000000 1.382630 0.000000 
#    z 0.000000 0.000000 1.440850 
# 
# From -- ./inp_files/16918.got.cif
#   From: 2010.05.17/outbox.cif.g08.bks.cpg/sg65_9_cif.got.tgz:16918.got - 2010.06.03 17:01:31.
