data_PCOD9483673
_publ_section_title
;
Structure prediction by ZEFSAII (Michael W. Deem and Ramdas Pophale) SiO2 
 PCOD9483673
Probable space group: C M M M
;
_chemical_formula_sum "Si O2"
_cell_formula_units_Z 88
_cell_length_a 9.231565
_cell_length_b 29.267991
_cell_length_c 23.947524
_cell_angle_alpha 90.000000
_cell_angle_beta 90.000000
_cell_angle_gamma 90.000000
_cell_volume 6470.366215
_symmetry_space_group_name_H-M "C M M M"
_symmetry_group_IT_number 65
_symmetry_cell_setting 'orthorhombic'
loop_
_space_group_symop_operation_xyz
x,y,z
-x,-y,z
x,-y,-z
-x,y,-z
-x,-y,-z
x,y,-z
-x,y,z
x,-y,z
1/2+x,1/2+y,z
1/2-x,1/2-y,z
1/2+x,1/2-y,-z
1/2-x,1/2+y,-z
1/2-x,1/2-y,-z
1/2+x,1/2+y,-z
1/2-x,1/2+y,z
1/2+x,1/2-y,z
loop_
_atom_site_type_symbol
_atom_site_label
_atom_site_fract_x
_atom_site_fract_y
_atom_site_fract_z
Si Si1 0.173390 0.203063 0.565518
Si Si2 0.831103 0.444463 0.937762
Si Si3 0.324758 0.394249 0.387660
Si Si4 0.827234 0.554310 0.286381
Si Si5 0.665875 0.555537 0.827577
Si Si6 0.175933 0.947776 0.500000
O O1 0.208998 0.194148 0.500000
O O2 0.250000 0.250000 0.582236
O O3 0.212798 0.158695 0.601471
O O4 0.000000 0.208551 0.568492
O O5 0.825951 0.500000 0.937588
O O6 0.736327 0.428441 0.885674
O O7 0.000000 0.432129 0.930323
O O8 0.783957 0.429820 0.000000
O O9 0.500000 0.397609 0.381969
O O10 0.247948 0.416878 0.335008
O O11 0.281576 0.421607 0.443785
O O12 0.797387 0.500000 0.294960
O O13 0.760382 0.567611 0.226445
O O14 0.000000 0.560335 0.286341
O O15 0.500000 0.570651 0.821647
O O16 0.665228 0.500000 0.829609
O O17 0.000000 0.948172 0.500000
O O18 0.226813 0.000000 0.500000
#
# Coordination Sequence:
#
# PCOD9483673 Si02
#       6
#    16  16  16  16  16   8
#     4   9  17  30  47  66  85 102 124 157 198 245
#     4   8  13  21  33  49  70  96 125 160 203 243
#     4  10  18  30  46  63  80 101 133 167 199 240
#     4  10  20  31  41  55  78 107 137 169 205 245
#     4   9  16  25  37  52  70  96 132 170 203 235
#     4   9  16  26  42  61  79 101 129 163 200 235
#
# _framework density 13.600467
#
# number of rings (size 3 to 8) (size 9 to 14) (size 15 to 20)
#    0.000    2.818    0.909    2.182    0.000    5.091 
#    0.000    2.273    0.000    1.636    0.000    0.000 
#    0.000    0.000    0.000    0.000    0.000    0.909 
#
# Total GULP energy -245038.354411 kJ/mol
# GULP energy per Si atom -5569.053509 kJ/mol
# Density = 1.356951 g / cm^3
# Si number density = 13.600467 Si / 1000 Ang^3
#
#
#
# Elastic Constant Matrix: (Units=GPa)
#
#
# Indices 1 2 3 4 5 6 
#
# 1 54.5069 37.2636 58.3034 0.0000 0.0000 0.0000
# 2 37.2636 67.2232 50.3250 0.0000 0.0000 0.0000
# 3 58.3034 50.3250 128.3155 0.0000 0.0000 0.0000
# 4 0.0000 0.0000 0.0000 1.7059 0.0000 0.0000
# 5 0.0000 0.0000 0.0000 0.0000 25.1860 0.0000
# 6 0.0000 0.0000 0.0000 0.0000 0.0000 15.6949
#
#
#
# Elastic Compliance Matrix: (Units=1/GPa)
#
#
# Indices 1 2 3 4 5 6 
#
# 1 0.042283 -0.012820 -0.014184 0.000000 0.000000 0.000000
# 2 -0.012820 0.024946 -0.003959 0.000000 0.000000 0.000000
# 3 -0.014184 -0.003959 0.015791 0.000000 0.000000 0.000000
# 4 0.000000 0.000000 0.000000 0.586211 0.000000 0.000000
# 5 0.000000 0.000000 0.000000 0.000000 0.039705 0.000000
# 6 0.000000 0.000000 0.000000 0.000000 0.000000 0.063715
#
#
# Mechanical properties :
#
#
# Convention : Reuss Voigt Hill
#
# Bulk Modulus (GPa) = 47.40714 60.20330 53.80522
# Shear Modulus (GPa) = 5.94102 15.46092 10.70097
#
# Velocity S-wave (km/s) = 2.09230 3.37529 2.80805
# Velocity P-wave (km/s) = 6.38511 7.71698 7.08242
#
# Compressibility (1/GPa) = 0.02109387
#
# Stress axis : x y z
#
# Youngs Moduli (GPa) = 23.65019 40.08707 63.32735
#
# Poissons Ratio (x) = 0.51390 0.89827
# Poissons Ratio (y) = 0.30319 0.25069
# Poissons Ratio (z) = 0.33547 0.15869
#
# Static dielectric constant tensor:
#      x y z
#    x 1.454470 0.000000 0.000000 
#    y 0.000000 1.419620 0.000000 
#    z 0.000000 0.000000 1.444700 
# 
# From -- ./inp_files/66184.got.cif
#   From: 2010.05.17/outbox.cif.g08.bks.cpg/sg65_34_cif.got.tgz:66184.got - 2010.06.03 17:01:31.
