data_PCOD9483000
_publ_section_title
;
Structure prediction by ZEFSAII (Michael W. Deem and Ramdas Pophale) SiO2 
 PCOD9483000
Probable space group: C M M M
;
_chemical_formula_sum "Si O2"
_cell_formula_units_Z 84
_cell_length_a 11.848775
_cell_length_b 33.733073
_cell_length_c 13.068404
_cell_angle_alpha 90.000000
_cell_angle_beta 90.000000
_cell_angle_gamma 90.000000
_cell_volume 5223.383474
_symmetry_space_group_name_H-M "C M M M"
_symmetry_group_IT_number 65
_symmetry_cell_setting 'orthorhombic'
loop_
_space_group_symop_operation_xyz
x,y,z
-x,-y,z
x,-y,-z
-x,y,-z
-x,-y,-z
x,y,-z
-x,y,z
x,-y,z
1/2+x,1/2+y,z
1/2-x,1/2-y,z
1/2+x,1/2-y,-z
1/2-x,1/2+y,-z
1/2-x,1/2-y,-z
1/2+x,1/2+y,-z
1/2-x,1/2+y,z
1/2+x,1/2-y,z
loop_
_atom_site_type_symbol
_atom_site_label
_atom_site_fract_x
_atom_site_fract_y
_atom_site_fract_z
Si Si1 0.238738 0.297210 0.381445
Si Si2 0.000000 0.500000 0.783119
Si Si3 0.500000 0.912932 0.231533
Si Si4 0.864827 0.777385 0.000000
Si Si5 0.000000 0.661904 0.380305
Si Si6 0.759985 0.413509 0.876912
Si Si7 0.368347 0.335675 0.805206
Si Si8 0.244712 0.500000 0.121248
O O1 0.266350 0.307156 0.500000
O O2 0.250000 0.250000 0.370662
O O3 0.316278 0.318062 0.298022
O O4 0.111352 0.311995 0.361140
O O5 0.000000 0.541951 0.724385
O O6 0.111298 0.500000 0.853210
O O7 0.500000 0.877680 0.312988
O O8 0.612131 0.909623 0.163173
O O9 0.750000 0.750000 0.000000
O O10 0.854766 0.804651 0.898870
O O11 0.000000 0.762052 0.000000
O O12 0.000000 0.651106 0.500000
O O13 0.691040 0.376680 0.834530
O O14 0.714229 0.456909 0.841654
O O15 0.758584 0.412545 0.000000
O O16 0.500000 0.342622 0.791719
O O17 0.261462 0.500000 0.000000
#
# Coordination Sequence:
#
# PCOD9483000 Si02
#       8
#    16   4   8   8   8  16  16   8
#     4  10  22  39  58  79 103 134 176 225 272 314
#     4   8  15  24  47  74 106 138 166 206 264 312
#     4  10  17  32  51  79 108 137 173 216 260 322
#     4  10  22  42  56  77 111 150 182 221 269 328
#     4  10  20  35  56  80 106 132 167 221 270 317
#     4  10  18  32  51  78 108 140 176 211 262 311
#     4  11  22  36  55  76 107 142 177 219 267 316
#     4   8  15  26  47  73 104 137 172 214 251 309
#
# _framework density 16.081530999999998
#
# number of rings (size 3 to 8) (size 9 to 14) (size 15 to 20)
#    0.000    2.095    2.857    1.000    1.333    2.667 
#    3.429    0.714    0.000    1.714    0.000    0.667 
#    0.000    1.524    0.000    0.000    0.000    0.000 
#
# Total GULP energy -233891.178435 kJ/mol
# GULP energy per Si atom -5568.837582 kJ/mol
# Density = 1.604493 g / cm^3
# Si number density = 16.081531 Si / 1000 Ang^3
#
#
#
# Elastic Constant Matrix: (Units=GPa)
#
#
# Indices 1 2 3 4 5 6 
#
# 1 108.4992 86.1536 57.6045 0.0000 0.0000 0.0000
# 2 86.1536 135.5954 68.7189 0.0000 0.0000 0.0000
# 3 57.6045 68.7189 76.5092 0.0000 0.0000 0.0000
# 4 0.0000 0.0000 0.0000 23.2078 0.0000 0.0000
# 5 0.0000 0.0000 0.0000 0.0000 19.6405 0.0000
# 6 0.0000 0.0000 0.0000 0.0000 0.0000 25.2117
#
#
#
# Elastic Compliance Matrix: (Units=1/GPa)
#
#
# Indices 1 2 3 4 5 6 
#
# 1 0.020368 -0.009489 -0.006813 0.000000 0.000000 0.000000
# 2 -0.009489 0.017957 -0.008984 0.000000 0.000000 0.000000
# 3 -0.006813 -0.008984 0.026269 0.000000 0.000000 0.000000
# 4 0.000000 0.000000 0.000000 0.043089 0.000000 0.000000
# 5 0.000000 0.000000 0.000000 0.000000 0.050915 0.000000
# 6 0.000000 0.000000 0.000000 0.000000 0.000000 0.039664
#
#
# Mechanical properties :
#
#
# Convention : Reuss Voigt Hill
#
# Bulk Modulus (GPa) = 71.31346 82.83974 77.07660
# Shear Modulus (GPa) = 19.72314 20.82045 20.27180
#
# Velocity S-wave (km/s) = 3.50587 3.60207 3.55429
# Velocity P-wave (km/s) = 7.79932 8.30205 8.05461
#
# Compressibility (1/GPa) = 0.01402260
#
# Stress axis : x y z
#
# Youngs Moduli (GPa) = 49.09604 55.68868 38.06701
#
# Poissons Ratio (x) = 0.52841 0.25935
# Poissons Ratio (y) = 0.46586 0.34201
# Poissons Ratio (z) = 0.33449 0.50033
#
# Static dielectric constant tensor:
#      x y z
#    x 1.535180 0.000000 0.000000 
#    y 0.000000 1.559490 0.000000 
#    z 0.000000 0.000000 1.511230 
# 
# From -- ./inp_files/23062.got.cif
#   From: 2010.05.17/outbox.cif.g08.bks.cpg/sg65_12_cif.got.tgz:23062.got - 2010.06.03 17:01:31.
