data_PCOD9483751
_publ_section_title
;
Structure prediction by ZEFSAII (Michael W. Deem and Ramdas Pophale) SiO2 
 PCOD9483751
Probable space group: C M M M
;
_chemical_formula_sum "Si O2"
_cell_formula_units_Z 96
_cell_length_a 17.142816
_cell_length_b 30.556206
_cell_length_c 7.263606
_cell_angle_alpha 90.000000
_cell_angle_beta 90.000000
_cell_angle_gamma 90.000000
_cell_volume 3804.817861
_symmetry_space_group_name_H-M "C M M M"
_symmetry_group_IT_number 65
_symmetry_cell_setting 'orthorhombic'
loop_
_space_group_symop_operation_xyz
x,y,z
-x,-y,z
x,-y,-z
-x,y,-z
-x,-y,-z
x,y,-z
-x,y,z
x,-y,z
1/2+x,1/2+y,z
1/2-x,1/2-y,z
1/2+x,1/2-y,-z
1/2-x,1/2+y,-z
1/2-x,1/2-y,-z
1/2+x,1/2+y,-z
1/2-x,1/2+y,z
1/2+x,1/2-y,z
loop_
_atom_site_type_symbol
_atom_site_label
_atom_site_fract_x
_atom_site_fract_y
_atom_site_fract_z
Si Si1 0.621413 0.048719 0.790912
Si Si2 0.915225 0.738562 0.222787
Si Si3 0.791816 0.196280 0.209526
Si Si4 0.860235 0.644739 0.223268
Si Si5 0.411909 0.625079 0.723068
Si Si6 0.196945 0.952692 0.721490
O O1 0.608062 0.097533 0.709619
O O2 0.715723 0.049352 0.795153
O O3 0.600444 0.000000 0.712442
O O4 0.591369 0.048602 0.000000
O O5 0.832187 0.759323 0.287682
O O6 0.911902 0.687001 0.265738
O O7 0.000000 0.756152 0.286098
O O8 0.913747 0.742509 0.000000
O O9 0.725931 0.162646 0.285787
O O10 0.871007 0.168304 0.207786
O O11 0.765759 0.204398 0.000000
O O12 0.856473 0.639742 0.000000
O O13 0.410703 0.626239 0.500000
O O14 0.500000 0.620673 0.782884
O O15 0.358513 0.585266 0.785500
O O16 0.204376 0.949749 0.500000
O O17 0.163226 0.000000 0.766664
#
# Coordination Sequence:
#
# PCOD9483751 Si02
#       6
#    16  16  16  16  16  16
#     4   9  16  27  45  68  91 115 145 183 228 271
#     4   9  17  28  44  68  95 120 150 189 229 268
#     4  10  18  30  48  69  89 116 155 192 222 260
#     4   9  16  27  45  68  92 119 149 187 229 266
#     4  10  20  31  43  62  91 124 153 186 229 271
#     4   9  17  29  44  61  84 116 153 189 223 263
#
# _framework density 25.231168
#
# number of rings (size 3 to 8) (size 9 to 14) (size 15 to 20)
#    0.000    2.667    1.667    1.000    0.000    3.333 
#    0.000    1.667    0.000    3.500    0.000    7.000 
#    0.000    0.000    0.000    4.167    0.000    4.333 
#
# Total GULP energy -267732.993496 kJ/mol
# GULP energy per Si atom -5577.770698 kJ/mol
# Density = 2.517374 g / cm^3
# Si number density = 25.231168 Si / 1000 Ang^3
#
#
#
# Elastic Constant Matrix: (Units=GPa)
#
#
# Indices 1 2 3 4 5 6 
#
# 1 116.6150 11.6916 -0.1013 0.0000 0.0000 0.0000
# 2 11.6916 165.8994 6.1305 0.0000 0.0000 0.0000
# 3 -0.1013 6.1305 110.8601 0.0000 0.0000 0.0000
# 4 0.0000 0.0000 0.0000 2.4657 0.0000 0.0000
# 5 0.0000 0.0000 0.0000 0.0000 -78.5282 0.0000
# 6 0.0000 0.0000 0.0000 0.0000 0.0000 23.4425
#
#
#
# Elastic Compliance Matrix: (Units=1/GPa)
#
#
# Indices 1 2 3 4 5 6 
#
# 1 0.008636 -0.000610 0.000042 0.000000 0.000000 0.000000
# 2 -0.000610 0.006083 -0.000337 0.000000 0.000000 0.000000
# 3 0.000042 -0.000337 0.009039 0.000000 0.000000 0.000000
# 4 0.000000 0.000000 0.000000 0.405569 0.000000 0.000000
# 5 0.000000 0.000000 0.000000 0.000000 -0.012734 0.000000
# 6 0.000000 0.000000 0.000000 0.000000 0.000000 0.042658
#
#
# Mechanical properties :
#
#
# Convention : Reuss Voigt Hill
#
# Bulk Modulus (GPa) = 45.56289 47.64623 46.60456
# Shear Modulus (GPa) = 10.67514 14.51956 12.59735
#
# Velocity S-wave (km/s) = 2.05916 2.40148 2.23688
# Velocity P-wave (km/s) = 4.87349 5.15891 5.01823
#
# Compressibility (1/GPa) = 0.02194768
#
# Stress axis : x y z
#
# Youngs Moduli (GPa) = 115.78845 164.38710 110.63112
#
# Poissons Ratio (x) = 0.10031 -0.00461
# Poissons Ratio (y) = 0.07065 0.03728
# Poissons Ratio (z) = -0.00482 0.05539
#
# Static dielectric constant tensor:
#      x y z
#    x 1.949340 0.000000 0.000000 
#    y 0.000000 2.084820 0.000000 
#    z 0.000000 0.000000 1.963250 
# 
# From -- ./inp_files/12195.got.cif
#   From: 2010.05.17/outbox.cif.g08.bks.cpg/sg65_7_cif.got.tgz:12195.got - 2010.06.03 17:01:31.
