data_PCOD9483911
_publ_section_title
;
Structure prediction by ZEFSAII (Michael W. Deem and Ramdas Pophale) SiO2 
 PCOD9483911
Probable space group: C M M M
;
_chemical_formula_sum "Si O2"
_cell_formula_units_Z 72
_cell_length_a 34.791766
_cell_length_b 7.583409
_cell_length_c 13.152818
_cell_angle_alpha 90.000000
_cell_angle_beta 90.000000
_cell_angle_gamma 90.000000
_cell_volume 3470.242019
_symmetry_space_group_name_H-M "C M M M"
_symmetry_group_IT_number 65
_symmetry_cell_setting 'orthorhombic'
loop_
_space_group_symop_operation_xyz
x,y,z
-x,-y,z
x,-y,-z
-x,y,-z
-x,-y,-z
x,y,-z
-x,y,z
x,-y,z
1/2+x,1/2+y,z
1/2-x,1/2-y,z
1/2+x,1/2-y,-z
1/2-x,1/2+y,-z
1/2-x,1/2-y,-z
1/2+x,1/2+y,-z
1/2-x,1/2+y,z
1/2+x,1/2-y,z
loop_
_atom_site_type_symbol
_atom_site_label
_atom_site_fract_x
_atom_site_fract_y
_atom_site_fract_z
Si Si1 0.438240 0.286874 0.388948
Si Si2 0.294867 0.288418 0.500000
Si Si3 0.648156 0.285137 0.671721
Si Si4 0.626952 0.705624 0.890009
Si Si5 0.541334 0.204194 0.835726
O O1 0.452203 0.229140 0.500000
O O2 0.441985 0.500000 0.384490
O O3 0.392944 0.243572 0.378847
O O4 0.457103 0.214691 0.287084
O O5 0.299275 0.500000 0.500000
O O6 0.250000 0.250000 0.500000
O O7 0.317388 0.223306 0.399780
O O8 0.649617 0.500000 0.676084
O O9 0.645909 0.218779 0.787733
O O10 0.637798 0.500000 0.893190
O O11 0.580764 0.711662 0.874088
O O12 0.636166 0.785040 0.000000
O O13 0.500000 0.278251 0.868912
O O14 0.542856 0.000000 0.866250
#
# Coordination Sequence:
#
# PCOD9483911 Si02
#       5
#    16   8  16  16  16
#     4   9  16  29  50  70  88 120 167 211 247 283
#     4  10  18  30  50  76 105 132 153 181 226 283
#     4   8  14  28  50  72  96 124 153 191 237 281
#     4   9  18  33  54  75  90 115 164 215 249 281
#     4  10  21  33  43  62  96 133 163 196 246 303
#
# _framework density 20.747831000000001
#
# number of rings (size 3 to 8) (size 9 to 14) (size 15 to 20)
#    0.000    2.889    1.111    2.000    0.000    3.556 
#    0.000    8.889    0.000    0.667    0.000    0.000 
#    0.000    0.000    0.000    0.000    0.000    0.000 
#
# Total GULP energy -200798.599682 kJ/mol
# GULP energy per Si atom -5577.738880 kJ/mol
# Density = 2.070061 g / cm^3
# Si number density = 20.747831 Si / 1000 Ang^3
#
#
#
# Elastic Constant Matrix: (Units=GPa)
#
#
# Indices 1 2 3 4 5 6 
#
# 1 110.6438 -2.3599 50.8084 0.0000 0.0000 0.0000
# 2 -2.3599 46.2595 3.5087 0.0000 0.0000 0.0000
# 3 50.8084 3.5087 177.3197 0.0000 0.0000 0.0000
# 4 0.0000 0.0000 0.0000 -12.1049 0.0000 0.0000
# 5 0.0000 0.0000 0.0000 0.0000 79.9831 0.0000
# 6 0.0000 0.0000 0.0000 0.0000 0.0000 15.4561
#
#
#
# Elastic Compliance Matrix: (Units=1/GPa)
#
#
# Indices 1 2 3 4 5 6 
#
# 1 0.010434 0.000760 -0.003005 0.000000 0.000000 0.000000
# 2 0.000760 0.021705 -0.000647 0.000000 0.000000 0.000000
# 3 -0.003005 -0.000647 0.006513 0.000000 0.000000 0.000000
# 4 0.000000 0.000000 0.000000 -0.082611 0.000000 0.000000
# 5 0.000000 0.000000 0.000000 0.000000 0.012503 0.000000
# 6 0.000000 0.000000 0.000000 0.000000 0.000000 0.064699
#
#
# Mechanical properties :
#
#
# Convention : Reuss Voigt Hill
#
# Bulk Modulus (GPa) = 30.42411 48.68193 39.55302
# Shear Modulus (GPa) = 100.03302 35.48457 67.75879
#
# Velocity S-wave (km/s) = 6.95114 4.14004 5.72094
# Velocity P-wave (km/s) = 8.89495 6.80939 7.92111
#
# Compressibility (1/GPa) = 0.03286866
#
# Stress axis : x y z
#
# Youngs Moduli (GPa) = 95.84021 46.07218 153.53174
#
# Poissons Ratio (x) = -0.03502 0.46133
# Poissons Ratio (y) = -0.07286 0.09938
# Poissons Ratio (z) = 0.28798 0.02982
#
# Static dielectric constant tensor:
#      x y z
#    x 1.704450 0.000000 0.000000 
#    y 0.000000 1.775230 0.000000 
#    z 0.000000 0.000000 1.797790 
# 
# From -- ./inp_files/47452.got.cif
#   From: 2010.05.17/outbox.cif.g08.bks.cpg/sg65_24_cif.got.tgz:47452.got - 2010.06.03 17:01:31.
