data_PCOD9483057
_publ_section_title
;
Structure prediction by ZEFSAII (Michael W. Deem and Ramdas Pophale) SiO2 
 PCOD9483057
Probable space group: C M M M
;
_chemical_formula_sum "Si O2"
_cell_formula_units_Z 100
_cell_length_a 7.912071
_cell_length_b 18.857529
_cell_length_c 33.988618
_cell_angle_alpha 90.000000
_cell_angle_beta 90.000000
_cell_angle_gamma 90.000000
_cell_volume 5071.173465
_symmetry_space_group_name_H-M "C M M M"
_symmetry_group_IT_number 65
_symmetry_cell_setting 'orthorhombic'
loop_
_space_group_symop_operation_xyz
x,y,z
-x,-y,z
x,-y,-z
-x,y,-z
-x,-y,-z
x,y,-z
-x,y,z
x,-y,z
1/2+x,1/2+y,z
1/2-x,1/2-y,z
1/2+x,1/2-y,-z
1/2-x,1/2+y,-z
1/2-x,1/2-y,-z
1/2+x,1/2+y,-z
1/2-x,1/2+y,z
1/2+x,1/2-y,z
loop_
_atom_site_type_symbol
_atom_site_label
_atom_site_fract_x
_atom_site_fract_y
_atom_site_fract_z
Si Si1 0.500000 0.377713 0.000000
Si Si2 0.701754 0.668710 0.544153
Si Si3 0.304459 0.586113 0.143804
Si Si4 0.203301 0.919100 0.229289
Si Si5 0.797511 0.420019 0.619627
Si Si6 0.298800 0.831851 0.305944
Si Si7 0.808975 0.413834 0.941996
O O1 0.652001 0.382652 0.966146
O O2 0.766491 0.652191 0.500000
O O3 0.500000 0.664259 0.543280
O O4 0.750000 0.750000 0.553016
O O5 0.764378 0.617648 0.578251
O O6 0.500000 0.608789 0.139864
O O7 0.304494 0.500000 0.145399
O O8 0.235093 0.608013 0.186545
O O9 0.209199 0.605501 0.104014
O O10 0.244771 0.869994 0.265854
O O11 0.000000 0.922650 0.225627
O O12 0.264829 0.000000 0.236056
O O13 0.729847 0.500000 0.620547
O O14 0.729501 0.373536 0.655943
O O15 0.000000 0.423893 0.624205
O O16 0.500000 0.835530 0.307648
O O17 0.250000 0.750000 0.306792
O O18 0.793174 0.500000 0.945712
O O19 0.000000 0.394970 0.954888
#
# Coordination Sequence:
#
# PCOD9483057 Si02
#       7
#     4  16  16  16  16  16  16
#     4  12  19  26  36  50  86 128 168 222 268 314
#     4  10  21  37  58  84 113 147 188 232 279 331
#     4   8  14  27  44  62  89 124 163 211 261 312
#     4   9  18  33  55  80 105 137 178 220 269 328
#     4  10  22  39  58  82 112 146 184 229 280 333
#     4  11  23  38  56  79 109 142 180 224 275 328
#     4  10  18  25  36  55  80 120 172 216 262 320
#
# _framework density 19.719301999999999
#
# number of rings (size 3 to 8) (size 9 to 14) (size 15 to 20)
#    0.000    2.240    0.800    3.840    0.000    6.400 
#    0.000    3.200    0.000    0.000    0.000    0.000 
#    0.000    0.000    0.000    0.720    3.520    1.760 
#
# Total GULP energy -278429.588268 kJ/mol
# GULP energy per Si atom -5568.591765 kJ/mol
# Density = 1.967442 g / cm^3
# Si number density = 19.719302 Si / 1000 Ang^3
#
#
#
# Elastic Constant Matrix: (Units=GPa)
#
#
# Indices 1 2 3 4 5 6 
#
# 1 77.3784 18.1190 37.7223 0.0000 0.0000 0.0000
# 2 18.1190 81.2480 90.4561 0.0000 0.0000 0.0000
# 3 37.7223 90.4561 192.5380 0.0000 0.0000 0.0000
# 4 0.0000 0.0000 0.0000 -12.0168 0.0000 0.0000
# 5 0.0000 0.0000 0.0000 0.0000 53.2750 0.0000
# 6 0.0000 0.0000 0.0000 0.0000 0.0000 9.2214
#
#
#
# Elastic Compliance Matrix: (Units=1/GPa)
#
#
# Indices 1 2 3 4 5 6 
#
# 1 0.014289 -0.000146 -0.002731 0.000000 0.000000 0.000000
# 2 -0.000146 0.025807 -0.012096 0.000000 0.000000 0.000000
# 3 -0.002731 -0.012096 0.011412 0.000000 0.000000 0.000000
# 4 0.000000 0.000000 0.000000 -0.083217 0.000000 0.000000
# 5 0.000000 0.000000 0.000000 0.000000 0.018771 0.000000
# 6 0.000000 0.000000 0.000000 0.000000 0.000000 0.108444
#
#
# Mechanical properties :
#
#
# Convention : Reuss Voigt Hill
#
# Bulk Modulus (GPa) = 46.37783 71.52881 58.95332
# Shear Modulus (GPa) = 37.69633 23.75369 30.72501
#
# Velocity S-wave (km/s) = 4.37698 3.47449 3.95158
# Velocity P-wave (km/s) = 7.00814 7.24212 7.12609
#
# Compressibility (1/GPa) = 0.02156202
#
# Stress axis : x y z
#
# Youngs Moduli (GPa) = 69.98371 38.74858 87.63041
#
# Poissons Ratio (x) = 0.00567 0.23930
# Poissons Ratio (y) = 0.01024 1.05997
# Poissons Ratio (z) = 0.19111 0.46870
#
# Static dielectric constant tensor:
#      x y z
#    x 1.673330 0.000000 0.000000 
#    y 0.000000 1.719680 0.000000 
#    z 0.000000 0.000000 1.722800 
# 
# From -- ./inp_files/76851.got.cif
#   From: 2010.05.17/outbox.cif.g08.bks.cpg/sg65_39_cif.got.tgz:76851.got - 2010.06.03 17:01:31.
