data_PCOD9483254
_publ_section_title
;
Structure prediction by ZEFSAII (Michael W. Deem and Ramdas Pophale) SiO2 
 PCOD9483254
Probable space group: C M M M
;
_chemical_formula_sum "Si O2"
_cell_formula_units_Z 72
_cell_length_a 21.941609
_cell_length_b 20.633629
_cell_length_c 10.579034
_cell_angle_alpha 90.000000
_cell_angle_beta 90.000000
_cell_angle_gamma 90.000000
_cell_volume 4789.499167
_symmetry_space_group_name_H-M "C M M M"
_symmetry_group_IT_number 65
_symmetry_cell_setting 'orthorhombic'
loop_
_space_group_symop_operation_xyz
x,y,z
-x,-y,z
x,-y,-z
-x,y,-z
-x,-y,-z
x,y,-z
-x,y,z
x,-y,z
1/2+x,1/2+y,z
1/2-x,1/2-y,z
1/2+x,1/2-y,-z
1/2-x,1/2+y,-z
1/2-x,1/2-y,-z
1/2+x,1/2+y,-z
1/2-x,1/2+y,z
1/2+x,1/2-y,z
loop_
_atom_site_type_symbol
_atom_site_label
_atom_site_fract_x
_atom_site_fract_y
_atom_site_fract_z
Si Si1 0.850274 0.280665 0.000000
Si Si2 0.753802 0.577185 0.246978
Si Si3 0.717432 0.649642 0.000000
Si Si4 0.845778 0.274662 0.500000
Si Si5 0.781000 0.144175 0.500000
Si Si6 0.500000 0.077482 0.348711
Si Si7 0.116998 0.652492 0.745420
O O1 0.782870 0.313410 0.000000
O O2 0.834962 0.204253 0.000000
O O3 0.883502 0.306813 0.125115
O O4 0.757892 0.500000 0.240726
O O5 0.721232 0.601108 0.374698
O O6 0.821759 0.608422 0.250143
O O7 0.719238 0.606484 0.125827
O O8 0.833136 0.198390 0.500000
O O9 0.781286 0.313247 0.500000
O O10 0.877783 0.298787 0.627058
O O11 0.500000 0.092443 0.500000
O O12 0.440744 0.107678 0.282423
O O13 0.500000 0.000000 0.337001
#
# Coordination Sequence:
#
# PCOD9483254 Si02
#       7
#     8  16   8   8   8   8  16
#     4   9  18  31  49  66  88 114 157 198 235 273
#     4  10  18  28  43  66  95 125 155 185 226 281
#     4   9  17  30  46  66  89 122 150 185 233 287
#     4   9  16  29  45  62  84 116 161 198 235 277
#     4   9  17  26  42  64  87 116 154 197 233 271
#     4  11  22  35  49  67  93 129 168 202 233 262
#     4  10  19  32  47  66  88 125 164 200 230 261
#
# _framework density 15.032887000000001
#
# number of rings (size 3 to 8) (size 9 to 14) (size 15 to 20)
#    0.000    2.333    1.111    2.667    0.000    5.778 
#    0.000    2.222    0.000    0.000    0.000    0.000 
#    0.000    0.000    0.000   70.000    0.000    0.000 
#
# Total GULP energy -200636.486831 kJ/mol
# GULP energy per Si atom -5573.235745 kJ/mol
# Density = 1.499867 g / cm^3
# Si number density = 15.032887 Si / 1000 Ang^3
#
#
#
# Elastic Constant Matrix: (Units=GPa)
#
#
# Indices 1 2 3 4 5 6 
#
# 1 47.2438 44.0853 43.8186 0.0000 0.0000 0.0000
# 2 44.0853 123.5035 82.5999 0.0000 0.0000 0.0000
# 3 43.8186 82.5999 171.0976 0.0000 0.0000 0.0000
# 4 0.0000 0.0000 0.0000 21.2552 0.0000 0.0000
# 5 0.0000 0.0000 0.0000 0.0000 9.9681 0.0000
# 6 0.0000 0.0000 0.0000 0.0000 0.0000 25.5149
#
#
#
# Elastic Compliance Matrix: (Units=1/GPa)
#
#
# Indices 1 2 3 4 5 6 
#
# 1 0.033632 -0.009222 -0.004161 0.000000 0.000000 0.000000
# 2 -0.009222 0.014487 -0.004632 0.000000 0.000000 0.000000
# 3 -0.004161 -0.004632 0.009146 0.000000 0.000000 0.000000
# 4 0.000000 0.000000 0.000000 0.047047 0.000000 0.000000
# 5 0.000000 0.000000 0.000000 0.000000 0.100320 0.000000
# 6 0.000000 0.000000 0.000000 0.000000 0.000000 0.039193
#
#
# Mechanical properties :
#
#
# Convention : Reuss Voigt Hill
#
# Bulk Modulus (GPa) = 47.09271 75.87250 61.48261
# Shear Modulus (GPa) = 17.42566 22.77038 20.09802
#
# Velocity S-wave (km/s) = 3.40835 3.89614 3.66038
# Velocity P-wave (km/s) = 6.84716 8.41549 7.67151
#
# Compressibility (1/GPa) = 0.02123471
#
# Stress axis : x y z
#
# Youngs Moduli (GPa) = 29.73386 69.02935 109.33294
#
# Poissons Ratio (x) = 0.63659 0.45495
# Poissons Ratio (y) = 0.27421 0.50641
# Poissons Ratio (z) = 0.12373 0.31973
#
# Static dielectric constant tensor:
#      x y z
#    x 1.478340 0.000000 0.000000 
#    y 0.000000 1.481080 0.000000 
#    z 0.000000 0.000000 1.505450 
# 
# From -- ./inp_files/11364.got.cif
#   From: 2010.05.17/outbox.cif.g08.bks.cpg/sg65_6_cif.got.tgz:11364.got - 2010.06.03 17:01:31.
