data_PCOD9483416
_publ_section_title
;
Structure prediction by ZEFSAII (Michael W. Deem and Ramdas Pophale) SiO2 
 PCOD9483416
Probable space group: C M M M
;
_chemical_formula_sum "Si O2"
_cell_formula_units_Z 96
_cell_length_a 26.760696
_cell_length_b 29.604327
_cell_length_c 9.191875
_cell_angle_alpha 90.000000
_cell_angle_beta 90.000000
_cell_angle_gamma 90.000000
_cell_volume 7282.101147
_symmetry_space_group_name_H-M "C M M M"
_symmetry_group_IT_number 65
_symmetry_cell_setting 'orthorhombic'
loop_
_space_group_symop_operation_xyz
x,y,z
-x,-y,z
x,-y,-z
-x,y,-z
-x,-y,-z
x,y,-z
-x,y,z
x,-y,z
1/2+x,1/2+y,z
1/2-x,1/2-y,z
1/2+x,1/2-y,-z
1/2-x,1/2+y,-z
1/2-x,1/2-y,-z
1/2+x,1/2+y,-z
1/2-x,1/2+y,z
1/2+x,1/2-y,z
loop_
_atom_site_type_symbol
_atom_site_label
_atom_site_fract_x
_atom_site_fract_y
_atom_site_fract_z
Si Si1 0.854358 0.198612 0.172600
Si Si2 0.209609 0.050640 0.174551
Si Si3 0.249477 0.144741 0.827332
Si Si4 0.102012 0.949760 0.325422
Si Si5 0.697536 0.222306 0.667412
Si Si6 0.443212 0.354742 0.324803
O O1 0.805557 0.166738 0.196645
O O2 0.840676 0.246769 0.243001
O O3 0.901867 0.175719 0.247380
O O4 0.861299 0.202624 0.000000
O O5 0.244728 0.092412 0.216408
O O6 0.155908 0.055749 0.250658
O O7 0.228275 0.000000 0.207620
O O8 0.202278 0.053858 0.000000
O O9 0.289116 0.174680 0.740581
O O10 0.259623 0.148084 0.000000
O O11 0.108624 0.948776 0.500000
O O12 0.067918 0.907186 0.286778
O O13 0.082684 0.000000 0.286921
O O14 0.682193 0.217597 0.500000
O O15 0.750000 0.250000 0.670067
O O16 0.438050 0.350529 0.500000
O O17 0.500000 0.343062 0.285357
#
# Coordination Sequence:
#
# PCOD9483416 Si02
#       6
#    16  16  16  16  16  16
#     4  10  18  29  43  58  76  98 124 161 200 238
#     4   9  16  26  40  57  78 104 131 159 195 235
#     4   9  16  26  40  59  79 100 126 158 193 231
#     4   9  17  28  41  55  71  95 129 168 207 243
#     4   9  17  27  41  60  78  98 121 151 192 237
#     4  10  20  31  42  56  75 100 130 166 207 247
#
# _framework density 13.183007999999999
#
# number of rings (size 3 to 8) (size 9 to 14) (size 15 to 20)
#    0.000    2.667    1.667    1.000    0.000    4.000 
#    0.000    1.667    0.000    0.000    0.000    3.500 
#    0.000    0.000    0.000    0.000    0.000    0.833 
#
# Total GULP energy -267350.305785 kJ/mol
# GULP energy per Si atom -5569.798037 kJ/mol
# Density = 1.315300 g / cm^3
# Si number density = 13.183008 Si / 1000 Ang^3
#
#
#
# Elastic Constant Matrix: (Units=GPa)
#
#
# Indices 1 2 3 4 5 6 
#
# 1 52.2598 49.2140 33.4787 0.0000 0.0000 0.0000
# 2 49.2140 96.9755 44.9918 0.0000 0.0000 0.0000
# 3 33.4787 44.9918 40.3395 0.0000 0.0000 0.0000
# 4 0.0000 0.0000 0.0000 19.5467 0.0000 0.0000
# 5 0.0000 0.0000 0.0000 0.0000 14.5613 0.0000
# 6 0.0000 0.0000 0.0000 0.0000 0.0000 16.9174
#
#
#
# Elastic Compliance Matrix: (Units=1/GPa)
#
#
# Indices 1 2 3 4 5 6 
#
# 1 0.046594 -0.011823 -0.025483 0.000000 0.000000 0.000000
# 2 -0.011823 0.024370 -0.017368 0.000000 0.000000 0.000000
# 3 -0.025483 -0.017368 0.065310 0.000000 0.000000 0.000000
# 4 0.000000 0.000000 0.000000 0.051159 0.000000 0.000000
# 5 0.000000 0.000000 0.000000 0.000000 0.068675 0.000000
# 6 0.000000 0.000000 0.000000 0.000000 0.000000 0.059111
#
#
# Mechanical properties :
#
#
# Convention : Reuss Voigt Hill
#
# Bulk Modulus (GPa) = 37.13974 49.43820 43.28897
# Shear Modulus (GPa) = 11.53288 14.33110 12.93199
#
# Velocity S-wave (km/s) = 2.96096 3.30068 3.13542
# Velocity P-wave (km/s) = 6.31849 7.21865 6.78352
#
# Compressibility (1/GPa) = 0.02692534
#
# Stress axis : x y z
#
# Youngs Moduli (GPa) = 21.46188 41.03396 15.31167
#
# Poissons Ratio (x) = 0.48516 0.39018
# Poissons Ratio (y) = 0.25375 0.26594
# Poissons Ratio (z) = 0.54691 0.71269
#
# Static dielectric constant tensor:
#      x y z
#    x 1.390270 0.000000 0.000000 
#    y 0.000000 1.450990 0.000000 
#    z 0.000000 0.000000 1.439100 
# 
# From -- ./inp_files/14585.got.cif
#   From: 2010.05.17/outbox.cif.g08.bks.cpg/sg65_8_cif.got.tgz:14585.got - 2010.06.03 17:01:31.
