data_PCOD9483760
_publ_section_title
;
Structure prediction by ZEFSAII (Michael W. Deem and Ramdas Pophale) SiO2 
 PCOD9483760
Probable space group: C M M M
;
_chemical_formula_sum "Si O2"
_cell_formula_units_Z 96
_cell_length_a 19.956982
_cell_length_b 30.977396
_cell_length_c 9.498759
_cell_angle_alpha 90.000000
_cell_angle_beta 90.000000
_cell_angle_gamma 90.000000
_cell_volume 5872.278471
_symmetry_space_group_name_H-M "C M M M"
_symmetry_group_IT_number 65
_symmetry_cell_setting 'orthorhombic'
loop_
_space_group_symop_operation_xyz
x,y,z
-x,-y,z
x,-y,-z
-x,y,-z
-x,-y,-z
x,y,-z
-x,y,z
x,-y,z
1/2+x,1/2+y,z
1/2-x,1/2-y,z
1/2+x,1/2-y,-z
1/2-x,1/2+y,-z
1/2-x,1/2-y,-z
1/2+x,1/2+y,-z
1/2-x,1/2+y,z
1/2+x,1/2-y,z
loop_
_atom_site_type_symbol
_atom_site_label
_atom_site_fract_x
_atom_site_fract_y
_atom_site_fract_z
Si Si1 0.267045 0.547347 0.663262
Si Si2 0.923154 0.281606 0.664019
Si Si3 0.391898 0.867392 0.834637
Si Si4 0.604143 0.048693 0.336881
Si Si5 0.819849 0.224214 0.833956
Si Si6 0.729747 0.630247 0.164364
O O1 0.286288 0.550657 0.500000
O O2 0.287639 0.500000 0.717428
O O3 0.185592 0.548112 0.666786
O O4 0.291330 0.588414 0.748859
O O5 0.904607 0.287909 0.500000
O O6 0.918081 0.326790 0.747184
O O7 0.874496 0.247894 0.739861
O O8 0.000000 0.266741 0.669845
O O9 0.415713 0.912262 0.764578
O O10 0.310561 0.865154 0.823228
O O11 0.409001 0.865042 0.000000
O O12 0.584755 0.056631 0.500000
O O13 0.582158 0.000000 0.298157
O O14 0.750000 0.250000 0.821570
O O15 0.804845 0.174898 0.792046
O O16 0.838657 0.225559 0.000000
O O17 0.715675 0.623523 0.000000
#
# Coordination Sequence:
#
# PCOD9483760 Si02
#       6
#    16  16  16  16  16  16
#     4   8  14  24  38  60  93 129 160 191 230 279
#     4  11  24  38  51  71  98 128 166 207 247 296
#     4  10  18  30  48  69  94 125 162 203 247 293
#     4   8  14  25  41  63  92 124 158 198 244 291
#     4  10  19  35  54  74 101 128 161 205 249 295
#     4   9  17  28  45  70  97 124 157 199 240 284
#
# _framework density 16.347998
#
# number of rings (size 3 to 8) (size 9 to 14) (size 15 to 20)
#    0.000    2.667    1.667    2.000    0.000    3.667 
#    0.000    3.333    0.000    0.500    0.000    3.500 
#    0.000    0.667    0.000    7.333    0.000    5.667 
#
# Total GULP energy -267611.476616 kJ/mol
# GULP energy per Si atom -5575.239096 kJ/mol
# Density = 1.631079 g / cm^3
# Si number density = 16.347998 Si / 1000 Ang^3
#
#
#
# Elastic Constant Matrix: (Units=GPa)
#
#
# Indices 1 2 3 4 5 6 
#
# 1 37.4707 42.8548 43.1930 0.0000 0.0000 0.0000
# 2 42.8548 166.9244 87.9934 0.0000 0.0000 0.0000
# 3 43.1930 87.9934 97.9761 0.0000 0.0000 0.0000
# 4 0.0000 0.0000 0.0000 36.2706 0.0000 0.0000
# 5 0.0000 0.0000 0.0000 0.0000 11.1073 0.0000
# 6 0.0000 0.0000 0.0000 0.0000 0.0000 -2.6232
#
#
#
# Elastic Compliance Matrix: (Units=1/GPa)
#
#
# Indices 1 2 3 4 5 6 
#
# 1 0.054821 -0.002534 -0.021892 0.000000 0.000000 0.000000
# 2 -0.002534 0.011494 -0.009206 0.000000 0.000000 0.000000
# 3 -0.021892 -0.009206 0.028126 0.000000 0.000000 0.000000
# 4 0.000000 0.000000 0.000000 0.027571 0.000000 0.000000
# 5 0.000000 0.000000 0.000000 0.000000 0.090031 0.000000
# 6 0.000000 0.000000 0.000000 0.000000 0.000000 -0.381207
#
#
# Mechanical properties :
#
#
# Convention : Reuss Voigt Hill
#
# Bulk Modulus (GPa) = 36.79621 72.27263 54.53442
# Shear Modulus (GPa) = -53.85472 17.50627 -18.17423
#
# Velocity S-wave (km/s) = -5.74580 3.27594 -3.33785
# Velocity P-wave (km/s) = 4.63271 7.65597 4.30998
#
# Compressibility (1/GPa) = 0.02717672
#
# Stress axis : x y z
#
# Youngs Moduli (GPa) = 18.24124 87.00088 35.55465
#
# Poissons Ratio (x) = 0.22045 0.77837
# Poissons Ratio (y) = 0.04622 0.32731
# Poissons Ratio (z) = 0.39934 0.80092
#
# Static dielectric constant tensor:
#      x y z
#    x 1.538280 0.000000 0.000000 
#    y 0.000000 1.554060 0.000000 
#    z 0.000000 0.000000 1.544580 
# 
# From -- ./inp_files/12299.got.cif
#   From: 2010.05.17/outbox.cif.g08.bks.cpg/sg65_7_cif.got.tgz:12299.got - 2010.06.03 17:01:31.
