data_PCOD9483167
_publ_section_title
;
Structure prediction by ZEFSAII (Michael W. Deem and Ramdas Pophale) SiO2 
 PCOD9483167
Probable space group: C M M M
;
_chemical_formula_sum "Si O2"
_cell_formula_units_Z 112
_cell_length_a 28.050199
_cell_length_b 13.909269
_cell_length_c 16.030017
_cell_angle_alpha 90.000000
_cell_angle_beta 90.000000
_cell_angle_gamma 90.000000
_cell_volume 6254.235580
_symmetry_space_group_name_H-M "C M M M"
_symmetry_group_IT_number 65
_symmetry_cell_setting 'orthorhombic'
loop_
_space_group_symop_operation_xyz
x,y,z
-x,-y,z
x,-y,-z
-x,y,-z
-x,-y,-z
x,y,-z
-x,y,z
x,-y,z
1/2+x,1/2+y,z
1/2-x,1/2-y,z
1/2+x,1/2-y,-z
1/2-x,1/2+y,-z
1/2-x,1/2-y,-z
1/2+x,1/2+y,-z
1/2-x,1/2+y,z
1/2+x,1/2-y,z
loop_
_atom_site_type_symbol
_atom_site_label
_atom_site_fract_x
_atom_site_fract_y
_atom_site_fract_z
Si Si1 0.845769 0.885172 0.153029
Si Si2 0.727180 0.611649 0.592241
Si Si3 0.948449 0.887076 0.100379
Si Si4 0.855747 0.208451 0.674163
Si Si5 0.444739 0.611013 0.399687
Si Si6 0.193648 0.613293 0.735062
Si Si7 0.243443 0.383286 0.092000
O O1 0.897838 0.844943 0.128573
O O2 0.840076 0.860167 0.249487
O O3 0.798452 0.852000 0.104935
O O4 0.847587 0.000000 0.139904
O O5 0.748730 0.624736 0.500000
O O6 0.711202 0.500000 0.597493
O O7 0.682153 0.680647 0.603242
O O8 0.764505 0.626962 0.666684
O O9 0.000000 0.846535 0.128699
O O10 0.948549 0.000000 0.125468
O O11 0.948194 0.884912 0.000000
O O12 0.908178 0.180691 0.645343
O O13 0.848122 0.316295 0.705997
O O14 0.440264 0.618953 0.500000
O O15 0.500000 0.627984 0.378206
O O16 0.433243 0.500000 0.377324
O O17 0.181785 0.500000 0.736603
O O18 0.213246 0.643302 0.826194
O O19 0.243818 0.500000 0.093241
O O20 0.226315 0.353865 0.000000
#
# Coordination Sequence:
#
# PCOD9483167 Si02
#       7
#    16  16  16  16  16  16  16
#     4  10  18  27  43  70 100 130 171 221 265 323
#     4  10  20  34  53  77 107 140 172 211 260 314
#     4   8  14  25  40  60  92 132 166 198 247 313
#     4  12  21  31  52  76 104 138 177 216 261 312
#     4   9  19  36  57  83 114 144 175 212 257 317
#     4  10  22  38  51  72 105 138 183 231 269 315
#     4   9  17  32  52  69  96 141 183 226 280 329
#
# _framework density 17.907864
#
# number of rings (size 3 to 8) (size 9 to 14) (size 15 to 20)
#    0.000    2.286    1.429    3.429    0.000    5.143 
#    0.000    3.571    0.000    0.429    0.000    1.000 
#    0.000    0.000    0.000    5.143    0.000    0.143 
#
# Total GULP energy -312302.003337 kJ/mol
# GULP energy per Si atom -5576.821488 kJ/mol
# Density = 1.786710 g / cm^3
# Si number density = 17.907864 Si / 1000 Ang^3
#
#
#
# Elastic Constant Matrix: (Units=GPa)
#
#
# Indices 1 2 3 4 5 6 
#
# 1 90.8155 55.7535 40.9888 0.0000 0.0000 0.0000
# 2 55.7535 73.1239 27.6405 0.0000 0.0000 0.0000
# 3 40.9888 27.6405 99.4034 0.0000 0.0000 0.0000
# 4 0.0000 0.0000 0.0000 9.1624 0.0000 0.0000
# 5 0.0000 0.0000 0.0000 0.0000 24.5237 0.0000
# 6 0.0000 0.0000 0.0000 0.0000 0.0000 18.7248
#
#
#
# Elastic Compliance Matrix: (Units=1/GPa)
#
#
# Indices 1 2 3 4 5 6 
#
# 1 0.022806 -0.015459 -0.005106 0.000000 0.000000 0.000000
# 2 -0.015459 0.025760 -0.000789 0.000000 0.000000 0.000000
# 3 -0.005106 -0.000789 0.012385 0.000000 0.000000 0.000000
# 4 0.000000 0.000000 0.000000 0.109142 0.000000 0.000000
# 5 0.000000 0.000000 0.000000 0.000000 0.040777 0.000000
# 6 0.000000 0.000000 0.000000 0.000000 0.000000 0.053405
#
#
# Mechanical properties :
#
#
# Convention : Reuss Voigt Hill
#
# Bulk Modulus (GPa) = 54.80940 56.90093 55.85517
# Shear Modulus (GPa) = 15.97129 19.74618 17.85874
#
# Velocity S-wave (km/s) = 2.98964 3.32423 3.16136
# Velocity P-wave (km/s) = 6.52610 6.82475 6.67710
#
# Compressibility (1/GPa) = 0.01824505
#
# Stress axis : x y z
#
# Youngs Moduli (GPa) = 43.84796 38.81988 80.74579
#
# Poissons Ratio (x) = 0.60010 0.41225
# Poissons Ratio (y) = 0.67783 0.06367
# Poissons Ratio (z) = 0.22387 0.03061
#
# Static dielectric constant tensor:
#      x y z
#    x 1.639520 0.000000 0.000000 
#    y 0.000000 1.630920 0.000000 
#    z 0.000000 0.000000 1.661110 
# 
# From -- ./inp_files/45761.got.cif
#   From: 2010.05.17/outbox.cif.g08.bks.cpg/sg65_23_cif.got.tgz:45761.got - 2010.06.03 17:01:31.
