data_PCOD9483744
_publ_section_title
;
Structure prediction by ZEFSAII (Michael W. Deem and Ramdas Pophale) SiO2 
 PCOD9483744
Probable space group: C M M M
;
_chemical_formula_sum "Si O2"
_cell_formula_units_Z 64
_cell_length_a 29.341998
_cell_length_b 8.586370
_cell_length_c 16.102021
_cell_angle_alpha 90.000000
_cell_angle_beta 90.000000
_cell_angle_gamma 90.000000
_cell_volume 4056.763320
_symmetry_space_group_name_H-M "C M M M"
_symmetry_group_IT_number 65
_symmetry_cell_setting 'orthorhombic'
loop_
_space_group_symop_operation_xyz
x,y,z
-x,-y,z
x,-y,-z
-x,y,-z
-x,-y,-z
x,y,-z
-x,y,z
x,-y,z
1/2+x,1/2+y,z
1/2-x,1/2-y,z
1/2+x,1/2-y,-z
1/2-x,1/2+y,-z
1/2-x,1/2-y,-z
1/2+x,1/2+y,-z
1/2-x,1/2+y,z
1/2+x,1/2-y,z
loop_
_atom_site_type_symbol
_atom_site_label
_atom_site_fract_x
_atom_site_fract_y
_atom_site_fract_z
Si Si1 0.698778 0.311593 0.500000
Si Si2 0.198186 0.685889 0.000000
Si Si3 0.356956 0.312365 0.336937
Si Si4 0.448534 0.812268 0.403693
Si Si5 0.801634 0.187347 0.825985
O O1 0.699826 0.500000 0.500000
O O2 0.750000 0.250000 0.500000
O O3 0.671976 0.259725 0.582582
O O4 0.250000 0.750000 0.000000
O O5 0.178927 0.749062 0.086779
O O6 0.198654 0.500000 0.000000
O O7 0.357444 0.500000 0.337905
O O8 0.408195 0.253118 0.348005
O O9 0.331893 0.263351 0.252549
O O10 0.440878 0.763708 0.500000
O O11 0.500000 0.764003 0.380530
O O12 0.447125 0.000000 0.402041
O O13 0.750000 0.250000 0.815741
O O14 0.799643 0.000000 0.829616
#
# Coordination Sequence:
#
# PCOD9483744 Si02
#       5
#     8   8  16  16  16
#     4  10  20  32  43  62  93 127 162 191 221 266
#     4  10  18  30  48  68  91 122 157 196 238 279
#     4  10  20  32  47  68  95 125 159 195 232 276
#     4   9  18  32  49  69  92 120 157 199 239 278
#     4  10  19  31  47  69  96 126 159 196 234 277
#
# _framework density 15.776125
#
# number of rings (size 3 to 8) (size 9 to 14) (size 15 to 20)
#    0.000    2.250    1.250    4.875    0.000    3.500 
#    0.000    1.250    0.000    0.000    0.000    0.875 
#    0.000    7.000    0.000    0.000    0.000    0.000 
#
# Total GULP energy -178454.001312 kJ/mol
# GULP energy per Si atom -5576.687541 kJ/mol
# Density = 1.574022 g / cm^3
# Si number density = 15.776125 Si / 1000 Ang^3
#
#
#
# Elastic Constant Matrix: (Units=GPa)
#
#
# Indices 1 2 3 4 5 6 
#
# 1 111.3437 20.8627 75.4797 0.0000 0.0000 0.0000
# 2 20.8627 35.2055 36.3269 0.0000 0.0000 0.0000
# 3 75.4797 36.3269 156.6954 0.0000 0.0000 0.0000
# 4 0.0000 0.0000 0.0000 14.2050 0.0000 0.0000
# 5 0.0000 0.0000 0.0000 0.0000 9.9491 0.0000
# 6 0.0000 0.0000 0.0000 0.0000 0.0000 26.7337
#
#
#
# Elastic Compliance Matrix: (Units=1/GPa)
#
#
# Indices 1 2 3 4 5 6 
#
# 1 0.013412 -0.001685 -0.006070 0.000000 0.000000 0.000000
# 2 -0.001685 0.037548 -0.007893 0.000000 0.000000 0.000000
# 3 -0.006070 -0.007893 0.011135 0.000000 0.000000 0.000000
# 4 0.000000 0.000000 0.000000 0.070398 0.000000 0.000000
# 5 0.000000 0.000000 0.000000 0.000000 0.100512 0.000000
# 6 0.000000 0.000000 0.000000 0.000000 0.000000 0.037406
#
#
# Mechanical properties :
#
#
# Convention : Reuss Voigt Hill
#
# Bulk Modulus (GPa) = 32.46808 63.17591 47.82199
# Shear Modulus (GPa) = 16.02708 21.54925 18.78816
#
# Velocity S-wave (km/s) = 3.19079 3.69987 3.45472
# Velocity P-wave (km/s) = 5.84808 7.64096 6.80383
#
# Compressibility (1/GPa) = 0.03079948
#
# Stress axis : x y z
#
# Youngs Moduli (GPa) = 74.56283 26.63287 89.80291
#
# Poissons Ratio (x) = 0.04486 0.54508
# Poissons Ratio (y) = 0.12560 0.70884
# Poissons Ratio (z) = 0.45258 0.21022
#
# Static dielectric constant tensor:
#      x y z
#    x 1.531920 0.000000 0.000000 
#    y 0.000000 1.535860 0.000000 
#    z 0.000000 0.000000 1.548070 
# 
# From -- ./inp_files/36382.got.cif
#   From: 2010.05.17/outbox.cif.g08.bks.cpg/sg65_19_cif.got.tgz:36382.got - 2010.06.03 17:01:31.
