data_PCOD9483533
_publ_section_title
;
Structure prediction by ZEFSAII (Michael W. Deem and Ramdas Pophale) SiO2 
 PCOD9483533
Probable space group: C M M M
;
_chemical_formula_sum "Si O2"
_cell_formula_units_Z 104
_cell_length_a 28.582069
_cell_length_b 22.730314
_cell_length_c 7.359876
_cell_angle_alpha 90.000000
_cell_angle_beta 90.000000
_cell_angle_gamma 90.000000
_cell_volume 4781.559847
_symmetry_space_group_name_H-M "C M M M"
_symmetry_group_IT_number 65
_symmetry_cell_setting 'orthorhombic'
loop_
_space_group_symop_operation_xyz
x,y,z
-x,-y,z
x,-y,-z
-x,y,-z
-x,-y,-z
x,y,-z
-x,y,z
x,-y,z
1/2+x,1/2+y,z
1/2-x,1/2-y,z
1/2+x,1/2-y,-z
1/2-x,1/2+y,-z
1/2-x,1/2-y,-z
1/2+x,1/2+y,-z
1/2-x,1/2+y,z
1/2+x,1/2-y,z
loop_
_atom_site_type_symbol
_atom_site_label
_atom_site_fract_x
_atom_site_fract_y
_atom_site_fract_z
Si Si1 0.302584 0.228023 0.707148
Si Si2 0.684836 0.567823 0.221871
Si Si3 0.388630 0.109430 0.222324
Si Si4 0.877546 0.825160 0.207395
Si Si5 0.710974 0.903057 0.202074
Si Si6 0.551866 0.000000 0.778479
Si Si7 0.945344 0.273536 0.777924
O O1 0.318203 0.217330 0.500000
O O2 0.250000 0.250000 0.700836
O O3 0.336063 0.276664 0.791149
O O4 0.297650 0.166871 0.808306
O O5 0.674767 0.500000 0.269311
O O6 0.646801 0.616035 0.286295
O O7 0.738006 0.583817 0.283029
O O8 0.685366 0.572250 0.000000
O O9 0.338810 0.083432 0.289844
O O10 0.424624 0.060044 0.276991
O O11 0.410506 0.172730 0.275955
O O12 0.385024 0.111596 0.000000
O O13 0.921541 0.788147 0.283288
O O14 0.890143 0.839944 0.000000
O O15 0.712404 0.929425 0.000000
O O16 0.500000 0.000000 0.714160
O O17 0.552857 0.000000 0.000000
O O18 0.000000 0.280552 0.724107
O O19 0.944911 0.273414 0.000000
#
# Coordination Sequence:
#
# PCOD9483533 Si02
#       7
#    16  16  16  16  16   8  16
#     4  11  21  31  46  70  99 125 153 193 238 280
#     4   9  18  29  45  70  97 124 156 198 237 276
#     4   9  16  24  38  62  92 123 155 190 231 277
#     4  10  18  31  51  71  94 126 162 195 236 290
#     4  10  18  29  47  69  94 123 160 194 232 283
#     4   9  16  24  34  56  95 133 157 189 236 274
#     4   9  16  26  43  68  93 117 153 201 242 275
#
# _framework density 21.750223999999999
#
# number of rings (size 3 to 8) (size 9 to 14) (size 15 to 20)
#    0.000    2.385    3.077    0.923    1.077    2.462 
#    0.000    0.000    0.000    2.769    0.000    3.231 
#    0.000    0.615    0.000    1.385    0.000    1.538 
#
# Total GULP energy -289804.482921 kJ/mol
# GULP energy per Si atom -5573.163133 kJ/mol
# Density = 2.170072 g / cm^3
# Si number density = 21.750224 Si / 1000 Ang^3
#
#
#
# Elastic Constant Matrix: (Units=GPa)
#
#
# Indices 1 2 3 4 5 6 
#
# 1 111.3438 45.9566 4.9652 0.0000 0.0000 0.0000
# 2 45.9566 142.8601 1.1865 0.0000 0.0000 0.0000
# 3 4.9652 1.1865 82.7355 0.0000 0.0000 0.0000
# 4 0.0000 0.0000 0.0000 3.9744 0.0000 0.0000
# 5 0.0000 0.0000 0.0000 0.0000 -11.9799 0.0000
# 6 0.0000 0.0000 0.0000 0.0000 0.0000 35.1823
#
#
#
# Elastic Compliance Matrix: (Units=1/GPa)
#
#
# Indices 1 2 3 4 5 6 
#
# 1 0.010384 -0.003336 -0.000575 0.000000 0.000000 0.000000
# 2 -0.003336 0.008072 0.000084 0.000000 0.000000 0.000000
# 3 -0.000575 0.000084 0.012120 0.000000 0.000000 0.000000
# 4 0.000000 0.000000 0.000000 0.251608 0.000000 0.000000
# 5 0.000000 0.000000 0.000000 0.000000 -0.083473 0.000000
# 6 0.000000 0.000000 0.000000 0.000000 0.000000 0.028423
#
#
# Mechanical properties :
#
#
# Convention : Reuss Voigt Hill
#
# Bulk Modulus (GPa) = 43.62446 49.01734 46.32090
# Shear Modulus (GPa) = 20.62470 24.42410 22.52440
#
# Velocity S-wave (km/s) = 3.08271 3.35466 3.22156
# Velocity P-wave (km/s) = 5.72463 6.13110 5.93135
#
# Compressibility (1/GPa) = 0.02292292
#
# Stress axis : x y z
#
# Youngs Moduli (GPa) = 96.30609 123.88277 82.50809
#
# Poissons Ratio (x) = 0.41321 0.04747
# Poissons Ratio (y) = 0.32123 -0.00696
# Poissons Ratio (z) = 0.05541 -0.01046
#
# Static dielectric constant tensor:
#      x y z
#    x 2.013890 0.000000 0.000000 
#    y 0.000000 1.717150 0.000000 
#    z 0.000000 0.000000 1.848580 
# 
# From -- ./inp_files/16748.got.cif
#   From: 2010.05.17/outbox.cif.g08.bks.cpg/sg65_9_cif.got.tgz:16748.got - 2010.06.03 17:01:31.
