data_PCOD9483863
_publ_section_title
;
Structure prediction by ZEFSAII (Michael W. Deem and Ramdas Pophale) SiO2 
 PCOD9483863
Probable space group: C M M M
;
_chemical_formula_sum "Si O2"
_cell_formula_units_Z 96
_cell_length_a 16.308037
_cell_length_b 16.671050
_cell_length_c 19.356654
_cell_angle_alpha 90.000000
_cell_angle_beta 90.000000
_cell_angle_gamma 90.000000
_cell_volume 5262.534176
_symmetry_space_group_name_H-M "C M M M"
_symmetry_group_IT_number 65
_symmetry_cell_setting 'orthorhombic'
loop_
_space_group_symop_operation_xyz
x,y,z
-x,-y,z
x,-y,-z
-x,y,-z
-x,-y,-z
x,y,-z
-x,y,z
x,-y,z
1/2+x,1/2+y,z
1/2-x,1/2-y,z
1/2+x,1/2-y,-z
1/2-x,1/2+y,-z
1/2-x,1/2-y,-z
1/2+x,1/2+y,-z
1/2-x,1/2+y,z
1/2+x,1/2-y,z
loop_
_atom_site_type_symbol
_atom_site_label
_atom_site_fract_x
_atom_site_fract_y
_atom_site_fract_z
Si Si1 0.093215 0.902655 0.419319
Si Si2 0.587568 0.353260 0.781164
Si Si3 0.669652 0.905884 0.078544
Si Si4 0.868069 0.093626 0.924345
Si Si5 0.169699 0.695858 0.786747
Si Si6 0.226146 0.090715 0.690129
O O1 0.106284 0.883949 0.500000
O O2 0.169510 0.874995 0.372042
O O3 0.000000 0.875620 0.401264
O O4 0.092789 0.000000 0.412546
O O5 0.500000 0.382884 0.757196
O O6 0.593471 0.357073 0.863262
O O7 0.604372 0.261296 0.762181
O O8 0.659734 0.407858 0.752072
O O9 0.769180 0.902197 0.079424
O O10 0.643852 0.854164 0.145368
O O11 0.647219 0.000000 0.086825
O O12 0.644476 0.880802 0.000000
O O13 0.890536 0.000000 0.916613
O O14 0.893299 0.121085 0.000000
O O15 0.250000 0.750000 0.806069
O O16 0.200089 0.641517 0.722732
O O17 0.251452 0.000000 0.674137
#
# Coordination Sequence:
#
# PCOD9483863 Si02
#       6
#    16  16  16  16  16  16
#     4   8  14  25  43  71 104 128 144 171 218 272
#     4  11  22  32  43  64  94 126 153 183 231 283
#     4   9  16  28  47  66  82 107 148 195 236 271
#     4   9  17  29  45  66  90 115 148 192 240 286
#     4  10  19  30  44  64  90 120 152 191 227 267
#     4  10  18  30  50  72  91 117 153 188 218 256
#
# _framework density 18.242162
#
# number of rings (size 3 to 8) (size 9 to 14) (size 15 to 20)
#    0.000    2.500    3.333    3.000    0.000    3.333 
#    0.000    0.833    0.000    6.500    0.000    1.167 
#    0.000    0.000    0.000    4.167    0.000    0.000 
#
# Total GULP energy -267283.219444 kJ/mol
# GULP energy per Si atom -5568.400405 kJ/mol
# Density = 1.820064 g / cm^3
# Si number density = 18.242162 Si / 1000 Ang^3
#
#
#
# Elastic Constant Matrix: (Units=GPa)
#
#
# Indices 1 2 3 4 5 6 
#
# 1 9.8682 -2.5334 0.8843 0.0000 0.0000 0.0000
# 2 -2.5334 41.3819 17.3651 0.0000 0.0000 0.0000
# 3 0.8843 17.3651 98.0570 0.0000 0.0000 0.0000
# 4 0.0000 0.0000 0.0000 6.2320 0.0000 0.0000
# 5 0.0000 0.0000 0.0000 0.0000 -38.5237 0.0000
# 6 0.0000 0.0000 0.0000 0.0000 0.0000 59.5611
#
#
#
# Elastic Compliance Matrix: (Units=1/GPa)
#
#
# Indices 1 2 3 4 5 6 
#
# 1 0.103399 0.007261 -0.002218 0.000000 0.000000 0.000000
# 2 0.007261 0.026615 -0.004779 0.000000 0.000000 0.000000
# 3 -0.002218 -0.004779 0.011064 0.000000 0.000000 0.000000
# 4 0.000000 0.000000 0.000000 0.160462 0.000000 0.000000
# 5 0.000000 0.000000 0.000000 0.000000 -0.025958 0.000000
# 6 0.000000 0.000000 0.000000 0.000000 0.000000 0.016789
#
#
# Mechanical properties :
#
#
# Convention : Reuss Voigt Hill
#
# Bulk Modulus (GPa) = 7.06187 20.08212 13.57199
# Shear Modulus (GPa) = 14.74729 14.35996 14.55362
#
# Velocity S-wave (km/s) = 2.84635 2.80873 2.82760
# Velocity P-wave (km/s) = 3.83170 4.64232 4.25635
#
# Compressibility (1/GPa) = 0.14160558
#
# Stress axis : x y z
#
# Youngs Moduli (GPa) = 9.67131 37.57286 90.37970
#
# Poissons Ratio (x) = -0.27281 0.20049
# Poissons Ratio (y) = -0.07022 0.43190
# Poissons Ratio (z) = 0.02145 0.17955
#
# Static dielectric constant tensor:
#      x y z
#    x 1.652750 0.000000 0.000000 
#    y 0.000000 1.647520 0.000000 
#    z 0.000000 0.000000 1.666810 
# 
# From -- ./inp_files/54469.got.cif
#   From: 2010.05.17/outbox.cif.g08.bks.cpg/sg65_28_cif.got.tgz:54469.got - 2010.06.03 17:01:31.
