data_PCOD9483283
_publ_section_title
;
Structure prediction by ZEFSAII (Michael W. Deem and Ramdas Pophale) SiO2 
 PCOD9483283
Probable space group: C M M M
;
_chemical_formula_sum "Si O2"
_cell_formula_units_Z 88
_cell_length_a 14.855384
_cell_length_b 15.132770
_cell_length_c 19.728647
_cell_angle_alpha 90.000000
_cell_angle_beta 90.000000
_cell_angle_gamma 90.000000
_cell_volume 4435.061189
_symmetry_space_group_name_H-M "C M M M"
_symmetry_group_IT_number 65
_symmetry_cell_setting 'orthorhombic'
loop_
_space_group_symop_operation_xyz
x,y,z
-x,-y,z
x,-y,-z
-x,y,-z
-x,-y,-z
x,y,-z
-x,y,z
x,-y,z
1/2+x,1/2+y,z
1/2-x,1/2-y,z
1/2+x,1/2-y,-z
1/2-x,1/2+y,-z
1/2-x,1/2-y,-z
1/2+x,1/2+y,-z
1/2-x,1/2+y,z
1/2+x,1/2-y,z
loop_
_atom_site_type_symbol
_atom_site_label
_atom_site_fract_x
_atom_site_fract_y
_atom_site_fract_z
Si Si1 0.104078 0.711230 0.818089
Si Si2 0.859462 0.735450 0.422489
Si Si3 0.000000 0.395614 0.920035
Si Si4 0.628943 0.404903 0.659077
Si Si5 0.341441 0.899590 0.688899
Si Si6 0.101934 0.903092 0.182340
O O1 0.149556 0.658200 0.757118
O O2 0.144019 0.807769 0.835509
O O3 0.000000 0.728048 0.793962
O O4 0.085669 0.650131 0.883289
O O5 0.886842 0.723433 0.500000
O O6 0.750000 0.750000 0.422424
O O7 0.896468 0.823608 0.387449
O O8 0.883555 0.654069 0.373614
O O9 0.000000 0.500000 0.906416
O O10 0.000000 0.380530 0.000000
O O11 0.603454 0.500000 0.630059
O O12 0.736585 0.404131 0.669605
O O13 0.595754 0.399341 0.736093
O O14 0.375007 0.000000 0.698452
O O15 0.000000 0.904302 0.153993
O O16 0.143796 0.000000 0.166105
#
# Coordination Sequence:
#
# PCOD9483283 Si02
#       6
#    16  16   8  16  16  16
#     4   9  18  29  48  71  93 122 150 186 228 269
#     4   9  17  28  41  60  90 122 153 195 241 280
#     4   9  18  32  49  73 102 126 152 183 219 269
#     4   9  17  28  44  66  89 117 154 199 242 277
#     4  10  18  28  44  66  91 118 158 197 231 278
#     4   9  16  28  46  68  93 117 148 190 233 272
#
# _framework density 19.841889999999999
#
# number of rings (size 3 to 8) (size 9 to 14) (size 15 to 20)
#    0.545    2.273    1.818    0.545    0.000    0.727 
#    0.000    3.636    0.000    3.273    0.000    6.364 
#    0.000    4.364    0.000    0.000    0.000    0.000 
#
# Total GULP energy -244961.349495 kJ/mol
# GULP energy per Si atom -5567.303398 kJ/mol
# Density = 1.979673 g / cm^3
# Si number density = 19.841890 Si / 1000 Ang^3
#
#
#
# Elastic Constant Matrix: (Units=GPa)
#
#
# Indices 1 2 3 4 5 6 
#
# 1 36.3285 14.5816 3.0500 0.0000 0.0000 0.0000
# 2 14.5816 208.9003 73.7091 0.0000 0.0000 0.0000
# 3 3.0500 73.7091 89.4298 0.0000 0.0000 0.0000
# 4 0.0000 0.0000 0.0000 24.5752 0.0000 0.0000
# 5 0.0000 0.0000 0.0000 0.0000 10.9871 0.0000
# 6 0.0000 0.0000 0.0000 0.0000 0.0000 7.2704
#
#
#
# Elastic Compliance Matrix: (Units=1/GPa)
#
#
# Indices 1 2 3 4 5 6 
#
# 1 0.028376 -0.002311 0.000937 0.000000 0.000000 0.000000
# 2 -0.002311 0.006938 -0.005640 0.000000 0.000000 0.000000
# 3 0.000937 -0.005640 0.015798 0.000000 0.000000 0.000000
# 4 0.000000 0.000000 0.000000 0.040691 0.000000 0.000000
# 5 0.000000 0.000000 0.000000 0.000000 0.091016 0.000000
# 6 0.000000 0.000000 0.000000 0.000000 0.000000 0.137544
#
#
# Mechanical properties :
#
#
# Convention : Reuss Voigt Hill
#
# Bulk Modulus (GPa) = 26.96537 57.48221 42.22379
# Shear Modulus (GPa) = 14.41950 24.78773 19.60362
#
# Velocity S-wave (km/s) = 2.69870 3.53833 3.14664
# Velocity P-wave (km/s) = 4.83014 6.76210 5.87606
#
# Compressibility (1/GPa) = 0.03708460
#
# Stress axis : x y z
#
# Youngs Moduli (GPa) = 35.24144 144.12819 63.29775
#
# Poissons Ratio (x) = 0.33314 -0.05933
# Poissons Ratio (y) = 0.08146 0.35698
# Poissons Ratio (z) = -0.03303 0.81285
#
# Static dielectric constant tensor:
#      x y z
#    x 1.803540 0.000000 0.000000 
#    y 0.000000 1.772300 0.000000 
#    z 0.000000 0.000000 1.629410 
# 
# From -- ./inp_files/64654.got.cif
#   From: 2010.05.17/outbox.cif.g08.bks.cpg/sg65_33_cif.got.tgz:64654.got - 2010.06.03 17:01:31.
