data_PCOD9483943
_publ_section_title
;
Structure prediction by ZEFSAII (Michael W. Deem and Ramdas Pophale) SiO2 
 PCOD9483943
Probable space group: C M M M
;
_chemical_formula_sum "Si O2"
_cell_formula_units_Z 96
_cell_length_a 23.284749
_cell_length_b 14.252804
_cell_length_c 12.701996
_cell_angle_alpha 90.000000
_cell_angle_beta 90.000000
_cell_angle_gamma 90.000000
_cell_volume 4215.449057
_symmetry_space_group_name_H-M "C M M M"
_symmetry_group_IT_number 65
_symmetry_cell_setting 'orthorhombic'
loop_
_space_group_symop_operation_xyz
x,y,z
-x,-y,z
x,-y,-z
-x,y,-z
-x,-y,-z
x,y,-z
-x,y,z
x,-y,z
1/2+x,1/2+y,z
1/2-x,1/2-y,z
1/2+x,1/2-y,-z
1/2-x,1/2+y,-z
1/2-x,1/2-y,-z
1/2+x,1/2+y,-z
1/2-x,1/2+y,z
1/2+x,1/2-y,z
loop_
_atom_site_type_symbol
_atom_site_label
_atom_site_fract_x
_atom_site_fract_y
_atom_site_fract_z
Si Si1 0.282233 0.114610 0.000000
Si Si2 0.851468 0.115631 0.000000
Si Si3 0.322213 0.858081 0.385542
Si Si4 0.500000 0.892828 0.874489
Si Si5 0.310241 0.633154 0.615752
Si Si6 0.000000 0.885011 0.377183
Si Si7 0.124174 0.608045 0.167060
Si Si8 0.402451 0.394981 0.218170
O O1 0.321601 0.144489 0.099574
O O2 0.215729 0.146070 0.000000
O O3 0.278391 0.000000 0.000000
O O4 0.885114 0.146673 0.105400
O O5 0.850753 0.000000 0.000000
O O6 0.345040 0.885252 0.500000
O O7 0.317036 0.745430 0.382220
O O8 0.256518 0.891548 0.377258
O O9 0.358681 0.890211 0.287923
O O10 0.561096 0.847708 0.845148
O O11 0.500000 0.000000 0.830004
O O12 0.500000 0.898345 0.000000
O O13 0.332199 0.602827 0.500000
O O14 0.344054 0.597758 0.715603
O O15 0.053986 0.853901 0.305247
O O16 0.000000 0.853253 0.500000
O O17 0.000000 0.000000 0.382942
O O18 0.117458 0.500000 0.130202
O O19 0.424920 0.500000 0.195154
#
# Coordination Sequence:
#
# PCOD9483943 Si02
#       8
#     8   8  16   8  16   8  16  16
#     4   9  16  27  46  74 101 123 160 209 246 284
#     4   9  18  29  44  72 105 131 154 193 252 306
#     4   9  19  34  50  72 102 133 164 202 256 311
#     4   9  16  30  50  75 101 132 172 207 248 291
#     4   9  18  34  53  71  98 133 166 207 255 303
#     4   9  18  31  48  73  99 123 163 212 241 271
#     4  10  18  30  51  75 101 132 170 212 247 293
#     4  10  19  32  51  74 100 129 165 206 248 296
#
# _framework density 22.773375000000001
#
# number of rings (size 3 to 8) (size 9 to 14) (size 15 to 20)
#    0.000    2.667    0.833    2.500    0.000    3.667 
#    0.000    5.417    0.000    6.500    0.000    0.000 
#    0.000    0.000    0.000    0.000    0.000    0.000 
#
# Total GULP energy -267840.192198 kJ/mol
# GULP energy per Si atom -5580.004004 kJ/mol
# Density = 2.272154 g / cm^3
# Si number density = 22.773375 Si / 1000 Ang^3
#
#
#
# Elastic Constant Matrix: (Units=GPa)
#
#
# Indices 1 2 3 4 5 6 
#
# 1 128.8232 9.0470 100.2959 0.0000 0.0000 0.0000
# 2 9.0470 69.3451 2.1487 0.0000 0.0000 0.0000
# 3 100.2959 2.1487 220.8074 0.0000 0.0000 0.0000
# 4 0.0000 0.0000 0.0000 7.8653 0.0000 0.0000
# 5 0.0000 0.0000 0.0000 0.0000 33.6536 0.0000
# 6 0.0000 0.0000 0.0000 0.0000 0.0000 11.1343
#
#
#
# Elastic Compliance Matrix: (Units=1/GPa)
#
#
# Indices 1 2 3 4 5 6 
#
# 1 0.012147 -0.001414 -0.005504 0.000000 0.000000 0.000000
# 2 -0.001414 0.014590 0.000500 0.000000 0.000000 0.000000
# 3 -0.005504 0.000500 0.007024 0.000000 0.000000 0.000000
# 4 0.000000 0.000000 0.000000 0.127141 0.000000 0.000000
# 5 0.000000 0.000000 0.000000 0.000000 0.029714 0.000000
# 6 0.000000 0.000000 0.000000 0.000000 0.000000 0.089812
#
#
# Mechanical properties :
#
#
# Convention : Reuss Voigt Hill
#
# Bulk Modulus (GPa) = 47.78874 71.32879 59.55876
# Shear Modulus (GPa) = 16.65349 31.02959 23.84154
#
# Velocity S-wave (km/s) = 2.70713 3.69526 3.23910
# Velocity P-wave (km/s) = 5.54991 7.04242 6.34024
#
# Compressibility (1/GPa) = 0.02092543
#
# Stress axis : x y z
#
# Youngs Moduli (GPa) = 82.32680 68.54186 142.37288
#
# Poissons Ratio (x) = 0.09693 0.78356
# Poissons Ratio (y) = 0.11642 -0.07124
# Poissons Ratio (z) = 0.45309 -0.03430
#
# Static dielectric constant tensor:
#      x y z
#    x 1.862240 0.000000 0.000000 
#    y 0.000000 1.916260 0.000000 
#    z 0.000000 0.000000 1.808110 
# 
# From -- ./inp_files/30860.got.cif
#   From: 2010.05.17/outbox.cif.g08.bks.cpg/sg65_16_cif.got.tgz:30860.got - 2010.06.03 17:01:31.
