data_PCOD9483059
_publ_section_title
;
Structure prediction by ZEFSAII (Michael W. Deem and Ramdas Pophale) SiO2 
 PCOD9483059
Probable space group: C M M M
;
_chemical_formula_sum "Si O2"
_cell_formula_units_Z 88
_cell_length_a 31.654252
_cell_length_b 24.951789
_cell_length_c 7.599127
_cell_angle_alpha 90.000000
_cell_angle_beta 90.000000
_cell_angle_gamma 90.000000
_cell_volume 6002.020126
_symmetry_space_group_name_H-M "C M M M"
_symmetry_group_IT_number 65
_symmetry_cell_setting 'orthorhombic'
loop_
_space_group_symop_operation_xyz
x,y,z
-x,-y,z
x,-y,-z
-x,y,-z
-x,-y,-z
x,y,-z
-x,y,z
x,-y,z
1/2+x,1/2+y,z
1/2-x,1/2-y,z
1/2+x,1/2-y,-z
1/2-x,1/2+y,-z
1/2-x,1/2-y,-z
1/2+x,1/2+y,-z
1/2-x,1/2+y,z
1/2+x,1/2-y,z
loop_
_atom_site_type_symbol
_atom_site_label
_atom_site_fract_x
_atom_site_fract_y
_atom_site_fract_z
Si Si1 0.293633 0.778891 0.212370
Si Si2 0.000000 0.937074 0.283513
Si Si3 0.253935 0.883546 0.207138
Si Si4 0.863756 0.000000 0.787494
Si Si5 0.588121 0.392201 0.296360
Si Si6 0.734845 0.500000 0.784517
Si Si7 0.834755 0.173168 0.293112
O O1 0.250000 0.750000 0.266373
O O2 0.287139 0.839540 0.278016
O O3 0.329047 0.736881 0.269379
O O4 0.294679 0.780130 0.000000
O O5 0.042107 0.906405 0.222241
O O6 0.000000 0.937944 0.500000
O O7 0.000000 0.000000 0.230479
O O8 0.206702 0.857671 0.219881
O O9 0.253831 0.943687 0.279750
O O10 0.262812 0.888348 0.000000
O O11 0.886440 0.052196 0.714045
O O12 0.814662 0.000000 0.739744
O O13 0.867101 0.000000 0.000000
O O14 0.580962 0.376923 0.500000
O O15 0.621220 0.349432 0.218528
O O16 0.736833 0.500000 0.000000
O O17 0.834108 0.161078 0.500000
#
# Coordination Sequence:
#
# PCOD9483059 Si02
#       7
#    16   8  16   8  16   8  16
#     4   8  15  26  39  51  67  91 116 139 169 211
#     4   9  16  28  44  52  64  94 122 145 180 225
#     4   9  16  27  39  52  70  93 117 140 171 212
#     4  11  19  26  40  55  70  92 116 150 187 219
#     4  10  19  30  41  53  68  91 121 151 184 222
#     4   9  16  25  38  54  71  92 118 145 175 206
#     4  10  18  25  37  54  70  86 113 152 182 205
#
# _framework density 14.661731
#
# number of rings (size 3 to 8) (size 9 to 14) (size 15 to 20)
#    0.000    2.636    2.727    1.909    0.000    4.000 
#    0.000    1.364    0.000    0.000    0.000    0.000 
#    0.000    0.000    0.000    0.000    0.000    0.909 
#
# Total GULP energy -244950.310603 kJ/mol
# GULP energy per Si atom -5567.052514 kJ/mol
# Density = 1.462836 g / cm^3
# Si number density = 14.661731 Si / 1000 Ang^3
#
#
#
# Elastic Constant Matrix: (Units=GPa)
#
#
# Indices 1 2 3 4 5 6 
#
# 1 73.7565 58.3194 -2.5355 0.0000 0.0000 0.0000
# 2 58.3194 121.3536 -0.8958 0.0000 0.0000 0.0000
# 3 -2.5355 -0.8958 27.1640 0.0000 0.0000 0.0000
# 4 0.0000 0.0000 0.0000 -1.8601 0.0000 0.0000
# 5 0.0000 0.0000 0.0000 0.0000 10.8907 0.0000
# 6 0.0000 0.0000 0.0000 0.0000 0.0000 6.0391
#
#
#
# Elastic Compliance Matrix: (Units=1/GPa)
#
#
# Indices 1 2 3 4 5 6 
#
# 1 0.021946 -0.010534 0.001701 0.000000 0.000000 0.000000
# 2 -0.010534 0.013299 -0.000545 0.000000 0.000000 0.000000
# 3 0.001701 -0.000545 0.036954 0.000000 0.000000 0.000000
# 4 0.000000 0.000000 0.000000 -0.537619 0.000000 0.000000
# 5 0.000000 0.000000 0.000000 0.000000 0.091821 0.000000
# 6 0.000000 0.000000 0.000000 0.000000 0.000000 0.165587
#
#
# Mechanical properties :
#
#
# Convention : Reuss Voigt Hill
#
# Bulk Modulus (GPa) = 18.71134 36.89448 27.80291
# Shear Modulus (GPa) = -29.16434 14.17303 -7.49566
#
# Velocity S-wave (km/s) = -4.46482 3.11250 -2.26351
# Velocity P-wave (km/s) = 3.71346 6.17538 3.48895
#
# Compressibility (1/GPa) = 0.05344354
#
# Stress axis : x y z
#
# Youngs Moduli (GPa) = 45.56656 75.19495 27.06046
#
# Poissons Ratio (x) = 0.79211 -0.04603
# Poissons Ratio (y) = 0.48000 0.01474
# Poissons Ratio (z) = -0.07751 0.04096
#
# Static dielectric constant tensor:
#      x y z
#    x 1.483570 0.000000 0.000000 
#    y 0.000000 1.526670 0.000000 
#    z 0.000000 0.000000 1.539050 
# 
# From -- ./inp_files/19022.got.cif
#   From: 2010.05.17/outbox.cif.g08.bks.cpg/sg65_10_cif.got.tgz:19022.got - 2010.06.03 17:01:31.
