data_PCOD9483387
_publ_section_title
;
Structure prediction by ZEFSAII (Michael W. Deem and Ramdas Pophale) SiO2 
 PCOD9483387
Probable space group: C M M M
;
_chemical_formula_sum "Si O2"
_cell_formula_units_Z 88
_cell_length_a 23.583224
_cell_length_b 27.489338
_cell_length_c 7.714992
_cell_angle_alpha 90.000000
_cell_angle_beta 90.000000
_cell_angle_gamma 90.000000
_cell_volume 5001.530683
_symmetry_space_group_name_H-M "C M M M"
_symmetry_group_IT_number 65
_symmetry_cell_setting 'orthorhombic'
loop_
_space_group_symop_operation_xyz
x,y,z
-x,-y,z
x,-y,-z
-x,y,-z
-x,-y,-z
x,y,-z
-x,y,z
x,-y,z
1/2+x,1/2+y,z
1/2-x,1/2-y,z
1/2+x,1/2-y,-z
1/2-x,1/2+y,-z
1/2-x,1/2-y,-z
1/2+x,1/2+y,-z
1/2-x,1/2+y,z
1/2+x,1/2-y,z
loop_
_atom_site_type_symbol
_atom_site_label
_atom_site_fract_x
_atom_site_fract_y
_atom_site_fract_z
Si Si1 0.068060 0.382058 0.000000
Si Si2 0.875034 0.557461 0.697126
Si Si3 0.431426 0.770470 0.000000
Si Si4 0.870428 0.903252 0.292202
Si Si5 0.434394 0.500000 0.287730
Si Si6 0.432024 0.695410 0.704885
Si Si7 0.247743 0.944525 0.793831
O O1 0.091619 0.410027 0.167277
O O2 0.088233 0.326033 0.000000
O O3 0.000000 0.383080 0.000000
O O4 0.894187 0.564842 0.500000
O O5 0.881059 0.500000 0.740281
O O6 0.807822 0.568268 0.710316
O O7 0.415370 0.739989 0.828829
O O8 0.500000 0.772270 0.000000
O O9 0.875946 0.903697 0.500000
O O10 0.903095 0.951211 0.226491
O O11 0.899437 0.853201 0.235813
O O12 0.804610 0.909887 0.248039
O O13 0.500000 0.500000 0.237278
O O14 0.432600 0.500000 0.500000
O O15 0.420764 0.704247 0.500000
O O16 0.500000 0.687492 0.721571
O O17 0.232703 0.000000 0.737905
O O18 0.256531 0.945104 0.000000
#
# Coordination Sequence:
#
# PCOD9483387 Si02
#       7
#     8  16   8  16   8  16  16
#     4  11  23  40  62  90 118 141 171 213 266 326
#     4  10  21  38  61  88 119 152 178 206 253 317
#     4   9  20  37  57  78 103 140 182 226 274 323
#     4  10  18  28  47  74 104 143 191 237 278 326
#     4   9  16  26  41  67 107 147 183 232 289 333
#     4   9  18  33  52  75 105 144 191 238 283 327
#     4  10  19  32  51  76 111 149 190 229 265 314
#
# _framework density 17.594614
#
# number of rings (size 3 to 8) (size 9 to 14) (size 15 to 20)
#    0.000    2.273    1.818    1.364    1.273    4.727 
#    0.000    2.727    0.000    2.727    0.000    3.818 
#    0.000    0.000    0.000    0.000    0.000    0.000 
#
# Total GULP energy -245518.900474 kJ/mol
# GULP energy per Si atom -5579.975011 kJ/mol
# Density = 1.755457 g / cm^3
# Si number density = 17.594614 Si / 1000 Ang^3
#
#
#
# Elastic Constant Matrix: (Units=GPa)
#
#
# Indices 1 2 3 4 5 6 
#
# 1 70.3673 61.6378 34.0750 0.0000 0.0000 0.0000
# 2 61.6378 138.5284 76.0020 0.0000 0.0000 0.0000
# 3 34.0750 76.0020 79.8564 0.0000 0.0000 0.0000
# 4 0.0000 0.0000 0.0000 15.5657 0.0000 0.0000
# 5 0.0000 0.0000 0.0000 0.0000 22.1512 0.0000
# 6 0.0000 0.0000 0.0000 0.0000 0.0000 8.7985
#
#
#
# Elastic Compliance Matrix: (Units=1/GPa)
#
#
# Indices 1 2 3 4 5 6 
#
# 1 0.023288 -0.010276 -0.000158 0.000000 0.000000 0.000000
# 2 -0.010276 0.019641 -0.014308 0.000000 0.000000 0.000000
# 3 -0.000158 -0.014308 0.026207 0.000000 0.000000 0.000000
# 4 0.000000 0.000000 0.000000 0.064244 0.000000 0.000000
# 5 0.000000 0.000000 0.000000 0.000000 0.045144 0.000000
# 6 0.000000 0.000000 0.000000 0.000000 0.000000 0.113656
#
#
# Mechanical properties :
#
#
# Convention : Reuss Voigt Hill
#
# Bulk Modulus (GPa) = 50.88099 70.24242 60.56171
# Shear Modulus (GPa) = 14.35895 17.10556 15.73226
#
# Velocity S-wave (km/s) = 2.85984 3.12140 2.99348
# Velocity P-wave (km/s) = 6.31555 7.28013 6.81493
#
# Compressibility (1/GPa) = 0.01965371
#
# Stress axis : x y z
#
# Youngs Moduli (GPa) = 42.93995 50.91413 38.15725
#
# Poissons Ratio (x) = 0.52318 0.00601
# Poissons Ratio (y) = 0.44124 0.54596
# Poissons Ratio (z) = 0.00676 0.72849
#
# Static dielectric constant tensor:
#      x y z
#    x 1.584140 0.000000 0.000000 
#    y 0.000000 1.585450 0.000000 
#    z 0.000000 0.000000 1.623700 
# 
# From -- ./inp_files/11850.got.cif
#   From: 2010.05.17/outbox.cif.g08.bks.cpg/sg65_6_cif.got.tgz:11850.got - 2010.06.03 17:01:31.
