data_PCOD9483259
_publ_section_title
;
Structure prediction by ZEFSAII (Michael W. Deem and Ramdas Pophale) SiO2 
 PCOD9483259
Probable space group: C M M M
;
_chemical_formula_sum "Si O2"
_cell_formula_units_Z 96
_cell_length_a 24.341497
_cell_length_b 26.566774
_cell_length_c 7.693523
_cell_angle_alpha 90.000000
_cell_angle_beta 90.000000
_cell_angle_gamma 90.000000
_cell_volume 4975.209368
_symmetry_space_group_name_H-M "C M M M"
_symmetry_group_IT_number 65
_symmetry_cell_setting 'orthorhombic'
loop_
_space_group_symop_operation_xyz
x,y,z
-x,-y,z
x,-y,-z
-x,y,-z
-x,-y,-z
x,y,-z
-x,y,z
x,-y,z
1/2+x,1/2+y,z
1/2-x,1/2-y,z
1/2+x,1/2-y,-z
1/2-x,1/2+y,-z
1/2-x,1/2-y,-z
1/2+x,1/2+y,-z
1/2-x,1/2+y,z
1/2+x,1/2-y,z
loop_
_atom_site_type_symbol
_atom_site_label
_atom_site_fract_x
_atom_site_fract_y
_atom_site_fract_z
Si Si1 0.194536 0.942759 0.289859
Si Si2 0.751371 0.809517 0.801186
Si Si3 0.865214 0.151942 0.696957
Si Si4 0.177864 0.556574 0.791031
Si Si5 0.132529 0.342424 0.209866
Si Si6 0.437623 0.255363 0.708497
O O1 0.191124 0.942235 0.500000
O O2 0.149223 0.902813 0.223553
O O3 0.258211 0.929465 0.247111
O O4 0.185834 0.000000 0.228848
O O5 0.750000 0.750000 0.812056
O O6 0.803921 0.825445 0.694207
O O7 0.692539 0.824669 0.729769
O O8 0.757476 0.829183 0.000000
O O9 0.885448 0.143392 0.500000
O O10 0.902679 0.196418 0.776571
O O11 0.169036 0.500000 0.722141
O O12 0.134355 0.599113 0.732014
O O13 0.173834 0.554529 0.000000
O O14 0.089678 0.299209 0.259350
O O15 0.132291 0.342481 0.000000
O O16 0.438418 0.260722 0.500000
O O17 0.500000 0.256500 0.773823
#
# Coordination Sequence:
#
# PCOD9483259 Si02
#       6
#    16  16  16  16  16  16
#     4   9  17  28  43  67  98 127 154 185 224 274
#     4  10  18  28  43  69 101 125 146 181 231 283
#     4  10  19  30  47  68  93 125 157 191 231 278
#     4   9  17  29  46  70 100 129 153 180 221 276
#     4  10  19  31  49  72  98 125 153 189 232 281
#     4  10  22  37  50  66  90 123 163 204 241 276
#
# _framework density 19.295670000000001
#
# number of rings (size 3 to 8) (size 9 to 14) (size 15 to 20)
#    0.000    2.333    3.333    0.000    0.000    2.000 
#    0.000    0.000    0.000    1.000    0.000    7.000 
#    0.000    0.000    0.000    7.167    0.000    7.667 
#
# Total GULP energy -267210.321291 kJ/mol
# GULP energy per Si atom -5566.881694 kJ/mol
# Density = 1.925175 g / cm^3
# Si number density = 19.295670 Si / 1000 Ang^3
#
#
#
# Elastic Constant Matrix: (Units=GPa)
#
#
# Indices 1 2 3 4 5 6 
#
# 1 97.1596 67.7314 2.7959 0.0000 0.0000 0.0000
# 2 67.7314 170.7303 6.4500 0.0000 0.0000 0.0000
# 3 2.7959 6.4500 35.5226 0.0000 0.0000 0.0000
# 4 0.0000 0.0000 0.0000 13.4592 0.0000 0.0000
# 5 0.0000 0.0000 0.0000 0.0000 53.6248 0.0000
# 6 0.0000 0.0000 0.0000 0.0000 0.0000 12.1685
#
#
#
# Elastic Compliance Matrix: (Units=1/GPa)
#
#
# Indices 1 2 3 4 5 6 
#
# 1 0.014227 -0.005641 -0.000096 0.000000 0.000000 0.000000
# 2 -0.005641 0.008134 -0.001033 0.000000 0.000000 0.000000
# 3 -0.000096 -0.001033 0.028346 0.000000 0.000000 0.000000
# 4 0.000000 0.000000 0.000000 0.074298 0.000000 0.000000
# 5 0.000000 0.000000 0.000000 0.000000 0.018648 0.000000
# 6 0.000000 0.000000 0.000000 0.000000 0.000000 0.082180
#
#
# Mechanical properties :
#
#
# Convention : Reuss Voigt Hill
#
# Bulk Modulus (GPa) = 26.90409 50.81857 38.86133
# Shear Modulus (GPa) = 19.86008 30.94618 25.40313
#
# Velocity S-wave (km/s) = 3.21167 4.00908 3.63232
# Velocity P-wave (km/s) = 5.26559 6.91551 6.14617
#
# Compressibility (1/GPa) = 0.03716908
#
# Stress axis : x y z
#
# Youngs Moduli (GPa) = 70.28792 122.94211 35.27809
#
# Poissons Ratio (x) = 0.69346 0.00337
# Poissons Ratio (y) = 0.39646 0.03644
# Poissons Ratio (z) = 0.00672 0.12699
#
# Static dielectric constant tensor:
#      x y z
#    x 1.638300 0.000000 0.000000 
#    y 0.000000 1.774470 0.000000 
#    z 0.000000 0.000000 1.755690 
# 
# From -- ./inp_files/12260.got.cif
#   From: 2010.05.17/outbox.cif.g08.bks.cpg/sg65_7_cif.got.tgz:12260.got - 2010.06.03 17:01:31.
