data_PCOD9483175
_publ_section_title
;
Structure prediction by ZEFSAII (Michael W. Deem and Ramdas Pophale) SiO2 
 PCOD9483175
Probable space group: C M M M
;
_chemical_formula_sum "Si O2"
_cell_formula_units_Z 88
_cell_length_a 21.610798
_cell_length_b 18.075604
_cell_length_c 14.692704
_cell_angle_alpha 90.000000
_cell_angle_beta 90.000000
_cell_angle_gamma 90.000000
_cell_volume 5739.384910
_symmetry_space_group_name_H-M "C M M M"
_symmetry_group_IT_number 65
_symmetry_cell_setting 'orthorhombic'
loop_
_space_group_symop_operation_xyz
x,y,z
-x,-y,z
x,-y,-z
-x,y,-z
-x,-y,-z
x,y,-z
-x,y,z
x,-y,z
1/2+x,1/2+y,z
1/2-x,1/2-y,z
1/2+x,1/2-y,-z
1/2-x,1/2+y,-z
1/2-x,1/2-y,-z
1/2+x,1/2+y,-z
1/2-x,1/2+y,z
1/2+x,1/2-y,z
loop_
_atom_site_type_symbol
_atom_site_label
_atom_site_fract_x
_atom_site_fract_y
_atom_site_fract_z
Si Si1 0.378828 0.350285 0.705419
Si Si2 0.500000 0.588620 0.392305
Si Si3 0.218728 0.668394 0.098507
Si Si4 0.685722 0.202392 0.289359
Si Si5 0.152320 0.088021 0.896117
Si Si6 0.242472 0.913564 0.606627
O O1 0.439287 0.378498 0.654986
O O2 0.366045 0.263164 0.690984
O O3 0.380157 0.369594 0.813010
O O4 0.318714 0.391912 0.663644
O O5 0.500000 0.500000 0.380820
O O6 0.500000 0.604386 0.500000
O O7 0.250000 0.750000 0.094998
O O8 0.177933 0.668792 0.188609
O O9 0.275543 0.611556 0.109688
O O10 0.188725 0.655757 0.000000
O O11 0.750000 0.250000 0.287241
O O12 0.701262 0.137685 0.359511
O O13 0.145387 0.000000 0.884263
O O14 0.132462 0.107175 0.000000
O O15 0.230180 0.899998 0.500000
O O16 0.255446 0.000000 0.619781
#
# Coordination Sequence:
#
# PCOD9483175 Si02
#       6
#    16   8  16  16  16  16
#     4  11  20  33  48  66  92 124 160 198 234 272
#     4  11  24  38  51  65  84 122 171 210 239 269
#     4   9  14  24  41  64  92 119 147 176 218 278
#     4   9  17  28  44  69  91 118 149 186 234 282
#     4  10  18  27  44  69  96 127 157 186 227 278
#     4  10  19  30  46  68  94 120 146 187 243 293
#
# _framework density 15.332654
#
# number of rings (size 3 to 8) (size 9 to 14) (size 15 to 20)
#    0.000    2.091    5.455    2.182    0.000    5.455 
#    0.000    0.455    0.000    1.636    0.000    0.636 
#    0.000    2.182    0.000    0.000    0.000   12.818 
#
# Total GULP energy -245030.684467 kJ/mol
# GULP energy per Si atom -5568.879192 kJ/mol
# Density = 1.529776 g / cm^3
# Si number density = 15.332654 Si / 1000 Ang^3
#
#
#
# Elastic Constant Matrix: (Units=GPa)
#
#
# Indices 1 2 3 4 5 6 
#
# 1 49.7877 35.4405 36.5093 0.0000 0.0000 0.0000
# 2 35.4405 59.5438 50.9482 0.0000 0.0000 0.0000
# 3 36.5093 50.9482 112.4590 0.0000 0.0000 0.0000
# 4 0.0000 0.0000 0.0000 18.0636 0.0000 0.0000
# 5 0.0000 0.0000 0.0000 0.0000 16.5706 0.0000
# 6 0.0000 0.0000 0.0000 0.0000 0.0000 18.0793
#
#
#
# Elastic Compliance Matrix: (Units=1/GPa)
#
#
# Indices 1 2 3 4 5 6 
#
# 1 0.035539 -0.018422 -0.003192 0.000000 0.000000 0.000000
# 2 -0.018422 0.036975 -0.010770 0.000000 0.000000 0.000000
# 3 -0.003192 -0.010770 0.014808 0.000000 0.000000 0.000000
# 4 0.000000 0.000000 0.000000 0.055360 0.000000 0.000000
# 5 0.000000 0.000000 0.000000 0.000000 0.060348 0.000000
# 6 0.000000 0.000000 0.000000 0.000000 0.000000 0.055312
#
#
# Mechanical properties :
#
#
# Convention : Reuss Voigt Hill
#
# Bulk Modulus (GPa) = 44.33911 51.95404 48.14658
# Shear Modulus (GPa) = 15.12281 17.13555 16.12918
#
# Velocity S-wave (km/s) = 3.14397 3.34666 3.24690
# Velocity P-wave (km/s) = 6.49309 6.99225 6.74729
#
# Compressibility (1/GPa) = 0.02255345
#
# Stress axis : x y z
#
# Youngs Moduli (GPa) = 28.13802 27.04564 67.53236
#
# Poissons Ratio (x) = 0.49823 0.21555
# Poissons Ratio (y) = 0.51835 0.72735
# Poissons Ratio (z) = 0.08981 0.29129
#
# Static dielectric constant tensor:
#      x y z
#    x 1.477030 0.000000 0.000000 
#    y 0.000000 1.525480 0.000000 
#    z 0.000000 0.000000 1.563170 
# 
# From -- ./inp_files/44313.got.cif
#   From: 2010.05.17/outbox.cif.g08.bks.cpg/sg65_23_cif.got.tgz:44313.got - 2010.06.03 17:01:31.
