data_PCOD9483435
_publ_section_title
;
Structure prediction by ZEFSAII (Michael W. Deem and Ramdas Pophale) SiO2 
 PCOD9483435
Probable space group: C M M M
;
_chemical_formula_sum "Si O2"
_cell_formula_units_Z 80
_cell_length_a 8.168273
_cell_length_b 26.135672
_cell_length_c 24.268713
_cell_angle_alpha 90.000000
_cell_angle_beta 90.000000
_cell_angle_gamma 90.000000
_cell_volume 5180.965033
_symmetry_space_group_name_H-M "C M M M"
_symmetry_group_IT_number 65
_symmetry_cell_setting 'orthorhombic'
loop_
_space_group_symop_operation_xyz
x,y,z
-x,-y,z
x,-y,-z
-x,y,-z
-x,-y,-z
x,y,-z
-x,y,z
x,-y,z
1/2+x,1/2+y,z
1/2-x,1/2-y,z
1/2+x,1/2-y,-z
1/2-x,1/2+y,-z
1/2-x,1/2-y,-z
1/2+x,1/2+y,-z
1/2-x,1/2+y,z
1/2+x,1/2-y,z
loop_
_atom_site_type_symbol
_atom_site_label
_atom_site_fract_x
_atom_site_fract_y
_atom_site_fract_z
Si Si1 0.000000 0.937601 0.563807
Si Si2 0.681944 0.937757 0.367684
Si Si3 0.803894 0.807628 0.936898
Si Si4 0.194653 0.597624 0.134637
Si Si5 0.192992 0.059333 0.249172
Si Si6 0.699873 0.000000 0.936703
O O1 0.165282 0.920721 0.595091
O O2 0.000000 0.922259 0.500000
O O3 0.000000 0.000000 0.565303
O O4 0.500000 0.921511 0.385601
O O5 0.713508 0.923465 0.304037
O O6 0.684736 0.000000 0.368732
O O7 0.750000 0.750000 0.923178
O O8 0.734539 0.849723 0.895765
O O9 0.000000 0.810178 0.935959
O O10 0.748027 0.818114 0.000000
O O11 0.272117 0.591529 0.194760
O O12 0.252976 0.550581 0.096094
O O13 0.000000 0.592440 0.140936
O O14 0.000000 0.059673 0.261960
O O15 0.240404 0.000000 0.237370
O O16 0.500000 0.000000 0.937599
O O17 0.755557 0.000000 0.000000
#
# Coordination Sequence:
#
# PCOD9483435 Si02
#       6
#     8  16  16  16  16   8
#     4   9  16  26  38  56  82 112 152 198 234 268
#     4   9  16  26  40  57  80 114 152 192 236 277
#     4  10  21  37  54  70  88 114 150 193 239 289
#     4  11  20  31  48  70  93 119 153 191 234 288
#     4  10  18  29  44  62  90 120 153 194 235 277
#     4   9  18  30  43  63  93 121 145 182 235 287
#
# _framework density 15.441140000000001
#
# number of rings (size 3 to 8) (size 9 to 14) (size 15 to 20)
#    0.000    2.200    2.000    2.400    0.000    3.200 
#    0.000    2.000    0.000    2.400    0.000    0.000 
#    0.000    0.000    0.000    0.000    0.000    1.000 
#
# Total GULP energy -223093.067804 kJ/mol
# GULP energy per Si atom -5577.326695 kJ/mol
# Density = 1.540599 g / cm^3
# Si number density = 15.441140 Si / 1000 Ang^3
#
#
#
# Elastic Constant Matrix: (Units=GPa)
#
#
# Indices 1 2 3 4 5 6 
#
# 1 76.2247 9.9596 41.6569 0.0000 0.0000 0.0000
# 2 9.9596 40.3227 28.2609 0.0000 0.0000 0.0000
# 3 41.6569 28.2609 104.2908 0.0000 0.0000 0.0000
# 4 0.0000 0.0000 0.0000 12.0960 0.0000 0.0000
# 5 0.0000 0.0000 0.0000 0.0000 17.2595 0.0000
# 6 0.0000 0.0000 0.0000 0.0000 0.0000 13.4946
#
#
#
# Elastic Compliance Matrix: (Units=1/GPa)
#
#
# Indices 1 2 3 4 5 6 
#
# 1 0.016798 0.000683 -0.006895 0.000000 0.000000 0.000000
# 2 0.000683 0.030642 -0.008576 0.000000 0.000000 0.000000
# 3 -0.006895 -0.008576 0.014667 0.000000 0.000000 0.000000
# 4 0.000000 0.000000 0.000000 0.082672 0.000000 0.000000
# 5 0.000000 0.000000 0.000000 0.000000 0.057939 0.000000
# 6 0.000000 0.000000 0.000000 0.000000 0.000000 0.074104
#
#
# Mechanical properties :
#
#
# Convention : Reuss Voigt Hill
#
# Bulk Modulus (GPa) = 30.74008 42.28814 36.51411
# Shear Modulus (GPa) = 15.76091 17.96740 16.86415
#
# Velocity S-wave (km/s) = 3.19832 3.41487 3.30837
# Velocity P-wave (km/s) = 5.79570 6.55702 6.18808
#
# Compressibility (1/GPa) = 0.03253082
#
# Stress axis : x y z
#
# Youngs Moduli (GPa) = 59.53160 32.63485 68.18229
#
# Poissons Ratio (x) = -0.02230 0.47010
# Poissons Ratio (y) = -0.04068 0.58476
# Poissons Ratio (z) = 0.41045 0.27989
#
# Static dielectric constant tensor:
#      x y z
#    x 1.545910 0.000000 0.000000 
#    y 0.000000 1.474650 0.000000 
#    z 0.000000 0.000000 1.509390 
# 
# From -- ./inp_files/67763.got.cif
#   From: 2010.05.17/outbox.cif.g08.bks.cpg/sg65_34_cif.got.tgz:67763.got - 2010.06.03 17:01:31.
