data_PCOD9483896
_publ_section_title
;
Structure prediction by ZEFSAII (Michael W. Deem and Ramdas Pophale) SiO2 
 PCOD9483896
Probable space group: C M M M
;
_chemical_formula_sum "Si O2"
_cell_formula_units_Z 88
_cell_length_a 26.571526
_cell_length_b 8.866040
_cell_length_c 22.981236
_cell_angle_alpha 90.000000
_cell_angle_beta 90.000000
_cell_angle_gamma 90.000000
_cell_volume 5414.016383
_symmetry_space_group_name_H-M "C M M M"
_symmetry_group_IT_number 65
_symmetry_cell_setting 'orthorhombic'
loop_
_space_group_symop_operation_xyz
x,y,z
-x,-y,z
x,-y,-z
-x,y,-z
-x,-y,-z
x,y,-z
-x,y,z
x,-y,z
1/2+x,1/2+y,z
1/2-x,1/2-y,z
1/2+x,1/2-y,-z
1/2-x,1/2+y,-z
1/2-x,1/2-y,-z
1/2+x,1/2+y,-z
1/2-x,1/2+y,z
1/2+x,1/2-y,z
loop_
_atom_site_type_symbol
_atom_site_label
_atom_site_fract_x
_atom_site_fract_y
_atom_site_fract_z
Si Si1 0.556146 0.672794 0.240557
Si Si2 0.805351 0.679656 0.937055
Si Si3 0.304273 0.318255 0.309319
Si Si4 0.405947 0.178373 0.354082
Si Si5 0.341891 0.675673 0.819677
Si Si6 0.500000 0.816251 0.567260
O O1 0.500000 0.691739 0.218393
O O2 0.561105 0.500000 0.264045
O O3 0.567568 0.786660 0.292470
O O4 0.598947 0.687862 0.192982
O O5 0.801909 0.500000 0.935336
O O6 0.750000 0.750000 0.937124
O O7 0.829652 0.735814 0.877661
O O8 0.829149 0.722335 0.000000
O O9 0.303271 0.500000 0.312049
O O10 0.250000 0.250000 0.325505
O O11 0.351395 0.258340 0.347777
O O12 0.315940 0.275131 0.241414
O O13 0.448028 0.231580 0.400801
O O14 0.397825 0.000000 0.362048
O O15 0.328210 0.500000 0.827991
O O16 0.500000 0.770901 0.500000
O O17 0.500000 0.000000 0.570216
#
# Coordination Sequence:
#
# PCOD9483896 Si02
#       6
#    16  16  16  16  16   8
#     4   9  17  30  48  69  97 127 155 195 243 286
#     4  10  20  32  46  64  87 117 152 192 236 281
#     4  10  20  33  49  73 103 133 163 201 248 297
#     4  10  18  30  50  75 101 132 167 202 242 291
#     4   9  18  30  46  69  93 121 155 192 238 287
#     4   9  18  32  51  77 107 135 166 205 244 283
#
# _framework density 16.254107000000001
#
# number of rings (size 3 to 8) (size 9 to 14) (size 15 to 20)
#    0.000    2.455    0.909    3.273    0.000    6.182 
#    0.000    0.000    0.000    5.455    0.000    3.818 
#    0.000    0.000    0.000    0.000    0.000    0.000 
#
# Total GULP energy -244972.401173 kJ/mol
# GULP energy per Si atom -5567.554572 kJ/mol
# Density = 1.621711 g / cm^3
# Si number density = 16.254107 Si / 1000 Ang^3
#
#
#
# Elastic Constant Matrix: (Units=GPa)
#
#
# Indices 1 2 3 4 5 6 
#
# 1 128.9942 37.2837 50.4631 0.0000 0.0000 0.0000
# 2 37.2837 40.7767 36.7029 0.0000 0.0000 0.0000
# 3 50.4631 36.7029 95.0071 0.0000 0.0000 0.0000
# 4 0.0000 0.0000 0.0000 13.7554 0.0000 0.0000
# 5 0.0000 0.0000 0.0000 0.0000 31.0516 0.0000
# 6 0.0000 0.0000 0.0000 0.0000 0.0000 23.8502
#
#
#
# Elastic Compliance Matrix: (Units=1/GPa)
#
#
# Indices 1 2 3 4 5 6 
#
# 1 0.011075 -0.007407 -0.003021 0.000000 0.000000 0.000000
# 2 -0.007407 0.042551 -0.012504 0.000000 0.000000 0.000000
# 3 -0.003021 -0.012504 0.016961 0.000000 0.000000 0.000000
# 4 0.000000 0.000000 0.000000 0.072699 0.000000 0.000000
# 5 0.000000 0.000000 0.000000 0.000000 0.032204 0.000000
# 6 0.000000 0.000000 0.000000 0.000000 0.000000 0.041928
#
#
# Mechanical properties :
#
#
# Convention : Reuss Voigt Hill
#
# Bulk Modulus (GPa) = 40.44872 57.07526 48.76199
# Shear Modulus (GPa) = 18.41461 23.08667 20.75064
#
# Velocity S-wave (km/s) = 3.36954 3.77285 3.57689
# Velocity P-wave (km/s) = 6.33069 7.36002 6.86467
#
# Compressibility (1/GPa) = 0.02472266
#
# Stress axis : x y z
#
# Youngs Moduli (GPa) = 90.29320 23.50109 58.96007
#
# Poissons Ratio (x) = 0.17408 0.17812
# Poissons Ratio (y) = 0.66881 0.73724
# Poissons Ratio (z) = 0.27278 0.29386
#
# Static dielectric constant tensor:
#      x y z
#    x 1.517800 0.000000 0.000000 
#    y 0.000000 1.568270 0.000000 
#    z 0.000000 0.000000 1.538160 
# 
# From -- ./inp_files/66234.got.cif
#   From: 2010.05.17/outbox.cif.g08.bks.cpg/sg65_34_cif.got.tgz:66234.got - 2010.06.03 17:01:31.
