data_PCOD9483861
_publ_section_title
;
Structure prediction by ZEFSAII (Michael W. Deem and Ramdas Pophale) SiO2 
 PCOD9483861
Probable space group: C M M M
;
_chemical_formula_sum "Si O2"
_cell_formula_units_Z 56
_cell_length_a 16.972016
_cell_length_b 25.802927
_cell_length_c 7.416605
_cell_angle_alpha 90.000000
_cell_angle_beta 90.000000
_cell_angle_gamma 90.000000
_cell_volume 3247.936694
_symmetry_space_group_name_H-M "C M M M"
_symmetry_group_IT_number 65
_symmetry_cell_setting 'orthorhombic'
loop_
_space_group_symop_operation_xyz
x,y,z
-x,-y,z
x,-y,-z
-x,y,-z
-x,-y,-z
x,y,-z
-x,y,z
x,-y,z
1/2+x,1/2+y,z
1/2-x,1/2-y,z
1/2+x,1/2-y,-z
1/2-x,1/2+y,-z
1/2-x,1/2-y,-z
1/2+x,1/2+y,-z
1/2-x,1/2+y,z
1/2+x,1/2-y,z
loop_
_atom_site_type_symbol
_atom_site_label
_atom_site_fract_x
_atom_site_fract_y
_atom_site_fract_z
Si Si1 0.911463 0.833379 0.500000
Si Si2 0.282618 0.306458 0.786321
Si Si3 0.409782 0.000000 0.781454
Si Si4 0.780800 0.583524 0.215342
Si Si5 0.850727 0.944032 0.500000
O O1 0.860982 0.816201 0.672628
O O2 0.908296 0.895679 0.500000
O O3 0.000000 0.813943 0.500000
O O4 0.250000 0.250000 0.739049
O O5 0.222975 0.354555 0.748001
O O6 0.298177 0.307469 0.000000
O O7 0.358275 0.050818 0.731114
O O8 0.500000 0.000000 0.716422
O O9 0.413226 0.000000 0.000000
O O10 0.707604 0.561495 0.328356
O O11 0.770345 0.576419 0.000000
O O12 0.888885 0.000000 0.500000
#
# Coordination Sequence:
#
# PCOD9483861 Si02
#       5
#     8  16   8  16   8
#     4  10  21  34  50  75 106 132 158 208 264 299
#     4   9  18  34  56  76  95 130 176 211 244 300
#     4   9  16  27  45  69  98 128 156 196 252 301
#     4   9  17  30  48  70  97 127 163 205 246 291
#     4  10  18  30  50  71  92 129 171 200 237 300
#
# _framework density 17.241714999999999
#
# number of rings (size 3 to 8) (size 9 to 14) (size 15 to 20)
#    0.000    2.714    1.429    0.429    0.000    0.857 
#    0.000    2.857    0.000    5.143    0.000    8.000 
#    0.000    0.000    0.000    0.000    0.000    0.000 
#
# Total GULP energy -155953.159740 kJ/mol
# GULP energy per Si atom -5569.755705 kJ/mol
# Density = 1.720247 g / cm^3
# Si number density = 17.241715 Si / 1000 Ang^3
#
#
#
# Elastic Constant Matrix: (Units=GPa)
#
#
# Indices 1 2 3 4 5 6 
#
# 1 118.7505 59.5999 30.2545 0.0000 0.0000 0.0000
# 2 59.5999 153.9069 33.4114 0.0000 0.0000 0.0000
# 3 30.2545 33.4114 54.0423 0.0000 0.0000 0.0000
# 4 0.0000 0.0000 0.0000 34.1997 0.0000 0.0000
# 5 0.0000 0.0000 0.0000 0.0000 12.1298 0.0000
# 6 0.0000 0.0000 0.0000 0.0000 0.0000 13.4817
#
#
#
# Elastic Compliance Matrix: (Units=1/GPa)
#
#
# Indices 1 2 3 4 5 6 
#
# 1 0.011203 -0.003438 -0.004146 0.000000 0.000000 0.000000
# 2 -0.003438 0.008560 -0.003367 0.000000 0.000000 0.000000
# 3 -0.004146 -0.003367 0.022907 0.000000 0.000000 0.000000
# 4 0.000000 0.000000 0.000000 0.029240 0.000000 0.000000
# 5 0.000000 0.000000 0.000000 0.000000 0.082442 0.000000
# 6 0.000000 0.000000 0.000000 0.000000 0.000000 0.074175
#
#
# Mechanical properties :
#
#
# Convention : Reuss Voigt Hill
#
# Bulk Modulus (GPa) = 48.15429 63.69238 55.92333
# Shear Modulus (GPa) = 19.42869 25.52450 22.47659
#
# Velocity S-wave (km/s) = 3.36049 3.85176 3.61448
# Velocity P-wave (km/s) = 6.56100 7.53674 7.06573
#
# Compressibility (1/GPa) = 0.02076658
#
# Stress axis : x y z
#
# Youngs Moduli (GPa) = 89.26225 116.82406 43.65492
#
# Poissons Ratio (x) = 0.40167 0.18100
# Poissons Ratio (y) = 0.30691 0.14700
# Poissons Ratio (z) = 0.37009 0.39338
#
# Static dielectric constant tensor:
#      x y z
#    x 1.531990 0.000000 0.000000 
#    y 0.000000 1.617710 0.000000 
#    z 0.000000 0.000000 1.599630 
# 
# From -- ./inp_files/6615.got.cif
#   From: 2010.05.17/outbox.cif.g08.bks.cpg/sg65_4_cif.got.tgz:6615.got - 2010.06.03 17:01:31.
