data_PCOD9483964
_publ_section_title
;
Structure prediction by ZEFSAII (Michael W. Deem and Ramdas Pophale) SiO2 
 PCOD9483964
Probable space group: C M M M
;
_chemical_formula_sum "Si O2"
_cell_formula_units_Z 120
_cell_length_a 18.993079
_cell_length_b 18.813415
_cell_length_c 19.593210
_cell_angle_alpha 90.000000
_cell_angle_beta 90.000000
_cell_angle_gamma 90.000000
_cell_volume 7001.137442
_symmetry_space_group_name_H-M "C M M M"
_symmetry_group_IT_number 65
_symmetry_cell_setting 'orthorhombic'
loop_
_space_group_symop_operation_xyz
x,y,z
-x,-y,z
x,-y,-z
-x,y,-z
-x,-y,-z
x,y,-z
-x,y,z
x,-y,z
1/2+x,1/2+y,z
1/2-x,1/2-y,z
1/2+x,1/2-y,-z
1/2-x,1/2+y,-z
1/2-x,1/2-y,-z
1/2+x,1/2+y,-z
1/2-x,1/2+y,z
1/2+x,1/2-y,z
loop_
_atom_site_type_symbol
_atom_site_label
_atom_site_fract_x
_atom_site_fract_y
_atom_site_fract_z
Si Si1 0.142678 0.913797 0.576627
Si Si2 0.679160 0.418938 0.835007
Si Si3 0.418946 0.913051 0.500000
Si Si4 0.416364 0.645853 0.716973
Si Si5 0.671166 0.718525 0.078958
Si Si6 0.583154 0.214829 0.200124
Si Si7 0.828583 0.582180 0.238589
Si Si8 0.698196 0.085329 0.395547
O O1 0.115052 0.899002 0.500000
O O2 0.105787 0.875449 0.640378
O O3 0.225241 0.891993 0.578354
O O4 0.138810 0.000000 0.586893
O O5 0.667982 0.500000 0.856125
O O6 0.627645 0.400409 0.771697
O O7 0.669514 0.362585 0.895112
O O8 0.758711 0.411093 0.807007
O O9 0.500000 0.888477 0.500000
O O10 0.370867 0.889521 0.435956
O O11 0.422057 0.000000 0.500000
O O12 0.500000 0.634390 0.724972
O O13 0.400560 0.727119 0.740355
O O14 0.750000 0.750000 0.086547
O O15 0.620794 0.759150 0.131306
O O16 0.650817 0.725080 0.000000
O O17 0.500000 0.214003 0.191359
O O18 0.612945 0.137841 0.217281
O O19 0.851931 0.500000 0.236487
O O20 0.806895 0.599892 0.315868
O O21 0.698129 0.000000 0.404573
#
# Coordination Sequence:
#
# PCOD9483964 Si02
#       8
#    16  16   8  16  16  16  16  16
#     4  10  18  30  51  77 107 144 185 230 278 330
#     4  10  19  33  56  85 115 146 180 226 280 326
#     4   9  16  26  42  66  98 135 175 221 276 329
#     4  10  21  35  53  78 111 149 187 228 278 334
#     4  10  20  36  59  85 111 146 187 221 260 320
#     4  10  22  39  58  81 111 149 185 225 276 328
#     4  10  19  33  57  85 109 139 184 234 278 328
#     4   9  16  28  47  72 103 136 173 221 274 325
#
# _framework density 17.140072
#
# number of rings (size 3 to 8) (size 9 to 14) (size 15 to 20)
#    0.000    2.200    3.333    0.400    0.000    2.667 
#    0.000    2.000    1.467    1.200    0.000    4.667 
#    0.000    0.000    0.000    0.000    0.000    0.000 
#
# Total GULP energy -334438.951340 kJ/mol
# GULP energy per Si atom -5573.982522 kJ/mol
# Density = 1.710106 g / cm^3
# Si number density = 17.140072 Si / 1000 Ang^3
#
#
#
# Elastic Constant Matrix: (Units=GPa)
#
#
# Indices 1 2 3 4 5 6 
#
# 1 67.5939 30.2927 33.6996 0.0000 0.0000 0.0000
# 2 30.2927 71.4370 50.9557 0.0000 0.0000 0.0000
# 3 33.6996 50.9557 111.9666 0.0000 0.0000 0.0000
# 4 0.0000 0.0000 0.0000 10.3229 0.0000 0.0000
# 5 0.0000 0.0000 0.0000 0.0000 5.5653 0.0000
# 6 0.0000 0.0000 0.0000 0.0000 0.0000 18.5938
#
#
#
# Elastic Compliance Matrix: (Units=1/GPa)
#
#
# Indices 1 2 3 4 5 6 
#
# 1 0.018934 -0.005869 -0.003028 0.000000 0.000000 0.000000
# 2 -0.005869 0.022546 -0.008494 0.000000 0.000000 0.000000
# 3 -0.003028 -0.008494 0.013708 0.000000 0.000000 0.000000
# 4 0.000000 0.000000 0.000000 0.096872 0.000000 0.000000
# 5 0.000000 0.000000 0.000000 0.000000 0.179686 0.000000
# 6 0.000000 0.000000 0.000000 0.000000 0.000000 0.053781
#
#
# Mechanical properties :
#
#
# Convention : Reuss Voigt Hill
#
# Bulk Modulus (GPa) = 49.00501 53.43263 51.21882
# Shear Modulus (GPa) = 11.70652 15.96635 13.83643
#
# Velocity S-wave (km/s) = 2.61625 3.05539 2.84431
# Velocity P-wave (km/s) = 6.14649 6.60977 6.38233
#
# Compressibility (1/GPa) = 0.02040608
#
# Stress axis : x y z
#
# Youngs Moduli (GPa) = 52.81479 44.35371 72.94948
#
# Poissons Ratio (x) = 0.26033 0.22086
# Poissons Ratio (y) = 0.30999 0.61964
# Poissons Ratio (z) = 0.15990 0.37674
#
# Static dielectric constant tensor:
#      x y z
#    x 1.572030 0.000000 0.000000 
#    y 0.000000 1.582250 0.000000 
#    z 0.000000 0.000000 1.571460 
# 
# From -- ./inp_files/63985.got.cif
#   From: 2010.05.17/outbox.cif.g08.bks.cpg/sg65_32_cif.got.tgz:63985.got - 2010.06.03 17:01:31.
