data_PCOD9483142
_publ_section_title
;
Structure prediction by ZEFSAII (Michael W. Deem and Ramdas Pophale) SiO2 
 PCOD9483142
Probable space group: C M M M
;
_chemical_formula_sum "Si O2"
_cell_formula_units_Z 104
_cell_length_a 27.892692
_cell_length_b 8.698386
_cell_length_c 27.536026
_cell_angle_alpha 90.000000
_cell_angle_beta 90.000000
_cell_angle_gamma 90.000000
_cell_volume 6680.829222
_symmetry_space_group_name_H-M "C M M M"
_symmetry_group_IT_number 65
_symmetry_cell_setting 'orthorhombic'
loop_
_space_group_symop_operation_xyz
x,y,z
-x,-y,z
x,-y,-z
-x,y,-z
-x,-y,-z
x,y,-z
-x,y,z
x,-y,z
1/2+x,1/2+y,z
1/2-x,1/2-y,z
1/2+x,1/2-y,-z
1/2-x,1/2+y,-z
1/2-x,1/2-y,-z
1/2+x,1/2+y,-z
1/2-x,1/2+y,z
1/2+x,1/2-y,z
loop_
_atom_site_type_symbol
_atom_site_label
_atom_site_fract_x
_atom_site_fract_y
_atom_site_fract_z
Si Si1 0.445139 0.684250 0.695529
Si Si2 0.198007 0.684510 0.351813
Si Si3 0.899786 0.315054 0.598424
Si Si4 0.804091 0.184933 0.841247
Si Si5 0.854445 0.315483 0.252934
Si Si6 0.943758 0.815484 0.500000
Si Si7 0.804069 0.814590 0.947821
O O1 0.500000 0.722868 0.707457
O O2 0.440312 0.500000 0.694142
O O3 0.431596 0.751125 0.642729
O O4 0.406668 0.753405 0.732692
O O5 0.200715 0.500000 0.352103
O O6 0.250000 0.750000 0.363148
O O7 0.155074 0.729408 0.388289
O O8 0.180359 0.731841 0.297803
O O9 0.902519 0.500000 0.598264
O O10 0.918336 0.249261 0.547941
O O11 0.750000 0.250000 0.837241
O O12 0.834994 0.249950 0.797265
O O13 0.823917 0.230156 0.894917
O O14 0.802182 0.000000 0.838304
O O15 0.855222 0.500000 0.251630
O O16 0.000000 0.771135 0.500000
O O17 0.941199 0.000000 0.500000
O O18 0.750000 0.750000 0.948021
O O19 0.802064 0.000000 0.947852
O O20 0.826195 0.766644 0.000000
#
# Coordination Sequence:
#
# PCOD9483142 Si02
#       7
#    16  16  16  16  16   8  16
#     4  10  20  34  52  73  96 121 150 186 229 276
#     4   9  19  33  49  69  92 121 155 188 221 262
#     4  10  21  36  53  75 100 125 155 187 224 274
#     4  10  18  27  41  62  90 123 158 196 235 273
#     4  10  20  32  46  67  94 123 157 193 229 274
#     4  11  23  37  54  77 100 121 152 193 234 275
#     4   8  14  24  37  54  79 114 154 192 230 272
#
# _framework density 15.566929
#
# number of rings (size 3 to 8) (size 9 to 14) (size 15 to 20)
#    0.000    2.385    0.000    3.923    0.000    9.231 
#    0.000    0.385    0.000    0.000    0.000    0.000 
#    0.000    0.615    0.000    7.077    0.000    2.000 
#
# Total GULP energy -289838.399955 kJ/mol
# GULP energy per Si atom -5573.815384 kJ/mol
# Density = 1.553150 g / cm^3
# Si number density = 15.566929 Si / 1000 Ang^3
#
#
#
# Elastic Constant Matrix: (Units=GPa)
#
#
# Indices 1 2 3 4 5 6 
#
# 1 103.3338 35.9687 73.3197 0.0000 0.0000 0.0000
# 2 35.9687 42.2958 41.1937 0.0000 0.0000 0.0000
# 3 73.3197 41.1937 164.2152 0.0000 0.0000 0.0000
# 4 0.0000 0.0000 0.0000 21.3190 0.0000 0.0000
# 5 0.0000 0.0000 0.0000 0.0000 14.2418 0.0000
# 6 0.0000 0.0000 0.0000 0.0000 0.0000 24.7051
#
#
#
# Elastic Compliance Matrix: (Units=1/GPa)
#
#
# Indices 1 2 3 4 5 6 
#
# 1 0.016412 -0.009025 -0.005064 0.000000 0.000000 0.000000
# 2 -0.009025 0.036250 -0.005064 0.000000 0.000000 0.000000
# 3 -0.005064 -0.005064 0.009621 0.000000 0.000000 0.000000
# 4 0.000000 0.000000 0.000000 0.046906 0.000000 0.000000
# 5 0.000000 0.000000 0.000000 0.000000 0.070216 0.000000
# 6 0.000000 0.000000 0.000000 0.000000 0.000000 0.040478
#
#
# Mechanical properties :
#
#
# Convention : Reuss Voigt Hill
#
# Bulk Modulus (GPa) = 41.70609 67.86767 54.78688
# Shear Modulus (GPa) = 18.78434 22.67735 20.73085
#
# Velocity S-wave (km/s) = 3.47750 3.82090 3.65324
# Velocity P-wave (km/s) = 6.55543 7.94718 7.28462
#
# Compressibility (1/GPa) = 0.02397731
#
# Stress axis : x y z
#
# Youngs Moduli (GPa) = 60.93220 27.58642 103.94258
#
# Poissons Ratio (x) = 0.24896 0.52633
# Poissons Ratio (y) = 0.54991 0.52635
# Poissons Ratio (z) = 0.30854 0.13969
#
# Static dielectric constant tensor:
#      x y z
#    x 1.498340 0.000000 0.000000 
#    y 0.000000 1.523620 0.000000 
#    z 0.000000 0.000000 1.537580 
# 
# From -- ./inp_files/71855.got.cif
#   From: 2010.05.17/outbox.cif.g08.bks.cpg/sg65_36_cif.got.tgz:71855.got - 2010.06.03 17:01:31.
