data_PCOD9483507
_publ_section_title
;
Structure prediction by ZEFSAII (Michael W. Deem and Ramdas Pophale) SiO2 
 PCOD9483507
Probable space group: C M M M
;
_chemical_formula_sum "Si O2"
_cell_formula_units_Z 88
_cell_length_a 8.748160
_cell_length_b 28.062684
_cell_length_c 22.167094
_cell_angle_alpha 90.000000
_cell_angle_beta 90.000000
_cell_angle_gamma 90.000000
_cell_volume 5441.951743
_symmetry_space_group_name_H-M "C M M M"
_symmetry_group_IT_number 65
_symmetry_cell_setting 'orthorhombic'
loop_
_space_group_symop_operation_xyz
x,y,z
-x,-y,z
x,-y,-z
-x,y,-z
-x,-y,-z
x,y,-z
-x,y,z
x,-y,z
1/2+x,1/2+y,z
1/2-x,1/2-y,z
1/2+x,1/2-y,-z
1/2-x,1/2+y,-z
1/2-x,1/2-y,-z
1/2+x,1/2+y,-z
1/2-x,1/2+y,z
1/2+x,1/2-y,z
loop_
_atom_site_type_symbol
_atom_site_label
_atom_site_fract_x
_atom_site_fract_y
_atom_site_fract_z
Si Si1 0.182779 0.855132 0.752351
Si Si2 0.315704 0.893490 0.432718
Si Si3 0.182807 0.802027 0.628807
Si Si4 0.184725 0.445683 0.688990
Si Si5 0.816256 0.696380 0.867735
Si Si6 0.816302 0.696772 0.000000
O O1 0.224537 0.820335 0.696262
O O2 0.244531 0.906994 0.733902
O O3 0.253183 0.835192 0.813594
O O4 0.000000 0.856030 0.756659
O O5 0.268717 0.908199 0.500000
O O6 0.500000 0.890300 0.431637
O O7 0.248350 0.841976 0.415929
O O8 0.270898 0.929091 0.378777
O O9 0.250000 0.750000 0.617806
O O10 0.000000 0.800834 0.624402
O O11 0.231522 0.500000 0.700255
O O12 0.000000 0.443128 0.692857
O O13 0.750000 0.750000 0.862374
O O14 0.000000 0.698922 0.864159
O O15 0.771902 0.676573 0.934461
O O16 0.750000 0.750000 0.000000
O O17 0.000000 0.699236 0.000000
#
# Coordination Sequence:
#
# PCOD9483507 Si02
#       6
#    16  16  16  16  16   8
#     4  10  20  32  47  69  94 122 157 194 232 274
#     4   9  18  32  49  69  92 117 147 184 226 275
#     4  10  20  32  46  64  89 121 155 190 226 267
#     4   9  18  33  52  72  93 117 147 187 235 283
#     4  10  18  29  46  69  99 132 163 193 226 266
#     4   8  16  28  42  64  95 130 163 192 222 261
#
# _framework density 16.170669
#
# number of rings (size 3 to 8) (size 9 to 14) (size 15 to 20)
#    0.000    2.545    0.000    2.182    0.000    5.818 
#    0.000    1.818    0.000    0.000    0.000    5.727 
#    0.000    5.091    0.000    0.000    0.000    0.000 
#
# Total GULP energy -245281.751419 kJ/mol
# GULP energy per Si atom -5574.585260 kJ/mol
# Density = 1.613386 g / cm^3
# Si number density = 16.170669 Si / 1000 Ang^3
#
#
#
# Elastic Constant Matrix: (Units=GPa)
#
#
# Indices 1 2 3 4 5 6 
#
# 1 21.5754 20.0656 28.6384 0.0000 0.0000 0.0000
# 2 20.0656 84.9533 39.5529 0.0000 0.0000 0.0000
# 3 28.6384 39.5529 127.4968 0.0000 0.0000 0.0000
# 4 0.0000 0.0000 0.0000 11.9361 0.0000 0.0000
# 5 0.0000 0.0000 0.0000 0.0000 19.5964 0.0000
# 6 0.0000 0.0000 0.0000 0.0000 0.0000 22.0249
#
#
#
# Elastic Compliance Matrix: (Units=1/GPa)
#
#
# Indices 1 2 3 4 5 6 
#
# 1 0.074501 -0.011461 -0.013179 0.000000 0.000000 0.000000
# 2 -0.011461 0.015521 -0.002241 0.000000 0.000000 0.000000
# 3 -0.013179 -0.002241 0.011499 0.000000 0.000000 0.000000
# 4 0.000000 0.000000 0.000000 0.083780 0.000000 0.000000
# 5 0.000000 0.000000 0.000000 0.000000 0.051030 0.000000
# 6 0.000000 0.000000 0.000000 0.000000 0.000000 0.045403
#
#
# Mechanical properties :
#
#
# Convention : Reuss Voigt Hill
#
# Bulk Modulus (GPa) = 20.93803 45.61549 33.27676
# Shear Modulus (GPa) = 14.22817 20.42939 17.32878
#
# Velocity S-wave (km/s) = 2.96949 3.55823 3.27711
# Velocity P-wave (km/s) = 4.97327 6.71948 5.91121
#
# Compressibility (1/GPa) = 0.04775999
#
# Stress axis : x y z
#
# Youngs Moduli (GPa) = 13.42259 64.42689 86.96561
#
# Poissons Ratio (x) = 0.73839 1.14613
# Poissons Ratio (y) = 0.15383 0.19487
# Poissons Ratio (z) = 0.17690 0.14437
#
# Static dielectric constant tensor:
#      x y z
#    x 1.543290 0.000000 0.000000 
#    y 0.000000 1.503940 0.000000 
#    z 0.000000 0.000000 1.566570 
# 
# From -- ./inp_files/59831.got.cif
#   From: 2010.05.17/outbox.cif.g08.bks.cpg/sg65_30_cif.got.tgz:59831.got - 2010.06.03 17:01:31.
