data_PCOD9483805
_publ_section_title
;
Structure prediction by ZEFSAII (Michael W. Deem and Ramdas Pophale) SiO2 
 PCOD9483805
Probable space group: C M M M
;
_chemical_formula_sum "Si O2"
_cell_formula_units_Z 104
_cell_length_a 7.530721
_cell_length_b 31.282928
_cell_length_c 20.951735
_cell_angle_alpha 90.000000
_cell_angle_beta 90.000000
_cell_angle_gamma 90.000000
_cell_volume 4935.872646
_symmetry_space_group_name_H-M "C M M M"
_symmetry_group_IT_number 65
_symmetry_cell_setting 'orthorhombic'
loop_
_space_group_symop_operation_xyz
x,y,z
-x,-y,z
x,-y,-z
-x,y,-z
-x,-y,-z
x,y,-z
-x,y,z
x,-y,z
1/2+x,1/2+y,z
1/2-x,1/2-y,z
1/2+x,1/2-y,-z
1/2-x,1/2+y,-z
1/2-x,1/2-y,-z
1/2+x,1/2+y,-z
1/2-x,1/2+y,z
1/2+x,1/2-y,z
loop_
_atom_site_type_symbol
_atom_site_label
_atom_site_fract_x
_atom_site_fract_y
_atom_site_fract_z
Si Si1 0.215885 0.000000 0.929874
Si Si2 0.790325 0.165470 0.072805
Si Si3 0.218666 0.360091 0.314410
Si Si4 0.705687 0.951039 0.712092
Si Si5 0.290184 0.797250 0.797379
Si Si6 0.784289 0.082192 0.147890
Si Si7 0.287369 0.799224 0.428155
O O1 0.267833 0.957567 0.894895
O O2 0.000000 0.000000 0.931251
O O3 0.285768 0.000000 0.000000
O O4 0.772024 0.200252 0.128982
O O5 0.718310 0.123875 0.110360
O O6 0.000000 0.158236 0.065202
O O7 0.721466 0.172715 0.000000
O O8 0.281112 0.409131 0.323634
O O9 0.277987 0.335282 0.249238
O O10 0.276506 0.330964 0.373522
O O11 0.000000 0.360911 0.312312
O O12 0.500000 0.955047 0.693227
O O13 0.713857 0.931479 0.783369
O O14 0.779922 0.000000 0.710054
O O15 0.500000 0.802182 0.798941
O O16 0.250000 0.750000 0.771050
O O17 0.000000 0.084860 0.153345
O O18 0.218449 0.807005 0.500000
O O19 0.500000 0.804056 0.430336
O O20 0.250000 0.750000 0.411649
#
# Coordination Sequence:
#
# PCOD9483805 Si02
#       7
#     8  16  16  16  16  16  16
#     4   9  16  26  43  67  93 121 152 195 256 312
#     4  10  21  36  52  71  96 127 166 211 259 310
#     4   9  18  33  52  76 105 136 168 204 251 298
#     4  10  19  32  51  72  99 134 169 205 248 298
#     4  11  22  36  54  74  99 130 168 211 254 305
#     4  10  18  30  49  71  94 122 161 209 256 304
#     4   9  17  31  53  80 110 140 169 203 245 296
#
# _framework density 21.070235
#
# number of rings (size 3 to 8) (size 9 to 14) (size 15 to 20)
#    0.000    2.231    2.308    1.385    0.000    2.462 
#    0.000    1.538    0.000    2.308    0.000    3.231 
#    0.000    0.000    0.000    5.231    0.000    5.538 
#
# Total GULP energy -289771.514746 kJ/mol
# GULP energy per Si atom -5572.529130 kJ/mol
# Density = 2.102228 g / cm^3
# Si number density = 21.070235 Si / 1000 Ang^3
#
#
#
# Elastic Constant Matrix: (Units=GPa)
#
#
# Indices 1 2 3 4 5 6 
#
# 1 55.6937 0.2068 3.2791 0.0000 0.0000 0.0000
# 2 0.2068 169.9616 71.3298 0.0000 0.0000 0.0000
# 3 3.2791 71.3298 116.1722 0.0000 0.0000 0.0000
# 4 0.0000 0.0000 0.0000 6.3383 0.0000 0.0000
# 5 0.0000 0.0000 0.0000 0.0000 8.9399 0.0000
# 6 0.0000 0.0000 0.0000 0.0000 0.0000 9.8048
#
#
#
# Elastic Compliance Matrix: (Units=1/GPa)
#
#
# Indices 1 2 3 4 5 6 
#
# 1 0.017994 0.000258 -0.000666 0.000000 0.000000 0.000000
# 2 0.000258 0.007930 -0.004876 0.000000 0.000000 0.000000
# 3 -0.000666 -0.004876 0.011621 0.000000 0.000000 0.000000
# 4 0.000000 0.000000 0.000000 0.157771 0.000000 0.000000
# 5 0.000000 0.000000 0.000000 0.000000 0.111857 0.000000
# 6 0.000000 0.000000 0.000000 0.000000 0.000000 0.101991
#
#
# Mechanical properties :
#
#
# Convention : Reuss Voigt Hill
#
# Bulk Modulus (GPa) = 37.07154 54.60655 45.83904
# Shear Modulus (GPa) = 11.66250 22.81739 17.23994
#
# Velocity S-wave (km/s) = 2.35522 3.29435 2.86355
# Velocity P-wave (km/s) = 5.00286 6.35948 5.72152
#
# Compressibility (1/GPa) = 0.02697487
#
# Stress axis : x y z
#
# Youngs Moduli (GPa) = 55.57528 126.10633 86.05335
#
# Poissons Ratio (x) = -0.03249 0.05732
# Poissons Ratio (y) = -0.01432 0.41961
# Poissons Ratio (z) = 0.03702 0.61492
#
# Static dielectric constant tensor:
#      x y z
#    x 1.804500 0.000000 0.000000 
#    y 0.000000 1.792380 0.000000 
#    z 0.000000 0.000000 1.782580 
# 
# From -- ./inp_files/60891.got.cif
#   From: 2010.05.17/outbox.cif.g08.bks.cpg/sg65_31_cif.got.tgz:60891.got - 2010.06.03 17:01:31.
