data_PCOD9483299
_publ_section_title
;
Structure prediction by ZEFSAII (Michael W. Deem and Ramdas Pophale) SiO2 
 PCOD9483299
Probable space group: C M M M
;
_chemical_formula_sum "Si O2"
_cell_formula_units_Z 56
_cell_length_a 27.228643
_cell_length_b 7.927124
_cell_length_c 15.948783
_cell_angle_alpha 90.000000
_cell_angle_beta 90.000000
_cell_angle_gamma 90.000000
_cell_volume 3442.462346
_symmetry_space_group_name_H-M "C M M M"
_symmetry_group_IT_number 65
_symmetry_cell_setting 'orthorhombic'
loop_
_space_group_symop_operation_xyz
x,y,z
-x,-y,z
x,-y,-z
-x,y,-z
-x,-y,-z
x,y,-z
-x,y,z
x,-y,z
1/2+x,1/2+y,z
1/2-x,1/2-y,z
1/2+x,1/2-y,-z
1/2-x,1/2+y,-z
1/2-x,1/2-y,-z
1/2+x,1/2+y,-z
1/2-x,1/2+y,z
1/2+x,1/2-y,z
loop_
_atom_site_type_symbol
_atom_site_label
_atom_site_fract_x
_atom_site_fract_y
_atom_site_fract_z
Si Si1 0.558464 0.500000 0.600686
Si Si2 0.307366 0.801592 0.816587
Si Si3 0.692765 0.301149 0.000000
Si Si4 0.872113 0.707436 0.341026
Si Si5 0.193732 0.299873 0.500000
O O1 0.500000 0.500000 0.611810
O O2 0.568580 0.500000 0.500000
O O3 0.581962 0.330095 0.641045
O O4 0.250000 0.750000 0.807588
O O5 0.343955 0.740883 0.744251
O O6 0.306533 0.000000 0.807388
O O7 0.326095 0.760913 0.910292
O O8 0.750000 0.250000 0.000000
O O9 0.689455 0.500000 0.000000
O O10 0.881276 0.500000 0.341704
O O11 0.834854 0.751672 0.416613
O O12 0.192249 0.500000 0.500000
O O13 0.250000 0.250000 0.500000
#
# Coordination Sequence:
#
# PCOD9483299 Si02
#       5
#     8  16   8  16   8
#     4  11  24  40  62  81 101 143 187 234 284 319
#     4  10  19  31  49  75 109 150 182 217 264 316
#     4  10  18  28  44  70 106 147 186 221 253 305
#     4  10  22  37  53  79 110 139 180 224 271 327
#     4  10  20  32  48  75 109 146 174 208 257 314
#
# _framework density 16.267424999999999
#
# number of rings (size 3 to 8) (size 9 to 14) (size 15 to 20)
#    0.000    1.857    1.429    4.714    6.000    0.571 
#    0.000    1.429    0.000    0.000    0.000    2.000 
#    0.000    4.571    0.000    0.000    0.000    0.000 
#
# Total GULP energy -155939.334068 kJ/mol
# GULP energy per Si atom -5569.261931 kJ/mol
# Density = 1.623040 g / cm^3
# Si number density = 16.267425 Si / 1000 Ang^3
#
#
#
# Elastic Constant Matrix: (Units=GPa)
#
#
# Indices 1 2 3 4 5 6 
#
# 1 94.7140 41.4665 61.0922 0.0000 0.0000 0.0000
# 2 41.4665 50.7705 28.7386 0.0000 0.0000 0.0000
# 3 61.0922 28.7386 151.2881 0.0000 0.0000 0.0000
# 4 0.0000 0.0000 0.0000 56.8955 0.0000 0.0000
# 5 0.0000 0.0000 0.0000 0.0000 10.5425 0.0000
# 6 0.0000 0.0000 0.0000 0.0000 0.0000 27.4374
#
#
#
# Elastic Compliance Matrix: (Units=1/GPa)
#
#
# Indices 1 2 3 4 5 6 
#
# 1 0.019855 -0.013085 -0.005532 0.000000 0.000000 0.000000
# 2 -0.013085 0.030693 -0.000546 0.000000 0.000000 0.000000
# 3 -0.005532 -0.000546 0.008948 0.000000 0.000000 0.000000
# 4 0.000000 0.000000 0.000000 0.017576 0.000000 0.000000
# 5 0.000000 0.000000 0.000000 0.000000 0.094854 0.000000
# 6 0.000000 0.000000 0.000000 0.000000 0.000000 0.036447
#
#
# Mechanical properties :
#
#
# Convention : Reuss Voigt Hill
#
# Bulk Modulus (GPa) = 47.24028 62.15189 54.69609
# Shear Modulus (GPa) = 19.70391 30.00675 24.85533
#
# Velocity S-wave (km/s) = 3.48408 4.29953 3.91310
# Velocity P-wave (km/s) = 6.72963 7.93330 7.35612
#
# Compressibility (1/GPa) = 0.02116837
#
# Stress axis : x y z
#
# Youngs Moduli (GPa) = 50.36460 32.58067 111.76092
#
# Poissons Ratio (x) = 0.42632 0.61828
# Poissons Ratio (y) = 0.65903 0.06107
# Poissons Ratio (z) = 0.27862 0.01780
#
# Static dielectric constant tensor:
#      x y z
#    x 1.507990 0.000000 0.000000 
#    y 0.000000 1.573750 0.000000 
#    z 0.000000 0.000000 1.512820 
# 
# From -- ./inp_files/44996.got.cif
#   From: 2010.05.17/outbox.cif.g08.bks.cpg/sg65_23_cif.got.tgz:44996.got - 2010.06.03 17:01:31.
