data_PCOD9483133
_publ_section_title
;
Structure prediction by ZEFSAII (Michael W. Deem and Ramdas Pophale) SiO2 
 PCOD9483133
Probable space group: C M M M
;
_chemical_formula_sum "Si O2"
_cell_formula_units_Z 104
_cell_length_a 8.760167
_cell_length_b 27.869302
_cell_length_c 27.436466
_cell_angle_alpha 90.000000
_cell_angle_beta 90.000000
_cell_angle_gamma 90.000000
_cell_volume 6698.331667
_symmetry_space_group_name_H-M "C M M M"
_symmetry_group_IT_number 65
_symmetry_cell_setting 'orthorhombic'
loop_
_space_group_symop_operation_xyz
x,y,z
-x,-y,z
x,-y,-z
-x,y,-z
-x,-y,-z
x,y,-z
-x,y,z
x,-y,z
1/2+x,1/2+y,z
1/2-x,1/2-y,z
1/2+x,1/2-y,-z
1/2-x,1/2+y,-z
1/2-x,1/2-y,-z
1/2+x,1/2+y,-z
1/2-x,1/2+y,z
1/2+x,1/2-y,z
loop_
_atom_site_type_symbol
_atom_site_label
_atom_site_fract_x
_atom_site_fract_y
_atom_site_fract_z
Si Si1 0.182659 0.894487 0.904142
Si Si2 0.183362 0.054869 0.197746
Si Si3 0.316772 0.943836 0.000000
Si Si4 0.184108 0.803913 0.552385
Si Si5 0.316762 0.802617 0.145874
Si Si6 0.183250 0.803811 0.340831
Si Si7 0.182097 0.645925 0.753057
O O1 0.218208 0.928066 0.857382
O O2 0.250454 0.842450 0.890803
O O3 0.000000 0.891230 0.908700
O O4 0.252812 0.917560 0.952250
O O5 0.261803 0.092849 0.233250
O O6 0.000000 0.058028 0.203587
O O7 0.230505 0.000000 0.205211
O O8 0.500000 0.941588 0.000000
O O9 0.270929 0.000000 0.000000
O O10 0.230993 0.826177 0.500000
O O11 0.250000 0.750000 0.552222
O O12 0.228226 0.824029 0.605438
O O13 0.000000 0.801476 0.552336
O O14 0.500000 0.801914 0.142604
O O15 0.250000 0.750000 0.137332
O O16 0.274078 0.820759 0.200478
O O17 0.250000 0.750000 0.336868
O O18 0.244658 0.834603 0.296187
O O19 0.000000 0.801136 0.338368
O O20 0.000000 0.647104 0.749020
#
# Coordination Sequence:
#
# PCOD9483133 Si02
#       7
#    16  16   8  16  16  16  16
#     4  10  20  35  55  77  99 124 155 189 226 270
#     4   9  18  33  52  72  94 120 150 186 228 272
#     4  11  23  37  54  77 104 129 153 187 229 271
#     4   8  14  24  37  54  78 111 150 188 226 267
#     4  10  20  34  51  71  96 127 160 192 228 269
#     4  10  18  27  41  61  88 121 155 192 230 268
#     4  10  20  31  45  67  94 123 155 190 226 270
#
# _framework density 15.526254
#
# number of rings (size 3 to 8) (size 9 to 14) (size 15 to 20)
#    0.000    2.385    0.000    3.000    0.000    5.846 
#    0.000    0.385    0.000    0.000    0.000    0.000 
#    0.000    0.615    0.000    7.077    0.000    2.000 
#
# Total GULP energy -289874.137186 kJ/mol
# GULP energy per Si atom -5574.502638 kJ/mol
# Density = 1.549092 g / cm^3
# Si number density = 15.526254 Si / 1000 Ang^3
#
#
#
# Elastic Constant Matrix: (Units=GPa)
#
#
# Indices 1 2 3 4 5 6 
#
# 1 40.6572 40.5675 49.0475 0.0000 0.0000 0.0000
# 2 40.5675 116.6700 74.9131 0.0000 0.0000 0.0000
# 3 49.0475 74.9131 157.0482 0.0000 0.0000 0.0000
# 4 0.0000 0.0000 0.0000 14.8686 0.0000 0.0000
# 5 0.0000 0.0000 0.0000 0.0000 21.3089 0.0000
# 6 0.0000 0.0000 0.0000 0.0000 0.0000 24.4258
#
#
#
# Elastic Compliance Matrix: (Units=1/GPa)
#
#
# Indices 1 2 3 4 5 6 
#
# 1 0.046091 -0.009779 -0.009730 0.000000 0.000000 0.000000
# 2 -0.009779 0.014430 -0.003829 0.000000 0.000000 0.000000
# 3 -0.009730 -0.003829 0.011233 0.000000 0.000000 0.000000
# 4 0.000000 0.000000 0.000000 0.067256 0.000000 0.000000
# 5 0.000000 0.000000 0.000000 0.000000 0.046929 0.000000
# 6 0.000000 0.000000 0.000000 0.000000 0.000000 0.040940
#
#
# Mechanical properties :
#
#
# Convention : Reuss Voigt Hill
#
# Bulk Modulus (GPa) = 39.87587 71.49241 55.68414
# Shear Modulus (GPa) = 17.73584 22.11047 19.92316
#
# Velocity S-wave (km/s) = 3.38348 3.77778 3.58605
# Velocity P-wave (km/s) = 6.40332 8.07310 7.28620
#
# Compressibility (1/GPa) = 0.02507782
#
# Stress axis : x y z
#
# Youngs Moduli (GPa) = 21.69611 69.29935 89.02451
#
# Poissons Ratio (x) = 0.67767 0.86622
# Poissons Ratio (y) = 0.21216 0.34090
# Poissons Ratio (z) = 0.21111 0.26537
#
# Static dielectric constant tensor:
#      x y z
#    x 1.520260 0.000000 0.000000 
#    y 0.000000 1.485060 0.000000 
#    z 0.000000 0.000000 1.538010 
# 
# From -- ./inp_files/68174.got.cif
#   From: 2010.05.17/outbox.cif.g08.bks.cpg/sg65_35_cif.got.tgz:68174.got - 2010.06.03 17:01:31.
