data_PCOD9483875
_publ_section_title
;
Structure prediction by ZEFSAII (Michael W. Deem and Ramdas Pophale) SiO2 
 PCOD9483875
Probable space group: C M M M
;
_chemical_formula_sum "Si O2"
_cell_formula_units_Z 80
_cell_length_a 19.833934
_cell_length_b 23.815030
_cell_length_c 7.311907
_cell_angle_alpha 90.000000
_cell_angle_beta 90.000000
_cell_angle_gamma 90.000000
_cell_volume 3453.748073
_symmetry_space_group_name_H-M "C M M M"
_symmetry_group_IT_number 65
_symmetry_cell_setting 'orthorhombic'
loop_
_space_group_symop_operation_xyz
x,y,z
-x,-y,z
x,-y,-z
-x,y,-z
-x,-y,-z
x,y,-z
-x,y,z
x,-y,z
1/2+x,1/2+y,z
1/2-x,1/2-y,z
1/2+x,1/2-y,-z
1/2-x,1/2+y,-z
1/2-x,1/2-y,-z
1/2+x,1/2+y,-z
1/2-x,1/2+y,z
1/2+x,1/2-y,z
loop_
_atom_site_type_symbol
_atom_site_label
_atom_site_fract_x
_atom_site_fract_y
_atom_site_fract_z
Si Si1 0.429762 0.380574 0.279616
Si Si2 0.577969 0.793939 0.222250
Si Si3 0.682575 0.300071 0.793356
Si Si4 0.770504 0.500000 0.209159
Si Si5 0.806339 0.625988 0.777735
Si Si6 0.886828 0.000000 0.279458
O O1 0.426548 0.376371 0.500000
O O2 0.500000 0.353574 0.219280
O O3 0.363628 0.354417 0.200889
O O4 0.426448 0.444950 0.227298
O O5 0.500000 0.790996 0.285082
O O6 0.629561 0.744989 0.288395
O O7 0.619101 0.850964 0.265880
O O8 0.575425 0.789531 0.000000
O O9 0.752381 0.325420 0.715240
O O10 0.694682 0.280912 0.000000
O O11 0.792053 0.438154 0.285278
O O12 0.689507 0.500000 0.211282
O O13 0.795551 0.500000 0.000000
O O14 0.798871 0.625644 0.000000
O O15 0.881677 0.000000 0.500000
#
# Coordination Sequence:
#
# PCOD9483875 Si02
#       6
#    16  16  16   8  16   8
#     4  10  20  32  46  67  98 133 164 195 236 285
#     4   9  17  29  46  71 100 129 162 199 239 287
#     4  10  18  30  50  73  97 126 161 198 237 283
#     4  10  18  31  50  73  96 123 158 202 248 284
#     4   9  17  29  47  70  98 127 159 200 244 285
#     4  10  19  32  48  65  93 130 166 198 233 282
#
# _framework density 23.163240999999999
#
# number of rings (size 3 to 8) (size 9 to 14) (size 15 to 20)
#    0.000    2.400    2.000    1.500    0.000    4.800 
#    0.000    0.500    0.000    8.400    0.000    0.000 
#    0.000    0.800    0.000    0.000    0.000    0.000 
#
# Total GULP energy -223010.108726 kJ/mol
# GULP energy per Si atom -5575.252718 kJ/mol
# Density = 2.311052 g / cm^3
# Si number density = 23.163241 Si / 1000 Ang^3
#
#
#
# Elastic Constant Matrix: (Units=GPa)
#
#
# Indices 1 2 3 4 5 6 
#
# 1 193.2221 97.5586 11.9714 0.0000 0.0000 0.0000
# 2 97.5586 107.9020 1.5136 0.0000 0.0000 0.0000
# 3 11.9714 1.5136 86.1918 0.0000 0.0000 0.0000
# 4 0.0000 0.0000 0.0000 3.7649 0.0000 0.0000
# 5 0.0000 0.0000 0.0000 0.0000 -1.0558 0.0000
# 6 0.0000 0.0000 0.0000 0.0000 0.0000 81.3956
#
#
#
# Elastic Compliance Matrix: (Units=1/GPa)
#
#
# Indices 1 2 3 4 5 6 
#
# 1 0.009642 -0.008701 -0.001186 0.000000 0.000000 0.000000
# 2 -0.008701 0.017122 0.000908 0.000000 0.000000 0.000000
# 3 -0.001186 0.000908 0.011751 0.000000 0.000000 0.000000
# 4 0.000000 0.000000 0.000000 0.265614 0.000000 0.000000
# 5 0.000000 0.000000 0.000000 0.000000 -0.947122 0.000000
# 6 0.000000 0.000000 0.000000 0.000000 0.000000 0.012286
#
#
# Mechanical properties :
#
#
# Convention : Reuss Voigt Hill
#
# Bulk Modulus (GPa) = 48.64874 67.71144 58.18009
# Shear Modulus (GPa) = -8.25224 35.23908 13.49342
#
# Velocity S-wave (km/s) = -1.88955 3.90466 2.41620
# Velocity P-wave (km/s) = 4.03580 7.04445 5.74073
#
# Compressibility (1/GPa) = 0.02055552
#
# Stress axis : x y z
#
# Youngs Moduli (GPa) = 103.71081 58.40406 85.10004
#
# Poissons Ratio (x) = 0.50819 0.10096
# Poissons Ratio (y) = 0.90241 -0.07726
# Poissons Ratio (z) = 0.12305 -0.05302
#
# Static dielectric constant tensor:
#      x y z
#    x 1.826810 0.000000 0.000000 
#    y 0.000000 1.912420 0.000000 
#    z 0.000000 0.000000 1.904290 
# 
# From -- ./inp_files/9703.got.cif
#   From: 2010.05.17/outbox.cif.g08.bks.cpg/sg65_5_cif.got.tgz:9703.got - 2010.06.03 17:01:31.
