data_PCOD9483119
_publ_section_title
;
Structure prediction by ZEFSAII (Michael W. Deem and Ramdas Pophale) SiO2 
 PCOD9483119
Probable space group: C M M M
;
_chemical_formula_sum "Si O2"
_cell_formula_units_Z 104
_cell_length_a 7.543827
_cell_length_b 28.019659
_cell_length_c 23.471369
_cell_angle_alpha 90.000000
_cell_angle_beta 90.000000
_cell_angle_gamma 90.000000
_cell_volume 4961.271421
_symmetry_space_group_name_H-M "C M M M"
_symmetry_group_IT_number 65
_symmetry_cell_setting 'orthorhombic'
loop_
_space_group_symop_operation_xyz
x,y,z
-x,-y,z
x,-y,-z
-x,y,-z
-x,-y,-z
x,y,-z
-x,y,z
x,-y,z
1/2+x,1/2+y,z
1/2-x,1/2-y,z
1/2+x,1/2-y,-z
1/2-x,1/2+y,-z
1/2-x,1/2-y,-z
1/2+x,1/2+y,-z
1/2-x,1/2+y,z
1/2+x,1/2-y,z
loop_
_atom_site_type_symbol
_atom_site_label
_atom_site_fract_x
_atom_site_fract_y
_atom_site_fract_z
Si Si1 0.213159 0.804470 0.565291
Si Si2 0.289011 0.197934 0.256108
Si Si3 0.214780 0.945334 0.750518
Si Si4 0.212181 0.301950 0.125167
Si Si5 0.699643 0.379323 0.344488
Si Si6 0.782916 0.500000 0.065980
Si Si7 0.710135 0.905204 0.126989
O O1 0.276331 0.808372 0.500000
O O2 0.250000 0.750000 0.584463
O O3 0.282474 0.847713 0.604756
O O4 0.000000 0.808838 0.565673
O O5 0.500000 0.188740 0.256893
O O6 0.250000 0.250000 0.280373
O O7 0.225248 0.199356 0.190904
O O8 0.193518 0.159100 0.293566
O O9 0.279974 0.924006 0.690022
O O10 0.268155 0.913603 0.805144
O O11 0.000000 0.944792 0.748679
O O12 0.272937 0.000000 0.759586
O O13 0.250000 0.250000 0.098491
O O14 0.278751 0.353827 0.105132
O O15 0.000000 0.304715 0.126195
O O16 0.500000 0.393106 0.362323
O O17 0.716811 0.547835 0.096613
O O18 0.000000 0.500000 0.069838
O O19 0.736287 0.500000 0.000000
O O20 0.500000 0.904837 0.115779
#
# Coordination Sequence:
#
# PCOD9483119 Si02
#       7
#    16  16  16  16  16   8  16
#     4   9  18  32  48  66  90 122 160 200 243 289
#     4  10  18  27  40  62  94 124 154 188 229 282
#     4  10  20  32  47  70  99 129 160 196 250 306
#     4   9  18  29  43  67  97 132 164 194 236 291
#     4  10  19  30  45  65  91 124 159 197 241 290
#     4   9  18  32  55  83 105 129 166 215 258 288
#     4  10  18  32  53  75 102 133 169 208 248 296
#
# _framework density 20.962368999999999
#
# number of rings (size 3 to 8) (size 9 to 14) (size 15 to 20)
#    0.000    2.385    2.308    0.923    0.000    3.077 
#    0.000    0.000    0.000    1.846    0.000    3.231 
#    0.000    0.000    0.000    6.615    0.000    7.077 
#
# Total GULP energy -289790.464560 kJ/mol
# GULP energy per Si atom -5572.893549 kJ/mol
# Density = 2.091466 g / cm^3
# Si number density = 20.962369 Si / 1000 Ang^3
#
#
#
# Elastic Constant Matrix: (Units=GPa)
#
#
# Indices 1 2 3 4 5 6 
#
# 1 57.7511 1.3429 -4.1798 0.0000 0.0000 0.0000
# 2 1.3429 174.5514 37.9929 0.0000 0.0000 0.0000
# 3 -4.1798 37.9929 61.5232 0.0000 0.0000 0.0000
# 4 0.0000 0.0000 0.0000 14.1237 0.0000 0.0000
# 5 0.0000 0.0000 0.0000 0.0000 6.9961 0.0000
# 6 0.0000 0.0000 0.0000 0.0000 0.0000 11.8813
#
#
#
# Elastic Compliance Matrix: (Units=1/GPa)
#
#
# Indices 1 2 3 4 5 6 
#
# 1 0.017432 -0.000453 0.001464 0.000000 0.000000 0.000000
# 2 -0.000453 0.006630 -0.004125 0.000000 0.000000 0.000000
# 3 0.001464 -0.004125 0.018901 0.000000 0.000000 0.000000
# 4 0.000000 0.000000 0.000000 0.070803 0.000000 0.000000
# 5 0.000000 0.000000 0.000000 0.000000 0.142937 0.000000
# 6 0.000000 0.000000 0.000000 0.000000 0.000000 0.084166
#
#
# Mechanical properties :
#
#
# Convention : Reuss Voigt Hill
#
# Bulk Modulus (GPa) = 27.22177 40.45975 33.84076
# Shear Modulus (GPa) = 13.91429 23.84486 18.87958
#
# Velocity S-wave (km/s) = 2.57918 3.37636 3.00432
# Velocity P-wave (km/s) = 4.67801 5.87731 5.31161
#
# Compressibility (1/GPa) = 0.03673531
#
# Stress axis : x y z
#
# Youngs Moduli (GPa) = 57.36521 150.82135 52.90731
#
# Poissons Ratio (x) = 0.06828 -0.07745
# Poissons Ratio (y) = 0.02597 0.21826
# Poissons Ratio (z) = -0.08398 0.62218
#
# Static dielectric constant tensor:
#      x y z
#    x 1.791620 0.000000 0.000000 
#    y 0.000000 1.828080 0.000000 
#    z 0.000000 0.000000 1.746730 
# 
# From -- ./inp_files/68215.got.cif
#   From: 2010.05.17/outbox.cif.g08.bks.cpg/sg65_35_cif.got.tgz:68215.got - 2010.06.03 17:01:31.
