data_PCOD9483733
_publ_section_title
;
Structure prediction by ZEFSAII (Michael W. Deem and Ramdas Pophale) SiO2 
 PCOD9483733
Probable space group: C M M M
;
_chemical_formula_sum "Si O2"
_cell_formula_units_Z 104
_cell_length_a 29.987856
_cell_length_b 28.992614
_cell_length_c 8.795959
_cell_angle_alpha 90.000000
_cell_angle_beta 90.000000
_cell_angle_gamma 90.000000
_cell_volume 7647.438385
_symmetry_space_group_name_H-M "C M M M"
_symmetry_group_IT_number 65
_symmetry_cell_setting 'orthorhombic'
loop_
_space_group_symop_operation_xyz
x,y,z
-x,-y,z
x,-y,-z
-x,y,-z
-x,-y,-z
x,y,-z
-x,y,z
x,-y,z
1/2+x,1/2+y,z
1/2-x,1/2-y,z
1/2+x,1/2-y,-z
1/2-x,1/2+y,-z
1/2-x,1/2-y,-z
1/2+x,1/2+y,-z
1/2-x,1/2+y,z
1/2+x,1/2-y,z
loop_
_atom_site_type_symbol
_atom_site_label
_atom_site_fract_x
_atom_site_fract_y
_atom_site_fract_z
Si Si1 0.448740 0.804637 0.184237
Si Si2 0.215150 0.792608 0.326349
Si Si3 0.414408 0.092758 0.819687
Si Si4 0.712822 0.144565 0.818401
Si Si5 0.000000 0.446422 0.330270
Si Si6 0.824063 0.553399 0.318034
Si Si7 0.855109 0.272589 0.183712
O O1 0.500000 0.798492 0.239776
O O2 0.429144 0.855206 0.219948
O O3 0.406954 0.773001 0.233033
O O4 0.451256 0.801812 0.000000
O O5 0.206577 0.806567 0.500000
O O6 0.250000 0.750000 0.328665
O O7 0.241290 0.832104 0.235958
O O8 0.171742 0.770805 0.248816
O O9 0.457341 0.065173 0.768707
O O10 0.372659 0.071102 0.733831
O O11 0.405581 0.091360 0.000000
O O12 0.706950 0.093748 0.749585
O O13 0.672508 0.180389 0.772087
O O14 0.711079 0.141764 0.000000
O O15 0.000000 0.500000 0.353715
O O16 0.000000 0.423976 0.500000
O O17 0.821103 0.554038 0.500000
O O18 0.816818 0.500000 0.267947
O O19 0.853735 0.271609 0.000000
#
# Coordination Sequence:
#
# PCOD9483733 Si02
#       7
#    16  16  16  16   8  16  16
#     4   9  16  28  45  63  82 105 137 178 219 255
#     4   9  17  28  43  65  88 108 130 163 211 261
#     4  11  20  33  49  61  74 100 141 182 219 261
#     4  10  18  30  48  66  83 106 139 177 212 254
#     4  11  23  35  43  55  75  97 127 175 231 273
#     4  11  23  35  45  60  85 113 139 174 222 267
#     4   9  16  28  45  64  84 107 136 173 214 255
#
# _framework density 13.599323999999999
#
# number of rings (size 3 to 8) (size 9 to 14) (size 15 to 20)
#    0.000    2.077    2.308    2.538    0.000    6.154 
#    0.000    0.000    0.000    0.000    0.000    0.000 
#    0.000    0.000    0.000    0.000    0.000    0.769 
#
# Total GULP energy -289535.127381 kJ/mol
# GULP energy per Si atom -5567.983219 kJ/mol
# Density = 1.356837 g / cm^3
# Si number density = 13.599324 Si / 1000 Ang^3
#
#
#
# Elastic Constant Matrix: (Units=GPa)
#
#
# Indices 1 2 3 4 5 6 
#
# 1 91.5939 60.5188 24.4358 0.0000 0.0000 0.0000
# 2 60.5188 72.0124 25.9276 0.0000 0.0000 0.0000
# 3 24.4358 25.9276 31.8639 0.0000 0.0000 0.0000
# 4 0.0000 0.0000 0.0000 14.9593 0.0000 0.0000
# 5 0.0000 0.0000 0.0000 0.0000 11.7392 0.0000
# 6 0.0000 0.0000 0.0000 0.0000 0.0000 -29.7927
#
#
#
# Elastic Compliance Matrix: (Units=1/GPa)
#
#
# Indices 1 2 3 4 5 6 
#
# 1 0.024738 -0.019743 -0.002906 0.000000 0.000000 0.000000
# 2 -0.019743 0.035398 -0.013662 0.000000 0.000000 0.000000
# 3 -0.002906 -0.013662 0.044729 0.000000 0.000000 0.000000
# 4 0.000000 0.000000 0.000000 0.066848 0.000000 0.000000
# 5 0.000000 0.000000 0.000000 0.000000 0.085185 0.000000
# 6 0.000000 0.000000 0.000000 0.000000 0.000000 -0.033565
#
#
# Mechanical properties :
#
#
# Convention : Reuss Voigt Hill
#
# Bulk Modulus (GPa) = 31.01589 46.35940 38.68765
# Shear Modulus (GPa) = 16.30240 5.02035 10.66137
#
# Velocity S-wave (km/s) = 3.46608 1.92344 2.80297
# Velocity P-wave (km/s) = 6.23496 6.25271 6.24384
#
# Compressibility (1/GPa) = 0.03224154
#
# Stress axis : x y z
#
# Youngs Moduli (GPa) = 40.42346 28.25034 22.35686
#
# Poissons Ratio (x) = 0.55776 0.06497
# Poissons Ratio (y) = 0.79810 0.30545
# Poissons Ratio (z) = 0.11747 0.38596
#
# Static dielectric constant tensor:
#      x y z
#    x 1.234960 0.000000 0.000000 
#    y 0.000000 1.450620 0.000000 
#    z 0.000000 0.000000 1.473100 
# 
# From -- ./inp_files/15035.got.cif
#   From: 2010.05.17/outbox.cif.g08.bks.cpg/sg65_8_cif.got.tgz:15035.got - 2010.06.03 17:01:31.
