data_PCOD9483834
_publ_section_title
;
Structure prediction by ZEFSAII (Michael W. Deem and Ramdas Pophale) SiO2 
 PCOD9483834
Probable space group: C M M M
;
_chemical_formula_sum "Si O2"
_cell_formula_units_Z 80
_cell_length_a 8.521314
_cell_length_b 19.385950
_cell_length_c 26.380380
_cell_angle_alpha 90.000000
_cell_angle_beta 90.000000
_cell_angle_gamma 90.000000
_cell_volume 4357.874351
_symmetry_space_group_name_H-M "C M M M"
_symmetry_group_IT_number 65
_symmetry_cell_setting 'orthorhombic'
loop_
_space_group_symop_operation_xyz
x,y,z
-x,-y,z
x,-y,-z
-x,y,-z
-x,-y,-z
x,y,-z
-x,y,z
x,-y,z
1/2+x,1/2+y,z
1/2-x,1/2-y,z
1/2+x,1/2-y,-z
1/2-x,1/2+y,-z
1/2-x,1/2-y,-z
1/2+x,1/2+y,-z
1/2-x,1/2+y,z
1/2+x,1/2-y,z
loop_
_atom_site_type_symbol
_atom_site_label
_atom_site_fract_x
_atom_site_fract_y
_atom_site_fract_z
Si Si1 0.311780 0.826423 0.089374
Si Si2 0.689426 0.173756 0.205380
Si Si3 0.687948 0.579161 0.000000
Si Si4 0.687055 0.671329 0.500000
Si Si5 0.688441 0.171627 0.393274
Si Si6 0.808390 0.579086 0.297715
O O1 0.500000 0.825764 0.087439
O O2 0.250000 0.750000 0.076603
O O3 0.261919 0.841531 0.147463
O O4 0.248183 0.880884 0.049420
O O5 0.500000 0.175455 0.206162
O O6 0.750000 0.250000 0.218697
O O7 0.742523 0.118108 0.246587
O O8 0.741883 0.500000 0.000000
O O9 0.500000 0.580445 0.000000
O O10 0.500000 0.671552 0.500000
O O11 0.750000 0.750000 0.500000
O O12 0.750172 0.642399 0.553046
O O13 0.500000 0.174443 0.394993
O O14 0.750000 0.250000 0.386892
O O15 0.738822 0.124078 0.346414
O O16 0.755367 0.500000 0.300037
O O17 0.000000 0.578329 0.297466
#
# Coordination Sequence:
#
# PCOD9483834 Si02
#       6
#    16  16   8   8  16  16
#     4  10  20  35  57  82 107 137 174 216 259 307
#     4   9  18  33  55  80 104 132 167 209 253 298
#     4  11  24  39  54  75 107 143 176 215 262 309
#     4  10  18  30  49  72  99 127 161 207 251 294
#     4  10  18  30  51  75  99 128 164 206 248 294
#     4   9  18  32  50  74 103 134 168 205 246 294
#
# _framework density 18.357572999999999
#
# number of rings (size 3 to 8) (size 9 to 14) (size 15 to 20)
#    0.000    2.300    0.000    4.500    0.000    2.400 
#    0.000    3.500    0.000    8.400    0.000    0.000 
#    0.000    0.000    0.000    0.000    0.000    0.000 
#
# Total GULP energy -223225.689750 kJ/mol
# GULP energy per Si atom -5580.642244 kJ/mol
# Density = 1.831579 g / cm^3
# Si number density = 18.357573 Si / 1000 Ang^3
#
#
#
# Elastic Constant Matrix: (Units=GPa)
#
#
# Indices 1 2 3 4 5 6 
#
# 1 44.7041 28.7611 32.1107 0.0000 0.0000 0.0000
# 2 28.7611 144.8145 121.9888 0.0000 0.0000 0.0000
# 3 32.1107 121.9888 159.4873 0.0000 0.0000 0.0000
# 4 0.0000 0.0000 0.0000 -4.8624 0.0000 0.0000
# 5 0.0000 0.0000 0.0000 0.0000 8.7908 0.0000
# 6 0.0000 0.0000 0.0000 0.0000 0.0000 20.8742
#
#
#
# Elastic Compliance Matrix: (Units=1/GPa)
#
#
# Indices 1 2 3 4 5 6 
#
# 1 0.026388 -0.002152 -0.003667 0.000000 0.000000 0.000000
# 2 -0.002152 0.019590 -0.014551 0.000000 0.000000 0.000000
# 3 -0.003667 -0.014551 0.018138 0.000000 0.000000 0.000000
# 4 0.000000 0.000000 0.000000 -0.205660 0.000000 0.000000
# 5 0.000000 0.000000 0.000000 0.000000 0.113755 0.000000
# 6 0.000000 0.000000 0.000000 0.000000 0.000000 0.047906
#
#
# Mechanical properties :
#
#
# Convention : Reuss Voigt Hill
#
# Bulk Modulus (GPa) = 42.77779 79.41411 61.09595
# Shear Modulus (GPa) = 72.83489 16.03689 44.43589
#
# Velocity S-wave (km/s) = 6.30570 2.95885 4.92527
# Velocity P-wave (km/s) = 8.73893 7.41799 8.10541
#
# Compressibility (1/GPa) = 0.02337662
#
# Stress axis : x y z
#
# Youngs Moduli (GPa) = 37.89649 51.04626 55.13280
#
# Poissons Ratio (x) = 0.10984 0.20217
# Poissons Ratio (y) = 0.08155 0.80223
# Poissons Ratio (z) = 0.13896 0.74277
#
# Static dielectric constant tensor:
#      x y z
#    x 1.668610 0.000000 0.000000 
#    y 0.000000 1.593850 0.000000 
#    z 0.000000 0.000000 1.651610 
# 
# From -- ./inp_files/72919.got.cif
#   From: 2010.05.17/outbox.cif.g08.bks.cpg/sg65_37_cif.got.tgz:72919.got - 2010.06.03 17:01:31.
