data_PCOD9483701
_publ_section_title
;
Structure prediction by ZEFSAII (Michael W. Deem and Ramdas Pophale) SiO2 
 PCOD9483701
Probable space group: C M M M
;
_chemical_formula_sum "Si O2"
_cell_formula_units_Z 104
_cell_length_a 24.115915
_cell_length_b 28.118724
_cell_length_c 7.546734
_cell_angle_alpha 90.000000
_cell_angle_beta 90.000000
_cell_angle_gamma 90.000000
_cell_volume 5117.506419
_symmetry_space_group_name_H-M "C M M M"
_symmetry_group_IT_number 65
_symmetry_cell_setting 'orthorhombic'
loop_
_space_group_symop_operation_xyz
x,y,z
-x,-y,z
x,-y,-z
-x,y,-z
-x,-y,-z
x,y,-z
-x,y,z
x,-y,z
1/2+x,1/2+y,z
1/2-x,1/2-y,z
1/2+x,1/2-y,-z
1/2-x,1/2+y,-z
1/2-x,1/2-y,-z
1/2+x,1/2+y,-z
1/2-x,1/2+y,z
1/2+x,1/2-y,z
loop_
_atom_site_type_symbol
_atom_site_label
_atom_site_fract_x
_atom_site_fract_y
_atom_site_fract_z
Si Si1 0.291898 0.364403 0.701199
Si Si2 0.106502 0.599713 0.300567
Si Si3 0.781540 0.555534 0.281590
Si Si4 0.621103 0.712184 0.712084
Si Si5 0.500000 0.733059 0.716054
Si Si6 0.295906 0.208320 0.800928
Si Si7 0.934812 0.500000 0.798524
Si Si8 0.000000 0.343903 0.716917
O O1 0.309727 0.373719 0.500000
O O2 0.272843 0.415072 0.776595
O O3 0.338495 0.329640 0.783446
O O4 0.235515 0.332704 0.696100
O O5 0.116153 0.618413 0.500000
O O6 0.165894 0.586878 0.218054
O O7 0.081743 0.546910 0.303734
O O8 0.057268 0.631498 0.219731
O O9 0.783486 0.555877 0.500000
O O10 0.784231 0.500000 0.229537
O O11 0.620328 0.706977 0.500000
O O12 0.558150 0.711050 0.777836
O O13 0.648922 0.764120 0.742560
O O14 0.500000 0.730576 0.500000
O O15 0.500000 0.788715 0.761810
O O16 0.250000 0.250000 0.800729
O O17 0.304319 0.191018 0.000000
O O18 0.000000 0.500000 0.814797
O O19 0.911611 0.500000 0.000000
O O20 0.000000 0.349093 0.500000
#
# Coordination Sequence:
#
# PCOD9483701 Si02
#       8
#    16  16  16  16   8  16   8   8
#     4   9  17  29  48  70  90 117 153 189 229 274
#     4  10  18  30  47  61  77 109 154 189 218 257
#     4   9  17  28  46  70  90 110 145 193 230 262
#     4   9  17  30  48  69  91 118 152 190 229 270
#     4   9  18  30  46  68  94 116 145 189 231 262
#     4   9  17  29  45  66  93 123 152 183 223 272
#     4  11  21  31  43  59  83 115 147 186 229 264
#     4   9  18  27  42  65  82 109 150 191 219 248
#
# _framework density 20.322396999999999
#
# number of rings (size 3 to 8) (size 9 to 14) (size 15 to 20)
#    0.000    2.692    1.538    0.692    2.154    2.154 
#    0.000    1.154    0.000    0.923    0.000    0.538 
#    0.000    4.308    0.000    0.000    0.000   13.077 
#
# Total GULP energy -289688.501851 kJ/mol
# GULP energy per Si atom -5570.932728 kJ/mol
# Density = 2.027614 g / cm^3
# Si number density = 20.322397 Si / 1000 Ang^3
#
#
#
# Elastic Constant Matrix: (Units=GPa)
#
#
# Indices 1 2 3 4 5 6 
#
# 1 144.8040 66.0889 4.7753 0.0000 0.0000 0.0000
# 2 66.0889 92.7845 3.2960 0.0000 0.0000 0.0000
# 3 4.7753 3.2960 57.1790 0.0000 0.0000 0.0000
# 4 0.0000 0.0000 0.0000 -7.3269 0.0000 0.0000
# 5 0.0000 0.0000 0.0000 0.0000 -12.1533 0.0000
# 6 0.0000 0.0000 0.0000 0.0000 0.0000 23.0149
#
#
#
# Elastic Compliance Matrix: (Units=1/GPa)
#
#
# Indices 1 2 3 4 5 6 
#
# 1 0.010243 -0.007281 -0.000436 0.000000 0.000000 0.000000
# 2 -0.007281 0.015975 -0.000313 0.000000 0.000000 0.000000
# 3 -0.000436 -0.000313 0.017543 0.000000 0.000000 0.000000
# 4 0.000000 0.000000 0.000000 -0.136484 0.000000 0.000000
# 5 0.000000 0.000000 0.000000 0.000000 -0.082282 0.000000
# 6 0.000000 0.000000 0.000000 0.000000 0.000000 0.043450
#
#
# Mechanical properties :
#
#
# Convention : Reuss Voigt Hill
#
# Bulk Modulus (GPa) = 36.09739 49.23200 42.66469
# Shear Modulus (GPa) = -47.05316 15.41411 -15.81952
#
# Velocity S-wave (km/s) = -4.81701 2.75704 -2.79306
# Velocity P-wave (km/s) = 3.62453 5.86627 3.26158
#
# Compressibility (1/GPa) = 0.02770284
#
# Stress axis : x y z
#
# Youngs Moduli (GPa) = 97.62665 62.59946 57.00165
#
# Poissons Ratio (x) = 0.45576 0.02484
# Poissons Ratio (y) = 0.71077 0.01783
# Poissons Ratio (z) = 0.04254 0.01958
#
# Static dielectric constant tensor:
#      x y z
#    x 1.768010 0.000000 0.000000 
#    y 0.000000 1.618850 0.000000 
#    z 0.000000 0.000000 1.795190 
# 
# From -- ./inp_files/15099.got.cif
#   From: 2010.05.17/outbox.cif.g08.bks.cpg/sg65_8_cif.got.tgz:15099.got - 2010.06.03 17:01:31.
