data_PCOD9483908
_publ_section_title
;
Structure prediction by ZEFSAII (Michael W. Deem and Ramdas Pophale) SiO2 
 PCOD9483908
Probable space group: C M M M
;
_chemical_formula_sum "Si O2"
_cell_formula_units_Z 88
_cell_length_a 17.493669
_cell_length_b 29.349938
_cell_length_c 7.500846
_cell_angle_alpha 90.000000
_cell_angle_beta 90.000000
_cell_angle_gamma 90.000000
_cell_volume 3851.220123
_symmetry_space_group_name_H-M "C M M M"
_symmetry_group_IT_number 65
_symmetry_cell_setting 'orthorhombic'
loop_
_space_group_symop_operation_xyz
x,y,z
-x,-y,z
x,-y,-z
-x,y,-z
-x,-y,-z
x,y,-z
-x,y,z
x,-y,z
1/2+x,1/2+y,z
1/2-x,1/2-y,z
1/2+x,1/2-y,-z
1/2-x,1/2+y,-z
1/2-x,1/2-y,-z
1/2+x,1/2+y,-z
1/2-x,1/2+y,z
1/2+x,1/2-y,z
loop_
_atom_site_type_symbol
_atom_site_label
_atom_site_fract_x
_atom_site_fract_y
_atom_site_fract_z
Si Si1 0.415482 0.317053 0.214820
Si Si2 0.500000 0.446746 0.283742
Si Si3 0.169354 0.729883 0.214238
Si Si4 0.181627 0.552179 0.281309
Si Si5 0.914486 0.362663 0.287487
Si Si6 0.158331 0.093159 0.290181
O O1 0.500000 0.330539 0.280856
O O2 0.394388 0.266319 0.273406
O O3 0.350351 0.352667 0.269888
O O4 0.417381 0.317653 0.000000
O O5 0.500000 0.500000 0.247838
O O6 0.500000 0.440564 0.500000
O O7 0.421229 0.425756 0.213710
O O8 0.250000 0.750000 0.280564
O O9 0.143718 0.678999 0.258061
O O10 0.172745 0.731633 0.000000
O O11 0.181565 0.552371 0.500000
O O12 0.168912 0.500000 0.226254
O O13 0.120048 0.589565 0.221344
O O14 0.264635 0.570631 0.220343
O O15 0.920369 0.367184 0.500000
O O16 0.000000 0.352988 0.217517
O O17 0.158143 0.082345 0.500000
#
# Coordination Sequence:
#
# PCOD9483908 Si02
#       6
#    16   8  16  16  16  16
#     4  10  20  33  49  71 103 140 172 207 257 316
#     4   9  16  26  43  69  99 129 167 215 260 305
#     4  10  21  37  57  80 106 141 182 220 268 328
#     4   9  18  33  54  79 106 137 174 220 273 322
#     4  10  21  36  55  82 112 142 180 225 270 317
#     4  10  18  30  50  76 102 133 177 222 263 309
#
# _framework density 22.849900000000002
#
# number of rings (size 3 to 8) (size 9 to 14) (size 15 to 20)
#    0.000    2.273    0.909    2.182    0.000    4.727 
#    0.000    1.818    0.000    4.364    0.000    1.273 
#    0.000    0.000    0.000    0.000    0.000    0.000 
#
# Total GULP energy -245773.741001 kJ/mol
# GULP energy per Si atom -5585.766841 kJ/mol
# Density = 2.279789 g / cm^3
# Si number density = 22.849900 Si / 1000 Ang^3
#
#
#
# Elastic Constant Matrix: (Units=GPa)
#
#
# Indices 1 2 3 4 5 6 
#
# 1 132.9578 76.5409 10.2417 0.0000 0.0000 0.0000
# 2 76.5409 175.4921 -6.5382 0.0000 0.0000 0.0000
# 3 10.2417 -6.5382 59.3421 0.0000 0.0000 0.0000
# 4 0.0000 0.0000 0.0000 15.3687 0.0000 0.0000
# 5 0.0000 0.0000 0.0000 0.0000 -1.0871 0.0000
# 6 0.0000 0.0000 0.0000 0.0000 0.0000 35.2046
#
#
#
# Elastic Compliance Matrix: (Units=1/GPa)
#
#
# Indices 1 2 3 4 5 6 
#
# 1 0.010344 -0.004597 -0.002292 0.000000 0.000000 0.000000
# 2 -0.004597 0.007765 0.001649 0.000000 0.000000 0.000000
# 3 -0.002292 0.001649 0.017429 0.000000 0.000000 0.000000
# 4 0.000000 0.000000 0.000000 0.065067 0.000000 0.000000
# 5 0.000000 0.000000 0.000000 0.000000 -0.919867 0.000000
# 6 0.000000 0.000000 0.000000 0.000000 0.000000 0.028405
#
#
# Mechanical properties :
#
#
# Convention : Reuss Voigt Hill
#
# Bulk Modulus (GPa) = 39.90784 58.69788 49.30286
# Shear Modulus (GPa) = -6.47647 29.06708 11.29530
#
# Velocity S-wave (km/s) = -1.68538 3.57050 2.22576
# Velocity P-wave (km/s) = 3.70348 6.53775 5.31310
#
# Compressibility (1/GPa) = 0.02505773
#
# Stress axis : x y z
#
# Youngs Moduli (GPa) = 96.67359 128.78870 57.37678
#
# Poissons Ratio (x) = 0.59204 0.13149
# Poissons Ratio (y) = 0.44440 -0.09461
# Poissons Ratio (z) = 0.22155 -0.21236
#
# Static dielectric constant tensor:
#      x y z
#    x 1.854820 0.000000 0.000000 
#    y 0.000000 1.833300 0.000000 
#    z 0.000000 0.000000 1.882030 
# 
# From -- ./inp_files/10042.got.cif
#   From: 2010.05.17/outbox.cif.g08.bks.cpg/sg65_6_cif.got.tgz:10042.got - 2010.06.03 17:01:31.
