data_PCOD9483790
_publ_section_title
;
Structure prediction by ZEFSAII (Michael W. Deem and Ramdas Pophale) SiO2 
 PCOD9483790
Probable space group: C M M M
;
_chemical_formula_sum "Si O2"
_cell_formula_units_Z 64
_cell_length_a 11.511384
_cell_length_b 36.717215
_cell_length_c 7.351058
_cell_angle_alpha 90.000000
_cell_angle_beta 90.000000
_cell_angle_gamma 90.000000
_cell_volume 3107.041996
_symmetry_space_group_name_H-M "C M M M"
_symmetry_group_IT_number 65
_symmetry_cell_setting 'orthorhombic'
loop_
_space_group_symop_operation_xyz
x,y,z
-x,-y,z
x,-y,-z
-x,y,-z
-x,-y,-z
x,y,-z
-x,y,z
x,-y,z
1/2+x,1/2+y,z
1/2-x,1/2-y,z
1/2+x,1/2-y,-z
1/2-x,1/2+y,-z
1/2-x,1/2-y,-z
1/2+x,1/2+y,-z
1/2-x,1/2+y,z
1/2+x,1/2-y,z
loop_
_atom_site_type_symbol
_atom_site_label
_atom_site_fract_x
_atom_site_fract_y
_atom_site_fract_z
Si Si1 0.747590 0.072977 0.788627
Si Si2 0.365204 0.500000 0.778979
Si Si3 0.134103 0.227785 0.221771
Si Si4 0.000000 0.542146 0.717711
Si Si5 0.632279 0.644309 0.220317
O O1 0.808660 0.037153 0.709033
O O2 0.612874 0.063785 0.778790
O O3 0.784243 0.112165 0.713493
O O4 0.784072 0.074297 0.000000
O O5 0.500000 0.500000 0.739925
O O6 0.349487 0.500000 0.000000
O O7 0.250000 0.250000 0.278851
O O8 0.151195 0.185754 0.280822
O O9 0.000000 0.238614 0.275793
O O10 0.132898 0.229072 0.000000
O O11 0.000000 0.500000 0.783583
O O12 0.000000 0.540659 0.500000
O O13 0.500000 0.633805 0.265216
O O14 0.640504 0.646411 0.000000
#
# Coordination Sequence:
#
# PCOD9483790 Si02
#       5
#    16   8  16   8  16
#     4  10  18  30  49  70  91 117 155 193 228 274
#     4   9  16  25  43  70  92 111 142 189 234 271
#     4   8  13  22  35  54  87 130 161 181 220 279
#     4  11  23  37  49  61  89 129 159 189 235 283
#     4   8  14  25  42  65  92 121 152 189 232 275
#
# _framework density 20.598369999999999
#
# number of rings (size 3 to 8) (size 9 to 14) (size 15 to 20)
#    0.000    3.000    1.250    2.625    0.000    3.500 
#    2.250    0.000    0.000    3.750    0.000    0.000 
#    0.000    1.000    0.000    0.000    0.500    0.000 
#
# Total GULP energy -178367.897532 kJ/mol
# GULP energy per Si atom -5573.996798 kJ/mol
# Density = 2.055149 g / cm^3
# Si number density = 20.598370 Si / 1000 Ang^3
#
#
#
# Elastic Constant Matrix: (Units=GPa)
#
#
# Indices 1 2 3 4 5 6 
#
# 1 160.4899 119.0640 -10.1793 0.0000 0.0000 0.0000
# 2 119.0640 154.8213 3.0480 0.0000 0.0000 0.0000
# 3 -10.1793 3.0480 75.4200 0.0000 0.0000 0.0000
# 4 0.0000 0.0000 0.0000 -15.2887 0.0000 0.0000
# 5 0.0000 0.0000 0.0000 0.0000 -119.7294 0.0000
# 6 0.0000 0.0000 0.0000 0.0000 0.0000 47.5108
#
#
#
# Elastic Compliance Matrix: (Units=1/GPa)
#
#
# Indices 1 2 3 4 5 6 
#
# 1 0.014960 -0.011554 0.002486 0.000000 0.000000 0.000000
# 2 -0.011554 0.015388 -0.002181 0.000000 0.000000 0.000000
# 3 0.002486 -0.002181 0.013683 0.000000 0.000000 0.000000
# 4 0.000000 0.000000 0.000000 -0.065408 0.000000 0.000000
# 5 0.000000 0.000000 0.000000 0.000000 -0.008352 0.000000
# 6 0.000000 0.000000 0.000000 0.000000 0.000000 0.021048
#
#
# Mechanical properties :
#
#
# Convention : Reuss Voigt Hill
#
# Bulk Modulus (GPa) = 46.44215 68.28852 57.36533
# Shear Modulus (GPa) = 238.16102 1.08512 119.62307
#
# Velocity S-wave (km/s) = 10.76440 0.72660 7.62890
# Velocity P-wave (km/s) = 13.30759 5.82480 10.27181
#
# Compressibility (1/GPa) = 0.02153216
#
# Stress axis : x y z
#
# Youngs Moduli (GPa) = 66.84358 64.98765 73.08455
#
# Poissons Ratio (x) = 0.75087 -0.18170
# Poissons Ratio (y) = 0.77231 0.15942
# Poissons Ratio (z) = -0.16618 0.14176
#
# Static dielectric constant tensor:
#      x y z
#    x 1.656020 0.000000 0.000000 
#    y 0.000000 1.726400 0.000000 
#    z 0.000000 0.000000 1.804750 
# 
# From -- ./inp_files/4982.got.cif
#   From: 2010.05.17/outbox.cif.g08.bks.cpg/sg65_3_cif.got.tgz:4982.got - 2010.06.03 17:01:31.
