data_PCOD9483271
_publ_section_title
;
Structure prediction by ZEFSAII (Michael W. Deem and Ramdas Pophale) SiO2 
 PCOD9483271
Probable space group: C M M M
;
_chemical_formula_sum "Si O2"
_cell_formula_units_Z 72
_cell_length_a 8.104548
_cell_length_b 18.393282
_cell_length_c 24.988806
_cell_angle_alpha 90.000000
_cell_angle_beta 90.000000
_cell_angle_gamma 90.000000
_cell_volume 3725.062240
_symmetry_space_group_name_H-M "C M M M"
_symmetry_group_IT_number 65
_symmetry_cell_setting 'orthorhombic'
loop_
_space_group_symop_operation_xyz
x,y,z
-x,-y,z
x,-y,-z
-x,y,-z
-x,-y,-z
x,y,-z
-x,y,z
x,-y,z
1/2+x,1/2+y,z
1/2-x,1/2-y,z
1/2+x,1/2-y,-z
1/2-x,1/2+y,-z
1/2-x,1/2-y,-z
1/2+x,1/2+y,-z
1/2-x,1/2+y,z
1/2+x,1/2-y,z
loop_
_atom_site_type_symbol
_atom_site_label
_atom_site_fract_x
_atom_site_fract_y
_atom_site_fract_z
Si Si1 0.699565 0.664866 0.557588
Si Si2 0.303857 0.165905 0.212399
Si Si3 0.697049 0.334850 0.327194
Si Si4 0.300911 0.833479 0.000000
Si Si5 0.297834 0.083771 0.893246
O O1 0.742543 0.865656 0.500000
O O2 0.500000 0.661129 0.557572
O O3 0.750000 0.750000 0.557604
O O4 0.756780 0.634589 0.615259
O O5 0.500000 0.165220 0.209997
O O6 0.250000 0.250000 0.209133
O O7 0.255660 0.134504 0.270524
O O8 0.239542 0.121964 0.161293
O O9 0.500000 0.337576 0.327006
O O10 0.750000 0.250000 0.326667
O O11 0.250000 0.750000 0.000000
O O12 0.242896 0.873323 0.053928
O O13 0.500000 0.837372 0.000000
O O14 0.500000 0.085151 0.892919
O O15 0.247544 0.000000 0.895524
#
# Coordination Sequence:
#
# PCOD9483271 Si02
#       5
#    16  16  16   8  16
#     4   8  13  20  30  46  70 102 138 174 213 256
#     4  10  18  28  44  64  88 116 147 184 221 262
#     4   9  15  23  36  54  79 110 144 180 217 261
#     4  10  19  33  55  77  97 120 148 184 220 260
#     4   9  18  32  50  71  92 118 153 187 218 255
#
# _framework density 19.328536
#
# number of rings (size 3 to 8) (size 9 to 14) (size 15 to 20)
#    0.000    2.889    0.000    3.667    0.000    2.222 
#    0.000    1.111    0.000    6.667    0.000    0.000 
#    0.000    0.889    0.000   11.111    0.000    5.111 
#
# Total GULP energy -200438.633446 kJ/mol
# GULP energy per Si atom -5567.739818 kJ/mol
# Density = 1.928454 g / cm^3
# Si number density = 19.328536 Si / 1000 Ang^3
#
#
#
# Elastic Constant Matrix: (Units=GPa)
#
#
# Indices 1 2 3 4 5 6 
#
# 1 19.9429 3.1978 19.4312 0.0000 0.0000 0.0000
# 2 3.1978 65.7991 78.2064 0.0000 0.0000 0.0000
# 3 19.4312 78.2064 270.6704 0.0000 0.0000 0.0000
# 4 0.0000 0.0000 0.0000 -4.5072 0.0000 0.0000
# 5 0.0000 0.0000 0.0000 0.0000 99.3345 0.0000
# 6 0.0000 0.0000 0.0000 0.0000 0.0000 10.8697
#
#
#
# Elastic Compliance Matrix: (Units=1/GPa)
#
#
# Indices 1 2 3 4 5 6 
#
# 1 0.054310 0.003038 -0.004777 0.000000 0.000000 0.000000
# 2 0.003038 0.023317 -0.006955 0.000000 0.000000 0.000000
# 3 -0.004777 -0.006955 0.006047 0.000000 0.000000 0.000000
# 4 0.000000 0.000000 0.000000 -0.221866 0.000000 0.000000
# 5 0.000000 0.000000 0.000000 0.000000 0.010067 0.000000
# 6 0.000000 0.000000 0.000000 0.000000 0.000000 0.091999
#
#
# Mechanical properties :
#
#
# Convention : Reuss Voigt Hill
#
# Bulk Modulus (GPa) = 15.08611 62.00922 38.54767
# Shear Modulus (GPa) = 1489.28640 38.17787 763.73213
#
# Velocity S-wave (km/s) = 27.78821 4.44915 19.89949
# Velocity P-wave (km/s) = 32.20871 7.65145 23.40882
#
# Compressibility (1/GPa) = 0.06628615
#
# Stress axis : x y z
#
# Youngs Moduli (GPa) = 18.41276 42.88761 165.37055
#
# Poissons Ratio (x) = -0.13029 0.78991
# Poissons Ratio (y) = -0.05594 1.15017
# Poissons Ratio (z) = 0.08795 0.29829
#
# Static dielectric constant tensor:
#      x y z
#    x 1.698720 0.000000 0.000000 
#    y 0.000000 1.627690 0.000000 
#    z 0.000000 0.000000 1.768790 
# 
# From -- ./inp_files/67132.got.cif
#   From: 2010.05.17/outbox.cif.g08.bks.cpg/sg65_34_cif.got.tgz:67132.got - 2010.06.03 17:01:31.
