data_PCOD9483780
_publ_section_title
;
Structure prediction by ZEFSAII (Michael W. Deem and Ramdas Pophale) SiO2 
 PCOD9483780
Probable space group: C M M M
;
_chemical_formula_sum "Si O2"
_cell_formula_units_Z 64
_cell_length_a 8.375220
_cell_length_b 25.970387
_cell_length_c 15.352761
_cell_angle_alpha 90.000000
_cell_angle_beta 90.000000
_cell_angle_gamma 90.000000
_cell_volume 3339.343805
_symmetry_space_group_name_H-M "C M M M"
_symmetry_group_IT_number 65
_symmetry_cell_setting 'orthorhombic'
loop_
_space_group_symop_operation_xyz
x,y,z
-x,-y,z
x,-y,-z
-x,y,-z
-x,-y,-z
x,y,-z
-x,y,z
x,-y,z
1/2+x,1/2+y,z
1/2-x,1/2-y,z
1/2+x,1/2-y,-z
1/2-x,1/2+y,-z
1/2-x,1/2-y,-z
1/2+x,1/2+y,-z
1/2-x,1/2+y,z
1/2+x,1/2-y,z
loop_
_atom_site_type_symbol
_atom_site_label
_atom_site_fract_x
_atom_site_fract_y
_atom_site_fract_z
Si Si1 0.190574 0.690481 0.000000
Si Si2 0.806634 0.907892 0.720127
Si Si3 0.690477 0.692029 0.808311
Si Si4 0.686082 0.561631 0.091831
Si Si5 0.690782 0.000000 0.599456
O O1 0.250000 0.750000 0.000000
O O2 0.251121 0.672535 0.904145
O O3 0.000000 0.688533 0.000000
O O4 0.765175 0.847248 0.729910
O O5 0.744677 0.926658 0.814384
O O6 0.745051 0.947826 0.648744
O O7 0.000000 0.911802 0.717653
O O8 0.500000 0.693296 0.813251
O O9 0.750000 0.750000 0.795020
O O10 0.500000 0.579341 0.092112
O O11 0.680495 0.500000 0.088532
O O12 0.762089 0.578726 0.000000
O O13 0.500000 0.000000 0.598666
O O14 0.750536 0.000000 0.500000
#
# Coordination Sequence:
#
# PCOD9483780 Si02
#       5
#     8  16  16  16   8
#     4  10  18  30  48  71 108 157 204 242 276 314
#     4  10  20  35  59  85 108 145 193 234 274 326
#     4  10  20  33  52  79 113 153 197 238 280 324
#     4   8  13  23  44  73 105 137 174 218 262 309
#     4  11  25  43  62  85 114 144 172 220 296 359
#
# _framework density 19.165441999999999
#
# number of rings (size 3 to 8) (size 9 to 14) (size 15 to 20)
#    0.000    2.375    1.250    4.500    1.750    3.000 
#    0.000    0.000    0.000    1.500    0.000    0.000 
#    0.000    0.000    0.000    0.000    0.000    0.000 
#
# Total GULP energy -178182.896123 kJ/mol
# GULP energy per Si atom -5568.215504 kJ/mol
# Density = 1.912182 g / cm^3
# Si number density = 19.165442 Si / 1000 Ang^3
#
#
#
# Elastic Constant Matrix: (Units=GPa)
#
#
# Indices 1 2 3 4 5 6 
#
# 1 54.0726 32.7632 22.9939 0.0000 0.0000 0.0000
# 2 32.7632 137.8801 78.4801 0.0000 0.0000 0.0000
# 3 22.9939 78.4801 139.4667 0.0000 0.0000 0.0000
# 4 0.0000 0.0000 0.0000 24.3941 0.0000 0.0000
# 5 0.0000 0.0000 0.0000 0.0000 21.7690 0.0000
# 6 0.0000 0.0000 0.0000 0.0000 0.0000 22.9469
#
#
#
# Elastic Compliance Matrix: (Units=1/GPa)
#
#
# Indices 1 2 3 4 5 6 
#
# 1 0.021698 -0.004590 -0.000995 0.000000 0.000000 0.000000
# 2 -0.004590 0.011641 -0.005794 0.000000 0.000000 0.000000
# 3 -0.000995 -0.005794 0.010594 0.000000 0.000000 0.000000
# 4 0.000000 0.000000 0.000000 0.040993 0.000000 0.000000
# 5 0.000000 0.000000 0.000000 0.000000 0.045937 0.000000
# 6 0.000000 0.000000 0.000000 0.000000 0.000000 0.043579
#
#
# Mechanical properties :
#
#
# Convention : Reuss Voigt Hill
#
# Bulk Modulus (GPa) = 47.22163 66.65485 56.93824
# Shear Modulus (GPa) = 24.47887 26.96749 25.72318
#
# Velocity S-wave (km/s) = 3.57773 3.75519 3.66753
# Velocity P-wave (km/s) = 6.46214 7.32503 6.90707
#
# Compressibility (1/GPa) = 0.02117674
#
# Stress axis : x y z
#
# Youngs Moduli (GPa) = 46.08820 85.90219 94.38864
#
# Poissons Ratio (x) = 0.39426 0.09388
# Poissons Ratio (y) = 0.21153 0.54688
# Poissons Ratio (z) = 0.04584 0.49771
#
# Static dielectric constant tensor:
#      x y z
#    x 1.658570 0.000000 0.000000 
#    y 0.000000 1.842920 0.000000 
#    z 0.000000 0.000000 1.676920 
# 
# From -- ./inp_files/36835.got.cif
#   From: 2010.05.17/outbox.cif.g08.bks.cpg/sg65_19_cif.got.tgz:36835.got - 2010.06.03 17:01:31.
