data_PCOD9483862
_publ_section_title
;
Structure prediction by ZEFSAII (Michael W. Deem and Ramdas Pophale) SiO2 
 PCOD9483862
Probable space group: C M M M
;
_chemical_formula_sum "Si O2"
_cell_formula_units_Z 96
_cell_length_a 24.114000
_cell_length_b 26.607654
_cell_length_c 7.901670
_cell_angle_alpha 90.000000
_cell_angle_beta 90.000000
_cell_angle_gamma 90.000000
_cell_volume 5069.845552
_symmetry_space_group_name_H-M "C M M M"
_symmetry_group_IT_number 65
_symmetry_cell_setting 'orthorhombic'
loop_
_space_group_symop_operation_xyz
x,y,z
-x,-y,z
x,-y,-z
-x,y,-z
-x,-y,-z
x,y,-z
-x,y,z
x,-y,z
1/2+x,1/2+y,z
1/2-x,1/2-y,z
1/2+x,1/2-y,-z
1/2-x,1/2+y,-z
1/2-x,1/2-y,-z
1/2+x,1/2+y,-z
1/2-x,1/2+y,z
1/2+x,1/2-y,z
loop_
_atom_site_type_symbol
_atom_site_label
_atom_site_fract_x
_atom_site_fract_y
_atom_site_fract_z
Si Si1 0.132474 0.654214 0.804571
Si Si2 0.632235 0.345996 0.805323
Si Si3 0.750528 0.690418 0.306021
Si Si4 0.313188 0.443833 0.299584
Si Si5 0.686456 0.943137 0.796442
Si Si6 0.064738 0.750077 0.792864
O O1 0.194811 0.675306 0.793798
O O2 0.142933 0.598430 0.729836
O O3 0.094329 0.698686 0.730604
O O4 0.114903 0.647962 0.000000
O O5 0.694488 0.325464 0.784491
O O6 0.639958 0.402479 0.737629
O O7 0.593750 0.301675 0.730258
O O8 0.616207 0.350784 0.000000
O O9 0.751778 0.670205 0.500000
O O10 0.750000 0.750000 0.317708
O O11 0.308594 0.446894 0.500000
O O12 0.325018 0.500000 0.231425
O O13 0.251088 0.429491 0.237201
O O14 0.678203 0.000000 0.732318
O O15 0.680589 0.943744 0.000000
O O16 0.000000 0.749804 0.752232
O O17 0.070558 0.749969 0.000000
#
# Coordination Sequence:
#
# PCOD9483862 Si02
#       6
#    16  16  16  16  16  16
#     4  10  18  30  50  71  97 133 168 203 245 296
#     4  11  20  31  51  74  99 130 166 206 249 300
#     4  11  21  30  44  71 105 133 158 198 251 305
#     4  10  20  32  47  71 104 137 164 194 240 299
#     4   9  17  28  44  70 102 134 167 200 236 287
#     4   9  19  34  51  72  96 127 170 215 255 296
#
# _framework density 18.935487999999999
#
# number of rings (size 3 to 8) (size 9 to 14) (size 15 to 20)
#    0.000    2.000    3.333    1.500    0.000    1.667 
#    0.000    0.000    0.000    5.500    0.000    7.000 
#    0.000    0.000    0.000    5.667    0.000    6.000 
#
# Total GULP energy -267354.070610 kJ/mol
# GULP energy per Si atom -5569.876471 kJ/mol
# Density = 1.889239 g / cm^3
# Si number density = 18.935488 Si / 1000 Ang^3
#
#
#
# Elastic Constant Matrix: (Units=GPa)
#
#
# Indices 1 2 3 4 5 6 
#
# 1 90.0077 66.4059 -8.6407 0.0000 0.0000 0.0000
# 2 66.4059 177.3969 6.5409 0.0000 0.0000 0.0000
# 3 -8.6407 6.5409 25.6071 0.0000 0.0000 0.0000
# 4 0.0000 0.0000 0.0000 49.2696 0.0000 0.0000
# 5 0.0000 0.0000 0.0000 0.0000 -29.4504 0.0000
# 6 0.0000 0.0000 0.0000 0.0000 0.0000 12.2763
#
#
#
# Elastic Compliance Matrix: (Units=1/GPa)
#
#
# Indices 1 2 3 4 5 6 
#
# 1 0.016583 -0.006475 0.007250 0.000000 0.000000 0.000000
# 2 -0.006475 0.008219 -0.004284 0.000000 0.000000 0.000000
# 3 0.007250 -0.004284 0.042592 0.000000 0.000000 0.000000
# 4 0.000000 0.000000 0.000000 0.020296 0.000000 0.000000
# 5 0.000000 0.000000 0.000000 0.000000 -0.033955 0.000000
# 6 0.000000 0.000000 0.000000 0.000000 0.000000 0.081458
#
#
# Mechanical properties :
#
#
# Convention : Reuss Voigt Hill
#
# Bulk Modulus (GPa) = 16.56307 46.84709 31.70508
# Shear Modulus (GPa) = 30.80004 21.66615 26.23310
#
# Velocity S-wave (km/s) = 4.03746 3.38628 3.72612
# Velocity P-wave (km/s) = 5.52276 6.33114 5.94072
#
# Compressibility (1/GPa) = 0.06037527
#
# Stress axis : x y z
#
# Youngs Moduli (GPa) = 60.30177 121.67128 23.47843
#
# Poissons Ratio (x) = 0.78782 -0.17021
# Poissons Ratio (y) = 0.39045 0.10059
# Poissons Ratio (z) = -0.43717 0.52127
#
# Static dielectric constant tensor:
#      x y z
#    x 1.601880 0.000000 0.000000 
#    y 0.000000 1.766550 0.000000 
#    z 0.000000 0.000000 1.697160 
# 
# From -- ./inp_files/12259.got.cif
#   From: 2010.05.17/outbox.cif.g08.bks.cpg/sg65_7_cif.got.tgz:12259.got - 2010.06.03 17:01:31.
