data_PCOD9483494
_publ_section_title
;
Structure prediction by ZEFSAII (Michael W. Deem and Ramdas Pophale) SiO2 
 PCOD9483494
Probable space group: C M M M
;
_chemical_formula_sum "Si O2"
_cell_formula_units_Z 112
_cell_length_a 27.810458
_cell_length_b 17.885986
_cell_length_c 14.109979
_cell_angle_alpha 90.000000
_cell_angle_beta 90.000000
_cell_angle_gamma 90.000000
_cell_volume 7018.549949
_symmetry_space_group_name_H-M "C M M M"
_symmetry_group_IT_number 65
_symmetry_cell_setting 'orthorhombic'
loop_
_space_group_symop_operation_xyz
x,y,z
-x,-y,z
x,-y,-z
-x,y,-z
-x,-y,-z
x,y,-z
-x,y,z
x,-y,z
1/2+x,1/2+y,z
1/2-x,1/2-y,z
1/2+x,1/2-y,-z
1/2-x,1/2+y,-z
1/2-x,1/2-y,-z
1/2+x,1/2+y,-z
1/2-x,1/2+y,z
1/2+x,1/2-y,z
loop_
_atom_site_type_symbol
_atom_site_label
_atom_site_fract_x
_atom_site_fract_y
_atom_site_fract_z
Si Si1 0.289632 0.310735 0.743553
Si Si2 0.558230 0.581364 0.389821
Si Si3 0.556193 0.261692 0.703813
Si Si4 0.144997 0.293717 0.610960
Si Si5 0.153283 0.914325 0.112346
Si Si6 0.445803 0.337153 0.109575
Si Si7 0.725551 0.912335 0.390457
O O1 0.250000 0.250000 0.777997
O O2 0.325637 0.265659 0.674533
O O3 0.317614 0.354418 0.825778
O O4 0.261785 0.370947 0.679416
O O5 0.572613 0.588514 0.500000
O O6 0.500000 0.579194 0.388051
O O7 0.575592 0.500000 0.354604
O O8 0.571337 0.655683 0.334135
O O9 0.500000 0.250064 0.681128
O O10 0.591655 0.204677 0.653524
O O11 0.561598 0.269709 0.816775
O O12 0.144053 0.272230 0.500000
O O13 0.174399 0.370705 0.618629
O O14 0.096486 0.896604 0.123603
O O15 0.163549 0.000000 0.140102
O O16 0.163932 0.906351 0.000000
O O17 0.500000 0.366844 0.128918
O O18 0.443989 0.313540 0.000000
O O19 0.741191 0.901429 0.500000
O O20 0.722389 0.000000 0.371568
#
# Coordination Sequence:
#
# PCOD9483494 Si02
#       7
#    16  16  16  16  16  16  16
#     4  10  19  33  51  71  96 124 159 199 242 282
#     4   8  14  24  36  52  79 115 150 179 211 259
#     4  10  18  29  46  67  92 124 157 192 235 279
#     4  10  19  31  48  73 100 123 155 196 233 278
#     4  10  20  33  49  70  97 127 161 201 242 283
#     4   9  18  32  48  66  91 125 164 198 227 270
#     4   9  18  33  53  73  95 126 158 190 234 287
#
# _framework density 15.957712000000001
#
# number of rings (size 3 to 8) (size 9 to 14) (size 15 to 20)
#    0.000    2.571    1.429    1.714    0.000    3.714 
#    0.000    2.857    0.000    3.000    0.000    2.000 
#    0.000    0.000    0.000    3.571    0.000    0.000 
#
# Total GULP energy -312018.187111 kJ/mol
# GULP energy per Si atom -5571.753341 kJ/mol
# Density = 1.592139 g / cm^3
# Si number density = 15.957712 Si / 1000 Ang^3
#
#
#
# Elastic Constant Matrix: (Units=GPa)
#
#
# Indices 1 2 3 4 5 6 
#
# 1 80.0449 37.9859 39.0851 0.0000 0.0000 0.0000
# 2 37.9859 69.6001 39.8869 0.0000 0.0000 0.0000
# 3 39.0851 39.8869 67.5639 0.0000 0.0000 0.0000
# 4 0.0000 0.0000 0.0000 17.9286 0.0000 0.0000
# 5 0.0000 0.0000 0.0000 0.0000 23.6263 0.0000
# 6 0.0000 0.0000 0.0000 0.0000 0.0000 14.3698
#
#
#
# Elastic Compliance Matrix: (Units=1/GPa)
#
#
# Indices 1 2 3 4 5 6 
#
# 1 0.019009 -0.006155 -0.007363 0.000000 0.000000 0.000000
# 2 -0.006155 0.023707 -0.010435 0.000000 0.000000 0.000000
# 3 -0.007363 -0.010435 0.025221 0.000000 0.000000 0.000000
# 4 0.000000 0.000000 0.000000 0.055777 0.000000 0.000000
# 5 0.000000 0.000000 0.000000 0.000000 0.042326 0.000000
# 6 0.000000 0.000000 0.000000 0.000000 0.000000 0.069591
#
#
# Mechanical properties :
#
#
# Convention : Reuss Voigt Hill
#
# Bulk Modulus (GPa) = 49.92307 50.12498 50.02403
# Shear Modulus (GPa) = 17.22868 17.86832 17.54850
#
# Velocity S-wave (km/s) = 3.28936 3.34987 3.31975
# Velocity P-wave (km/s) = 6.76602 6.81480 6.79045
#
# Compressibility (1/GPa) = 0.02003082
#
# Stress axis : x y z
#
# Youngs Moduli (GPa) = 52.60617 42.18100 39.65003
#
# Poissons Ratio (x) = 0.25963 0.29194
# Poissons Ratio (y) = 0.32380 0.41375
# Poissons Ratio (z) = 0.38733 0.44017
#
# Static dielectric constant tensor:
#      x y z
#    x 1.553100 0.000000 0.000000 
#    y 0.000000 1.513620 0.000000 
#    z 0.000000 0.000000 1.556720 
# 
# From -- ./inp_files/47059.got.cif
#   From: 2010.05.17/outbox.cif.g08.bks.cpg/sg65_24_cif.got.tgz:47059.got - 2010.06.03 17:01:31.
