data_PCOD9483704
_publ_section_title
;
Structure prediction by ZEFSAII (Michael W. Deem and Ramdas Pophale) SiO2 
 PCOD9483704
Probable space group: C M M M
;
_chemical_formula_sum "Si O2"
_cell_formula_units_Z 104
_cell_length_a 28.143303
_cell_length_b 8.284288
_cell_length_c 27.682957
_cell_angle_alpha 90.000000
_cell_angle_beta 90.000000
_cell_angle_gamma 90.000000
_cell_volume 6454.204669
_symmetry_space_group_name_H-M "C M M M"
_symmetry_group_IT_number 65
_symmetry_cell_setting 'orthorhombic'
loop_
_space_group_symop_operation_xyz
x,y,z
-x,-y,z
x,-y,-z
-x,y,-z
-x,-y,-z
x,y,-z
-x,y,z
x,-y,z
1/2+x,1/2+y,z
1/2-x,1/2-y,z
1/2+x,1/2-y,-z
1/2-x,1/2+y,-z
1/2-x,1/2-y,-z
1/2+x,1/2+y,-z
1/2-x,1/2+y,z
1/2+x,1/2-y,z
loop_
_atom_site_type_symbol
_atom_site_label
_atom_site_fract_x
_atom_site_fract_y
_atom_site_fract_z
Si Si1 0.946762 0.805448 0.649228
Si Si2 0.554825 0.805827 0.155220
Si Si3 0.397119 0.806812 0.746508
Si Si4 0.556044 0.694059 0.052268
Si Si5 0.851653 0.803103 0.599576
Si Si6 0.195525 0.195604 0.500000
Si Si7 0.197135 0.193047 0.301188
O O1 0.929366 0.760294 0.702909
O O2 0.905140 0.749734 0.612920
O O3 0.000000 0.744439 0.639917
O O4 0.947808 0.000000 0.646366
O O5 0.500000 0.747130 0.158795
O O6 0.584157 0.748516 0.201616
O O7 0.575324 0.757337 0.103003
O O8 0.553461 0.000000 0.156803
O O9 0.343303 0.757323 0.734635
O O10 0.400665 0.000000 0.745349
O O11 0.500000 0.739317 0.052295
O O12 0.558440 0.500000 0.053095
O O13 0.575697 0.748994 0.000000
O O14 0.830985 0.747920 0.548602
O O15 0.818678 0.753232 0.644774
O O16 0.851860 0.000000 0.598846
O O17 0.250000 0.250000 0.500000
O O18 0.194683 0.000000 0.500000
O O19 0.250000 0.250000 0.290266
O O20 0.195350 0.000000 0.300461
#
# Coordination Sequence:
#
# PCOD9483704 Si02
#       7
#    16  16  16  16  16   8  16
#     4   9  17  30  46  63  86 116 148 180 215 257
#     4   9  17  27  39  58  85 115 146 180 215 251
#     4  10  19  30  44  64  89 115 146 182 218 258
#     4   8  14  24  37  54  78 110 147 182 214 250
#     4   8  16  29  45  66  89 112 140 174 211 257
#     4  10  18  30  47  65  87 111 138 176 221 264
#     4  10  19  32  48  66  88 113 142 175 216 263
#
# _framework density 16.113526
#
# number of rings (size 3 to 8) (size 9 to 14) (size 15 to 20)
#    0.000    2.923    0.000    3.231    0.000    2.462 
#    0.000    6.538    0.000    2.308    0.000    0.000 
#    0.000    6.154    0.000    2.000    0.000    2.923 
#
# Total GULP energy -289637.526660 kJ/mol
# GULP energy per Si atom -5569.952436 kJ/mol
# Density = 1.607685 g / cm^3
# Si number density = 16.113526 Si / 1000 Ang^3
#
#
#
# Elastic Constant Matrix: (Units=GPa)
#
#
# Indices 1 2 3 4 5 6 
#
# 1 109.6801 6.3599 70.7106 0.0000 0.0000 0.0000
# 2 6.3599 6.4657 10.4113 0.0000 0.0000 0.0000
# 3 70.7106 10.4113 159.3351 0.0000 0.0000 0.0000
# 4 0.0000 0.0000 0.0000 -12.4804 0.0000 0.0000
# 5 0.0000 0.0000 0.0000 0.0000 18.2951 0.0000
# 6 0.0000 0.0000 0.0000 0.0000 0.0000 17.1299
#
#
#
# Elastic Compliance Matrix: (Units=1/GPa)
#
#
# Indices 1 2 3 4 5 6 
#
# 1 0.012857 -0.003866 -0.005453 0.000000 0.000000 0.000000
# 2 -0.003866 0.174011 -0.009655 0.000000 0.000000 0.000000
# 3 -0.005453 -0.009655 0.009327 0.000000 0.000000 0.000000
# 4 0.000000 0.000000 0.000000 -0.080126 0.000000 0.000000
# 5 0.000000 0.000000 0.000000 0.000000 0.054660 0.000000
# 6 0.000000 0.000000 0.000000 0.000000 0.000000 0.058377
#
#
# Mechanical properties :
#
#
# Convention : Reuss Voigt Hill
#
# Bulk Modulus (GPa) = 6.31920 50.04940 28.18430
# Shear Modulus (GPa) = 15.63460 17.12218 16.37839
#
# Velocity S-wave (km/s) = 3.11831 3.26329 3.19162
# Velocity P-wave (km/s) = 4.11039 6.73251 5.57772
#
# Compressibility (1/GPa) = 0.15824776
#
# Stress axis : x y z
#
# Youngs Moduli (GPa) = 77.77672 5.74676 107.21515
#
# Poissons Ratio (x) = 0.02222 0.58468
# Poissons Ratio (y) = 0.30067 1.03513
# Poissons Ratio (z) = 0.42414 0.05548
#
# Static dielectric constant tensor:
#      x y z
#    x 1.518090 0.000000 0.000000 
#    y 0.000000 1.561250 0.000000 
#    z 0.000000 0.000000 1.557430 
# 
# From -- ./inp_files/75981.got.cif
#   From: 2010.05.17/outbox.cif.g08.bks.cpg/sg65_38_cif.got.tgz:75981.got - 2010.06.03 17:01:31.
