data_PCOD9483775
_publ_section_title
;
Structure prediction by ZEFSAII (Michael W. Deem and Ramdas Pophale) SiO2 
 PCOD9483775
Probable space group: C M M M
;
_chemical_formula_sum "Si O2"
_cell_formula_units_Z 88
_cell_length_a 20.178197
_cell_length_b 14.879966
_cell_length_c 13.616421
_cell_angle_alpha 90.000000
_cell_angle_beta 90.000000
_cell_angle_gamma 90.000000
_cell_volume 4088.342460
_symmetry_space_group_name_H-M "C M M M"
_symmetry_group_IT_number 65
_symmetry_cell_setting 'orthorhombic'
loop_
_space_group_symop_operation_xyz
x,y,z
-x,-y,z
x,-y,-z
-x,y,-z
-x,-y,-z
x,y,-z
-x,y,z
x,-y,z
1/2+x,1/2+y,z
1/2-x,1/2-y,z
1/2+x,1/2-y,-z
1/2-x,1/2+y,-z
1/2-x,1/2-y,-z
1/2+x,1/2+y,-z
1/2-x,1/2+y,z
1/2+x,1/2-y,z
loop_
_atom_site_type_symbol
_atom_site_label
_atom_site_fract_x
_atom_site_fract_y
_atom_site_fract_z
Si Si1 0.575044 0.397033 0.823468
Si Si2 0.923691 0.389940 0.000000
Si Si3 0.211830 0.109224 0.889893
Si Si4 0.423005 0.368061 0.604096
Si Si5 0.076689 0.348101 0.390119
Si Si6 0.344584 0.107587 0.805559
O O1 0.500000 0.357592 0.828078
O O2 0.568498 0.500000 0.858155
O O3 0.637484 0.354036 0.877543
O O4 0.599522 0.399542 0.710141
O O5 0.887628 0.361193 0.100647
O O6 0.923310 0.500000 0.000000
O O7 0.000000 0.360479 0.000000
O O8 0.269128 0.141281 0.816922
O O9 0.206317 0.000000 0.879960
O O10 0.235864 0.126968 0.000000
O O11 0.391840 0.396391 0.500000
O O12 0.500000 0.395937 0.601161
O O13 0.422215 0.260206 0.606471
O O14 0.096402 0.379887 0.500000
O O15 0.121500 0.373886 0.298405
O O16 0.000000 0.376003 0.373834
O O17 0.341270 0.000000 0.815278
#
# Coordination Sequence:
#
# PCOD9483775 Si02
#       6
#    16   8  16  16  16  16
#     4   9  17  29  50  78  97 116 156 204 244 289
#     4   9  16  26  44  70  92 117 160 206 242 275
#     4   9  17  31  49  69  97 131 160 192 246 301
#     4   8  15  30  50  70  96 128 157 192 243 295
#     4   9  18  32  50  71  97 133 169 199 239 288
#     4  10  18  30  48  70  98 131 165 203 241 283
#
# _framework density 21.524616000000002
#
# number of rings (size 3 to 8) (size 9 to 14) (size 15 to 20)
#    0.000    3.000    0.909    1.636    0.000    2.182 
#    0.000    6.364    2.000    6.545    0.000    0.000 
#    0.000    0.000    0.000    0.000    0.000    0.000 
#
# Total GULP energy -245162.131914 kJ/mol
# GULP energy per Si atom -5571.866634 kJ/mol
# Density = 2.147563 g / cm^3
# Si number density = 21.524616 Si / 1000 Ang^3
#
#
#
# Elastic Constant Matrix: (Units=GPa)
#
#
# Indices 1 2 3 4 5 6 
#
# 1 148.4915 14.8185 83.2668 0.0000 0.0000 0.0000
# 2 14.8185 41.9091 2.5882 0.0000 0.0000 0.0000
# 3 83.2668 2.5882 128.2550 0.0000 0.0000 0.0000
# 4 0.0000 0.0000 0.0000 33.0734 0.0000 0.0000
# 5 0.0000 0.0000 0.0000 0.0000 32.0176 0.0000
# 6 0.0000 0.0000 0.0000 0.0000 0.0000 1.9104
#
#
#
# Elastic Compliance Matrix: (Units=1/GPa)
#
#
# Indices 1 2 3 4 5 6 
#
# 1 0.011073 -0.003476 -0.007119 0.000000 0.000000 0.000000
# 2 -0.003476 0.024982 0.001752 0.000000 0.000000 0.000000
# 3 -0.007119 0.001752 0.012383 0.000000 0.000000 0.000000
# 4 0.000000 0.000000 0.000000 0.030236 0.000000 0.000000
# 5 0.000000 0.000000 0.000000 0.000000 0.031233 0.000000
# 6 0.000000 0.000000 0.000000 0.000000 0.000000 0.523448
#
#
# Mechanical properties :
#
#
# Convention : Reuss Voigt Hill
#
# Bulk Modulus (GPa) = 32.51603 57.77807 45.14705
# Shear Modulus (GPa) = 7.56098 27.93242 17.74670
#
# Velocity S-wave (km/s) = 1.87626 3.60626 2.87450
# Velocity P-wave (km/s) = 4.45343 6.65141 5.66014
#
# Compressibility (1/GPa) = 0.03075406
#
# Stress axis : x y z
#
# Youngs Moduli (GPa) = 90.30853 40.02902 80.75341
#
# Poissons Ratio (x) = 0.13913 0.57487
# Poissons Ratio (y) = 0.31388 -0.14151
# Poissons Ratio (z) = 0.64289 -0.07014
#
# Static dielectric constant tensor:
#      x y z
#    x 1.789670 0.000000 0.000000 
#    y 0.000000 1.819030 0.000000 
#    z 0.000000 0.000000 1.826020 
# 
# From -- ./inp_files/26826.got.cif
#   From: 2010.05.17/outbox.cif.g08.bks.cpg/sg65_14_cif.got.tgz:26826.got - 2010.06.03 17:01:31.
