data_PCOD9483240
_publ_section_title
;
Structure prediction by ZEFSAII (Michael W. Deem and Ramdas Pophale) SiO2 
 PCOD9483240
Probable space group: C M M M
;
_chemical_formula_sum "Si O2"
_cell_formula_units_Z 72
_cell_length_a 27.864607
_cell_length_b 7.339255
_cell_length_c 16.696483
_cell_angle_alpha 90.000000
_cell_angle_beta 90.000000
_cell_angle_gamma 90.000000
_cell_volume 3414.521874
_symmetry_space_group_name_H-M "C M M M"
_symmetry_group_IT_number 65
_symmetry_cell_setting 'orthorhombic'
loop_
_space_group_symop_operation_xyz
x,y,z
-x,-y,z
x,-y,-z
-x,y,-z
-x,-y,-z
x,y,-z
-x,y,z
x,-y,z
1/2+x,1/2+y,z
1/2-x,1/2-y,z
1/2+x,1/2-y,-z
1/2-x,1/2+y,-z
1/2-x,1/2-y,-z
1/2+x,1/2+y,-z
1/2-x,1/2+y,z
1/2+x,1/2-y,z
loop_
_atom_site_type_symbol
_atom_site_label
_atom_site_fract_x
_atom_site_fract_y
_atom_site_fract_z
Si Si1 0.446942 0.221728 0.745152
Si Si2 0.806637 0.717305 0.500000
Si Si3 0.402086 0.222205 0.088393
Si Si4 0.804335 0.716558 0.833808
Si Si5 0.847974 0.277521 0.668135
O O1 0.500000 0.282359 0.721560
O O2 0.434400 0.277322 0.836234
O O3 0.402288 0.277332 0.690005
O O4 0.446904 0.000000 0.744452
O O5 0.814314 0.500000 0.500000
O O6 0.750000 0.750000 0.500000
O O7 0.829535 0.787025 0.417504
O O8 0.347565 0.280822 0.109566
O O9 0.402990 0.000000 0.087523
O O10 0.416460 0.283169 0.000000
O O11 0.810084 0.500000 0.830908
O O12 0.750000 0.750000 0.859251
O O13 0.815023 0.782385 0.743201
O O14 0.846803 0.500000 0.667237
#
# Coordination Sequence:
#
# PCOD9483240 Si02
#       5
#    16   8  16  16  16
#     4   8  13  22  36  53  76 105 131 156 192 237
#     4  10  18  28  43  61  83 109 134 160 191 228
#     4   8  14  23  34  51  75 101 129 161 195 229
#     4   9  16  26  39  54  76 105 132 159 193 231
#     4   8  15  26  38  55  79 104 129 160 197 230
#
# _framework density 21.086407999999999
#
# number of rings (size 3 to 8) (size 9 to 14) (size 15 to 20)
#    0.000    3.556    0.000    3.333    0.000    0.889 
#    0.000    2.778    0.000    3.333    0.000    0.000 
#    0.000   23.111    0.000    8.000    0.000    8.889 
#
# Total GULP energy -200783.541540 kJ/mol
# GULP energy per Si atom -5577.320598 kJ/mol
# Density = 2.103841 g / cm^3
# Si number density = 21.086408 Si / 1000 Ang^3
#
#
#
# Elastic Constant Matrix: (Units=GPa)
#
#
# Indices 1 2 3 4 5 6 
#
# 1 112.7425 -7.7340 28.9938 0.0000 0.0000 0.0000
# 2 -7.7340 78.0501 2.2046 0.0000 0.0000 0.0000
# 3 28.9938 2.2046 112.8659 0.0000 0.0000 0.0000
# 4 0.0000 0.0000 0.0000 -20.4411 0.0000 0.0000
# 5 0.0000 0.0000 0.0000 0.0000 9.7203 0.0000
# 6 0.0000 0.0000 0.0000 0.0000 0.0000 7.4274
#
#
#
# Elastic Compliance Matrix: (Units=1/GPa)
#
#
# Indices 1 2 3 4 5 6 
#
# 1 0.009578 0.001019 -0.002480 0.000000 0.000000 0.000000
# 2 0.001019 0.012928 -0.000514 0.000000 0.000000 0.000000
# 3 -0.002480 -0.000514 0.009507 0.000000 0.000000 0.000000
# 4 0.000000 0.000000 0.000000 -0.048921 0.000000 0.000000
# 5 0.000000 0.000000 0.000000 0.000000 0.102877 0.000000
# 6 0.000000 0.000000 0.000000 0.000000 0.000000 0.134636
#
#
# Mechanical properties :
#
#
# Convention : Reuss Voigt Hill
#
# Bulk Modulus (GPa) = 35.63581 38.95413 37.29497
# Shear Modulus (GPa) = 21.37580 18.02094 19.69837
#
# Velocity S-wave (km/s) = 3.18736 2.92657 3.05974
# Velocity P-wave (km/s) = 5.52107 5.47114 5.49616
#
# Compressibility (1/GPa) = 0.02806166
#
# Stress axis : x y z
#
# Youngs Moduli (GPa) = 104.41117 77.35269 105.18277
#
# Poissons Ratio (x) = -0.07883 0.26088
# Poissons Ratio (y) = -0.10640 0.05410
# Poissons Ratio (z) = 0.25897 0.03978
#
# Static dielectric constant tensor:
#      x y z
#    x 1.739110 0.000000 0.000000 
#    y 0.000000 1.867630 0.000000 
#    z 0.000000 0.000000 1.734400 
# 
# From -- ./inp_files/37010.got.cif
#   From: 2010.05.17/outbox.cif.g08.bks.cpg/sg65_19_cif.got.tgz:37010.got - 2010.06.03 17:01:31.
