data_PCOD9483204
_publ_section_title
;
Structure prediction by ZEFSAII (Michael W. Deem and Ramdas Pophale) SiO2 
 PCOD9483204
Probable space group: C M M M
;
_chemical_formula_sum "Si O2"
_cell_formula_units_Z 104
_cell_length_a 22.546864
_cell_length_b 7.273947
_cell_length_c 28.481787
_cell_angle_alpha 90.000000
_cell_angle_beta 90.000000
_cell_angle_gamma 90.000000
_cell_volume 4671.146754
_symmetry_space_group_name_H-M "C M M M"
_symmetry_group_IT_number 65
_symmetry_cell_setting 'orthorhombic'
loop_
_space_group_symop_operation_xyz
x,y,z
-x,-y,z
x,-y,-z
-x,y,-z
-x,-y,-z
x,y,-z
-x,y,z
x,-y,z
1/2+x,1/2+y,z
1/2-x,1/2-y,z
1/2+x,1/2-y,-z
1/2-x,1/2+y,-z
1/2-x,1/2-y,-z
1/2+x,1/2+y,-z
1/2-x,1/2+y,z
1/2+x,1/2-y,z
loop_
_atom_site_type_symbol
_atom_site_label
_atom_site_fract_x
_atom_site_fract_y
_atom_site_fract_z
Si Si1 0.500000 0.224788 0.945987
Si Si2 0.064893 0.276774 0.555207
Si Si3 0.819302 0.281061 0.797659
Si Si4 0.500000 0.777115 0.308634
Si Si5 0.401650 0.221284 0.873371
Si Si6 0.631125 0.224233 0.698039
Si Si7 0.315777 0.781367 0.394841
Si Si8 0.000000 0.279462 0.201429
O O1 0.440206 0.284886 0.918169
O O2 0.500000 0.000000 0.944472
O O3 0.500000 0.280647 0.000000
O O4 0.065555 0.232079 0.500000
O O5 0.064679 0.500000 0.558987
O O6 0.126402 0.211117 0.577649
O O7 0.000000 0.217616 0.574728
O O8 0.830500 0.500000 0.798143
O O9 0.750000 0.250000 0.791077
O O10 0.840287 0.215241 0.849646
O O11 0.853092 0.212385 0.750641
O O12 0.566425 0.720802 0.322447
O O13 0.500000 0.717623 0.254017
O O14 0.500000 0.000000 0.313753
O O15 0.444141 0.268485 0.829652
O O16 0.398295 0.000000 0.879820
O O17 0.678532 0.282641 0.659124
O O18 0.630143 0.000000 0.700696
O O19 0.250000 0.750000 0.414278
O O20 0.322613 0.000000 0.393830
O O21 0.000000 0.500000 0.204588
#
# Coordination Sequence:
#
# PCOD9483204 Si02
#       8
#     8  16  16   8  16  16  16   8
#     4   8  13  21  37  62  87 107 128 168 227 272
#     4   8  15  29  49  72  95 117 147 192 238 273
#     4  10  18  28  41  59  85 118 149 175 208 251
#     4   9  13  20  37  61  84 104 135 183 226 253
#     4   8  13  21  35  56  82 105 130 168 211 253
#     4   9  17  26  40  64  91 115 145 186 226 262
#     4  10  20  32  47  69  95 123 154 188 228 274
#     4   8  10  17  33  54  76  96 121 163 214 246
#
# _framework density 22.264339
#
# number of rings (size 3 to 8) (size 9 to 14) (size 15 to 20)
#    0.000    3.154    1.538    1.846    1.077    0.308 
#    0.000    0.000    0.000    0.923    0.000    7.000 
#    0.000    0.615    0.000    0.000    0.000    0.000 
#
# Total GULP energy -289620.999953 kJ/mol
# GULP energy per Si atom -5569.634614 kJ/mol
# Density = 2.221366 g / cm^3
# Si number density = 22.264339 Si / 1000 Ang^3
#
#
#
# Elastic Constant Matrix: (Units=GPa)
#
#
# Indices 1 2 3 4 5 6 
#
# 1 173.7266 -2.3526 73.0968 0.0000 0.0000 0.0000
# 2 -2.3526 92.0084 3.7365 0.0000 0.0000 0.0000
# 3 73.0968 3.7365 93.7071 0.0000 0.0000 0.0000
# 4 0.0000 0.0000 0.0000 -18.4789 0.0000 0.0000
# 5 0.0000 0.0000 0.0000 0.0000 24.9960 0.0000
# 6 0.0000 0.0000 0.0000 0.0000 0.0000 3.9709
#
#
#
# Elastic Compliance Matrix: (Units=1/GPa)
#
#
# Indices 1 2 3 4 5 6 
#
# 1 0.008591 0.000493 -0.006721 0.000000 0.000000 0.000000
# 2 0.000493 0.010914 -0.000819 0.000000 0.000000 0.000000
# 3 -0.006721 -0.000819 0.015947 0.000000 0.000000 0.000000
# 4 0.000000 0.000000 0.000000 -0.054116 0.000000 0.000000
# 5 0.000000 0.000000 0.000000 0.000000 0.040006 0.000000
# 6 0.000000 0.000000 0.000000 0.000000 0.000000 0.251833
#
#
# Mechanical properties :
#
#
# Convention : Reuss Voigt Hill
#
# Bulk Modulus (GPa) = 46.82401 56.48928 51.65665
# Shear Modulus (GPa) = 16.98430 21.09503 19.03967
#
# Velocity S-wave (km/s) = 2.76497 3.08146 2.92749
# Velocity P-wave (km/s) = 5.59196 6.17152 5.88887
#
# Compressibility (1/GPa) = 0.02135656
#
# Stress axis : x y z
#
# Youngs Moduli (GPa) = 116.40500 91.62174 62.70819
#
# Poissons Ratio (x) = -0.04513 0.42145
# Poissons Ratio (y) = -0.05734 0.05139
# Poissons Ratio (z) = 0.78234 0.07508
#
# Static dielectric constant tensor:
#      x y z
#    x 1.879780 0.000000 0.000000 
#    y 0.000000 1.785310 0.000000 
#    z 0.000000 0.000000 1.803290 
# 
# From -- ./inp_files/78073.got.cif
#   From: 2010.05.17/outbox.cif.g08.bks.cpg/sg65_40_cif.got.tgz:78073.got - 2010.06.03 17:01:31.
