data_PCOD9483626
_publ_section_title
;
Structure prediction by ZEFSAII (Michael W. Deem and Ramdas Pophale) SiO2 
 PCOD9483626
Probable space group: C M M M
;
_chemical_formula_sum "Si O2"
_cell_formula_units_Z 120
_cell_length_a 22.660318
_cell_length_b 18.088760
_cell_length_c 16.032393
_cell_angle_alpha 90.000000
_cell_angle_beta 90.000000
_cell_angle_gamma 90.000000
_cell_volume 6571.630656
_symmetry_space_group_name_H-M "C M M M"
_symmetry_group_IT_number 65
_symmetry_cell_setting 'orthorhombic'
loop_
_space_group_symop_operation_xyz
x,y,z
-x,-y,z
x,-y,-z
-x,y,-z
-x,-y,-z
x,y,-z
-x,y,z
x,-y,z
1/2+x,1/2+y,z
1/2-x,1/2-y,z
1/2+x,1/2-y,-z
1/2-x,1/2+y,-z
1/2-x,1/2-y,-z
1/2+x,1/2+y,-z
1/2-x,1/2+y,z
1/2+x,1/2-y,z
loop_
_atom_site_type_symbol
_atom_site_label
_atom_site_fract_x
_atom_site_fract_y
_atom_site_fract_z
Si Si1 0.737944 0.088507 0.405269
Si Si2 0.336473 0.411125 0.267465
Si Si3 0.781682 0.088389 0.907486
Si Si4 0.621550 0.856095 0.672135
Si Si5 0.500000 0.912073 0.594247
Si Si6 0.569977 0.294775 0.266477
Si Si7 0.354188 0.085802 0.856580
Si Si8 0.568757 0.221960 0.909907
O O1 0.758366 0.102152 0.500000
O O2 0.786567 0.108626 0.335819
O O3 0.676293 0.129563 0.388563
O O4 0.727010 0.000000 0.396886
O O5 0.341519 0.500000 0.267547
O O6 0.315371 0.385431 0.175247
O O7 0.397924 0.371207 0.286179
O O8 0.712329 0.097485 0.888291
O O9 0.792141 0.000000 0.910866
O O10 0.795683 0.118794 0.000000
O O11 0.559804 0.888620 0.639971
O O12 0.606297 0.770750 0.689074
O O13 0.640168 0.896426 0.758264
O O14 0.500000 0.881614 0.500000
O O15 0.500000 0.000000 0.590118
O O16 0.500000 0.292495 0.286017
O O17 0.577043 0.275511 0.168312
O O18 0.394902 0.146917 0.898964
O O19 0.369964 0.000000 0.872059
O O20 0.500000 0.201365 0.907896
O O21 0.582189 0.256113 0.000000
#
# Coordination Sequence:
#
# PCOD9483626 Si02
#       8
#    16  16  16  16   8  16  16  16
#     4  10  20  37  62  90 119 150 187 233 282 334
#     4  10  21  39  62  87 112 142 189 243 292 346
#     4   9  17  31  52  80 113 143 176 230 292 340
#     4  11  20  36  55  80 120 157 189 231 282 337
#     4  11  22  34  54  86 118 156 202 237 272 328
#     4  10  22  40  59  79 112 154 190 234 289 342
#     4  10  18  29  49  76 111 153 192 227 271 330
#     4   9  19  34  49  71 106 149 194 236 277 323
#
# _framework density 18.260307999999998
#
# number of rings (size 3 to 8) (size 9 to 14) (size 15 to 20)
#    0.000    2.067    2.000    2.000    0.933    3.467 
#    0.000    2.667    0.000    2.400    0.000    5.600 
#    0.000    0.000    0.000    0.000    0.000    0.000 
#
# Total GULP energy -334581.055986 kJ/mol
# GULP energy per Si atom -5576.350933 kJ/mol
# Density = 1.821875 g / cm^3
# Si number density = 18.260308 Si / 1000 Ang^3
#
#
#
# Elastic Constant Matrix: (Units=GPa)
#
#
# Indices 1 2 3 4 5 6 
#
# 1 82.8050 40.3456 29.0676 0.0000 0.0000 0.0000
# 2 40.3456 34.8360 15.0217 0.0000 0.0000 0.0000
# 3 29.0676 15.0217 92.7728 0.0000 0.0000 0.0000
# 4 0.0000 0.0000 0.0000 2.9271 0.0000 0.0000
# 5 0.0000 0.0000 0.0000 0.0000 0.2377 0.0000
# 6 0.0000 0.0000 0.0000 0.0000 0.0000 32.9393
#
#
#
# Elastic Compliance Matrix: (Units=1/GPa)
#
#
# Indices 1 2 3 4 5 6 
#
# 1 0.028985 -0.031879 -0.003920 0.000000 0.000000 0.000000
# 2 -0.031879 0.065923 -0.000686 0.000000 0.000000 0.000000
# 3 -0.003920 -0.000686 0.012118 0.000000 0.000000 0.000000
# 4 0.000000 0.000000 0.000000 0.341634 0.000000 0.000000
# 5 0.000000 0.000000 0.000000 0.000000 4.206974 0.000000
# 6 0.000000 0.000000 0.000000 0.000000 0.000000 0.030359
#
#
# Mechanical properties :
#
#
# Convention : Reuss Voigt Hill
#
# Bulk Modulus (GPa) = 29.36276 42.14262 35.75269
# Shear Modulus (GPa) = 1.04815 15.61941 8.33378
#
# Velocity S-wave (km/s) = 0.75845 2.92785 2.13864
# Velocity P-wave (km/s) = 4.10877 5.87866 5.07152
#
# Compressibility (1/GPa) = 0.03405674
#
# Stress axis : x y z
#
# Youngs Moduli (GPa) = 34.50030 15.16924 82.52042
#
# Poissons Ratio (x) = 0.48358 0.32347
# Poissons Ratio (y) = 1.09984 0.05659
# Poissons Ratio (z) = 0.13523 0.01040
#
# Static dielectric constant tensor:
#      x y z
#    x 1.593020 0.000000 0.000000 
#    y 0.000000 1.604350 0.000000 
#    z 0.000000 0.000000 1.677700 
# 
# From -- ./inp_files/54967.got.cif
#   From: 2010.05.17/outbox.cif.g08.bks.cpg/sg65_28_cif.got.tgz:54967.got - 2010.06.03 17:01:31.
