data_PCOD9483454
_publ_section_title
;
Structure prediction by ZEFSAII (Michael W. Deem and Ramdas Pophale) SiO2 
 PCOD9483454
Probable space group: C M M M
;
_chemical_formula_sum "Si O2"
_cell_formula_units_Z 72
_cell_length_a 28.539647
_cell_length_b 19.839675
_cell_length_c 8.576119
_cell_angle_alpha 90.000000
_cell_angle_beta 90.000000
_cell_angle_gamma 90.000000
_cell_volume 4855.947126
_symmetry_space_group_name_H-M "C M M M"
_symmetry_group_IT_number 65
_symmetry_cell_setting 'orthorhombic'
loop_
_space_group_symop_operation_xyz
x,y,z
-x,-y,z
x,-y,-z
-x,y,-z
-x,-y,-z
x,y,-z
-x,y,z
x,-y,z
1/2+x,1/2+y,z
1/2-x,1/2-y,z
1/2+x,1/2-y,-z
1/2-x,1/2+y,-z
1/2-x,1/2-y,-z
1/2+x,1/2+y,-z
1/2-x,1/2+y,z
1/2+x,1/2-y,z
loop_
_atom_site_type_symbol
_atom_site_label
_atom_site_fract_x
_atom_site_fract_y
_atom_site_fract_z
Si Si1 0.000000 0.421931 0.814365
Si Si2 0.271613 0.351213 0.188113
Si Si3 0.840263 0.500000 0.685549
Si Si4 0.096659 0.369641 0.313443
Si Si5 0.179350 0.722211 0.312215
Si Si6 0.237055 0.000000 0.185277
O O1 0.953562 0.383048 0.760403
O O2 0.000000 0.500000 0.753275
O O3 0.000000 0.425802 0.000000
O O4 0.220743 0.326311 0.248613
O O5 0.308137 0.296193 0.250554
O O6 0.281158 0.427605 0.243449
O O7 0.270857 0.349225 0.000000
O O8 0.829416 0.500000 0.500000
O O9 0.871234 0.434744 0.720450
O O10 0.792330 0.500000 0.779114
O O11 0.090516 0.366042 0.500000
O O12 0.128687 0.306403 0.264115
O O13 0.182065 0.721041 0.500000
O O14 0.229570 0.000000 0.000000
#
# Coordination Sequence:
#
# PCOD9483454 Si02
#       6
#     8  16   8  16  16   8
#     4  11  23  33  45  67  91 116 151 192 227 261
#     4  10  19  30  44  64  90 120 150 185 226 267
#     4  10  18  29  45  64  85 120 157 189 226 261
#     4  10  20  33  48  63  86 119 155 190 227 266
#     4  10  19  31  46  65  87 116 153 189 224 267
#     4  10  20  30  43  65  92 121 154 188 224 267
#
# _framework density 14.827178999999999
#
# number of rings (size 3 to 8) (size 9 to 14) (size 15 to 20)
#    0.000    1.889    3.333    3.000    0.000    4.000 
#    0.000    0.000    0.000    0.000    0.000    0.000 
#    0.000    0.889    0.000   10.000    0.000    4.444 
#
# Total GULP energy -200745.149135 kJ/mol
# GULP energy per Si atom -5576.254143 kJ/mol
# Density = 1.479343 g / cm^3
# Si number density = 14.827179 Si / 1000 Ang^3
#
#
#
# Elastic Constant Matrix: (Units=GPa)
#
#
# Indices 1 2 3 4 5 6 
#
# 1 94.1182 60.0545 23.0751 0.0000 0.0000 0.0000
# 2 60.0545 132.7462 29.6232 0.0000 0.0000 0.0000
# 3 23.0751 29.6232 29.5280 0.0000 0.0000 0.0000
# 4 0.0000 0.0000 0.0000 9.2128 0.0000 0.0000
# 5 0.0000 0.0000 0.0000 0.0000 48.2783 0.0000
# 6 0.0000 0.0000 0.0000 0.0000 0.0000 46.5297
#
#
#
# Elastic Compliance Matrix: (Units=1/GPa)
#
#
# Indices 1 2 3 4 5 6 
#
# 1 0.015907 -0.005698 -0.006714 0.000000 0.000000 0.000000
# 2 -0.005698 0.011747 -0.007332 0.000000 0.000000 0.000000
# 3 -0.006714 -0.007332 0.046469 0.000000 0.000000 0.000000
# 4 0.000000 0.000000 0.000000 0.108544 0.000000 0.000000
# 5 0.000000 0.000000 0.000000 0.000000 0.020713 0.000000
# 6 0.000000 0.000000 0.000000 0.000000 0.000000 0.021492
#
#
# Mechanical properties :
#
#
# Convention : Reuss Voigt Hill
#
# Bulk Modulus (GPa) = 28.87334 53.54422 41.20878
# Shear Modulus (GPa) = 18.12210 30.38014 24.25112
#
# Velocity S-wave (km/s) = 3.49982 4.53144 4.04862
# Velocity P-wave (km/s) = 5.98725 7.97303 7.05041
#
# Compressibility (1/GPa) = 0.03463402
#
# Stress axis : x y z
#
# Youngs Moduli (GPa) = 62.86616 85.12690 21.51959
#
# Poissons Ratio (x) = 0.48504 0.14449
# Poissons Ratio (y) = 0.35820 0.15779
# Poissons Ratio (z) = 0.42211 0.62418
#
# Static dielectric constant tensor:
#      x y z
#    x 1.463220 0.000000 0.000000 
#    y 0.000000 1.522490 0.000000 
#    z 0.000000 0.000000 1.503810 
# 
# From -- ./inp_files/15990.got.cif
#   From: 2010.05.17/outbox.cif.g08.bks.cpg/sg65_8_cif.got.tgz:15990.got - 2010.06.03 17:01:31.
