data_PCOD9483350
_publ_section_title
;
Structure prediction by ZEFSAII (Michael W. Deem and Ramdas Pophale) SiO2 
 PCOD9483350
Probable space group: C M M M
;
_chemical_formula_sum "Si O2"
_cell_formula_units_Z 96
_cell_length_a 20.258106
_cell_length_b 30.615961
_cell_length_c 9.462570
_cell_angle_alpha 90.000000
_cell_angle_beta 90.000000
_cell_angle_gamma 90.000000
_cell_volume 5868.888254
_symmetry_space_group_name_H-M "C M M M"
_symmetry_group_IT_number 65
_symmetry_cell_setting 'orthorhombic'
loop_
_space_group_symop_operation_xyz
x,y,z
-x,-y,z
x,-y,-z
-x,y,-z
-x,-y,-z
x,y,-z
-x,y,z
x,-y,z
1/2+x,1/2+y,z
1/2-x,1/2-y,z
1/2+x,1/2-y,-z
1/2-x,1/2+y,-z
1/2-x,1/2-y,-z
1/2+x,1/2+y,-z
1/2-x,1/2+y,z
1/2+x,1/2-y,z
loop_
_atom_site_type_symbol
_atom_site_label
_atom_site_fract_x
_atom_site_fract_y
_atom_site_fract_z
Si Si1 0.895187 0.132881 0.164209
Si Si2 0.764667 0.366699 0.164879
Si Si3 0.398992 0.548298 0.664026
Si Si4 0.738502 0.950938 0.663463
Si Si5 0.424557 0.268828 0.167452
Si Si6 0.187473 0.717556 0.333330
O O1 0.815328 0.135396 0.174400
O O2 0.919534 0.090925 0.250171
O O3 0.920544 0.180186 0.211182
O O4 0.912736 0.127191 0.000000
O O5 0.784620 0.412892 0.233387
O O6 0.794621 0.327140 0.254000
O O7 0.782312 0.363573 0.000000
O O8 0.418275 0.551888 0.500000
O O9 0.419698 0.500000 0.716139
O O10 0.318703 0.548531 0.668116
O O11 0.720589 0.942032 0.500000
O O12 0.716506 0.000000 0.700790
O O13 0.500000 0.253957 0.181813
O O14 0.374261 0.240657 0.258471
O O15 0.406510 0.267271 0.000000
O O16 0.176108 0.710426 0.500000
O O17 0.250000 0.750000 0.318752
#
# Coordination Sequence:
#
# PCOD9483350 Si02
#       6
#    16  16  16  16  16  16
#     4   9  17  28  44  67  91 119 157 200 243 289
#     4  10  18  28  46  70  97 127 162 205 245 289
#     4   8  14  24  39  60  86 118 155 195 240 287
#     4   8  14  25  40  61  94 130 159 193 240 291
#     4  10  21  37  54  71  96 129 163 203 252 301
#     4  11  22  34  51  74  99 129 165 206 249 296
#
# _framework density 16.357441999999999
#
# number of rings (size 3 to 8) (size 9 to 14) (size 15 to 20)
#    0.000    2.667    1.667    2.000    0.000    3.000 
#    0.000    3.333    0.000    0.500    0.000    3.500 
#    0.000    0.667    0.000    7.000    0.000    3.333 
#
# Total GULP energy -267629.328973 kJ/mol
# GULP energy per Si atom -5575.611020 kJ/mol
# Density = 1.632021 g / cm^3
# Si number density = 16.357442 Si / 1000 Ang^3
#
#
#
# Elastic Constant Matrix: (Units=GPa)
#
#
# Indices 1 2 3 4 5 6 
#
# 1 44.1540 43.1542 44.1455 0.0000 0.0000 0.0000
# 2 43.1542 142.0364 92.2490 0.0000 0.0000 0.0000
# 3 44.1455 92.2490 106.6386 0.0000 0.0000 0.0000
# 4 0.0000 0.0000 0.0000 36.1800 0.0000 0.0000
# 5 0.0000 0.0000 0.0000 0.0000 2.7116 0.0000
# 6 0.0000 0.0000 0.0000 0.0000 0.0000 -3.8365
#
#
#
# Elastic Compliance Matrix: (Units=1/GPa)
#
#
# Indices 1 2 3 4 5 6 
#
# 1 0.039242 -0.003131 -0.013537 0.000000 0.000000 0.000000
# 2 -0.003131 0.016318 -0.012820 0.000000 0.000000 0.000000
# 3 -0.013537 -0.012820 0.026071 0.000000 0.000000 0.000000
# 4 0.000000 0.000000 0.000000 0.027640 0.000000 0.000000
# 5 0.000000 0.000000 0.000000 0.000000 0.368780 0.000000
# 6 0.000000 0.000000 0.000000 0.000000 0.000000 -0.260655
#
#
# Mechanical properties :
#
#
# Convention : Reuss Voigt Hill
#
# Bulk Modulus (GPa) = 44.13791 72.43626 58.28708
# Shear Modulus (GPa) = 17.61044 14.56305 16.08675
#
# Velocity S-wave (km/s) = 3.28472 2.98703 3.13940
# Velocity P-wave (km/s) = 6.43644 7.50173 6.98941
#
# Compressibility (1/GPa) = 0.02265626
#
# Stress axis : x y z
#
# Youngs Moduli (GPa) = 25.48279 61.28254 38.35655
#
# Poissons Ratio (x) = 0.19188 0.51922
# Poissons Ratio (y) = 0.07979 0.49172
# Poissons Ratio (z) = 0.34495 0.78563
#
# Static dielectric constant tensor:
#      x y z
#    x 1.546390 0.000000 0.000000 
#    y 0.000000 1.548110 0.000000 
#    z 0.000000 0.000000 1.544570 
# 
# From -- ./inp_files/12183.got.cif
#   From: 2010.05.17/outbox.cif.g08.bks.cpg/sg65_7_cif.got.tgz:12183.got - 2010.06.03 17:01:31.
