data_PCOD9483652
_publ_section_title
;
Structure prediction by ZEFSAII (Michael W. Deem and Ramdas Pophale) SiO2 
 PCOD9483652
Probable space group: C M M M
;
_chemical_formula_sum "Si O2"
_cell_formula_units_Z 88
_cell_length_a 24.260559
_cell_length_b 20.561328
_cell_length_c 9.134946
_cell_angle_alpha 90.000000
_cell_angle_beta 90.000000
_cell_angle_gamma 90.000000
_cell_volume 4556.778820
_symmetry_space_group_name_H-M "C M M M"
_symmetry_group_IT_number 65
_symmetry_cell_setting 'orthorhombic'
loop_
_space_group_symop_operation_xyz
x,y,z
-x,-y,z
x,-y,-z
-x,y,-z
-x,-y,-z
x,y,-z
-x,y,z
x,-y,z
1/2+x,1/2+y,z
1/2-x,1/2-y,z
1/2+x,1/2-y,-z
1/2-x,1/2+y,-z
1/2-x,1/2-y,-z
1/2+x,1/2+y,-z
1/2-x,1/2+y,z
1/2+x,1/2-y,z
loop_
_atom_site_type_symbol
_atom_site_label
_atom_site_fract_x
_atom_site_fract_y
_atom_site_fract_z
Si Si1 0.848664 0.135723 0.676533
Si Si2 0.935838 0.500000 0.821992
Si Si3 0.779125 0.645714 0.334654
Si Si4 0.938524 0.241976 0.673737
Si Si5 0.744215 0.000000 0.658486
Si Si6 0.888490 0.359951 0.174581
Si Si7 0.150740 0.000000 0.170855
O O1 0.849700 0.128615 0.500000
O O2 0.784720 0.154030 0.712645
O O3 0.891645 0.191057 0.719161
O O4 0.865483 0.067363 0.750493
O O5 0.905313 0.566795 0.777728
O O6 0.000000 0.500000 0.774596
O O7 0.936055 0.500000 0.000000
O O8 0.785322 0.672491 0.500000
O O9 0.786577 0.567477 0.341736
O O10 0.828965 0.665234 0.231705
O O11 0.931545 0.254244 0.500000
O O12 0.931232 0.308908 0.759156
O O13 0.000000 0.215247 0.696384
O O14 0.775948 0.000000 0.500000
O O15 0.783504 0.000000 0.798164
O O16 0.888936 0.359001 0.000000
O O17 0.137591 0.000000 0.000000
#
# Coordination Sequence:
#
# PCOD9483652 Si02
#       7
#    16   8  16  16   8  16   8
#     4   9  19  37  59  81 110 148 184 222 275 335
#     4   9  19  36  55  76 106 147 189 222 261 318
#     4   9  17  31  52  78 109 144 182 221 266 325
#     4  10  22  41  62  81 103 138 187 237 282 332
#     4   8  15  29  49  74 109 151 184 216 266 321
#     4  11  22  35  55  82 113 147 183 228 278 329
#     4  10  18  29  52  85 114 140 174 218 265 318
#
# _framework density 19.311886999999999
#
# number of rings (size 3 to 8) (size 9 to 14) (size 15 to 20)
#    0.000    2.455    0.000    3.545    0.000    5.455 
#    0.000    6.364    0.000    6.000    0.000    0.000 
#    0.000    0.000    0.000    0.000    0.000    0.000 
#
# Total GULP energy -245150.291379 kJ/mol
# GULP energy per Si atom -5571.597531 kJ/mol
# Density = 1.926793 g / cm^3
# Si number density = 19.311887 Si / 1000 Ang^3
#
#
#
# Elastic Constant Matrix: (Units=GPa)
#
#
# Indices 1 2 3 4 5 6 
#
# 1 126.2034 54.7046 39.2845 0.0000 0.0000 0.0000
# 2 54.7046 80.9849 31.9803 0.0000 0.0000 0.0000
# 3 39.2845 31.9803 36.2336 0.0000 0.0000 0.0000
# 4 0.0000 0.0000 0.0000 23.0179 0.0000 0.0000
# 5 0.0000 0.0000 0.0000 0.0000 2.6636 0.0000
# 6 0.0000 0.0000 0.0000 0.0000 0.0000 28.3004
#
#
#
# Elastic Compliance Matrix: (Units=1/GPa)
#
#
# Indices 1 2 3 4 5 6 
#
# 1 0.013157 -0.004995 -0.009856 0.000000 0.000000 0.000000
# 2 -0.004995 0.020851 -0.012987 0.000000 0.000000 0.000000
# 3 -0.009856 -0.012987 0.049747 0.000000 0.000000 0.000000
# 4 0.000000 0.000000 0.000000 0.043445 0.000000 0.000000
# 5 0.000000 0.000000 0.000000 0.000000 0.375433 0.000000
# 6 0.000000 0.000000 0.000000 0.000000 0.000000 0.035335
#
#
# Mechanical properties :
#
#
# Convention : Reuss Voigt Hill
#
# Bulk Modulus (GPa) = 35.61500 55.04007 45.32754
# Shear Modulus (GPa) = 8.29182 18.62654 13.45918
#
# Velocity S-wave (km/s) = 2.07436 3.10903 2.64282
# Velocity P-wave (km/s) = 4.92131 6.43821 5.73018
#
# Compressibility (1/GPa) = 0.02807806
#
# Stress axis : x y z
#
# Youngs Moduli (GPa) = 76.00551 47.95951 20.10172
#
# Poissons Ratio (x) = 0.23958 0.19812
# Poissons Ratio (y) = 0.37968 0.26107
# Poissons Ratio (z) = 0.74909 0.62286
#
# Static dielectric constant tensor:
#      x y z
#    x 1.687730 0.000000 0.000000 
#    y 0.000000 1.701180 0.000000 
#    z 0.000000 0.000000 1.676280 
# 
# From -- ./inp_files/14021.got.cif
#   From: 2010.05.17/outbox.cif.g08.bks.cpg/sg65_8_cif.got.tgz:14021.got - 2010.06.03 17:01:31.
