data_PCOD9483176
_publ_section_title
;
Structure prediction by ZEFSAII (Michael W. Deem and Ramdas Pophale) SiO2 
 PCOD9483176
Probable space group: C M M M
;
_chemical_formula_sum "Si O2"
_cell_formula_units_Z 80
_cell_length_a 34.877075
_cell_length_b 14.913659
_cell_length_c 7.333906
_cell_angle_alpha 90.000000
_cell_angle_beta 90.000000
_cell_angle_gamma 90.000000
_cell_volume 3814.693095
_symmetry_space_group_name_H-M "C M M M"
_symmetry_group_IT_number 65
_symmetry_cell_setting 'orthorhombic'
loop_
_space_group_symop_operation_xyz
x,y,z
-x,-y,z
x,-y,-z
-x,y,-z
-x,-y,-z
x,y,-z
-x,y,z
x,-y,z
1/2+x,1/2+y,z
1/2-x,1/2-y,z
1/2+x,1/2-y,-z
1/2-x,1/2+y,-z
1/2-x,1/2-y,-z
1/2+x,1/2+y,-z
1/2-x,1/2+y,z
1/2+x,1/2-y,z
loop_
_atom_site_type_symbol
_atom_site_label
_atom_site_fract_x
_atom_site_fract_y
_atom_site_fract_z
Si Si1 0.189189 0.242162 0.222323
Si Si2 0.542620 0.603377 0.719903
Si Si3 0.746943 0.897198 0.221965
Si Si4 0.542759 0.103556 0.222289
Si Si5 0.396972 0.245676 0.788706
O O1 0.214915 0.157058 0.278937
O O2 0.211522 0.333079 0.275449
O O3 0.145488 0.240911 0.287364
O O4 0.189365 0.239683 0.000000
O O5 0.542633 0.605055 0.500000
O O6 0.500000 0.633772 0.780174
O O7 0.547377 0.500000 0.776228
O O8 0.576887 0.665995 0.782203
O O9 0.745056 0.000000 0.283841
O O10 0.746935 0.899213 0.000000
O O11 0.500000 0.132175 0.280461
O O12 0.576303 0.167471 0.290334
O O13 0.548189 0.000000 0.273373
O O14 0.542690 0.106870 0.000000
O O15 0.390874 0.221346 0.000000
#
# Coordination Sequence:
#
# PCOD9483176 Si02
#       5
#    16  16  16  16  16
#     4   8  15  24  34  57  87 110 140 179 216 258
#     4   9  19  35  50  63  85 120 155 181 213 265
#     4   8  13  23  37  51  78 120 150 169 206 261
#     4   8  14  24  37  56  85 117 143 170 213 266
#     4  10  18  27  44  70  94 113 142 190 235 261
#
# _framework density 20.971541999999999
#
# number of rings (size 3 to 8) (size 9 to 14) (size 15 to 20)
#    0.000    3.400    0.000    3.000    0.000    3.200 
#    0.000    7.000    0.000    0.600    0.000    5.600 
#    0.000    1.600    0.000    0.000    0.000    0.000 
#
# Total GULP energy -223165.284869 kJ/mol
# GULP energy per Si atom -5579.132122 kJ/mol
# Density = 2.092381 g / cm^3
# Si number density = 20.971542 Si / 1000 Ang^3
#
#
#
# Elastic Constant Matrix: (Units=GPa)
#
#
# Indices 1 2 3 4 5 6 
#
# 1 225.6261 109.0562 1.2930 0.0000 0.0000 0.0000
# 2 109.0562 152.2780 -4.6157 0.0000 0.0000 0.0000
# 3 1.2930 -4.6157 78.8175 0.0000 0.0000 0.0000
# 4 0.0000 0.0000 0.0000 25.3757 0.0000 0.0000
# 5 0.0000 0.0000 0.0000 0.0000 14.9122 0.0000
# 6 0.0000 0.0000 0.0000 0.0000 0.0000 269.2774
#
#
#
# Elastic Compliance Matrix: (Units=1/GPa)
#
#
# Indices 1 2 3 4 5 6 
#
# 1 0.006791 -0.004875 -0.000397 0.000000 0.000000 0.000000
# 2 -0.004875 0.010079 0.000670 0.000000 0.000000 0.000000
# 3 -0.000397 0.000670 0.012733 0.000000 0.000000 0.000000
# 4 0.000000 0.000000 0.000000 0.039408 0.000000 0.000000
# 5 0.000000 0.000000 0.000000 0.000000 0.067059 0.000000
# 6 0.000000 0.000000 0.000000 0.000000 0.000000 0.003714
#
#
# Mechanical properties :
#
#
# Convention : Reuss Voigt Hill
#
# Bulk Modulus (GPa) = 49.02248 74.24316 61.63282
# Shear Modulus (GPa) = 32.09493 85.31227 58.70360
#
# Velocity S-wave (km/s) = 3.91628 6.38501 5.29649
# Velocity P-wave (km/s) = 6.62391 9.47821 8.17657
#
# Compressibility (1/GPa) = 0.02039880
#
# Stress axis : x y z
#
# Youngs Moduli (GPa) = 147.25511 99.21735 78.53420
#
# Poissons Ratio (x) = 0.48373 0.03117
# Poissons Ratio (y) = 0.71794 -0.05264
# Poissons Ratio (z) = 0.05845 -0.06650
#
# Static dielectric constant tensor:
#      x y z
#    x 1.732340 0.000000 0.000000 
#    y 0.000000 1.717380 0.000000 
#    z 0.000000 0.000000 1.814430 
# 
# From -- ./inp_files/25290.got.cif
#   From: 2010.05.17/outbox.cif.g08.bks.cpg/sg65_13_cif.got.tgz:25290.got - 2010.06.03 17:01:31.
