data_PCOD9483425
_publ_section_title
;
Structure prediction by ZEFSAII (Michael W. Deem and Ramdas Pophale) SiO2 
 PCOD9483425
Probable space group: C M M M
;
_chemical_formula_sum "Si O2"
_cell_formula_units_Z 112
_cell_length_a 35.271036
_cell_length_b 13.888418
_cell_length_c 14.455632
_cell_angle_alpha 90.000000
_cell_angle_beta 90.000000
_cell_angle_gamma 90.000000
_cell_volume 7081.219864
_symmetry_space_group_name_H-M "C M M M"
_symmetry_group_IT_number 65
_symmetry_cell_setting 'orthorhombic'
loop_
_space_group_symop_operation_xyz
x,y,z
-x,-y,z
x,-y,-z
-x,y,-z
-x,-y,-z
x,y,-z
-x,y,z
x,-y,z
1/2+x,1/2+y,z
1/2-x,1/2-y,z
1/2+x,1/2-y,-z
1/2-x,1/2+y,-z
1/2-x,1/2-y,-z
1/2+x,1/2+y,-z
1/2-x,1/2+y,z
1/2+x,1/2-y,z
loop_
_atom_site_type_symbol
_atom_site_label
_atom_site_fract_x
_atom_site_fract_y
_atom_site_fract_z
Si Si1 0.154401 0.885422 0.793158
Si Si2 0.732906 0.616794 0.894997
Si Si3 0.042126 0.611397 0.887804
Si Si4 0.689977 0.116641 0.793865
Si Si5 0.881416 0.281578 0.888549
Si Si6 0.774015 0.617321 0.604351
Si Si7 0.686442 0.617131 0.603776
O O1 0.195581 0.861297 0.836619
O O2 0.124012 0.825951 0.850624
O O3 0.158387 0.855740 0.686051
O O4 0.148847 0.000000 0.799859
O O5 0.734711 0.500000 0.896469
O O6 0.772427 0.647822 0.850187
O O7 0.728604 0.650442 0.000000
O O8 0.047487 0.500000 0.859618
O O9 0.078075 0.674539 0.860675
O O10 0.000000 0.642947 0.857168
O O11 0.041712 0.611928 0.000000
O O12 0.652624 0.159386 0.840255
O O13 0.698441 0.145707 0.687622
O O14 0.687808 0.000000 0.797420
O O15 0.877528 0.285901 0.000000
O O16 0.784510 0.646950 0.500000
O O17 0.773457 0.500000 0.605210
O O18 0.730217 0.647293 0.621270
O O19 0.675715 0.646233 0.500000
O O20 0.687619 0.500000 0.605496
#
# Coordination Sequence:
#
# PCOD9483425 Si02
#       7
#    16  16  16  16  16  16  16
#     4  10  19  32  45  60  88 124 160 194 225 261
#     4   9  16  26  39  53  77 121 163 186 212 255
#     4   8  15  31  54  75  94 116 142 176 222 273
#     4  10  18  29  43  62  90 118 149 194 238 272
#     4  11  22  31  44  68  93 119 152 188 224 268
#     4   8  13  24  43  62  81 113 155 195 239 283
#     4   8  13  25  46  64  78 109 160 206 238 267
#
# _framework density 15.816484000000001
#
# number of rings (size 3 to 8) (size 9 to 14) (size 15 to 20)
#    0.000    2.857    1.429    2.571    0.000    2.857 
#    0.000    2.143    0.000    2.143    0.000    2.000 
#    0.000    2.286    0.000   13.714    0.000    0.571 
#
# Total GULP energy -312389.562569 kJ/mol
# GULP energy per Si atom -5578.385046 kJ/mol
# Density = 1.578048 g / cm^3
# Si number density = 15.816484 Si / 1000 Ang^3
#
#
#
# Elastic Constant Matrix: (Units=GPa)
#
#
# Indices 1 2 3 4 5 6 
#
# 1 104.7519 37.5689 44.5635 0.0000 0.0000 0.0000
# 2 37.5689 61.9378 20.4240 0.0000 0.0000 0.0000
# 3 44.5635 20.4240 103.5864 0.0000 0.0000 0.0000
# 4 0.0000 0.0000 0.0000 12.2275 0.0000 0.0000
# 5 0.0000 0.0000 0.0000 0.0000 4.3928 0.0000
# 6 0.0000 0.0000 0.0000 0.0000 0.0000 22.5866
#
#
#
# Elastic Compliance Matrix: (Units=1/GPa)
#
#
# Indices 1 2 3 4 5 6 
#
# 1 0.014030 -0.006973 -0.004661 0.000000 0.000000 0.000000
# 2 -0.006973 0.020734 -0.001088 0.000000 0.000000 0.000000
# 3 -0.004661 -0.001088 0.011873 0.000000 0.000000 0.000000
# 4 0.000000 0.000000 0.000000 0.081783 0.000000 0.000000
# 5 0.000000 0.000000 0.000000 0.000000 0.227645 0.000000
# 6 0.000000 0.000000 0.000000 0.000000 0.000000 0.044274
#
#
# Mechanical properties :
#
#
# Convention : Reuss Voigt Hill
#
# Bulk Modulus (GPa) = 47.18585 52.82100 50.00343
# Shear Modulus (GPa) = 11.55140 19.02270 15.28705
#
# Velocity S-wave (km/s) = 2.70541 3.47178 3.11227
# Velocity P-wave (km/s) = 6.29739 7.03844 6.67820
#
# Compressibility (1/GPa) = 0.02119279
#
# Stress axis : x y z
#
# Youngs Moduli (GPa) = 71.27519 48.23073 84.22120
#
# Poissons Ratio (x) = 0.33632 0.39255
# Poissons Ratio (y) = 0.49701 0.09164
# Poissons Ratio (z) = 0.33221 0.05248
#
# Static dielectric constant tensor:
#      x y z
#    x 1.485350 0.000000 0.000000 
#    y 0.000000 1.615070 0.000000 
#    z 0.000000 0.000000 1.549520 
# 
# From -- ./inp_files/41366.got.cif
#   From: 2010.05.17/outbox.cif.g08.bks.cpg/sg65_21_cif.got.tgz:41366.got - 2010.06.03 17:01:31.
