data_PCOD9483033
_publ_section_title
;
Structure prediction by ZEFSAII (Michael W. Deem and Ramdas Pophale) SiO2 
 PCOD9483033
Probable space group: C M M M
;
_chemical_formula_sum "Si O2"
_cell_formula_units_Z 80
_cell_length_a 7.677811
_cell_length_b 24.519372
_cell_length_c 21.080661
_cell_angle_alpha 90.000000
_cell_angle_beta 90.000000
_cell_angle_gamma 90.000000
_cell_volume 3968.542030
_symmetry_space_group_name_H-M "C M M M"
_symmetry_group_IT_number 65
_symmetry_cell_setting 'orthorhombic'
loop_
_space_group_symop_operation_xyz
x,y,z
-x,-y,z
x,-y,-z
-x,y,-z
-x,-y,-z
x,y,-z
-x,y,z
x,-y,z
1/2+x,1/2+y,z
1/2-x,1/2-y,z
1/2+x,1/2-y,-z
1/2-x,1/2+y,-z
1/2-x,1/2-y,-z
1/2+x,1/2+y,-z
1/2-x,1/2+y,z
1/2+x,1/2-y,z
loop_
_atom_site_type_symbol
_atom_site_label
_atom_site_fract_x
_atom_site_fract_y
_atom_site_fract_z
Si Si1 0.789494 0.617107 0.311138
Si Si2 0.209048 0.686572 0.809387
Si Si3 0.709459 0.812312 0.571807
Si Si4 0.299301 0.000000 0.883540
Si Si5 0.701580 0.500000 0.260701
Si Si6 0.786360 0.617447 0.928493
O O1 0.725888 0.652289 0.250949
O O2 0.725891 0.645084 0.375910
O O3 0.742241 0.554495 0.299695
O O4 0.000000 0.620093 0.311735
O O5 0.250000 0.750000 0.804282
O O6 0.272689 0.659607 0.874751
O O7 0.000000 0.681032 0.809192
O O8 0.776353 0.820580 0.500000
O O9 0.500000 0.817002 0.569423
O O10 0.750000 0.750000 0.590849
O O11 0.225072 0.056736 0.909209
O O12 0.500000 0.000000 0.905098
O O13 0.297570 0.000000 0.807109
O O14 0.500000 0.500000 0.243733
O O15 0.000000 0.617197 0.927204
O O16 0.733111 0.630844 0.000000
#
# Coordination Sequence:
#
# PCOD9483033 Si02
#       6
#    16  16  16   8   8  16
#     4  10  20  37  57  77 105 142 180 215 257 313
#     4  10  20  33  51  75 103 137 175 215 258 307
#     4   9  18  33  56  85 114 144 178 216 259 307
#     4  10  17  34  58  77 101 133 174 219 266 316
#     4  12  24  35  54  82 108 134 172 222 273 315
#     4   9  17  30  52  79 102 131 175 218 257 310
#
# _framework density 20.158536000000002
#
# number of rings (size 3 to 8) (size 9 to 14) (size 15 to 20)
#    0.000    2.200    2.000    1.800    0.000    3.200 
#    0.000    0.500    0.000    5.400    0.000    0.000 
#    0.000    0.000    0.000    0.000    0.000    0.000 
#
# Total GULP energy -223366.812478 kJ/mol
# GULP energy per Si atom -5584.170312 kJ/mol
# Density = 2.011265 g / cm^3
# Si number density = 20.158536 Si / 1000 Ang^3
#
#
#
# Elastic Constant Matrix: (Units=GPa)
#
#
# Indices 1 2 3 4 5 6 
#
# 1 35.6460 -3.1940 4.7420 0.0000 0.0000 0.0000
# 2 -3.1940 180.0129 103.7619 0.0000 0.0000 0.0000
# 3 4.7420 103.7619 143.4928 0.0000 0.0000 0.0000
# 4 0.0000 0.0000 0.0000 34.5346 0.0000 0.0000
# 5 0.0000 0.0000 0.0000 0.0000 -1.9180 0.0000
# 6 0.0000 0.0000 0.0000 0.0000 0.0000 22.7667
#
#
#
# Elastic Compliance Matrix: (Units=1/GPa)
#
#
# Indices 1 2 3 4 5 6 
#
# 1 0.028513 0.001799 -0.002243 0.000000 0.000000 0.000000
# 2 0.001799 0.009639 -0.007030 0.000000 0.000000 0.000000
# 3 -0.002243 -0.007030 0.012126 0.000000 0.000000 0.000000
# 4 0.000000 0.000000 0.000000 0.028956 0.000000 0.000000
# 5 0.000000 0.000000 0.000000 0.000000 -0.521384 0.000000
# 6 0.000000 0.000000 0.000000 0.000000 0.000000 0.043924
#
#
# Mechanical properties :
#
#
# Convention : Reuss Voigt Hill
#
# Bulk Modulus (GPa) = 28.30377 63.30797 45.80587
# Shear Modulus (GPa) = -13.45892 27.99945 7.27027
#
# Velocity S-wave (km/s) = -2.58670 3.73092 1.90115
# Velocity P-wave (km/s) = 2.26929 7.07340 5.25274
#
# Compressibility (1/GPa) = 0.03533098
#
# Stress axis : x y z
#
# Youngs Moduli (GPa) = 35.07144 103.74498 82.46522
#
# Poissons Ratio (x) = -0.18662 0.18497
# Poissons Ratio (y) = -0.06309 0.57970
# Poissons Ratio (z) = 0.07867 0.72928
#
# Static dielectric constant tensor:
#      x y z
#    x 1.757340 0.000000 0.000000 
#    y 0.000000 1.671490 0.000000 
#    z 0.000000 0.000000 1.713080 
# 
# From -- ./inp_files/59650.got.cif
#   From: 2010.05.17/outbox.cif.g08.bks.cpg/sg65_30_cif.got.tgz:59650.got - 2010.06.03 17:01:31.
