data_PCOD9483375
_publ_section_title
;
Structure prediction by ZEFSAII (Michael W. Deem and Ramdas Pophale) SiO2 
 PCOD9483375
Probable space group: C M M M
;
_chemical_formula_sum "Si O2"
_cell_formula_units_Z 96
_cell_length_a 20.831890
_cell_length_b 30.540236
_cell_length_c 7.574449
_cell_angle_alpha 90.000000
_cell_angle_beta 90.000000
_cell_angle_gamma 90.000000
_cell_volume 4818.946538
_symmetry_space_group_name_H-M "C M M M"
_symmetry_group_IT_number 65
_symmetry_cell_setting 'orthorhombic'
loop_
_space_group_symop_operation_xyz
x,y,z
-x,-y,z
x,-y,-z
-x,y,-z
-x,-y,-z
x,y,-z
-x,y,z
x,-y,z
1/2+x,1/2+y,z
1/2-x,1/2-y,z
1/2+x,1/2-y,-z
1/2-x,1/2+y,-z
1/2-x,1/2-y,-z
1/2+x,1/2+y,-z
1/2-x,1/2+y,z
1/2+x,1/2-y,z
loop_
_atom_site_type_symbol
_atom_site_label
_atom_site_fract_x
_atom_site_fract_y
_atom_site_fract_z
Si Si1 0.290665 0.950477 0.292423
Si Si2 0.571004 0.236066 0.785256
Si Si3 0.295669 0.628422 0.207343
Si Si4 0.570480 0.661036 0.785014
Si Si5 0.568895 0.948861 0.212340
Si Si6 0.208457 0.707182 0.215955
O O1 0.281282 0.953727 0.500000
O O2 0.235979 0.918826 0.222779
O O3 0.362034 0.930621 0.264202
O O4 0.289654 0.000000 0.217053
O O5 0.500000 0.221459 0.725256
O O6 0.578398 0.287548 0.740756
O O7 0.634809 0.211390 0.723843
O O8 0.570410 0.233725 0.000000
O O9 0.367374 0.634854 0.279298
O O10 0.246203 0.664496 0.280064
O O11 0.300948 0.638731 0.000000
O O12 0.500000 0.646632 0.722572
O O13 0.568752 0.658883 0.000000
O O14 0.500000 0.930059 0.272826
O O15 0.569752 0.000000 0.270085
O O16 0.567848 0.948437 0.000000
O O17 0.250000 0.750000 0.263794
O O18 0.206256 0.706393 0.000000
#
# Coordination Sequence:
#
# PCOD9483375 Si02
#       6
#    16  16  16  16  16  16
#     4  10  21  35  49  66  92 127 165 202 239 285
#     4   8  12  19  33  56  90 126 152 178 218 271
#     4  10  18  28  47  72  95 122 156 198 244 285
#     4   8  13  22  39  66  95 119 149 191 236 281
#     4   8  14  27  49  74  95 115 146 192 240 281
#     4   9  14  22  37  62  93 120 147 183 230 283
#
# _framework density 19.921367
#
# number of rings (size 3 to 8) (size 9 to 14) (size 15 to 20)
#    0.000    3.167    1.667    2.000    0.000    1.333 
#    0.000    2.500    0.000    4.500    0.000    3.500 
#    0.000    0.000    0.000    0.000    0.000    0.000 
#
# Total GULP energy -267418.610385 kJ/mol
# GULP energy per Si atom -5571.221050 kJ/mol
# Density = 1.987603 g / cm^3
# Si number density = 19.921367 Si / 1000 Ang^3
#
#
#
# Elastic Constant Matrix: (Units=GPa)
#
#
# Indices 1 2 3 4 5 6 
#
# 1 235.7505 69.4165 8.2246 0.0000 0.0000 0.0000
# 2 69.4165 55.9627 -2.1415 0.0000 0.0000 0.0000
# 3 8.2246 -2.1415 37.5699 0.0000 0.0000 0.0000
# 4 0.0000 0.0000 0.0000 1281.0248 0.0000 0.0000
# 5 0.0000 0.0000 0.0000 0.0000 -72.2846 0.0000
# 6 0.0000 0.0000 0.0000 0.0000 0.0000 26.2591
#
#
#
# Elastic Compliance Matrix: (Units=1/GPa)
#
#
# Indices 1 2 3 4 5 6 
#
# 1 0.006827 -0.008543 -0.001981 0.000000 0.000000 0.000000
# 2 -0.008543 0.028600 0.003501 0.000000 0.000000 0.000000
# 3 -0.001981 0.003501 0.027250 0.000000 0.000000 0.000000
# 4 0.000000 0.000000 0.000000 0.000781 0.000000 0.000000
# 5 0.000000 0.000000 0.000000 0.000000 -0.013834 0.000000
# 6 0.000000 0.000000 0.000000 0.000000 0.000000 0.038082
#
#
# Mechanical properties :
#
#
# Convention : Reuss Voigt Hill
#
# Bulk Modulus (GPa) = 20.56406 53.36468 36.96437
# Shear Modulus (GPa) = 42.38587 263.91877 153.15232
#
# Velocity S-wave (km/s) = 4.61766 11.52249 8.77755
# Velocity P-wave (km/s) = 6.22699 14.27829 11.01465
#
# Compressibility (1/GPa) = 0.04862854
#
# Stress axis : x y z
#
# Youngs Moduli (GPa) = 146.48770 34.96459 36.69680
#
# Poissons Ratio (x) = 0.29872 0.07271
# Poissons Ratio (y) = 1.25151 -0.12846
# Poissons Ratio (z) = 0.29025 -0.12239
#
# Static dielectric constant tensor:
#      x y z
#    x 1.750970 0.000000 0.000000 
#    y 0.000000 1.693410 0.000000 
#    z 0.000000 0.000000 1.748490 
# 
# From -- ./inp_files/12288.got.cif
#   From: 2010.05.17/outbox.cif.g08.bks.cpg/sg65_7_cif.got.tgz:12288.got - 2010.06.03 17:01:31.
