data_PCOD9483470
_publ_section_title
;
Structure prediction by ZEFSAII (Michael W. Deem and Ramdas Pophale) SiO2 
 PCOD9483470
Probable space group: C M M M
;
_chemical_formula_sum "Si O2"
_cell_formula_units_Z 88
_cell_length_a 8.470650
_cell_length_b 28.167638
_cell_length_c 22.287253
_cell_angle_alpha 90.000000
_cell_angle_beta 90.000000
_cell_angle_gamma 90.000000
_cell_volume 5317.698512
_symmetry_space_group_name_H-M "C M M M"
_symmetry_group_IT_number 65
_symmetry_cell_setting 'orthorhombic'
loop_
_space_group_symop_operation_xyz
x,y,z
-x,-y,z
x,-y,-z
-x,y,-z
-x,-y,-z
x,y,-z
-x,y,z
x,-y,z
1/2+x,1/2+y,z
1/2-x,1/2-y,z
1/2+x,1/2-y,-z
1/2-x,1/2+y,-z
1/2-x,1/2-y,-z
1/2+x,1/2+y,-z
1/2-x,1/2+y,z
1/2+x,1/2-y,z
loop_
_atom_site_type_symbol
_atom_site_label
_atom_site_fract_x
_atom_site_fract_y
_atom_site_fract_z
Si Si1 0.189405 0.350942 0.251151
Si Si2 0.189825 0.195710 0.868754
Si Si3 0.309886 0.304067 0.000000
Si Si4 0.807628 0.552965 0.313212
Si Si5 0.190677 0.604706 0.433010
Si Si6 0.187677 0.197824 0.630054
O O1 0.244698 0.334443 0.186219
O O2 0.239935 0.404469 0.268886
O O3 0.257690 0.316814 0.302907
O O4 0.000000 0.348507 0.254813
O O5 0.250000 0.250000 0.863313
O O6 0.000000 0.196359 0.865970
O O7 0.239918 0.176561 0.934864
O O8 0.250000 0.250000 0.000000
O O9 0.500000 0.304029 0.000000
O O10 0.752201 0.500000 0.298752
O O11 0.757863 0.569202 0.380074
O O12 0.000000 0.552189 0.312872
O O13 0.245906 0.592958 0.500000
O O14 0.244438 0.657090 0.413243
O O15 0.000000 0.604088 0.433072
O O16 0.250000 0.250000 0.615294
O O17 0.000000 0.197272 0.627288
#
# Coordination Sequence:
#
# PCOD9483470 Si02
#       6
#    16  16   8  16  16  16
#     4  10  19  31  47  69  94 119 151 189 228 270
#     4  10  18  29  45  67  96 128 159 188 221 261
#     4   8  16  28  42  62  91 126 159 189 218 255
#     4   8  15  29  49  71  92 114 144 185 230 273
#     4   9  18  32  49  70  94 117 145 182 224 273
#     4  11  21  33  48  65  89 121 155 189 224 264
#
# _framework density 16.548511000000001
#
# number of rings (size 3 to 8) (size 9 to 14) (size 15 to 20)
#    0.000    2.545    0.000    4.364    0.000    1.818 
#    0.000    1.818    0.000   13.636    0.000    5.727 
#    0.000    5.091    0.000    0.000    0.000    0.000 
#
# Total GULP energy -245248.180426 kJ/mol
# GULP energy per Si atom -5573.822282 kJ/mol
# Density = 1.651085 g / cm^3
# Si number density = 16.548511 Si / 1000 Ang^3
#
#
#
# Elastic Constant Matrix: (Units=GPa)
#
#
# Indices 1 2 3 4 5 6 
#
# 1 16.2655 0.3484 6.5711 0.0000 0.0000 0.0000
# 2 0.3484 76.4865 26.8125 0.0000 0.0000 0.0000
# 3 6.5711 26.8125 114.9317 0.0000 0.0000 0.0000
# 4 0.0000 0.0000 0.0000 8.0797 0.0000 0.0000
# 5 0.0000 0.0000 0.0000 0.0000 18.8632 0.0000
# 6 0.0000 0.0000 0.0000 0.0000 0.0000 13.9242
#
#
#
# Elastic Compliance Matrix: (Units=1/GPa)
#
#
# Indices 1 2 3 4 5 6 
#
# 1 0.063013 0.001063 -0.003851 0.000000 0.000000 0.000000
# 2 0.001063 0.014257 -0.003387 0.000000 0.000000 0.000000
# 3 -0.003851 -0.003387 0.009711 0.000000 0.000000 0.000000
# 4 0.000000 0.000000 0.000000 0.123767 0.000000 0.000000
# 5 0.000000 0.000000 0.000000 0.000000 0.053013 0.000000
# 6 0.000000 0.000000 0.000000 0.000000 0.000000 0.071817
#
#
# Mechanical properties :
#
#
# Convention : Reuss Voigt Hill
#
# Bulk Modulus (GPa) = 13.39921 30.57198 21.98559
# Shear Modulus (GPa) = 13.41188 19.77019 16.59103
#
# Velocity S-wave (km/s) = 2.84994 3.46017 3.16977
# Velocity P-wave (km/s) = 4.35248 5.87179 5.16827
#
# Compressibility (1/GPa) = 0.07463129
#
# Stress axis : x y z
#
# Youngs Moduli (GPa) = 15.86980 70.14304 102.97532
#
# Poissons Ratio (x) = -0.07455 0.39652
# Poissons Ratio (y) = -0.01687 0.34875
# Poissons Ratio (z) = 0.06111 0.23755
#
# Static dielectric constant tensor:
#      x y z
#    x 1.569100 0.000000 0.000000 
#    y 0.000000 1.536150 0.000000 
#    z 0.000000 0.000000 1.578700 
# 
# From -- ./inp_files/60306.got.cif
#   From: 2010.05.17/outbox.cif.g08.bks.cpg/sg65_31_cif.got.tgz:60306.got - 2010.06.03 17:01:31.
