data_PCOD9483800
_publ_section_title
;
Structure prediction by ZEFSAII (Michael W. Deem and Ramdas Pophale) SiO2 
 PCOD9483800
Probable space group: C M M M
;
_chemical_formula_sum "Si O2"
_cell_formula_units_Z 72
_cell_length_a 22.196735
_cell_length_b 21.058979
_cell_length_c 7.554715
_cell_angle_alpha 90.000000
_cell_angle_beta 90.000000
_cell_angle_gamma 90.000000
_cell_volume 3531.380333
_symmetry_space_group_name_H-M "C M M M"
_symmetry_group_IT_number 65
_symmetry_cell_setting 'orthorhombic'
loop_
_space_group_symop_operation_xyz
x,y,z
-x,-y,z
x,-y,-z
-x,y,-z
-x,-y,-z
x,y,-z
-x,y,z
x,-y,z
1/2+x,1/2+y,z
1/2-x,1/2-y,z
1/2+x,1/2-y,-z
1/2-x,1/2+y,-z
1/2-x,1/2-y,-z
1/2+x,1/2+y,-z
1/2-x,1/2+y,z
1/2+x,1/2-y,z
loop_
_atom_site_type_symbol
_atom_site_label
_atom_site_fract_x
_atom_site_fract_y
_atom_site_fract_z
Si Si1 0.648037 0.500000 0.211125
Si Si2 0.569336 0.239240 0.787298
Si Si3 0.711081 0.000000 0.713424
Si Si4 0.068774 0.116460 0.215965
Si Si5 0.627374 0.885452 0.288954
Si Si6 0.500000 0.075116 0.295089
O O1 0.719007 0.500000 0.240819
O O2 0.615199 0.563424 0.279371
O O3 0.638256 0.500000 0.000000
O O4 0.500000 0.222305 0.728144
O O5 0.581073 0.311273 0.726231
O O6 0.622243 0.190280 0.736090
O O7 0.567207 0.239747 0.000000
O O8 0.677403 0.064726 0.777058
O O9 0.707706 0.000000 0.500000
O O10 0.000000 0.100090 0.265239
O O11 0.070491 0.117491 0.000000
O O12 0.626244 0.896156 0.500000
O O13 0.562503 0.904866 0.210930
O O14 0.500000 0.097788 0.500000
O O15 0.500000 0.000000 0.301982
#
# Coordination Sequence:
#
# PCOD9483800 Si02
#       6
#     8  16   8  16  16   8
#     4  10  19  34  57  77  93 124 169 208 239 285
#     4   9  17  29  47  75 107 128 147 194 258 299
#     4  10  22  36  49  68  99 137 170 204 245 280
#     4   8  15  30  54  81 102 121 153 199 250 299
#     4  10  18  30  49  70  95 131 171 203 234 283
#     4   9  14  24  45  69  89 116 163 210 236 269
#
# _framework density 20.388628000000001
#
# number of rings (size 3 to 8) (size 9 to 14) (size 15 to 20)
#    0.000    2.778    2.222    1.667    0.000    2.222 
#    0.000    2.222    0.000   11.333    0.000    0.000 
#    0.000    0.000    0.000    0.000    0.000    0.000 
#
# Total GULP energy -200504.058250 kJ/mol
# GULP energy per Si atom -5569.557174 kJ/mol
# Density = 2.034222 g / cm^3
# Si number density = 20.388628 Si / 1000 Ang^3
#
#
#
# Elastic Constant Matrix: (Units=GPa)
#
#
# Indices 1 2 3 4 5 6 
#
# 1 137.3430 109.1559 -1.7544 0.0000 0.0000 0.0000
# 2 109.1559 173.7738 5.3370 0.0000 0.0000 0.0000
# 3 -1.7544 5.3370 48.9247 0.0000 0.0000 0.0000
# 4 0.0000 0.0000 0.0000 15.0570 0.0000 0.0000
# 5 0.0000 0.0000 0.0000 0.0000 7.6632 0.0000
# 6 0.0000 0.0000 0.0000 0.0000 0.0000 3.5114
#
#
#
# Elastic Compliance Matrix: (Units=1/GPa)
#
#
# Indices 1 2 3 4 5 6 
#
# 1 0.014654 -0.009252 0.001535 0.000000 0.000000 0.000000
# 2 -0.009252 0.011615 -0.001599 0.000000 0.000000 0.000000
# 3 0.001535 -0.001599 0.020669 0.000000 0.000000 0.000000
# 4 0.000000 0.000000 0.000000 0.066414 0.000000 0.000000
# 5 0.000000 0.000000 0.000000 0.000000 0.130494 0.000000
# 6 0.000000 0.000000 0.000000 0.000000 0.000000 0.284783
#
#
# Mechanical properties :
#
#
# Convention : Reuss Voigt Hill
#
# Bulk Modulus (GPa) = 35.32812 65.05761 50.19287
# Shear Modulus (GPa) = 8.98154 21.73319 15.35737
#
# Velocity S-wave (km/s) = 2.10113 3.26843 2.74748
# Velocity P-wave (km/s) = 4.82196 6.79864 5.89376
#
# Compressibility (1/GPa) = 0.02830606
#
# Stress axis : x y z
#
# Youngs Moduli (GPa) = 68.24199 86.09360 48.38161
#
# Poissons Ratio (x) = 0.79653 -0.07425
# Poissons Ratio (y) = 0.63137 0.07735
# Poissons Ratio (z) = -0.10473 0.13765
#
# Static dielectric constant tensor:
#      x y z
#    x 1.698330 0.000000 0.000000 
#    y 0.000000 1.799690 0.000000 
#    z 0.000000 0.000000 1.780670 
# 
# From -- ./inp_files/11312.got.cif
#   From: 2010.05.17/outbox.cif.g08.bks.cpg/sg65_6_cif.got.tgz:11312.got - 2010.06.03 17:01:31.
