data_PCOD9483937
_publ_section_title
;
Structure prediction by ZEFSAII (Michael W. Deem and Ramdas Pophale) SiO2 
 PCOD9483937
Probable space group: C M M M
;
_chemical_formula_sum "Si O2"
_cell_formula_units_Z 96
_cell_length_a 28.174275
_cell_length_b 7.874480
_cell_length_c 20.674472
_cell_angle_alpha 90.000000
_cell_angle_beta 90.000000
_cell_angle_gamma 90.000000
_cell_volume 4586.792151
_symmetry_space_group_name_H-M "C M M M"
_symmetry_group_IT_number 65
_symmetry_cell_setting 'orthorhombic'
loop_
_space_group_symop_operation_xyz
x,y,z
-x,-y,z
x,-y,-z
-x,y,-z
-x,-y,-z
x,y,-z
-x,y,z
x,-y,z
1/2+x,1/2+y,z
1/2-x,1/2-y,z
1/2+x,1/2-y,-z
1/2-x,1/2+y,-z
1/2-x,1/2-y,-z
1/2+x,1/2+y,-z
1/2-x,1/2+y,z
1/2+x,1/2-y,z
loop_
_atom_site_type_symbol
_atom_site_label
_atom_site_fract_x
_atom_site_fract_y
_atom_site_fract_z
Si Si1 0.905810 0.696239 0.429635
Si Si2 0.801162 0.807117 0.742758
Si Si3 0.119191 0.310875 0.822992
Si Si4 0.302321 0.306219 0.411471
Si Si5 0.804588 0.704834 0.925539
Si Si6 0.555613 0.206843 0.290688
O O1 0.921621 0.769768 0.500000
O O2 0.921739 0.500000 0.429172
O O3 0.848565 0.702485 0.430566
O O4 0.921935 0.768508 0.359433
O O5 0.750000 0.750000 0.765647
O O6 0.839727 0.681007 0.769261
O O7 0.801084 0.801321 0.665984
O O8 0.811562 0.000000 0.763077
O O9 0.103295 0.500000 0.843468
O O10 0.150875 0.233085 0.881628
O O11 0.078413 0.229550 0.777425
O O12 0.310413 0.500000 0.430670
O O13 0.250000 0.250000 0.432454
O O14 0.806932 0.500000 0.922440
O O15 0.750000 0.750000 0.907185
O O16 0.810487 0.760148 0.000000
O O17 0.500000 0.243907 0.292359
O O18 0.561874 0.000000 0.289059
#
# Coordination Sequence:
#
# PCOD9483937 Si02
#       6
#    16  16  16  16  16  16
#     4  10  20  34  53  75  99 128 164 207 253 302
#     4  10  19  29  45  71 100 128 161 200 240 287
#     4  10  18  30  51  73  98 133 167 204 248 292
#     4  10  20  33  50  71  99 133 165 200 243 295
#     4   9  18  31  47  72 106 140 170 199 235 284
#     4   9  18  33  53  76  99 124 162 212 260 303
#
# _framework density 20.929659000000001
#
# number of rings (size 3 to 8) (size 9 to 14) (size 15 to 20)
#    0.000    2.333    1.667    1.500    0.000    4.333 
#    0.000    1.667    0.000    2.500    0.000    4.667 
#    0.000    0.000    0.000    5.667    0.000    6.000 
#
# Total GULP energy -267216.294505 kJ/mol
# GULP energy per Si atom -5567.006136 kJ/mol
# Density = 2.088202 g / cm^3
# Si number density = 20.929659 Si / 1000 Ang^3
#
#
#
# Elastic Constant Matrix: (Units=GPa)
#
#
# Indices 1 2 3 4 5 6 
#
# 1 111.6996 -6.5263 54.6887 0.0000 0.0000 0.0000
# 2 -6.5263 38.3392 7.1836 0.0000 0.0000 0.0000
# 3 54.6887 7.1836 175.7448 0.0000 0.0000 0.0000
# 4 0.0000 0.0000 0.0000 35.7684 0.0000 0.0000
# 5 0.0000 0.0000 0.0000 0.0000 18.6119 0.0000
# 6 0.0000 0.0000 0.0000 0.0000 0.0000 13.0324
#
#
#
# Elastic Compliance Matrix: (Units=1/GPa)
#
#
# Indices 1 2 3 4 5 6 
#
# 1 0.010792 0.002485 -0.003460 0.000000 0.000000 0.000000
# 2 0.002485 0.026857 -0.001871 0.000000 0.000000 0.000000
# 3 -0.003460 -0.001871 0.006843 0.000000 0.000000 0.000000
# 4 0.000000 0.000000 0.000000 0.027958 0.000000 0.000000
# 5 0.000000 0.000000 0.000000 0.000000 0.053729 0.000000
# 6 0.000000 0.000000 0.000000 0.000000 0.000000 0.076732
#
#
# Mechanical properties :
#
#
# Convention : Reuss Voigt Hill
#
# Bulk Modulus (GPa) = 25.77303 48.49726 37.13515
# Shear Modulus (GPa) = 22.56980 31.51170 27.04075
#
# Velocity S-wave (km/s) = 3.28741 3.88442 3.59831
# Velocity P-wave (km/s) = 5.17206 6.58332 5.91990
#
# Compressibility (1/GPa) = 0.03880025
#
# Stress axis : x y z
#
# Youngs Moduli (GPa) = 92.66361 37.23476 146.13098
#
# Poissons Ratio (x) = -0.09254 0.50558
# Poissons Ratio (y) = -0.23030 0.27343
# Poissons Ratio (z) = 0.32060 0.06967
#
# Static dielectric constant tensor:
#      x y z
#    x 1.742160 0.000000 0.000000 
#    y 0.000000 1.769230 0.000000 
#    z 0.000000 0.000000 1.834760 
# 
# From -- ./inp_files/60177.got.cif
#   From: 2010.05.17/outbox.cif.g08.bks.cpg/sg65_31_cif.got.tgz:60177.got - 2010.06.03 17:01:31.
