data_PCOD9483990
_publ_section_title
;
Structure prediction by ZEFSAII (Michael W. Deem and Ramdas Pophale) SiO2 
 PCOD9483990
Probable space group: C M M M
;
_chemical_formula_sum "Si O2"
_cell_formula_units_Z 80
_cell_length_a 27.073561
_cell_length_b 8.942963
_cell_length_c 18.332170
_cell_angle_alpha 90.000000
_cell_angle_beta 90.000000
_cell_angle_gamma 90.000000
_cell_volume 4438.545665
_symmetry_space_group_name_H-M "C M M M"
_symmetry_group_IT_number 65
_symmetry_cell_setting 'orthorhombic'
loop_
_space_group_symop_operation_xyz
x,y,z
-x,-y,z
x,-y,-z
-x,y,-z
-x,-y,-z
x,y,-z
-x,y,z
x,-y,z
1/2+x,1/2+y,z
1/2-x,1/2-y,z
1/2+x,1/2-y,-z
1/2-x,1/2+y,-z
1/2-x,1/2-y,-z
1/2+x,1/2+y,-z
1/2-x,1/2+y,z
1/2+x,1/2-y,z
loop_
_atom_site_type_symbol
_atom_site_label
_atom_site_fract_x
_atom_site_fract_y
_atom_site_fract_z
Si Si1 0.907257 0.818941 0.836156
Si Si2 0.096333 0.319774 0.324686
Si Si3 0.000000 0.318337 0.416953
Si Si4 0.299620 0.328277 0.153389
Si Si5 0.000000 0.673131 0.913002
Si Si6 0.199065 0.826320 0.668690
O O1 0.911560 0.752129 0.754916
O O2 0.853724 0.769474 0.867414
O O3 0.951994 0.756767 0.882875
O O4 0.907510 0.000000 0.832346
O O5 0.098126 0.500000 0.318886
O O6 0.049914 0.275358 0.374693
O O7 0.149110 0.259395 0.353049
O O8 0.000000 0.500000 0.418318
O O9 0.000000 0.264361 0.500000
O O10 0.296913 0.500000 0.131401
O O11 0.250000 0.250000 0.127405
O O12 0.299842 0.321984 0.242292
O O13 0.000000 0.500000 0.887925
O O14 0.000000 0.675287 0.000000
O O15 0.250000 0.750000 0.643598
O O16 0.197057 0.000000 0.647424
#
# Coordination Sequence:
#
# PCOD9483990 Si02
#       6
#    16  16   8  16   8  16
#     4  10  20  34  53  77 105 135 168 206 249 302
#     4  10  18  30  52  78 103 133 169 210 254 299
#     4   9  19  34  50  70  98 133 172 211 254 306
#     4   8  15  26  43  70 100 129 158 193 238 286
#     4  11  24  39  54  74 100 131 170 215 260 304
#     4   9  16  27  44  70 103 133 164 204 251 301
#
# _framework density 18.023923
#
# number of rings (size 3 to 8) (size 9 to 14) (size 15 to 20)
#    0.000    2.600    0.000    3.900    0.000    7.200 
#    0.000    1.500    0.000    6.000    0.000    0.000 
#    0.000    0.000    0.000    0.000    0.000    0.000 
#
# Total GULP energy -222969.066018 kJ/mol
# GULP energy per Si atom -5574.226650 kJ/mol
# Density = 1.798290 g / cm^3
# Si number density = 18.023923 Si / 1000 Ang^3
#
#
#
# Elastic Constant Matrix: (Units=GPa)
#
#
# Indices 1 2 3 4 5 6 
#
# 1 215.5763 73.3394 51.6304 0.0000 0.0000 0.0000
# 2 73.3394 88.2943 24.8112 0.0000 0.0000 0.0000
# 3 51.6304 24.8112 31.8543 0.0000 0.0000 0.0000
# 4 0.0000 0.0000 0.0000 4.8652 0.0000 0.0000
# 5 0.0000 0.0000 0.0000 0.0000 -7.8138 0.0000
# 6 0.0000 0.0000 0.0000 0.0000 0.0000 33.2301
#
#
#
# Elastic Compliance Matrix: (Units=1/GPa)
#
#
# Indices 1 2 3 4 5 6 
#
# 1 0.008622 -0.004141 -0.010749 0.000000 0.000000 0.000000
# 2 -0.004141 0.016488 -0.006131 0.000000 0.000000 0.000000
# 3 -0.010749 -0.006131 0.053591 0.000000 0.000000 0.000000
# 4 0.000000 0.000000 0.000000 0.205541 0.000000 0.000000
# 5 0.000000 0.000000 0.000000 0.000000 -0.127979 0.000000
# 6 0.000000 0.000000 0.000000 0.000000 0.000000 0.030093
#
#
# Mechanical properties :
#
#
# Convention : Reuss Voigt Hill
#
# Bulk Modulus (GPa) = 27.27845 70.58741 48.93293
# Shear Modulus (GPa) = 20.77978 18.45256 19.61617
#
# Velocity S-wave (km/s) = 3.39912 3.20313 3.30258
# Velocity P-wave (km/s) = 5.52927 7.27518 6.46146
#
# Compressibility (1/GPa) = 0.03665897
#
# Stress axis : x y z
#
# Youngs Moduli (GPa) = 115.98305 60.64969 18.65989
#
# Poissons Ratio (x) = 0.25115 0.20058
# Poissons Ratio (y) = 0.48028 0.11440
# Poissons Ratio (z) = 1.24674 0.37182
#
# Static dielectric constant tensor:
#      x y z
#    x 1.636940 0.000000 0.000000 
#    y 0.000000 1.610160 0.000000 
#    z 0.000000 0.000000 1.589010 
# 
# From -- ./inp_files/57328.got.cif
#   From: 2010.05.17/outbox.cif.g08.bks.cpg/sg65_29_cif.got.tgz:57328.got - 2010.06.03 17:01:31.
