data_PCOD9483373
_publ_section_title
;
Structure prediction by ZEFSAII (Michael W. Deem and Ramdas Pophale) SiO2 
 PCOD9483373
Probable space group: C M M M
;
_chemical_formula_sum "Si O2"
_cell_formula_units_Z 112
_cell_length_a 24.426562
_cell_length_b 27.490681
_cell_length_c 7.429096
_cell_angle_alpha 90.000000
_cell_angle_beta 90.000000
_cell_angle_gamma 90.000000
_cell_volume 4988.658943
_symmetry_space_group_name_H-M "C M M M"
_symmetry_group_IT_number 65
_symmetry_cell_setting 'orthorhombic'
loop_
_space_group_symop_operation_xyz
x,y,z
-x,-y,z
x,-y,-z
-x,y,-z
-x,-y,-z
x,y,-z
-x,y,z
x,-y,z
1/2+x,1/2+y,z
1/2-x,1/2-y,z
1/2+x,1/2-y,-z
1/2-x,1/2+y,-z
1/2-x,1/2-y,-z
1/2+x,1/2+y,-z
1/2-x,1/2+y,z
1/2+x,1/2-y,z
loop_
_atom_site_type_symbol
_atom_site_label
_atom_site_fract_x
_atom_site_fract_y
_atom_site_fract_z
Si Si1 0.752182 0.193174 0.780866
Si Si2 0.870608 0.842040 0.214848
Si Si3 0.867123 0.343356 0.220249
Si Si4 0.437701 0.750422 0.219980
Si Si5 0.736300 0.057484 0.702688
Si Si6 0.646424 0.554752 0.284505
Si Si7 0.613625 0.054349 0.202510
O O1 0.750000 0.250000 0.728939
O O2 0.809474 0.170814 0.715581
O O3 0.696652 0.164892 0.727106
O O4 0.752208 0.192155 0.000000
O O5 0.911514 0.800406 0.280006
O O6 0.889022 0.897396 0.251088
O O7 0.867688 0.836993 0.000000
O O8 0.899935 0.295483 0.275114
O O9 0.897783 0.392718 0.285413
O O10 0.867861 0.345716 0.000000
O O11 0.500000 0.756044 0.278273
O O12 0.437441 0.750508 0.000000
O O13 0.729532 0.076984 0.500000
O O14 0.793805 0.071018 0.790501
O O15 0.679662 0.060598 0.805713
O O16 0.744681 0.000000 0.683198
O O17 0.652935 0.551580 0.500000
O O18 0.631322 0.500000 0.222048
O O19 0.603454 0.000000 0.282646
O O20 0.591011 0.052835 0.000000
#
# Coordination Sequence:
#
# PCOD9483373 Si02
#       7
#    16  16  16  16  16  16  16
#     4   9  14  22  37  62  93 118 143 179 224 269
#     4  10  18  28  47  72  92 114 150 193 227 259
#     4   9  15  24  39  60  88 121 149 176 219 271
#     4   9  17  29  45  66  90 115 147 187 229 271
#     4   8  14  25  39  56  84 122 154 175 205 257
#     4   9  18  31  45  63  92 127 153 176 217 273
#     4   9  16  24  37  61  90 117 149 189 224 255
#
# _framework density 22.450921999999998
#
# number of rings (size 3 to 8) (size 9 to 14) (size 15 to 20)
#    0.000    3.000    1.429    1.714    0.000    2.000 
#    0.000    1.429    0.000    2.571    0.000    6.000 
#    0.000    0.000    0.000    3.571    0.000    4.429 
#
# Total GULP energy -311930.060219 kJ/mol
# GULP energy per Si atom -5570.179647 kJ/mol
# Density = 2.239982 g / cm^3
# Si number density = 22.450922 Si / 1000 Ang^3
#
#
#
# Elastic Constant Matrix: (Units=GPa)
#
#
# Indices 1 2 3 4 5 6 
#
# 1 51.2596 13.0189 4.2426 0.0000 0.0000 0.0000
# 2 13.0189 149.3713 3.8749 0.0000 0.0000 0.0000
# 3 4.2426 3.8749 74.9842 0.0000 0.0000 0.0000
# 4 0.0000 0.0000 0.0000 27.2035 0.0000 0.0000
# 5 0.0000 0.0000 0.0000 0.0000 -4.1421 0.0000
# 6 0.0000 0.0000 0.0000 0.0000 0.0000 0.1891
#
#
#
# Elastic Compliance Matrix: (Units=1/GPa)
#
#
# Indices 1 2 3 4 5 6 
#
# 1 0.020032 -0.001719 -0.001045 0.000000 0.000000 0.000000
# 2 -0.001719 0.006851 -0.000257 0.000000 0.000000 0.000000
# 3 -0.001045 -0.000257 0.013409 0.000000 0.000000 0.000000
# 4 0.000000 0.000000 0.000000 0.036760 0.000000 0.000000
# 5 0.000000 0.000000 0.000000 0.000000 -0.241421 0.000000
# 6 0.000000 0.000000 0.000000 0.000000 0.000000 5.287350
#
#
# Mechanical properties :
#
#
# Convention : Reuss Voigt Hill
#
# Bulk Modulus (GPa) = 29.19629 35.32089 32.25859
# Shear Modulus (GPa) = 0.97268 21.61534 11.29401
#
# Velocity S-wave (km/s) = 0.65893 3.10624 2.24532
# Velocity P-wave (km/s) = 3.68940 5.35085 4.59583
#
# Compressibility (1/GPa) = 0.03425092
#
# Stress axis : x y z
#
# Youngs Moduli (GPa) = 49.92123 145.95992 74.57943
#
# Poissons Ratio (x) = 0.25088 0.07790
# Poissons Ratio (y) = 0.08581 0.01915
# Poissons Ratio (z) = 0.05215 0.03748
#
# Static dielectric constant tensor:
#      x y z
#    x 1.810150 0.000000 0.000000 
#    y 0.000000 1.911070 0.000000 
#    z 0.000000 0.000000 1.829570 
# 
# From -- ./inp_files/31379.got.cif
#   From: 2010.05.17/outbox.cif.g08.bks.cpg/sg65_16_cif.got.tgz:31379.got - 2010.06.03 17:01:31.
