data_PCOD9483110
_publ_section_title
;
Structure prediction by ZEFSAII (Michael W. Deem and Ramdas Pophale) SiO2 
 PCOD9483110
Probable space group: C M M M
;
_chemical_formula_sum "Si O2"
_cell_formula_units_Z 104
_cell_length_a 7.332624
_cell_length_b 29.479665
_cell_length_c 24.133781
_cell_angle_alpha 90.000000
_cell_angle_beta 90.000000
_cell_angle_gamma 90.000000
_cell_volume 5216.837720
_symmetry_space_group_name_H-M "C M M M"
_symmetry_group_IT_number 65
_symmetry_cell_setting 'orthorhombic'
loop_
_space_group_symop_operation_xyz
x,y,z
-x,-y,z
x,-y,-z
-x,y,-z
-x,-y,-z
x,y,-z
-x,y,z
x,-y,z
1/2+x,1/2+y,z
1/2-x,1/2-y,z
1/2+x,1/2-y,-z
1/2-x,1/2+y,-z
1/2-x,1/2-y,-z
1/2+x,1/2+y,-z
1/2-x,1/2+y,z
1/2+x,1/2-y,z
loop_
_atom_site_type_symbol
_atom_site_label
_atom_site_fract_x
_atom_site_fract_y
_atom_site_fract_z
Si Si1 0.276798 0.646328 0.389267
Si Si2 0.723259 0.356391 0.831087
Si Si3 0.778356 0.949426 0.780307
Si Si4 0.782407 0.196277 0.500000
Si Si5 0.782320 0.197147 0.937757
Si Si6 0.221659 0.050651 0.651672
Si Si7 0.283017 0.303453 0.721998
O O1 0.500000 0.647074 0.389436
O O2 0.214316 0.672138 0.444211
O O3 0.220777 0.593781 0.384117
O O4 0.215580 0.672344 0.333744
O O5 0.500000 0.355662 0.831862
O O6 0.780146 0.407828 0.818312
O O7 0.786227 0.334786 0.888671
O O8 0.783758 0.326115 0.778726
O O9 0.725475 0.941850 0.716041
O O10 0.000000 0.949348 0.780468
O O11 0.719431 0.000000 0.796657
O O12 0.750000 0.250000 0.500000
O O13 0.000000 0.190182 0.500000
O O14 0.750000 0.250000 0.924098
O O15 0.000000 0.191035 0.940074
O O16 0.710980 0.188851 0.000000
O O17 0.000000 0.050252 0.651018
O O18 0.281280 0.000000 0.635080
O O19 0.500000 0.310801 0.722074
O O20 0.250000 0.250000 0.720762
#
# Coordination Sequence:
#
# PCOD9483110 Si02
#       7
#    16  16  16   8  16  16  16
#     4   9  16  27  40  57  81 108 134 164 202 239
#     4   9  15  24  38  57  80 105 133 165 201 237
#     4   8  12  19  34  56  80 105 132 160 194 241
#     4  10  20  32  45  59  81 113 142 166 197 240
#     4   9  17  28  41  57  80 110 139 166 198 237
#     4   8  12  20  36  57  81 106 130 159 199 245
#     4  10  18  27  40  58  81 105 131 166 202 234
#
# _framework density 19.935449999999999
#
# number of rings (size 3 to 8) (size 9 to 14) (size 15 to 20)
#    0.000    3.077    1.538    1.846    0.000    0.000 
#    0.000    0.385    0.000    2.769    0.000    3.231 
#    0.000    6.769    0.000    3.846    0.000    4.000 
#
# Total GULP energy -290172.665338 kJ/mol
# GULP energy per Si atom -5580.243564 kJ/mol
# Density = 1.989008 g / cm^3
# Si number density = 19.935450 Si / 1000 Ang^3
#
#
#
# Elastic Constant Matrix: (Units=GPa)
#
#
# Indices 1 2 3 4 5 6 
#
# 1 77.2773 -1.0951 8.9677 0.0000 0.0000 0.0000
# 2 -1.0951 212.6322 125.7415 0.0000 0.0000 0.0000
# 3 8.9677 125.7415 155.3449 0.0000 0.0000 0.0000
# 4 0.0000 0.0000 0.0000 93.3386 0.0000 0.0000
# 5 0.0000 0.0000 0.0000 0.0000 -12.3442 0.0000
# 6 0.0000 0.0000 0.0000 0.0000 0.0000 9.9649
#
#
#
# Elastic Compliance Matrix: (Units=1/GPa)
#
#
# Indices 1 2 3 4 5 6 
#
# 1 0.013135 0.000990 -0.001560 0.000000 0.000000 0.000000
# 2 0.000990 0.009096 -0.007419 0.000000 0.000000 0.000000
# 3 -0.001560 -0.007419 0.012533 0.000000 0.000000 0.000000
# 4 0.000000 0.000000 0.000000 0.010714 0.000000 0.000000
# 5 0.000000 0.000000 0.000000 0.000000 -0.081010 0.000000
# 6 0.000000 0.000000 0.000000 0.000000 0.000000 0.100352
#
#
# Mechanical properties :
#
#
# Convention : Reuss Voigt Hill
#
# Bulk Modulus (GPa) = 53.23191 79.16473 66.19832
# Shear Modulus (GPa) = 57.43194 38.96790 48.19992
#
# Velocity S-wave (km/s) = 5.37322 4.42600 4.92245
# Velocity P-wave (km/s) = 8.07808 8.11887 8.09850
#
# Compressibility (1/GPa) = 0.01878572
#
# Stress axis : x y z
#
# Youngs Moduli (GPa) = 76.13010 109.94351 79.79031
#
# Poissons Ratio (x) = -0.10883 0.12444
# Poissons Ratio (y) = -0.07536 0.59200
# Poissons Ratio (z) = 0.11873 0.81572
#
# Static dielectric constant tensor:
#      x y z
#    x 1.820190 0.000000 0.000000 
#    y 0.000000 1.698010 0.000000 
#    z 0.000000 0.000000 1.675220 
# 
# From -- ./inp_files/68545.got.cif
#   From: 2010.05.17/outbox.cif.g08.bks.cpg/sg65_35_cif.got.tgz:68545.got - 2010.06.03 17:01:31.
