data_PCOD9483114
_publ_section_title
;
Structure prediction by ZEFSAII (Michael W. Deem and Ramdas Pophale) SiO2 
 PCOD9483114
Probable space group: C M M M
;
_chemical_formula_sum "Si O2"
_cell_formula_units_Z 104
_cell_length_a 8.537415
_cell_length_b 28.004499
_cell_length_c 27.577167
_cell_angle_alpha 90.000000
_cell_angle_beta 90.000000
_cell_angle_gamma 90.000000
_cell_volume 6593.315372
_symmetry_space_group_name_H-M "C M M M"
_symmetry_group_IT_number 65
_symmetry_cell_setting 'orthorhombic'
loop_
_space_group_symop_operation_xyz
x,y,z
-x,-y,z
x,-y,-z
-x,y,-z
-x,-y,-z
x,y,-z
-x,y,z
x,-y,z
1/2+x,1/2+y,z
1/2-x,1/2-y,z
1/2+x,1/2-y,-z
1/2-x,1/2+y,-z
1/2-x,1/2-y,-z
1/2+x,1/2+y,-z
1/2-x,1/2+y,z
1/2+x,1/2-y,z
loop_
_atom_site_type_symbol
_atom_site_label
_atom_site_fract_x
_atom_site_fract_y
_atom_site_fract_z
Si Si1 0.690329 0.446875 0.696268
Si Si2 0.811825 0.850308 0.255340
Si Si3 0.186731 0.697508 0.352482
Si Si4 0.688071 0.395697 0.402859
Si Si5 0.311678 0.195675 0.158149
Si Si6 0.310904 0.804446 0.947875
Si Si7 0.812165 0.444478 0.500000
O O1 0.500000 0.448056 0.697397
O O2 0.748246 0.500000 0.706992
O O3 0.738880 0.404442 0.732109
O O4 0.734395 0.429914 0.642199
O O5 0.745905 0.817590 0.298814
O O6 0.754290 0.833253 0.203340
O O7 0.000000 0.847795 0.257621
O O8 0.250000 0.750000 0.364305
O O9 0.248942 0.656643 0.388814
O O10 0.000000 0.697667 0.352818
O O11 0.500000 0.393743 0.404391
O O12 0.751607 0.417364 0.452396
O O13 0.500000 0.196446 0.160634
O O14 0.250000 0.250000 0.161642
O O15 0.262972 0.175903 0.104829
O O16 0.500000 0.803696 0.947888
O O17 0.250000 0.750000 0.947999
O O18 0.260120 0.825944 0.000000
O O19 0.759208 0.500000 0.500000
O O20 0.000000 0.444129 0.500000
#
# Coordination Sequence:
#
# PCOD9483114 Si02
#       7
#    16  16  16  16  16  16   8
#     4   8  15  29  49  70  90 114 146 183 222 267
#     4  10  19  30  45  67  93 120 153 189 225 270
#     4  11  21  35  53  72  97 127 159 193 230 272
#     4  10  20  35  55  78 100 125 158 192 231 279
#     4  10  18  27  40  59  86 118 151 187 226 266
#     4   8  14  24  37  53  75 107 146 184 222 265
#     4  11  23  37  54  79 108 133 159 195 237 275
#
# _framework density 15.773552
#
# number of rings (size 3 to 8) (size 9 to 14) (size 15 to 20)
#    0.000    2.385    0.000    4.846    0.000    1.846 
#    0.000    0.385    0.000    9.231    0.000    0.000 
#    0.000    0.615    0.000    7.692    0.000    0.000 
#
# Total GULP energy -289812.164730 kJ/mol
# GULP energy per Si atom -5573.310860 kJ/mol
# Density = 1.573765 g / cm^3
# Si number density = 15.773552 Si / 1000 Ang^3
#
#
#
# Elastic Constant Matrix: (Units=GPa)
#
#
# Indices 1 2 3 4 5 6 
#
# 1 60.3369 29.4324 37.3631 0.0000 0.0000 0.0000
# 2 29.4324 109.9761 71.7181 0.0000 0.0000 0.0000
# 3 37.3631 71.7181 160.9618 0.0000 0.0000 0.0000
# 4 0.0000 0.0000 0.0000 3.0006 0.0000 0.0000
# 5 0.0000 0.0000 0.0000 0.0000 13.8405 0.0000
# 6 0.0000 0.0000 0.0000 0.0000 0.0000 13.8825
#
#
#
# Elastic Compliance Matrix: (Units=1/GPa)
#
#
# Indices 1 2 3 4 5 6 
#
# 1 0.020174 -0.003306 -0.003210 0.000000 0.000000 0.000000
# 2 -0.003306 0.013359 -0.005185 0.000000 0.000000 0.000000
# 3 -0.003210 -0.005185 0.009268 0.000000 0.000000 0.000000
# 4 0.000000 0.000000 0.000000 0.333268 0.000000 0.000000
# 5 0.000000 0.000000 0.000000 0.000000 0.072252 0.000000
# 6 0.000000 0.000000 0.000000 0.000000 0.000000 0.072033
#
#
# Mechanical properties :
#
#
# Convention : Reuss Voigt Hill
#
# Bulk Modulus (GPa) = 51.54753 67.58909 59.56831
# Shear Modulus (GPa) = 9.08727 18.99546 14.04137
#
# Velocity S-wave (km/s) = 2.40283 3.47401 2.98683
# Velocity P-wave (km/s) = 6.35994 7.68338 7.05277
#
# Compressibility (1/GPa) = 0.01939957
#
# Stress axis : x y z
#
# Youngs Moduli (GPa) = 49.56900 74.85763 107.89968
#
# Poissons Ratio (x) = 0.24746 0.34635
# Poissons Ratio (y) = 0.16386 0.55943
# Poissons Ratio (z) = 0.15911 0.38812
#
# Static dielectric constant tensor:
#      x y z
#    x 1.535720 0.000000 0.000000 
#    y 0.000000 1.492630 0.000000 
#    z 0.000000 0.000000 1.544470 
# 
# From -- ./inp_files/71789.got.cif
#   From: 2010.05.17/outbox.cif.g08.bks.cpg/sg65_36_cif.got.tgz:71789.got - 2010.06.03 17:01:31.
