data_PCOD9483456
_publ_section_title
;
Structure prediction by ZEFSAII (Michael W. Deem and Ramdas Pophale) SiO2 
 PCOD9483456
Probable space group: C M M M
;
_chemical_formula_sum "Si O2"
_cell_formula_units_Z 80
_cell_length_a 21.414542
_cell_length_b 26.071840
_cell_length_c 7.506694
_cell_angle_alpha 90.000000
_cell_angle_beta 90.000000
_cell_angle_gamma 90.000000
_cell_volume 4191.111216
_symmetry_space_group_name_H-M "C M M M"
_symmetry_group_IT_number 65
_symmetry_cell_setting 'orthorhombic'
loop_
_space_group_symop_operation_xyz
x,y,z
-x,-y,z
x,-y,-z
-x,y,-z
-x,-y,-z
x,y,-z
-x,y,z
x,-y,z
1/2+x,1/2+y,z
1/2-x,1/2-y,z
1/2+x,1/2-y,-z
1/2-x,1/2+y,-z
1/2-x,1/2-y,-z
1/2+x,1/2+y,-z
1/2-x,1/2+y,z
1/2+x,1/2-y,z
loop_
_atom_site_type_symbol
_atom_site_label
_atom_site_fract_x
_atom_site_fract_y
_atom_site_fract_z
Si Si1 0.265353 0.000000 0.706615
Si Si2 0.389463 0.612142 0.792403
Si Si3 0.117928 0.000000 0.217415
Si Si4 0.189449 0.282279 0.717931
Si Si5 0.932026 0.223887 0.292792
Si Si6 0.258243 0.110420 0.283348
O O1 0.189749 0.000000 0.718671
O O2 0.283141 0.944636 0.782401
O O3 0.284381 0.000000 0.500000
O O4 0.408605 0.555287 0.724909
O O5 0.418323 0.663070 0.710898
O O6 0.314131 0.616100 0.773054
O O7 0.405602 0.613666 0.000000
O O8 0.118566 0.000000 0.000000
O O9 0.188840 0.281118 0.500000
O O10 0.250000 0.250000 0.773367
O O11 0.126688 0.254912 0.783272
O O12 0.201425 0.340805 0.772178
O O13 0.934882 0.238793 0.500000
O O14 0.000000 0.233795 0.212214
O O15 0.256957 0.109292 0.500000
#
# Coordination Sequence:
#
# PCOD9483456 Si02
#       6
#     8  16   8  16  16  16
#     4   8  14  22  38  65  88 108 138 178 214 246
#     4  10  18  29  45  64  88 115 145 178 216 254
#     4   8  16  28  41  59  84 116 145 172 208 256
#     4   9  15  26  46  66  85 111 143 177 214 255
#     4  10  20  33  47  63  84 113 148 182 215 254
#     4   9  15  26  44  65  89 114 143 177 214 252
#
# _framework density 19.088016
#
# number of rings (size 3 to 8) (size 9 to 14) (size 15 to 20)
#    0.000    2.800    2.000    0.600    0.000    1.200 
#    0.000    2.500    0.000    3.000    0.000    0.700 
#    0.000    5.600    0.000    0.000    0.000   37.300 
#
# Total GULP energy -222917.968794 kJ/mol
# GULP energy per Si atom -5572.949220 kJ/mol
# Density = 1.904457 g / cm^3
# Si number density = 19.088016 Si / 1000 Ang^3
#
#
#
# Elastic Constant Matrix: (Units=GPa)
#
#
# Indices 1 2 3 4 5 6 
#
# 1 105.4484 69.2754 0.9721 0.0000 0.0000 0.0000
# 2 69.2754 157.3338 -0.5498 0.0000 0.0000 0.0000
# 3 0.9721 -0.5498 52.6352 0.0000 0.0000 0.0000
# 4 0.0000 0.0000 0.0000 -2.6584 0.0000 0.0000
# 5 0.0000 0.0000 0.0000 0.0000 28.3687 0.0000
# 6 0.0000 0.0000 0.0000 0.0000 0.0000 8.2064
#
#
#
# Elastic Compliance Matrix: (Units=1/GPa)
#
#
# Indices 1 2 3 4 5 6 
#
# 1 0.013348 -0.005878 -0.000308 0.000000 0.000000 0.000000
# 2 -0.005878 0.008945 0.000202 0.000000 0.000000 0.000000
# 3 -0.000308 0.000202 0.019006 0.000000 0.000000 0.000000
# 4 0.000000 0.000000 0.000000 -0.376163 0.000000 0.000000
# 5 0.000000 0.000000 0.000000 0.000000 0.035250 0.000000
# 6 0.000000 0.000000 0.000000 0.000000 0.000000 0.121856
#
#
# Mechanical properties :
#
#
# Convention : Reuss Voigt Hill
#
# Bulk Modulus (GPa) = 34.09375 50.53477 42.31426
# Shear Modulus (GPa) = -32.04891 23.16465 -4.44213
#
# Velocity S-wave (km/s) = -4.10201 3.48741 -1.52717
# Velocity P-wave (km/s) = 2.12961 6.53821 4.37109
#
# Compressibility (1/GPa) = 0.02933089
#
# Stress axis : x y z
#
# Youngs Moduli (GPa) = 74.91782 111.79577 52.61360
#
# Poissons Ratio (x) = 0.65717 0.01620
# Poissons Ratio (y) = 0.44039 -0.01063
# Poissons Ratio (z) = 0.02307 -0.02258
#
# Static dielectric constant tensor:
#      x y z
#    x 1.640690 0.000000 0.000000 
#    y 0.000000 1.716250 0.000000 
#    z 0.000000 0.000000 1.636290 
# 
# From -- ./inp_files/9739.got.cif
#   From: 2010.05.17/outbox.cif.g08.bks.cpg/sg65_5_cif.got.tgz:9739.got - 2010.06.03 17:01:31.
