data_PCOD9483839
_publ_section_title
;
Structure prediction by ZEFSAII (Michael W. Deem and Ramdas Pophale) SiO2 
 PCOD9483839
Probable space group: C M M M
;
_chemical_formula_sum "Si O2"
_cell_formula_units_Z 88
_cell_length_a 13.936587
_cell_length_b 23.603606
_cell_length_c 14.569715
_cell_angle_alpha 90.000000
_cell_angle_beta 90.000000
_cell_angle_gamma 90.000000
_cell_volume 4792.761782
_symmetry_space_group_name_H-M "C M M M"
_symmetry_group_IT_number 65
_symmetry_cell_setting 'orthorhombic'
loop_
_space_group_symop_operation_xyz
x,y,z
-x,-y,z
x,-y,-z
-x,y,-z
-x,-y,-z
x,y,-z
-x,y,z
x,-y,z
1/2+x,1/2+y,z
1/2-x,1/2-y,z
1/2+x,1/2-y,-z
1/2-x,1/2+y,-z
1/2-x,1/2-y,-z
1/2+x,1/2+y,-z
1/2-x,1/2+y,z
1/2+x,1/2-y,z
loop_
_atom_site_type_symbol
_atom_site_label
_atom_site_fract_x
_atom_site_fract_y
_atom_site_fract_z
Si Si1 0.117059 0.346928 0.896079
Si Si2 0.882999 0.000000 0.894680
Si Si3 0.615469 0.610516 0.221494
Si Si4 0.112919 0.434946 0.259934
Si Si5 0.883097 0.782443 0.895216
Si Si6 0.218645 0.933024 0.394224
O O1 0.145214 0.391385 0.818469
O O2 0.146807 0.282137 0.875779
O O3 0.000000 0.347186 0.897064
O O4 0.147566 0.361606 0.000000
O O5 0.854107 0.056192 0.839377
O O6 0.000000 0.000000 0.897283
O O7 0.849487 0.000000 0.000000
O O8 0.500000 0.610657 0.221981
O O9 0.648036 0.668636 0.173801
O O10 0.652623 0.601226 0.324020
O O11 0.126315 0.500000 0.228597
O O12 0.175193 0.427411 0.351341
O O13 0.000000 0.426616 0.277218
O O14 0.000000 0.782315 0.893783
O O15 0.855175 0.796226 0.000000
O O16 0.213059 0.915783 0.500000
O O17 0.192927 0.000000 0.388721
#
# Coordination Sequence:
#
# PCOD9483839 Si02
#       6
#    16   8  16  16  16  16
#     4   8  14  27  49  76 104 133 163 195 238 296
#     4   9  16  26  43  69 100 131 161 195 233 275
#     4  10  18  30  49  73 102 135 167 198 239 288
#     4   9  18  33  54  76  97 124 161 205 256 304
#     4   8  14  26  47  74 103 137 170 196 230 285
#     4  10  21  36  52  71  98 127 164 216 259 294
#
# _framework density 18.361021000000001
#
# number of rings (size 3 to 8) (size 9 to 14) (size 15 to 20)
#    0.000    3.000    0.909    1.636    0.000    3.273 
#    0.000    7.273    0.000    4.364    0.000    5.091 
#    0.000    0.000    0.000    0.000    0.000    0.000 
#
# Total GULP energy -245589.059644 kJ/mol
# GULP energy per Si atom -5581.569537 kJ/mol
# Density = 1.831923 g / cm^3
# Si number density = 18.361021 Si / 1000 Ang^3
#
#
#
# Elastic Constant Matrix: (Units=GPa)
#
#
# Indices 1 2 3 4 5 6 
#
# 1 57.9482 27.9271 26.8844 0.0000 0.0000 0.0000
# 2 27.9271 90.1832 92.9175 0.0000 0.0000 0.0000
# 3 26.8844 92.9175 169.5420 0.0000 0.0000 0.0000
# 4 0.0000 0.0000 0.0000 22.9249 0.0000 0.0000
# 5 0.0000 0.0000 0.0000 0.0000 25.6750 0.0000
# 6 0.0000 0.0000 0.0000 0.0000 0.0000 22.8951
#
#
#
# Elastic Compliance Matrix: (Units=1/GPa)
#
#
# Indices 1 2 3 4 5 6 
#
# 1 0.020304 -0.006823 0.000520 0.000000 0.000000 0.000000
# 2 -0.006823 0.027764 -0.014134 0.000000 0.000000 0.000000
# 3 0.000520 -0.014134 0.013562 0.000000 0.000000 0.000000
# 4 0.000000 0.000000 0.000000 0.043621 0.000000 0.000000
# 5 0.000000 0.000000 0.000000 0.000000 0.038948 0.000000
# 6 0.000000 0.000000 0.000000 0.000000 0.000000 0.043677
#
#
# Mechanical properties :
#
#
# Convention : Reuss Voigt Hill
#
# Bulk Modulus (GPa) = 48.18076 68.12569 58.15322
# Shear Modulus (GPa) = 21.21608 25.62863 23.42235
#
# Velocity S-wave (km/s) = 3.40295 3.74012 3.57551
# Velocity P-wave (km/s) = 6.46048 7.47230 6.98474
#
# Compressibility (1/GPa) = 0.02075517
#
# Stress axis : x y z
#
# Youngs Moduli (GPa) = 49.25158 36.01755 73.73491
#
# Poissons Ratio (x) = 0.24575 -0.03833
# Poissons Ratio (y) = 0.33605 1.04219
# Poissons Ratio (z) = -0.02560 0.50908
#
# Static dielectric constant tensor:
#      x y z
#    x 1.715240 0.000000 0.000000 
#    y 0.000000 1.620790 0.000000 
#    z 0.000000 0.000000 1.580710 
# 
# From -- ./inp_files/40216.got.cif
#   From: 2010.05.17/outbox.cif.g08.bks.cpg/sg65_21_cif.got.tgz:40216.got - 2010.06.03 17:01:31.
