data_PCOD9483683
_publ_section_title
;
Structure prediction by ZEFSAII (Michael W. Deem and Ramdas Pophale) SiO2 
 PCOD9483683
Probable space group: C M M M
;
_chemical_formula_sum "Si O2"
_cell_formula_units_Z 104
_cell_length_a 8.624828
_cell_length_b 28.167945
_cell_length_c 27.327761
_cell_angle_alpha 90.000000
_cell_angle_beta 90.000000
_cell_angle_gamma 90.000000
_cell_volume 6639.106844
_symmetry_space_group_name_H-M "C M M M"
_symmetry_group_IT_number 65
_symmetry_cell_setting 'orthorhombic'
loop_
_space_group_symop_operation_xyz
x,y,z
-x,-y,z
x,-y,-z
-x,y,-z
-x,-y,-z
x,y,-z
-x,y,z
x,-y,z
1/2+x,1/2+y,z
1/2-x,1/2-y,z
1/2+x,1/2-y,-z
1/2-x,1/2+y,-z
1/2-x,1/2-y,-z
1/2+x,1/2+y,-z
1/2-x,1/2+y,z
1/2+x,1/2-y,z
loop_
_atom_site_type_symbol
_atom_site_label
_atom_site_fract_x
_atom_site_fract_y
_atom_site_fract_z
Si Si1 0.684721 0.196362 0.102196
Si Si2 0.685151 0.696189 0.000000
Si Si3 0.811012 0.444962 0.445245
Si Si4 0.814355 0.855555 0.196396
Si Si5 0.187213 0.554607 0.750890
Si Si6 0.312945 0.891803 0.651328
Si Si7 0.185153 0.197680 0.703759
O O1 0.500000 0.199316 0.098928
O O2 0.750000 0.250000 0.108878
O O3 0.736767 0.164691 0.147779
O O4 0.751933 0.176140 0.051109
O O5 0.750000 0.750000 0.000000
O O6 0.000000 0.803304 0.000000
O O7 0.761742 0.430441 0.500000
O O8 0.766256 0.500000 0.437698
O O9 0.757944 0.412785 0.400288
O O10 0.000000 0.444139 0.444800
O O11 0.760884 0.908299 0.211308
O O12 0.768345 0.822396 0.242646
O O13 0.000000 0.853873 0.191458
O O14 0.234198 0.500000 0.757597
O O15 0.228871 0.573220 0.696389
O O16 0.000000 0.557177 0.754831
O O17 0.500000 0.889194 0.650297
O O18 0.247383 0.840501 0.665015
O O19 0.250000 0.250000 0.696267
O O20 0.000000 0.198570 0.702074
#
# Coordination Sequence:
#
# PCOD9483683 Si02
#       7
#    16   8  16  16  16  16  16
#     4  11  20  31  47  68  95 125 156 190 228 269
#     4  10  18  30  46  66  93 124 157 190 226 268
#     4   8  13  22  40  68  96 118 144 180 220 263
#     4  10  20  32  46  67  92 120 153 187 227 271
#     4   9  17  29  45  66  92 121 152 185 223 268
#     4   9  16  27  45  67  91 119 149 182 221 266
#     4  10  20  32  46  64  88 117 150 187 225 268
#
# _framework density 15.664758000000001
#
# number of rings (size 3 to 8) (size 9 to 14) (size 15 to 20)
#    0.000    2.462    0.000    5.308    0.000    5.231 
#    0.000    0.000    0.000    2.308    0.000    1.615 
#    0.000    4.308    0.000    0.000    0.000    0.000 
#
# Total GULP energy -289949.598528 kJ/mol
# GULP energy per Si atom -5575.953818 kJ/mol
# Density = 1.562910 g / cm^3
# Si number density = 15.664758 Si / 1000 Ang^3
#
#
#
# Elastic Constant Matrix: (Units=GPa)
#
#
# Indices 1 2 3 4 5 6 
#
# 1 56.2540 35.5738 45.3421 0.0000 0.0000 0.0000
# 2 35.5738 117.4029 77.3498 0.0000 0.0000 0.0000
# 3 45.3421 77.3498 150.9011 0.0000 0.0000 0.0000
# 4 0.0000 0.0000 0.0000 23.0181 0.0000 0.0000
# 5 0.0000 0.0000 0.0000 0.0000 14.5118 0.0000
# 6 0.0000 0.0000 0.0000 0.0000 0.0000 20.6282
#
#
#
# Elastic Compliance Matrix: (Units=1/GPa)
#
#
# Indices 1 2 3 4 5 6 
#
# 1 0.024586 -0.003899 -0.005389 0.000000 0.000000 0.000000
# 2 -0.003899 0.013479 -0.005738 0.000000 0.000000 0.000000
# 3 -0.005389 -0.005738 0.011187 0.000000 0.000000 0.000000
# 4 0.000000 0.000000 0.000000 0.043444 0.000000 0.000000
# 5 0.000000 0.000000 0.000000 0.000000 0.068909 0.000000
# 6 0.000000 0.000000 0.000000 0.000000 0.000000 0.048477
#
#
# Mechanical properties :
#
#
# Convention : Reuss Voigt Hill
#
# Bulk Modulus (GPa) = 52.08111 71.23217 61.65664
# Shear Modulus (GPa) = 20.28111 22.71778 21.49944
#
# Velocity S-wave (km/s) = 3.60209 3.81234 3.70871
# Velocity P-wave (km/s) = 7.11474 8.05917 7.60164
#
# Compressibility (1/GPa) = 0.01920082
#
# Stress axis : x y z
#
# Youngs Moduli (GPa) = 40.67389 74.18701 89.38882
#
# Poissons Ratio (x) = 0.28928 0.48169
# Poissons Ratio (y) = 0.15860 0.51289
# Poissons Ratio (z) = 0.21918 0.42566
#
# Static dielectric constant tensor:
#      x y z
#    x 1.533640 0.000000 0.000000 
#    y 0.000000 1.449460 0.000000 
#    z 0.000000 0.000000 1.534040 
# 
# From -- ./inp_files/73563.got.cif
#   From: 2010.05.17/outbox.cif.g08.bks.cpg/sg65_37_cif.got.tgz:73563.got - 2010.06.03 17:01:31.
