data_PCOD9483412
_publ_section_title
;
Structure prediction by ZEFSAII (Michael W. Deem and Ramdas Pophale) SiO2 
 PCOD9483412
Probable space group: C M M M
;
_chemical_formula_sum "Si O2"
_cell_formula_units_Z 128
_cell_length_a 19.072064
_cell_length_b 25.718530
_cell_length_c 17.947081
_cell_angle_alpha 90.000000
_cell_angle_beta 90.000000
_cell_angle_gamma 90.000000
_cell_volume 8803.141045
_symmetry_space_group_name_H-M "C M M M"
_symmetry_group_IT_number 65
_symmetry_cell_setting 'orthorhombic'
loop_
_space_group_symop_operation_xyz
x,y,z
-x,-y,z
x,-y,-z
-x,y,-z
-x,-y,-z
x,y,-z
-x,y,z
x,-y,z
1/2+x,1/2+y,z
1/2-x,1/2-y,z
1/2+x,1/2-y,-z
1/2-x,1/2+y,-z
1/2-x,1/2-y,-z
1/2+x,1/2+y,-z
1/2-x,1/2+y,z
1/2+x,1/2-y,z
loop_
_atom_site_type_symbol
_atom_site_label
_atom_site_fract_x
_atom_site_fract_y
_atom_site_fract_z
Si Si1 0.822781 0.884354 0.199821
Si Si2 0.080531 0.376848 0.085939
Si Si3 0.218885 0.438353 0.085518
Si Si4 0.680754 0.718137 0.295745
Si Si5 0.582151 0.774144 0.822177
Si Si6 0.918654 0.059927 0.682277
Si Si7 0.581688 0.338080 0.412139
Si Si8 0.417376 0.326589 0.916862
O O1 0.762797 0.909823 0.149597
O O2 0.800044 0.833676 0.247721
O O3 0.863025 0.923852 0.254648
O O4 0.879725 0.862988 0.141708
O O5 0.137956 0.421497 0.093455
O O6 0.096517 0.330457 0.143283
O O7 0.000000 0.393680 0.097476
O O8 0.084940 0.357328 0.000000
O O9 0.227266 0.500000 0.092484
O O10 0.240058 0.423771 0.000000
O O11 0.750000 0.750000 0.316950
O O12 0.632398 0.754765 0.243429
O O13 0.633712 0.697459 0.363972
O O14 0.500000 0.771819 0.799466
O O15 0.591378 0.732231 0.888304
O O16 0.910347 0.102619 0.617201
O O17 0.000000 0.065216 0.708955
O O18 0.908992 0.000000 0.659464
O O19 0.594687 0.334669 0.500000
O O20 0.500000 0.323713 0.397807
O O21 0.500000 0.337514 0.916945
O O22 0.389485 0.332919 0.000000
#
# Coordination Sequence:
#
# PCOD9483412 Si02
#       8
#    16  16  16  16  16  16  16  16
#     4  10  18  29  42  58  84 112 140 172 204 239
#     4   9  17  29  44  60  78 101 133 176 220 256
#     4  10  20  31  42  56  76 106 142 178 216 252
#     4  10  19  29  44  65  87 112 138 163 194 237
#     4   9  16  27  43  62  84 108 135 168 206 246
#     4   9  17  29  46  66  85 108 138 169 201 235
#     4   9  18  32  48  66  88 111 134 162 197 237
#     4   9  16  25  39  59  82 110 142 173 205 240
#
# _framework density 14.540265
#
# number of rings (size 3 to 8) (size 9 to 14) (size 15 to 20)
#    0.000    2.625    0.000    2.625    0.000    5.250 
#    0.000    2.500    0.000    6.000    0.000    5.250 
#    0.000    0.000    0.000    0.000    0.000    0.000 
#
# Total GULP energy -356468.011768 kJ/mol
# GULP energy per Si atom -5569.812684 kJ/mol
# Density = 1.450717 g / cm^3
# Si number density = 14.540265 Si / 1000 Ang^3
#
#
#
# Elastic Constant Matrix: (Units=GPa)
#
#
# Indices 1 2 3 4 5 6 
#
# 1 69.3892 42.5816 53.5640 0.0000 0.0000 0.0000
# 2 42.5816 49.5827 39.6966 0.0000 0.0000 0.0000
# 3 53.5640 39.6966 90.8906 0.0000 0.0000 0.0000
# 4 0.0000 0.0000 0.0000 7.8483 0.0000 0.0000
# 5 0.0000 0.0000 0.0000 0.0000 19.2953 0.0000
# 6 0.0000 0.0000 0.0000 0.0000 0.0000 21.7880
#
#
#
# Elastic Compliance Matrix: (Units=1/GPa)
#
#
# Indices 1 2 3 4 5 6 
#
# 1 0.037871 -0.022535 -0.012476 0.000000 0.000000 0.000000
# 2 -0.022535 0.044422 -0.006121 0.000000 0.000000 0.000000
# 3 -0.012476 -0.006121 0.021028 0.000000 0.000000 0.000000
# 4 0.000000 0.000000 0.000000 0.127417 0.000000 0.000000
# 5 0.000000 0.000000 0.000000 0.000000 0.051826 0.000000
# 6 0.000000 0.000000 0.000000 0.000000 0.000000 0.045897
#
#
# Mechanical properties :
#
#
# Convention : Reuss Voigt Hill
#
# Bulk Modulus (GPa) = 47.49045 53.50521 50.49783
# Shear Modulus (GPa) = 11.96904 14.72100 13.34502
#
# Velocity S-wave (km/s) = 2.87220 3.18532 3.03280
# Velocity P-wave (km/s) = 6.61299 7.09973 6.86068
#
# Compressibility (1/GPa) = 0.02105686
#
# Stress axis : x y z
#
# Youngs Moduli (GPa) = 26.40524 22.51131 47.55569
#
# Poissons Ratio (x) = 0.50730 0.59331
# Poissons Ratio (y) = 0.59505 0.29108
# Poissons Ratio (z) = 0.32943 0.13779
#
# Static dielectric constant tensor:
#      x y z
#    x 1.477570 0.000000 0.000000 
#    y 0.000000 1.469980 0.000000 
#    z 0.000000 0.000000 1.461290 
# 
# From -- ./inp_files/55087.got.cif
#   From: 2010.05.17/outbox.cif.g08.bks.cpg/sg65_28_cif.got.tgz:55087.got - 2010.06.03 17:01:31.
