data_PCOD9483559
_publ_section_title
;
Structure prediction by ZEFSAII (Michael W. Deem and Ramdas Pophale) SiO2 
 PCOD9483559
Probable space group: C M M M
;
_chemical_formula_sum "Si O2"
_cell_formula_units_Z 80
_cell_length_a 7.641813
_cell_length_b 27.642906
_cell_length_c 19.350580
_cell_angle_alpha 90.000000
_cell_angle_beta 90.000000
_cell_angle_gamma 90.000000
_cell_volume 4087.653642
_symmetry_space_group_name_H-M "C M M M"
_symmetry_group_IT_number 65
_symmetry_cell_setting 'orthorhombic'
loop_
_space_group_symop_operation_xyz
x,y,z
-x,-y,z
x,-y,-z
-x,y,-z
-x,-y,-z
x,y,-z
-x,y,z
x,-y,z
1/2+x,1/2+y,z
1/2-x,1/2-y,z
1/2+x,1/2-y,-z
1/2-x,1/2+y,-z
1/2-x,1/2-y,-z
1/2+x,1/2+y,-z
1/2-x,1/2+y,z
1/2+x,1/2-y,z
loop_
_atom_site_type_symbol
_atom_site_label
_atom_site_fract_x
_atom_site_fract_y
_atom_site_fract_z
Si Si1 0.287243 0.556883 0.075558
Si Si2 0.204015 0.553379 0.366163
Si Si3 0.708076 0.196056 0.280263
Si Si4 0.714098 0.845194 0.576109
Si Si5 0.702975 0.595402 0.779711
O O1 0.500000 0.560814 0.074892
O O2 0.245664 0.500000 0.080664
O O3 0.223866 0.582600 0.145013
O O4 0.225927 0.574408 0.000000
O O5 0.281278 0.500000 0.377475
O O6 0.275182 0.599977 0.406831
O O7 0.212755 0.567749 0.285182
O O8 0.000000 0.550693 0.385538
O O9 0.500000 0.189360 0.279582
O O10 0.750000 0.250000 0.257247
O O11 0.770359 0.187503 0.359353
O O12 0.784218 0.152369 0.235585
O O13 0.771522 0.829951 0.500000
O O14 0.500000 0.845525 0.576374
O O15 0.500000 0.580617 0.778428
#
# Coordination Sequence:
#
# PCOD9483559 Si02
#       5
#    16  16  16  16  16
#     4   8  14  25  43  70 101 128 154 184 218 259
#     4   9  17  28  43  65  94 127 159 191 226 265
#     4  10  20  34  51  70  91 116 149 191 236 280
#     4   8  15  28  45  66  91 118 150 188 230 276
#     4  10  18  29  48  71  94 122 155 191 229 271
#
# _framework density 19.57113
#
# number of rings (size 3 to 8) (size 9 to 14) (size 15 to 20)
#    0.000    3.000    0.000    3.600    0.000    2.000 
#    0.000    2.000    0.000   17.400    0.000   12.600 
#    0.000    0.000    0.000    0.000    0.000    0.000 
#
# Total GULP energy -222996.672969 kJ/mol
# GULP energy per Si atom -5574.916824 kJ/mol
# Density = 1.952659 g / cm^3
# Si number density = 19.571130 Si / 1000 Ang^3
#
#
#
# Elastic Constant Matrix: (Units=GPa)
#
#
# Indices 1 2 3 4 5 6 
#
# 1 39.4191 -13.6191 -8.8665 0.0000 0.0000 0.0000
# 2 -13.6191 45.3235 -4.3274 0.0000 0.0000 0.0000
# 3 -8.8665 -4.3274 98.9592 0.0000 0.0000 0.0000
# 4 0.0000 0.0000 0.0000 7.9799 0.0000 0.0000
# 5 0.0000 0.0000 0.0000 0.0000 12.1967 0.0000
# 6 0.0000 0.0000 0.0000 0.0000 0.0000 9.5225
#
#
#
# Elastic Compliance Matrix: (Units=1/GPa)
#
#
# Indices 1 2 3 4 5 6 
#
# 1 0.029173 0.009054 0.003010 0.000000 0.000000 0.000000
# 2 0.009054 0.024966 0.001903 0.000000 0.000000 0.000000
# 3 0.003010 0.001903 0.010458 0.000000 0.000000 0.000000
# 4 0.000000 0.000000 0.000000 0.125315 0.000000 0.000000
# 5 0.000000 0.000000 0.000000 0.000000 0.081989 0.000000
# 6 0.000000 0.000000 0.000000 0.000000 0.000000 0.105014
#
#
# Mechanical properties :
#
#
# Convention : Reuss Voigt Hill
#
# Bulk Modulus (GPa) = 10.80736 14.45288 12.63012
# Shear Modulus (GPa) = 13.16389 19.97414 16.56902
#
# Velocity S-wave (km/s) = 2.59630 3.19814 2.91280
# Velocity P-wave (km/s) = 3.81075 4.58675 4.21664
#
# Compressibility (1/GPa) = 0.09252957
#
# Stress axis : x y z
#
# Youngs Moduli (GPa) = 34.27786 40.05487 95.62012
#
# Poissons Ratio (x) = -0.36264 -0.28779
# Poissons Ratio (y) = -0.31034 -0.18196
# Poissons Ratio (z) = -0.10317 -0.07622
#
# Static dielectric constant tensor:
#      x y z
#    x 1.761500 0.000000 0.000000 
#    y 0.000000 1.678330 0.000000 
#    z 0.000000 0.000000 1.699830 
# 
# From -- ./inp_files/49870.got.cif
#   From: 2010.05.17/outbox.cif.g08.bks.cpg/sg65_25_cif.got.tgz:49870.got - 2010.06.03 17:01:31.
