data_PCOD9483039
_publ_section_title
;
Structure prediction by ZEFSAII (Michael W. Deem and Ramdas Pophale) SiO2 
 PCOD9483039
Probable space group: C M M M
;
_chemical_formula_sum "Si O2"
_cell_formula_units_Z 104
_cell_length_a 24.200882
_cell_length_b 25.641945
_cell_length_c 8.769297
_cell_angle_alpha 90.000000
_cell_angle_beta 90.000000
_cell_angle_gamma 90.000000
_cell_volume 5441.854647
_symmetry_space_group_name_H-M "C M M M"
_symmetry_group_IT_number 65
_symmetry_cell_setting 'orthorhombic'
loop_
_space_group_symop_operation_xyz
x,y,z
-x,-y,z
x,-y,-z
-x,y,-z
-x,-y,-z
x,y,-z
-x,y,z
x,-y,z
1/2+x,1/2+y,z
1/2-x,1/2-y,z
1/2+x,1/2-y,-z
1/2-x,1/2+y,-z
1/2-x,1/2-y,-z
1/2+x,1/2+y,-z
1/2-x,1/2+y,z
1/2+x,1/2-y,z
loop_
_atom_site_type_symbol
_atom_site_label
_atom_site_fract_x
_atom_site_fract_y
_atom_site_fract_z
Si Si1 0.884380 0.243949 0.317412
Si Si2 0.000000 0.608737 0.315291
Si Si3 0.500000 0.563432 0.175602
Si Si4 0.882966 0.061710 0.681786
Si Si5 0.616632 0.058595 0.685545
Si Si6 0.809223 0.344706 0.316097
Si Si7 0.312136 0.650953 0.181436
Si Si8 0.500000 0.774869 0.181707
O O1 0.888912 0.240612 0.500000
O O2 0.849421 0.296281 0.280876
O O3 0.851134 0.195054 0.253433
O O4 0.944772 0.248394 0.245594
O O5 0.944715 0.577703 0.272325
O O6 0.000000 0.665616 0.241868
O O7 0.000000 0.615094 0.500000
O O8 0.500000 0.500000 0.177098
O O9 0.556626 0.579191 0.258088
O O10 0.500000 0.580802 0.000000
O O11 0.880600 0.068465 0.500000
O O12 0.835984 0.095853 0.760506
O O13 0.877008 0.000000 0.715284
O O14 0.617758 0.057859 0.500000
O O15 0.660604 0.102025 0.733302
O O16 0.627672 0.000000 0.739504
O O17 0.802115 0.345706 0.500000
O O18 0.749907 0.339914 0.239493
O O19 0.314334 0.653467 0.000000
O O20 0.500000 0.773938 0.000000
#
# Coordination Sequence:
#
# PCOD9483039 Si02
#       8
#    16   8   8  16  16  16  16   8
#     4  11  23  43  67  90 118 156 206 254 301 362
#     4  10  17  34  59  89 123 164 209 251 308 366
#     4   9  17  32  57  88 120 151 183 228 291 353
#     4  10  21  39  63  89 118 156 202 246 291 352
#     4   9  17  31  58  94 125 157 207 262 304 352
#     4  10  21  39  62  87 118 160 209 255 302 357
#     4  12  26  41  60  89 123 158 200 250 310 370
#     4  12  24  38  62  95 129 162 198 250 317 372
#
# _framework density 19.111132000000001
#
# number of rings (size 3 to 8) (size 9 to 14) (size 15 to 20)
#    0.000    1.615    1.538    3.923    0.000    7.077 
#    0.000    4.615    0.000    1.846    0.000    0.000 
#    0.000    0.000    0.000    0.000    0.000    0.000 
#
# Total GULP energy -290670.561974 kJ/mol
# GULP energy per Si atom -5589.818499 kJ/mol
# Density = 1.906763 g / cm^3
# Si number density = 19.111132 Si / 1000 Ang^3
#
#
#
# Elastic Constant Matrix: (Units=GPa)
#
#
# Indices 1 2 3 4 5 6 
#
# 1 155.3406 68.3350 64.4232 0.0000 0.0000 0.0000
# 2 68.3350 101.2282 47.6523 0.0000 0.0000 0.0000
# 3 64.4232 47.6523 74.5436 0.0000 0.0000 0.0000
# 4 0.0000 0.0000 0.0000 15.2992 0.0000 0.0000
# 5 0.0000 0.0000 0.0000 0.0000 -241.4715 0.0000
# 6 0.0000 0.0000 0.0000 0.0000 0.0000 1.0229
#
#
#
# Elastic Compliance Matrix: (Units=1/GPa)
#
#
# Indices 1 2 3 4 5 6 
#
# 1 0.011205 -0.004299 -0.006935 0.000000 0.000000 0.000000
# 2 -0.004299 0.015781 -0.006372 0.000000 0.000000 0.000000
# 3 -0.006935 -0.006372 0.023482 0.000000 0.000000 0.000000
# 4 0.000000 0.000000 0.000000 0.065363 0.000000 0.000000
# 5 0.000000 0.000000 0.000000 0.000000 -0.004141 0.000000
# 6 0.000000 0.000000 0.000000 0.000000 0.000000 0.977587
#
#
# Mechanical properties :
#
#
# Convention : Reuss Voigt Hill
#
# Bulk Modulus (GPa) = 65.55646 76.88148 71.21897
# Shear Modulus (GPa) = 4.42644 -34.98309 -15.27832
#
# Velocity S-wave (km/s) = 1.52354 -4.28309 -2.83052
# Velocity P-wave (km/s) = 6.12145 3.98198 5.16374
#
# Compressibility (1/GPa) = 0.01525403
#
# Stress axis : x y z
#
# Youngs Moduli (GPa) = 89.24583 63.36898 42.58521
#
# Poissons Ratio (x) = 0.27244 0.29535
# Poissons Ratio (y) = 0.38369 0.27136
# Poissons Ratio (z) = 0.61896 0.40380
#
# Static dielectric constant tensor:
#      x y z
#    x 1.633540 0.000000 0.000000 
#    y 0.000000 1.663450 0.000000 
#    z 0.000000 0.000000 1.635440 
# 
# From -- ./inp_files/12482.got.cif
#   From: 2010.05.17/outbox.cif.g08.bks.cpg/sg65_7_cif.got.tgz:12482.got - 2010.06.03 17:01:31.
