data_PCOD9483890
_publ_section_title
;
Structure prediction by ZEFSAII (Michael W. Deem and Ramdas Pophale) SiO2 
 PCOD9483890
Probable space group: C M M M
;
_chemical_formula_sum "Si O2"
_cell_formula_units_Z 96
_cell_length_a 19.793559
_cell_length_b 30.653519
_cell_length_c 7.388983
_cell_angle_alpha 90.000000
_cell_angle_beta 90.000000
_cell_angle_gamma 90.000000
_cell_volume 4483.208074
_symmetry_space_group_name_H-M "C M M M"
_symmetry_group_IT_number 65
_symmetry_cell_setting 'orthorhombic'
loop_
_space_group_symop_operation_xyz
x,y,z
-x,-y,z
x,-y,-z
-x,y,-z
-x,-y,-z
x,y,-z
-x,y,z
x,-y,z
1/2+x,1/2+y,z
1/2-x,1/2-y,z
1/2+x,1/2-y,-z
1/2-x,1/2+y,-z
1/2-x,1/2-y,-z
1/2+x,1/2+y,-z
1/2-x,1/2+y,z
1/2+x,1/2-y,z
loop_
_atom_site_type_symbol
_atom_site_label
_atom_site_fract_x
_atom_site_fract_y
_atom_site_fract_z
Si Si1 0.785014 0.954234 0.779081
Si Si2 0.921480 0.549824 0.779822
Si Si3 0.924239 0.829049 0.718238
Si Si4 0.428549 0.567756 0.786652
Si Si5 0.812096 0.620308 0.217618
Si Si6 0.723352 0.296007 0.714417
O O1 0.861068 0.952497 0.712881
O O2 0.747042 0.911791 0.718495
O O3 0.752705 0.000000 0.727611
O O4 0.784752 0.952630 0.000000
O O5 0.902248 0.500000 0.722160
O O6 0.877757 0.592136 0.720801
O O7 0.000000 0.555662 0.732094
O O8 0.916461 0.548982 0.000000
O O9 0.924367 0.825841 0.500000
O O10 0.922723 0.880085 0.768488
O O11 0.852103 0.809362 0.783762
O O12 0.000000 0.812714 0.777757
O O13 0.500000 0.554155 0.708115
O O14 0.429640 0.557288 0.000000
O O15 0.782945 0.667910 0.264850
O O16 0.816495 0.620877 0.000000
O O17 0.713463 0.290881 0.500000
O O18 0.750000 0.250000 0.788176
#
# Coordination Sequence:
#
# PCOD9483890 Si02
#       6
#    16  16  16  16  16  16
#     4   9  16  25  40  66  97 125 154 188 227 271
#     4   8  14  26  47  76 107 137 167 198 238 295
#     4   9  17  31  51  69  87 119 160 195 230 279
#     4   9  16  26  42  65  93 123 154 188 226 267
#     4  10  18  30  50  74  98 126 162 203 242 283
#     4  10  21  36  52  71  96 125 159 203 254 302
#
# _framework density 21.413238
#
# number of rings (size 3 to 8) (size 9 to 14) (size 15 to 20)
#    0.000    2.833    1.667    1.000    0.000    2.667 
#    0.000    2.500    0.000    5.000    0.000    3.500 
#    0.000    0.000    0.000    0.000    0.000    0.000 
#
# Total GULP energy -267265.781187 kJ/mol
# GULP energy per Si atom -5568.037108 kJ/mol
# Density = 2.136450 g / cm^3
# Si number density = 21.413238 Si / 1000 Ang^3
#
#
#
# Elastic Constant Matrix: (Units=GPa)
#
#
# Indices 1 2 3 4 5 6 
#
# 1 170.1985 77.7808 2.7395 0.0000 0.0000 0.0000
# 2 77.7808 156.0573 -3.7795 0.0000 0.0000 0.0000
# 3 2.7395 -3.7795 75.2811 0.0000 0.0000 0.0000
# 4 0.0000 0.0000 0.0000 2.3340 0.0000 0.0000
# 5 0.0000 0.0000 0.0000 0.0000 3.1807 0.0000
# 6 0.0000 0.0000 0.0000 0.0000 0.0000 47.1787
#
#
#
# Elastic Compliance Matrix: (Units=1/GPa)
#
#
# Indices 1 2 3 4 5 6 
#
# 1 0.007625 -0.003812 -0.000469 0.000000 0.000000 0.000000
# 2 -0.003812 0.008321 0.000556 0.000000 0.000000 0.000000
# 3 -0.000469 0.000556 0.013329 0.000000 0.000000 0.000000
# 4 0.000000 0.000000 0.000000 0.428456 0.000000 0.000000
# 5 0.000000 0.000000 0.000000 0.000000 0.314396 0.000000
# 6 0.000000 0.000000 0.000000 0.000000 0.000000 0.021196
#
#
# Mechanical properties :
#
#
# Convention : Reuss Voigt Hill
#
# Bulk Modulus (GPa) = 45.81579 61.66870 53.74225
# Shear Modulus (GPa) = 6.18776 32.19174 19.18975
#
# Velocity S-wave (km/s) = 1.70175 3.88152 2.99685
# Velocity P-wave (km/s) = 5.03028 6.99644 6.09319
#
# Compressibility (1/GPa) = 0.02182654
#
# Stress axis : x y z
#
# Youngs Moduli (GPa) = 131.14735 120.17496 75.02690
#
# Poissons Ratio (x) = 0.45808 0.03518
# Poissons Ratio (y) = 0.49990 -0.04175
# Poissons Ratio (z) = 0.06149 -0.06688
#
# Static dielectric constant tensor:
#      x y z
#    x 1.829400 0.000000 0.000000 
#    y 0.000000 1.742260 0.000000 
#    z 0.000000 0.000000 1.819480 
# 
# From -- ./inp_files/29247.got.cif
#   From: 2010.05.17/outbox.cif.g08.bks.cpg/sg65_15_cif.got.tgz:29247.got - 2010.06.03 17:01:31.
