data_PCOD9483415
_publ_section_title
;
Structure prediction by ZEFSAII (Michael W. Deem and Ramdas Pophale) SiO2 
 PCOD9483415
Probable space group: C M M M
;
_chemical_formula_sum "Si O2"
_cell_formula_units_Z 80
_cell_length_a 26.364786
_cell_length_b 20.582229
_cell_length_c 7.544742
_cell_angle_alpha 90.000000
_cell_angle_beta 90.000000
_cell_angle_gamma 90.000000
_cell_volume 4094.124543
_symmetry_space_group_name_H-M "C M M M"
_symmetry_group_IT_number 65
_symmetry_cell_setting 'orthorhombic'
loop_
_space_group_symop_operation_xyz
x,y,z
-x,-y,z
x,-y,-z
-x,y,-z
-x,-y,-z
x,y,-z
-x,y,z
x,-y,z
1/2+x,1/2+y,z
1/2-x,1/2-y,z
1/2+x,1/2-y,-z
1/2-x,1/2+y,-z
1/2-x,1/2-y,-z
1/2+x,1/2+y,-z
1/2-x,1/2+y,z
1/2+x,1/2-y,z
loop_
_atom_site_type_symbol
_atom_site_label
_atom_site_fract_x
_atom_site_fract_y
_atom_site_fract_z
Si Si1 0.243636 0.500000 0.303975
Si Si2 0.168116 0.754066 0.283777
Si Si3 0.055607 0.246672 0.712752
Si Si4 0.256443 0.855117 0.716150
Si Si5 0.362371 0.000000 0.810876
Si Si6 0.944925 0.401054 0.711400
O O1 0.268290 0.500000 0.500000
O O2 0.252796 0.428767 0.221252
O O3 0.182864 0.500000 0.323786
O O4 0.165765 0.751140 0.500000
O O5 0.111583 0.772591 0.220860
O O6 0.209452 0.808540 0.237284
O O7 0.192606 0.684412 0.228006
O O8 0.054939 0.234960 0.500000
O O9 0.056698 0.324353 0.739435
O O10 0.000000 0.223436 0.780035
O O11 0.259088 0.858526 0.500000
O O12 0.398750 0.061228 0.793199
O O13 0.336462 0.000000 0.000000
O O14 0.942499 0.412302 0.500000
O O15 0.000000 0.424233 0.774335
#
# Coordination Sequence:
#
# PCOD9483415 Si02
#       6
#     8  16  16  16   8  16
#     4  10  18  29  43  58  75  99 134 168 199 234
#     4   8  12  20  33  54  81 100 121 159 203 237
#     4   8  13  21  36  58  80 100 124 158 198 236
#     4   8  14  22  36  56  75  97 126 165 204 231
#     4  12  23  29  36  53  78 107 135 163 199 238
#     4   9  17  29  43  57  74 101 137 169 193 222
#
# _framework density 19.540196000000002
#
# number of rings (size 3 to 8) (size 9 to 14) (size 15 to 20)
#    0.000    3.200    0.000    4.800    0.000    4.800 
#    0.000    0.000    0.000    0.000    0.000   11.900 
#    0.000    5.600    0.000    0.000    0.000    1.000 
#
# Total GULP energy -222735.874360 kJ/mol
# GULP energy per Si atom -5568.396859 kJ/mol
# Density = 1.949572 g / cm^3
# Si number density = 19.540196 Si / 1000 Ang^3
#
#
#
# Elastic Constant Matrix: (Units=GPa)
#
#
# Indices 1 2 3 4 5 6 
#
# 1 138.8566 33.7039 4.9439 0.0000 0.0000 0.0000
# 2 33.7039 94.2065 5.1886 0.0000 0.0000 0.0000
# 3 4.9439 5.1886 43.3627 0.0000 0.0000 0.0000
# 4 0.0000 0.0000 0.0000 5.2043 0.0000 0.0000
# 5 0.0000 0.0000 0.0000 0.0000 -12.0094 0.0000
# 6 0.0000 0.0000 0.0000 0.0000 0.0000 25.4141
#
#
#
# Elastic Compliance Matrix: (Units=1/GPa)
#
#
# Indices 1 2 3 4 5 6 
#
# 1 0.007900 -0.002795 -0.000566 0.000000 0.000000 0.000000
# 2 -0.002795 0.011674 -0.001078 0.000000 0.000000 0.000000
# 3 -0.000566 -0.001078 0.023255 0.000000 0.000000 0.000000
# 4 0.000000 0.000000 0.000000 0.192148 0.000000 0.000000
# 5 0.000000 0.000000 0.000000 0.000000 -0.083268 0.000000
# 6 0.000000 0.000000 0.000000 0.000000 0.000000 0.039348
#
#
# Mechanical properties :
#
#
# Convention : Reuss Voigt Hill
#
# Bulk Modulus (GPa) = 29.45501 40.45540 34.95521
# Shear Modulus (GPa) = 23.66820 19.22777 21.44799
#
# Velocity S-wave (km/s) = 3.48409 3.14030 3.31665
# Velocity P-wave (km/s) = 5.59392 5.82214 5.70917
#
# Compressibility (1/GPa) = 0.03395008
#
# Stress axis : x y z
#
# Youngs Moduli (GPa) = 126.57721 85.65733 43.00180
#
# Poissons Ratio (x) = 0.23944 0.02435
# Poissons Ratio (y) = 0.35382 0.04637
# Poissons Ratio (z) = 0.07168 0.09236
#
# Static dielectric constant tensor:
#      x y z
#    x 1.712980 0.000000 0.000000 
#    y 0.000000 1.684690 0.000000 
#    z 0.000000 0.000000 1.752430 
# 
# From -- ./inp_files/12095.got.cif
#   From: 2010.05.17/outbox.cif.g08.bks.cpg/sg65_7_cif.got.tgz:12095.got - 2010.06.03 17:01:31.
