data_PCOD9483245
_publ_section_title
;
Structure prediction by ZEFSAII (Michael W. Deem and Ramdas Pophale) SiO2 
 PCOD9483245
Probable space group: C M M M
;
_chemical_formula_sum "Si O2"
_cell_formula_units_Z 104
_cell_length_a 28.062079
_cell_length_b 8.906709
_cell_length_c 27.170071
_cell_angle_alpha 90.000000
_cell_angle_beta 90.000000
_cell_angle_gamma 90.000000
_cell_volume 6790.908510
_symmetry_space_group_name_H-M "C M M M"
_symmetry_group_IT_number 65
_symmetry_cell_setting 'orthorhombic'
loop_
_space_group_symop_operation_xyz
x,y,z
-x,-y,z
x,-y,-z
-x,y,-z
-x,-y,-z
x,y,-z
-x,y,z
x,-y,z
1/2+x,1/2+y,z
1/2-x,1/2-y,z
1/2+x,1/2-y,-z
1/2-x,1/2+y,-z
1/2-x,1/2-y,-z
1/2+x,1/2+y,-z
1/2-x,1/2+y,z
1/2+x,1/2-y,z
loop_
_atom_site_type_symbol
_atom_site_label
_atom_site_fract_x
_atom_site_fract_y
_atom_site_fract_z
Si Si1 0.891877 0.321303 0.147708
Si Si2 0.802989 0.679894 0.392035
Si Si3 0.354135 0.320899 0.300034
Si Si4 0.944148 0.179662 0.057206
Si Si5 0.301656 0.679661 0.802272
Si Si6 0.445227 0.319716 0.239219
Si Si7 0.302589 0.180253 0.500000
O O1 0.888787 0.500000 0.149725
O O2 0.911411 0.265827 0.095500
O O3 0.841128 0.248693 0.161562
O O4 0.928042 0.261563 0.189731
O O5 0.798725 0.500000 0.389445
O O6 0.750000 0.750000 0.387120
O O7 0.835664 0.738241 0.348110
O O8 0.823031 0.722370 0.446484
O O9 0.352286 0.500000 0.308288
O O10 0.320250 0.286867 0.253188
O O11 0.407340 0.280854 0.281789
O O12 0.000000 0.214674 0.066233
O O13 0.938626 0.000000 0.063928
O O14 0.933950 0.213941 0.000000
O O15 0.300475 0.500000 0.807648
O O16 0.250000 0.750000 0.809800
O O17 0.500000 0.285441 0.250731
O O18 0.440964 0.500000 0.231080
O O19 0.250000 0.250000 0.500000
O O20 0.298970 0.000000 0.500000
#
# Coordination Sequence:
#
# PCOD9483245 Si02
#       7
#    16  16  16  16  16  16   8
#     4  11  21  31  47  72  99 125 153 187 227 271
#     4  10  18  28  43  62  88 119 149 183 221 264
#     4   9  18  30  45  67  91 116 148 184 224 269
#     4   9  18  33  52  72  95 125 158 190 228 274
#     4  10  20  34  50  68  93 124 157 191 226 268
#     4   9  18  33  50  66  89 122 155 187 226 272
#     4   8  16  28  40  58  83 114 149 181 218 263
#
# _framework density 15.314594
#
# number of rings (size 3 to 8) (size 9 to 14) (size 15 to 20)
#    0.000    2.462    0.000    4.615    0.000    7.692 
#    0.000    0.769    0.000    0.462    0.000    0.538 
#    0.000    4.308    0.000    0.000    0.000    0.000 
#
# Total GULP energy -289909.988638 kJ/mol
# GULP energy per Si atom -5575.192089 kJ/mol
# Density = 1.527974 g / cm^3
# Si number density = 15.314594 Si / 1000 Ang^3
#
#
#
# Elastic Constant Matrix: (Units=GPa)
#
#
# Indices 1 2 3 4 5 6 
#
# 1 117.4534 52.1329 75.9852 0.0000 0.0000 0.0000
# 2 52.1329 53.4687 61.2271 0.0000 0.0000 0.0000
# 3 75.9852 61.2271 125.5560 0.0000 0.0000 0.0000
# 4 0.0000 0.0000 0.0000 24.2815 0.0000 0.0000
# 5 0.0000 0.0000 0.0000 0.0000 20.4865 0.0000
# 6 0.0000 0.0000 0.0000 0.0000 0.0000 22.5721
#
#
#
# Elastic Compliance Matrix: (Units=1/GPa)
#
#
# Indices 1 2 3 4 5 6 
#
# 1 0.016171 -0.010327 -0.004751 0.000000 0.000000 0.000000
# 2 -0.010327 0.048948 -0.017619 0.000000 0.000000 0.000000
# 3 -0.004751 -0.017619 0.019431 0.000000 0.000000 0.000000
# 4 0.000000 0.000000 0.000000 0.041184 0.000000 0.000000
# 5 0.000000 0.000000 0.000000 0.000000 0.048813 0.000000
# 6 0.000000 0.000000 0.000000 0.000000 0.000000 0.044302
#
#
# Mechanical properties :
#
#
# Convention : Reuss Voigt Hill
#
# Bulk Modulus (GPa) = 52.20247 75.01870 63.61059
# Shear Modulus (GPa) = 17.20410 20.61024 18.90717
#
# Velocity S-wave (km/s) = 3.35532 3.67248 3.51748
# Velocity P-wave (km/s) = 7.01225 8.18989 7.62384
#
# Compressibility (1/GPa) = 0.01915618
#
# Stress axis : x y z
#
# Youngs Moduli (GPa) = 61.83819 20.43002 51.46285
#
# Poissons Ratio (x) = 0.21099 0.24448
# Poissons Ratio (y) = 0.63863 0.90673
# Poissons Ratio (z) = 0.29377 0.35996
#
# Static dielectric constant tensor:
#      x y z
#    x 1.490210 0.000000 0.000000 
#    y 0.000000 1.513780 0.000000 
#    z 0.000000 0.000000 1.512510 
# 
# From -- ./inp_files/76023.got.cif
#   From: 2010.05.17/outbox.cif.g08.bks.cpg/sg65_39_cif.got.tgz:76023.got - 2010.06.03 17:01:31.
