data_PCOD9483303
_publ_section_title
;
Structure prediction by ZEFSAII (Michael W. Deem and Ramdas Pophale) SiO2 
 PCOD9483303
Probable space group: C M M M
;
_chemical_formula_sum "Si O2"
_cell_formula_units_Z 80
_cell_length_a 25.840386
_cell_length_b 21.195181
_cell_length_c 8.214184
_cell_angle_alpha 90.000000
_cell_angle_beta 90.000000
_cell_angle_gamma 90.000000
_cell_volume 4498.840057
_symmetry_space_group_name_H-M "C M M M"
_symmetry_group_IT_number 65
_symmetry_cell_setting 'orthorhombic'
loop_
_space_group_symop_operation_xyz
x,y,z
-x,-y,z
x,-y,-z
-x,y,-z
-x,-y,-z
x,y,-z
-x,y,z
x,-y,z
1/2+x,1/2+y,z
1/2-x,1/2-y,z
1/2+x,1/2-y,-z
1/2-x,1/2+y,-z
1/2-x,1/2-y,-z
1/2+x,1/2+y,-z
1/2-x,1/2+y,z
1/2+x,1/2-y,z
loop_
_atom_site_type_symbol
_atom_site_label
_atom_site_fract_x
_atom_site_fract_y
_atom_site_fract_z
Si Si1 0.500000 0.398591 0.189228
Si Si2 0.724674 0.430639 0.197002
Si Si3 0.785711 0.692173 0.694102
Si Si4 0.893100 0.258101 0.193324
Si Si5 0.500000 0.741433 0.687113
Si Si6 0.111996 0.889067 0.198670
O O1 0.500000 0.321882 0.202125
O O2 0.556564 0.415948 0.258001
O O3 0.500000 0.417849 0.000000
O O4 0.743054 0.500000 0.247329
O O5 0.759084 0.373287 0.258991
O O6 0.664897 0.421771 0.250553
O O7 0.724620 0.427888 0.000000
O O8 0.788144 0.697073 0.500000
O O9 0.750000 0.750000 0.756874
O O10 0.843250 0.701660 0.761114
O O11 0.883856 0.184897 0.244757
O O12 0.947128 0.277484 0.274584
O O13 0.899802 0.258364 0.000000
O O14 0.500000 0.720648 0.500000
O O15 0.110120 0.891751 0.000000
#
# Coordination Sequence:
#
# PCOD9483303 Si02
#       6
#     8  16  16  16   8  16
#     4   8  14  26  43  64  92 133 176 212 254 301
#     4  10  20  34  51  72 100 138 180 218 261 314
#     4  11  22  34  51  77 105 133 173 220 268 317
#     4  10  18  31  52  74 101 136 173 211 258 308
#     4  10  18  28  44  73 110 134 161 208 260 307
#     4   8  14  26  45  68  95 128 170 216 254 295
#
# _framework density 17.782360000000001
#
# number of rings (size 3 to 8) (size 9 to 14) (size 15 to 20)
#    0.000    2.400    2.000    3.300    0.000    1.200 
#    0.000    0.500    0.000    3.000    0.000    0.700 
#    0.000   11.200    0.000    0.000    0.000    0.000 
#
# Total GULP energy -223041.618732 kJ/mol
# GULP energy per Si atom -5576.040468 kJ/mol
# Density = 1.774189 g / cm^3
# Si number density = 17.782360 Si / 1000 Ang^3
#
#
#
# Elastic Constant Matrix: (Units=GPa)
#
#
# Indices 1 2 3 4 5 6 
#
# 1 132.1365 47.7925 18.0606 0.0000 0.0000 0.0000
# 2 47.7925 75.9260 11.6212 0.0000 0.0000 0.0000
# 3 18.0606 11.6212 31.1254 0.0000 0.0000 0.0000
# 4 0.0000 0.0000 0.0000 7.8955 0.0000 0.0000
# 5 0.0000 0.0000 0.0000 0.0000 11.4357 0.0000
# 6 0.0000 0.0000 0.0000 0.0000 0.0000 11.5155
#
#
#
# Elastic Compliance Matrix: (Units=1/GPa)
#
#
# Indices 1 2 3 4 5 6 
#
# 1 0.010192 -0.005844 -0.003732 0.000000 0.000000 0.000000
# 2 -0.005844 0.017320 -0.003076 0.000000 0.000000 0.000000
# 3 -0.003732 -0.003076 0.035442 0.000000 0.000000 0.000000
# 4 0.000000 0.000000 0.000000 0.126655 0.000000 0.000000
# 5 0.000000 0.000000 0.000000 0.000000 0.087446 0.000000
# 6 0.000000 0.000000 0.000000 0.000000 0.000000 0.086839
#
#
# Mechanical properties :
#
#
# Convention : Reuss Voigt Hill
#
# Bulk Modulus (GPa) = 26.56003 43.79295 35.17649
# Shear Modulus (GPa) = 12.44564 16.95023 14.69794
#
# Velocity S-wave (km/s) = 2.64841 3.09075 2.87809
# Velocity P-wave (km/s) = 4.93160 6.11700 5.55600
#
# Compressibility (1/GPa) = 0.03765056
#
# Stress axis : x y z
#
# Youngs Moduli (GPa) = 98.11834 57.73620 28.21519
#
# Poissons Ratio (x) = 0.33742 0.10529
# Poissons Ratio (y) = 0.57342 0.08678
# Poissons Ratio (z) = 0.36616 0.17758
#
# Static dielectric constant tensor:
#      x y z
#    x 1.641260 0.000000 0.000000 
#    y 0.000000 1.588970 0.000000 
#    z 0.000000 0.000000 1.624350 
# 
# From -- ./inp_files/13826.got.cif
#   From: 2010.05.17/outbox.cif.g08.bks.cpg/sg65_7_cif.got.tgz:13826.got - 2010.06.03 17:01:31.
