data_PCOD9483821
_publ_section_title
;
Structure prediction by ZEFSAII (Michael W. Deem and Ramdas Pophale) SiO2 
 PCOD9483821
Probable space group: C M M M
;
_chemical_formula_sum "Si O2"
_cell_formula_units_Z 72
_cell_length_a 18.772620
_cell_length_b 8.132891
_cell_length_c 24.831355
_cell_angle_alpha 90.000000
_cell_angle_beta 90.000000
_cell_angle_gamma 90.000000
_cell_volume 3791.143817
_symmetry_space_group_name_H-M "C M M M"
_symmetry_group_IT_number 65
_symmetry_cell_setting 'orthorhombic'
loop_
_space_group_symop_operation_xyz
x,y,z
-x,-y,z
x,-y,-z
-x,y,-z
-x,-y,-z
x,y,-z
-x,y,z
x,-y,z
1/2+x,1/2+y,z
1/2-x,1/2-y,z
1/2+x,1/2-y,-z
1/2-x,1/2+y,-z
1/2-x,1/2-y,-z
1/2+x,1/2+y,-z
1/2-x,1/2+y,z
1/2+x,1/2-y,z
loop_
_atom_site_type_symbol
_atom_site_label
_atom_site_fract_x
_atom_site_fract_y
_atom_site_fract_z
Si Si1 0.917944 0.701554 0.780198
Si Si2 0.832469 0.301166 0.675258
Si Si3 0.666911 0.198631 0.442149
Si Si4 0.332690 0.305837 0.000000
Si Si5 0.832300 0.304329 0.884533
O O1 0.916552 0.500000 0.780322
O O2 0.877724 0.756908 0.726160
O O3 0.876868 0.758639 0.833702
O O4 0.000000 0.752056 0.780508
O O5 0.834583 0.500000 0.675274
O O6 0.750000 0.250000 0.680820
O O7 0.860371 0.244600 0.616305
O O8 0.636529 0.256534 0.500000
O O9 0.750000 0.250000 0.442212
O O10 0.662946 0.000000 0.442310
O O11 0.250000 0.250000 0.000000
O O12 0.362529 0.245414 0.056996
O O13 0.334183 0.500000 0.000000
O O14 0.832629 0.500000 0.882552
O O15 0.750000 0.250000 0.880559
#
# Coordination Sequence:
#
# PCOD9483821 Si02
#       5
#    16  16  16   8  16
#     4   9  18  31  46  65  89 119 153 185 219 261
#     4   9  16  27  45  66  88 115 148 186 223 262
#     4   8  13  21  35  58  86 112 139 175 219 262
#     4  10  18  30  49  72  97 119 143 177 217 262
#     4  10  18  30  50  72  93 116 146 183 219 259
#
# _framework density 18.991629
#
# number of rings (size 3 to 8) (size 9 to 14) (size 15 to 20)
#    0.000    2.889    0.000    3.667    0.000    0.000 
#    0.000    1.667    0.000   10.000    0.000    4.667 
#    0.000    0.000    0.000   36.000    0.000   16.889 
#
# Total GULP energy -200473.496506 kJ/mol
# GULP energy per Si atom -5568.708236 kJ/mol
# Density = 1.894840 g / cm^3
# Si number density = 18.991629 Si / 1000 Ang^3
#
#
#
# Elastic Constant Matrix: (Units=GPa)
#
#
# Indices 1 2 3 4 5 6 
#
# 1 64.9606 4.5710 84.2009 0.0000 0.0000 0.0000
# 2 4.5710 24.3705 18.4613 0.0000 0.0000 0.0000
# 3 84.2009 18.4613 263.0166 0.0000 0.0000 0.0000
# 4 0.0000 0.0000 0.0000 -7.8228 0.0000 0.0000
# 5 0.0000 0.0000 0.0000 0.0000 -2.1145 0.0000
# 6 0.0000 0.0000 0.0000 0.0000 0.0000 10.9072
#
#
#
# Elastic Compliance Matrix: (Units=1/GPa)
#
#
# Indices 1 2 3 4 5 6 
#
# 1 0.026366 0.001530 -0.008548 0.000000 0.000000 0.000000
# 2 0.001530 0.043426 -0.003538 0.000000 0.000000 0.000000
# 3 -0.008548 -0.003538 0.006787 0.000000 0.000000 0.000000
# 4 0.000000 0.000000 0.000000 -0.127831 0.000000 0.000000
# 5 0.000000 0.000000 0.000000 0.000000 -0.472933 0.000000
# 6 0.000000 0.000000 0.000000 0.000000 0.000000 0.091683
#
#
# Mechanical properties :
#
#
# Convention : Reuss Voigt Hill
#
# Bulk Modulus (GPa) = 18.02854 62.97935 40.50395
# Shear Modulus (GPa) = -12.72589 16.53493 1.90452
#
# Velocity S-wave (km/s) = -2.59140 2.95387 1.00250
# Velocity P-wave (km/s) = 0.74814 6.69831 4.76587
#
# Compressibility (1/GPa) = 0.05546760
#
# Stress axis : x y z
#
# Youngs Moduli (GPa) = 37.92719 23.02746 147.34154
#
# Poissons Ratio (x) = -0.03523 1.25950
# Poissons Ratio (y) = -0.05803 0.52129
# Poissons Ratio (z) = 0.32421 0.08147
#
# Static dielectric constant tensor:
#      x y z
#    x 1.613730 0.000000 0.000000 
#    y 0.000000 1.657180 0.000000 
#    z 0.000000 0.000000 1.747270 
# 
# From -- ./inp_files/67035.got.cif
#   From: 2010.05.17/outbox.cif.g08.bks.cpg/sg65_34_cif.got.tgz:67035.got - 2010.06.03 17:01:31.
