data_PCOD9483014
_publ_section_title
;
Structure prediction by ZEFSAII (Michael W. Deem and Ramdas Pophale) SiO2 
 PCOD9483014
Probable space group: C M M M
;
_chemical_formula_sum "Si O2"
_cell_formula_units_Z 72
_cell_length_a 24.066819
_cell_length_b 7.962733
_cell_length_c 18.671258
_cell_angle_alpha 90.000000
_cell_angle_beta 90.000000
_cell_angle_gamma 90.000000
_cell_volume 3578.116078
_symmetry_space_group_name_H-M "C M M M"
_symmetry_group_IT_number 65
_symmetry_cell_setting 'orthorhombic'
loop_
_space_group_symop_operation_xyz
x,y,z
-x,-y,z
x,-y,-z
-x,y,-z
-x,-y,-z
x,y,-z
-x,y,z
x,-y,z
1/2+x,1/2+y,z
1/2-x,1/2-y,z
1/2+x,1/2-y,-z
1/2-x,1/2+y,-z
1/2-x,1/2-y,-z
1/2+x,1/2+y,-z
1/2-x,1/2+y,z
1/2+x,1/2-y,z
loop_
_atom_site_type_symbol
_atom_site_label
_atom_site_fract_x
_atom_site_fract_y
_atom_site_fract_z
Si Si1 0.000000 0.694518 0.719913
Si Si2 0.123479 0.204232 0.922482
Si Si3 0.063812 0.697107 0.500000
Si Si4 0.500000 0.703221 0.118941
Si Si5 0.887587 0.806165 0.649429
Si Si6 0.814214 0.203282 0.778513
O O1 0.945670 0.784848 0.690723
O O2 0.000000 0.500000 0.696014
O O3 0.000000 0.708712 0.804638
O O4 0.154311 0.263967 0.850576
O O5 0.058081 0.245971 0.918106
O O6 0.127113 0.000000 0.921737
O O7 0.145744 0.261782 0.000000
O O8 0.056167 0.500000 0.500000
O O9 0.098894 0.738954 0.429227
O O10 0.000000 0.771910 0.500000
O O11 0.500000 0.500000 0.129219
O O12 0.842674 0.731491 0.705052
O O13 0.873143 0.000000 0.639869
O O14 0.750000 0.250000 0.781581
O O15 0.819757 0.000000 0.777890
#
# Coordination Sequence:
#
# PCOD9483014 Si02
#       6
#     8  16   8   8  16  16
#     4  12  22  32  54  87 119 152 186 234 293 343
#     4   9  17  31  55  86 115 147 191 240 286 340
#     4  11  23  37  58  95 129 150 179 225 286 344
#     4  10  17  32  55  83 115 150 191 233 287 352
#     4  11  22  39  61  86 116 154 196 234 277 339
#     4  10  22  39  59  83 111 150 200 246 287 336
#
# _framework density 20.122320999999999
#
# number of rings (size 3 to 8) (size 9 to 14) (size 15 to 20)
#    0.000    1.667    3.333    2.333    0.000    4.000 
#    0.000    0.556    0.000    2.667    0.000    0.000 
#    0.000    0.000    0.000    0.000    0.000    0.000 
#
# Total GULP energy -200855.558599 kJ/mol
# GULP energy per Si atom -5579.321072 kJ/mol
# Density = 2.007652 g / cm^3
# Si number density = 20.122321 Si / 1000 Ang^3
#
#
#
# Elastic Constant Matrix: (Units=GPa)
#
#
# Indices 1 2 3 4 5 6 
#
# 1 128.7281 0.2714 82.1292 0.0000 0.0000 0.0000
# 2 0.2714 20.1350 21.0287 0.0000 0.0000 0.0000
# 3 82.1292 21.0287 210.6482 0.0000 0.0000 0.0000
# 4 0.0000 0.0000 0.0000 683.0074 0.0000 0.0000
# 5 0.0000 0.0000 0.0000 0.0000 1.3704 0.0000
# 6 0.0000 0.0000 0.0000 0.0000 0.0000 18.6079
#
#
#
# Elastic Compliance Matrix: (Units=1/GPa)
#
#
# Indices 1 2 3 4 5 6 
#
# 1 0.010727 0.004715 -0.004653 0.000000 0.000000 0.000000
# 2 0.004715 0.057518 -0.007580 0.000000 0.000000 0.000000
# 3 -0.004653 -0.007580 0.007318 0.000000 0.000000 0.000000
# 4 0.000000 0.000000 0.000000 0.001464 0.000000 0.000000
# 5 0.000000 0.000000 0.000000 0.000000 0.729700 0.000000
# 6 0.000000 0.000000 0.000000 0.000000 0.000000 0.053741
#
#
# Mechanical properties :
#
#
# Convention : Reuss Voigt Hill
#
# Bulk Modulus (GPa) = 16.52165 62.92997 39.72581
# Shear Modulus (GPa) = 5.58235 157.66928 81.62581
#
# Velocity S-wave (km/s) = 1.66740 8.86146 6.37596
# Velocity P-wave (km/s) = 3.45477 11.66372 8.60168
#
# Compressibility (1/GPa) = 0.06052665
#
# Stress axis : x y z
#
# Youngs Moduli (GPa) = 93.22249 17.38584 136.64683
#
# Poissons Ratio (x) = -0.08197 0.63582
# Poissons Ratio (y) = -0.43954 1.03582
# Poissons Ratio (z) = 0.43377 0.13179
#
# Static dielectric constant tensor:
#      x y z
#    x 1.672390 0.000000 0.000000 
#    y 0.000000 1.719280 0.000000 
#    z 0.000000 0.000000 1.742950 
# 
# From -- ./inp_files/56484.got.cif
#   From: 2010.05.17/outbox.cif.g08.bks.cpg/sg65_29_cif.got.tgz:56484.got - 2010.06.03 17:01:31.
