data_PCOD9483354
_publ_section_title
;
Structure prediction by ZEFSAII (Michael W. Deem and Ramdas Pophale) SiO2 
 PCOD9483354
Probable space group: C M M M
;
_chemical_formula_sum "Si O2"
_cell_formula_units_Z 112
_cell_length_a 16.091375
_cell_length_b 15.661265
_cell_length_c 23.654808
_cell_angle_alpha 90.000000
_cell_angle_beta 90.000000
_cell_angle_gamma 90.000000
_cell_volume 5961.278634
_symmetry_space_group_name_H-M "C M M M"
_symmetry_group_IT_number 65
_symmetry_cell_setting 'orthorhombic'
loop_
_space_group_symop_operation_xyz
x,y,z
-x,-y,z
x,-y,-z
-x,y,-z
-x,-y,-z
x,y,-z
-x,y,z
x,-y,z
1/2+x,1/2+y,z
1/2-x,1/2-y,z
1/2+x,1/2-y,-z
1/2-x,1/2+y,-z
1/2-x,1/2-y,-z
1/2+x,1/2+y,-z
1/2-x,1/2+y,z
1/2+x,1/2-y,z
loop_
_atom_site_type_symbol
_atom_site_label
_atom_site_fract_x
_atom_site_fract_y
_atom_site_fract_z
Si Si1 0.101051 0.095484 0.433985
Si Si2 0.100258 0.598776 0.840451
Si Si3 0.869449 0.906343 0.257412
Si Si4 0.199463 0.335495 0.266289
Si Si5 0.899521 0.095162 0.875390
Si Si6 0.101723 0.267210 0.935695
Si Si7 0.593384 0.734241 0.345927
O O1 0.122159 0.105480 0.500000
O O2 0.129028 0.174673 0.395802
O O3 0.000000 0.095815 0.429893
O O4 0.128113 0.000000 0.415490
O O5 0.125076 0.500000 0.847992
O O6 0.138112 0.635349 0.782768
O O7 0.127314 0.658693 0.892379
O O8 0.000000 0.602101 0.837250
O O9 0.772558 0.902965 0.273537
O O10 0.877358 0.891767 0.190384
O O11 0.910618 0.831491 0.293026
O O12 0.904103 0.000000 0.269844
O O13 0.250000 0.250000 0.248473
O O14 0.151005 0.309740 0.323088
O O15 0.870248 0.174971 0.912299
O O16 0.000000 0.094441 0.878628
O O17 0.870239 0.000000 0.892223
O O18 0.000000 0.266533 0.935592
O O19 0.128724 0.281222 0.000000
O O20 0.500000 0.762869 0.359843
#
# Coordination Sequence:
#
# PCOD9483354 Si02
#       7
#    16  16  16  16  16  16  16
#     4   8  14  25  42  67  99 130 158 191 233 281
#     4  10  20  34  52  71  93 125 165 206 244 285
#     4  10  19  30  46  67  93 124 154 188 232 282
#     4  10  20  32  47  67  95 126 155 193 242 290
#     4   9  17  29  47  72  99 127 160 197 242 299
#     4   9  17  29  46  69  95 121 153 198 248 293
#     4  10  18  28  46  71  97 123 154 192 233 277
#
# _framework density 18.787915000000002
#
# number of rings (size 3 to 8) (size 9 to 14) (size 15 to 20)
#    0.000    2.571    0.000    3.857    0.000    3.143 
#    0.000    2.857    0.000    7.714    0.000    4.000 
#    0.000    1.714    0.000   16.143    0.000    0.000 
#
# Total GULP energy -312240.214743 kJ/mol
# GULP energy per Si atom -5575.718120 kJ/mol
# Density = 1.874515 g / cm^3
# Si number density = 18.787915 Si / 1000 Ang^3
#
#
#
# Elastic Constant Matrix: (Units=GPa)
#
#
# Indices 1 2 3 4 5 6 
#
# 1 30.4880 22.4761 17.4043 0.0000 0.0000 0.0000
# 2 22.4761 95.1266 45.5362 0.0000 0.0000 0.0000
# 3 17.4043 45.5362 89.7867 0.0000 0.0000 0.0000
# 4 0.0000 0.0000 0.0000 -2.7649 0.0000 0.0000
# 5 0.0000 0.0000 0.0000 0.0000 -5.8319 0.0000
# 6 0.0000 0.0000 0.0000 0.0000 0.0000 -1.6138
#
#
#
# Elastic Compliance Matrix: (Units=1/GPa)
#
#
# Indices 1 2 3 4 5 6 
#
# 1 0.040770 -0.007725 -0.003985 0.000000 0.000000 0.000000
# 2 -0.007725 0.015346 -0.006286 0.000000 0.000000 0.000000
# 3 -0.003985 -0.006286 0.015098 0.000000 0.000000 0.000000
# 4 0.000000 0.000000 0.000000 -0.361674 0.000000 0.000000
# 5 0.000000 0.000000 0.000000 0.000000 -0.171471 0.000000
# 6 0.000000 0.000000 0.000000 0.000000 0.000000 -0.619666
#
#
# Mechanical properties :
#
#
# Convention : Reuss Voigt Hill
#
# Bulk Modulus (GPa) = 28.39106 42.91495 35.65301
# Shear Modulus (GPa) = -4.83622 6.62353 0.89365
#
# Velocity S-wave (km/s) = -1.60615 1.87965 0.69042
# Velocity P-wave (km/s) = 3.42119 5.25377 4.43321
#
# Compressibility (1/GPa) = 0.03522235
#
# Stress axis : x y z
#
# Youngs Moduli (GPa) = 24.52789 65.16144 66.23503
#
# Poissons Ratio (x) = 0.50340 0.26394
# Poissons Ratio (y) = 0.18949 0.41633
# Poissons Ratio (z) = 0.09774 0.40958
#
# Static dielectric constant tensor:
#      x y z
#    x 1.686770 0.000000 0.000000 
#    y 0.000000 1.670290 0.000000 
#    z 0.000000 0.000000 1.636670 
# 
# From -- ./inp_files/63952.got.cif
#   From: 2010.05.17/outbox.cif.g08.bks.cpg/sg65_32_cif.got.tgz:63952.got - 2010.06.03 17:01:31.
