data_PCOD9483262
_publ_section_title
;
Structure prediction by ZEFSAII (Michael W. Deem and Ramdas Pophale) SiO2 
 PCOD9483262
Probable space group: C M M M
;
_chemical_formula_sum "Si O2"
_cell_formula_units_Z 88
_cell_length_a 24.565291
_cell_length_b 31.309722
_cell_length_c 8.713798
_cell_angle_alpha 90.000000
_cell_angle_beta 90.000000
_cell_angle_gamma 90.000000
_cell_volume 6702.064648
_symmetry_space_group_name_H-M "C M M M"
_symmetry_group_IT_number 65
_symmetry_cell_setting 'orthorhombic'
loop_
_space_group_symop_operation_xyz
x,y,z
-x,-y,z
x,-y,-z
-x,y,-z
-x,-y,-z
x,y,-z
-x,y,z
x,-y,z
1/2+x,1/2+y,z
1/2-x,1/2-y,z
1/2+x,1/2-y,-z
1/2-x,1/2+y,-z
1/2-x,1/2-y,-z
1/2+x,1/2+y,-z
1/2-x,1/2+y,z
1/2+x,1/2-y,z
loop_
_atom_site_type_symbol
_atom_site_label
_atom_site_fract_x
_atom_site_fract_y
_atom_site_fract_z
Si Si1 0.605087 0.412088 0.185264
Si Si2 0.500000 0.641871 0.814376
Si Si3 0.720775 0.796419 0.323993
Si Si4 0.436001 0.500000 0.316441
Si Si5 0.883752 0.751121 0.315105
Si Si6 0.000000 0.759919 0.184797
Si Si7 0.676392 0.665348 0.182653
O O1 0.553069 0.383758 0.232909
O O2 0.595381 0.458134 0.257450
O O3 0.655720 0.381771 0.228398
O O4 0.604862 0.416728 0.000000
O O5 0.500000 0.690447 0.762872
O O6 0.500000 0.643134 0.000000
O O7 0.718432 0.811645 0.500000
O O8 0.750000 0.750000 0.326215
O O9 0.660394 0.784921 0.267477
O O10 0.761309 0.825844 0.228297
O O11 0.500000 0.500000 0.262505
O O12 0.437239 0.500000 0.500000
O O13 0.884419 0.752361 0.500000
O O14 0.860606 0.796956 0.256518
O O15 0.943376 0.742105 0.249226
O O16 0.000000 0.758054 0.000000
O O17 0.669197 0.669226 0.000000
#
# Coordination Sequence:
#
# PCOD9483262 Si02
#       7
#    16   8  16   8  16   8  16
#     4  10  19  32  46  57  73 102 131 162 207 252
#     4   9  16  28  42  55  74  98 129 163 200 244
#     4   8  16  29  41  55  78 104 128 157 197 241
#     4  11  23  33  41  59  79  97 129 170 205 244
#     4  10  19  29  40  57  81 107 131 158 200 244
#     4  11  19  29  42  60  81 102 135 171 201 238
#     4  10  18  28  44  62  76  96 132 170 201 237
#
# _framework density 13.130281999999999
#
# number of rings (size 3 to 8) (size 9 to 14) (size 15 to 20)
#    0.000    2.273    2.727    2.727    0.000    5.818 
#    0.000    0.000    0.000    0.000    0.000    0.000 
#    0.000    0.000    0.000    0.000    0.000    0.909 
#
# Total GULP energy -245087.291044 kJ/mol
# GULP energy per Si atom -5570.165706 kJ/mol
# Density = 1.310040 g / cm^3
# Si number density = 13.130282 Si / 1000 Ang^3
#
#
#
# Elastic Constant Matrix: (Units=GPa)
#
#
# Indices 1 2 3 4 5 6 
#
# 1 111.3668 48.6175 31.9005 0.0000 0.0000 0.0000
# 2 48.6175 63.1986 25.1406 0.0000 0.0000 0.0000
# 3 31.9005 25.1406 37.8282 0.0000 0.0000 0.0000
# 4 0.0000 0.0000 0.0000 -26.6462 0.0000 0.0000
# 5 0.0000 0.0000 0.0000 0.0000 20.7988 0.0000
# 6 0.0000 0.0000 0.0000 0.0000 0.0000 15.6390
#
#
#
# Elastic Compliance Matrix: (Units=1/GPa)
#
#
# Indices 1 2 3 4 5 6 
#
# 1 0.014642 -0.008635 -0.006609 0.000000 0.000000 0.000000
# 2 -0.008635 0.026602 -0.010398 0.000000 0.000000 0.000000
# 3 -0.006609 -0.010398 0.038919 0.000000 0.000000 0.000000
# 4 0.000000 0.000000 0.000000 -0.037529 0.000000 0.000000
# 5 0.000000 0.000000 0.000000 0.000000 0.048080 0.000000
# 6 0.000000 0.000000 0.000000 0.000000 0.000000 0.063943
#
#
# Mechanical properties :
#
#
# Convention : Reuss Voigt Hill
#
# Bulk Modulus (GPa) = 34.62628 47.07895 40.85262
# Shear Modulus (GPa) = 23.19467 9.07398 16.13432
#
# Velocity S-wave (km/s) = 4.20754 2.63168 3.50921
# Velocity P-wave (km/s) = 7.07340 6.72067 6.89929
#
# Compressibility (1/GPa) = 0.02887980
#
# Stress axis : x y z
#
# Youngs Moduli (GPa) = 68.29691 37.59116 25.69427
#
# Poissons Ratio (x) = 0.32459 0.16981
# Poissons Ratio (y) = 0.58972 0.26717
# Poissons Ratio (z) = 0.45137 0.39087
#
# Static dielectric constant tensor:
#      x y z
#    x 1.454480 0.000000 0.000000 
#    y 0.000000 1.411830 0.000000 
#    z 0.000000 0.000000 1.446820 
# 
# From -- ./inp_files/14994.got.cif
#   From: 2010.05.17/outbox.cif.g08.bks.cpg/sg65_8_cif.got.tgz:14994.got - 2010.06.03 17:01:31.
