data_PCOD9483779
_publ_section_title
;
Structure prediction by ZEFSAII (Michael W. Deem and Ramdas Pophale) SiO2 
 PCOD9483779
Probable space group: C M M M
;
_chemical_formula_sum "Si O2"
_cell_formula_units_Z 104
_cell_length_a 26.304887
_cell_length_b 8.550215
_cell_length_c 24.976944
_cell_angle_alpha 90.000000
_cell_angle_beta 90.000000
_cell_angle_gamma 90.000000
_cell_volume 5617.625404
_symmetry_space_group_name_H-M "C M M M"
_symmetry_group_IT_number 65
_symmetry_cell_setting 'orthorhombic'
loop_
_space_group_symop_operation_xyz
x,y,z
-x,-y,z
x,-y,-z
-x,y,-z
-x,-y,-z
x,y,-z
-x,y,z
x,-y,z
1/2+x,1/2+y,z
1/2-x,1/2-y,z
1/2+x,1/2-y,-z
1/2-x,1/2+y,-z
1/2-x,1/2-y,-z
1/2+x,1/2+y,-z
1/2-x,1/2+y,z
1/2+x,1/2-y,z
loop_
_atom_site_type_symbol
_atom_site_label
_atom_site_fract_x
_atom_site_fract_y
_atom_site_fract_z
Si Si1 0.195330 0.311476 0.438322
Si Si2 0.807277 0.813442 0.887358
Si Si3 0.307479 0.813209 0.000000
Si Si4 0.597392 0.812913 0.626409
Si Si5 0.000000 0.809016 0.936887
Si Si6 0.442767 0.688174 0.268001
Si Si7 0.000000 0.812440 0.562336
Si Si8 0.914676 0.190379 0.149032
O O1 0.187286 0.260680 0.500000
O O2 0.196258 0.500000 0.437902
O O3 0.250000 0.250000 0.420572
O O4 0.149176 0.257861 0.401524
O O5 0.750000 0.750000 0.877446
O O6 0.855016 0.764632 0.851313
O O7 0.802651 0.000000 0.887682
O O8 0.827515 0.756551 0.945268
O O9 0.250000 0.750000 0.000000
O O10 0.308705 0.000000 0.000000
O O11 0.593792 0.759853 0.687833
O O12 0.549816 0.747306 0.593066
O O13 0.595344 0.000000 0.623956
O O14 0.950599 0.759877 0.900988
O O15 0.000000 0.000000 0.938056
O O16 0.000000 0.758884 0.000000
O O17 0.500000 0.728383 0.285081
O O18 0.437769 0.500000 0.268840
O O19 0.436017 0.739309 0.206632
O O20 0.000000 0.761644 0.500000
O O21 0.000000 0.000000 0.563822
O O22 0.915968 0.000000 0.147050
#
# Coordination Sequence:
#
# PCOD9483779 Si02
#       8
#    16  16   8  16   8  16   8  16
#     4   9  19  36  57  81 111 148 186 226 272 323
#     4  10  19  32  51  76 105 136 173 213 262 321
#     4  10  18  30  48  71 100 135 171 208 256 312
#     4  11  22  36  56  83 114 146 185 229 279 329
#     4   9  16  27  48  79 107 128 163 220 277 322
#     4  10  19  35  57  79 107 142 185 231 275 325
#     4  11  23  36  53  82 116 149 184 223 272 325
#     4   9  18  32  52  79 107 137 175 224 275 321
#
# _framework density 18.513159999999999
#
# number of rings (size 3 to 8) (size 9 to 14) (size 15 to 20)
#    0.000    2.154    1.538    3.231    1.077    2.462 
#    0.000    3.846    0.000    3.692    0.000    0.538 
#    0.000    0.000    0.000    0.000    0.000    0.000 
#
# Total GULP energy -289816.126951 kJ/mol
# GULP energy per Si atom -5573.387057 kJ/mol
# Density = 1.847102 g / cm^3
# Si number density = 18.513160 Si / 1000 Ang^3
#
#
#
# Elastic Constant Matrix: (Units=GPa)
#
#
# Indices 1 2 3 4 5 6 
#
# 1 146.2013 25.4560 72.7274 0.0000 0.0000 0.0000
# 2 25.4560 20.6802 15.5550 0.0000 0.0000 0.0000
# 3 72.7274 15.5550 120.9143 0.0000 0.0000 0.0000
# 4 0.0000 0.0000 0.0000 16.5728 0.0000 0.0000
# 5 0.0000 0.0000 0.0000 0.0000 27.1900 0.0000
# 6 0.0000 0.0000 0.0000 0.0000 0.0000 20.5578
#
#
#
# Elastic Compliance Matrix: (Units=1/GPa)
#
#
# Indices 1 2 3 4 5 6 
#
# 1 0.011289 -0.009730 -0.005538 0.000000 0.000000 0.000000
# 2 -0.009730 0.061923 -0.002113 0.000000 0.000000 0.000000
# 3 -0.005538 -0.002113 0.011873 0.000000 0.000000 0.000000
# 4 0.000000 0.000000 0.000000 0.060340 0.000000 0.000000
# 5 0.000000 0.000000 0.000000 0.000000 0.036778 0.000000
# 6 0.000000 0.000000 0.000000 0.000000 0.000000 0.048643
#
#
# Mechanical properties :
#
#
# Convention : Reuss Voigt Hill
#
# Bulk Modulus (GPa) = 19.87251 57.25253 38.56252
# Shear Modulus (GPa) = 17.70632 24.46793 21.08712
#
# Velocity S-wave (km/s) = 3.09596 3.63940 3.37862
# Velocity P-wave (km/s) = 4.85155 6.97515 6.00792
#
# Compressibility (1/GPa) = 0.05032077
#
# Stress axis : x y z
#
# Youngs Moduli (GPa) = 88.58023 16.14918 84.22148
#
# Poissons Ratio (x) = 0.15714 0.46646
# Poissons Ratio (y) = 0.86193 0.17799
# Poissons Ratio (z) = 0.49060 0.03413
#
# Static dielectric constant tensor:
#      x y z
#    x 1.635580 0.000000 0.000000 
#    y 0.000000 1.630430 0.000000 
#    z 0.000000 0.000000 1.665480 
# 
# From -- ./inp_files/71914.got.cif
#   From: 2010.05.17/outbox.cif.g08.bks.cpg/sg65_36_cif.got.tgz:71914.got - 2010.06.03 17:01:31.
