data_PCOD9483291
_publ_section_title
;
Structure prediction by ZEFSAII (Michael W. Deem and Ramdas Pophale) SiO2 
 PCOD9483291
Probable space group: C M M M
;
_chemical_formula_sum "Si O2"
_cell_formula_units_Z 88
_cell_length_a 24.167463
_cell_length_b 19.036454
_cell_length_c 13.195095
_cell_angle_alpha 90.000000
_cell_angle_beta 90.000000
_cell_angle_gamma 90.000000
_cell_volume 6070.572322
_symmetry_space_group_name_H-M "C M M M"
_symmetry_group_IT_number 65
_symmetry_cell_setting 'orthorhombic'
loop_
_space_group_symop_operation_xyz
x,y,z
-x,-y,z
x,-y,-z
-x,y,-z
-x,-y,-z
x,y,-z
-x,y,z
x,-y,z
1/2+x,1/2+y,z
1/2-x,1/2-y,z
1/2+x,1/2-y,-z
1/2-x,1/2+y,-z
1/2-x,1/2-y,-z
1/2+x,1/2+y,-z
1/2-x,1/2+y,z
1/2+x,1/2-y,z
loop_
_atom_site_type_symbol
_atom_site_label
_atom_site_fract_x
_atom_site_fract_y
_atom_site_fract_z
Si Si1 0.617757 0.157422 0.193316
Si Si2 0.934654 0.198034 0.122373
Si Si3 0.261230 0.166802 0.119334
Si Si4 0.066118 0.583003 0.383658
Si Si5 0.651831 0.419493 0.877064
Si Si6 0.436314 0.083929 0.000000
O O1 0.595574 0.236197 0.174199
O O2 0.683548 0.152376 0.181578
O O3 0.596967 0.127649 0.299482
O O4 0.591990 0.112745 0.100949
O O5 0.901462 0.127336 0.150627
O O6 0.000000 0.195652 0.145675
O O7 0.929244 0.207315 0.000000
O O8 0.250000 0.250000 0.125300
O O9 0.207783 0.122057 0.151992
O O10 0.271918 0.150885 0.000000
O O11 0.080371 0.600845 0.500000
O O12 0.077275 0.500000 0.368864
O O13 0.000000 0.592505 0.371783
O O14 0.650490 0.500000 0.840931
O O15 0.652379 0.421561 0.000000
O O16 0.500000 0.108219 0.000000
O O17 0.434966 0.000000 0.000000
#
# Coordination Sequence:
#
# PCOD9483291 Si02
#       6
#    16  16  16  16  16   8
#     4  12  19  30  49  70  97 124 163 199 235 291
#     4  10  18  28  44  67  94 124 157 195 243 290
#     4  10  18  31  46  65  97 132 160 193 236 288
#     4   9  19  35  51  68  95 131 167 201 239 286
#     4   9  18  30  43  61  90 129 168 199 227 275
#     4  11  22  30  39  68 107 131 151 190 242 290
#
# _framework density 14.496162
#
# number of rings (size 3 to 8) (size 9 to 14) (size 15 to 20)
#    0.000    1.909    3.636    2.727    0.000    3.273 
#    0.000    1.818    0.000    0.545    0.000    0.000 
#    0.000    0.727    0.000    3.818    0.000    0.182 
#
# Total GULP energy -245366.985990 kJ/mol
# GULP energy per Si atom -5576.522409 kJ/mol
# Density = 1.446317 g / cm^3
# Si number density = 14.496162 Si / 1000 Ang^3
#
#
#
# Elastic Constant Matrix: (Units=GPa)
#
#
# Indices 1 2 3 4 5 6 
#
# 1 96.6911 44.4764 31.7548 0.0000 0.0000 0.0000
# 2 44.4764 85.7380 32.5774 0.0000 0.0000 0.0000
# 3 31.7548 32.5774 57.9527 0.0000 0.0000 0.0000
# 4 0.0000 0.0000 0.0000 13.6712 0.0000 0.0000
# 5 0.0000 0.0000 0.0000 0.0000 17.1975 0.0000
# 6 0.0000 0.0000 0.0000 0.0000 0.0000 25.7126
#
#
#
# Elastic Compliance Matrix: (Units=1/GPa)
#
#
# Indices 1 2 3 4 5 6 
#
# 1 0.014540 -0.005742 -0.004739 0.000000 0.000000 0.000000
# 2 -0.005742 0.017099 -0.006466 0.000000 0.000000 0.000000
# 3 -0.004739 -0.006466 0.023487 0.000000 0.000000 0.000000
# 4 0.000000 0.000000 0.000000 0.073146 0.000000 0.000000
# 5 0.000000 0.000000 0.000000 0.000000 0.058148 0.000000
# 6 0.000000 0.000000 0.000000 0.000000 0.000000 0.038891
#
#
# Mechanical properties :
#
#
# Convention : Reuss Voigt Hill
#
# Bulk Modulus (GPa) = 47.09884 50.88875 48.99380
# Shear Modulus (GPa) = 18.77711 20.08783 19.43247
#
# Velocity S-wave (km/s) = 3.60295 3.72658 3.66529
# Velocity P-wave (km/s) = 7.06183 7.32788 7.19608
#
# Compressibility (1/GPa) = 0.02123195
#
# Stress axis : x y z
#
# Youngs Moduli (GPa) = 68.77688 58.48419 42.57689
#
# Poissons Ratio (x) = 0.33580 0.20179
# Poissons Ratio (y) = 0.39490 0.27529
# Poissons Ratio (z) = 0.32596 0.37814
#
# Static dielectric constant tensor:
#      x y z
#    x 1.489010 0.000000 0.000000 
#    y 0.000000 1.487210 0.000000 
#    z 0.000000 0.000000 1.439640 
# 
# From -- ./inp_files/44308.got.cif
#   From: 2010.05.17/outbox.cif.g08.bks.cpg/sg65_23_cif.got.tgz:44308.got - 2010.06.03 17:01:31.
