data_PCOD9483825
_publ_section_title
;
Structure prediction by ZEFSAII (Michael W. Deem and Ramdas Pophale) SiO2 
 PCOD9483825
Probable space group: C M M M
;
_chemical_formula_sum "Si O2"
_cell_formula_units_Z 120
_cell_length_a 8.062473
_cell_length_b 28.880047
_cell_length_c 26.446627
_cell_angle_alpha 90.000000
_cell_angle_beta 90.000000
_cell_angle_gamma 90.000000
_cell_volume 6157.954263
_symmetry_space_group_name_H-M "C M M M"
_symmetry_group_IT_number 65
_symmetry_cell_setting 'orthorhombic'
loop_
_space_group_symop_operation_xyz
x,y,z
-x,-y,z
x,-y,-z
-x,y,-z
-x,-y,-z
x,y,-z
-x,y,z
x,-y,z
1/2+x,1/2+y,z
1/2-x,1/2-y,z
1/2+x,1/2-y,-z
1/2-x,1/2+y,-z
1/2-x,1/2-y,-z
1/2+x,1/2+y,-z
1/2-x,1/2+y,z
1/2+x,1/2-y,z
loop_
_atom_site_type_symbol
_atom_site_label
_atom_site_fract_x
_atom_site_fract_y
_atom_site_fract_z
Si Si1 0.305271 0.500000 0.060291
Si Si2 0.690811 0.401452 0.899460
Si Si3 0.701233 0.302804 0.128729
Si Si4 0.802131 0.446106 0.803097
Si Si5 0.802712 0.801882 0.755566
Si Si6 0.802927 0.645348 0.655333
Si Si7 0.202341 0.550387 0.314324
Si Si8 0.197291 0.803287 0.554558
O O1 0.500000 0.500000 0.077515
O O2 0.234118 0.449463 0.077431
O O3 0.301838 0.500000 0.000000
O O4 0.500000 0.399796 0.917439
O O5 0.758070 0.348521 0.903019
O O6 0.701599 0.413177 0.839892
O O7 0.500000 0.304382 0.128511
O O8 0.750000 0.250000 0.113408
O O9 0.761786 0.309419 0.187057
O O10 0.773169 0.500000 0.817093
O O11 0.756440 0.441466 0.744586
O O12 0.000000 0.437282 0.808318
O O13 0.750000 0.750000 0.741607
O O14 0.745750 0.833727 0.709624
O O15 0.000000 0.804806 0.758434
O O16 0.736116 0.593138 0.653630
O O17 0.751635 0.672812 0.605963
O O18 0.000000 0.643890 0.655391
O O19 0.263286 0.500000 0.329562
O O20 0.000000 0.549211 0.315774
O O21 0.261173 0.821817 0.500000
O O22 0.250000 0.750000 0.557133
O O23 0.000000 0.805587 0.553319
#
# Coordination Sequence:
#
# PCOD9483825 Si02
#       8
#     8  16  16  16  16  16  16  16
#     4   9  18  32  51  75 101 129 161 203 256 305
#     4  10  18  30  49  72  97 126 164 207 247 291
#     4   9  19  32  47  69  97 131 168 203 239 284
#     4   9  16  27  45  70  99 130 164 196 236 288
#     4  10  19  31  45  65  98 131 162 195 231 280
#     4  11  20  30  49  73  96 125 160 196 238 282
#     4   8  16  30  46  67  97 131 163 194 226 274
#     4  10  21  37  55  73  94 119 150 192 241 290
#
# _framework density 19.486991
#
# number of rings (size 3 to 8) (size 9 to 14) (size 15 to 20)
#    0.000    2.467    0.667    3.200    0.000    1.867 
#    0.000    0.667    0.000    4.000    0.000    2.800 
#    0.000    0.000    0.000    0.000    0.000    0.000 
#
# Total GULP energy -334218.797845 kJ/mol
# GULP energy per Si atom -5570.313297 kJ/mol
# Density = 1.944264 g / cm^3
# Si number density = 19.486991 Si / 1000 Ang^3
#
#
#
# Elastic Constant Matrix: (Units=GPa)
#
#
# Indices 1 2 3 4 5 6 
#
# 1 21.3136 6.2206 2.9240 0.0000 0.0000 0.0000
# 2 6.2206 155.8065 52.8765 0.0000 0.0000 0.0000
# 3 2.9240 52.8765 29.1094 0.0000 0.0000 0.0000
# 4 0.0000 0.0000 0.0000 20.5204 0.0000 0.0000
# 5 0.0000 0.0000 0.0000 0.0000 16.3069 0.0000
# 6 0.0000 0.0000 0.0000 0.0000 0.0000 8.9637
#
#
#
# Elastic Compliance Matrix: (Units=1/GPa)
#
#
# Indices 1 2 3 4 5 6 
#
# 1 0.047605 -0.000724 -0.003466 0.000000 0.000000 0.000000
# 2 -0.000724 0.016745 -0.030345 0.000000 0.000000 0.000000
# 3 -0.003466 -0.030345 0.089821 0.000000 0.000000 0.000000
# 4 0.000000 0.000000 0.000000 0.048732 0.000000 0.000000
# 5 0.000000 0.000000 0.000000 0.000000 0.061324 0.000000
# 6 0.000000 0.000000 0.000000 0.000000 0.000000 0.111562
#
#
# Mechanical properties :
#
#
# Convention : Reuss Voigt Hill
#
# Bulk Modulus (GPa) = 11.75063 36.69687 24.22375
# Shear Modulus (GPa) = 10.56576 18.77208 14.66892
#
# Velocity S-wave (km/s) = 2.33104 3.10710 2.74661
# Velocity P-wave (km/s) = 3.64528 5.63422 4.74513
#
# Compressibility (1/GPa) = 0.08510185
#
# Stress axis : x y z
#
# Youngs Moduli (GPa) = 21.00605 59.71841 11.13320
#
# Poissons Ratio (x) = 0.04326 0.03859
# Poissons Ratio (y) = 0.01522 0.33783
# Poissons Ratio (z) = 0.07281 1.81213
#
# Static dielectric constant tensor:
#      x y z
#    x 1.719800 0.000000 0.000000 
#    y 0.000000 1.738030 0.000000 
#    z 0.000000 0.000000 1.695920 
# 
# From -- ./inp_files/73995.got.cif
#   From: 2010.05.17/outbox.cif.g08.bks.cpg/sg65_37_cif.got.tgz:73995.got - 2010.06.03 17:01:31.
