data_PCOD9483410
_publ_section_title
;
Structure prediction by ZEFSAII (Michael W. Deem and Ramdas Pophale) SiO2 
 PCOD9483410
Probable space group: C M M M
;
_chemical_formula_sum "Si O2"
_cell_formula_units_Z 80
_cell_length_a 7.655303
_cell_length_b 38.311066
_cell_length_c 19.181179
_cell_angle_alpha 90.000000
_cell_angle_beta 90.000000
_cell_angle_gamma 90.000000
_cell_volume 5625.510239
_symmetry_space_group_name_H-M "C M M M"
_symmetry_group_IT_number 65
_symmetry_cell_setting 'orthorhombic'
loop_
_space_group_symop_operation_xyz
x,y,z
-x,-y,z
x,-y,-z
-x,y,-z
-x,-y,-z
x,y,-z
-x,y,z
x,-y,z
1/2+x,1/2+y,z
1/2-x,1/2-y,z
1/2+x,1/2-y,-z
1/2-x,1/2+y,-z
1/2-x,1/2-y,-z
1/2+x,1/2+y,-z
1/2-x,1/2+y,z
1/2+x,1/2-y,z
loop_
_atom_site_type_symbol
_atom_site_label
_atom_site_fract_x
_atom_site_fract_y
_atom_site_fract_z
Si Si1 0.209916 0.291363 0.574908
Si Si2 0.000000 0.460325 0.915439
Si Si3 0.790617 0.709241 0.000000
Si Si4 0.299045 0.406938 0.081991
Si Si5 0.710301 0.791145 0.727200
Si Si6 0.787718 0.331985 0.136629
O O1 0.275843 0.305347 0.500000
O O2 0.250000 0.250000 0.574577
O O3 0.275692 0.303291 0.650743
O O4 0.000000 0.295639 0.574791
O O5 0.168887 0.437587 0.895786
O O6 0.000000 0.500000 0.889277
O O7 0.000000 0.462162 0.000000
O O8 0.750000 0.750000 0.000000
O O9 0.725955 0.690357 0.930109
O O10 0.000000 0.705501 0.000000
O O11 0.500000 0.417842 0.086474
O O12 0.269566 0.371651 0.124968
O O13 0.260620 0.398711 0.000000
O O14 0.500000 0.793959 0.726134
O O15 0.750000 0.750000 0.736601
O O16 0.773915 0.813811 0.792251
O O17 0.000000 0.331593 0.136734
#
# Coordination Sequence:
#
# PCOD9483410 Si02
#       6
#    16   8   8  16  16  16
#     4   8  13  22  35  50  68  91 123 164 210 256
#     4   9  18  32  50  68  90 108 127 171 213 247
#     4  10  20  28  38  50  68  99 136 179 219 247
#     4  10  19  30  47  66  82 109 142 166 203 252
#     4   9  17  26  37  53  73 100 134 176 218 250
#     4  10  18  29  41  52  75 108 138 174 213 251
#
# _framework density 14.220931999999999
#
# number of rings (size 3 to 8) (size 9 to 14) (size 15 to 20)
#    0.000    2.700    2.000    0.600    0.000    2.000 
#    0.000    2.000    0.000    0.000    0.000    0.000 
#    0.000    0.000    0.000    0.000    0.000    2.000 
#
# Total GULP energy -222793.242490 kJ/mol
# GULP energy per Si atom -5569.831062 kJ/mol
# Density = 1.418856 g / cm^3
# Si number density = 14.220932 Si / 1000 Ang^3
#
#
#
# Elastic Constant Matrix: (Units=GPa)
#
#
# Indices 1 2 3 4 5 6 
#
# 1 42.9962 23.9542 25.6024 0.0000 0.0000 0.0000
# 2 23.9542 94.9785 50.7003 0.0000 0.0000 0.0000
# 3 25.6024 50.7003 124.2204 0.0000 0.0000 0.0000
# 4 0.0000 0.0000 0.0000 3.4459 0.0000 0.0000
# 5 0.0000 0.0000 0.0000 0.0000 0.1839 0.0000
# 6 0.0000 0.0000 0.0000 0.0000 0.0000 10.7101
#
#
#
# Elastic Compliance Matrix: (Units=1/GPa)
#
#
# Indices 1 2 3 4 5 6 
#
# 1 0.028357 -0.005155 -0.003740 0.000000 0.000000 0.000000
# 2 -0.005155 0.014399 -0.004814 0.000000 0.000000 0.000000
# 3 -0.003740 -0.004814 0.010786 0.000000 0.000000 0.000000
# 4 0.000000 0.000000 0.000000 0.290197 0.000000 0.000000
# 5 0.000000 0.000000 0.000000 0.000000 5.437588 0.000000
# 6 0.000000 0.000000 0.000000 0.000000 0.000000 0.093370
#
#
# Mechanical properties :
#
#
# Convention : Reuss Voigt Hill
#
# Bulk Modulus (GPa) = 38.28169 51.41212 44.84690
# Shear Modulus (GPa) = 0.84591 13.66387 7.25489
#
# Velocity S-wave (km/s) = 0.77209 3.10309 2.26111
# Velocity P-wave (km/s) = 5.26996 7.00498 6.19848
#
# Compressibility (1/GPa) = 0.02612215
#
# Stress axis : x y z
#
# Youngs Moduli (GPa) = 35.26436 69.45028 92.71192
#
# Poissons Ratio (x) = 0.35803 0.34679
# Poissons Ratio (y) = 0.18179 0.44635
# Poissons Ratio (z) = 0.13191 0.33436
#
# Static dielectric constant tensor:
#      x y z
#    x 1.505510 0.000000 0.000000 
#    y 0.000000 1.429740 0.000000 
#    z 0.000000 0.000000 1.511650 
# 
# From -- ./inp_files/60562.got.cif
#   From: 2010.05.17/outbox.cif.g08.bks.cpg/sg65_31_cif.got.tgz:60562.got - 2010.06.03 17:01:31.
