data_PCOD9483566
_publ_section_title
;
Structure prediction by ZEFSAII (Michael W. Deem and Ramdas Pophale) SiO2 
 PCOD9483566
Probable space group: C M M M
;
_chemical_formula_sum "Si O2"
_cell_formula_units_Z 112
_cell_length_a 29.837490
_cell_length_b 14.887906
_cell_length_c 13.443594
_cell_angle_alpha 90.000000
_cell_angle_beta 90.000000
_cell_angle_gamma 90.000000
_cell_volume 5971.883030
_symmetry_space_group_name_H-M "C M M M"
_symmetry_group_IT_number 65
_symmetry_cell_setting 'orthorhombic'
loop_
_space_group_symop_operation_xyz
x,y,z
-x,-y,z
x,-y,-z
-x,y,-z
-x,-y,-z
x,y,-z
-x,y,z
x,-y,z
1/2+x,1/2+y,z
1/2-x,1/2-y,z
1/2+x,1/2-y,-z
1/2-x,1/2+y,-z
1/2-x,1/2-y,-z
1/2+x,1/2+y,-z
1/2-x,1/2+y,z
1/2+x,1/2-y,z
loop_
_atom_site_type_symbol
_atom_site_label
_atom_site_fract_x
_atom_site_fract_y
_atom_site_fract_z
Si Si1 0.315965 0.897999 0.619560
Si Si2 0.551391 0.396431 0.378965
Si Si3 0.283447 0.398030 0.311665
Si Si4 0.856749 0.391974 0.114576
Si Si5 0.547804 0.893733 0.121061
Si Si6 0.742610 0.856018 0.886632
Si Si7 0.365745 0.723736 0.620206
O O1 0.317913 0.902024 0.500000
O O2 0.265136 0.869453 0.645872
O O3 0.353042 0.825291 0.650716
O O4 0.323490 0.000000 0.657614
O O5 0.551595 0.395149 0.500000
O O6 0.500000 0.377314 0.347949
O O7 0.562436 0.500000 0.350116
O O8 0.588536 0.324600 0.344903
O O9 0.291311 0.500000 0.345641
O O10 0.276882 0.395698 0.192602
O O11 0.323587 0.335682 0.345489
O O12 0.860286 0.500000 0.111859
O O13 0.904196 0.357090 0.155643
O O14 0.807646 0.371364 0.154669
O O15 0.854185 0.359281 0.000000
O O16 0.500000 0.854385 0.154722
O O17 0.546785 0.000000 0.145821
O O18 0.548607 0.889273 0.000000
O O19 0.750000 0.750000 0.889792
O O20 0.745798 0.891108 0.000000
O O21 0.367101 0.722892 0.500000
#
# Coordination Sequence:
#
# PCOD9483566 Si02
#       7
#    16  16  16  16  16  16  16
#     4   9  18  31  46  67  97 131 163 193 226 270
#     4   8  14  25  42  67  99 130 157 189 235 287
#     4  11  21  31  46  68  93 122 158 199 243 290
#     4   8  13  22  36  53  75 103 133 166 207 255
#     4   7   9  14  27  49  74  96 120 155 199 247
#     4  10  20  32  44  59  83 118 159 199 237 281
#     4  10  18  29  48  72 100 130 157 190 235 288
#
# _framework density 18.754553999999999
#
# number of rings (size 3 to 8) (size 9 to 14) (size 15 to 20)
#    0.000    3.000    0.000    4.286    0.000    3.429 
#    0.000    0.000    0.000    0.429    0.000    7.000 
#    0.000    2.857    0.000    3.000    0.000    1.000 
#
# Total GULP energy -311880.889447 kJ/mol
# GULP energy per Si atom -5569.301597 kJ/mol
# Density = 1.871187 g / cm^3
# Si number density = 18.754554 Si / 1000 Ang^3
#
#
#
# Elastic Constant Matrix: (Units=GPa)
#
#
# Indices 1 2 3 4 5 6 
#
# 1 125.8695 62.3334 10.9157 0.0000 0.0000 0.0000
# 2 62.3334 85.1436 6.0195 0.0000 0.0000 0.0000
# 3 10.9157 6.0195 38.8626 0.0000 0.0000 0.0000
# 4 0.0000 0.0000 0.0000 51.1410 0.0000 0.0000
# 5 0.0000 0.0000 0.0000 0.0000 16.3219 0.0000
# 6 0.0000 0.0000 0.0000 0.0000 0.0000 16.4816
#
#
#
# Elastic Compliance Matrix: (Units=1/GPa)
#
#
# Indices 1 2 3 4 5 6 
#
# 1 0.012637 -0.009100 -0.002140 0.000000 0.000000 0.000000
# 2 -0.009100 0.018428 -0.000298 0.000000 0.000000 0.000000
# 3 -0.002140 -0.000298 0.026379 0.000000 0.000000 0.000000
# 4 0.000000 0.000000 0.000000 0.019554 0.000000 0.000000
# 5 0.000000 0.000000 0.000000 0.000000 0.061267 0.000000
# 6 0.000000 0.000000 0.000000 0.000000 0.000000 0.060674
#
#
# Mechanical properties :
#
#
# Convention : Reuss Voigt Hill
#
# Bulk Modulus (GPa) = 29.09748 45.37923 37.23835
# Shear Modulus (GPa) = 21.41592 28.16272 24.78932
#
# Velocity S-wave (km/s) = 3.38287 3.87931 3.63957
# Velocity P-wave (km/s) = 5.55041 6.65690 6.12868
#
# Compressibility (1/GPa) = 0.03436723
#
# Stress axis : x y z
#
# Youngs Moduli (GPa) = 79.13322 54.26482 37.90899
#
# Poissons Ratio (x) = 0.49382 0.08112
# Poissons Ratio (y) = 0.72012 0.01131
# Poissons Ratio (z) = 0.16934 0.01619
#
# Static dielectric constant tensor:
#      x y z
#    x 1.683790 0.000000 0.000000 
#    y 0.000000 1.651280 0.000000 
#    z 0.000000 0.000000 1.674300 
# 
# From -- ./inp_files/47038.got.cif
#   From: 2010.05.17/outbox.cif.g08.bks.cpg/sg65_24_cif.got.tgz:47038.got - 2010.06.03 17:01:31.
