data_PCOD9483804
_publ_section_title
;
Structure prediction by ZEFSAII (Michael W. Deem and Ramdas Pophale) SiO2 
 PCOD9483804
Probable space group: C M M M
;
_chemical_formula_sum "Si O2"
_cell_formula_units_Z 104
_cell_length_a 24.658499
_cell_length_b 28.863939
_cell_length_c 9.141488
_cell_angle_alpha 90.000000
_cell_angle_beta 90.000000
_cell_angle_gamma 90.000000
_cell_volume 6506.375567
_symmetry_space_group_name_H-M "C M M M"
_symmetry_group_IT_number 65
_symmetry_cell_setting 'orthorhombic'
loop_
_space_group_symop_operation_xyz
x,y,z
-x,-y,z
x,-y,-z
-x,y,-z
-x,-y,-z
x,y,-z
-x,y,z
x,-y,z
1/2+x,1/2+y,z
1/2-x,1/2-y,z
1/2+x,1/2-y,-z
1/2-x,1/2+y,-z
1/2-x,1/2-y,-z
1/2+x,1/2+y,-z
1/2-x,1/2+y,z
1/2+x,1/2-y,z
loop_
_atom_site_type_symbol
_atom_site_label
_atom_site_fract_x
_atom_site_fract_y
_atom_site_fract_z
Si Si1 0.562217 0.500000 0.677910
Si Si2 0.644867 0.054273 0.174531
Si Si3 0.436431 0.125104 0.676601
Si Si4 0.064113 0.177116 0.174323
Si Si5 0.434244 0.771100 0.332110
Si Si6 0.125769 0.092816 0.676698
Si Si7 0.741724 0.554750 0.326651
O O1 0.500000 0.500000 0.727221
O O2 0.562405 0.500000 0.500000
O O3 0.593029 0.546628 0.722644
O O4 0.600448 0.086828 0.248541
O O5 0.704430 0.065860 0.236879
O O6 0.634916 0.000000 0.210009
O O7 0.643877 0.059353 0.000000
O O8 0.432784 0.122048 0.500000
O O9 0.500000 0.119615 0.715523
O O10 0.417947 0.177379 0.717257
O O11 0.081201 0.227662 0.233399
O O12 0.099024 0.137228 0.249858
O O13 0.000000 0.170769 0.211414
O O14 0.069211 0.175105 0.000000
O O15 0.416365 0.763793 0.500000
O O16 0.500000 0.772521 0.334342
O O17 0.121790 0.096583 0.500000
O O18 0.188731 0.084112 0.713330
O O19 0.752300 0.560927 0.500000
O O20 0.728960 0.500000 0.305440
#
# Coordination Sequence:
#
# PCOD9483804 Si02
#       7
#     8  16  16  16  16  16  16
#     4   9  16  26  43  69  97 123 156 201 250 295
#     4  10  21  34  49  73 104 136 166 194 233 288
#     4   9  18  33  54  79 103 128 160 198 242 287
#     4  10  20  31  44  68 101 133 164 198 242 296
#     4   8  15  30  51  72  94 123 161 201 239 285
#     4  10  18  30  49  71  93 124 166 210 252 291
#     4   9  17  32  52  71  92 122 168 215 248 284
#
# _framework density 15.984321
#
# number of rings (size 3 to 8) (size 9 to 14) (size 15 to 20)
#    0.000    2.692    0.769    2.308    0.000    4.308 
#    0.000    3.462    0.000    2.308    0.000    6.462 
#    0.000    0.000    0.000    0.000    0.000    0.000 
#
# Total GULP energy -289841.222277 kJ/mol
# GULP energy per Si atom -5573.869659 kJ/mol
# Density = 1.594794 g / cm^3
# Si number density = 15.984321 Si / 1000 Ang^3
#
#
#
# Elastic Constant Matrix: (Units=GPa)
#
#
# Indices 1 2 3 4 5 6 
#
# 1 100.4077 88.0476 50.1020 0.0000 0.0000 0.0000
# 2 88.0476 138.7527 59.4679 0.0000 0.0000 0.0000
# 3 50.1020 59.4679 40.8628 0.0000 0.0000 0.0000
# 4 0.0000 0.0000 0.0000 17.6030 0.0000 0.0000
# 5 0.0000 0.0000 0.0000 0.0000 18.2614 0.0000
# 6 0.0000 0.0000 0.0000 0.0000 0.0000 5.8192
#
#
#
# Elastic Compliance Matrix: (Units=1/GPa)
#
#
# Indices 1 2 3 4 5 6 
#
# 1 0.028910 -0.008380 -0.023251 0.000000 0.000000 0.000000
# 2 -0.008380 0.021583 -0.021135 0.000000 0.000000 0.000000
# 3 -0.023251 -0.021135 0.083738 0.000000 0.000000 0.000000
# 4 0.000000 0.000000 0.000000 0.056808 0.000000 0.000000
# 5 0.000000 0.000000 0.000000 0.000000 0.054760 0.000000
# 6 0.000000 0.000000 0.000000 0.000000 0.000000 0.171844
#
#
# Mechanical properties :
#
#
# Convention : Reuss Voigt Hill
#
# Bulk Modulus (GPa) = 34.84451 75.02870 54.93661
# Shear Modulus (GPa) = 9.38542 13.83044 11.60793
#
# Velocity S-wave (km/s) = 2.42578 2.94471 2.69775
# Velocity P-wave (km/s) = 5.44907 7.65523 6.64436
#
# Compressibility (1/GPa) = 0.02869892
#
# Stress axis : x y z
#
# Youngs Moduli (GPa) = 34.59063 46.33266 11.94205
#
# Poissons Ratio (x) = 0.38827 0.27766
# Poissons Ratio (y) = 0.28987 0.25240
# Poissons Ratio (z) = 0.80425 0.97925
#
# Static dielectric constant tensor:
#      x y z
#    x 1.516010 0.000000 0.000000 
#    y 0.000000 1.527110 0.000000 
#    z 0.000000 0.000000 1.527430 
# 
# From -- ./inp_files/14704.got.cif
#   From: 2010.05.17/outbox.cif.g08.bks.cpg/sg65_8_cif.got.tgz:14704.got - 2010.06.03 17:01:31.
