data_PCOD9483319
_publ_section_title
;
Structure prediction by ZEFSAII (Michael W. Deem and Ramdas Pophale) SiO2 
 PCOD9483319
Probable space group: C M M M
;
_chemical_formula_sum "Si O2"
_cell_formula_units_Z 92
_cell_length_a 29.663422
_cell_length_b 17.007668
_cell_length_c 11.998196
_cell_angle_alpha 90.000000
_cell_angle_beta 90.000000
_cell_angle_gamma 90.000000
_cell_volume 6053.157469
_symmetry_space_group_name_H-M "C M M M"
_symmetry_group_IT_number 65
_symmetry_cell_setting 'orthorhombic'
loop_
_space_group_symop_operation_xyz
x,y,z
-x,-y,z
x,-y,-z
-x,y,-z
-x,-y,-z
x,y,-z
-x,y,z
x,-y,z
1/2+x,1/2+y,z
1/2-x,1/2-y,z
1/2+x,1/2-y,-z
1/2-x,1/2+y,-z
1/2-x,1/2-y,-z
1/2+x,1/2+y,-z
1/2-x,1/2+y,z
1/2+x,1/2-y,z
loop_
_atom_site_type_symbol
_atom_site_label
_atom_site_fract_x
_atom_site_fract_y
_atom_site_fract_z
Si Si1 0.948374 0.500000 0.788788
Si Si2 0.051443 0.648296 0.628713
Si Si3 0.384257 0.000000 0.000000
Si Si4 0.301824 0.724577 0.182809
Si Si5 0.549629 0.408644 0.635187
Si Si6 0.623752 0.286795 0.367749
Si Si7 0.285292 0.594021 0.000000
Si Si8 0.681771 0.852985 0.000000
O O1 0.942321 0.423739 0.711626
O O2 0.914761 0.500000 0.890688
O O3 0.000000 0.500000 0.829298
O O4 0.053999 0.621383 0.500000
O O5 0.090233 0.712486 0.644829
O O6 0.000000 0.679887 0.643572
O O7 0.354090 0.921848 0.000000
O O8 0.250000 0.750000 0.205412
O O9 0.332049 0.717847 0.292462
O O10 0.301849 0.644567 0.108001
O O11 0.321090 0.794786 0.105587
O O12 0.549102 0.403103 0.500000
O O13 0.500000 0.380869 0.673352
O O14 0.553904 0.500000 0.664309
O O15 0.592285 0.358906 0.671593
O O16 0.634028 0.294643 0.500000
O O17 0.231274 0.607439 0.000000
O O18 0.295402 0.500000 0.000000
#
# Coordination Sequence:
#
# PCOD9483319 Si02
#       8
#     8  16   4  16  16  16   8   8
#     4  10  20  30  41  65  96 122 150 189 239 277
#     4   9  17  30  47  65  90 125 163 196 220 258
#     4  12  19  28  50  68  90 118 150 190 237 294
#     4   9  19  33  48  68  96 118 145 194 237 270
#     4   8  14  25  41  63  92 121 150 187 222 253
#     4  10  18  28  45  70  96 125 155 179 221 285
#     4   9  17  34  55  71  82 107 154 199 234 268
#     4   9  18  33  51  69  84 109 152 200 238 262
#
# _framework density 15.198679
#
# number of rings (size 3 to 8) (size 9 to 14) (size 15 to 20)
#    0.000    2.783    0.435    3.522    0.000    4.174 
#    0.000    0.000    0.000    0.000    0.000    5.478 
#    0.000    8.348    0.000    0.000    0.000    0.000 
#
# Total GULP energy -256112.825625 kJ/mol
# GULP energy per Si atom -5567.670122 kJ/mol
# Density = 1.516409 g / cm^3
# Si number density = 15.198679 Si / 1000 Ang^3
#
#
#
# Elastic Constant Matrix: (Units=GPa)
#
#
# Indices 1 2 3 4 5 6 
#
# 1 102.9242 58.0929 71.2987 0.0000 0.0000 0.0000
# 2 58.0929 97.6833 48.8440 0.0000 0.0000 0.0000
# 3 71.2987 48.8440 82.5911 0.0000 0.0000 0.0000
# 4 0.0000 0.0000 0.0000 8.5513 0.0000 0.0000
# 5 0.0000 0.0000 0.0000 0.0000 25.3656 0.0000
# 6 0.0000 0.0000 0.0000 0.0000 0.0000 19.2315
#
#
#
# Elastic Compliance Matrix: (Units=1/GPa)
#
#
# Indices 1 2 3 4 5 6 
#
# 1 0.026535 -0.006143 -0.019274 0.000000 0.000000 0.000000
# 2 -0.006143 0.015958 -0.004134 0.000000 0.000000 0.000000
# 3 -0.019274 -0.004134 0.031191 0.000000 0.000000 0.000000
# 4 0.000000 0.000000 0.000000 0.116941 0.000000 0.000000
# 5 0.000000 0.000000 0.000000 0.000000 0.039423 0.000000
# 6 0.000000 0.000000 0.000000 0.000000 0.000000 0.051998
#
#
# Mechanical properties :
#
#
# Convention : Reuss Voigt Hill
#
# Bulk Modulus (GPa) = 68.57885 71.07439 69.82662
# Shear Modulus (GPa) = 14.45053 17.62722 16.03887
#
# Velocity S-wave (km/s) = 3.08681 3.40926 3.25203
# Velocity P-wave (km/s) = 7.61079 7.89699 7.75521
#
# Compressibility (1/GPa) = 0.01458176
#
# Stress axis : x y z
#
# Youngs Moduli (GPa) = 37.68667 62.66588 32.06030
#
# Poissons Ratio (x) = 0.38496 0.61792
# Poissons Ratio (y) = 0.23151 0.13254
# Poissons Ratio (z) = 0.72636 0.25907
#
# Static dielectric constant tensor:
#      x y z
#    x 1.498890 0.000000 0.000000 
#    y 0.000000 1.510870 0.000000 
#    z 0.000000 0.000000 1.483210 
# 
# From -- ./inp_files/30875.got.cif
#   From: 2010.05.17/outbox.cif.g08.bks.cpg/sg65_16_cif.got.tgz:30875.got - 2010.06.03 17:01:31.
