data_PCOD9483865
_publ_section_title
;
Structure prediction by ZEFSAII (Michael W. Deem and Ramdas Pophale) SiO2 
 PCOD9483865
Probable space group: C M M M
;
_chemical_formula_sum "Si O2"
_cell_formula_units_Z 80
_cell_length_a 8.274232
_cell_length_b 29.466791
_cell_length_c 18.999497
_cell_angle_alpha 90.000000
_cell_angle_beta 90.000000
_cell_angle_gamma 90.000000
_cell_volume 4632.363597
_symmetry_space_group_name_H-M "C M M M"
_symmetry_group_IT_number 65
_symmetry_cell_setting 'orthorhombic'
loop_
_space_group_symop_operation_xyz
x,y,z
-x,-y,z
x,-y,-z
-x,y,-z
-x,-y,-z
x,y,-z
-x,y,z
x,-y,z
1/2+x,1/2+y,z
1/2-x,1/2-y,z
1/2+x,1/2-y,-z
1/2-x,1/2+y,-z
1/2-x,1/2-y,-z
1/2+x,1/2+y,-z
1/2-x,1/2+y,z
1/2+x,1/2-y,z
loop_
_atom_site_type_symbol
_atom_site_label
_atom_site_fract_x
_atom_site_fract_y
_atom_site_fract_z
Si Si1 0.191571 0.302324 0.000000
Si Si2 0.683764 0.555149 0.500000
Si Si3 0.693354 0.302136 0.150110
Si Si4 0.194528 0.856947 0.285186
Si Si5 0.698385 0.448299 0.346222
Si Si6 0.693889 0.197792 0.421558
O O1 0.250000 0.250000 0.000000
O O2 0.253300 0.321281 0.925782
O O3 0.000000 0.302836 0.000000
O O4 0.673625 0.500000 0.500000
O O5 0.500000 0.573169 0.500000
O O6 0.758142 0.566023 0.575510
O O7 0.500000 0.301707 0.151433
O O8 0.750000 0.250000 0.156394
O O9 0.756159 0.330854 0.216359
O O10 0.248414 0.909123 0.292909
O O11 0.239504 0.830821 0.356654
O O12 0.000000 0.857261 0.280680
O O13 0.500000 0.448897 0.349782
O O14 0.748598 0.500000 0.331208
O O15 0.746596 0.181887 0.500000
O O16 0.500000 0.196577 0.419377
O O17 0.750000 0.250000 0.414434
#
# Coordination Sequence:
#
# PCOD9483865 Si02
#       6
#     8   8  16  16  16  16
#     4  10  18  30  50  72  93 122 153 181 224 273
#     4   7  10  18  34  56  82 111 144 187 234 271
#     4  10  19  31  46  69  99 125 152 185 228 276
#     4  10  20  30  47  73  96 124 158 195 239 282
#     4   8  14  25  41  65  94 121 154 197 241 281
#     4  10  21  35  48  63  88 124 163 201 238 276
#
# _framework density 17.269801999999999
#
# number of rings (size 3 to 8) (size 9 to 14) (size 15 to 20)
#    0.000    2.700    0.000    5.100    1.400    4.400 
#    0.000    0.000    0.000    0.600    0.000    2.100 
#    0.000    5.600    0.000    0.000    0.000    0.000 
#
# Total GULP energy -222921.802007 kJ/mol
# GULP energy per Si atom -5573.045050 kJ/mol
# Density = 1.723050 g / cm^3
# Si number density = 17.269802 Si / 1000 Ang^3
#
#
#
# Elastic Constant Matrix: (Units=GPa)
#
#
# Indices 1 2 3 4 5 6 
#
# 1 25.0065 8.1763 16.0867 0.0000 0.0000 0.0000
# 2 8.1763 86.0604 77.9078 0.0000 0.0000 0.0000
# 3 16.0867 77.9078 152.1665 0.0000 0.0000 0.0000
# 4 0.0000 0.0000 0.0000 12.8901 0.0000 0.0000
# 5 0.0000 0.0000 0.0000 0.0000 19.4334 0.0000
# 6 0.0000 0.0000 0.0000 0.0000 0.0000 7.2650
#
#
#
# Elastic Compliance Matrix: (Units=1/GPa)
#
#
# Indices 1 2 3 4 5 6 
#
# 1 0.042908 0.000056 -0.004565 0.000000 0.000000 0.000000
# 2 0.000056 0.021658 -0.011095 0.000000 0.000000 0.000000
# 3 -0.004565 -0.011095 0.012735 0.000000 0.000000 0.000000
# 4 0.000000 0.000000 0.000000 0.077579 0.000000 0.000000
# 5 0.000000 0.000000 0.000000 0.000000 0.051458 0.000000
# 6 0.000000 0.000000 0.000000 0.000000 0.000000 0.137646
#
#
# Mechanical properties :
#
#
# Convention : Reuss Voigt Hill
#
# Bulk Modulus (GPa) = 21.69506 51.95277 36.82392
# Shear Modulus (GPa) = 12.80229 18.65521 15.72875
#
# Velocity S-wave (km/s) = 2.72566 3.29024 3.02116
# Velocity P-wave (km/s) = 4.74292 6.67702 5.79128
#
# Compressibility (1/GPa) = 0.04609344
#
# Stress axis : x y z
#
# Youngs Moduli (GPa) = 23.30579 46.17217 78.52594
#
# Poissons Ratio (x) = -0.00257 0.35844
# Poissons Ratio (y) = -0.00130 0.87121
# Poissons Ratio (z) = 0.10638 0.51226
#
# Static dielectric constant tensor:
#      x y z
#    x 1.667100 0.000000 0.000000 
#    y 0.000000 1.592870 0.000000 
#    z 0.000000 0.000000 1.619030 
# 
# From -- ./inp_files/50157.got.cif
#   From: 2010.05.17/outbox.cif.g08.bks.cpg/sg65_26_cif.got.tgz:50157.got - 2010.06.03 17:01:31.
