data_PCOD9483021
_publ_section_title
;
Structure prediction by ZEFSAII (Michael W. Deem and Ramdas Pophale) SiO2 
 PCOD9483021
Probable space group: C M M M
;
_chemical_formula_sum "Si O2"
_cell_formula_units_Z 88
_cell_length_a 20.491096
_cell_length_b 13.887020
_cell_length_c 14.169601
_cell_angle_alpha 90.000000
_cell_angle_beta 90.000000
_cell_angle_gamma 90.000000
_cell_volume 4032.105344
_symmetry_space_group_name_H-M "C M M M"
_symmetry_group_IT_number 65
_symmetry_cell_setting 'orthorhombic'
loop_
_space_group_symop_operation_xyz
x,y,z
-x,-y,z
x,-y,-z
-x,y,-z
-x,-y,-z
x,y,-z
-x,y,z
x,-y,z
1/2+x,1/2+y,z
1/2-x,1/2-y,z
1/2+x,1/2-y,-z
1/2-x,1/2+y,-z
1/2-x,1/2-y,-z
1/2+x,1/2+y,-z
1/2-x,1/2+y,z
1/2+x,1/2-y,z
loop_
_atom_site_type_symbol
_atom_site_label
_atom_site_fract_x
_atom_site_fract_y
_atom_site_fract_z
Si Si1 0.815588 0.710909 0.605414
Si Si2 0.666960 0.500000 0.613733
Si Si3 0.078393 0.500000 0.193598
Si Si4 0.071882 0.175696 0.385822
Si Si5 0.191658 0.500000 0.652119
Si Si6 0.656105 0.177871 0.113530
Si Si7 0.801865 0.110782 0.114759
O O1 0.814932 0.755791 0.500000
O O2 0.750000 0.750000 0.653470
O O3 0.886053 0.733839 0.647334
O O4 0.811692 0.598707 0.597575
O O5 0.682102 0.500000 0.500000
O O6 0.621237 0.410004 0.634059
O O7 0.731276 0.500000 0.676582
O O8 0.129449 0.500000 0.280344
O O9 0.100695 0.600487 0.142592
O O10 0.000000 0.500000 0.210743
O O11 0.063894 0.178697 0.500000
O O12 0.000000 0.166149 0.345116
O O13 0.726282 0.131576 0.143961
O O14 0.657958 0.291810 0.144074
O O15 0.656260 0.180054 0.000000
O O16 0.822159 0.000000 0.139044
O O17 0.801927 0.112659 0.000000
#
# Coordination Sequence:
#
# PCOD9483021 Si02
#       7
#    16   8   8  16   8  16  16
#     4  10  19  35  59  83 109 145 191 239 286 349
#     4  10  17  32  59  84 108 140 178 228 293 362
#     4  12  27  42  53  76 118 166 214 258 297 356
#     4   9  17  29  51  86 117 137 170 228 292 348
#     4  12  24  38  54  79 114 152 192 243 298 342
#     4   9  17  33  58  88 118 154 198 244 302 359
#     4   8  13  26  55  93 126 143 171 243 310 356
#
# _framework density 21.824826999999999
#
# number of rings (size 3 to 8) (size 9 to 14) (size 15 to 20)
#    0.000    2.364    2.727    2.455    0.000    2.545 
#    3.273    0.000    0.000    4.636    0.000    2.545 
#    0.000    0.000    0.000    0.000    0.000    2.182 
#
# Total GULP energy -244944.100138 kJ/mol
# GULP energy per Si atom -5566.911367 kJ/mol
# Density = 2.177515 g / cm^3
# Si number density = 21.824827 Si / 1000 Ang^3
#
#
#
# Elastic Constant Matrix: (Units=GPa)
#
#
# Indices 1 2 3 4 5 6 
#
# 1 190.2495 73.2965 33.3029 0.0000 0.0000 0.0000
# 2 73.2965 186.4580 17.6540 0.0000 0.0000 0.0000
# 3 33.3029 17.6540 58.2967 0.0000 0.0000 0.0000
# 4 0.0000 0.0000 0.0000 9.3806 0.0000 0.0000
# 5 0.0000 0.0000 0.0000 0.0000 18.6088 0.0000
# 6 0.0000 0.0000 0.0000 0.0000 0.0000 -335.8977
#
#
#
# Elastic Compliance Matrix: (Units=1/GPa)
#
#
# Indices 1 2 3 4 5 6 
#
# 1 0.006704 -0.002340 -0.003121 0.000000 0.000000 0.000000
# 2 -0.002340 0.006338 -0.000583 0.000000 0.000000 0.000000
# 3 -0.003121 -0.000583 0.019113 0.000000 0.000000 0.000000
# 4 0.000000 0.000000 0.000000 0.106603 0.000000 0.000000
# 5 0.000000 0.000000 0.000000 0.000000 0.053738 0.000000
# 6 0.000000 0.000000 0.000000 0.000000 0.000000 -0.002977
#
#
# Mechanical properties :
#
#
# Convention : Reuss Voigt Hill
#
# Bulk Modulus (GPa) = 49.83114 75.94566 62.88840
# Shear Modulus (GPa) = 24.00428 -40.86494 -8.43033
#
# Velocity S-wave (km/s) = 3.32001 -4.33183 -1.96751
# Velocity P-wave (km/s) = 6.13013 3.13907 4.86992
#
# Compressibility (1/GPa) = 0.02006777
#
# Stress axis : x y z
#
# Youngs Moduli (GPa) = 149.16277 157.77593 52.31999
#
# Poissons Ratio (x) = 0.36917 0.16330
# Poissons Ratio (y) = 0.34902 0.03049
# Poissons Ratio (z) = 0.46557 0.09194
#
# Static dielectric constant tensor:
#      x y z
#    x 1.833770 0.000000 0.000000 
#    y 0.000000 1.890630 0.000000 
#    z 0.000000 0.000000 1.870710 
# 
# From -- ./inp_files/54348.got.cif
#   From: 2010.05.17/outbox.cif.g08.bks.cpg/sg65_28_cif.got.tgz:54348.got - 2010.06.03 17:01:31.
