data_PCOD9483927
_publ_section_title
;
Structure prediction by ZEFSAII (Michael W. Deem and Ramdas Pophale) SiO2 
 PCOD9483927
Probable space group: C M M M
;
_chemical_formula_sum "Si O2"
_cell_formula_units_Z 88
_cell_length_a 8.599640
_cell_length_b 24.229138
_cell_length_c 23.826294
_cell_angle_alpha 90.000000
_cell_angle_beta 90.000000
_cell_angle_gamma 90.000000
_cell_volume 4964.491037
_symmetry_space_group_name_H-M "C M M M"
_symmetry_group_IT_number 65
_symmetry_cell_setting 'orthorhombic'
loop_
_space_group_symop_operation_xyz
x,y,z
-x,-y,z
x,-y,-z
-x,y,-z
-x,-y,-z
x,y,-z
-x,y,z
x,-y,z
1/2+x,1/2+y,z
1/2-x,1/2-y,z
1/2+x,1/2-y,-z
1/2-x,1/2+y,-z
1/2-x,1/2-y,-z
1/2+x,1/2+y,-z
1/2-x,1/2+y,z
1/2+x,1/2-y,z
loop_
_atom_site_type_symbol
_atom_site_label
_atom_site_fract_x
_atom_site_fract_y
_atom_site_fract_z
Si Si1 0.186808 0.812381 0.382631
Si Si2 0.186104 0.500000 0.242731
Si Si3 0.811710 0.617993 0.935971
Si Si4 0.687594 0.617036 0.274029
Si Si5 0.685559 0.812705 0.500000
Si Si6 0.686413 0.311586 0.166056
Si Si7 0.310967 0.000000 0.112613
O O1 0.250000 0.750000 0.375520
O O2 0.233386 0.849348 0.329586
O O3 0.251435 0.836100 0.441381
O O4 0.000000 0.809676 0.385702
O O5 0.246364 0.444352 0.271191
O O6 0.239930 0.500000 0.177452
O O7 0.000000 0.500000 0.242563
O O8 0.745424 0.660687 0.891134
O O9 0.761798 0.556202 0.917859
O O10 0.000000 0.619721 0.933365
O O11 0.764850 0.629326 0.000000
O O12 0.500000 0.614261 0.273179
O O13 0.738454 0.650612 0.218552
O O14 0.500000 0.812042 0.500000
O O15 0.750000 0.750000 0.500000
O O16 0.500000 0.310060 0.166086
O O17 0.750000 0.250000 0.172241
O O18 0.500000 0.000000 0.112147
#
# Coordination Sequence:
#
# PCOD9483927 Si02
#       7
#    16   8  16  16   8  16   8
#     4  10  19  33  54  81 113 149 185 223 267 317
#     4  11  21  34  59  84 107 140 179 221 269 322
#     4  10  20  36  58  81 107 139 176 220 269 323
#     4  10  22  38  56  80 111 144 179 222 272 321
#     4  10  18  30  50  79 114 149 184 224 266 312
#     4  11  23  38  56  78 107 141 178 222 269 323
#     4   9  17  33  56  83 106 132 172 219 268 317
#
# _framework density 17.725885999999999
#
# number of rings (size 3 to 8) (size 9 to 14) (size 15 to 20)
#    0.000    1.818    1.818    4.091    0.000    4.000 
#    0.000    0.455    0.000    1.636    0.000    3.818 
#    0.000    0.000    0.000    0.000    0.000    0.000 
#
# Total GULP energy -245694.413292 kJ/mol
# GULP energy per Si atom -5583.963938 kJ/mol
# Density = 1.768554 g / cm^3
# Si number density = 17.725886 Si / 1000 Ang^3
#
#
#
# Elastic Constant Matrix: (Units=GPa)
#
#
# Indices 1 2 3 4 5 6 
#
# 1 42.1833 31.2422 44.1037 0.0000 0.0000 0.0000
# 2 31.2422 136.2320 80.7832 0.0000 0.0000 0.0000
# 3 44.1037 80.7832 175.4014 0.0000 0.0000 0.0000
# 4 0.0000 0.0000 0.0000 15.1394 0.0000 0.0000
# 5 0.0000 0.0000 0.0000 0.0000 25.5685 0.0000
# 6 0.0000 0.0000 0.0000 0.0000 0.0000 11.4220
#
#
#
# Elastic Compliance Matrix: (Units=1/GPa)
#
#
# Indices 1 2 3 4 5 6 
#
# 1 0.033459 -0.003693 -0.006712 0.000000 0.000000 0.000000
# 2 -0.003693 0.010506 -0.003910 0.000000 0.000000 0.000000
# 3 -0.006712 -0.003910 0.009190 0.000000 0.000000 0.000000
# 4 0.000000 0.000000 0.000000 0.066053 0.000000 0.000000
# 5 0.000000 0.000000 0.000000 0.000000 0.039111 0.000000
# 6 0.000000 0.000000 0.000000 0.000000 0.000000 0.087551
#
#
# Mechanical properties :
#
#
# Convention : Reuss Voigt Hill
#
# Bulk Modulus (GPa) = 40.77598 74.00832 57.39215
# Shear Modulus (GPa) = 17.68822 23.60514 20.64668
#
# Velocity S-wave (km/s) = 3.16234 3.65317 3.41658
# Velocity P-wave (km/s) = 6.03220 7.72246 6.92906
#
# Compressibility (1/GPa) = 0.02452424
#
# Stress axis : x y z
#
# Youngs Moduli (GPa) = 29.88728 95.18441 108.81628
#
# Poissons Ratio (x) = 0.35151 0.73040
# Poissons Ratio (y) = 0.11037 0.42548
# Poissons Ratio (z) = 0.20061 0.37218
#
# Static dielectric constant tensor:
#      x y z
#    x 1.602680 0.000000 0.000000 
#    y 0.000000 1.592930 0.000000 
#    z 0.000000 0.000000 1.615960 
# 
# From -- ./inp_files/67647.got.cif
#   From: 2010.05.17/outbox.cif.g08.bks.cpg/sg65_34_cif.got.tgz:67647.got - 2010.06.03 17:01:31.
