data_PCOD9483868
_publ_section_title
;
Structure prediction by ZEFSAII (Michael W. Deem and Ramdas Pophale) SiO2 
 PCOD9483868
Probable space group: C M M M
;
_chemical_formula_sum "Si O2"
_cell_formula_units_Z 96
_cell_length_a 26.254690
_cell_length_b 25.561130
_cell_length_c 8.543553
_cell_angle_alpha 90.000000
_cell_angle_beta 90.000000
_cell_angle_gamma 90.000000
_cell_volume 5733.574524
_symmetry_space_group_name_H-M "C M M M"
_symmetry_group_IT_number 65
_symmetry_cell_setting 'orthorhombic'
loop_
_space_group_symop_operation_xyz
x,y,z
-x,-y,z
x,-y,-z
-x,y,-z
-x,-y,-z
x,y,-z
-x,y,z
x,-y,z
1/2+x,1/2+y,z
1/2-x,1/2-y,z
1/2+x,1/2-y,-z
1/2-x,1/2+y,-z
1/2-x,1/2-y,-z
1/2+x,1/2+y,-z
1/2-x,1/2+y,z
1/2+x,1/2-y,z
loop_
_atom_site_type_symbol
_atom_site_label
_atom_site_fract_x
_atom_site_fract_y
_atom_site_fract_z
Si Si1 0.746747 0.441115 0.682196
Si Si2 0.056016 0.616090 0.320233
Si Si3 0.853352 0.440731 0.173961
Si Si4 0.055606 0.741751 0.681926
Si Si5 0.169649 0.740591 0.312122
Si Si6 0.744371 0.670951 0.185313
O O1 0.732994 0.437416 0.500000
O O2 0.731959 0.500000 0.739145
O O3 0.807767 0.438335 0.703478
O O4 0.730237 0.388525 0.770483
O O5 0.065329 0.599348 0.500000
O O6 0.100834 0.596778 0.212566
O O7 0.054576 0.678736 0.319894
O O8 0.000000 0.596996 0.272521
O O9 0.873165 0.500000 0.175913
O O10 0.831712 0.430416 0.000000
O O11 0.055952 0.759563 0.500000
O O12 0.112207 0.752514 0.747615
O O13 0.000000 0.758682 0.749446
O O14 0.167145 0.733178 0.500000
O O15 0.199168 0.690010 0.241486
O O16 0.205538 0.789455 0.269760
O O17 0.741604 0.678603 0.000000
#
# Coordination Sequence:
#
# PCOD9483868 Si02
#       6
#    16  16  16  16  16  16
#     4  10  20  34  51  68  87 114 151 191 229 276
#     4   9  17  29  44  60  79 108 148 189 227 268
#     4  10  20  31  42  58  81 109 142 183 232 278
#     4   8  15  28  46  67  88 112 146 189 230 266
#     4  10  18  30  50  72  96 127 163 197 232 278
#     4  11  21  32  47  69 100 129 156 193 236 282
#
# _framework density 16.743480999999999
#
# number of rings (size 3 to 8) (size 9 to 14) (size 15 to 20)
#    0.000    2.333    0.000    6.000    0.000    4.000 
#    0.000    2.500    0.000    4.000    0.000    0.000 
#    0.000    0.667    0.000    7.667    0.000    2.167 
#
# Total GULP energy -267251.903908 kJ/mol
# GULP energy per Si atom -5567.747998 kJ/mol
# Density = 1.670537 g / cm^3
# Si number density = 16.743481 Si / 1000 Ang^3
#
#
#
# Elastic Constant Matrix: (Units=GPa)
#
#
# Indices 1 2 3 4 5 6 
#
# 1 81.4490 7.6816 1.5020 0.0000 0.0000 0.0000
# 2 7.6816 59.7813 2.8191 0.0000 0.0000 0.0000
# 3 1.5020 2.8191 31.4345 0.0000 0.0000 0.0000
# 4 0.0000 0.0000 0.0000 0.1543 0.0000 0.0000
# 5 0.0000 0.0000 0.0000 0.0000 -5.0378 0.0000
# 6 0.0000 0.0000 0.0000 0.0000 0.0000 11.4457
#
#
#
# Elastic Compliance Matrix: (Units=1/GPa)
#
#
# Indices 1 2 3 4 5 6 
#
# 1 0.012435 -0.001576 -0.000453 0.000000 0.000000 0.000000
# 2 -0.001576 0.016999 -0.001449 0.000000 0.000000 0.000000
# 3 -0.000453 -0.001449 0.031964 0.000000 0.000000 0.000000
# 4 0.000000 0.000000 0.000000 6.480026 0.000000 0.000000
# 5 0.000000 0.000000 0.000000 0.000000 -0.198499 0.000000
# 6 0.000000 0.000000 0.000000 0.000000 0.000000 0.087369
#
#
# Mechanical properties :
#
#
# Convention : Reuss Voigt Hill
#
# Bulk Modulus (GPa) = 18.36876 21.85224 20.11050
# Shear Modulus (GPa) = 0.77455 12.02325 6.39890
#
# Velocity S-wave (km/s) = 0.68088 2.68262 1.95704
# Velocity P-wave (km/s) = 3.40773 4.76180 4.14050
#
# Compressibility (1/GPa) = 0.05444027
#
# Stress axis : x y z
#
# Youngs Moduli (GPa) = 80.42050 58.82855 31.28543
#
# Poissons Ratio (x) = 0.09274 0.01417
# Poissons Ratio (y) = 0.12678 0.04534
# Poissons Ratio (z) = 0.03641 0.08525
#
# Static dielectric constant tensor:
#      x y z
#    x 1.591240 0.000000 0.000000 
#    y 0.000000 1.586480 0.000000 
#    z 0.000000 0.000000 1.588770 
# 
# From -- ./inp_files/14588.got.cif
#   From: 2010.05.17/outbox.cif.g08.bks.cpg/sg65_8_cif.got.tgz:14588.got - 2010.06.03 17:01:31.
