data_PCOD9483473
_publ_section_title
;
Structure prediction by ZEFSAII (Michael W. Deem and Ramdas Pophale) SiO2 
 PCOD9483473
Probable space group: C M M M
;
_chemical_formula_sum "Si O2"
_cell_formula_units_Z 128
_cell_length_a 22.556647
_cell_length_b 19.280601
_cell_length_c 16.671837
_cell_angle_alpha 90.000000
_cell_angle_beta 90.000000
_cell_angle_gamma 90.000000
_cell_volume 7250.677119
_symmetry_space_group_name_H-M "C M M M"
_symmetry_group_IT_number 65
_symmetry_cell_setting 'orthorhombic'
loop_
_space_group_symop_operation_xyz
x,y,z
-x,-y,z
x,-y,-z
-x,y,-z
-x,-y,-z
x,y,-z
-x,y,z
x,-y,z
1/2+x,1/2+y,z
1/2-x,1/2-y,z
1/2+x,1/2-y,-z
1/2-x,1/2+y,-z
1/2-x,1/2-y,-z
1/2+x,1/2+y,-z
1/2-x,1/2+y,z
1/2+x,1/2-y,z
loop_
_atom_site_type_symbol
_atom_site_label
_atom_site_fract_x
_atom_site_fract_y
_atom_site_fract_z
Si Si1 0.065504 0.223805 0.407987
Si Si2 0.246867 0.420858 0.366727
Si Si3 0.618159 0.579669 0.379455
Si Si4 0.246670 0.081127 0.174130
Si Si5 0.566464 0.577442 0.792052
Si Si6 0.311016 0.217143 0.594559
Si Si7 0.364803 0.337673 0.903802
Si Si8 0.691358 0.200898 0.906662
O O1 0.063078 0.249175 0.500000
O O2 0.077686 0.141310 0.410771
O O3 0.126049 0.256326 0.371115
O O4 0.000000 0.236815 0.371753
O O5 0.231386 0.500000 0.387073
O O6 0.313123 0.406898 0.400452
O O7 0.253366 0.415805 0.270398
O O8 0.200223 0.364499 0.396183
O O9 0.603441 0.500000 0.401695
O O10 0.610002 0.584208 0.283209
O O11 0.188454 0.115768 0.133815
O O12 0.298833 0.131744 0.143417
O O13 0.251225 0.000000 0.151263
O O14 0.500000 0.583012 0.759454
O O15 0.574305 0.500000 0.825333
O O16 0.578064 0.631403 0.861565
O O17 0.311834 0.235823 0.500000
O O18 0.250000 0.250000 0.630062
O O19 0.357727 0.256733 0.882039
O O20 0.362732 0.343254 0.000000
O O21 0.750000 0.250000 0.901338
O O22 0.684392 0.182372 0.000000
#
# Coordination Sequence:
#
# PCOD9483473 Si02
#       8
#    16  16  16  16  16  16  16  16
#     4  10  21  36  54  77 104 134 170 211 253 300
#     4  10  20  32  50  75 101 130 166 207 252 301
#     4  10  19  33  49  70 103 138 171 208 250 297
#     4  10  18  29  45  68  94 120 154 194 240 297
#     4  10  20  32  45  64  93 130 171 210 242 280
#     4  10  20  35  53  75 102 133 169 208 252 298
#     4  10  19  31  45  63  92 127 163 203 246 290
#     4   8  16  28  41  61  88 118 151 189 237 286
#
# _framework density 17.653523
#
# number of rings (size 3 to 8) (size 9 to 14) (size 15 to 20)
#    0.000    2.250    2.500    1.875    0.000    5.750 
#    0.000    2.500    0.000    0.375    0.000    1.750 
#    0.000    1.500    0.000    2.750    0.000    0.000 
#
# Total GULP energy -356536.551289 kJ/mol
# GULP energy per Si atom -5570.883614 kJ/mol
# Density = 1.761334 g / cm^3
# Si number density = 17.653523 Si / 1000 Ang^3
#
#
#
# Elastic Constant Matrix: (Units=GPa)
#
#
# Indices 1 2 3 4 5 6 
#
# 1 96.7345 43.2647 7.2616 0.0000 0.0000 0.0000
# 2 43.2647 85.3176 13.6267 0.0000 0.0000 0.0000
# 3 7.2616 13.6267 32.4937 0.0000 0.0000 0.0000
# 4 0.0000 0.0000 0.0000 26.3948 0.0000 0.0000
# 5 0.0000 0.0000 0.0000 0.0000 12.5993 0.0000
# 6 0.0000 0.0000 0.0000 0.0000 0.0000 22.9407
#
#
#
# Elastic Compliance Matrix: (Units=1/GPa)
#
#
# Indices 1 2 3 4 5 6 
#
# 1 0.013371 -0.006756 -0.000155 0.000000 0.000000 0.000000
# 2 -0.006756 0.015976 -0.005190 0.000000 0.000000 0.000000
# 3 -0.000155 -0.005190 0.032986 0.000000 0.000000 0.000000
# 4 0.000000 0.000000 0.000000 0.037886 0.000000 0.000000
# 5 0.000000 0.000000 0.000000 0.000000 0.079370 0.000000
# 6 0.000000 0.000000 0.000000 0.000000 0.000000 0.043591
#
#
# Mechanical properties :
#
#
# Convention : Reuss Voigt Hill
#
# Bulk Modulus (GPa) = 26.22489 38.09464 32.15976
# Shear Modulus (GPa) = 19.22408 22.41314 20.81861
#
# Velocity S-wave (km/s) = 3.30353 3.56703 3.43780
# Velocity P-wave (km/s) = 5.42574 6.21215 5.83222
#
# Compressibility (1/GPa) = 0.03813171
#
# Stress axis : x y z
#
# Youngs Moduli (GPa) = 74.79079 62.59562 30.31558
#
# Poissons Ratio (x) = 0.42287 0.00470
# Poissons Ratio (y) = 0.50525 0.15733
# Poissons Ratio (z) = 0.01159 0.32486
#
# Static dielectric constant tensor:
#      x y z
#    x 1.658690 0.000000 0.000000 
#    y 0.000000 1.618470 0.000000 
#    z 0.000000 0.000000 1.627320 
# 
# From -- ./inp_files/56229.got.cif
#   From: 2010.05.17/outbox.cif.g08.bks.cpg/sg65_29_cif.got.tgz:56229.got - 2010.06.03 17:01:31.
