data_PCOD9483084
_publ_section_title
;
Structure prediction by ZEFSAII (Michael W. Deem and Ramdas Pophale) SiO2 
 PCOD9483084
Probable space group: C M M M
;
_chemical_formula_sum "Si O2"
_cell_formula_units_Z 104
_cell_length_a 24.080611
_cell_length_b 24.216187
_cell_length_c 7.817442
_cell_angle_alpha 90.000000
_cell_angle_beta 90.000000
_cell_angle_gamma 90.000000
_cell_volume 4558.667655
_symmetry_space_group_name_H-M "C M M M"
_symmetry_group_IT_number 65
_symmetry_cell_setting 'orthorhombic'
loop_
_space_group_symop_operation_xyz
x,y,z
-x,-y,z
x,-y,-z
-x,y,-z
-x,-y,-z
x,y,-z
-x,y,z
x,-y,z
1/2+x,1/2+y,z
1/2-x,1/2-y,z
1/2+x,1/2-y,-z
1/2-x,1/2+y,-z
1/2-x,1/2-y,-z
1/2+x,1/2+y,-z
1/2-x,1/2+y,z
1/2+x,1/2-y,z
loop_
_atom_site_type_symbol
_atom_site_label
_atom_site_fract_x
_atom_site_fract_y
_atom_site_fract_z
Si Si1 0.107618 0.618976 0.704012
Si Si2 0.084469 0.738082 0.192632
Si Si3 0.219646 0.500000 0.202115
Si Si4 0.194473 0.215030 0.305191
Si Si5 0.564067 0.360252 0.805725
Si Si6 0.068393 0.064383 0.500000
Si Si7 0.592832 0.000000 0.304276
Si Si8 0.764023 0.617614 0.704736
O O1 0.111789 0.611195 0.500000
O O2 0.076700 0.677085 0.731909
O O3 0.080785 0.561301 0.771240
O O4 0.171874 0.624769 0.767997
O O5 0.149972 0.750800 0.201362
O O6 0.063563 0.796941 0.263358
O O7 0.063907 0.735404 0.000000
O O8 0.160323 0.500000 0.299361
O O9 0.250410 0.555063 0.255566
O O10 0.208313 0.500000 0.000000
O O11 0.172622 0.208328 0.500000
O O12 0.250000 0.250000 0.317447
O O13 0.216578 0.158112 0.228065
O O14 0.500000 0.376580 0.822730
O O15 0.588732 0.402029 0.667166
O O16 0.587800 0.360169 0.000000
O O17 0.000000 0.066498 0.500000
O O18 0.083897 0.000000 0.500000
O O19 0.571899 0.000000 0.500000
O O20 0.765770 0.627832 0.500000
#
# Coordination Sequence:
#
# PCOD9483084 Si02
#       8
#    16  16   8  16  16   8   8  16
#     4   9  16  29  48  68  93 129 171 213 251 298
#     4  11  22  32  49  77 105 137 171 212 268 319
#     4  10  18  26  42  64  86 117 158 207 256 289
#     4  10  19  33  50  68  93 130 172 211 252 305
#     4   9  20  38  57  83 118 147 176 221 275 330
#     4   9  18  34  62  94 113 137 179 223 272 330
#     4   8  16  30  44  62  91 129 170 210 254 303
#     4   9  17  31  47  62  86 124 166 202 247 300
#
# _framework density 22.813683000000001
#
# number of rings (size 3 to 8) (size 9 to 14) (size 15 to 20)
#    0.000    2.538    1.538    2.077    2.154    3.692 
#    0.000    1.538    1.692    0.000    0.000    0.538 
#    0.000    4.308    0.000    0.000    0.000    0.000 
#
# Total GULP energy -289714.186583 kJ/mol
# GULP energy per Si atom -5571.426665 kJ/mol
# Density = 2.276176 g / cm^3
# Si number density = 22.813683 Si / 1000 Ang^3
#
#
#
# Elastic Constant Matrix: (Units=GPa)
#
#
# Indices 1 2 3 4 5 6 
#
# 1 32.7065 4.5051 15.1346 0.0000 0.0000 0.0000
# 2 4.5051 216.8869 41.1551 0.0000 0.0000 0.0000
# 3 15.1346 41.1551 58.2304 0.0000 0.0000 0.0000
# 4 0.0000 0.0000 0.0000 182.4686 0.0000 0.0000
# 5 0.0000 0.0000 0.0000 0.0000 0.7448 0.0000
# 6 0.0000 0.0000 0.0000 0.0000 0.0000 23.1395
#
#
#
# Elastic Compliance Matrix: (Units=1/GPa)
#
#
# Indices 1 2 3 4 5 6 
#
# 1 0.035003 0.001154 -0.009913 0.000000 0.000000 0.000000
# 2 0.001154 0.005363 -0.004090 0.000000 0.000000 0.000000
# 3 -0.009913 -0.004090 0.022641 0.000000 0.000000 0.000000
# 4 0.000000 0.000000 0.000000 0.005480 0.000000 0.000000
# 5 0.000000 0.000000 0.000000 0.000000 1.342706 0.000000
# 6 0.000000 0.000000 0.000000 0.000000 0.000000 0.043216
#
#
# Mechanical properties :
#
#
# Convention : Reuss Voigt Hill
#
# Bulk Modulus (GPa) = 26.80414 47.71260 37.25837
# Shear Modulus (GPa) = 3.34999 57.73919 30.54459
#
# Velocity S-wave (km/s) = 1.21309 5.03626 3.66303
# Velocity P-wave (km/s) = 3.70632 7.40122 5.85298
#
# Compressibility (1/GPa) = 0.03730768
#
# Stress axis : x y z
#
# Youngs Moduli (GPa) = 28.56880 186.46765 44.16862
#
# Poissons Ratio (x) = -0.21519 0.43785
# Poissons Ratio (y) = -0.03297 0.18066
# Poissons Ratio (z) = 0.28321 0.76269
#
# Static dielectric constant tensor:
#      x y z
#    x 1.840430 0.000000 0.000000 
#    y 0.000000 1.910940 0.000000 
#    z 0.000000 0.000000 1.865850 
# 
# From -- ./inp_files/16824.got.cif
#   From: 2010.05.17/outbox.cif.g08.bks.cpg/sg65_9_cif.got.tgz:16824.got - 2010.06.03 17:01:31.
