data_PCOD9483279
_publ_section_title
;
Structure prediction by ZEFSAII (Michael W. Deem and Ramdas Pophale) SiO2 
 PCOD9483279
Probable space group: C M M M
;
_chemical_formula_sum "Si O2"
_cell_formula_units_Z 88
_cell_length_a 19.046930
_cell_length_b 29.618936
_cell_length_c 8.917252
_cell_angle_alpha 90.000000
_cell_angle_beta 90.000000
_cell_angle_gamma 90.000000
_cell_volume 5030.665938
_symmetry_space_group_name_H-M "C M M M"
_symmetry_group_IT_number 65
_symmetry_cell_setting 'orthorhombic'
loop_
_space_group_symop_operation_xyz
x,y,z
-x,-y,z
x,-y,-z
-x,y,-z
-x,-y,-z
x,y,-z
-x,y,z
x,-y,z
1/2+x,1/2+y,z
1/2-x,1/2-y,z
1/2+x,1/2-y,-z
1/2-x,1/2+y,-z
1/2-x,1/2-y,-z
1/2+x,1/2+y,-z
1/2-x,1/2+y,z
1/2+x,1/2-y,z
loop_
_atom_site_type_symbol
_atom_site_label
_atom_site_fract_x
_atom_site_fract_y
_atom_site_fract_z
Si Si1 0.355068 0.262640 0.176238
Si Si2 0.500000 0.839379 0.820203
Si Si3 0.704256 0.654947 0.323120
Si Si4 0.418166 0.404586 0.179920
Si Si5 0.000000 0.241716 0.322158
Si Si6 0.345361 0.845959 0.174524
Si Si7 0.584509 0.500000 0.670639
O O1 0.301151 0.293419 0.265852
O O2 0.430806 0.276239 0.241567
O O3 0.349756 0.208667 0.193261
O O4 0.348888 0.272616 0.000000
O O5 0.500000 0.795171 0.716000
O O6 0.575155 0.862852 0.794144
O O7 0.500000 0.825824 0.000000
O O8 0.696620 0.652807 0.500000
O O9 0.639848 0.628940 0.245846
O O10 0.780595 0.637203 0.272432
O O11 0.500000 0.395075 0.224766
O O12 0.398369 0.454278 0.241379
O O13 0.415874 0.403724 0.000000
O O14 0.000000 0.233876 0.500000
O O15 0.329533 0.854600 0.000000
O O16 0.500000 0.500000 0.660994
O O17 0.612302 0.500000 0.500000
#
# Coordination Sequence:
#
# PCOD9483279 Si02
#       7
#    16   8  16  16   8  16   8
#     4  10  20  34  49  63  88 129 170 207 250 303
#     4   8  16  32  52  68  86 119 160 201 242 294
#     4  12  24  33  46  71 102 129 161 210 259 297
#     4  10  21  37  56  76 100 135 174 207 244 298
#     4  10  18  28  44  66  88 113 154 205 248 290
#     4   9  18  34  52  69  91 126 169 208 251 303
#     4   9  17  33  57  81 105 130 159 200 249 299
#
# _framework density 17.492712999999998
#
# number of rings (size 3 to 8) (size 9 to 14) (size 15 to 20)
#    0.000    2.091    0.000    5.455    1.273    8.000 
#    0.000    0.000    0.000    0.000    0.000    0.000 
#    0.000    0.727    0.000    7.818    0.000    3.455 
#
# Total GULP energy -245376.683793 kJ/mol
# GULP energy per Si atom -5576.742813 kJ/mol
# Density = 1.745290 g / cm^3
# Si number density = 17.492713 Si / 1000 Ang^3
#
#
#
# Elastic Constant Matrix: (Units=GPa)
#
#
# Indices 1 2 3 4 5 6 
#
# 1 116.3346 16.7158 53.2087 0.0000 0.0000 0.0000
# 2 16.7158 37.8907 23.3183 0.0000 0.0000 0.0000
# 3 53.2087 23.3183 94.0564 0.0000 0.0000 0.0000
# 4 0.0000 0.0000 0.0000 -10.4314 0.0000 0.0000
# 5 0.0000 0.0000 0.0000 0.0000 16.2525 0.0000
# 6 0.0000 0.0000 0.0000 0.0000 0.0000 18.5237
#
#
#
# Elastic Compliance Matrix: (Units=1/GPa)
#
#
# Indices 1 2 3 4 5 6 
#
# 1 0.011649 -0.001279 -0.006273 0.000000 0.000000 0.000000
# 2 -0.001279 0.031284 -0.007032 0.000000 0.000000 0.000000
# 3 -0.006273 -0.007032 0.015924 0.000000 0.000000 0.000000
# 4 0.000000 0.000000 0.000000 -0.095865 0.000000 0.000000
# 5 0.000000 0.000000 0.000000 0.000000 0.061529 0.000000
# 6 0.000000 0.000000 0.000000 0.000000 0.000000 0.053985
#
#
# Mechanical properties :
#
#
# Convention : Reuss Voigt Hill
#
# Bulk Modulus (GPa) = 33.68301 48.30746 40.99523
# Shear Modulus (GPa) = 42.52819 15.20490 28.86655
#
# Velocity S-wave (km/s) = 4.93606 2.95144 4.06668
# Velocity P-wave (km/s) = 7.19608 6.26820 6.74811
#
# Compressibility (1/GPa) = 0.02968856
#
# Stress axis : x y z
#
# Youngs Moduli (GPa) = 85.84701 31.96569 62.79843
#
# Poissons Ratio (x) = 0.04087 0.39392
# Poissons Ratio (y) = 0.10976 0.44163
# Poissons Ratio (z) = 0.53850 0.22480
#
# Static dielectric constant tensor:
#      x y z
#    x 1.498670 0.000000 0.000000 
#    y 0.000000 1.593110 0.000000 
#    z 0.000000 0.000000 1.582050 
# 
# From -- ./inp_files/10207.got.cif
#   From: 2010.05.17/outbox.cif.g08.bks.cpg/sg65_6_cif.got.tgz:10207.got - 2010.06.03 17:01:31.
