data_PCOD9483849
_publ_section_title
;
Structure prediction by ZEFSAII (Michael W. Deem and Ramdas Pophale) SiO2 
 PCOD9483849
Probable space group: C M M M
;
_chemical_formula_sum "Si O2"
_cell_formula_units_Z 120
_cell_length_a 19.356378
_cell_length_b 13.974901
_cell_length_c 19.941037
_cell_angle_alpha 90.000000
_cell_angle_beta 90.000000
_cell_angle_gamma 90.000000
_cell_volume 5394.119629
_symmetry_space_group_name_H-M "C M M M"
_symmetry_group_IT_number 65
_symmetry_cell_setting 'orthorhombic'
loop_
_space_group_symop_operation_xyz
x,y,z
-x,-y,z
x,-y,-z
-x,y,-z
-x,-y,-z
x,y,-z
-x,y,z
x,-y,z
1/2+x,1/2+y,z
1/2-x,1/2-y,z
1/2+x,1/2-y,-z
1/2-x,1/2+y,-z
1/2-x,1/2-y,-z
1/2+x,1/2+y,-z
1/2-x,1/2+y,z
1/2+x,1/2-y,z
loop_
_atom_site_type_symbol
_atom_site_label
_atom_site_fract_x
_atom_site_fract_y
_atom_site_fract_z
Si Si1 0.367135 0.614295 0.216286
Si Si2 0.925123 0.116753 0.645835
Si Si3 0.359314 0.883547 0.348814
Si Si4 0.500000 0.117602 0.578354
Si Si5 0.807282 0.665088 0.927703
Si Si6 0.417939 0.681142 0.927029
Si Si7 0.286239 0.110530 0.778732
Si Si8 0.217672 0.116487 0.577357
O O1 0.363392 0.500000 0.221633
O O2 0.417354 0.644647 0.276022
O O3 0.389968 0.634457 0.140645
O O4 0.290139 0.654595 0.228975
O O5 0.854541 0.148127 0.610141
O O6 0.000000 0.147075 0.618702
O O7 0.924824 0.000000 0.642242
O O8 0.430164 0.850604 0.383293
O O9 0.345702 0.854360 0.271421
O O10 0.288489 0.854171 0.386286
O O11 0.363421 0.000000 0.352987
O O12 0.500000 0.146232 0.500000
O O13 0.500000 0.000000 0.578563
O O14 0.750000 0.750000 0.925500
O O15 0.881439 0.716121 0.928192
O O16 0.801666 0.612583 0.857487
O O17 0.797125 0.615786 0.000000
O O18 0.500000 0.685559 0.923457
O O19 0.399466 0.635589 0.000000
O O20 0.277913 0.000000 0.758361
O O21 0.219539 0.144175 0.500000
O O22 0.217334 0.000000 0.580643
#
# Coordination Sequence:
#
# PCOD9483849 Si02
#       8
#    16  16  16   8  16  16  16  16
#     4  10  18  30  49  74 104 138 171 205 251 308
#     4   9  16  25  37  57  90 131 168 201 240 286
#     4   9  16  28  43  65  96 129 164 204 256 311
#     4   9  16  26  44  70 101 135 167 207 265 326
#     4  10  20  36  55  74  99 134 172 215 262 304
#     4  10  21  36  53  74 102 135 168 210 264 312
#     4  10  19  32  53  76 102 137 173 213 261 311
#     4   9  15  23  37  57  86 125 162 196 239 294
#
# _framework density 22.246448000000001
#
# number of rings (size 3 to 8) (size 9 to 14) (size 15 to 20)
#    0.000    2.467    2.667    0.800    0.000    3.200 
#    1.200    3.333    0.000    0.000    0.000    1.867 
#    0.000    9.600    0.533    0.000    0.000    0.000 
#
# Total GULP energy -334855.957451 kJ/mol
# GULP energy per Si atom -5580.932624 kJ/mol
# Density = 2.219581 g / cm^3
# Si number density = 22.246448 Si / 1000 Ang^3
#
#
#
# Elastic Constant Matrix: (Units=GPa)
#
#
# Indices 1 2 3 4 5 6 
#
# 1 172.6916 26.8457 86.1172 0.0000 0.0000 0.0000
# 2 26.8457 49.1960 1.3440 0.0000 0.0000 0.0000
# 3 86.1172 1.3440 137.0128 0.0000 0.0000 0.0000
# 4 0.0000 0.0000 0.0000 99.8439 0.0000 0.0000
# 5 0.0000 0.0000 0.0000 0.0000 33.4034 0.0000
# 6 0.0000 0.0000 0.0000 0.0000 0.0000 24.1521
#
#
#
# Elastic Compliance Matrix: (Units=1/GPa)
#
#
# Indices 1 2 3 4 5 6 
#
# 1 0.009540 -0.005044 -0.005947 0.000000 0.000000 0.000000
# 2 -0.005044 0.022999 0.002944 0.000000 0.000000 0.000000
# 3 -0.005947 0.002944 0.011008 0.000000 0.000000 0.000000
# 4 0.000000 0.000000 0.000000 0.010016 0.000000 0.000000
# 5 0.000000 0.000000 0.000000 0.000000 0.029937 0.000000
# 6 0.000000 0.000000 0.000000 0.000000 0.000000 0.041404
#
#
# Mechanical properties :
#
#
# Convention : Reuss Voigt Hill
#
# Bulk Modulus (GPa) = 36.42404 65.27937 50.85170
# Shear Modulus (GPa) = 33.30068 47.78612 40.54340
#
# Velocity S-wave (km/s) = 3.87318 4.63972 4.27367
# Velocity P-wave (km/s) = 6.03411 7.62299 6.87461
#
# Compressibility (1/GPa) = 0.02745439
#
# Stress axis : x y z
#
# Youngs Moduli (GPa) = 104.81828 43.48085 90.84664
#
# Poissons Ratio (x) = 0.21930 0.54026
# Poissons Ratio (y) = 0.52866 -0.26750
# Poissons Ratio (z) = 0.62335 -0.12803
#
# Static dielectric constant tensor:
#      x y z
#    x 1.800460 0.000000 0.000000 
#    y 0.000000 1.882670 0.000000 
#    z 0.000000 0.000000 1.833700 
# 
# From -- ./inp_files/54951.got.cif
#   From: 2010.05.17/outbox.cif.g08.bks.cpg/sg65_28_cif.got.tgz:54951.got - 2010.06.03 17:01:31.
