data_PCOD9483972
_publ_section_title
;
Structure prediction by ZEFSAII (Michael W. Deem and Ramdas Pophale) SiO2 
 PCOD9483972
Probable space group: C M M M
;
_chemical_formula_sum "Si O2"
_cell_formula_units_Z 80
_cell_length_a 26.548606
_cell_length_b 8.914230
_cell_length_c 20.007531
_cell_angle_alpha 90.000000
_cell_angle_beta 90.000000
_cell_angle_gamma 90.000000
_cell_volume 4734.989891
_symmetry_space_group_name_H-M "C M M M"
_symmetry_group_IT_number 65
_symmetry_cell_setting 'orthorhombic'
loop_
_space_group_symop_operation_xyz
x,y,z
-x,-y,z
x,-y,-z
-x,y,-z
-x,-y,-z
x,y,-z
-x,y,z
x,-y,z
1/2+x,1/2+y,z
1/2-x,1/2-y,z
1/2+x,1/2-y,-z
1/2-x,1/2+y,-z
1/2-x,1/2-y,-z
1/2+x,1/2+y,-z
1/2-x,1/2+y,z
1/2+x,1/2-y,z
loop_
_atom_site_type_symbol
_atom_site_label
_atom_site_fract_x
_atom_site_fract_y
_atom_site_fract_z
Si Si1 0.056231 0.171482 0.202065
Si Si2 0.405960 0.177726 0.332101
Si Si3 0.804216 0.180553 0.282430
Si Si4 0.304250 0.823462 0.000000
Si Si5 0.500000 0.817277 0.577171
Si Si6 0.341612 0.325626 0.866723
O O1 0.067840 0.285669 0.261294
O O2 0.099022 0.184902 0.147239
O O3 0.000000 0.190298 0.176651
O O4 0.061076 0.000000 0.229542
O O5 0.351380 0.257659 0.325949
O O6 0.448074 0.229849 0.385884
O O7 0.398000 0.000000 0.340486
O O8 0.750000 0.250000 0.300415
O O9 0.816040 0.219639 0.204130
O O10 0.803042 0.000000 0.286903
O O11 0.250000 0.750000 0.000000
O O12 0.328979 0.768919 0.068727
O O13 0.300813 0.000000 0.000000
O O14 0.500000 0.771381 0.500000
O O15 0.500000 0.000000 0.580180
O O16 0.327908 0.500000 0.878486
#
# Coordination Sequence:
#
# PCOD9483972 Si02
#       6
#    16  16  16   8   8  16
#     4   9  17  31  52  75 101 131 165 208 254 299
#     4  10  18  30  51  78 106 139 174 211 255 301
#     4  10  20  34  53  78 105 134 170 216 263 309
#     4  12  24  36  51  68  91 125 162 207 255 304
#     4   9  18  32  51  79 113 144 175 208 247 299
#     4   9  19  34  51  72  97 128 165 205 252 305
#
# _framework density 16.895496999999999
#
# number of rings (size 3 to 8) (size 9 to 14) (size 15 to 20)
#    0.000    2.300    1.000    3.900    0.000    5.600 
#    0.000    0.500    0.000    8.400    0.000    0.000 
#    0.000    0.000    0.000    0.000    0.000    0.000 
#
# Total GULP energy -222870.071231 kJ/mol
# GULP energy per Si atom -5571.751781 kJ/mol
# Density = 1.685704 g / cm^3
# Si number density = 16.895497 Si / 1000 Ang^3
#
#
#
# Elastic Constant Matrix: (Units=GPa)
#
#
# Indices 1 2 3 4 5 6 
#
# 1 155.6134 48.8468 54.3160 0.0000 0.0000 0.0000
# 2 48.8468 57.3203 43.8197 0.0000 0.0000 0.0000
# 3 54.3160 43.8197 85.5756 0.0000 0.0000 0.0000
# 4 0.0000 0.0000 0.0000 13.8483 0.0000 0.0000
# 5 0.0000 0.0000 0.0000 0.0000 13.6548 0.0000
# 6 0.0000 0.0000 0.0000 0.0000 0.0000 26.4767
#
#
#
# Elastic Compliance Matrix: (Units=1/GPa)
#
#
# Indices 1 2 3 4 5 6 
#
# 1 0.009220 -0.005560 -0.003005 0.000000 0.000000 0.000000
# 2 -0.005560 0.032021 -0.012868 0.000000 0.000000 0.000000
# 3 -0.003005 -0.012868 0.020182 0.000000 0.000000 0.000000
# 4 0.000000 0.000000 0.000000 0.072211 0.000000 0.000000
# 5 0.000000 0.000000 0.000000 0.000000 0.073234 0.000000
# 6 0.000000 0.000000 0.000000 0.000000 0.000000 0.037769
#
#
# Mechanical properties :
#
#
# Convention : Reuss Voigt Hill
#
# Bulk Modulus (GPa) = 53.88621 65.83048 59.85835
# Shear Modulus (GPa) = 17.02480 20.89773 18.96127
#
# Velocity S-wave (km/s) = 3.17780 3.52075 3.35366
# Velocity P-wave (km/s) = 6.74000 7.45490 7.10644
#
# Compressibility (1/GPa) = 0.01855762
#
# Stress axis : x y z
#
# Youngs Moduli (GPa) = 108.45485 31.22981 49.54908
#
# Poissons Ratio (x) = 0.17364 0.14891
# Poissons Ratio (y) = 0.60300 0.63757
# Poissons Ratio (z) = 0.32594 0.40185
#
# Static dielectric constant tensor:
#      x y z
#    x 1.581800 0.000000 0.000000 
#    y 0.000000 1.592830 0.000000 
#    z 0.000000 0.000000 1.465750 
# 
# From -- ./inp_files/57271.got.cif
#   From: 2010.05.17/outbox.cif.g08.bks.cpg/sg65_29_cif.got.tgz:57271.got - 2010.06.03 17:01:31.
