data_PCOD9483598
_publ_section_title
;
Structure prediction by ZEFSAII (Michael W. Deem and Ramdas Pophale) SiO2 
 PCOD9483598
Probable space group: C M M M
;
_chemical_formula_sum "Si O2"
_cell_formula_units_Z 112
_cell_length_a 15.267709
_cell_length_b 25.628956
_cell_length_c 14.923449
_cell_angle_alpha 90.000000
_cell_angle_beta 90.000000
_cell_angle_gamma 90.000000
_cell_volume 5839.477575
_symmetry_space_group_name_H-M "C M M M"
_symmetry_group_IT_number 65
_symmetry_cell_setting 'orthorhombic'
loop_
_space_group_symop_operation_xyz
x,y,z
-x,-y,z
x,-y,-z
-x,y,-z
-x,-y,-z
x,y,-z
-x,y,z
x,-y,z
1/2+x,1/2+y,z
1/2-x,1/2-y,z
1/2+x,1/2-y,-z
1/2-x,1/2+y,-z
1/2-x,1/2-y,-z
1/2+x,1/2+y,-z
1/2-x,1/2+y,z
1/2+x,1/2-y,z
loop_
_atom_site_type_symbol
_atom_site_label
_atom_site_fract_x
_atom_site_fract_y
_atom_site_fract_z
Si Si1 0.724421 0.132338 0.103443
Si Si2 0.900905 0.722046 0.845193
Si Si3 0.903495 0.843359 0.806449
Si Si4 0.642634 0.667557 0.600345
Si Si5 0.602244 0.938188 0.223680
Si Si6 0.400723 0.220813 0.633040
Si Si7 0.328304 0.110949 0.595966
O O1 0.676061 0.188892 0.110453
O O2 0.815741 0.129980 0.157497
O O3 0.656390 0.093100 0.149651
O O4 0.740019 0.120485 0.000000
O O5 0.895759 0.784717 0.847461
O O6 0.892238 0.711517 0.739100
O O7 0.000000 0.707070 0.874567
O O8 0.902359 0.841307 0.697405
O O9 0.000000 0.863774 0.832930
O O10 0.604571 0.656898 0.500000
O O11 0.657189 0.730182 0.603545
O O12 0.729918 0.632919 0.605843
O O13 0.500000 0.923043 0.221034
O O14 0.640901 0.922367 0.320250
O O15 0.608950 0.000000 0.210387
O O16 0.500000 0.237727 0.613706
O O17 0.382457 0.164756 0.593370
O O18 0.337207 0.083619 0.500000
#
# Coordination Sequence:
#
# PCOD9483598 Si02
#       7
#    16  16  16  16  16  16  16
#     4  12  24  40  63  87 115 153 198 248 303 358
#     4   9  18  33  55  85 123 163 198 234 280 340
#     4  10  21  37  58  88 127 164 198 237 281 340
#     4  10  19  32  53  85 123 163 202 235 272 329
#     4  11  25  45  66  88 116 147 188 247 305 357
#     4  10  18  29  48  80 125 165 197 233 272 327
#     4  11  21  34  57  87 120 161 199 232 280 348
#
# _framework density 19.179798000000002
#
# number of rings (size 3 to 8) (size 9 to 14) (size 15 to 20)
#    0.000    1.571    2.857    3.429    0.000    9.429 
#    0.000    2.857    0.000    0.429    0.000    1.000 
#    0.000    2.286    0.000    0.000    0.000    0.000 
#
# Total GULP energy -312318.464838 kJ/mol
# GULP energy per Si atom -5577.115444 kJ/mol
# Density = 1.913614 g / cm^3
# Si number density = 19.179798 Si / 1000 Ang^3
#
#
#
# Elastic Constant Matrix: (Units=GPa)
#
#
# Indices 1 2 3 4 5 6 
#
# 1 125.3835 28.6010 48.5073 0.0000 0.0000 0.0000
# 2 28.6010 38.5667 19.8577 0.0000 0.0000 0.0000
# 3 48.5073 19.8577 104.5530 0.0000 0.0000 0.0000
# 4 0.0000 0.0000 0.0000 -13.5145 0.0000 0.0000
# 5 0.0000 0.0000 0.0000 0.0000 -61.9385 0.0000
# 6 0.0000 0.0000 0.0000 0.0000 0.0000 22.1569
#
#
#
# Elastic Compliance Matrix: (Units=1/GPa)
#
#
# Indices 1 2 3 4 5 6 
#
# 1 0.010861 -0.006052 -0.003889 0.000000 0.000000 0.000000
# 2 -0.006052 0.032112 -0.003291 0.000000 0.000000 0.000000
# 3 -0.003889 -0.003291 0.011994 0.000000 0.000000 0.000000
# 4 0.000000 0.000000 0.000000 -0.073995 0.000000 0.000000
# 5 0.000000 0.000000 0.000000 0.000000 -0.016145 0.000000
# 6 0.000000 0.000000 0.000000 0.000000 0.000000 0.045133
#
#
# Mechanical properties :
#
#
# Convention : Reuss Voigt Hill
#
# Bulk Modulus (GPa) = 35.08553 51.38166 43.23359
# Shear Modulus (GPa) = 108.87423 0.77661 54.82542
#
# Velocity S-wave (km/s) = 7.54243 0.63701 5.35229
# Velocity P-wave (km/s) = 9.70483 5.23342 7.79655
#
# Compressibility (1/GPa) = 0.02850178
#
# Stress axis : x y z
#
# Youngs Moduli (GPa) = 92.07546 31.14134 83.37408
#
# Poissons Ratio (x) = 0.18846 0.32428
# Poissons Ratio (y) = 0.55720 0.27441
# Poissons Ratio (z) = 0.35812 0.10250
#
# Static dielectric constant tensor:
#      x y z
#    x 1.700290 0.000000 0.000000 
#    y 0.000000 1.641780 0.000000 
#    z 0.000000 0.000000 1.691900 
# 
# From -- ./inp_files/41072.got.cif
#   From: 2010.05.17/outbox.cif.g08.bks.cpg/sg65_21_cif.got.tgz:41072.got - 2010.06.03 17:01:31.
