data_PCOD9483788
_publ_section_title
;
Structure prediction by ZEFSAII (Michael W. Deem and Ramdas Pophale) SiO2 
 PCOD9483788
Probable space group: C M M M
;
_chemical_formula_sum "Si O2"
_cell_formula_units_Z 80
_cell_length_a 16.903793
_cell_length_b 24.115290
_cell_length_c 12.919930
_cell_angle_alpha 90.000000
_cell_angle_beta 90.000000
_cell_angle_gamma 90.000000
_cell_volume 5266.678589
_symmetry_space_group_name_H-M "C M M M"
_symmetry_group_IT_number 65
_symmetry_cell_setting 'orthorhombic'
loop_
_space_group_symop_operation_xyz
x,y,z
-x,-y,z
x,-y,-z
-x,y,-z
-x,-y,-z
x,y,-z
-x,y,z
x,-y,z
1/2+x,1/2+y,z
1/2-x,1/2-y,z
1/2+x,1/2-y,-z
1/2-x,1/2+y,-z
1/2-x,1/2-y,-z
1/2+x,1/2+y,-z
1/2-x,1/2+y,z
1/2+x,1/2-y,z
loop_
_atom_site_type_symbol
_atom_site_label
_atom_site_fract_x
_atom_site_fract_y
_atom_site_fract_z
Si Si1 0.148553 0.361120 0.375201
Si Si2 0.593449 0.735721 0.623463
Si Si3 0.593304 0.433513 0.500000
Si Si4 0.325230 0.373356 0.305517
Si Si5 0.407280 0.434078 0.878708
Si Si6 0.500000 0.936358 0.625819
O O1 0.159102 0.365681 0.500000
O O2 0.121613 0.298075 0.354171
O O3 0.231515 0.374203 0.322318
O O4 0.078444 0.402716 0.343610
O O5 0.604806 0.726521 0.500000
O O6 0.500000 0.730429 0.644804
O O7 0.642914 0.689223 0.682176
O O8 0.601083 0.500000 0.500000
O O9 0.500000 0.419442 0.500000
O O10 0.633735 0.407879 0.601456
O O11 0.353237 0.399726 0.198398
O O12 0.500000 0.422360 0.856532
O O13 0.395761 0.500000 0.862580
O O14 0.393339 0.422501 0.000000
O O15 0.500000 0.936576 0.500000
O O16 0.500000 0.000000 0.660880
#
# Coordination Sequence:
#
# PCOD9483788 Si02
#       6
#    16  16   8  16  16   8
#     4  10  19  33  46  71 104 138 171 211 249 300
#     4  10  18  30  49  69 102 140 176 202 246 305
#     4  11  22  32  41  67 111 137 150 189 254 317
#     4  12  20  30  50  77 100 131 170 209 254 304
#     4   9  19  36  54  71  97 134 174 212 249 298
#     4   9  18  32  48  64  95 143 181 210 246 289
#
# _framework density 15.189838999999999
#
# number of rings (size 3 to 8) (size 9 to 14) (size 15 to 20)
#    0.000    1.800    3.000    3.600    0.000    4.800 
#    0.000    0.000    0.000    2.400    0.000    0.700 
#    0.000    2.400    0.000    0.000    0.000    0.000 
#
# Total GULP energy -223279.698869 kJ/mol
# GULP energy per Si atom -5581.992472 kJ/mol
# Density = 1.515527 g / cm^3
# Si number density = 15.189839 Si / 1000 Ang^3
#
#
#
# Elastic Constant Matrix: (Units=GPa)
#
#
# Indices 1 2 3 4 5 6 
#
# 1 153.7484 83.6545 55.8709 0.0000 0.0000 0.0000
# 2 83.6545 111.6970 46.6706 0.0000 0.0000 0.0000
# 3 55.8709 46.6706 49.1830 0.0000 0.0000 0.0000
# 4 0.0000 0.0000 0.0000 21.5543 0.0000 0.0000
# 5 0.0000 0.0000 0.0000 0.0000 21.8560 0.0000
# 6 0.0000 0.0000 0.0000 0.0000 0.0000 9.9035
#
#
#
# Elastic Compliance Matrix: (Units=1/GPa)
#
#
# Indices 1 2 3 4 5 6 
#
# 1 0.013097 -0.005952 -0.009229 0.000000 0.000000 0.000000
# 2 -0.005952 0.017540 -0.009882 0.000000 0.000000 0.000000
# 3 -0.009229 -0.009882 0.040194 0.000000 0.000000 0.000000
# 4 0.000000 0.000000 0.000000 0.046394 0.000000 0.000000
# 5 0.000000 0.000000 0.000000 0.000000 0.045754 0.000000
# 6 0.000000 0.000000 0.000000 0.000000 0.000000 0.100975
#
#
# Mechanical properties :
#
#
# Convention : Reuss Voigt Hill
#
# Bulk Modulus (GPa) = 48.30253 76.33561 62.31907
# Shear Modulus (GPa) = 15.57722 19.22491 17.40106
#
# Velocity S-wave (km/s) = 3.20582 3.56145 3.38830
# Velocity P-wave (km/s) = 6.75065 8.20216 7.51155
#
# Compressibility (1/GPa) = 0.02070285
#
# Stress axis : x y z
#
# Youngs Moduli (GPa) = 76.35555 57.01324 24.87953
#
# Poissons Ratio (x) = 0.33936 0.22962
# Poissons Ratio (y) = 0.45449 0.24586
# Poissons Ratio (z) = 0.70470 0.56341
#
# Static dielectric constant tensor:
#      x y z
#    x 1.496010 0.000000 0.000000 
#    y 0.000000 1.508220 0.000000 
#    z 0.000000 0.000000 1.472400 
# 
# From -- ./inp_files/24645.got.cif
#   From: 2010.05.17/outbox.cif.g08.bks.cpg/sg65_13_cif.got.tgz:24645.got - 2010.06.03 17:01:31.
