data_PCOD9483437
_publ_section_title
;
Structure prediction by ZEFSAII (Michael W. Deem and Ramdas Pophale) SiO2 
 PCOD9483437
Probable space group: C M M M
;
_chemical_formula_sum "Si O2"
_cell_formula_units_Z 104
_cell_length_a 28.021416
_cell_length_b 8.792157
_cell_length_c 27.404149
_cell_angle_alpha 90.000000
_cell_angle_beta 90.000000
_cell_angle_gamma 90.000000
_cell_volume 6751.524258
_symmetry_space_group_name_H-M "C M M M"
_symmetry_group_IT_number 65
_symmetry_cell_setting 'orthorhombic'
loop_
_space_group_symop_operation_xyz
x,y,z
-x,-y,z
x,-y,-z
-x,y,-z
-x,-y,-z
x,y,-z
-x,y,z
x,-y,z
1/2+x,1/2+y,z
1/2-x,1/2-y,z
1/2+x,1/2-y,-z
1/2-x,1/2+y,-z
1/2-x,1/2-y,-z
1/2+x,1/2+y,-z
1/2-x,1/2+y,z
1/2+x,1/2-y,z
loop_
_atom_site_type_symbol
_atom_site_label
_atom_site_fract_x
_atom_site_fract_y
_atom_site_fract_z
Si Si1 0.303068 0.682512 0.500000
Si Si2 0.300797 0.682181 0.203932
Si Si3 0.102984 0.181379 0.850783
Si Si4 0.851130 0.317306 0.701903
Si Si5 0.553672 0.183220 0.756761
Si Si6 0.803706 0.816889 0.392832
Si Si7 0.944434 0.316789 0.055604
O O1 0.299970 0.500000 0.500000
O O2 0.250000 0.750000 0.500000
O O3 0.323421 0.725552 0.553039
O O4 0.297965 0.500000 0.208415
O O5 0.250000 0.750000 0.189553
O O6 0.343236 0.720375 0.166179
O O7 0.316826 0.752422 0.255747
O O8 0.068773 0.249616 0.808966
O O9 0.088207 0.245431 0.902996
O O10 0.098481 0.000000 0.850505
O O11 0.847444 0.500000 0.700915
O O12 0.904819 0.274091 0.718598
O O13 0.835330 0.249307 0.650516
O O14 0.500000 0.230552 0.743550
O O15 0.554481 0.000000 0.760712
O O16 0.750000 0.750000 0.388560
O O17 0.801183 0.000000 0.389150
O O18 0.941762 0.500000 0.058428
O O19 0.000000 0.274663 0.064175
O O20 0.932187 0.272218 0.000000
#
# Coordination Sequence:
#
# PCOD9483437 Si02
#       7
#     8  16  16  16  16  16  16
#     4   8  16  28  42  60  83 114 147 179 216 259
#     4  10  20  33  47  65  90 119 151 184 218 258
#     4  10  20  31  46  70  95 117 144 182 224 262
#     4  10  19  30  45  66  90 117 148 181 220 261
#     4   9  18  32  48  65  88 119 151 180 213 260
#     4  10  18  29  44  63  89 118 148 181 218 260
#     4   9  18  32  49  69  93 121 151 180 213 259
#
# _framework density 15.403929
#
# number of rings (size 3 to 8) (size 9 to 14) (size 15 to 20)
#    0.000    2.462    0.000    3.231    0.000    5.846 
#    0.000    0.769    0.000    0.462    0.000    0.538 
#    0.000    4.308    0.000    0.000    0.000    0.000 
#
# Total GULP energy -289875.655560 kJ/mol
# GULP energy per Si atom -5574.531838 kJ/mol
# Density = 1.536887 g / cm^3
# Si number density = 15.403929 Si / 1000 Ang^3
#
#
#
# Elastic Constant Matrix: (Units=GPa)
#
#
# Indices 1 2 3 4 5 6 
#
# 1 93.4526 31.1240 66.0869 0.0000 0.0000 0.0000
# 2 31.1240 33.5115 39.4285 0.0000 0.0000 0.0000
# 3 66.0869 39.4285 149.0864 0.0000 0.0000 0.0000
# 4 0.0000 0.0000 0.0000 24.3599 0.0000 0.0000
# 5 0.0000 0.0000 0.0000 0.0000 19.3031 0.0000
# 6 0.0000 0.0000 0.0000 0.0000 0.0000 20.8130
#
#
#
# Elastic Compliance Matrix: (Units=1/GPa)
#
#
# Indices 1 2 3 4 5 6 
#
# 1 0.017828 -0.010539 -0.005116 0.000000 0.000000 0.000000
# 2 -0.010539 0.049550 -0.008433 0.000000 0.000000 0.000000
# 3 -0.005116 -0.008433 0.011205 0.000000 0.000000 0.000000
# 4 0.000000 0.000000 0.000000 0.041051 0.000000 0.000000
# 5 0.000000 0.000000 0.000000 0.000000 0.051805 0.000000
# 6 0.000000 0.000000 0.000000 0.000000 0.000000 0.048047
#
#
# Mechanical properties :
#
#
# Convention : Reuss Voigt Hill
#
# Bulk Modulus (GPa) = 32.88502 61.03659 46.96081
# Shear Modulus (GPa) = 17.99867 22.18929 20.09398
#
# Velocity S-wave (km/s) = 3.42196 3.79950 3.61566
# Velocity P-wave (km/s) = 6.08341 7.67844 6.92699
#
# Compressibility (1/GPa) = 0.03040898
#
# Stress axis : x y z
#
# Youngs Moduli (GPa) = 56.09069 20.18149 89.24339
#
# Poissons Ratio (x) = 0.21270 0.45653
# Poissons Ratio (y) = 0.59115 0.75256
# Poissons Ratio (z) = 0.28694 0.17018
#
# Static dielectric constant tensor:
#      x y z
#    x 1.504670 0.000000 0.000000 
#    y 0.000000 1.517050 0.000000 
#    z 0.000000 0.000000 1.511170 
# 
# From -- ./inp_files/76021.got.cif
#   From: 2010.05.17/outbox.cif.g08.bks.cpg/sg65_39_cif.got.tgz:76021.got - 2010.06.03 17:01:31.
