data_PCOD9483577
_publ_section_title
;
Structure prediction by ZEFSAII (Michael W. Deem and Ramdas Pophale) SiO2 
 PCOD9483577
Probable space group: C M M M
;
_chemical_formula_sum "Si O2"
_cell_formula_units_Z 72
_cell_length_a 8.377887
_cell_length_b 15.526310
_cell_length_c 26.893810
_cell_angle_alpha 90.000000
_cell_angle_beta 90.000000
_cell_angle_gamma 90.000000
_cell_volume 3498.284161
_symmetry_space_group_name_H-M "C M M M"
_symmetry_group_IT_number 65
_symmetry_cell_setting 'orthorhombic'
loop_
_space_group_symop_operation_xyz
x,y,z
-x,-y,z
x,-y,-z
-x,y,-z
-x,-y,-z
x,y,-z
-x,y,z
x,-y,z
1/2+x,1/2+y,z
1/2-x,1/2-y,z
1/2+x,1/2-y,-z
1/2-x,1/2+y,-z
1/2-x,1/2-y,-z
1/2+x,1/2+y,-z
1/2-x,1/2+y,z
1/2+x,1/2-y,z
loop_
_atom_site_type_symbol
_atom_site_label
_atom_site_fract_x
_atom_site_fract_y
_atom_site_fract_z
Si Si1 0.308951 0.651536 0.370322
Si Si2 0.691726 0.347701 0.839027
Si Si3 0.685840 0.603072 0.053004
Si Si4 0.810323 0.650664 0.735776
Si Si5 0.195024 0.000000 0.442978
O O1 0.500000 0.654300 0.369808
O O2 0.250000 0.750000 0.376986
O O3 0.252667 0.616122 0.316596
O O4 0.254946 0.585545 0.412993
O O5 0.500000 0.354491 0.839282
O O6 0.750000 0.250000 0.835822
O O7 0.755591 0.376379 0.893018
O O8 0.750931 0.389824 0.787655
O O9 0.500000 0.632390 0.053672
O O10 0.683542 0.500000 0.050833
O O11 0.757068 0.634116 0.000000
O O12 0.750000 0.750000 0.735231
O O13 0.000000 0.650364 0.735793
O O14 0.248596 0.000000 0.500000
O O15 0.000000 0.000000 0.443027
#
# Coordination Sequence:
#
# PCOD9483577 Si02
#       5
#    16  16  16  16   8
#     4  10  19  35  59  84 112 148 187 227 272 323
#     4  10  18  29  48  73 100 127 162 207 257 310
#     4   8  15  29  47  66  90 123 164 208 250 298
#     4  10  18  31  51  74 104 137 171 212 261 315
#     4   9  20  38  59  85 117 151 188 227 266 319
#
# _framework density 20.581519
#
# number of rings (size 3 to 8) (size 9 to 14) (size 15 to 20)
#    0.000    2.556    0.000    6.667    0.000    0.889 
#    2.000    2.222    0.000    8.667    0.000    6.222 
#    0.000    0.000    0.000    0.000    0.000    0.000 
#
# Total GULP energy -200542.479583 kJ/mol
# GULP energy per Si atom -5570.624433 kJ/mol
# Density = 2.053467 g / cm^3
# Si number density = 20.581519 Si / 1000 Ang^3
#
#
#
# Elastic Constant Matrix: (Units=GPa)
#
#
# Indices 1 2 3 4 5 6 
#
# 1 67.7042 10.9208 37.7620 0.0000 0.0000 0.0000
# 2 10.9208 58.8990 68.1199 0.0000 0.0000 0.0000
# 3 37.7620 68.1199 264.0443 0.0000 0.0000 0.0000
# 4 0.0000 0.0000 0.0000 36.5475 0.0000 0.0000
# 5 0.0000 0.0000 0.0000 0.0000 15.6780 0.0000
# 6 0.0000 0.0000 0.0000 0.0000 0.0000 10.9707
#
#
#
# Elastic Compliance Matrix: (Units=1/GPa)
#
#
# Indices 1 2 3 4 5 6 
#
# 1 0.016059 -0.000458 -0.002179 0.000000 0.000000 0.000000
# 2 -0.000458 0.024212 -0.006181 0.000000 0.000000 0.000000
# 3 -0.002179 -0.006181 0.005693 0.000000 0.000000 0.000000
# 4 0.000000 0.000000 0.000000 0.027362 0.000000 0.000000
# 5 0.000000 0.000000 0.000000 0.000000 0.063784 0.000000
# 6 0.000000 0.000000 0.000000 0.000000 0.000000 0.091152
#
#
# Mechanical properties :
#
#
# Convention : Reuss Voigt Hill
#
# Bulk Modulus (GPa) = 35.29907 69.36143 52.33025
# Shear Modulus (GPa) = 19.58185 30.89557 25.23871
#
# Velocity S-wave (km/s) = 3.08787 3.87865 3.50563
# Velocity P-wave (km/s) = 5.46821 7.33707 6.47047
#
# Compressibility (1/GPa) = 0.02832936
#
# Stress axis : x y z
#
# Youngs Moduli (GPa) = 62.27013 41.30267 175.64351
#
# Poissons Ratio (x) = 0.01892 0.38264
# Poissons Ratio (y) = 0.02852 1.08561
# Poissons Ratio (z) = 0.13566 0.25528
#
# Static dielectric constant tensor:
#      x y z
#    x 1.712490 0.000000 0.000000 
#    y 0.000000 1.730310 0.000000 
#    z 0.000000 0.000000 1.835300 
# 
# From -- ./inp_files/67100.got.cif
#   From: 2010.05.17/outbox.cif.g08.bks.cpg/sg65_34_cif.got.tgz:67100.got - 2010.06.03 17:01:31.
