data_PCOD9483537
_publ_section_title
;
Structure prediction by ZEFSAII (Michael W. Deem and Ramdas Pophale) SiO2 
 PCOD9483537
Probable space group: C M M M
;
_chemical_formula_sum "Si O2"
_cell_formula_units_Z 80
_cell_length_a 8.058997
_cell_length_b 26.277912
_cell_length_c 24.585235
_cell_angle_alpha 90.000000
_cell_angle_beta 90.000000
_cell_angle_gamma 90.000000
_cell_volume 5206.504066
_symmetry_space_group_name_H-M "C M M M"
_symmetry_group_IT_number 65
_symmetry_cell_setting 'orthorhombic'
loop_
_space_group_symop_operation_xyz
x,y,z
-x,-y,z
x,-y,-z
-x,y,-z
-x,-y,-z
x,y,-z
-x,y,z
x,-y,z
1/2+x,1/2+y,z
1/2-x,1/2-y,z
1/2+x,1/2-y,-z
1/2-x,1/2+y,-z
1/2-x,1/2-y,-z
1/2+x,1/2+y,-z
1/2-x,1/2+y,z
1/2+x,1/2-y,z
loop_
_atom_site_type_symbol
_atom_site_label
_atom_site_fract_x
_atom_site_fract_y
_atom_site_fract_z
Si Si1 0.000000 0.937892 0.562822
Si Si2 0.684509 0.938103 0.366598
Si Si3 0.698048 0.807299 0.938280
Si Si4 0.300833 0.597409 0.131734
Si Si5 0.199918 0.060230 0.247219
Si Si6 0.796723 0.000000 0.937376
O O1 0.834748 0.921222 0.594843
O O2 0.000000 0.922138 0.500000
O O3 0.000000 0.000000 0.563620
O O4 0.500000 0.921894 0.383555
O O5 0.719287 0.923741 0.304012
O O6 0.687532 0.000000 0.367374
O O7 0.500000 0.809323 0.939835
O O8 0.750000 0.750000 0.923715
O O9 0.758646 0.849773 0.896717
O O10 0.761603 0.817526 0.000000
O O11 0.500000 0.592779 0.134094
O O12 0.242208 0.589935 0.193644
O O13 0.241072 0.550423 0.094491
O O14 0.000000 0.065113 0.253138
O O15 0.233018 0.000000 0.238379
O O16 0.000000 0.000000 0.937339
O O17 0.743085 0.000000 0.000000
#
# Coordination Sequence:
#
# PCOD9483537 Si02
#       6
#     8  16  16  16  16   8
#     4   9  16  26  38  54  78 110 148 192 230 262
#     4   9  16  25  38  56  78 110 148 188 229 266
#     4  10  21  36  51  65  83 110 146 190 235 281
#     4  10  18  29  47  70  89 114 147 183 224 275
#     4   9  15  26  42  60  87 116 147 182 220 267
#     4   9  16  26  41  65  93 117 143 176 221 276
#
# _framework density 15.365396
#
# number of rings (size 3 to 8) (size 9 to 14) (size 15 to 20)
#    0.000    2.600    2.000    1.200    0.000    3.200 
#    0.000    2.500    0.000    1.800    0.000    0.000 
#    0.000    0.000    0.000    0.000    0.000    1.000 
#
# Total GULP energy -222943.293238 kJ/mol
# GULP energy per Si atom -5573.582331 kJ/mol
# Density = 1.533042 g / cm^3
# Si number density = 15.365396 Si / 1000 Ang^3
#
#
#
# Elastic Constant Matrix: (Units=GPa)
#
#
# Indices 1 2 3 4 5 6 
#
# 1 64.7004 15.4418 55.4568 0.0000 0.0000 0.0000
# 2 15.4418 46.8515 43.0542 0.0000 0.0000 0.0000
# 3 55.4568 43.0542 134.6716 0.0000 0.0000 0.0000
# 4 0.0000 0.0000 0.0000 11.1254 0.0000 0.0000
# 5 0.0000 0.0000 0.0000 0.0000 9.3472 0.0000
# 6 0.0000 0.0000 0.0000 0.0000 0.0000 12.1842
#
#
#
# Elastic Compliance Matrix: (Units=1/GPa)
#
#
# Indices 1 2 3 4 5 6 
#
# 1 0.023978 0.001658 -0.010404 0.000000 0.000000 0.000000
# 2 0.001658 0.030338 -0.010382 0.000000 0.000000 0.000000
# 3 -0.010404 -0.010382 0.015029 0.000000 0.000000 0.000000
# 4 0.000000 0.000000 0.000000 0.089885 0.000000 0.000000
# 5 0.000000 0.000000 0.000000 0.000000 0.106984 0.000000
# 6 0.000000 0.000000 0.000000 0.000000 0.000000 0.082074
#
#
# Mechanical properties :
#
#
# Convention : Reuss Voigt Hill
#
# Bulk Modulus (GPa) = 32.16587 52.68101 42.42344
# Shear Modulus (GPa) = 12.59749 15.34940 13.97344
#
# Velocity S-wave (km/s) = 2.86643 3.16406 3.01891
# Velocity P-wave (km/s) = 5.65107 6.90712 6.31042
#
# Compressibility (1/GPa) = 0.03108885
#
# Stress axis : x y z
#
# Youngs Moduli (GPa) = 41.70554 32.96221 66.53957
#
# Poissons Ratio (x) = -0.05464 0.69226
# Poissons Ratio (y) = -0.06914 0.69079
# Poissons Ratio (z) = 0.43390 0.34220
#
# Static dielectric constant tensor:
#      x y z
#    x 1.549830 0.000000 0.000000 
#    y 0.000000 1.472170 0.000000 
#    z 0.000000 0.000000 1.520050 
# 
# From -- ./inp_files/67764.got.cif
#   From: 2010.05.17/outbox.cif.g08.bks.cpg/sg65_34_cif.got.tgz:67764.got - 2010.06.03 17:01:31.
