data_PCOD9483061
_publ_section_title
;
Structure prediction by ZEFSAII (Michael W. Deem and Ramdas Pophale) SiO2 
 PCOD9483061
Probable space group: C M M M
;
_chemical_formula_sum "Si O2"
_cell_formula_units_Z 88
_cell_length_a 15.576196
_cell_length_b 20.614950
_cell_length_c 15.982990
_cell_angle_alpha 90.000000
_cell_angle_beta 90.000000
_cell_angle_gamma 90.000000
_cell_volume 5132.178074
_symmetry_space_group_name_H-M "C M M M"
_symmetry_group_IT_number 65
_symmetry_cell_setting 'orthorhombic'
loop_
_space_group_symop_operation_xyz
x,y,z
-x,-y,z
x,-y,-z
-x,y,-z
-x,-y,-z
x,y,-z
-x,y,z
x,-y,z
1/2+x,1/2+y,z
1/2-x,1/2-y,z
1/2+x,1/2-y,-z
1/2-x,1/2+y,-z
1/2-x,1/2-y,-z
1/2+x,1/2+y,-z
1/2-x,1/2+y,z
1/2+x,1/2-y,z
loop_
_atom_site_type_symbol
_atom_site_label
_atom_site_fract_x
_atom_site_fract_y
_atom_site_fract_z
Si Si1 0.663918 0.130734 0.329621
Si Si2 0.000000 0.206502 0.901429
Si Si3 0.143920 0.079011 0.500000
Si Si4 0.646019 0.245761 0.219775
Si Si5 0.367752 0.626075 0.319432
Si Si6 0.201764 0.318377 0.500000
Si Si7 0.500000 0.572760 0.810011
Si Si8 0.100471 0.500000 0.594882
O O1 0.629387 0.173775 0.254147
O O2 0.765187 0.117929 0.315452
O O3 0.652693 0.174082 0.413473
O O4 0.624568 0.062736 0.352741
O O5 0.084990 0.236431 0.857447
O O6 0.000000 0.130055 0.877703
O O7 0.000000 0.216461 0.000000
O O8 0.104022 0.103967 0.587653
O O9 0.233165 0.119953 0.500000
O O10 0.150090 0.000000 0.500000
O O11 0.750000 0.250000 0.205591
O O12 0.621220 0.298905 0.291478
O O13 0.418595 0.584898 0.250841
O O14 0.250000 0.250000 0.500000
O O15 0.500000 0.500000 0.843232
O O16 0.138716 0.500000 0.500000
O O17 0.000000 0.500000 0.584208
#
# Coordination Sequence:
#
# PCOD9483061 Si02
#       8
#    16   8   8  16  16   8   8   8
#     4  10  19  32  54  72 107 145 186 222 264 301
#     4  10  22  39  61  84 105 129 168 215 276 348
#     4  10  18  25  44  66 102 144 190 211 246 283
#     4   9  19  37  56  82 106 137 175 222 268 323
#     4   9  19  31  49  75 108 145 186 217 254 300
#     4  10  18  28  47  73 100 144 188 222 253 295
#     4  10  20  34  52  78 114 139 166 213 259 320
#     4  11  24  36  46  75 107 149 196 234 264 304
#
# _framework density 17.146716000000001
#
# number of rings (size 3 to 8) (size 9 to 14) (size 15 to 20)
#    0.000    2.273    0.909    3.273    7.636    0.909 
#    0.000    0.909    0.000    1.091    0.000    1.273 
#    0.000    0.000    0.000    0.000    0.000    0.000 
#
# Total GULP energy -245091.987772 kJ/mol
# GULP energy per Si atom -5570.272449 kJ/mol
# Density = 1.710769 g / cm^3
# Si number density = 17.146716 Si / 1000 Ang^3
#
#
#
# Elastic Constant Matrix: (Units=GPa)
#
#
# Indices 1 2 3 4 5 6 
#
# 1 54.1075 43.1243 40.9813 0.0000 0.0000 0.0000
# 2 43.1243 146.7713 68.2655 0.0000 0.0000 0.0000
# 3 40.9813 68.2655 116.7217 0.0000 0.0000 0.0000
# 4 0.0000 0.0000 0.0000 9.9246 0.0000 0.0000
# 5 0.0000 0.0000 0.0000 0.0000 71.0789 0.0000
# 6 0.0000 0.0000 0.0000 0.0000 0.0000 16.2831
#
#
#
# Elastic Compliance Matrix: (Units=1/GPa)
#
#
# Indices 1 2 3 4 5 6 
#
# 1 0.027560 -0.004941 -0.006787 0.000000 0.000000 0.000000
# 2 -0.004941 0.010245 -0.004257 0.000000 0.000000 0.000000
# 3 -0.006787 -0.004257 0.013440 0.000000 0.000000 0.000000
# 4 0.000000 0.000000 0.000000 0.100760 0.000000 0.000000
# 5 0.000000 0.000000 0.000000 0.000000 0.014069 0.000000
# 6 0.000000 0.000000 0.000000 0.000000 0.000000 0.061413
#
#
# Mechanical properties :
#
#
# Convention : Reuss Voigt Hill
#
# Bulk Modulus (GPa) = 51.87914 69.14921 60.51418
# Shear Modulus (GPa) = 18.80532 30.47260 24.63896
#
# Velocity S-wave (km/s) = 3.31528 4.22022 3.79482
# Velocity P-wave (km/s) = 6.70645 8.01015 7.38712
#
# Compressibility (1/GPa) = 0.01927557
#
# Stress axis : x y z
#
# Youngs Moduli (GPa) = 36.28439 97.60690 74.40500
#
# Poissons Ratio (x) = 0.48229 0.50495
# Poissons Ratio (y) = 0.17929 0.31675
# Poissons Ratio (z) = 0.24625 0.41552
#
# Static dielectric constant tensor:
#      x y z
#    x 1.616420 0.000000 0.000000 
#    y 0.000000 1.600140 0.000000 
#    z 0.000000 0.000000 1.581330 
# 
# From -- ./inp_files/42609.got.cif
#   From: 2010.05.17/outbox.cif.g08.bks.cpg/sg65_22_cif.got.tgz:42609.got - 2010.06.03 17:01:31.
