data_PCOD9483970
_publ_section_title
;
Structure prediction by ZEFSAII (Michael W. Deem and Ramdas Pophale) SiO2 
 PCOD9483970
Probable space group: C M M M
;
_chemical_formula_sum "Si O2"
_cell_formula_units_Z 56
_cell_length_a 8.677954
_cell_length_b 19.185417
_cell_length_c 18.455668
_cell_angle_alpha 90.000000
_cell_angle_beta 90.000000
_cell_angle_gamma 90.000000
_cell_volume 3072.687233
_symmetry_space_group_name_H-M "C M M M"
_symmetry_group_IT_number 65
_symmetry_cell_setting 'orthorhombic'
loop_
_space_group_symop_operation_xyz
x,y,z
-x,-y,z
x,-y,-z
-x,y,-z
-x,-y,-z
x,y,-z
-x,y,z
x,-y,z
1/2+x,1/2+y,z
1/2-x,1/2-y,z
1/2+x,1/2-y,-z
1/2-x,1/2+y,-z
1/2-x,1/2-y,-z
1/2+x,1/2+y,-z
1/2-x,1/2+y,z
1/2+x,1/2-y,z
loop_
_atom_site_type_symbol
_atom_site_label
_atom_site_fract_x
_atom_site_fract_y
_atom_site_fract_z
Si Si1 0.815723 0.671004 0.500000
Si Si2 0.185901 0.080268 0.209890
Si Si3 0.815586 0.326179 0.083541
Si Si4 0.185326 0.828432 0.349337
O O1 0.750000 0.750000 0.500000
O O2 0.752096 0.641301 0.575406
O O3 0.000000 0.672126 0.500000
O O4 0.252816 0.117275 0.139104
O O5 0.229679 0.124492 0.280937
O O6 0.000000 0.081885 0.205567
O O7 0.235108 0.000000 0.215420
O O8 0.750000 0.250000 0.102931
O O9 0.000000 0.323709 0.087103
O O10 0.770135 0.340648 0.000000
O O11 0.250000 0.750000 0.339743
O O12 0.000000 0.824736 0.354532
#
# Coordination Sequence:
#
# PCOD9483970 Si02
#       4
#     8  16  16  16
#     4  10  18  30  51  78 105 133 171 217 265 314
#     4  10  22  38  55  78 109 145 182 219 264 318
#     4  10  21  37  58  83 109 139 177 221 268 317
#     4  10  19  33  54  78 105 136 174 219 265 314
#
# _framework density 18.225090000000002
#
# number of rings (size 3 to 8) (size 9 to 14) (size 15 to 20)
#    0.000    2.000    0.000    5.571    0.000    7.429 
#    0.000    3.571    0.000    4.286    0.000    0.000 
#    0.000    0.000    0.000    0.000    0.000    0.000 
#
# Total GULP energy -156331.240664 kJ/mol
# GULP energy per Si atom -5583.258595 kJ/mol
# Density = 1.818361 g / cm^3
# Si number density = 18.225090 Si / 1000 Ang^3
#
#
#
# Elastic Constant Matrix: (Units=GPa)
#
#
# Indices 1 2 3 4 5 6 
#
# 1 52.9949 36.7769 43.7356 0.0000 0.0000 0.0000
# 2 36.7769 120.0533 98.6595 0.0000 0.0000 0.0000
# 3 43.7356 98.6595 141.2957 0.0000 0.0000 0.0000
# 4 0.0000 0.0000 0.0000 -5.4441 0.0000 0.0000
# 5 0.0000 0.0000 0.0000 0.0000 33.7756 0.0000
# 6 0.0000 0.0000 0.0000 0.0000 0.0000 23.1425
#
#
#
# Elastic Compliance Matrix: (Units=1/GPa)
#
#
# Indices 1 2 3 4 5 6 
#
# 1 0.025842 -0.003151 -0.005799 0.000000 0.000000 0.000000
# 2 -0.003151 0.019929 -0.012940 0.000000 0.000000 0.000000
# 3 -0.005799 -0.012940 0.017908 0.000000 0.000000 0.000000
# 4 0.000000 0.000000 0.000000 -0.183687 0.000000 0.000000
# 5 0.000000 0.000000 0.000000 0.000000 0.029607 0.000000
# 6 0.000000 0.000000 0.000000 0.000000 0.000000 0.043211
#
#
# Mechanical properties :
#
#
# Convention : Reuss Voigt Hill
#
# Bulk Modulus (GPa) = 50.25364 74.74309 62.49837
# Shear Modulus (GPa) = 1551.48583 19.30627 785.39605
#
# Velocity S-wave (km/s) = 29.20855 3.25826 20.78167
# Velocity P-wave (km/s) = 34.13433 7.43338 24.70231
#
# Compressibility (1/GPa) = 0.01989905
#
# Stress axis : x y z
#
# Youngs Moduli (GPa) = 38.69662 50.17800 55.84190
#
# Poissons Ratio (x) = 0.15811 0.32382
# Poissons Ratio (y) = 0.12193 0.72260
# Poissons Ratio (z) = 0.22439 0.64931
#
# Static dielectric constant tensor:
#      x y z
#    x 1.615210 0.000000 0.000000 
#    y 0.000000 1.598290 0.000000 
#    z 0.000000 0.000000 1.644830 
# 
# From -- ./inp_files/48748.got.cif
#   From: 2010.05.17/outbox.cif.g08.bks.cpg/sg65_25_cif.got.tgz:48748.got - 2010.06.03 17:01:31.
