data_PCOD9483393
_publ_section_title
;
Structure prediction by ZEFSAII (Michael W. Deem and Ramdas Pophale) SiO2 
 PCOD9483393
Probable space group: C M M M
;
_chemical_formula_sum "Si O2"
_cell_formula_units_Z 96
_cell_length_a 7.933819
_cell_length_b 24.731368
_cell_length_c 26.119862
_cell_angle_alpha 90.000000
_cell_angle_beta 90.000000
_cell_angle_gamma 90.000000
_cell_volume 5125.087757
_symmetry_space_group_name_H-M "C M M M"
_symmetry_group_IT_number 65
_symmetry_cell_setting 'orthorhombic'
loop_
_space_group_symop_operation_xyz
x,y,z
-x,-y,z
x,-y,-z
-x,y,-z
-x,-y,-z
x,y,-z
-x,y,z
x,-y,z
1/2+x,1/2+y,z
1/2-x,1/2-y,z
1/2+x,1/2-y,-z
1/2-x,1/2+y,-z
1/2-x,1/2-y,-z
1/2+x,1/2+y,-z
1/2-x,1/2+y,z
1/2+x,1/2-y,z
loop_
_atom_site_type_symbol
_atom_site_label
_atom_site_fract_x
_atom_site_fract_y
_atom_site_fract_z
Si Si1 0.794216 0.937131 0.942468
Si Si2 0.297302 0.609241 0.161911
Si Si3 0.704421 0.500000 0.221908
Si Si4 0.694746 0.000000 0.662438
Si Si5 0.298287 0.687494 0.557332
Si Si6 0.800721 0.687521 0.250135
Si Si7 0.700596 0.881966 0.654040
O O1 0.736322 0.898764 0.896376
O O2 0.000000 0.936430 0.942443
O O3 0.747249 0.000000 0.932523
O O4 0.738915 0.922855 0.000000
O O5 0.500000 0.610836 0.160313
O O6 0.249544 0.554102 0.191414
O O7 0.241492 0.659578 0.196100
O O8 0.500000 0.500000 0.228763
O O9 0.794610 0.500000 0.276134
O O10 0.772835 0.942363 0.647336
O O11 0.500000 0.000000 0.644572
O O12 0.239950 0.671910 0.500000
O O13 0.500000 0.683166 0.558726
O O14 0.250000 0.750000 0.565025
O O15 0.225572 0.652232 0.602969
O O16 0.750000 0.750000 0.253367
O O17 0.728804 0.650713 0.296755
O O18 0.000000 0.686571 0.256007
O O19 0.500000 0.888649 0.663069
#
# Coordination Sequence:
#
# PCOD9483393 Si02
#       7
#    16  16   8   8  16  16  16
#     4   8  13  23  43  73 106 136 167 206 251 300
#     4  10  18  30  50  77 107 137 172 211 253 306
#     4  10  18  28  47  77 107 138 172 206 250 303
#     4  10  20  36  53  76 109 142 174 207 250 309
#     4  10  21  37  58  82 107 137 175 218 261 303
#     4  11  23  37  53  75 103 136 173 216 263 308
#     4  10  21  36  56  80 107 138 172 210 255 307
#
# _framework density 18.731387000000002
#
# number of rings (size 3 to 8) (size 9 to 14) (size 15 to 20)
#    0.000    2.167    2.500    2.000    0.000    4.333 
#    0.000    0.417    0.000    3.500    0.000    1.167 
#    0.000    0.000    0.000    0.000    0.000    0.000 
#
# Total GULP energy -267729.409171 kJ/mol
# GULP energy per Si atom -5577.696024 kJ/mol
# Density = 1.868875 g / cm^3
# Si number density = 18.731387 Si / 1000 Ang^3
#
#
#
# Elastic Constant Matrix: (Units=GPa)
#
#
# Indices 1 2 3 4 5 6 
#
# 1 12.8324 5.2180 -2.9766 0.0000 0.0000 0.0000
# 2 5.2180 129.9187 76.0323 0.0000 0.0000 0.0000
# 3 -2.9766 76.0323 124.8154 0.0000 0.0000 0.0000
# 4 0.0000 0.0000 0.0000 1.3201 0.0000 0.0000
# 5 0.0000 0.0000 0.0000 0.0000 6.3365 0.0000
# 6 0.0000 0.0000 0.0000 0.0000 0.0000 -7.0053
#
#
#
# Elastic Compliance Matrix: (Units=1/GPa)
#
#
# Indices 1 2 3 4 5 6 
#
# 1 0.082169 -0.006911 0.006169 0.000000 0.000000 0.000000
# 2 -0.006911 0.012542 -0.007805 0.000000 0.000000 0.000000
# 3 0.006169 -0.007805 0.012914 0.000000 0.000000 0.000000
# 4 0.000000 0.000000 0.000000 0.757515 0.000000 0.000000
# 5 0.000000 0.000000 0.000000 0.000000 0.157817 0.000000
# 6 0.000000 0.000000 0.000000 0.000000 0.000000 -0.142749
#
#
# Mechanical properties :
#
#
# Convention : Reuss Voigt Hill
#
# Bulk Modulus (GPa) = 11.04586 47.12377 29.08482
# Shear Modulus (GPa) = 5.39097 12.74978 9.07037
#
# Velocity S-wave (km/s) = 1.69832 2.61178 2.20292
# Velocity P-wave (km/s) = 3.12338 5.85726 4.69377
#
# Compressibility (1/GPa) = 0.09053166
#
# Stress axis : x y z
#
# Youngs Moduli (GPa) = 12.17008 79.72898 77.43813
#
# Poissons Ratio (x) = 0.55097 -0.47773
# Poissons Ratio (y) = 0.08410 0.60442
# Poissons Ratio (z) = -0.07508 0.62230
#
# Static dielectric constant tensor:
#      x y z
#    x 1.673940 0.000000 0.000000 
#    y 0.000000 1.609970 0.000000 
#    z 0.000000 0.000000 1.657220 
# 
# From -- ./inp_files/73483.got.cif
#   From: 2010.05.17/outbox.cif.g08.bks.cpg/sg65_37_cif.got.tgz:73483.got - 2010.06.03 17:01:31.
