data_PCOD9483894
_publ_section_title
;
Structure prediction by ZEFSAII (Michael W. Deem and Ramdas Pophale) SiO2 
 PCOD9483894
Probable space group: C M M M
;
_chemical_formula_sum "Si O2"
_cell_formula_units_Z 66
_cell_length_a 16.124045
_cell_length_b 7.504635
_cell_length_c 26.651360
_cell_angle_alpha 90.000000
_cell_angle_beta 90.000000
_cell_angle_gamma 90.000000
_cell_volume 3224.949748
_symmetry_space_group_name_H-M "C M M M"
_symmetry_group_IT_number 65
_symmetry_cell_setting 'orthorhombic'
loop_
_space_group_symop_operation_xyz
x,y,z
-x,-y,z
x,-y,-z
-x,y,-z
-x,-y,-z
x,y,-z
-x,y,z
x,-y,z
1/2+x,1/2+y,z
1/2-x,1/2-y,z
1/2+x,1/2-y,-z
1/2-x,1/2+y,-z
1/2-x,1/2-y,-z
1/2+x,1/2+y,-z
1/2-x,1/2+y,z
1/2+x,1/2-y,z
loop_
_atom_site_type_symbol
_atom_site_label
_atom_site_fract_x
_atom_site_fract_y
_atom_site_fract_z
Si Si1 0.402877 0.782778 0.268623
Si Si2 0.500000 0.218296 0.557718
Si Si3 0.842517 0.713335 0.838918
Si Si4 0.500000 0.000000 0.000000
Si Si5 0.843885 0.286915 0.623449
Si Si6 0.000000 0.300062 0.103481
O O1 0.500000 0.733136 0.268357
O O2 0.359388 0.720045 0.217612
O O3 0.360032 0.720201 0.319860
O O4 0.400462 0.000000 0.268628
O O5 0.500000 0.274808 0.500000
O O6 0.582724 0.277303 0.587115
O O7 0.500000 0.000000 0.557979
O O8 0.846382 0.500000 0.836708
O O9 0.750000 0.750000 0.856603
O O10 0.915407 0.781465 0.875340
O O11 0.500000 0.154270 0.955165
O O12 0.852851 0.500000 0.625351
O O13 0.750000 0.250000 0.607172
O O14 0.000000 0.500000 0.127388
#
# Coordination Sequence:
#
# PCOD9483894 Si02
#       6
#    16   8  16   2  16   8
#     4   9  15  27  49  72  94 128 166 197 230 289
#     4   9  18  33  52  71  92 125 168 203 236 290
#     4  10  18  30  50  75 100 128 163 200 242 288
#     4   8  16  32  56  72  94 126 184 204 228 272
#     4  10  19  32  51  73  97 125 160 201 246 288
#     4   8  16  31  51  68  94 128 167 196 232 280
#
# _framework density 20.465434999999999
#
# number of rings (size 3 to 8) (size 9 to 14) (size 15 to 20)
#    0.364    2.303    2.424    0.727    0.000    0.485 
#    0.000    1.818    0.000    2.182    0.000    0.848 
#    0.000    0.000    0.000    0.000    0.000    0.000 
#
# Total GULP energy -183719.330667 kJ/mol
# GULP energy per Si atom -5567.252444 kJ/mol
# Density = 2.041885 g / cm^3
# Si number density = 20.465435 Si / 1000 Ang^3
#
#
#
# Elastic Constant Matrix: (Units=GPa)
#
#
# Indices 1 2 3 4 5 6 
#
# 1 202.1882 -0.4592 101.9187 0.0000 0.0000 0.0000
# 2 -0.4592 49.6125 9.8520 0.0000 0.0000 0.0000
# 3 101.9187 9.8520 170.9017 0.0000 0.0000 0.0000
# 4 0.0000 0.0000 0.0000 -8.0049 0.0000 0.0000
# 5 0.0000 0.0000 0.0000 0.0000 2.4377 0.0000
# 6 0.0000 0.0000 0.0000 0.0000 0.0000 13.5359
#
#
#
# Elastic Compliance Matrix: (Units=1/GPa)
#
#
# Indices 1 2 3 4 5 6 
#
# 1 0.007113 0.000919 -0.004295 0.000000 0.000000 0.000000
# 2 0.000919 0.020508 -0.001730 0.000000 0.000000 0.000000
# 3 -0.004295 -0.001730 0.008512 0.000000 0.000000 0.000000
# 4 0.000000 0.000000 0.000000 -0.124923 0.000000 0.000000
# 5 0.000000 0.000000 0.000000 0.000000 0.410224 0.000000
# 6 0.000000 0.000000 0.000000 0.000000 0.000000 0.073878
#
#
# Mechanical properties :
#
#
# Convention : Reuss Voigt Hill
#
# Bulk Modulus (GPa) = 38.57870 71.70281 55.14075
# Shear Modulus (GPa) = 12.07248 22.35313 17.21281
#
# Velocity S-wave (km/s) = 2.43141 3.30849 2.90326
# Velocity P-wave (km/s) = 5.17435 7.05031 6.18388
#
# Compressibility (1/GPa) = 0.02592104
#
# Stress axis : x y z
#
# Youngs Moduli (GPa) = 140.58994 48.76078 117.47724
#
# Poissons Ratio (x) = -0.04480 0.50454
# Poissons Ratio (y) = -0.12916 0.20325
# Poissons Ratio (z) = 0.60380 0.08436
#
# Static dielectric constant tensor:
#      x y z
#    x 1.763270 0.000000 0.000000 
#    y 0.000000 1.804610 0.000000 
#    z 0.000000 0.000000 1.699350 
# 
# From -- ./inp_files/74550.got.cif
#   From: 2010.05.17/outbox.cif.g08.bks.cpg/sg65_38_cif.got.tgz:74550.got - 2010.06.03 17:01:31.
