data_PCOD9483864
_publ_section_title
;
Structure prediction by ZEFSAII (Michael W. Deem and Ramdas Pophale) SiO2 
 PCOD9483864
Probable space group: C M M M
;
_chemical_formula_sum "Si O2"
_cell_formula_units_Z 112
_cell_length_a 15.109501
_cell_length_b 17.635267
_cell_length_c 23.974439
_cell_angle_alpha 90.000000
_cell_angle_beta 90.000000
_cell_angle_gamma 90.000000
_cell_volume 6388.231039
_symmetry_space_group_name_H-M "C M M M"
_symmetry_group_IT_number 65
_symmetry_cell_setting 'orthorhombic'
loop_
_space_group_symop_operation_xyz
x,y,z
-x,-y,z
x,-y,-z
-x,y,-z
-x,-y,-z
x,y,-z
-x,y,z
x,-y,z
1/2+x,1/2+y,z
1/2-x,1/2-y,z
1/2+x,1/2-y,-z
1/2-x,1/2+y,-z
1/2-x,1/2-y,-z
1/2+x,1/2+y,-z
1/2-x,1/2+y,z
1/2+x,1/2-y,z
loop_
_atom_site_type_symbol
_atom_site_label
_atom_site_fract_x
_atom_site_fract_y
_atom_site_fract_z
Si Si1 0.288559 0.085931 0.434795
Si Si2 0.098702 0.825865 0.846991
Si Si3 0.151787 0.717796 0.356215
Si Si4 0.600850 0.815020 0.768069
Si Si5 0.346084 0.209967 0.062865
Si Si6 0.716704 0.909727 0.849794
Si Si7 0.596632 0.351366 0.564444
O O1 0.306648 0.101466 0.500000
O O2 0.336818 0.145591 0.395925
O O3 0.182602 0.096826 0.427047
O O4 0.313354 0.000000 0.422211
O O5 0.117116 0.767000 0.796599
O O6 0.099604 0.770492 0.900880
O O7 0.180302 0.883685 0.850586
O O8 0.000000 0.858809 0.840583
O O9 0.250000 0.750000 0.344303
O O10 0.109743 0.694943 0.297817
O O11 0.103867 0.782852 0.391910
O O12 0.500000 0.836998 0.782687
O O13 0.669438 0.873781 0.795302
O O14 0.250000 0.250000 0.059825
O O15 0.331359 0.133666 0.098661
O O16 0.378188 0.197245 0.000000
O O17 0.708700 0.000000 0.852187
O O18 0.603230 0.323284 0.500000
O O19 0.500000 0.388381 0.570185
#
# Coordination Sequence:
#
# PCOD9483864 Si02
#       7
#    16  16  16  16  16  16  16
#     4   9  18  31  46  67  96 127 155 186 233 292
#     4   9  18  33  53  76 101 131 168 207 247 294
#     4  10  18  30  50  72  93 120 158 202 245 288
#     4  10  20  35  54  72  93 126 168 210 249 292
#     4   8  15  30  51  73  99 134 172 203 233 275
#     4  10  20  33  50  75 107 136 163 203 251 296
#     4   9  17  29  47  71  95 119 152 195 238 282
#
# _framework density 17.532240000000002
#
# number of rings (size 3 to 8) (size 9 to 14) (size 15 to 20)
#    0.000    2.714    0.000    3.000    0.000    3.714 
#    0.000    1.429    0.000    1.286    0.000   17.000 
#    0.000    0.000    0.000    0.000    0.000    0.000 
#
# Total GULP energy -312037.594725 kJ/mol
# GULP energy per Si atom -5572.099906 kJ/mol
# Density = 1.749234 g / cm^3
# Si number density = 17.532240 Si / 1000 Ang^3
#
#
#
# Elastic Constant Matrix: (Units=GPa)
#
#
# Indices 1 2 3 4 5 6 
#
# 1 42.7471 5.7432 0.9866 0.0000 0.0000 0.0000
# 2 5.7432 69.2535 35.8626 0.0000 0.0000 0.0000
# 3 0.9866 35.8626 68.4595 0.0000 0.0000 0.0000
# 4 0.0000 0.0000 0.0000 2.6967 0.0000 0.0000
# 5 0.0000 0.0000 0.0000 0.0000 2.1838 0.0000
# 6 0.0000 0.0000 0.0000 0.0000 0.0000 9.2610
#
#
#
# Elastic Compliance Matrix: (Units=1/GPa)
#
#
# Indices 1 2 3 4 5 6 
#
# 1 0.023701 -0.002454 0.000944 0.000000 0.000000 0.000000
# 2 -0.002454 0.020069 -0.010478 0.000000 0.000000 0.000000
# 3 0.000944 -0.010478 0.020082 0.000000 0.000000 0.000000
# 4 0.000000 0.000000 0.000000 0.370830 0.000000 0.000000
# 5 0.000000 0.000000 0.000000 0.000000 0.457920 0.000000
# 6 0.000000 0.000000 0.000000 0.000000 0.000000 0.107979
#
#
# Mechanical properties :
#
#
# Convention : Reuss Voigt Hill
#
# Bulk Modulus (GPa) = 25.07737 29.51611 27.29674
# Shear Modulus (GPa) = 4.81765 12.01948 8.41856
#
# Velocity S-wave (km/s) = 1.65947 2.62117 2.19367
# Velocity P-wave (km/s) = 4.24340 5.10221 4.69249
#
# Compressibility (1/GPa) = 0.03987659
#
# Stress axis : x y z
#
# Youngs Moduli (GPa) = 42.19169 49.82766 49.79480
#
# Poissons Ratio (x) = 0.12230 -0.04702
# Poissons Ratio (y) = 0.10356 0.52174
# Poissons Ratio (z) = -0.03984 0.52209
#
# Static dielectric constant tensor:
#      x y z
#    x 1.626470 0.000000 0.000000 
#    y 0.000000 1.553670 0.000000 
#    z 0.000000 0.000000 1.601070 
# 
# From -- ./inp_files/70067.got.cif
#   From: 2010.05.17/outbox.cif.g08.bks.cpg/sg65_36_cif.got.tgz:70067.got - 2010.06.03 17:01:31.
