data_PCOD9483260
_publ_section_title
;
Structure prediction by ZEFSAII (Michael W. Deem and Ramdas Pophale) SiO2 
 PCOD9483260
Probable space group: C M M M
;
_chemical_formula_sum "Si O2"
_cell_formula_units_Z 72
_cell_length_a 15.538863
_cell_length_b 29.524969
_cell_length_c 7.305741
_cell_angle_alpha 90.000000
_cell_angle_beta 90.000000
_cell_angle_gamma 90.000000
_cell_volume 3351.760355
_symmetry_space_group_name_H-M "C M M M"
_symmetry_group_IT_number 65
_symmetry_cell_setting 'orthorhombic'
loop_
_space_group_symop_operation_xyz
x,y,z
-x,-y,z
x,-y,-z
-x,y,-z
-x,-y,-z
x,y,-z
-x,y,z
x,-y,z
1/2+x,1/2+y,z
1/2-x,1/2-y,z
1/2+x,1/2-y,-z
1/2-x,1/2+y,-z
1/2-x,1/2-y,-z
1/2+x,1/2+y,-z
1/2-x,1/2+y,z
1/2+x,1/2-y,z
loop_
_atom_site_type_symbol
_atom_site_label
_atom_site_fract_x
_atom_site_fract_y
_atom_site_fract_z
Si Si1 0.500000 0.946830 0.777278
Si Si2 0.500000 0.796632 0.778596
Si Si3 0.172586 0.143597 0.795619
Si Si4 0.398893 0.548921 0.279788
Si Si5 0.636882 0.870769 0.776679
Si Si6 0.500000 0.692666 0.775675
O O1 0.583667 0.916232 0.721748
O O2 0.500000 0.000000 0.719395
O O3 0.500000 0.947352 0.000000
O O4 0.580771 0.827167 0.724878
O O5 0.500000 0.744934 0.719152
O O6 0.500000 0.795114 0.000000
O O7 0.145104 0.091507 0.806304
O O8 0.266923 0.139482 0.709851
O O9 0.088901 0.168744 0.714256
O O10 0.183885 0.163448 0.000000
O O11 0.391705 0.552325 0.500000
O O12 0.500000 0.550148 0.236148
O O13 0.363952 0.500000 0.224126
O O14 0.640553 0.873394 0.000000
O O15 0.500000 0.689126 0.000000
#
# Coordination Sequence:
#
# PCOD9483260 Si02
#       6
#     8   8  16  16  16   8
#     4   8  13  23  37  54  80 114 149 182 215 257
#     4   8  14  27  41  58  88 123 153 181 219 265
#     4  10  18  28  43  69  96 114 142 186 232 266
#     4   9  18  32  47  62  85 121 157 179 205 259
#     4   8  15  25  39  60  88 119 148 180 220 265
#     4   9  17  26  39  61  91 119 145 182 226 271
#
# _framework density 21.481248999999998
#
# number of rings (size 3 to 8) (size 9 to 14) (size 15 to 20)
#    0.000    3.222    1.111    2.000    0.000    2.222 
#    0.000    7.778    0.000    0.000    0.000    7.778 
#    0.000    8.000    0.000    0.000    0.000    0.000 
#
# Total GULP energy -200595.925366 kJ/mol
# GULP energy per Si atom -5572.109038 kJ/mol
# Density = 2.143236 g / cm^3
# Si number density = 21.481249 Si / 1000 Ang^3
#
#
#
# Elastic Constant Matrix: (Units=GPa)
#
#
# Indices 1 2 3 4 5 6 
#
# 1 200.9083 114.6101 15.0249 0.0000 0.0000 0.0000
# 2 114.6101 186.0951 5.0090 0.0000 0.0000 0.0000
# 3 15.0249 5.0090 81.1815 0.0000 0.0000 0.0000
# 4 0.0000 0.0000 0.0000 1711.7999 0.0000 0.0000
# 5 0.0000 0.0000 0.0000 0.0000 -15.1733 0.0000
# 6 0.0000 0.0000 0.0000 0.0000 0.0000 -1.1856
#
#
#
# Elastic Compliance Matrix: (Units=1/GPa)
#
#
# Indices 1 2 3 4 5 6 
#
# 1 0.007778 -0.004760 -0.001146 0.000000 0.000000 0.000000
# 2 -0.004760 0.008295 0.000369 0.000000 0.000000 0.000000
# 3 -0.001146 0.000369 0.012507 0.000000 0.000000 0.000000
# 4 0.000000 0.000000 0.000000 0.000584 0.000000 0.000000
# 5 0.000000 0.000000 0.000000 0.000000 -0.065905 0.000000
# 6 0.000000 0.000000 0.000000 0.000000 0.000000 -0.843465
#
#
# Mechanical properties :
#
#
# Convention : Reuss Voigt Hill
#
# Bulk Modulus (GPa) = 57.11737 81.94143 69.52940
# Shear Modulus (GPa) = -5.79175 361.32425 177.76625
#
# Velocity S-wave (km/s) = -1.64379 12.98344 9.10680
# Velocity P-wave (km/s) = 4.80046 16.21690 11.95894
#
# Compressibility (1/GPa) = 0.01750781
#
# Stress axis : x y z
#
# Youngs Moduli (GPa) = 128.56444 120.55608 79.95271
#
# Poissons Ratio (x) = 0.57379 0.09162
# Poissons Ratio (y) = 0.61190 -0.02951
# Poissons Ratio (z) = 0.14732 -0.04449
#
# Static dielectric constant tensor:
#      x y z
#    x 1.909340 0.000000 0.000000 
#    y 0.000000 1.732390 0.000000 
#    z 0.000000 0.000000 1.856290 
# 
# From -- ./inp_files/7765.got.cif
#   From: 2010.05.17/outbox.cif.g08.bks.cpg/sg65_4_cif.got.tgz:7765.got - 2010.06.03 17:01:31.
