data_PCOD9483444
_publ_section_title
;
Structure prediction by ZEFSAII (Michael W. Deem and Ramdas Pophale) SiO2 
 PCOD9483444
Probable space group: C M M M
;
_chemical_formula_sum "Si O2"
_cell_formula_units_Z 82
_cell_length_a 25.425367
_cell_length_b 23.527063
_cell_length_c 9.636941
_cell_angle_alpha 90.000000
_cell_angle_beta 90.000000
_cell_angle_gamma 90.000000
_cell_volume 5764.665951
_symmetry_space_group_name_H-M "C M M M"
_symmetry_group_IT_number 65
_symmetry_cell_setting 'orthorhombic'
loop_
_space_group_symop_operation_xyz
x,y,z
-x,-y,z
x,-y,-z
-x,y,-z
-x,-y,-z
x,y,-z
-x,y,z
x,-y,z
1/2+x,1/2+y,z
1/2-x,1/2-y,z
1/2+x,1/2-y,-z
1/2-x,1/2+y,-z
1/2-x,1/2-y,-z
1/2+x,1/2+y,-z
1/2-x,1/2+y,z
1/2+x,1/2-y,z
loop_
_atom_site_type_symbol
_atom_site_label
_atom_site_fract_x
_atom_site_fract_y
_atom_site_fract_z
Si Si1 0.084234 0.500000 0.745771
Si Si2 0.206117 0.500000 0.832585
Si Si3 0.141792 0.305438 0.838926
Si Si4 0.695986 0.712825 0.339882
Si Si5 0.000000 0.500000 0.000000
Si Si6 0.438043 0.874216 0.654883
Si Si7 0.749470 0.878802 0.838302
O O1 0.146160 0.500000 0.781228
O O2 0.046329 0.500000 0.879391
O O3 0.071931 0.558452 0.667241
O O4 0.236302 0.442629 0.791499
O O5 0.203452 0.500000 0.000000
O O6 0.154854 0.249941 0.748208
O O7 0.095423 0.341485 0.769680
O O8 0.194156 0.344631 0.834682
O O9 0.131495 0.292032 0.000000
O O10 0.680540 0.704280 0.500000
O O11 0.750000 0.750000 0.340663
O O12 0.710679 0.655166 0.259484
O O13 0.422204 0.855353 0.500000
O O14 0.500000 0.864239 0.673448
O O15 0.766743 0.878781 0.000000
#
# Coordination Sequence:
#
# PCOD9483444 Si02
#       7
#     8   8  16  16   2  16  16
#     4  12  21  33  46  62  85 117 156 201 236 266
#     4  10  18  29  44  65  91 114 147 188 234 261
#     4  10  19  30  49  66  82 109 148 189 225 266
#     4   9  17  30  45  63  86 109 139 177 224 272
#     4  12  24  28  54  64  80 112 174 208 236 270
#     4  11  23  35  45  61  88 119 151 190 236 275
#     4   9  17  29  45  63  86 112 144 183 222 268
#
# _framework density 14.224588000000001
#
# number of rings (size 3 to 8) (size 9 to 14) (size 15 to 20)
#    0.000    1.951    3.415    1.463    1.366    4.293 
#    0.000    0.488    0.000    0.000    0.000    0.000 
#    0.000    0.000    0.000    0.878    0.000   16.976 
#
# Total GULP energy -228327.291622 kJ/mol
# GULP energy per Si atom -5568.958332 kJ/mol
# Density = 1.419221 g / cm^3
# Si number density = 14.224588 Si / 1000 Ang^3
#
#
#
# Elastic Constant Matrix: (Units=GPa)
#
#
# Indices 1 2 3 4 5 6 
#
# 1 35.4886 31.2630 40.3273 0.0000 0.0000 0.0000
# 2 31.2630 80.7939 52.8518 0.0000 0.0000 0.0000
# 3 40.3273 52.8518 115.7166 0.0000 0.0000 0.0000
# 4 0.0000 0.0000 0.0000 0.2209 0.0000 0.0000
# 5 0.0000 0.0000 0.0000 0.0000 19.4341 0.0000
# 6 0.0000 0.0000 0.0000 0.0000 0.0000 9.9157
#
#
#
# Elastic Compliance Matrix: (Units=1/GPa)
#
#
# Indices 1 2 3 4 5 6 
#
# 1 0.053988 -0.012240 -0.013225 0.000000 0.000000 0.000000
# 2 -0.012240 0.020426 -0.005064 0.000000 0.000000 0.000000
# 3 -0.013225 -0.005064 0.015563 0.000000 0.000000 0.000000
# 4 0.000000 0.000000 0.000000 4.527689 0.000000 0.000000
# 5 0.000000 0.000000 0.000000 0.000000 0.051456 0.000000
# 6 0.000000 0.000000 0.000000 0.000000 0.000000 0.100850
#
#
# Mechanical properties :
#
#
# Convention : Reuss Voigt Hill
#
# Bulk Modulus (GPa) = 34.57650 53.43150 44.00400
# Shear Modulus (GPa) = 1.03292 13.08460 7.05876
#
# Velocity S-wave (km/s) = 0.85307 3.03621 2.23005
# Velocity P-wave (km/s) = 5.03295 7.06652 6.13459
#
# Compressibility (1/GPa) = 0.02892138
#
# Stress axis : x y z
#
# Youngs Moduli (GPa) = 18.52262 48.95811 64.25369
#
# Poissons Ratio (x) = 0.59923 0.84973
# Poissons Ratio (y) = 0.22671 0.32535
# Poissons Ratio (z) = 0.24495 0.24790
#
# Static dielectric constant tensor:
#      x y z
#    x 1.434950 0.000000 0.000000 
#    y 0.000000 1.465120 0.000000 
#    z 0.000000 0.000000 1.488210 
# 
# From -- ./inp_files/11664.got.cif
#   From: 2010.05.17/outbox.cif.g08.bks.cpg/sg65_6_cif.got.tgz:11664.got - 2010.06.03 17:01:31.
