data_PCOD9483688
_publ_section_title
;
Structure prediction by ZEFSAII (Michael W. Deem and Ramdas Pophale) SiO2 
 PCOD9483688
Probable space group: C M M M
;
_chemical_formula_sum "Si O2"
_cell_formula_units_Z 96
_cell_length_a 28.044564
_cell_length_b 8.529996
_cell_length_c 24.810033
_cell_angle_alpha 90.000000
_cell_angle_beta 90.000000
_cell_angle_gamma 90.000000
_cell_volume 5935.056559
_symmetry_space_group_name_H-M "C M M M"
_symmetry_group_IT_number 65
_symmetry_cell_setting 'orthorhombic'
loop_
_space_group_symop_operation_xyz
x,y,z
-x,-y,z
x,-y,-z
-x,y,-z
-x,-y,-z
x,y,-z
-x,y,z
x,-y,z
1/2+x,1/2+y,z
1/2-x,1/2-y,z
1/2+x,1/2-y,-z
1/2-x,1/2+y,-z
1/2-x,1/2-y,-z
1/2+x,1/2+y,-z
1/2-x,1/2+y,z
1/2+x,1/2-y,z
loop_
_atom_site_type_symbol
_atom_site_label
_atom_site_fract_x
_atom_site_fract_y
_atom_site_fract_z
Si Si1 0.147714 0.686143 0.224761
Si Si2 0.304107 0.688741 0.000000
Si Si3 0.897369 0.809474 0.611115
Si Si4 0.555454 0.307994 0.500000
Si Si5 0.802325 0.812187 0.331387
Si Si6 0.695665 0.311455 0.882080
Si Si7 0.445886 0.689625 0.722693
O O1 0.151145 0.500000 0.226897
O O2 0.180775 0.756062 0.272358
O O3 0.165406 0.746543 0.167273
O O4 0.094148 0.740243 0.238548
O O5 0.250000 0.750000 0.000000
O O6 0.323794 0.737266 0.058508
O O7 0.303525 0.500000 0.000000
O O8 0.917876 0.754797 0.554228
O O9 0.843883 0.759566 0.627252
O O10 0.930868 0.765805 0.661627
O O11 0.897108 0.000000 0.609346
O O12 0.556002 0.500000 0.500000
O O13 0.500000 0.261346 0.500000
O O14 0.750000 0.750000 0.344054
O O15 0.801584 0.000000 0.331150
O O16 0.696599 0.500000 0.879390
O O17 0.750000 0.250000 0.877416
O O18 0.500000 0.737429 0.734143
O O19 0.443118 0.500000 0.725720
#
# Coordination Sequence:
#
# PCOD9483688 Si02
#       7
#    16   8  16   8  16  16  16
#     4  11  21  31  45  68  94 121 154 189 228 272
#     4   8  16  28  44  64  89 122 155 186 220 263
#     4   8  15  26  42  66  93 118 146 182 224 271
#     4   9  14  22  41  68  93 115 143 183 228 273
#     4  10  19  32  47  64  89 121 155 190 229 271
#     4  10  18  30  46  67  95 125 156 188 224 265
#     4   9  17  31  49  68  92 121 151 186 229 273
#
# _framework density 16.175079
#
# number of rings (size 3 to 8) (size 9 to 14) (size 15 to 20)
#    0.000    2.583    0.000    4.500    0.000    3.000 
#    0.000    0.417    0.000    0.000    0.000   14.583 
#    0.000   26.667    0.000    0.000    0.000    0.000 
#
# Total GULP energy -267531.332986 kJ/mol
# GULP energy per Si atom -5573.569437 kJ/mol
# Density = 1.613826 g / cm^3
# Si number density = 16.175079 Si / 1000 Ang^3
#
#
#
# Elastic Constant Matrix: (Units=GPa)
#
#
# Indices 1 2 3 4 5 6 
#
# 1 123.2062 29.4393 79.9469 0.0000 0.0000 0.0000
# 2 29.4393 40.9638 27.6706 0.0000 0.0000 0.0000
# 3 79.9469 27.6706 157.8866 0.0000 0.0000 0.0000
# 4 0.0000 0.0000 0.0000 7.9055 0.0000 0.0000
# 5 0.0000 0.0000 0.0000 0.0000 17.6543 0.0000
# 6 0.0000 0.0000 0.0000 0.0000 0.0000 22.1331
#
#
#
# Elastic Compliance Matrix: (Units=1/GPa)
#
#
# Indices 1 2 3 4 5 6 
#
# 1 0.013135 -0.005611 -0.005667 0.000000 0.000000 0.000000
# 2 -0.005611 0.030087 -0.002432 0.000000 0.000000 0.000000
# 3 -0.005667 -0.002432 0.009630 0.000000 0.000000 0.000000
# 4 0.000000 0.000000 0.000000 0.126494 0.000000 0.000000
# 5 0.000000 0.000000 0.000000 0.000000 0.056643 0.000000
# 6 0.000000 0.000000 0.000000 0.000000 0.000000 0.045181
#
#
# Mechanical properties :
#
#
# Convention : Reuss Voigt Hill
#
# Bulk Modulus (GPa) = 39.32262 66.24112 52.78187
# Shear Modulus (GPa) = 15.76953 21.87192 18.82072
#
# Velocity S-wave (km/s) = 3.12577 3.68121 3.41480
# Velocity P-wave (km/s) = 6.11479 7.68830 6.94624
#
# Compressibility (1/GPa) = 0.02543066
#
# Stress axis : x y z
#
# Youngs Moduli (GPa) = 76.13370 33.23700 103.84656
#
# Poissons Ratio (x) = 0.18650 0.58855
# Poissons Ratio (y) = 0.42720 0.25252
# Poissons Ratio (z) = 0.43149 0.08082
#
# Static dielectric constant tensor:
#      x y z
#    x 1.528010 0.000000 0.000000 
#    y 0.000000 1.550230 0.000000 
#    z 0.000000 0.000000 1.551150 
# 
# From -- ./inp_files/71700.got.cif
#   From: 2010.05.17/outbox.cif.g08.bks.cpg/sg65_36_cif.got.tgz:71700.got - 2010.06.03 17:01:31.
