data_PCOD9483974
_publ_section_title
;
Structure prediction by ZEFSAII (Michael W. Deem and Ramdas Pophale) SiO2 
 PCOD9483974
Probable space group: C M M M
;
_chemical_formula_sum "Si O2"
_cell_formula_units_Z 104
_cell_length_a 8.545968
_cell_length_b 18.841954
_cell_length_c 34.907749
_cell_angle_alpha 90.000000
_cell_angle_beta 90.000000
_cell_angle_gamma 90.000000
_cell_volume 5620.941250
_symmetry_space_group_name_H-M "C M M M"
_symmetry_group_IT_number 65
_symmetry_cell_setting 'orthorhombic'
loop_
_space_group_symop_operation_xyz
x,y,z
-x,-y,z
x,-y,-z
-x,y,-z
-x,-y,-z
x,y,-z
-x,y,z
x,-y,z
1/2+x,1/2+y,z
1/2-x,1/2-y,z
1/2+x,1/2-y,-z
1/2-x,1/2+y,-z
1/2-x,1/2-y,-z
1/2+x,1/2+y,-z
1/2-x,1/2+y,z
1/2+x,1/2-y,z
loop_
_atom_site_type_symbol
_atom_site_label
_atom_site_fract_x
_atom_site_fract_y
_atom_site_fract_z
Si Si1 0.312232 0.830559 0.419658
Si Si2 0.310776 0.082149 0.655651
Si Si3 0.312177 0.670069 0.727902
Si Si4 0.811156 0.417757 0.884211
Si Si5 0.813586 0.169120 0.500000
Si Si6 0.811362 0.917706 0.802150
Si Si7 0.189172 0.329979 0.042335
O O1 0.500000 0.827449 0.421611
O O2 0.250000 0.750000 0.414819
O O3 0.264642 0.878227 0.383566
O O4 0.248935 0.860940 0.459930
O O5 0.500000 0.083625 0.657461
O O6 0.245045 0.124910 0.691673
O O7 0.260511 0.000000 0.656164
O O8 0.500000 0.671626 0.727826
O O9 0.250000 0.750000 0.726007
O O10 0.258823 0.630596 0.766808
O O11 0.763689 0.500000 0.887798
O O12 0.748423 0.391661 0.843350
O O13 0.755866 0.374975 0.921333
O O14 0.000000 0.415017 0.883266
O O15 0.750000 0.250000 0.500000
O O16 0.000000 0.169791 0.500000
O O17 0.000000 0.917750 0.802651
O O18 0.759635 0.000000 0.797078
O O19 0.250000 0.250000 0.045551
O O20 0.000000 0.329366 0.043190
O O21 0.236200 0.357394 0.000000
#
# Coordination Sequence:
#
# PCOD9483974 Si02
#       7
#    16  16  16  16   8  16  16
#     4  10  19  33  54  79 108 140 176 218 263 312
#     4  10  22  39  58  81 109 142 179 219 266 318
#     4  11  23  38  57  81 108 139 176 218 263 312
#     4   9  18  32  51  75 100 129 167 208 251 300
#     4  10  18  30  51  78 107 139 177 219 263 310
#     4   9  19  36  55  75 102 136 171 208 255 309
#     4   9  18  32  49  70  98 131 166 206 252 301
#
# _framework density 18.50224
#
# number of rings (size 3 to 8) (size 9 to 14) (size 15 to 20)
#    0.000    2.308    0.000    3.462    0.000    6.154 
#    0.000    6.538    0.000    2.308    0.000    4.308 
#    0.000    0.000    0.000    0.000    0.000    0.000 
#
# Total GULP energy -290170.862850 kJ/mol
# GULP energy per Si atom -5580.208901 kJ/mol
# Density = 1.846013 g / cm^3
# Si number density = 18.502240 Si / 1000 Ang^3
#
#
#
# Elastic Constant Matrix: (Units=GPa)
#
#
# Indices 1 2 3 4 5 6 
#
# 1 27.0011 23.9698 40.6286 0.0000 0.0000 0.0000
# 2 23.9698 104.7099 106.1960 0.0000 0.0000 0.0000
# 3 40.6286 106.1960 233.6650 0.0000 0.0000 0.0000
# 4 0.0000 0.0000 0.0000 63.1351 0.0000 0.0000
# 5 0.0000 0.0000 0.0000 0.0000 30.1988 0.0000
# 6 0.0000 0.0000 0.0000 0.0000 0.0000 18.3515
#
#
#
# Elastic Compliance Matrix: (Units=1/GPa)
#
#
# Indices 1 2 3 4 5 6 
#
# 1 0.051547 -0.005027 -0.006678 0.000000 0.000000 0.000000
# 2 -0.005027 0.018206 -0.007400 0.000000 0.000000 0.000000
# 3 -0.006678 -0.007400 0.008804 0.000000 0.000000 0.000000
# 4 0.000000 0.000000 0.000000 0.015839 0.000000 0.000000
# 5 0.000000 0.000000 0.000000 0.000000 0.033114 0.000000
# 6 0.000000 0.000000 0.000000 0.000000 0.000000 0.054491
#
#
# Mechanical properties :
#
#
# Convention : Reuss Voigt Hill
#
# Bulk Modulus (GPa) = 24.78549 78.55163 51.66856
# Shear Modulus (GPa) = 21.39853 35.30919 28.35386
#
# Velocity S-wave (km/s) = 3.40448 4.37323 3.91891
# Velocity P-wave (km/s) = 5.37392 8.24910 6.96156
#
# Compressibility (1/GPa) = 0.04034619
#
# Stress axis : x y z
#
# Youngs Moduli (GPa) = 19.39992 54.92590 113.58400
#
# Poissons Ratio (x) = 0.27612 0.75851
# Poissons Ratio (y) = 0.09753 0.84056
# Poissons Ratio (z) = 0.12955 0.40647
#
# Static dielectric constant tensor:
#      x y z
#    x 1.603670 0.000000 0.000000 
#    y 0.000000 1.610590 0.000000 
#    z 0.000000 0.000000 1.648770 
# 
# From -- ./inp_files/76904.got.cif
#   From: 2010.05.17/outbox.cif.g08.bks.cpg/sg65_39_cif.got.tgz:76904.got - 2010.06.03 17:01:31.
