data_PCOD9483728
_publ_section_title
;
Structure prediction by ZEFSAII (Michael W. Deem and Ramdas Pophale) SiO2 
 PCOD9483728
Probable space group: C M M M
;
_chemical_formula_sum "Si O2"
_cell_formula_units_Z 80
_cell_length_a 8.259545
_cell_length_b 29.407189
_cell_length_c 19.136361
_cell_angle_alpha 90.000000
_cell_angle_beta 90.000000
_cell_angle_gamma 90.000000
_cell_volume 4648.030740
_symmetry_space_group_name_H-M "C M M M"
_symmetry_group_IT_number 65
_symmetry_cell_setting 'orthorhombic'
loop_
_space_group_symop_operation_xyz
x,y,z
-x,-y,z
x,-y,-z
-x,y,-z
-x,-y,-z
x,y,-z
-x,y,z
x,-y,z
1/2+x,1/2+y,z
1/2-x,1/2-y,z
1/2+x,1/2-y,-z
1/2-x,1/2+y,-z
1/2-x,1/2-y,-z
1/2+x,1/2+y,-z
1/2-x,1/2+y,z
1/2+x,1/2-y,z
loop_
_atom_site_type_symbol
_atom_site_label
_atom_site_fract_x
_atom_site_fract_y
_atom_site_fract_z
Si Si1 0.694864 0.391463 0.786268
Si Si2 0.192685 0.801793 0.150098
Si Si3 0.807663 0.302414 0.000000
Si Si4 0.195155 0.553664 0.078067
Si Si5 0.698686 0.552791 0.347457
Si Si6 0.187970 0.944717 0.500000
O O1 0.500000 0.390127 0.781218
O O2 0.753277 0.339595 0.795717
O O3 0.736902 0.419208 0.856290
O O4 0.755257 0.416931 0.717157
O O5 0.250000 0.750000 0.159572
O O6 0.243682 0.820091 0.073480
O O7 0.000000 0.800235 0.151697
O O8 0.750000 0.250000 0.000000
O O9 0.000000 0.304844 0.000000
O O10 0.235175 0.500000 0.084612
O O11 0.000000 0.557596 0.079439
O O12 0.248805 0.568773 0.000000
O O13 0.500000 0.553601 0.349182
O O14 0.744234 0.500000 0.336788
O O15 0.757102 0.568370 0.424391
O O16 0.000000 0.930017 0.500000
O O17 0.187690 0.000000 0.500000
#
# Coordination Sequence:
#
# PCOD9483728 Si02
#       6
#    16  16   8  16  16   8
#     4  10  20  30  45  68  91 114 147 190 229 264
#     4  10  20  33  46  63  87 113 146 188 232 274
#     4  10  18  30  48  64  79 104 139 182 230 273
#     4   9  19  34  47  61  86 120 155 185 214 258
#     4   8  13  23  40  65  95 120 141 171 216 265
#     4   7  10  18  36  62  92 121 141 163 207 267
#
# _framework density 17.211589
#
# number of rings (size 3 to 8) (size 9 to 14) (size 15 to 20)
#    0.000    2.900    0.000    5.100    1.400    3.200 
#    0.000    1.000    0.000    0.000    0.000    1.400 
#    0.000    4.000    0.000    0.000    0.000    0.000 
#
# Total GULP energy -222826.027455 kJ/mol
# GULP energy per Si atom -5570.650686 kJ/mol
# Density = 1.717241 g / cm^3
# Si number density = 17.211589 Si / 1000 Ang^3
#
#
#
# Elastic Constant Matrix: (Units=GPa)
#
#
# Indices 1 2 3 4 5 6 
#
# 1 12.9441 13.1445 10.1268 0.0000 0.0000 0.0000
# 2 13.1445 87.9386 84.4231 0.0000 0.0000 0.0000
# 3 10.1268 84.4231 163.6355 0.0000 0.0000 0.0000
# 4 0.0000 0.0000 0.0000 19.0692 0.0000 0.0000
# 5 0.0000 0.0000 0.0000 0.0000 2.9675 0.0000
# 6 0.0000 0.0000 0.0000 0.0000 0.0000 12.4576
#
#
#
# Elastic Compliance Matrix: (Units=1/GPa)
#
#
# Indices 1 2 3 4 5 6 
#
# 1 0.091709 -0.016365 0.002767 0.000000 0.000000 0.000000
# 2 -0.016365 0.025451 -0.012118 0.000000 0.000000 0.000000
# 3 0.002767 -0.012118 0.012192 0.000000 0.000000 0.000000
# 4 0.000000 0.000000 0.000000 0.052441 0.000000 0.000000
# 5 0.000000 0.000000 0.000000 0.000000 0.336982 0.000000
# 6 0.000000 0.000000 0.000000 0.000000 0.000000 0.080272
#
#
# Mechanical properties :
#
#
# Convention : Reuss Voigt Hill
#
# Bulk Modulus (GPa) = 12.83354 53.32300 33.07827
# Shear Modulus (GPa) = 7.39151 17.35379 12.37265
#
# Velocity S-wave (km/s) = 2.07457 3.17876 2.68406
# Velocity P-wave (km/s) = 3.63469 6.67239 5.37270
#
# Compressibility (1/GPa) = 0.07792084
#
# Stress axis : x y z
#
# Youngs Moduli (GPa) = 10.90410 39.29060 82.02172
#
# Poissons Ratio (x) = 0.64298 -0.22699
# Poissons Ratio (y) = 0.17844 0.99395
# Poissons Ratio (z) = -0.03018 0.47613
#
# Static dielectric constant tensor:
#      x y z
#    x 1.660750 0.000000 0.000000 
#    y 0.000000 1.600050 0.000000 
#    z 0.000000 0.000000 1.614430 
# 
# From -- ./inp_files/60577.got.cif
#   From: 2010.05.17/outbox.cif.g08.bks.cpg/sg65_31_cif.got.tgz:60577.got - 2010.06.03 17:01:31.
