data_PCOD9483743
_publ_section_title
;
Structure prediction by ZEFSAII (Michael W. Deem and Ramdas Pophale) SiO2 
 PCOD9483743
Probable space group: C M M M
;
_chemical_formula_sum "Si O2"
_cell_formula_units_Z 104
_cell_length_a 8.819078
_cell_length_b 29.559345
_cell_length_c 24.923389
_cell_angle_alpha 90.000000
_cell_angle_beta 90.000000
_cell_angle_gamma 90.000000
_cell_volume 6497.182801
_symmetry_space_group_name_H-M "C M M M"
_symmetry_group_IT_number 65
_symmetry_cell_setting 'orthorhombic'
loop_
_space_group_symop_operation_xyz
x,y,z
-x,-y,z
x,-y,-z
-x,y,-z
-x,-y,-z
x,y,-z
-x,y,z
x,-y,z
1/2+x,1/2+y,z
1/2-x,1/2-y,z
1/2+x,1/2-y,-z
1/2-x,1/2+y,-z
1/2-x,1/2-y,-z
1/2+x,1/2+y,-z
1/2-x,1/2+y,z
1/2+x,1/2-y,z
loop_
_atom_site_type_symbol
_atom_site_label
_atom_site_fract_x
_atom_site_fract_y
_atom_site_fract_z
Si Si1 0.180530 0.889066 0.845060
Si Si2 0.180473 0.701951 0.325960
Si Si3 0.319065 0.201278 0.801262
Si Si4 0.000000 0.446730 0.436251
Si Si5 0.681540 0.051866 0.063400
Si Si6 0.324879 0.106416 0.354426
Si Si7 0.815491 0.447670 0.748437
O O1 0.246520 0.839164 0.834907
O O2 0.234114 0.911946 0.900251
O O3 0.249270 0.920158 0.797913
O O4 0.000000 0.888093 0.841753
O O5 0.250000 0.750000 0.341671
O O6 0.212130 0.693845 0.262502
O O7 0.239127 0.657062 0.356702
O O8 0.000000 0.707005 0.332675
O O9 0.500000 0.201467 0.807867
O O10 0.250000 0.250000 0.815242
O O11 0.144689 0.421904 0.408557
O O12 0.000000 0.500000 0.421834
O O13 0.000000 0.442194 0.500000
O O14 0.500000 0.055906 0.071597
O O15 0.723673 0.000000 0.078195
O O16 0.710852 0.057441 0.000000
O O17 0.500000 0.114850 0.336264
O O18 0.261056 0.075659 0.306930
O O19 0.770707 0.500000 0.750036
O O20 0.000000 0.446433 0.750877
#
# Coordination Sequence:
#
# PCOD9483743 Si02
#       7
#    16  16  16   8  16  16  16
#     4  12  23  32  47  74 107 136 168 206 256 311
#     4   9  16  28  46  68  94 127 167 202 248 300
#     4  10  19  33  51  72 100 131 169 208 252 307
#     4   9  16  26  46  74 102 132 171 219 264 306
#     4   9  19  37  58  76  96 130 177 219 255 304
#     4   8  15  27  43  66  95 128 162 203 254 304
#     4  10  18  30  48  67  94 135 169 202 254 313
#
# _framework density 16.006938000000002
#
# number of rings (size 3 to 8) (size 9 to 14) (size 15 to 20)
#    0.462    1.923    1.538    3.231    0.000    3.385 
#    0.000    0.769    0.000    0.923    0.000    0.000 
#    0.000    1.846    0.000    8.462    0.000    0.000 
#
# Total GULP energy -289530.200299 kJ/mol
# GULP energy per Si atom -5567.888467 kJ/mol
# Density = 1.597051 g / cm^3
# Si number density = 16.006938 Si / 1000 Ang^3
#
#
#
# Elastic Constant Matrix: (Units=GPa)
#
#
# Indices 1 2 3 4 5 6 
#
# 1 28.5538 44.2051 23.4585 0.0000 0.0000 0.0000
# 2 44.2051 170.9772 61.7403 0.0000 0.0000 0.0000
# 3 23.4585 61.7403 61.0929 0.0000 0.0000 0.0000
# 4 0.0000 0.0000 0.0000 18.6494 0.0000 0.0000
# 5 0.0000 0.0000 0.0000 0.0000 -7.5744 0.0000
# 6 0.0000 0.0000 0.0000 0.0000 0.0000 24.9753
#
#
#
# Elastic Compliance Matrix: (Units=1/GPa)
#
#
# Indices 1 2 3 4 5 6 
#
# 1 0.063789 -0.012042 -0.012324 0.000000 0.000000 0.000000
# 2 -0.012042 0.011483 -0.006981 0.000000 0.000000 0.000000
# 3 -0.012324 -0.006981 0.028155 0.000000 0.000000 0.000000
# 4 0.000000 0.000000 0.000000 0.053621 0.000000 0.000000
# 5 0.000000 0.000000 0.000000 0.000000 -0.132024 0.000000
# 6 0.000000 0.000000 0.000000 0.000000 0.000000 0.040039
#
#
# Mechanical properties :
#
#
# Convention : Reuss Voigt Hill
#
# Bulk Modulus (GPa) = 24.54964 57.71463 41.13213
# Shear Modulus (GPa) = 35.37684 15.95808 25.66746
#
# Velocity S-wave (km/s) = 4.70626 3.16087 4.00874
# Velocity P-wave (km/s) = 6.70090 7.03248 6.86869
#
# Compressibility (1/GPa) = 0.04073380
#
# Stress axis : x y z
#
# Youngs Moduli (GPa) = 15.67660 87.08632 35.51719
#
# Poissons Ratio (x) = 1.04870 0.43772
# Poissons Ratio (y) = 0.18878 0.24793
# Poissons Ratio (z) = 0.19320 0.60792
#
# Static dielectric constant tensor:
#      x y z
#    x 1.538520 0.000000 0.000000 
#    y 0.000000 1.561340 0.000000 
#    z 0.000000 0.000000 1.520990 
# 
# From -- ./inp_files/73730.got.cif
#   From: 2010.05.17/outbox.cif.g08.bks.cpg/sg65_37_cif.got.tgz:73730.got - 2010.06.03 17:01:31.
