data_PCOD9483847
_publ_section_title
;
Structure prediction by ZEFSAII (Michael W. Deem and Ramdas Pophale) SiO2 
 PCOD9483847
Probable space group: C M M M
;
_chemical_formula_sum "Si O2"
_cell_formula_units_Z 128
_cell_length_a 21.145636
_cell_length_b 18.137484
_cell_length_c 20.767660
_cell_angle_alpha 90.000000
_cell_angle_beta 90.000000
_cell_angle_gamma 90.000000
_cell_volume 7964.992284
_symmetry_space_group_name_H-M "C M M M"
_symmetry_group_IT_number 65
_symmetry_cell_setting 'orthorhombic'
loop_
_space_group_symop_operation_xyz
x,y,z
-x,-y,z
x,-y,-z
-x,y,-z
-x,-y,-z
x,y,-z
-x,y,z
x,-y,z
1/2+x,1/2+y,z
1/2-x,1/2-y,z
1/2+x,1/2-y,-z
1/2-x,1/2+y,-z
1/2-x,1/2-y,-z
1/2+x,1/2+y,-z
1/2-x,1/2+y,z
1/2+x,1/2-y,z
loop_
_atom_site_type_symbol
_atom_site_label
_atom_site_fract_x
_atom_site_fract_y
_atom_site_fract_z
Si Si1 0.199000 0.187909 0.428104
Si Si2 0.173820 0.585855 0.289834
Si Si3 0.067771 0.260667 0.598729
Si Si4 0.383648 0.083469 0.426134
Si Si5 0.424922 0.168910 0.200564
Si Si6 0.813322 0.088207 0.694702
Si Si7 0.923356 0.584881 0.071984
Si Si8 0.071002 0.816127 0.262519
O O1 0.216649 0.163098 0.500000
O O2 0.250000 0.250000 0.407305
O O3 0.130937 0.227588 0.430976
O O4 0.191109 0.123603 0.376434
O O5 0.164735 0.500000 0.273563
O O6 0.165916 0.591415 0.367564
O O7 0.120477 0.631660 0.253364
O O8 0.245586 0.607479 0.273388
O O9 0.070572 0.348150 0.587269
O O10 0.071155 0.235106 0.673063
O O11 0.000000 0.232812 0.574398
O O12 0.360290 0.090293 0.500000
O O13 0.410177 0.000000 0.420368
O O14 0.500000 0.152029 0.212159
O O15 0.405850 0.136609 0.131285
O O16 0.418512 0.256953 0.206168
O O17 0.873270 0.125438 0.729106
O O18 0.818585 0.000000 0.691959
O O19 0.903718 0.500000 0.083890
O O20 0.000000 0.584786 0.070561
O O21 0.901915 0.606419 0.000000
O O22 0.000000 0.848042 0.257613
#
# Coordination Sequence:
#
# PCOD9483847 Si02
#       8
#    16  16  16  16  16  16  16  16
#     4  10  21  35  52  70  88 116 154 196 253 315
#     4  10  20  32  46  68  95 125 164 200 240 297
#     4  10  19  33  48  64  87 114 152 201 243 288
#     4  10  20  31  42  60  91 127 160 199 242 284
#     4  10  18  30  49  74 103 136 168 199 234 277
#     4  10  22  36  51  70  93 122 158 207 259 301
#     4   8  14  25  43  71 108 145 174 198 229 275
#     4   9  19  34  52  71  90 118 161 205 250 297
#
# _framework density 16.070322999999998
#
# number of rings (size 3 to 8) (size 9 to 14) (size 15 to 20)
#    0.000    2.375    1.250    1.875    1.750    4.000 
#    0.000    3.125    0.000    0.000    0.000    5.250 
#    0.000    1.500    0.000    4.875    0.000    0.000 
#
# Total GULP energy -356408.380329 kJ/mol
# GULP energy per Si atom -5568.880943 kJ/mol
# Density = 1.603375 g / cm^3
# Si number density = 16.070323 Si / 1000 Ang^3
#
#
#
# Elastic Constant Matrix: (Units=GPa)
#
#
# Indices 1 2 3 4 5 6 
#
# 1 112.5585 52.4867 27.4747 0.0000 0.0000 0.0000
# 2 52.4867 70.0398 34.3350 0.0000 0.0000 0.0000
# 3 27.4747 34.3350 69.3160 0.0000 0.0000 0.0000
# 4 0.0000 0.0000 0.0000 15.4903 0.0000 0.0000
# 5 0.0000 0.0000 0.0000 0.0000 6.0986 0.0000
# 6 0.0000 0.0000 0.0000 0.0000 0.0000 18.9381
#
#
#
# Elastic Compliance Matrix: (Units=1/GPa)
#
#
# Indices 1 2 3 4 5 6 
#
# 1 0.013667 -0.010019 -0.000454 0.000000 0.000000 0.000000
# 2 -0.010019 0.026201 -0.009007 0.000000 0.000000 0.000000
# 3 -0.000454 -0.009007 0.019068 0.000000 0.000000 0.000000
# 4 0.000000 0.000000 0.000000 0.064557 0.000000 0.000000
# 5 0.000000 0.000000 0.000000 0.000000 0.163972 0.000000
# 6 0.000000 0.000000 0.000000 0.000000 0.000000 0.052804
#
#
# Mechanical properties :
#
#
# Convention : Reuss Voigt Hill
#
# Bulk Modulus (GPa) = 50.06178 53.38969 51.72574
# Shear Modulus (GPa) = 12.95708 17.27993 15.11850
#
# Velocity S-wave (km/s) = 2.84258 3.28269 3.07053
# Velocity P-wave (km/s) = 6.48020 6.90382 6.69536
#
# Compressibility (1/GPa) = 0.01997532
#
# Stress axis : x y z
#
# Youngs Moduli (GPa) = 73.16791 38.16585 52.44270
#
# Poissons Ratio (x) = 0.38239 0.02382
# Poissons Ratio (y) = 0.73309 0.47237
# Poissons Ratio (z) = 0.03324 0.34377
#
# Static dielectric constant tensor:
#      x y z
#    x 1.565160 0.000000 0.000000 
#    y 0.000000 1.540590 0.000000 
#    z 0.000000 0.000000 1.549540 
# 
# From -- ./inp_files/64851.got.cif
#   From: 2010.05.17/outbox.cif.g08.bks.cpg/sg65_33_cif.got.tgz:64851.got - 2010.06.03 17:01:31.
