data_PCOD9483614
_publ_section_title
;
Structure prediction by ZEFSAII (Michael W. Deem and Ramdas Pophale) SiO2 
 PCOD9483614
Probable space group: C M M M
;
_chemical_formula_sum "Si O2"
_cell_formula_units_Z 96
_cell_length_a 18.854055
_cell_length_b 16.384408
_cell_length_c 18.438581
_cell_angle_alpha 90.000000
_cell_angle_beta 90.000000
_cell_angle_gamma 90.000000
_cell_volume 5695.908698
_symmetry_space_group_name_H-M "C M M M"
_symmetry_group_IT_number 65
_symmetry_cell_setting 'orthorhombic'
loop_
_space_group_symop_operation_xyz
x,y,z
-x,-y,z
x,-y,-z
-x,y,-z
-x,-y,-z
x,y,-z
-x,y,z
x,-y,z
1/2+x,1/2+y,z
1/2-x,1/2-y,z
1/2+x,1/2-y,-z
1/2-x,1/2+y,-z
1/2-x,1/2-y,-z
1/2+x,1/2+y,-z
1/2-x,1/2+y,z
1/2+x,1/2-y,z
loop_
_atom_site_type_symbol
_atom_site_label
_atom_site_fract_x
_atom_site_fract_y
_atom_site_fract_z
Si Si1 0.156393 0.905962 0.913508
Si Si2 0.919860 0.757719 0.841803
Si Si3 0.082196 0.248403 0.332475
Si Si4 0.794742 0.165268 0.583127
Si Si5 0.172918 0.591845 0.326471
Si Si6 0.786767 0.663443 0.827222
O O1 0.101364 0.842690 0.878600
O O2 0.232487 0.881672 0.879803
O O3 0.140047 0.000000 0.896414
O O4 0.157627 0.896152 0.000000
O O5 0.914070 0.765782 0.754322
O O6 0.860841 0.690897 0.862837
O O7 0.000000 0.734232 0.859550
O O8 0.133447 0.185201 0.373465
O O9 0.115281 0.338583 0.345600
O O10 0.000000 0.243712 0.354460
O O11 0.808608 0.142376 0.500000
O O12 0.750000 0.250000 0.583293
O O13 0.742276 0.103649 0.623690
O O14 0.145559 0.500000 0.332074
O O15 0.197441 0.612029 0.244503
O O16 0.750000 0.750000 0.805119
#
# Coordination Sequence:
#
# PCOD9483614 Si02
#       6
#    16  16  16  16  16  16
#     4  10  20  32  48  71  96 122 155 197 241 281
#     4   9  18  32  49  69  95 125 156 193 235 280
#     4   9  18  33  50  70  96 125 160 196 230 276
#     4   9  17  30  48  69  93 124 161 194 225 269
#     4  10  18  29  49  74  98 124 153 192 241 283
#     4   9  17  31  50  69  93 125 161 194 226 275
#
# _framework density 16.854202000000001
#
# number of rings (size 3 to 8) (size 9 to 14) (size 15 to 20)
#    0.000    2.667    0.000    4.000    0.000    4.667 
#    0.000    0.833    0.000    3.000    0.000    7.000 
#    0.000    0.000    0.000    0.000    0.000    0.000 
#
# Total GULP energy -267519.909550 kJ/mol
# GULP energy per Si atom -5573.331449 kJ/mol
# Density = 1.681584 g / cm^3
# Si number density = 16.854202 Si / 1000 Ang^3
#
#
#
# Elastic Constant Matrix: (Units=GPa)
#
#
# Indices 1 2 3 4 5 6 
#
# 1 93.0962 -3.9615 9.1252 0.0000 0.0000 0.0000
# 2 -3.9615 39.9852 14.8263 0.0000 0.0000 0.0000
# 3 9.1252 14.8263 27.0967 0.0000 0.0000 0.0000
# 4 0.0000 0.0000 0.0000 5.7277 0.0000 0.0000
# 5 0.0000 0.0000 0.0000 0.0000 7.0668 0.0000
# 6 0.0000 0.0000 0.0000 0.0000 0.0000 11.0359
#
#
#
# Elastic Compliance Matrix: (Units=1/GPa)
#
#
# Indices 1 2 3 4 5 6 
#
# 1 0.011428 0.003211 -0.005605 0.000000 0.000000 0.000000
# 2 0.003211 0.032277 -0.018742 0.000000 0.000000 0.000000
# 3 -0.005605 -0.018742 0.049047 0.000000 0.000000 0.000000
# 4 0.000000 0.000000 0.000000 0.174591 0.000000 0.000000
# 5 0.000000 0.000000 0.000000 0.000000 0.141507 0.000000
# 6 0.000000 0.000000 0.000000 0.000000 0.000000 0.090613
#
#
# Mechanical properties :
#
#
# Convention : Reuss Voigt Hill
#
# Bulk Modulus (GPa) = 19.81027 22.23977 21.02502
# Shear Modulus (GPa) = 8.95156 14.11195 11.53175
#
# Velocity S-wave (km/s) = 2.30710 2.89675 2.61857
# Velocity P-wave (km/s) = 4.34469 4.94087 4.65234
#
# Compressibility (1/GPa) = 0.05047886
#
# Stress axis : x y z
#
# Youngs Moduli (GPa) = 87.50742 30.98213 20.38850
#
# Poissons Ratio (x) = -0.09947 0.11428
# Poissons Ratio (y) = -0.28094 0.38212
# Poissons Ratio (z) = 0.49049 0.58066
#
# Static dielectric constant tensor:
#      x y z
#    x 1.576450 0.000000 0.000000 
#    y 0.000000 1.469160 0.000000 
#    z 0.000000 0.000000 1.560610 
# 
# From -- ./inp_files/54490.got.cif
#   From: 2010.05.17/outbox.cif.g08.bks.cpg/sg65_28_cif.got.tgz:54490.got - 2010.06.03 17:01:31.
