data_PCOD9483928
_publ_section_title
;
Structure prediction by ZEFSAII (Michael W. Deem and Ramdas Pophale) SiO2 
 PCOD9483928
Probable space group: C M M M
;
_chemical_formula_sum "Si O2"
_cell_formula_units_Z 88
_cell_length_a 7.656634
_cell_length_b 27.543691
_cell_length_c 23.755260
_cell_angle_alpha 90.000000
_cell_angle_beta 90.000000
_cell_angle_gamma 90.000000
_cell_volume 5009.793365
_symmetry_space_group_name_H-M "C M M M"
_symmetry_group_IT_number 65
_symmetry_cell_setting 'orthorhombic'
loop_
_space_group_symop_operation_xyz
x,y,z
-x,-y,z
x,-y,-z
-x,y,-z
-x,-y,-z
x,y,-z
-x,y,z
x,-y,z
1/2+x,1/2+y,z
1/2-x,1/2-y,z
1/2+x,1/2-y,-z
1/2-x,1/2+y,-z
1/2-x,1/2-y,-z
1/2+x,1/2+y,-z
1/2-x,1/2+y,z
1/2+x,1/2-y,z
loop_
_atom_site_type_symbol
_atom_site_label
_atom_site_fract_x
_atom_site_fract_y
_atom_site_fract_z
Si Si1 0.298363 0.097628 0.144934
Si Si2 0.294808 0.347302 0.678336
Si Si3 0.210799 0.554356 0.265978
Si Si4 0.210173 0.192917 0.561657
Si Si5 0.000000 0.942050 0.066791
Si Si6 0.291096 0.305596 0.203830
O O1 0.500000 0.085378 0.133109
O O2 0.241575 0.070052 0.202438
O O3 0.284189 0.154447 0.161247
O O4 0.168911 0.081716 0.096050
O O5 0.500000 0.335053 0.676435
O O6 0.275849 0.403921 0.692578
O O7 0.220283 0.332915 0.617762
O O8 0.223167 0.318924 0.733159
O O9 0.271797 0.500000 0.278174
O O10 0.000000 0.555045 0.268066
O O11 0.276432 0.176724 0.500000
O O12 0.250000 0.250000 0.566745
O O13 0.000000 0.186882 0.560571
O O14 0.000000 0.000000 0.077281
O O15 0.000000 0.934204 0.000000
O O16 0.500000 0.312380 0.203615
O O17 0.250000 0.250000 0.190611
#
# Coordination Sequence:
#
# PCOD9483928 Si02
#       6
#    16  16  16  16   8  16
#     4  10  20  37  57  82 113 145 178 220 268 318
#     4   9  18  29  43  68 100 129 165 210 258 308
#     4   9  18  31  49  73  99 128 163 205 257 311
#     4   9  17  29  44  63  90 126 165 203 246 300
#     4  11  24  40  60  86 114 146 183 223 264 310
#     4  10  18  30  50  80 110 141 176 217 270 323
#
# _framework density 17.565594000000001
#
# number of rings (size 3 to 8) (size 9 to 14) (size 15 to 20)
#    0.000    2.455    0.909    1.636    1.273    3.273 
#    0.000    0.909    0.000    1.091    0.000    3.818 
#    0.000    0.000    0.000    0.000    0.000    0.000 
#
# Total GULP energy -245420.411248 kJ/mol
# GULP energy per Si atom -5577.736619 kJ/mol
# Density = 1.752561 g / cm^3
# Si number density = 17.565594 Si / 1000 Ang^3
#
#
#
# Elastic Constant Matrix: (Units=GPa)
#
#
# Indices 1 2 3 4 5 6 
#
# 1 61.0722 8.0048 38.0810 0.0000 0.0000 0.0000
# 2 8.0048 96.0247 62.8903 0.0000 0.0000 0.0000
# 3 38.0810 62.8903 135.0829 0.0000 0.0000 0.0000
# 4 0.0000 0.0000 0.0000 22.3819 0.0000 0.0000
# 5 0.0000 0.0000 0.0000 0.0000 4.0595 0.0000
# 6 0.0000 0.0000 0.0000 0.0000 0.0000 22.8874
#
#
#
# Elastic Compliance Matrix: (Units=1/GPa)
#
#
# Indices 1 2 3 4 5 6 
#
# 1 0.020442 0.002978 -0.007149 0.000000 0.000000 0.000000
# 2 0.002978 0.015416 -0.008017 0.000000 0.000000 0.000000
# 3 -0.007149 -0.008017 0.013151 0.000000 0.000000 0.000000
# 4 0.000000 0.000000 0.000000 0.044679 0.000000 0.000000
# 5 0.000000 0.000000 0.000000 0.000000 0.246333 0.000000
# 6 0.000000 0.000000 0.000000 0.000000 0.000000 0.043692
#
#
# Mechanical properties :
#
#
# Convention : Reuss Voigt Hill
#
# Bulk Modulus (GPa) = 40.59633 56.68132 48.63883
# Shear Modulus (GPa) = 12.01058 22.07934 17.04496
#
# Velocity S-wave (km/s) = 2.61771 3.54922 3.11844
# Velocity P-wave (km/s) = 5.68313 7.00959 6.38092
#
# Compressibility (1/GPa) = 0.02463277
#
# Stress axis : x y z
#
# Youngs Moduli (GPa) = 48.91997 64.86629 76.04142
#
# Poissons Ratio (x) = -0.19319 0.54364
# Poissons Ratio (y) = -0.14570 0.60962
# Poissons Ratio (z) = 0.34974 0.52003
#
# Static dielectric constant tensor:
#      x y z
#    x 1.782850 0.000000 0.000000 
#    y 0.000000 1.582470 0.000000 
#    z 0.000000 0.000000 1.599100 
# 
# From -- ./inp_files/60215.got.cif
#   From: 2010.05.17/outbox.cif.g08.bks.cpg/sg65_31_cif.got.tgz:60215.got - 2010.06.03 17:01:31.
