data_PCOD9483621
_publ_section_title
;
Structure prediction by ZEFSAII (Michael W. Deem and Ramdas Pophale) SiO2 
 PCOD9483621
Probable space group: C M M M
;
_chemical_formula_sum "Si O2"
_cell_formula_units_Z 96
_cell_length_a 16.329098
_cell_length_b 18.060385
_cell_length_c 18.487640
_cell_angle_alpha 90.000000
_cell_angle_beta 90.000000
_cell_angle_gamma 90.000000
_cell_volume 5452.186152
_symmetry_space_group_name_H-M "C M M M"
_symmetry_group_IT_number 65
_symmetry_cell_setting 'orthorhombic'
loop_
_space_group_symop_operation_xyz
x,y,z
-x,-y,z
x,-y,-z
-x,y,-z
-x,-y,-z
x,y,-z
-x,y,z
x,-y,z
1/2+x,1/2+y,z
1/2-x,1/2-y,z
1/2+x,1/2-y,-z
1/2-x,1/2+y,-z
1/2-x,1/2-y,-z
1/2+x,1/2+y,-z
1/2-x,1/2+y,z
1/2+x,1/2-y,z
loop_
_atom_site_type_symbol
_atom_site_label
_atom_site_fract_x
_atom_site_fract_y
_atom_site_fract_z
Si Si1 0.654857 0.775767 0.079701
Si Si2 0.903067 0.416479 0.684164
Si Si3 0.500000 0.682016 0.581343
Si Si4 0.339662 0.234803 0.364909
Si Si5 0.500000 0.587003 0.723471
Si Si6 0.648448 0.675966 0.214069
Si Si7 0.310868 0.913842 0.834015
O O1 0.750000 0.750000 0.076219
O O2 0.621964 0.726920 0.146281
O O3 0.654861 0.861871 0.102299
O O4 0.618782 0.763569 0.000000
O O5 0.886284 0.500000 0.657967
O O6 0.855280 0.352344 0.642978
O O7 0.874005 0.413299 0.767305
O O8 0.000000 0.402435 0.679571
O O9 0.500000 0.653496 0.500000
O O10 0.417657 0.729864 0.595031
O O11 0.500000 0.619484 0.642555
O O12 0.250000 0.250000 0.396954
O O13 0.339019 0.271644 0.284177
O O14 0.500000 0.500000 0.722759
O O15 0.421313 0.619064 0.763983
O O16 0.729677 0.629584 0.193786
O O17 0.294540 0.000000 0.852717
#
# Coordination Sequence:
#
# PCOD9483621 Si02
#       7
#    16  16   8  16   8  16  16
#     4   9  17  30  48  71 104 143 180 222 277 330
#     4  10  19  31  52  82 111 139 179 236 287 322
#     4  10  24  39  57  87 119 146 176 217 275 344
#     4  11  18  34  59  82 109 148 191 235 274 326
#     4  10  22  37  59  81 105 139 175 222 270 321
#     4  10  18  32  52  78 107 136 188 233 272 316
#     4  10  18  29  49  75 107 139 181 234 277 322
#
# _framework density 17.607617000000001
#
# number of rings (size 3 to 8) (size 9 to 14) (size 15 to 20)
#    0.000    2.000    4.167    1.000    0.000    0.833 
#    0.000    0.417    0.000    3.000    0.000    2.333 
#    0.000    0.000    0.000    0.000    0.000    0.000 
#
# Total GULP energy -267611.515620 kJ/mol
# GULP energy per Si atom -5575.239909 kJ/mol
# Density = 1.756754 g / cm^3
# Si number density = 17.607617 Si / 1000 Ang^3
#
#
#
# Elastic Constant Matrix: (Units=GPa)
#
#
# Indices 1 2 3 4 5 6 
#
# 1 87.2598 43.5531 20.2143 0.0000 0.0000 0.0000
# 2 43.5531 131.9048 24.9791 0.0000 0.0000 0.0000
# 3 20.2143 24.9791 74.6274 0.0000 0.0000 0.0000
# 4 0.0000 0.0000 0.0000 0.5127 0.0000 0.0000
# 5 0.0000 0.0000 0.0000 0.0000 8.5603 0.0000
# 6 0.0000 0.0000 0.0000 0.0000 0.0000 26.8717
#
#
#
# Elastic Compliance Matrix: (Units=1/GPa)
#
#
# Indices 1 2 3 4 5 6 
#
# 1 0.014118 -0.004204 -0.002417 0.000000 0.000000 0.000000
# 2 -0.004204 0.009346 -0.001990 0.000000 0.000000 0.000000
# 3 -0.002417 -0.001990 0.014721 0.000000 0.000000 0.000000
# 4 0.000000 0.000000 0.000000 1.950479 0.000000 0.000000
# 5 0.000000 0.000000 0.000000 0.000000 0.116819 0.000000
# 6 0.000000 0.000000 0.000000 0.000000 0.000000 0.037214
#
#
# Mechanical properties :
#
#
# Convention : Reuss Voigt Hill
#
# Bulk Modulus (GPa) = 47.70148 52.36501 50.03325
# Shear Modulus (GPa) = 2.30744 20.85863 11.58303
#
# Velocity S-wave (km/s) = 1.14600 3.44559 2.56763
# Velocity P-wave (km/s) = 5.37599 6.75529 6.10472
#
# Compressibility (1/GPa) = 0.02096371
#
# Stress axis : x y z
#
# Youngs Moduli (GPa) = 70.83043 106.99692 67.93220
#
# Poissons Ratio (x) = 0.44980 0.16420
# Poissons Ratio (y) = 0.29776 0.13516
# Poissons Ratio (z) = 0.17120 0.21288
#
# Static dielectric constant tensor:
#      x y z
#    x 1.616720 0.000000 0.000000 
#    y 0.000000 1.591250 0.000000 
#    z 0.000000 0.000000 1.596860 
# 
# From -- ./inp_files/54541.got.cif
#   From: 2010.05.17/outbox.cif.g08.bks.cpg/sg65_28_cif.got.tgz:54541.got - 2010.06.03 17:01:31.
