data_PCOD9483247
_publ_section_title
;
Structure prediction by ZEFSAII (Michael W. Deem and Ramdas Pophale) SiO2 
 PCOD9483247
Probable space group: C M M M
;
_chemical_formula_sum "Si O2"
_cell_formula_units_Z 72
_cell_length_a 17.632991
_cell_length_b 21.369347
_cell_length_c 8.315217
_cell_angle_alpha 90.000000
_cell_angle_beta 90.000000
_cell_angle_gamma 90.000000
_cell_volume 3133.219527
_symmetry_space_group_name_H-M "C M M M"
_symmetry_group_IT_number 65
_symmetry_cell_setting 'orthorhombic'
loop_
_space_group_symop_operation_xyz
x,y,z
-x,-y,z
x,-y,-z
-x,y,-z
-x,-y,-z
x,y,-z
-x,y,z
x,-y,z
1/2+x,1/2+y,z
1/2-x,1/2-y,z
1/2+x,1/2-y,-z
1/2-x,1/2+y,-z
1/2-x,1/2-y,-z
1/2+x,1/2+y,-z
1/2-x,1/2+y,z
1/2+x,1/2-y,z
loop_
_atom_site_type_symbol
_atom_site_label
_atom_site_fract_x
_atom_site_fract_y
_atom_site_fract_z
Si Si1 0.087022 0.424170 0.819043
Si Si2 0.911302 0.753364 0.500000
Si Si3 0.817692 0.575715 0.500000
Si Si4 0.840192 0.243666 0.826080
Si Si5 0.145615 0.102941 0.500000
Si Si6 0.909802 0.104751 0.825978
O O1 0.083660 0.500000 0.817581
O O2 0.137397 0.408485 0.663906
O O3 0.000000 0.401552 0.800811
O O4 0.114706 0.407494 0.000000
O O5 0.876355 0.728806 0.334418
O O6 0.892848 0.828073 0.500000
O O7 0.000000 0.743859 0.500000
O O8 0.805913 0.500000 0.500000
O O9 0.735869 0.607900 0.500000
O O10 0.750000 0.250000 0.815618
O O11 0.865818 0.171048 0.828801
O O12 0.865335 0.269307 0.000000
O O13 0.118562 0.071905 0.334778
O O14 0.000000 0.116418 0.812784
O O15 0.896249 0.074421 0.000000
#
# Coordination Sequence:
#
# PCOD9483247 Si02
#       6
#    16   8   8  16   8  16
#     4   8  14  26  44  64  85 108 134 167 210 261
#     4  10  19  31  47  64  86 117 153 188 214 249
#     4  10  19  28  41  65  93 115 140 183 234 273
#     4   9  16  26  43  69  95 111 129 169 222 263
#     4  10  18  28  43  63  88 117 146 180 224 266
#     4   9  17  30  48  67  86 112 149 186 215 250
#
# _framework density 22.979558999999998
#
# number of rings (size 3 to 8) (size 9 to 14) (size 15 to 20)
#    0.000    2.889    0.000    4.333    0.000    3.556 
#    0.000    0.000    0.000    3.000    0.000   38.889 
#    0.000   21.333    0.000    0.000    0.000    0.000 
#
# Total GULP energy -200947.051283 kJ/mol
# GULP energy per Si atom -5581.862536 kJ/mol
# Density = 2.292726 g / cm^3
# Si number density = 22.979559 Si / 1000 Ang^3
#
#
#
# Elastic Constant Matrix: (Units=GPa)
#
#
# Indices 1 2 3 4 5 6 
#
# 1 119.4367 4.3483 108.8597 0.0000 0.0000 0.0000
# 2 4.3483 84.7250 7.2252 0.0000 0.0000 0.0000
# 3 108.8597 7.2252 306.4732 0.0000 0.0000 0.0000
# 4 0.0000 0.0000 0.0000 -36.8642 0.0000 0.0000
# 5 0.0000 0.0000 0.0000 0.0000 26.4313 0.0000
# 6 0.0000 0.0000 0.0000 0.0000 0.0000 -89.4378
#
#
#
# Elastic Compliance Matrix: (Units=1/GPa)
#
#
# Indices 1 2 3 4 5 6 
#
# 1 0.012387 -0.000261 -0.004394 0.000000 0.000000 0.000000
# 2 -0.000261 0.011832 -0.000186 0.000000 0.000000 0.000000
# 3 -0.004394 -0.000186 0.004828 0.000000 0.000000 0.000000
# 4 0.000000 0.000000 0.000000 -0.027127 0.000000 0.000000
# 5 0.000000 0.000000 0.000000 0.000000 0.037834 0.000000
# 6 0.000000 0.000000 0.000000 0.000000 0.000000 -0.011181
#
#
# Mechanical properties :
#
#
# Convention : Reuss Voigt Hill
#
# Bulk Modulus (GPa) = 51.63951 83.50015 67.56983
# Shear Modulus (GPa) = 111.83234 6.03933 58.93584
#
# Velocity S-wave (km/s) = 6.98367 1.62291 5.06979
# Velocity P-wave (km/s) = 9.35679 6.31881 7.98364
#
# Compressibility (1/GPa) = 0.01936502
#
# Stress axis : x y z
#
# Youngs Moduli (GPa) = 80.73210 84.51538 207.12814
#
# Poissons Ratio (x) = 0.02206 0.91004
# Poissons Ratio (y) = 0.02107 0.03857
# Poissons Ratio (z) = 0.35470 0.01574
#
# Static dielectric constant tensor:
#      x y z
#    x 1.791940 0.000000 0.000000 
#    y 0.000000 2.045820 0.000000 
#    z 0.000000 0.000000 1.932720 
# 
# From -- ./inp_files/7745.got.cif
#   From: 2010.05.17/outbox.cif.g08.bks.cpg/sg65_4_cif.got.tgz:7745.got - 2010.06.03 17:01:31.
