data_PCOD9483640
_publ_section_title
;
Structure prediction by ZEFSAII (Michael W. Deem and Ramdas Pophale) SiO2 
 PCOD9483640
Probable space group: C M M M
;
_chemical_formula_sum "Si O2"
_cell_formula_units_Z 88
_cell_length_a 7.629378
_cell_length_b 24.458551
_cell_length_c 23.665631
_cell_angle_alpha 90.000000
_cell_angle_beta 90.000000
_cell_angle_gamma 90.000000
_cell_volume 4416.090306
_symmetry_space_group_name_H-M "C M M M"
_symmetry_group_IT_number 65
_symmetry_cell_setting 'orthorhombic'
loop_
_space_group_symop_operation_xyz
x,y,z
-x,-y,z
x,-y,-z
-x,y,-z
-x,-y,-z
x,y,-z
-x,y,z
x,-y,z
1/2+x,1/2+y,z
1/2-x,1/2-y,z
1/2+x,1/2-y,-z
1/2-x,1/2+y,-z
1/2-x,1/2-y,-z
1/2+x,1/2+y,-z
1/2-x,1/2+y,z
1/2+x,1/2-y,z
loop_
_atom_site_type_symbol
_atom_site_label
_atom_site_fract_x
_atom_site_fract_y
_atom_site_fract_z
Si Si1 0.293226 0.313973 0.783046
Si Si2 0.289826 0.314044 0.438055
Si Si3 0.214832 0.564555 0.000000
Si Si4 0.783777 0.121149 0.327931
Si Si5 0.300040 0.500000 0.680488
Si Si6 0.786133 0.500000 0.809342
Si Si7 0.709163 0.105531 0.120216
O O1 0.500000 0.318440 0.778705
O O2 0.250000 0.250000 0.778423
O O3 0.222097 0.349872 0.730209
O O4 0.244825 0.340477 0.843308
O O5 0.223377 0.332143 0.500000
O O6 0.500000 0.320490 0.438722
O O7 0.250000 0.250000 0.432595
O O8 0.226270 0.345142 0.382712
O O9 0.274704 0.595808 0.056596
O O10 0.265710 0.500000 0.000000
O O11 0.000000 0.564073 0.000000
O O12 0.721806 0.058745 0.334501
O O13 0.000000 0.120170 0.326176
O O14 0.500000 0.500000 0.658941
O O15 0.296822 0.500000 0.748220
O O16 0.730465 0.553907 0.842805
O O17 0.000000 0.500000 0.804327
O O18 0.500000 0.101066 0.116478
#
# Coordination Sequence:
#
# PCOD9483640 Si02
#       7
#    16  16   8  16   8   8  16
#     4  11  22  36  53  74 102 135 172 212 256 301
#     4   9  17  31  50  72  98 129 168 210 249 292
#     4   9  16  30  54  81 106 133 164 202 249 300
#     4   9  18  31  50  75 101 131 165 205 251 301
#     4  10  18  32  50  71 103 138 165 196 252 310
#     4  10  18  29  50  79 107 131 163 206 248 294
#     4  10  19  33  54  80 107 133 166 206 250 301
#
# _framework density 19.927128
#
# number of rings (size 3 to 8) (size 9 to 14) (size 15 to 20)
#    0.000    2.273    2.727    1.091    0.000    0.000 
#    0.000    3.182    0.000    3.273    0.000    0.000 
#    0.000    3.636    0.000    0.000    0.000    0.000 
#
# Total GULP energy -245419.323938 kJ/mol
# GULP energy per Si atom -5577.711908 kJ/mol
# Density = 1.988177 g / cm^3
# Si number density = 19.927128 Si / 1000 Ang^3
#
#
#
# Elastic Constant Matrix: (Units=GPa)
#
#
# Indices 1 2 3 4 5 6 
#
# 1 36.1710 -5.1545 3.3315 0.0000 0.0000 0.0000
# 2 -5.1545 131.1008 78.8545 0.0000 0.0000 0.0000
# 3 3.3315 78.8545 158.5917 0.0000 0.0000 0.0000
# 4 0.0000 0.0000 0.0000-1136.0977 0.0000 0.0000
# 5 0.0000 0.0000 0.0000 0.0000 -36.8713 0.0000
# 6 0.0000 0.0000 0.0000 0.0000 0.0000 -25.8138
#
#
#
# Elastic Compliance Matrix: (Units=1/GPa)
#
#
# Indices 1 2 3 4 5 6 
#
# 1 0.028093 0.002082 -0.001625 0.000000 0.000000 0.000000
# 2 0.002082 0.011037 -0.005531 0.000000 0.000000 0.000000
# 3 -0.001625 -0.005531 0.009090 0.000000 0.000000 0.000000
# 4 0.000000 0.000000 0.000000 -0.000880 0.000000 0.000000
# 5 0.000000 0.000000 0.000000 0.000000 -0.027121 0.000000
# 6 0.000000 0.000000 0.000000 0.000000 0.000000 -0.038739
#
#
# Mechanical properties :
#
#
# Convention : Reuss Voigt Hill
#
# Bulk Modulus (GPa) = 26.26726 53.32518 39.79622
# Shear Modulus (GPa) = 1157.97315 -223.16775 467.40270
#
# Velocity S-wave (km/s) = 24.13225 -10.59410 15.33184
# Velocity P-wave (km/s) = 28.10156 11.08280 18.26019
#
# Compressibility (1/GPa) = 0.03807020
#
# Stress axis : x y z
#
# Youngs Moduli (GPa) = 35.59625 90.60805 110.01220
#
# Poissons Ratio (x) = -0.18866 0.17882
# Poissons Ratio (y) = -0.07412 0.60851
# Poissons Ratio (z) = 0.05786 0.50118
#
# Static dielectric constant tensor:
#      x y z
#    x 1.750340 0.000000 0.000000 
#    y 0.000000 1.645280 0.000000 
#    z 0.000000 0.000000 1.715290 
# 
# From -- ./inp_files/59900.got.cif
#   From: 2010.05.17/outbox.cif.g08.bks.cpg/sg65_30_cif.got.tgz:59900.got - 2010.06.03 17:01:31.
