data_PCOD9483129
_publ_section_title
;
Structure prediction by ZEFSAII (Michael W. Deem and Ramdas Pophale) SiO2 
 PCOD9483129
Probable space group: C M M M
;
_chemical_formula_sum "Si O2"
_cell_formula_units_Z 88
_cell_length_a 17.381368
_cell_length_b 15.236840
_cell_length_c 13.403327
_cell_angle_alpha 90.000000
_cell_angle_beta 90.000000
_cell_angle_gamma 90.000000
_cell_volume 3549.698564
_symmetry_space_group_name_H-M "C M M M"
_symmetry_group_IT_number 65
_symmetry_cell_setting 'orthorhombic'
loop_
_space_group_symop_operation_xyz
x,y,z
-x,-y,z
x,-y,-z
-x,y,-z
-x,-y,-z
x,y,-z
-x,y,z
x,-y,z
1/2+x,1/2+y,z
1/2-x,1/2-y,z
1/2+x,1/2-y,-z
1/2-x,1/2+y,-z
1/2-x,1/2-y,-z
1/2+x,1/2+y,-z
1/2-x,1/2+y,z
1/2+x,1/2-y,z
loop_
_atom_site_type_symbol
_atom_site_label
_atom_site_fract_x
_atom_site_fract_y
_atom_site_fract_z
Si Si1 0.249761 0.647655 0.669577
Si Si2 0.413591 0.328096 0.892313
Si Si3 0.917442 0.500000 0.119289
Si Si4 0.807124 0.657702 0.885824
Si Si5 0.415803 0.162386 0.618080
Si Si6 0.084915 0.134118 0.675912
O O1 0.250000 0.750000 0.635940
O O2 0.248116 0.649037 0.790662
O O3 0.165133 0.614060 0.639211
O O4 0.331110 0.607380 0.634205
O O5 0.500000 0.287609 0.891256
O O6 0.351913 0.249710 0.888981
O O7 0.412131 0.386490 0.793661
O O8 0.405252 0.373334 0.000000
O O9 0.870655 0.413709 0.140617
O O10 0.000000 0.500000 0.166385
O O11 0.924709 0.500000 0.000000
O O12 0.778614 0.641356 0.000000
O O13 0.416078 0.179197 0.500000
O O14 0.500000 0.122783 0.642619
O O15 0.413817 0.258851 0.669344
O O16 0.000000 0.107238 0.636339
#
# Coordination Sequence:
#
# PCOD9483129 Si02
#       6
#    16  16   8  16  16  16
#     4  10  18  28  42  65  87 115 146 182 224 266
#     4   9  15  23  37  56  81 112 140 170 207 248
#     4   9  18  30  42  60  86 118 154 187 218 256
#     4  10  18  27  41  61  87 116 147 181 218 259
#     4   9  17  28  41  58  84 117 149 180 215 262
#     4   9  17  28  39  58  87 114 144 177 213 263
#
# _framework density 24.790838000000001
#
# number of rings (size 3 to 8) (size 9 to 14) (size 15 to 20)
#    0.000    2.636    3.636    0.545    0.000    7.273 
#    0.000    0.000    0.000    0.000    0.000    1.273 
#    0.000    4.364    0.000    0.000    0.000   81.636 
#
# Total GULP energy -245153.864566 kJ/mol
# GULP energy per Si atom -5571.678740 kJ/mol
# Density = 2.473441 g / cm^3
# Si number density = 24.790838 Si / 1000 Ang^3
#
#
#
# Elastic Constant Matrix: (Units=GPa)
#
#
# Indices 1 2 3 4 5 6 
#
# 1 253.6669 11.9454 16.7727 0.0000 0.0000 0.0000
# 2 11.9454 42.6298 -1.4526 0.0000 0.0000 0.0000
# 3 16.7727 -1.4526 93.5785 0.0000 0.0000 0.0000
# 4 0.0000 0.0000 0.0000 -1.2523 0.0000 0.0000
# 5 0.0000 0.0000 0.0000 0.0000 19.9057 0.0000
# 6 0.0000 0.0000 0.0000 0.0000 0.0000 100.0452
#
#
#
# Elastic Compliance Matrix: (Units=1/GPa)
#
#
# Indices 1 2 3 4 5 6 
#
# 1 0.004046 -0.001159 -0.000743 0.000000 0.000000 0.000000
# 2 -0.001159 0.023802 0.000577 0.000000 0.000000 0.000000
# 3 -0.000743 0.000577 0.010828 0.000000 0.000000 0.000000
# 4 0.000000 0.000000 0.000000 -0.798524 0.000000 0.000000
# 5 0.000000 0.000000 0.000000 0.000000 0.050237 0.000000
# 6 0.000000 0.000000 0.000000 0.000000 0.000000 0.009995
#
#
# Mechanical properties :
#
#
# Convention : Reuss Voigt Hill
#
# Bulk Modulus (GPa) = 27.75734 49.37848 38.56791
# Shear Modulus (GPa) = -7.29974 47.91369 20.30698
#
# Velocity S-wave (km/s) = -1.71783 4.40104 2.86515
# Velocity P-wave (km/s) = 2.69932 6.76659 5.15137
#
# Compressibility (1/GPa) = 0.03602650
#
# Stress axis : x y z
#
# Youngs Moduli (GPa) = 247.16406 42.01291 92.34996
#
# Poissons Ratio (x) = 0.04869 0.06863
# Poissons Ratio (y) = 0.28647 -0.05331
# Poissons Ratio (z) = 0.18368 -0.02425
#
# Static dielectric constant tensor:
#      x y z
#    x 2.068250 0.000000 0.000000 
#    y 0.000000 1.916150 0.000000 
#    z 0.000000 0.000000 1.988090 
# 
# From -- ./inp_files/42977.got.cif
#   From: 2010.05.17/outbox.cif.g08.bks.cpg/sg65_22_cif.got.tgz:42977.got - 2010.06.03 17:01:31.
