data_PCOD9483527
_publ_section_title
;
Structure prediction by ZEFSAII (Michael W. Deem and Ramdas Pophale) SiO2 
 PCOD9483527
Probable space group: C M M M
;
_chemical_formula_sum "Si O2"
_cell_formula_units_Z 84
_cell_length_a 17.597207
_cell_length_b 22.630221
_cell_length_c 12.149100
_cell_angle_alpha 90.000000
_cell_angle_beta 90.000000
_cell_angle_gamma 90.000000
_cell_volume 4838.120097
_symmetry_space_group_name_H-M "C M M M"
_symmetry_group_IT_number 65
_symmetry_cell_setting 'orthorhombic'
loop_
_space_group_symop_operation_xyz
x,y,z
-x,-y,z
x,-y,-z
-x,y,-z
-x,-y,-z
x,y,-z
-x,y,z
x,-y,z
1/2+x,1/2+y,z
1/2-x,1/2-y,z
1/2+x,1/2-y,-z
1/2-x,1/2+y,-z
1/2-x,1/2-y,-z
1/2+x,1/2+y,-z
1/2-x,1/2+y,z
1/2+x,1/2-y,z
loop_
_atom_site_type_symbol
_atom_site_label
_atom_site_fract_x
_atom_site_fract_y
_atom_site_fract_z
Si Si1 0.691730 0.097493 0.319144
Si Si2 0.586267 0.237383 0.871090
Si Si3 0.693688 0.698941 0.300541
Si Si4 0.087323 0.658280 0.500000
Si Si5 0.911808 0.405511 0.873329
Si Si6 0.733695 0.000000 0.500000
Si Si7 0.413089 0.699430 0.500000
O O1 0.754280 0.143022 0.273695
O O2 0.631071 0.134291 0.393266
O O3 0.644782 0.070415 0.218072
O O4 0.727869 0.051257 0.403130
O O5 0.500000 0.251502 0.833210
O O6 0.648156 0.271294 0.799505
O O7 0.594054 0.166302 0.863858
O O8 0.592649 0.252568 0.000000
O O9 0.750000 0.750000 0.345843
O O10 0.633444 0.680856 0.392931
O O11 0.086857 0.728985 0.500000
O O12 0.000000 0.637421 0.500000
O O13 0.000000 0.421016 0.852248
O O14 0.894545 0.421186 0.000000
O O15 0.500000 0.679196 0.500000
#
# Coordination Sequence:
#
# PCOD9483527 Si02
#       7
#    16  16  16   8  16   4   8
#     4  11  21  36  52  71 100 134 179 223 256 305
#     4   9  18  32  50  80 120 148 162 188 247 322
#     4  12  20  30  51  81 105 131 173 214 256 306
#     4  10  18  29  47  68  98 135 165 204 256 304
#     4   9  17  31  52  78 111 145 169 200 252 307
#     4  10  26  42  51  64  95 142 180 228 282 300
#     4  11  20  30  44  70 105 134 163 203 261 315
#
# _framework density 17.362114999999999
#
# number of rings (size 3 to 8) (size 9 to 14) (size 15 to 20)
#    0.000    1.714    3.810    3.714    0.000    4.190 
#    0.000    9.048    0.000    1.143    0.000   12.000 
#    0.000    1.524    0.000    0.000    0.000    0.000 
#
# Total GULP energy -233926.689286 kJ/mol
# GULP energy per Si atom -5569.683078 kJ/mol
# Density = 1.732260 g / cm^3
# Si number density = 17.362115 Si / 1000 Ang^3
#
#
#
# Elastic Constant Matrix: (Units=GPa)
#
#
# Indices 1 2 3 4 5 6 
#
# 1 88.6796 14.4034 33.8885 0.0000 0.0000 0.0000
# 2 14.4034 47.2746 7.9539 0.0000 0.0000 0.0000
# 3 33.8885 7.9539 76.7828 0.0000 0.0000 0.0000
# 4 0.0000 0.0000 0.0000 8.0624 0.0000 0.0000
# 5 0.0000 0.0000 0.0000 0.0000 33.3538 0.0000
# 6 0.0000 0.0000 0.0000 0.0000 0.0000 -7.6188
#
#
#
# Elastic Compliance Matrix: (Units=1/GPa)
#
#
# Indices 1 2 3 4 5 6 
#
# 1 0.014051 -0.003295 -0.005860 0.000000 0.000000 0.000000
# 2 -0.003295 0.022301 -0.000856 0.000000 0.000000 0.000000
# 3 -0.005860 -0.000856 0.015699 0.000000 0.000000 0.000000
# 4 0.000000 0.000000 0.000000 0.124032 0.000000 0.000000
# 5 0.000000 0.000000 0.000000 0.000000 0.029982 0.000000
# 6 0.000000 0.000000 0.000000 0.000000 0.000000 -0.131255
#
#
# Mechanical properties :
#
#
# Convention : Reuss Voigt Hill
#
# Bulk Modulus (GPa) = 31.22202 36.13650 33.67926
# Shear Modulus (GPa) = 47.38973 17.19225 32.29099
#
# Velocity S-wave (km/s) = 5.23012 3.15018 4.31728
# Velocity P-wave (km/s) = 7.38201 5.83868 6.65523
#
# Compressibility (1/GPa) = 0.03202868
#
# Stress axis : x y z
#
# Youngs Moduli (GPa) = 71.16836 44.84120 63.69899
#
# Poissons Ratio (x) = 0.14775 0.37329
# Poissons Ratio (y) = 0.23450 0.05452
# Poissons Ratio (z) = 0.41706 0.03838
#
# Static dielectric constant tensor:
#      x y z
#    x 1.597320 0.000000 0.000000 
#    y 0.000000 1.574630 0.000000 
#    z 0.000000 0.000000 1.603340 
# 
# From -- ./inp_files/24869.got.cif
#   From: 2010.05.17/outbox.cif.g08.bks.cpg/sg65_13_cif.got.tgz:24869.got - 2010.06.03 17:01:31.
