data_PCOD9483794
_publ_section_title
;
Structure prediction by ZEFSAII (Michael W. Deem and Ramdas Pophale) SiO2 
 PCOD9483794
Probable space group: C M M M
;
_chemical_formula_sum "Si O2"
_cell_formula_units_Z 64
_cell_length_a 14.732780
_cell_length_b 9.193332
_cell_length_c 21.643150
_cell_angle_alpha 90.000000
_cell_angle_beta 90.000000
_cell_angle_gamma 90.000000
_cell_volume 2931.420477
_symmetry_space_group_name_H-M "C M M M"
_symmetry_group_IT_number 65
_symmetry_cell_setting 'orthorhombic'
loop_
_space_group_symop_operation_xyz
x,y,z
-x,-y,z
x,-y,-z
-x,y,-z
-x,-y,-z
x,y,-z
-x,y,z
x,-y,z
1/2+x,1/2+y,z
1/2-x,1/2-y,z
1/2+x,1/2-y,-z
1/2-x,1/2+y,-z
1/2-x,1/2-y,-z
1/2+x,1/2+y,-z
1/2-x,1/2+y,z
1/2+x,1/2-y,z
loop_
_atom_site_type_symbol
_atom_site_label
_atom_site_fract_x
_atom_site_fract_y
_atom_site_fract_z
Si Si1 0.648371 0.823036 0.000000
Si Si2 0.606593 0.660765 0.738906
Si Si3 0.610968 0.664550 0.500000
Si Si4 0.888709 0.663628 0.377911
Si Si5 0.348465 0.324138 0.878546
O O1 0.750000 0.750000 0.000000
O O2 0.606985 0.757043 0.062900
O O3 0.651534 0.000000 0.000000
O O4 0.500000 0.647800 0.725029
O O5 0.648671 0.500000 0.733169
O O6 0.642119 0.769067 0.687148
O O7 0.611819 0.702990 0.810689
O O8 0.643021 0.500000 0.500000
O O9 0.500000 0.663592 0.500000
O O10 0.638775 0.743763 0.437248
O O11 0.856304 0.500000 0.384355
O O12 0.000000 0.660337 0.378036
O O13 0.345416 0.500000 0.888827
O O14 0.250000 0.250000 0.874277
#
# Coordination Sequence:
#
# PCOD9483794 Si02
#       5
#     8  16   8  16  16
#     4  10  18  30  49  70  93 119 151 191 231 272
#     4   9  18  32  48  67  93 125 157 188 227 275
#     4   9  15  23  37  57  84 119 156 191 226 269
#     4   9  16  25  39  61  89 119 151 190 233 272
#     4  10  19  32  51  72  94 120 153 192 230 272
#
# _framework density 21.832418000000001
#
# number of rings (size 3 to 8) (size 9 to 14) (size 15 to 20)
#    0.000    2.625    0.000    4.500    0.000    6.500 
#    0.000    0.625    0.000    3.750    0.000    0.875 
#    0.000    0.000    0.000    0.000    0.000    0.000 
#
# Total GULP energy -178482.218023 kJ/mol
# GULP energy per Si atom -5577.569313 kJ/mol
# Density = 2.178273 g / cm^3
# Si number density = 21.832418 Si / 1000 Ang^3
#
#
#
# Elastic Constant Matrix: (Units=GPa)
#
#
# Indices 1 2 3 4 5 6 
#
# 1 43.0624 10.9676 -1.9278 0.0000 0.0000 0.0000
# 2 10.9676 198.4926 151.4708 0.0000 0.0000 0.0000
# 3 -1.9278 151.4708 212.2412 0.0000 0.0000 0.0000
# 4 0.0000 0.0000 0.0000 1775.6665 0.0000 0.0000
# 5 0.0000 0.0000 0.0000 0.0000 27.9630 0.0000
# 6 0.0000 0.0000 0.0000 0.0000 0.0000 4.9652
#
#
#
# Elastic Compliance Matrix: (Units=1/GPa)
#
#
# Indices 1 2 3 4 5 6 
#
# 1 0.024178 -0.003302 0.002576 0.000000 0.000000 0.000000
# 2 -0.003302 0.011514 -0.008247 0.000000 0.000000 0.000000
# 3 0.002576 -0.008247 0.010621 0.000000 0.000000 0.000000
# 4 0.000000 0.000000 0.000000 0.000563 0.000000 0.000000
# 5 0.000000 0.000000 0.000000 0.000000 0.035761 0.000000
# 6 0.000000 0.000000 0.000000 0.000000 0.000000 0.201401
#
#
# Mechanical properties :
#
#
# Convention : Reuss Voigt Hill
#
# Bulk Modulus (GPa) = 35.25192 86.09081 60.67137
# Shear Modulus (GPa) = 16.05446 381.27132 198.66289
#
# Velocity S-wave (km/s) = 2.71467 13.22931 9.54945
# Velocity P-wave (km/s) = 5.09976 16.51880 12.22453
#
# Compressibility (1/GPa) = 0.02836725
#
# Stress axis : x y z
#
# Youngs Moduli (GPa) = 41.35931 86.85235 94.15549
#
# Poissons Ratio (x) = 0.28676 -0.24254
# Poissons Ratio (y) = 0.13656 0.77651
# Poissons Ratio (z) = -0.10654 0.71628
#
# Static dielectric constant tensor:
#      x y z
#    x 1.884210 0.000000 0.000000 
#    y 0.000000 1.766130 0.000000 
#    z 0.000000 0.000000 1.830580 
# 
# From -- ./inp_files/36040.got.cif
#   From: 2010.05.17/outbox.cif.g08.bks.cpg/sg65_19_cif.got.tgz:36040.got - 2010.06.03 17:01:31.
