data_PCOD9483275
_publ_section_title
;
Structure prediction by ZEFSAII (Michael W. Deem and Ramdas Pophale) SiO2 
 PCOD9483275
Probable space group: C M M M
;
_chemical_formula_sum "Si O2"
_cell_formula_units_Z 104
_cell_length_a 22.957703
_cell_length_b 21.095636
_cell_length_c 13.736514
_cell_angle_alpha 90.000000
_cell_angle_beta 90.000000
_cell_angle_gamma 90.000000
_cell_volume 6652.694637
_symmetry_space_group_name_H-M "C M M M"
_symmetry_group_IT_number 65
_symmetry_cell_setting 'orthorhombic'
loop_
_space_group_symop_operation_xyz
x,y,z
-x,-y,z
x,-y,-z
-x,y,-z
-x,-y,-z
x,y,-z
-x,y,z
x,-y,z
1/2+x,1/2+y,z
1/2-x,1/2-y,z
1/2+x,1/2-y,-z
1/2-x,1/2+y,-z
1/2-x,1/2-y,-z
1/2+x,1/2+y,-z
1/2-x,1/2+y,z
1/2+x,1/2-y,z
loop_
_atom_site_type_symbol
_atom_site_label
_atom_site_fract_x
_atom_site_fract_y
_atom_site_fract_z
Si Si1 0.436757 0.926153 0.189115
Si Si2 0.261244 0.076487 0.688457
Si Si3 0.112958 0.386934 0.387744
Si Si4 0.638590 0.623941 0.617767
Si Si5 0.066976 0.246067 0.382852
Si Si6 0.066607 0.000000 0.381657
Si Si7 0.684755 0.077052 0.107689
O O1 0.500000 0.897070 0.169306
O O2 0.422655 0.923136 0.304211
O O3 0.380384 0.899380 0.134152
O O4 0.439582 0.000000 0.161364
O O5 0.319322 0.096609 0.629905
O O6 0.204060 0.112353 0.652945
O O7 0.274452 0.092508 0.801241
O O8 0.253993 0.000000 0.678172
O O9 0.097241 0.400898 0.500000
O O10 0.098119 0.313329 0.367356
O O11 0.639937 0.625212 0.500000
O O12 0.606284 0.687613 0.652406
O O13 0.600579 0.563050 0.648310
O O14 0.063045 0.238800 0.500000
O O15 0.000000 0.245884 0.346334
O O16 0.065768 0.000000 0.500000
O O17 0.000000 0.000000 0.348375
O O18 0.682326 0.000000 0.107141
O O19 0.702427 0.097994 0.000000
#
# Coordination Sequence:
#
# PCOD9483275 Si02
#       7
#    16  16  16  16  16   8  16
#     4   9  17  27  40  62  87 112 150 192 224 260
#     4  10  19  30  44  66  93 116 148 184 218 268
#     4  10  19  29  42  59  87 126 155 179 212 252
#     4  10  18  28  44  65  91 121 147 180 222 259
#     4   9  18  31  44  60  85 119 159 192 215 249
#     4   9  16  26  42  64  89 119 148 175 217 263
#     4   8  15  28  44  61  84 112 139 178 229 272
#
# _framework density 15.632763000000001
#
# number of rings (size 3 to 8) (size 9 to 14) (size 15 to 20)
#    0.000    2.692    0.769    2.769    0.000    5.538 
#    0.000    4.615    0.000    0.000    0.000    8.615 
#    0.000    8.000    0.000    0.000    0.000    0.000 
#
# Total GULP energy -289471.859779 kJ/mol
# GULP energy per Si atom -5566.766534 kJ/mol
# Density = 1.559718 g / cm^3
# Si number density = 15.632763 Si / 1000 Ang^3
#
#
#
# Elastic Constant Matrix: (Units=GPa)
#
#
# Indices 1 2 3 4 5 6 
#
# 1 87.1468 24.8127 -0.7893 0.0000 0.0000 0.0000
# 2 24.8127 46.7720 2.3161 0.0000 0.0000 0.0000
# 3 -0.7893 2.3161 39.8716 0.0000 0.0000 0.0000
# 4 0.0000 0.0000 0.0000 5.0452 0.0000 0.0000
# 5 0.0000 0.0000 0.0000 0.0000 7.6290 0.0000
# 6 0.0000 0.0000 0.0000 0.0000 0.0000 20.1911
#
#
#
# Elastic Compliance Matrix: (Units=1/GPa)
#
#
# Indices 1 2 3 4 5 6 
#
# 1 0.013535 -0.007215 0.000687 0.000000 0.000000 0.000000
# 2 -0.007215 0.025287 -0.001612 0.000000 0.000000 0.000000
# 3 0.000687 -0.001612 0.025188 0.000000 0.000000 0.000000
# 4 0.000000 0.000000 0.000000 0.198208 0.000000 0.000000
# 5 0.000000 0.000000 0.000000 0.000000 0.131078 0.000000
# 6 0.000000 0.000000 0.000000 0.000000 0.000000 0.049527
#
#
# Mechanical properties :
#
#
# Convention : Reuss Voigt Hill
#
# Bulk Modulus (GPa) = 20.95031 25.16326 23.05678
# Shear Modulus (GPa) = 10.52604 16.40313 13.46458
#
# Velocity S-wave (km/s) = 2.59768 3.24277 2.93798
# Velocity P-wave (km/s) = 4.73581 5.49110 5.12738
#
# Compressibility (1/GPa) = 0.04773200
#
# Stress axis : x y z
#
# Youngs Moduli (GPa) = 73.88110 39.54524 39.70190
#
# Poissons Ratio (x) = 0.28530 -0.02728
# Poissons Ratio (y) = 0.53302 0.06399
# Poissons Ratio (z) = -0.05076 0.06374
#
# Static dielectric constant tensor:
#      x y z
#    x 1.536980 0.000000 0.000000 
#    y 0.000000 1.528260 0.000000 
#    z 0.000000 0.000000 1.522790 
# 
# From -- ./inp_files/44635.got.cif
#   From: 2010.05.17/outbox.cif.g08.bks.cpg/sg65_23_cif.got.tgz:44635.got - 2010.06.03 17:01:31.
