data_PCOD9483005
_publ_section_title
;
Structure prediction by ZEFSAII (Michael W. Deem and Ramdas Pophale) SiO2 
 PCOD9483005
Probable space group: C M M M
;
_chemical_formula_sum "Si O2"
_cell_formula_units_Z 80
_cell_length_a 24.163532
_cell_length_b 7.355857
_cell_length_c 21.468807
_cell_angle_alpha 90.000000
_cell_angle_beta 90.000000
_cell_angle_gamma 90.000000
_cell_volume 3815.940597
_symmetry_space_group_name_H-M "C M M M"
_symmetry_group_IT_number 65
_symmetry_cell_setting 'orthorhombic'
loop_
_space_group_symop_operation_xyz
x,y,z
-x,-y,z
x,-y,-z
-x,y,-z
-x,-y,-z
x,y,-z
-x,y,z
x,-y,z
1/2+x,1/2+y,z
1/2-x,1/2-y,z
1/2+x,1/2-y,-z
1/2-x,1/2+y,-z
1/2-x,1/2-y,-z
1/2+x,1/2+y,-z
1/2-x,1/2+y,z
1/2+x,1/2-y,z
loop_
_atom_site_type_symbol
_atom_site_label
_atom_site_fract_x
_atom_site_fract_y
_atom_site_fract_z
Si Si1 0.936109 0.721901 0.570538
Si Si2 0.000000 0.782426 0.242664
Si Si3 0.315068 0.217177 0.808157
Si Si4 0.000000 0.288203 0.096181
Si Si5 0.615743 0.791696 0.693377
Si Si6 0.877633 0.277771 0.067930
O O1 0.921941 0.775525 0.500000
O O2 0.936119 0.500000 0.572392
O O3 0.895605 0.787608 0.624951
O O4 0.000000 0.776977 0.582763
O O5 0.944762 0.710178 0.274859
O O6 0.000000 0.727433 0.170693
O O7 0.000000 0.000000 0.247139
O O8 0.250000 0.250000 0.809284
O O9 0.343415 0.290038 0.745006
O O10 0.344050 0.284774 0.871506
O O11 0.324759 0.000000 0.807485
O O12 0.941349 0.215042 0.073194
O O13 0.000000 0.500000 0.078209
O O14 0.633838 0.000000 0.683491
O O15 0.877907 0.500000 0.069784
O O16 0.855127 0.225043 0.000000
#
# Coordination Sequence:
#
# PCOD9483005 Si02
#       6
#    16   8  16   8  16  16
#     4   8  13  22  44  78 105 123 153 200 243 283
#     4  12  22  29  46  78 108 132 160 202 251 293
#     4  10  21  35  52  72  95 129 172 214 250 285
#     4  10  17  32  54  75 101 129 160 197 242 304
#     4  10  18  33  54  73  98 134 170 202 241 297
#     4   9  17  30  52  79 100 123 160 202 245 296
#
# _framework density 20.964686
#
# number of rings (size 3 to 8) (size 9 to 14) (size 15 to 20)
#    0.000    2.400    3.000    1.800    0.000    2.400 
#    0.000    0.000    0.000    4.200    0.000    0.000 
#    0.000    0.000    0.000    0.000    0.000    0.000 
#
# Total GULP energy -223274.850060 kJ/mol
# GULP energy per Si atom -5581.871251 kJ/mol
# Density = 2.091697 g / cm^3
# Si number density = 20.964686 Si / 1000 Ang^3
#
#
#
# Elastic Constant Matrix: (Units=GPa)
#
#
# Indices 1 2 3 4 5 6 
#
# 1 119.0128 -2.8352 87.0057 0.0000 0.0000 0.0000
# 2 -2.8352 84.9558 5.2997 0.0000 0.0000 0.0000
# 3 87.0057 5.2997 231.3356 0.0000 0.0000 0.0000
# 4 0.0000 0.0000 0.0000 -20.9037 0.0000 0.0000
# 5 0.0000 0.0000 0.0000 0.0000 44.2355 0.0000
# 6 0.0000 0.0000 0.0000 0.0000 0.0000 6.8748
#
#
#
# Elastic Compliance Matrix: (Units=1/GPa)
#
#
# Indices 1 2 3 4 5 6 
#
# 1 0.011626 0.000662 -0.004388 0.000000 0.000000 0.000000
# 2 0.000662 0.011825 -0.000520 0.000000 0.000000 0.000000
# 3 -0.004388 -0.000520 0.005985 0.000000 0.000000 0.000000
# 4 0.000000 0.000000 0.000000 -0.047838 0.000000 0.000000
# 5 0.000000 0.000000 0.000000 0.000000 0.022606 0.000000
# 6 0.000000 0.000000 0.000000 0.000000 0.000000 0.145458
#
#
# Mechanical properties :
#
#
# Convention : Reuss Voigt Hill
#
# Bulk Modulus (GPa) = 47.74508 68.24940 57.99724
# Shear Modulus (GPa) = 30.27829 29.09691 29.68760
#
# Velocity S-wave (km/s) = 3.80445 3.72950 3.76716
# Velocity P-wave (km/s) = 6.49015 7.15337 6.82981
#
# Compressibility (1/GPa) = 0.02094457
#
# Stress axis : x y z
#
# Youngs Moduli (GPa) = 86.01499 84.56416 167.08870
#
# Poissons Ratio (x) = -0.05596 0.73313
# Poissons Ratio (y) = -0.05692 0.08685
# Poissons Ratio (z) = 0.37741 0.04395
#
# Static dielectric constant tensor:
#      x y z
#    x 1.696190 0.000000 0.000000 
#    y 0.000000 1.805970 0.000000 
#    z 0.000000 0.000000 1.782760 
# 
# From -- ./inp_files/59670.got.cif
#   From: 2010.05.17/outbox.cif.g08.bks.cpg/sg65_30_cif.got.tgz:59670.got - 2010.06.03 17:01:31.
