data_PCOD9483563
_publ_section_title
;
Structure prediction by ZEFSAII (Michael W. Deem and Ramdas Pophale) SiO2 
 PCOD9483563
Probable space group: C M M M
;
_chemical_formula_sum "Si O2"
_cell_formula_units_Z 120
_cell_length_a 17.028689
_cell_length_b 27.261116
_cell_length_c 14.230399
_cell_angle_alpha 90.000000
_cell_angle_beta 90.000000
_cell_angle_gamma 90.000000
_cell_volume 6606.050996
_symmetry_space_group_name_H-M "C M M M"
_symmetry_group_IT_number 65
_symmetry_cell_setting 'orthorhombic'
loop_
_space_group_symop_operation_xyz
x,y,z
-x,-y,z
x,-y,-z
-x,y,-z
-x,-y,-z
x,y,-z
-x,y,z
x,-y,z
1/2+x,1/2+y,z
1/2-x,1/2-y,z
1/2+x,1/2-y,-z
1/2-x,1/2+y,-z
1/2-x,1/2-y,-z
1/2+x,1/2+y,-z
1/2-x,1/2+y,z
1/2+x,1/2-y,z
loop_
_atom_site_type_symbol
_atom_site_label
_atom_site_fract_x
_atom_site_fract_y
_atom_site_fract_z
Si Si1 0.412475 0.373488 0.387300
Si Si2 0.000000 0.439833 0.889938
Si Si3 0.405450 0.345712 0.109146
Si Si4 0.679131 0.555383 0.113137
Si Si5 0.680972 0.210466 0.398192
Si Si6 0.157495 0.558031 0.786569
Si Si7 0.409454 0.724907 0.265892
Si Si8 0.258549 0.099912 0.391712
O O1 0.410263 0.368197 0.500000
O O2 0.500000 0.392754 0.361423
O O3 0.405919 0.319710 0.341300
O O4 0.333746 0.404017 0.363878
O O5 0.077953 0.422646 0.834539
O O6 0.000000 0.500000 0.890496
O O7 0.000000 0.425212 0.000000
O O8 0.500000 0.346500 0.116906
O O9 0.374146 0.398622 0.142687
O O10 0.374994 0.301127 0.173175
O O11 0.384676 0.339386 0.000000
O O12 0.657748 0.500000 0.146527
O O13 0.767463 0.566194 0.146391
O O14 0.675866 0.553987 0.000000
O O15 0.638533 0.212647 0.500000
O O16 0.750000 0.250000 0.401222
O O17 0.629974 0.227655 0.310473
O O18 0.719505 0.157391 0.390033
O O19 0.146551 0.500000 0.779119
O O20 0.184093 0.576225 0.684259
O O21 0.500000 0.736307 0.247549
O O22 0.267836 0.082672 0.500000
#
# Coordination Sequence:
#
# PCOD9483563 Si02
#       8
#    16   8  16  16  16  16  16  16
#     4   9  16  27  47  75 104 135 176 219 253 294
#     4   9  18  36  63  87 103 125 168 224 271 315
#     4   9  18  31  48  72 103 143 184 213 249 310
#     4   9  17  29  48  76 106 133 168 219 269 307
#     4  10  19  32  50  74 100 129 169 219 269 310
#     4  10  20  35  56  80 105 136 172 213 264 321
#     4  10  18  29  48  71  96 132 172 215 264 310
#     4  10  20  34  52  77 110 144 176 216 264 316
#
# _framework density 18.165163
#
# number of rings (size 3 to 8) (size 9 to 14) (size 15 to 20)
#    0.000    2.467    1.333    1.600    0.000    2.933 
#    1.200    1.667    0.000    4.400    0.000    1.867 
#    0.000    0.000    0.000    3.467    0.000    0.400 
#
# Total GULP energy -334142.012547 kJ/mol
# GULP energy per Si atom -5569.033542 kJ/mol
# Density = 1.812382 g / cm^3
# Si number density = 18.165163 Si / 1000 Ang^3
#
#
#
# Elastic Constant Matrix: (Units=GPa)
#
#
# Indices 1 2 3 4 5 6 
#
# 1 78.0021 21.5012 46.9244 0.0000 0.0000 0.0000
# 2 21.5012 16.7263 16.8077 0.0000 0.0000 0.0000
# 3 46.9244 16.8077 86.2345 0.0000 0.0000 0.0000
# 4 0.0000 0.0000 0.0000 44.6968 0.0000 0.0000
# 5 0.0000 0.0000 0.0000 0.0000 24.3096 0.0000
# 6 0.0000 0.0000 0.0000 0.0000 0.0000 20.5796
#
#
#
# Elastic Compliance Matrix: (Units=1/GPa)
#
#
# Indices 1 2 3 4 5 6 
#
# 1 0.024320 -0.022340 -0.008879 0.000000 0.000000 0.000000
# 2 -0.022340 0.094869 -0.006334 0.000000 0.000000 0.000000
# 3 -0.008879 -0.006334 0.017663 0.000000 0.000000 0.000000
# 4 0.000000 0.000000 0.000000 0.022373 0.000000 0.000000
# 5 0.000000 0.000000 0.000000 0.000000 0.041136 0.000000
# 6 0.000000 0.000000 0.000000 0.000000 0.000000 0.048592
#
#
# Mechanical properties :
#
#
# Convention : Reuss Voigt Hill
#
# Bulk Modulus (GPa) = 16.19593 39.04774 27.62183
# Shear Modulus (GPa) = 14.50787 24.29917 19.40352
#
# Velocity S-wave (km/s) = 2.82913 3.66140 3.27184
# Velocity P-wave (km/s) = 4.42801 6.27830 5.43251
#
# Compressibility (1/GPa) = 0.06174392
#
# Stress axis : x y z
#
# Youngs Moduli (GPa) = 41.11881 10.54087 56.61680
#
# Poissons Ratio (x) = 0.23548 0.50272
# Poissons Ratio (y) = 0.91859 0.35863
# Poissons Ratio (z) = 0.36511 0.06677
#
# Static dielectric constant tensor:
#      x y z
#    x 1.648970 0.000000 0.000000 
#    y 0.000000 1.612180 0.000000 
#    z 0.000000 0.000000 1.671060 
# 
# From -- ./inp_files/41455.got.cif
#   From: 2010.05.17/outbox.cif.g08.bks.cpg/sg65_21_cif.got.tgz:41455.got - 2010.06.03 17:01:31.
