data_PCOD9483123
_publ_section_title
;
Structure prediction by ZEFSAII (Michael W. Deem and Ramdas Pophale) SiO2 
 PCOD9483123
Probable space group: C M M M
;
_chemical_formula_sum "Si O2"
_cell_formula_units_Z 116
_cell_length_a 27.609702
_cell_length_b 9.064056
_cell_length_c 26.146140
_cell_angle_alpha 90.000000
_cell_angle_beta 90.000000
_cell_angle_gamma 90.000000
_cell_volume 6543.225407
_symmetry_space_group_name_H-M "C M M M"
_symmetry_group_IT_number 65
_symmetry_cell_setting 'orthorhombic'
loop_
_space_group_symop_operation_xyz
x,y,z
-x,-y,z
x,-y,-z
-x,y,-z
-x,-y,-z
x,y,-z
-x,y,z
x,-y,z
1/2+x,1/2+y,z
1/2-x,1/2-y,z
1/2+x,1/2-y,-z
1/2-x,1/2+y,-z
1/2-x,1/2-y,-z
1/2+x,1/2+y,-z
1/2-x,1/2+y,z
1/2+x,1/2-y,z
loop_
_atom_site_type_symbol
_atom_site_label
_atom_site_fract_x
_atom_site_fract_y
_atom_site_fract_z
Si Si1 0.554988 0.674162 0.288154
Si Si2 0.067815 0.000000 0.000000
Si Si3 0.395736 0.336471 0.095309
Si Si4 0.849408 0.174177 0.652898
Si Si5 0.302551 0.824481 0.442866
Si Si6 0.397337 0.825062 0.193284
Si Si7 0.698088 0.677032 0.236921
Si Si8 0.701111 0.169424 0.938042
O O1 0.500000 0.699084 0.304494
O O2 0.560573 0.500000 0.274724
O O3 0.595474 0.705340 0.330505
O O4 0.568604 0.769282 0.238846
O O5 0.072350 0.873484 0.045495
O O6 0.385035 0.500000 0.117348
O O7 0.416837 0.235247 0.139456
O O8 0.345836 0.261653 0.077372
O O9 0.833766 0.264723 0.603821
O O10 0.817250 0.205480 0.703661
O O11 0.844347 0.000000 0.642207
O O12 0.321762 0.789571 0.500000
O O13 0.250000 0.750000 0.438756
O O14 0.297246 0.000000 0.439022
O O15 0.344747 0.750305 0.203663
O O16 0.392519 0.000000 0.193365
O O17 0.699266 0.500000 0.229623
O O18 0.750000 0.750000 0.226534
O O19 0.750000 0.250000 0.920087
O O20 0.698662 0.000000 0.919977
O O21 0.702799 0.166507 0.000000
#
# Coordination Sequence:
#
# PCOD9483123 Si02
#       8
#    16   4  16  16  16  16  16  16
#     4   9  19  38  61  84 108 136 172 216 269 329
#     4   8  20  32  56  68  91 126 166 206 244 306
#     4  10  18  34  49  68  91 123 162 202 245 297
#     4   9  18  32  53  79 106 141 179 224 275 322
#     4  10  20  32  48  74 110 153 200 241 275 313
#     4  11  22  34  52  79 108 136 169 210 261 318
#     4  10  20  34  50  73 106 141 179 220 267 325
#     4  10  18  27  41  60  86 118 157 201 242 285
#
# _framework density 17.728259000000001
#
# number of rings (size 3 to 8) (size 9 to 14) (size 15 to 20)
#    0.414    1.793    0.690    4.138    0.000    6.069 
#    0.000    2.759    0.000    0.414    0.000    3.862 
#    0.000    1.103    0.000    0.000    0.000    0.000 
#
# Total GULP energy -322963.704068 kJ/mol
# GULP energy per Si atom -5568.339725 kJ/mol
# Density = 1.768791 g / cm^3
# Si number density = 17.728259 Si / 1000 Ang^3
#
#
#
# Elastic Constant Matrix: (Units=GPa)
#
#
# Indices 1 2 3 4 5 6 
#
# 1 44.4212 23.3826 20.7542 0.0000 0.0000 0.0000
# 2 23.3826 84.9971 51.1386 0.0000 0.0000 0.0000
# 3 20.7542 51.1386 107.6053 0.0000 0.0000 0.0000
# 4 0.0000 0.0000 0.0000 32.5899 0.0000 0.0000
# 5 0.0000 0.0000 0.0000 0.0000 3.7371 0.0000
# 6 0.0000 0.0000 0.0000 0.0000 0.0000 14.3760
#
#
#
# Elastic Compliance Matrix: (Units=1/GPa)
#
#
# Indices 1 2 3 4 5 6 
#
# 1 0.026733 -0.005955 -0.002326 0.000000 0.000000 0.000000
# 2 -0.005955 0.017803 -0.007312 0.000000 0.000000 0.000000
# 3 -0.002326 -0.007312 0.013217 0.000000 0.000000 0.000000
# 4 0.000000 0.000000 0.000000 0.030684 0.000000 0.000000
# 5 0.000000 0.000000 0.000000 0.000000 0.267587 0.000000
# 6 0.000000 0.000000 0.000000 0.000000 0.000000 0.069560
#
#
# Mechanical properties :
#
#
# Convention : Reuss Voigt Hill
#
# Bulk Modulus (GPa) = 37.64113 47.50827 42.57470
# Shear Modulus (GPa) = 10.73825 19.59048 15.16436
#
# Velocity S-wave (km/s) = 2.46380 3.32782 2.92786
# Velocity P-wave (km/s) = 5.41960 6.45152 5.95794
#
# Compressibility (1/GPa) = 0.02656668
#
# Stress axis : x y z
#
# Youngs Moduli (GPa) = 37.40688 56.17182 75.66096
#
# Poissons Ratio (x) = 0.33449 0.17600
# Poissons Ratio (y) = 0.22275 0.55323
# Poissons Ratio (z) = 0.08701 0.41073
#
# Static dielectric constant tensor:
#      x y z
#    x 1.604540 0.000000 0.000000 
#    y 0.000000 1.605010 0.000000 
#    z 0.000000 0.000000 1.617820 
# 
# From -- ./inp_files/76304.got.cif
#   From: 2010.05.17/outbox.cif.g08.bks.cpg/sg65_39_cif.got.tgz:76304.got - 2010.06.03 17:01:31.
