data_PCOD9483674
_publ_section_title
;
Structure prediction by ZEFSAII (Michael W. Deem and Ramdas Pophale) SiO2 
 PCOD9483674
Probable space group: C M M M
;
_chemical_formula_sum "Si O2"
_cell_formula_units_Z 72
_cell_length_a 9.106151
_cell_length_b 29.355746
_cell_length_c 18.662171
_cell_angle_alpha 90.000000
_cell_angle_beta 90.000000
_cell_angle_gamma 90.000000
_cell_volume 4988.731536
_symmetry_space_group_name_H-M "C M M M"
_symmetry_group_IT_number 65
_symmetry_cell_setting 'orthorhombic'
loop_
_space_group_symop_operation_xyz
x,y,z
-x,-y,z
x,-y,-z
-x,y,-z
-x,-y,-z
x,y,-z
-x,y,z
x,-y,z
1/2+x,1/2+y,z
1/2-x,1/2-y,z
1/2+x,1/2-y,-z
1/2-x,1/2+y,-z
1/2-x,1/2-y,-z
1/2+x,1/2+y,-z
1/2-x,1/2+y,z
1/2+x,1/2-y,z
loop_
_atom_site_type_symbol
_atom_site_label
_atom_site_fract_x
_atom_site_fract_y
_atom_site_fract_z
Si Si1 0.177709 0.605944 0.143493
Si Si2 0.324843 0.553886 0.725596
Si Si3 0.323835 0.797323 0.084022
Si Si4 0.321462 0.052159 0.000000
Si Si5 0.670998 0.055218 0.420563
O O1 0.249762 0.582984 0.212208
O O2 0.218648 0.658567 0.129927
O O3 0.000000 0.603446 0.149128
O O4 0.222577 0.578255 0.072036
O O5 0.500000 0.557879 0.728647
O O6 0.287084 0.500000 0.734821
O O7 0.265950 0.569033 0.647659
O O8 0.500000 0.792873 0.087524
O O9 0.250000 0.750000 0.105892
O O10 0.286412 0.805752 0.000000
O O11 0.500000 0.051991 0.000000
O O12 0.270860 0.000000 0.000000
O O13 0.719215 0.070790 0.500000
O O14 0.500000 0.067985 0.410802
O O15 0.675752 0.000000 0.421999
#
# Coordination Sequence:
#
# PCOD9483674 Si02
#       5
#    16  16  16   8  16
#     4  10  18  30  46  63  83 111 150 188 218 256
#     4  10  20  30  40  60  91 122 149 179 218 261
#     4   9  17  30  47  66  85 105 137 182 229 273
#     4   9  16  26  42  61  79 107 149 189 216 241
#     4   8  14  26  44  63  82 109 147 184 215 251
#
# _framework density 14.432528
#
# number of rings (size 3 to 8) (size 9 to 14) (size 15 to 20)
#    0.000    2.778    1.111    2.000    0.000    3.556 
#    0.000    2.778    0.000    2.000    0.000    0.000 
#    0.000    0.889    0.000    2.889    0.000    3.556 
#
# Total GULP energy -200526.236240 kJ/mol
# GULP energy per Si atom -5570.173229 kJ/mol
# Density = 1.439968 g / cm^3
# Si number density = 14.432528 Si / 1000 Ang^3
#
#
#
# Elastic Constant Matrix: (Units=GPa)
#
#
# Indices 1 2 3 4 5 6 
#
# 1 29.8250 38.0691 47.3570 0.0000 0.0000 0.0000
# 2 38.0691 97.7634 66.6490 0.0000 0.0000 0.0000
# 3 47.3570 66.6490 134.7666 0.0000 0.0000 0.0000
# 4 0.0000 0.0000 0.0000 3.8533 0.0000 0.0000
# 5 0.0000 0.0000 0.0000 0.0000 11.4395 0.0000
# 6 0.0000 0.0000 0.0000 0.0000 0.0000 19.5208
#
#
#
# Elastic Compliance Matrix: (Units=1/GPa)
#
#
# Indices 1 2 3 4 5 6 
#
# 1 0.101293 -0.022897 -0.024270 0.000000 0.000000 0.000000
# 2 -0.022897 0.020608 -0.002145 0.000000 0.000000 0.000000
# 3 -0.024270 -0.002145 0.017010 0.000000 0.000000 0.000000
# 4 0.000000 0.000000 0.000000 0.259516 0.000000 0.000000
# 5 0.000000 0.000000 0.000000 0.000000 0.087417 0.000000
# 6 0.000000 0.000000 0.000000 0.000000 0.000000 0.051227
#
#
# Mechanical properties :
#
#
# Convention : Reuss Voigt Hill
#
# Bulk Modulus (GPa) = 24.82381 62.94504 43.88443
# Shear Modulus (GPa) = 7.70269 14.31472 11.00871
#
# Velocity S-wave (km/s) = 2.31271 3.15276 2.76483
# Velocity P-wave (km/s) = 4.93647 7.54726 6.37691
#
# Compressibility (1/GPa) = 0.04028390
#
# Stress axis : x y z
#
# Youngs Moduli (GPa) = 9.87239 48.52568 58.78971
#
# Poissons Ratio (x) = 1.11112 1.42684
# Poissons Ratio (y) = 0.22605 0.12613
# Poissons Ratio (z) = 0.23961 0.10411
#
# Static dielectric constant tensor:
#      x y z
#    x 1.478720 0.000000 0.000000 
#    y 0.000000 1.460710 0.000000 
#    z 0.000000 0.000000 1.472750 
# 
# From -- ./inp_files/49746.got.cif
#   From: 2010.05.17/outbox.cif.g08.bks.cpg/sg65_25_cif.got.tgz:49746.got - 2010.06.03 17:01:31.
