data_PCOD9483469
_publ_section_title
;
Structure prediction by ZEFSAII (Michael W. Deem and Ramdas Pophale) SiO2 
 PCOD9483469
Probable space group: C M M M
;
_chemical_formula_sum "Si O2"
_cell_formula_units_Z 88
_cell_length_a 8.658189
_cell_length_b 27.980976
_cell_length_c 22.209954
_cell_angle_alpha 90.000000
_cell_angle_beta 90.000000
_cell_angle_gamma 90.000000
_cell_volume 5380.685147
_symmetry_space_group_name_H-M "C M M M"
_symmetry_group_IT_number 65
_symmetry_cell_setting 'orthorhombic'
loop_
_space_group_symop_operation_xyz
x,y,z
-x,-y,z
x,-y,-z
-x,y,-z
-x,-y,-z
x,y,-z
-x,y,z
x,-y,z
1/2+x,1/2+y,z
1/2-x,1/2-y,z
1/2+x,1/2-y,-z
1/2-x,1/2+y,-z
1/2-x,1/2-y,-z
1/2+x,1/2+y,-z
1/2-x,1/2+y,z
1/2+x,1/2-y,z
loop_
_atom_site_type_symbol
_atom_site_label
_atom_site_fract_x
_atom_site_fract_y
_atom_site_fract_z
Si Si1 0.314504 0.850331 0.250872
Si Si2 0.685743 0.303749 0.000000
Si Si3 0.185747 0.195891 0.868139
Si Si4 0.186195 0.100864 0.431955
Si Si5 0.184684 0.800945 0.631906
Si Si6 0.186117 0.446873 0.685159
O O1 0.500000 0.848172 0.250584
O O2 0.250730 0.834783 0.186590
O O3 0.252198 0.815062 0.302822
O O4 0.264196 0.903579 0.271326
O O5 0.750000 0.250000 0.000000
O O6 0.731734 0.323841 0.065378
O O7 0.500000 0.301986 0.000000
O O8 0.250000 0.250000 0.863014
O O9 0.000000 0.197715 0.864577
O O10 0.237116 0.091013 0.500000
O O11 0.226086 0.155127 0.412133
O O12 0.256482 0.066643 0.381481
O O13 0.000000 0.096945 0.429687
O O14 0.250000 0.750000 0.612407
O O15 0.000000 0.798498 0.635912
O O16 0.239199 0.500000 0.702208
O O17 0.000000 0.446615 0.684886
#
# Coordination Sequence:
#
# PCOD9483469 Si02
#       6
#    16   8  16  16  16  16
#     4  10  19  31  47  67  90 117 150 186 225 267
#     4   8  16  28  42  62  91 126 157 185 214 249
#     4  10  18  29  45  67  96 127 157 185 216 255
#     4   9  19  34  49  67  91 117 146 181 222 270
#     4  10  19  31  46  64  89 120 152 185 220 260
#     4   9  19  35  52  69  89 113 144 185 230 273
#
# _framework density 16.354796
#
# number of rings (size 3 to 8) (size 9 to 14) (size 15 to 20)
#    0.000    2.545    0.000    2.182    0.000    3.636 
#    0.000    1.818    0.000    0.000    0.000    0.636 
#    0.000    5.091    0.000    0.000    0.000    0.000 
#
# Total GULP energy -245269.705581 kJ/mol
# GULP energy per Si atom -5574.311490 kJ/mol
# Density = 1.631757 g / cm^3
# Si number density = 16.354796 Si / 1000 Ang^3
#
#
#
# Elastic Constant Matrix: (Units=GPa)
#
#
# Indices 1 2 3 4 5 6 
#
# 1 25.3426 13.2208 16.6904 0.0000 0.0000 0.0000
# 2 13.2208 73.9680 25.7797 0.0000 0.0000 0.0000
# 3 16.6904 25.7797 115.9067 0.0000 0.0000 0.0000
# 4 0.0000 0.0000 0.0000 9.7045 0.0000 0.0000
# 5 0.0000 0.0000 0.0000 0.0000 17.7098 0.0000
# 6 0.0000 0.0000 0.0000 0.0000 0.0000 17.8313
#
#
#
# Elastic Compliance Matrix: (Units=1/GPa)
#
#
# Indices 1 2 3 4 5 6 
#
# 1 0.046266 -0.006447 -0.005228 0.000000 0.000000 0.000000
# 2 -0.006447 0.015554 -0.002531 0.000000 0.000000 0.000000
# 3 -0.005228 -0.002531 0.009943 0.000000 0.000000 0.000000
# 4 0.000000 0.000000 0.000000 0.103045 0.000000 0.000000
# 5 0.000000 0.000000 0.000000 0.000000 0.056466 0.000000
# 6 0.000000 0.000000 0.000000 0.000000 0.000000 0.056081
#
#
# Mechanical properties :
#
#
# Convention : Reuss Voigt Hill
#
# Bulk Modulus (GPa) = 23.06797 36.28878 29.67838
# Shear Modulus (GPa) = 15.14149 19.68422 17.41285
#
# Velocity S-wave (km/s) = 3.04602 3.47302 3.26650
# Velocity P-wave (km/s) = 5.14843 6.19024 5.69322
#
# Compressibility (1/GPa) = 0.04335014
#
# Stress axis : x y z
#
# Youngs Moduli (GPa) = 21.61417 64.29278 100.56879
#
# Poissons Ratio (x) = 0.41451 0.52580
# Poissons Ratio (y) = 0.13935 0.25455
# Poissons Ratio (z) = 0.11300 0.16273
#
# Static dielectric constant tensor:
#      x y z
#    x 1.551890 0.000000 0.000000 
#    y 0.000000 1.543460 0.000000 
#    z 0.000000 0.000000 1.556530 
# 
# From -- ./inp_files/60271.got.cif
#   From: 2010.05.17/outbox.cif.g08.bks.cpg/sg65_31_cif.got.tgz:60271.got - 2010.06.03 17:01:31.
