data_PCOD9483952
_publ_section_title
;
Structure prediction by ZEFSAII (Michael W. Deem and Ramdas Pophale) SiO2 
 PCOD9483952
Probable space group: C M M M
;
_chemical_formula_sum "Si O2"
_cell_formula_units_Z 80
_cell_length_a 25.232980
_cell_length_b 20.373354
_cell_length_c 9.279003
_cell_angle_alpha 90.000000
_cell_angle_beta 90.000000
_cell_angle_gamma 90.000000
_cell_volume 4770.153889
_symmetry_space_group_name_H-M "C M M M"
_symmetry_group_IT_number 65
_symmetry_cell_setting 'orthorhombic'
loop_
_space_group_symop_operation_xyz
x,y,z
-x,-y,z
x,-y,-z
-x,y,-z
-x,-y,-z
x,y,-z
-x,y,z
x,-y,z
1/2+x,1/2+y,z
1/2-x,1/2-y,z
1/2+x,1/2-y,-z
1/2-x,1/2+y,-z
1/2-x,1/2-y,-z
1/2+x,1/2+y,-z
1/2-x,1/2+y,z
1/2+x,1/2-y,z
loop_
_atom_site_type_symbol
_atom_site_label
_atom_site_fract_x
_atom_site_fract_y
_atom_site_fract_z
Si Si1 0.000000 0.764065 0.833228
Si Si2 0.394632 0.892907 0.331985
Si Si3 0.775846 0.424994 0.328874
Si Si4 0.500000 0.104034 0.834970
Si Si5 0.893422 0.234127 0.669082
Si Si6 0.711306 0.312630 0.170064
O O1 0.000000 0.684118 0.831857
O O2 0.947372 0.785571 0.749545
O O3 0.000000 0.784531 0.000000
O O4 0.402366 0.909657 0.500000
O O5 0.337682 0.919854 0.284763
O O6 0.445861 0.915739 0.244161
O O7 0.390332 0.813637 0.320928
O O8 0.773960 0.408196 0.500000
O O9 0.758222 0.500000 0.311608
O O10 0.740805 0.374547 0.239678
O O11 0.500000 0.082879 0.000000
O O12 0.894729 0.217433 0.500000
O O13 0.842834 0.203412 0.747060
O O14 0.750000 0.250000 0.186952
O O15 0.701744 0.322082 0.000000
#
# Coordination Sequence:
#
# PCOD9483952 Si02
#       6
#     8  16  16   8  16  16
#     4   9  17  29  45  72 109 136 164 210 264 313
#     4   9  17  30  48  70  97 131 171 215 259 303
#     4  10  21  37  55  75 101 136 177 220 265 312
#     4   9  17  27  44  68  95 131 171 212 255 302
#     4  10  18  30  51  76 103 136 175 215 258 308
#     4  11  22  34  52  78 107 138 174 216 265 315
#
# _framework density 16.770948000000001
#
# number of rings (size 3 to 8) (size 9 to 14) (size 15 to 20)
#    0.000    2.200    2.000    1.800    0.000    5.200 
#    0.000    0.500    0.000    3.000    0.000    0.700 
#    0.000    5.600    0.000    0.000    0.000    0.000 
#
# Total GULP energy -223272.886405 kJ/mol
# GULP energy per Si atom -5581.822160 kJ/mol
# Density = 1.673278 g / cm^3
# Si number density = 16.770948 Si / 1000 Ang^3
#
#
#
# Elastic Constant Matrix: (Units=GPa)
#
#
# Indices 1 2 3 4 5 6 
#
# 1 148.5499 45.9780 97.7021 0.0000 0.0000 0.0000
# 2 45.9780 52.0882 52.0458 0.0000 0.0000 0.0000
# 3 97.7021 52.0458 132.8200 0.0000 0.0000 0.0000
# 4 0.0000 0.0000 0.0000 9.4794 0.0000 0.0000
# 5 0.0000 0.0000 0.0000 0.0000 27.3580 0.0000
# 6 0.0000 0.0000 0.0000 0.0000 0.0000 3.0099
#
#
#
# Elastic Compliance Matrix: (Units=1/GPa)
#
#
# Indices 1 2 3 4 5 6 
#
# 1 0.013367 -0.003245 -0.008561 0.000000 0.000000 0.000000
# 2 -0.003245 0.032339 -0.010286 0.000000 0.000000 0.000000
# 3 -0.008561 -0.010286 0.017857 0.000000 0.000000 0.000000
# 4 0.000000 0.000000 0.000000 0.105492 0.000000 0.000000
# 5 0.000000 0.000000 0.000000 0.000000 0.036552 0.000000
# 6 0.000000 0.000000 0.000000 0.000000 0.000000 0.332232
#
#
# Mechanical properties :
#
#
# Convention : Reuss Voigt Hill
#
# Bulk Modulus (GPa) = 51.59821 80.54554 66.07188
# Shear Modulus (GPa) = 8.49643 17.15160 12.82402
#
# Velocity S-wave (km/s) = 2.25326 3.20143 2.76824
# Velocity P-wave (km/s) = 6.13211 7.86108 7.04980
#
# Compressibility (1/GPa) = 0.01938052
#
# Stress axis : x y z
#
# Youngs Moduli (GPa) = 74.81297 30.92210 56.00078
#
# Poissons Ratio (x) = 0.10033 0.47943
# Poissons Ratio (y) = 0.24274 0.57600
# Poissons Ratio (z) = 0.64048 0.31805
#
# Static dielectric constant tensor:
#      x y z
#    x 1.544360 0.000000 0.000000 
#    y 0.000000 1.556980 0.000000 
#    z 0.000000 0.000000 1.560180 
# 
# From -- ./inp_files/11578.got.cif
#   From: 2010.05.17/outbox.cif.g08.bks.cpg/sg65_6_cif.got.tgz:11578.got - 2010.06.03 17:01:31.
