data_PCOD9483807
_publ_section_title
;
Structure prediction by ZEFSAII (Michael W. Deem and Ramdas Pophale) SiO2 
 PCOD9483807
Probable space group: C M M M
;
_chemical_formula_sum "Si O2"
_cell_formula_units_Z 88
_cell_length_a 30.067554
_cell_length_b 7.612262
_cell_length_c 18.219256
_cell_angle_alpha 90.000000
_cell_angle_beta 90.000000
_cell_angle_gamma 90.000000
_cell_volume 4170.061551
_symmetry_space_group_name_H-M "C M M M"
_symmetry_group_IT_number 65
_symmetry_cell_setting 'orthorhombic'
loop_
_space_group_symop_operation_xyz
x,y,z
-x,-y,z
x,-y,-z
-x,y,-z
-x,-y,-z
x,y,-z
-x,y,z
x,-y,z
1/2+x,1/2+y,z
1/2-x,1/2-y,z
1/2+x,1/2-y,-z
1/2-x,1/2+y,-z
1/2-x,1/2-y,-z
1/2+x,1/2+y,-z
1/2-x,1/2+y,z
1/2+x,1/2-y,z
loop_
_atom_site_type_symbol
_atom_site_label
_atom_site_fract_x
_atom_site_fract_y
_atom_site_fract_z
Si Si1 0.857085 0.715787 0.857144
Si Si2 0.452295 0.291884 0.410901
Si Si3 0.856343 0.790132 0.417280
Si Si4 0.198826 0.292707 0.279513
Si Si5 0.197726 0.710355 0.000000
Si Si6 0.950762 0.713863 0.085786
O O1 0.857233 0.500000 0.857006
O O2 0.833647 0.780485 0.783246
O O3 0.827539 0.772588 0.926966
O O4 0.907980 0.772677 0.868776
O O5 0.451561 0.278633 0.500000
O O6 0.500000 0.216843 0.385873
O O7 0.453306 0.500000 0.393424
O O8 0.404166 0.220026 0.387912
O O9 0.848075 0.723295 0.500000
O O10 0.817548 0.759282 0.359955
O O11 0.861744 0.000000 0.423113
O O12 0.194625 0.500000 0.275526
O O13 0.250000 0.250000 0.265587
O O14 0.250000 0.750000 0.000000
O O15 0.193340 0.500000 0.000000
O O16 0.950945 0.500000 0.087406
O O17 0.000000 0.772579 0.109711
O O18 0.944863 0.762564 0.000000
#
# Coordination Sequence:
#
# PCOD9483807 Si02
#       6
#    16  16  16  16   8  16
#     4   9  17  30  47  70 100 132 164 202 246 291
#     4   7  10  20  43  74 101 123 152 192 235 282
#     4   9  18  34  56  79 101 129 169 214 257 304
#     4  11  23  37  52  71  99 134 169 211 265 315
#     4  10  18  30  49  71  97 127 164 206 241 280
#     4   8  12  21  42  71 101 133 167 200 238 288
#
# _framework density 21.102806000000001
#
# number of rings (size 3 to 8) (size 9 to 14) (size 15 to 20)
#    0.000    3.091    0.909    3.273    0.000    0.727 
#    0.000    1.818    0.000    1.636    0.000    2.545 
#    0.000    4.364    0.000    0.000    0.000    0.000 
#
# Total GULP energy -245274.456104 kJ/mol
# GULP energy per Si atom -5574.419457 kJ/mol
# Density = 2.105477 g / cm^3
# Si number density = 21.102806 Si / 1000 Ang^3
#
#
#
# Elastic Constant Matrix: (Units=GPa)
#
#
# Indices 1 2 3 4 5 6 
#
# 1 191.9929 2.1149 78.9999 0.0000 0.0000 0.0000
# 2 2.1149 42.9583 5.6071 0.0000 0.0000 0.0000
# 3 78.9999 5.6071 95.6060 0.0000 0.0000 0.0000
# 4 0.0000 0.0000 0.0000 -0.1699 0.0000 0.0000
# 5 0.0000 0.0000 0.0000 0.0000 35.5518 0.0000
# 6 0.0000 0.0000 0.0000 0.0000 0.0000 -34.1525
#
#
#
# Elastic Compliance Matrix: (Units=1/GPa)
#
#
# Indices 1 2 3 4 5 6 
#
# 1 0.007901 0.000467 -0.006556 0.000000 0.000000 0.000000
# 2 0.000467 0.023486 -0.001763 0.000000 0.000000 0.000000
# 3 -0.006556 -0.001763 0.015980 0.000000 0.000000 0.000000
# 4 0.000000 0.000000 0.000000 -5.885968 0.000000 0.000000
# 5 0.000000 0.000000 0.000000 0.000000 0.028128 0.000000
# 6 0.000000 0.000000 0.000000 0.000000 0.000000 -0.029280
#
#
# Mechanical properties :
#
#
# Convention : Reuss Voigt Hill
#
# Bulk Modulus (GPa) = 31.58346 56.00010 43.79178
# Shear Modulus (GPa) = -0.86007 16.50158 7.82075
#
# Velocity S-wave (km/s) = -0.63910 2.79939 1.92719
# Velocity P-wave (km/s) = 3.80189 6.08631 5.07433
#
# Compressibility (1/GPa) = 0.03166215
#
# Stress axis : x y z
#
# Youngs Moduli (GPa) = 126.56602 42.57942 62.57712
#
# Poissons Ratio (x) = -0.01987 0.41026
# Poissons Ratio (y) = -0.05907 0.11033
# Poissons Ratio (z) = 0.82977 0.07507
#
# Static dielectric constant tensor:
#      x y z
#    x 1.756880 0.000000 0.000000 
#    y 0.000000 1.800310 0.000000 
#    z 0.000000 0.000000 1.768300 
# 
# From -- ./inp_files/57985.got.cif
#   From: 2010.05.17/outbox.cif.g08.bks.cpg/sg65_29_cif.got.tgz:57985.got - 2010.06.03 17:01:31.
