data_PCOD9483818
_publ_section_title
;
Structure prediction by ZEFSAII (Michael W. Deem and Ramdas Pophale) SiO2 
 PCOD9483818
Probable space group: C M M M
;
_chemical_formula_sum "Si O2"
_cell_formula_units_Z 104
_cell_length_a 30.625186
_cell_length_b 23.048856
_cell_length_c 9.132475
_cell_angle_alpha 90.000000
_cell_angle_beta 90.000000
_cell_angle_gamma 90.000000
_cell_volume 6446.390376
_symmetry_space_group_name_H-M "C M M M"
_symmetry_group_IT_number 65
_symmetry_cell_setting 'orthorhombic'
loop_
_space_group_symop_operation_xyz
x,y,z
-x,-y,z
x,-y,-z
-x,y,-z
-x,-y,-z
x,y,-z
-x,y,z
x,-y,z
1/2+x,1/2+y,z
1/2-x,1/2-y,z
1/2+x,1/2-y,-z
1/2-x,1/2+y,-z
1/2-x,1/2-y,-z
1/2+x,1/2+y,-z
1/2-x,1/2+y,z
1/2+x,1/2-y,z
loop_
_atom_site_type_symbol
_atom_site_label
_atom_site_fract_x
_atom_site_fract_y
_atom_site_fract_z
Si Si1 0.285653 0.429485 0.668533
Si Si2 0.449701 0.342210 0.175578
Si Si3 0.196827 0.431448 0.175134
Si Si4 0.949986 0.500000 0.822011
Si Si5 0.551069 0.781262 0.325269
Si Si6 0.102782 0.384675 0.822967
Si Si7 0.374908 0.567447 0.175978
O O1 0.286725 0.411323 0.500000
O O2 0.285211 0.500000 0.673294
O O3 0.240811 0.411134 0.745897
O O4 0.329742 0.412029 0.751578
O O5 0.500000 0.358934 0.207062
O O6 0.440449 0.282087 0.257562
O O7 0.415366 0.391849 0.217017
O O8 0.446401 0.332985 0.000000
O O9 0.189618 0.500000 0.208749
O O10 0.153278 0.396546 0.214950
O O11 0.202790 0.427701 0.000000
O O12 0.924510 0.558053 0.778383
O O13 0.000000 0.500000 0.771182
O O14 0.950337 0.500000 0.000000
O O15 0.556528 0.780189 0.500000
O O16 0.500000 0.795278 0.293300
O O17 0.581794 0.829052 0.252196
O O18 0.099895 0.379408 0.000000
O O19 0.382454 0.500000 0.217218
O O20 0.370126 0.569188 0.000000
#
# Coordination Sequence:
#
# PCOD9483818 Si02
#       7
#    16  16  16   8  16  16  16
#     4   9  17  28  44  68  98 132 165 193 229 283
#     4   9  18  33  53  75  98 127 163 198 233 281
#     4   9  16  28  46  69  97 125 159 202 247 291
#     4   9  16  26  43  69  97 123 155 199 248 293
#     4  10  21  35  49  67  94 130 169 204 240 284
#     4  10  18  30  49  72  95 124 163 206 249 292
#     4   9  17  30  50  77 105 129 154 190 239 286
#
# _framework density 16.133058999999999
#
# number of rings (size 3 to 8) (size 9 to 14) (size 15 to 20)
#    0.000    2.692    0.769    1.385    0.000    4.923 
#    0.000    1.923    0.000    2.308    0.000   10.769 
#    0.000    0.000    0.000    0.000    0.000    0.000 
#
# Total GULP energy -289844.603878 kJ/mol
# GULP energy per Si atom -5573.934690 kJ/mol
# Density = 1.609634 g / cm^3
# Si number density = 16.133059 Si / 1000 Ang^3
#
#
#
# Elastic Constant Matrix: (Units=GPa)
#
#
# Indices 1 2 3 4 5 6 
#
# 1 172.6218 93.5824 63.5442 0.0000 0.0000 0.0000
# 2 93.5824 84.5318 42.9828 0.0000 0.0000 0.0000
# 3 63.5442 42.9828 37.2382 0.0000 0.0000 0.0000
# 4 0.0000 0.0000 0.0000 12.1864 0.0000 0.0000
# 5 0.0000 0.0000 0.0000 0.0000 16.6211 0.0000
# 6 0.0000 0.0000 0.0000 0.0000 0.0000 15.8836
#
#
#
# Elastic Compliance Matrix: (Units=1/GPa)
#
#
# Indices 1 2 3 4 5 6 
#
# 1 0.019062 -0.011046 -0.019777 0.000000 0.000000 0.000000
# 2 -0.011046 0.035040 -0.021595 0.000000 0.000000 0.000000
# 3 -0.019777 -0.021595 0.085529 0.000000 0.000000 0.000000
# 4 0.000000 0.000000 0.000000 0.082059 0.000000 0.000000
# 5 0.000000 0.000000 0.000000 0.000000 0.060165 0.000000
# 6 0.000000 0.000000 0.000000 0.000000 0.000000 0.062958
#
#
# Mechanical properties :
#
#
# Convention : Reuss Voigt Hill
#
# Bulk Modulus (GPa) = 28.74151 77.17894 52.96023
# Shear Modulus (GPa) = 10.84020 15.22370 13.03195
#
# Velocity S-wave (km/s) = 2.59496 3.07519 2.84523
# Velocity P-wave (km/s) = 5.18000 7.78151 6.61001
#
# Compressibility (1/GPa) = 0.03479288
#
# Stress axis : x y z
#
# Youngs Moduli (GPa) = 52.46157 28.53897 11.69200
#
# Poissons Ratio (x) = 0.31525 0.23123
# Poissons Ratio (y) = 0.57951 0.25249
# Poissons Ratio (z) = 1.03752 0.61631
#
# Static dielectric constant tensor:
#      x y z
#    x 1.535630 0.000000 0.000000 
#    y 0.000000 1.512820 0.000000 
#    z 0.000000 0.000000 1.534790 
# 
# From -- ./inp_files/18856.got.cif
#   From: 2010.05.17/outbox.cif.g08.bks.cpg/sg65_10_cif.got.tgz:18856.got - 2010.06.03 17:01:31.
