data_PCOD9483301
_publ_section_title
;
Structure prediction by ZEFSAII (Michael W. Deem and Ramdas Pophale) SiO2 
 PCOD9483301
Probable space group: C M M M
;
_chemical_formula_sum "Si O2"
_cell_formula_units_Z 88
_cell_length_a 21.518618
_cell_length_b 29.684231
_cell_length_c 7.866956
_cell_angle_alpha 90.000000
_cell_angle_beta 90.000000
_cell_angle_gamma 90.000000
_cell_volume 5025.125352
_symmetry_space_group_name_H-M "C M M M"
_symmetry_group_IT_number 65
_symmetry_cell_setting 'orthorhombic'
loop_
_space_group_symop_operation_xyz
x,y,z
-x,-y,z
x,-y,-z
-x,y,-z
-x,-y,-z
x,y,-z
-x,y,z
x,-y,z
1/2+x,1/2+y,z
1/2-x,1/2-y,z
1/2+x,1/2-y,-z
1/2-x,1/2+y,-z
1/2-x,1/2-y,-z
1/2+x,1/2+y,-z
1/2-x,1/2+y,z
1/2+x,1/2-y,z
loop_
_atom_site_type_symbol
_atom_site_label
_atom_site_fract_x
_atom_site_fract_y
_atom_site_fract_z
Si Si1 0.379346 0.607309 0.795334
Si Si2 0.575023 0.862546 0.500000
Si Si3 0.000000 0.948049 0.791883
Si Si4 0.658833 0.052122 0.500000
Si Si5 0.924445 0.300665 0.813202
Si Si6 0.428522 0.297486 0.701404
Si Si7 0.757057 0.947192 0.199633
O O1 0.438459 0.578253 0.734357
O O2 0.388480 0.658506 0.738020
O O3 0.314978 0.583781 0.747334
O O4 0.381383 0.606775 0.000000
O O5 0.500000 0.864942 0.500000
O O6 0.604484 0.911615 0.500000
O O7 0.595505 0.833888 0.335555
O O8 0.000000 0.000000 0.738413
O O9 0.000000 0.947821 0.000000
O O10 0.701207 0.058947 0.668046
O O11 0.637887 0.000000 0.500000
O O12 0.905464 0.248864 0.783819
O O13 0.000000 0.299603 0.806766
O O14 0.905177 0.316013 0.000000
O O15 0.430798 0.289492 0.500000
O O16 0.500000 0.306261 0.760129
O O17 0.775978 0.000000 0.209203
O O18 0.741531 0.938387 0.000000
#
# Coordination Sequence:
#
# PCOD9483301 Si02
#       7
#    16   8   8   8  16  16  16
#     4  10  18  28  46  71 100 139 187 235 276 312
#     4  10  20  37  59  89 116 130 159 203 256 322
#     4   9  16  26  41  65  99 137 181 237 291 321
#     4  10  22  39  61  84 107 139 170 204 255 315
#     4   9  17  31  53  79 110 145 173 206 255 314
#     4  10  18  28  44  71 110 145 182 227 272 313
#     4   9  19  36  55  75 102 142 191 229 258 305
#
# _framework density 17.512
#
# number of rings (size 3 to 8) (size 9 to 14) (size 15 to 20)
#    0.000    2.455    1.818    1.091    1.273    3.818 
#    0.000    0.000    0.000    2.727    0.000    8.909 
#    0.000    0.000    0.000    0.000    0.000    0.000 
#
# Total GULP energy -245388.243871 kJ/mol
# GULP energy per Si atom -5577.005543 kJ/mol
# Density = 1.747214 g / cm^3
# Si number density = 17.512000 Si / 1000 Ang^3
#
#
#
# Elastic Constant Matrix: (Units=GPa)
#
#
# Indices 1 2 3 4 5 6 
#
# 1 30.8234 43.8634 27.5753 0.0000 0.0000 0.0000
# 2 43.8634 121.9744 53.5769 0.0000 0.0000 0.0000
# 3 27.5753 53.5769 82.1444 0.0000 0.0000 0.0000
# 4 0.0000 0.0000 0.0000 15.5365 0.0000 0.0000
# 5 0.0000 0.0000 0.0000 0.0000 8.5666 0.0000
# 6 0.0000 0.0000 0.0000 0.0000 0.0000 18.5388
#
#
#
# Elastic Compliance Matrix: (Units=1/GPa)
#
#
# Indices 1 2 3 4 5 6 
#
# 1 0.072089 -0.021435 -0.010219 0.000000 0.000000 0.000000
# 2 -0.021435 0.017864 -0.004456 0.000000 0.000000 0.000000
# 3 -0.010219 -0.004456 0.018510 0.000000 0.000000 0.000000
# 4 0.000000 0.000000 0.000000 0.064364 0.000000 0.000000
# 5 0.000000 0.000000 0.000000 0.000000 0.116733 0.000000
# 6 0.000000 0.000000 0.000000 0.000000 0.000000 0.053941
#
#
# Mechanical properties :
#
#
# Convention : Reuss Voigt Hill
#
# Bulk Modulus (GPa) = 27.59156 53.88593 40.73874
# Shear Modulus (GPa) = 11.68765 15.85682 13.77224
#
# Velocity S-wave (km/s) = 2.58623 3.01239 2.80741
# Velocity P-wave (km/s) = 4.97072 6.55263 5.81571
#
# Compressibility (1/GPa) = 0.03624297
#
# Stress axis : x y z
#
# Youngs Moduli (GPa) = 13.87181 55.97871 54.02399
#
# Poissons Ratio (x) = 1.19992 0.55207
# Poissons Ratio (y) = 0.29735 0.24071
# Poissons Ratio (z) = 0.14176 0.24942
#
# Static dielectric constant tensor:
#      x y z
#    x 1.566110 0.000000 0.000000 
#    y 0.000000 1.580180 0.000000 
#    z 0.000000 0.000000 1.624300 
# 
# From -- ./inp_files/12699.got.cif
#   From: 2010.05.17/outbox.cif.g08.bks.cpg/sg65_7_cif.got.tgz:12699.got - 2010.06.03 17:01:31.
