data_PCOD9483325
_publ_section_title
;
Structure prediction by ZEFSAII (Michael W. Deem and Ramdas Pophale) SiO2 
 PCOD9483325
Probable space group: C M M M
;
_chemical_formula_sum "Si O2"
_cell_formula_units_Z 120
_cell_length_a 7.705114
_cell_length_b 28.700057
_cell_length_c 26.969368
_cell_angle_alpha 90.000000
_cell_angle_beta 90.000000
_cell_angle_gamma 90.000000
_cell_volume 5963.930822
_symmetry_space_group_name_H-M "C M M M"
_symmetry_group_IT_number 65
_symmetry_cell_setting 'orthorhombic'
loop_
_space_group_symop_operation_xyz
x,y,z
-x,-y,z
x,-y,-z
-x,y,-z
-x,-y,-z
x,y,-z
-x,y,z
x,-y,z
1/2+x,1/2+y,z
1/2-x,1/2-y,z
1/2+x,1/2-y,-z
1/2-x,1/2+y,-z
1/2-x,1/2-y,-z
1/2+x,1/2+y,-z
1/2-x,1/2+y,z
1/2+x,1/2-y,z
loop_
_atom_site_type_symbol
_atom_site_label
_atom_site_fract_x
_atom_site_fract_y
_atom_site_fract_z
Si Si1 0.793720 0.108305 0.745824
Si Si2 0.787763 0.947006 0.158631
Si Si3 0.707717 0.302525 0.198497
Si Si4 0.209225 0.304326 0.444272
Si Si5 0.790780 0.805401 0.000000
Si Si6 0.788066 0.145596 0.100927
Si Si7 0.207770 0.945012 0.445315
Si Si8 0.694312 0.875602 0.635590
O O1 0.730554 0.070457 0.786278
O O2 0.725806 0.158620 0.763650
O O3 0.766799 0.105888 0.687372
O O4 0.000000 0.107791 0.752998
O O5 0.735454 0.906236 0.119699
O O6 0.000000 0.947748 0.157840
O O7 0.729937 0.000000 0.148629
O O8 0.500000 0.305811 0.197847
O O9 0.750000 0.250000 0.210817
O O10 0.767539 0.318716 0.144168
O O11 0.273281 0.317229 0.500000
O O12 0.250000 0.250000 0.437333
O O13 0.278665 0.334711 0.398123
O O14 0.000000 0.310374 0.445022
O O15 0.750000 0.750000 0.000000
O O16 0.728523 0.833255 0.048795
O O17 0.000000 0.808013 0.000000
O O18 0.000000 0.144762 0.099760
O O19 0.263145 0.929086 0.500000
O O20 0.302494 0.918078 0.402516
O O21 0.000000 0.937451 0.440899
O O22 0.236949 0.000000 0.442303
O O23 0.500000 0.859931 0.647298
#
# Coordination Sequence:
#
# PCOD9483325 Si02
#       8
#    16  16  16  16   8  16  16  16
#     4   9  19  33  47  67  93 121 158 200 238 283
#     4   8  14  28  50  70  90 122 162 201 242 287
#     4   9  17  30  47  65  90 125 162 199 239 283
#     4   9  19  35  52  70  93 123 159 194 231 282
#     4  10  18  28  45  71 105 137 162 196 241 286
#     4   8  15  27  43  68  99 127 158 198 242 287
#     4   9  19  36  56  76  97 124 159 193 227 279
#     4  11  22  34  50  74 103 129 154 195 249 295
#
# _framework density 20.120958999999999
#
# number of rings (size 3 to 8) (size 9 to 14) (size 15 to 20)
#    0.000    2.933    0.000    3.200    0.000    3.733 
#    0.000    6.333    0.000    2.800    0.000    0.000 
#    0.000    0.533    0.000    0.000    0.000    0.000 
#
# Total GULP energy -334273.413326 kJ/mol
# GULP energy per Si atom -5571.223555 kJ/mol
# Density = 2.007516 g / cm^3
# Si number density = 20.120959 Si / 1000 Ang^3
#
#
#
# Elastic Constant Matrix: (Units=GPa)
#
#
# Indices 1 2 3 4 5 6 
#
# 1 24.5541 3.8996 8.4701 0.0000 0.0000 0.0000
# 2 3.8996 121.6371 58.5694 0.0000 0.0000 0.0000
# 3 8.4701 58.5694 140.2103 0.0000 0.0000 0.0000
# 4 0.0000 0.0000 0.0000 22.3825 0.0000 0.0000
# 5 0.0000 0.0000 0.0000 0.0000 -14.7105 0.0000
# 6 0.0000 0.0000 0.0000 0.0000 0.0000 17.5241
#
#
#
# Elastic Compliance Matrix: (Units=1/GPa)
#
#
# Indices 1 2 3 4 5 6 
#
# 1 0.041596 -0.000155 -0.002448 0.000000 0.000000 0.000000
# 2 -0.000155 0.010292 -0.004290 0.000000 0.000000 0.000000
# 3 -0.002448 -0.004290 0.009072 0.000000 0.000000 0.000000
# 4 0.000000 0.000000 0.000000 0.044678 0.000000 0.000000
# 5 0.000000 0.000000 0.000000 0.000000 -0.067979 0.000000
# 6 0.000000 0.000000 0.000000 0.000000 0.000000 0.057064
#
#
# Mechanical properties :
#
#
# Convention : Reuss Voigt Hill
#
# Bulk Modulus (GPa) = 21.19813 47.58663 34.39238
# Shear Modulus (GPa) = 40.24713 19.40338 29.82526
#
# Velocity S-wave (km/s) = 4.47728 3.10875 3.85424
# Velocity P-wave (km/s) = 6.10625 6.04875 6.07757
#
# Compressibility (1/GPa) = 0.04717396
#
# Stress axis : x y z
#
# Youngs Moduli (GPa) = 24.04103 97.16579 110.22964
#
# Poissons Ratio (x) = 0.01504 0.26986
# Poissons Ratio (y) = 0.00372 0.47286
# Poissons Ratio (z) = 0.05886 0.41682
#
# Static dielectric constant tensor:
#      x y z
#    x 1.942780 0.000000 0.000000 
#    y 0.000000 1.708960 0.000000 
#    z 0.000000 0.000000 1.724270 
# 
# From -- ./inp_files/73897.got.cif
#   From: 2010.05.17/outbox.cif.g08.bks.cpg/sg65_37_cif.got.tgz:73897.got - 2010.06.03 17:01:31.
