data_PCOD9483451
_publ_section_title
;
Structure prediction by ZEFSAII (Michael W. Deem and Ramdas Pophale) SiO2 
 PCOD9483451
Probable space group: C M M M
;
_chemical_formula_sum "Si O2"
_cell_formula_units_Z 120
_cell_length_a 27.837993
_cell_length_b 21.143510
_cell_length_c 13.900507
_cell_angle_alpha 90.000000
_cell_angle_beta 90.000000
_cell_angle_gamma 90.000000
_cell_volume 8181.739496
_symmetry_space_group_name_H-M "C M M M"
_symmetry_group_IT_number 65
_symmetry_cell_setting 'orthorhombic'
loop_
_space_group_symop_operation_xyz
x,y,z
-x,-y,z
x,-y,-z
-x,y,-z
-x,-y,-z
x,y,-z
-x,y,z
x,-y,z
1/2+x,1/2+y,z
1/2-x,1/2-y,z
1/2+x,1/2-y,-z
1/2-x,1/2+y,-z
1/2-x,1/2-y,-z
1/2+x,1/2+y,-z
1/2-x,1/2+y,z
1/2+x,1/2-y,z
loop_
_atom_site_type_symbol
_atom_site_label
_atom_site_fract_x
_atom_site_fract_y
_atom_site_fract_z
Si Si1 0.268367 0.322599 0.606476
Si Si2 0.803185 0.430590 0.323305
Si Si3 0.086029 0.427100 0.387656
Si Si4 0.554796 0.867544 0.794061
Si Si5 0.214157 0.606249 0.107239
Si Si6 0.132092 0.285641 0.108051
Si Si7 0.558332 0.000000 0.110178
Si Si8 0.791390 0.805064 0.186732
O O1 0.288246 0.336845 0.500000
O O2 0.250000 0.250000 0.602808
O O3 0.225998 0.372504 0.630678
O O4 0.300101 0.325550 0.702932
O O5 0.786839 0.500000 0.358018
O O6 0.858648 0.423818 0.353103
O O7 0.796823 0.429149 0.207387
O O8 0.082948 0.412656 0.500000
O O9 0.069664 0.500000 0.373750
O O10 0.057054 0.380849 0.319096
O O11 0.500000 0.857435 0.825934
O O12 0.589879 0.811915 0.825551
O O13 0.573070 0.934318 0.840386
O O14 0.173173 0.660257 0.106008
O O15 0.265606 0.640116 0.125781
O O16 0.213400 0.576642 0.000000
O O17 0.160750 0.224242 0.143007
O O18 0.113689 0.277538 0.000000
O O19 0.500000 0.000000 0.112631
O O20 0.574591 0.000000 0.000000
O O21 0.750000 0.750000 0.189106
#
# Coordination Sequence:
#
# PCOD9483451 Si02
#       8
#    16  16  16  16  16  16   8  16
#     4   9  17  28  44  64  85 111 143 179 217 257
#     4  10  19  31  44  64  92 116 144 184 230 273
#     4  10  20  33  47  59  75 105 144 187 233 273
#     4  11  21  32  43  59  79 102 140 184 225 269
#     4   9  16  27  44  64  85 109 136 171 214 262
#     4  10  18  29  45  62  81 108 137 172 220 266
#     4   9  18  32  45  55  73 101 132 174 225 267
#     4   8  15  27  42  62  85 104 131 171 210 256
#
# _framework density 14.666808
#
# number of rings (size 3 to 8) (size 9 to 14) (size 15 to 20)
#    0.000    2.467    2.000    2.000    0.000    3.733 
#    0.000    0.667    0.000    0.000    0.000    0.000 
#    0.000    0.000    0.000    0.000    0.000   10.667 
#
# Total GULP energy -334058.631442 kJ/mol
# GULP energy per Si atom -5567.643857 kJ/mol
# Density = 1.463343 g / cm^3
# Si number density = 14.666808 Si / 1000 Ang^3
#
#
#
# Elastic Constant Matrix: (Units=GPa)
#
#
# Indices 1 2 3 4 5 6 
#
# 1 46.4173 16.6523 15.7989 0.0000 0.0000 0.0000
# 2 16.6523 28.0713 4.7356 0.0000 0.0000 0.0000
# 3 15.7989 4.7356 92.4511 0.0000 0.0000 0.0000
# 4 0.0000 0.0000 0.0000 4.3384 0.0000 0.0000
# 5 0.0000 0.0000 0.0000 0.0000 8.0745 0.0000
# 6 0.0000 0.0000 0.0000 0.0000 0.0000 9.3865
#
#
#
# Elastic Compliance Matrix: (Units=1/GPa)
#
#
# Indices 1 2 3 4 5 6 
#
# 1 0.028820 -0.016407 -0.004085 0.000000 0.000000 0.000000
# 2 -0.016407 0.045275 0.000485 0.000000 0.000000 0.000000
# 3 -0.004085 0.000485 0.011490 0.000000 0.000000 0.000000
# 4 0.000000 0.000000 0.000000 0.230501 0.000000 0.000000
# 5 0.000000 0.000000 0.000000 0.000000 0.123846 0.000000
# 6 0.000000 0.000000 0.000000 0.000000 0.000000 0.106536
#
#
# Mechanical properties :
#
#
# Convention : Reuss Voigt Hill
#
# Bulk Modulus (GPa) = 21.94416 26.81257 24.37837
# Shear Modulus (GPa) = 8.31016 13.01008 10.66012
#
# Velocity S-wave (km/s) = 2.38291 2.98156 2.69888
# Velocity P-wave (km/s) = 4.75029 5.49306 5.13512
#
# Compressibility (1/GPa) = 0.04557020
#
# Stress axis : x y z
#
# Youngs Moduli (GPa) = 34.69796 22.08729 87.03441
#
# Poissons Ratio (x) = 0.36240 0.35550
# Poissons Ratio (y) = 0.56930 -0.04219
# Poissons Ratio (z) = 0.14173 -0.01071
#
# Static dielectric constant tensor:
#      x y z
#    x 1.463940 0.000000 0.000000 
#    y 0.000000 1.490940 0.000000 
#    z 0.000000 0.000000 1.540250 
# 
# From -- ./inp_files/47269.got.cif
#   From: 2010.05.17/outbox.cif.g08.bks.cpg/sg65_24_cif.got.tgz:47269.got - 2010.06.03 17:01:31.
