data_PCOD9483523
_publ_section_title
;
Structure prediction by ZEFSAII (Michael W. Deem and Ramdas Pophale) SiO2 
 PCOD9483523
Probable space group: C M M M
;
_chemical_formula_sum "Si O2"
_cell_formula_units_Z 80
_cell_length_a 23.103217
_cell_length_b 17.622345
_cell_length_c 13.750105
_cell_angle_alpha 90.000000
_cell_angle_beta 90.000000
_cell_angle_gamma 90.000000
_cell_volume 5598.119582
_symmetry_space_group_name_H-M "C M M M"
_symmetry_group_IT_number 65
_symmetry_cell_setting 'orthorhombic'
loop_
_space_group_symop_operation_xyz
x,y,z
-x,-y,z
x,-y,-z
-x,y,-z
-x,-y,-z
x,y,-z
-x,y,z
x,-y,z
1/2+x,1/2+y,z
1/2-x,1/2-y,z
1/2+x,1/2-y,-z
1/2-x,1/2+y,-z
1/2-x,1/2-y,-z
1/2+x,1/2+y,-z
1/2-x,1/2+y,z
1/2+x,1/2-y,z
loop_
_atom_site_type_symbol
_atom_site_label
_atom_site_fract_x
_atom_site_fract_y
_atom_site_fract_z
Si Si1 0.000000 0.410540 0.727288
Si Si2 0.706834 0.816424 0.746473
Si Si3 0.000000 0.280064 0.885345
Si Si4 0.624997 0.279695 0.113166
Si Si5 0.289626 0.410758 0.886826
Si Si6 0.879392 0.589750 0.614887
O O1 0.941822 0.396217 0.664909
O O2 0.000000 0.500000 0.754209
O O3 0.000000 0.355005 0.819399
O O4 0.750000 0.750000 0.709379
O O5 0.662076 0.774939 0.818610
O O6 0.744226 0.874055 0.812433
O O7 0.670083 0.860444 0.665841
O O8 0.057693 0.231822 0.865545
O O9 0.000000 0.299977 0.000000
O O10 0.650905 0.363794 0.125552
O O11 0.634506 0.258876 0.000000
O O12 0.296332 0.500000 0.870817
O O13 0.271190 0.399202 0.000000
O O14 0.882970 0.604846 0.500000
O O15 0.866708 0.500000 0.628193
#
# Coordination Sequence:
#
# PCOD9483523 Si02
#       6
#     8  16   8  16  16  16
#     4  10  19  33  50  66  88 119 150 179 220 271
#     4  10  18  29  47  67  90 121 149 183 220 263
#     4  10  18  30  48  68  92 119 145 180 224 266
#     4   9  17  29  45  66  91 120 150 180 221 267
#     4   9  17  29  45  66  92 121 153 184 214 259
#     4  10  20  33  48  66  89 117 149 186 226 266
#
# _framework density 14.290513000000001
#
# number of rings (size 3 to 8) (size 9 to 14) (size 15 to 20)
#    0.000    2.400    2.000    1.500    0.000    4.200 
#    0.000    0.500    0.000    3.000    0.000    0.000 
#    0.000    0.000    0.000    5.200    0.000    0.200 
#
# Total GULP energy -222834.792525 kJ/mol
# GULP energy per Si atom -5570.869813 kJ/mol
# Density = 1.425799 g / cm^3
# Si number density = 14.290513 Si / 1000 Ang^3
#
#
#
# Elastic Constant Matrix: (Units=GPa)
#
#
# Indices 1 2 3 4 5 6 
#
# 1 121.5411 64.2531 57.3370 0.0000 0.0000 0.0000
# 2 64.2531 95.5885 56.3023 0.0000 0.0000 0.0000
# 3 57.3370 56.3023 62.3670 0.0000 0.0000 0.0000
# 4 0.0000 0.0000 0.0000 22.8501 0.0000 0.0000
# 5 0.0000 0.0000 0.0000 0.0000 19.2325 0.0000
# 6 0.0000 0.0000 0.0000 0.0000 0.0000 22.3604
#
#
#
# Elastic Compliance Matrix: (Units=1/GPa)
#
#
# Indices 1 2 3 4 5 6 
#
# 1 0.015304 -0.004271 -0.010214 0.000000 0.000000 0.000000
# 2 -0.004271 0.023533 -0.017318 0.000000 0.000000 0.000000
# 3 -0.010214 -0.017318 0.041058 0.000000 0.000000 0.000000
# 4 0.000000 0.000000 0.000000 0.043763 0.000000 0.000000
# 5 0.000000 0.000000 0.000000 0.000000 0.051995 0.000000
# 6 0.000000 0.000000 0.000000 0.000000 0.000000 0.044722
#
#
# Mechanical properties :
#
#
# Convention : Reuss Voigt Hill
#
# Bulk Modulus (GPa) = 61.39037 70.58683 65.98860
# Shear Modulus (GPa) = 17.27646 19.66221 18.46933
#
# Velocity S-wave (km/s) = 3.48076 3.71333 3.59892
# Velocity P-wave (km/s) = 7.69457 8.23933 7.97160
#
# Compressibility (1/GPa) = 0.01628920
#
# Stress axis : x y z
#
# Youngs Moduli (GPa) = 65.34224 42.49408 24.35566
#
# Poissons Ratio (x) = 0.18149 0.24877
# Poissons Ratio (y) = 0.27907 0.42179
# Poissons Ratio (z) = 0.66741 0.73590
#
# Static dielectric constant tensor:
#      x y z
#    x 1.465660 0.000000 0.000000 
#    y 0.000000 1.454960 0.000000 
#    z 0.000000 0.000000 1.452260 
# 
# From -- ./inp_files/26685.got.cif
#   From: 2010.05.17/outbox.cif.g08.bks.cpg/sg65_14_cif.got.tgz:26685.got - 2010.06.03 17:01:31.
