data_PCOD9483154
_publ_section_title
;
Structure prediction by ZEFSAII (Michael W. Deem and Ramdas Pophale) SiO2 
 PCOD9483154
Probable space group: C M M M
;
_chemical_formula_sum "Si O2"
_cell_formula_units_Z 120
_cell_length_a 7.536782
_cell_length_b 30.826809
_cell_length_c 26.567195
_cell_angle_alpha 90.000000
_cell_angle_beta 90.000000
_cell_angle_gamma 90.000000
_cell_volume 6172.487635
_symmetry_space_group_name_H-M "C M M M"
_symmetry_group_IT_number 65
_symmetry_cell_setting 'orthorhombic'
loop_
_space_group_symop_operation_xyz
x,y,z
-x,-y,z
x,-y,-z
-x,y,-z
-x,-y,-z
x,y,-z
-x,y,z
x,-y,z
1/2+x,1/2+y,z
1/2-x,1/2-y,z
1/2+x,1/2-y,-z
1/2-x,1/2+y,-z
1/2-x,1/2-y,-z
1/2+x,1/2+y,-z
1/2-x,1/2+y,z
1/2+x,1/2-y,z
loop_
_atom_site_type_symbol
_atom_site_label
_atom_site_fract_x
_atom_site_fract_y
_atom_site_fract_z
Si Si1 0.283483 0.548878 0.739187
Si Si2 0.212311 0.798144 0.094126
Si Si3 0.712825 0.298629 0.208959
Si Si4 0.787595 0.301350 0.500000
Si Si5 0.717197 0.389221 0.055116
Si Si6 0.710569 0.198865 0.390213
Si Si7 0.784144 0.049437 0.145195
Si Si8 0.289180 0.638980 0.295531
O O1 0.500000 0.547156 0.738079
O O2 0.222712 0.500000 0.726556
O O3 0.232003 0.558817 0.797227
O O4 0.223129 0.589424 0.705530
O O5 0.250000 0.750000 0.074507
O O6 0.281160 0.801506 0.151735
O O7 0.274352 0.839477 0.063048
O O8 0.000000 0.801585 0.096670
O O9 0.500000 0.303649 0.206244
O O10 0.750000 0.250000 0.227758
O O11 0.783176 0.333832 0.247999
O O12 0.750000 0.250000 0.500000
O O13 0.717521 0.315526 0.445284
O O14 0.000000 0.308573 0.500000
O O15 0.500000 0.390127 0.055775
O O16 0.777499 0.417684 0.102436
O O17 0.772499 0.405114 0.000000
O O18 0.500000 0.196269 0.393114
O O19 0.750000 0.250000 0.381213
O O20 0.765498 0.167408 0.345348
O O21 0.000000 0.050943 0.145064
O O22 0.732008 0.000000 0.133646
O O23 0.500000 0.635781 0.287586
#
# Coordination Sequence:
#
# PCOD9483154 Si02
#       8
#    16  16  16   8  16  16  16  16
#     4   8  14  25  41  60  82 110 144 179 215 259
#     4   9  17  29  42  55  75 106 140 170 203 245
#     4   9  17  27  39  56  80 109 138 168 204 251
#     4   8  16  30  46  62  85 120 155 183 210 245
#     4   9  16  24  35  53  77 104 133 168 211 253
#     4  10  19  31  46  66  93 123 153 182 213 250
#     4   8  13  22  37  57  81 108 136 166 205 257
#     4  10  18  27  42  65  90 115 144 180 221 260
#
# _framework density 19.441109000000001
#
# number of rings (size 3 to 8) (size 9 to 14) (size 15 to 20)
#    0.000    3.067    0.000    2.400    0.000    5.867 
#    0.000    1.333    0.000    0.400    0.000    0.467 
#    0.000    5.333    0.000    1.200    0.000    1.333 
#
# Total GULP energy -334451.997881 kJ/mol
# GULP energy per Si atom -5574.199965 kJ/mol
# Density = 1.939686 g / cm^3
# Si number density = 19.441109 Si / 1000 Ang^3
#
#
#
# Elastic Constant Matrix: (Units=GPa)
#
#
# Indices 1 2 3 4 5 6 
#
# 1 46.3523 0.5998 -2.3829 0.0000 0.0000 0.0000
# 2 0.5998 125.7265 66.3413 0.0000 0.0000 0.0000
# 3 -2.3829 66.3413 71.3428 0.0000 0.0000 0.0000
# 4 0.0000 0.0000 0.0000 15.9868 0.0000 0.0000
# 5 0.0000 0.0000 0.0000 0.0000 -4.7861 0.0000
# 6 0.0000 0.0000 0.0000 0.0000 0.0000 8.5465
#
#
#
# Elastic Compliance Matrix: (Units=1/GPa)
#
#
# Indices 1 2 3 4 5 6 
#
# 1 0.021669 -0.000953 0.001610 0.000000 0.000000 0.000000
# 2 -0.000953 0.015658 -0.014592 0.000000 0.000000 0.000000
# 3 0.001610 -0.014592 0.027640 0.000000 0.000000 0.000000
# 4 0.000000 0.000000 0.000000 0.062552 0.000000 0.000000
# 5 0.000000 0.000000 0.000000 0.000000 -0.208938 0.000000
# 6 0.000000 0.000000 0.000000 0.000000 0.000000 0.117007
#
#
# Mechanical properties :
#
#
# Convention : Reuss Voigt Hill
#
# Bulk Modulus (GPa) = 26.95678 41.39312 34.17495
# Shear Modulus (GPa) = 65.94290 15.87366 40.90828
#
# Velocity S-wave (km/s) = 5.83035 2.86055 4.59215
# Velocity P-wave (km/s) = 7.69545 5.67874 6.76269
#
# Compressibility (1/GPa) = 0.03709642
#
# Stress axis : x y z
#
# Youngs Moduli (GPa) = 46.14889 63.86466 36.17966
#
# Poissons Ratio (x) = 0.06085 -0.05824
# Poissons Ratio (y) = 0.04397 0.52794
# Poissons Ratio (z) = -0.07429 0.93193
#
# Static dielectric constant tensor:
#      x y z
#    x 1.794020 0.000000 0.000000 
#    y 0.000000 1.697130 0.000000 
#    z 0.000000 0.000000 1.703830 
# 
# From -- ./inp_files/77537.got.cif
#   From: 2010.05.17/outbox.cif.g08.bks.cpg/sg65_39_cif.got.tgz:77537.got - 2010.06.03 17:01:31.
