data_PCOD9483736
_publ_section_title
;
Structure prediction by ZEFSAII (Michael W. Deem and Ramdas Pophale) SiO2 
 PCOD9483736
Probable space group: C M M M
;
_chemical_formula_sum "Si O2"
_cell_formula_units_Z 80
_cell_length_a 8.795152
_cell_length_b 28.829311
_cell_length_c 19.002298
_cell_angle_alpha 90.000000
_cell_angle_beta 90.000000
_cell_angle_gamma 90.000000
_cell_volume 4818.187950
_symmetry_space_group_name_H-M "C M M M"
_symmetry_group_IT_number 65
_symmetry_cell_setting 'orthorhombic'
loop_
_space_group_symop_operation_xyz
x,y,z
-x,-y,z
x,-y,-z
-x,y,-z
-x,-y,-z
x,y,-z
-x,y,z
x,-y,z
1/2+x,1/2+y,z
1/2-x,1/2-y,z
1/2+x,1/2-y,-z
1/2-x,1/2+y,-z
1/2-x,1/2-y,-z
1/2+x,1/2+y,-z
1/2-x,1/2+y,z
1/2+x,1/2-y,z
loop_
_atom_site_type_symbol
_atom_site_label
_atom_site_fract_x
_atom_site_fract_y
_atom_site_fract_z
Si Si1 0.316689 0.945845 0.647374
Si Si2 0.682303 0.697765 0.000000
Si Si3 0.317967 0.801085 0.145579
Si Si4 0.318607 0.444495 0.921584
Si Si5 0.817373 0.606517 0.786749
Si Si6 0.823585 0.056257 0.500000
O O1 0.500000 0.944252 0.644759
O O2 0.262545 0.916621 0.714513
O O3 0.253823 0.928604 0.572658
O O4 0.272710 0.000000 0.656742
O O5 0.750000 0.750000 0.000000
O O6 0.746661 0.678890 0.073079
O O7 0.500000 0.697643 0.000000
O O8 0.500000 0.797093 0.137140
O O9 0.250000 0.750000 0.158104
O O10 0.281421 0.839053 0.204621
O O11 0.500000 0.436306 0.919226
O O12 0.294431 0.500000 0.916765
O O13 0.243716 0.420051 0.855178
O O14 0.265222 0.429655 0.000000
O O15 0.000000 0.602425 0.787751
O O16 0.000000 0.068714 0.500000
O O17 0.811191 0.000000 0.500000
#
# Coordination Sequence:
#
# PCOD9483736 Si02
#       6
#    16   8  16  16  16   8
#     4   9  17  31  50  72  99 129 158 189 231 282
#     4  10  18  30  48  66  85 114 153 198 248 295
#     4  10  20  34  49  68  94 122 158 204 251 295
#     4   9  19  34  48  65  93 128 164 200 239 285
#     4  10  21  33  49  72  96 124 163 205 242 284
#     4   9  17  29  47  73 102 129 156 187 226 275
#
# _framework density 16.603752
#
# number of rings (size 3 to 8) (size 9 to 14) (size 15 to 20)
#    0.000    2.500    0.000    4.200    1.400    5.200 
#    0.000    3.000    0.000    0.000    0.000    0.700 
#    0.000    0.000    0.000    0.000    0.000    0.000 
#
# Total GULP energy -223024.974271 kJ/mol
# GULP energy per Si atom -5575.624357 kJ/mol
# Density = 1.656596 g / cm^3
# Si number density = 16.603752 Si / 1000 Ang^3
#
#
#
# Elastic Constant Matrix: (Units=GPa)
#
#
# Indices 1 2 3 4 5 6 
#
# 1 36.3685 30.9337 37.8273 0.0000 0.0000 0.0000
# 2 30.9337 69.1590 74.6590 0.0000 0.0000 0.0000
# 3 37.8273 74.6590 160.9533 0.0000 0.0000 0.0000
# 4 0.0000 0.0000 0.0000 19.3989 0.0000 0.0000
# 5 0.0000 0.0000 0.0000 0.0000 17.1400 0.0000
# 6 0.0000 0.0000 0.0000 0.0000 0.0000 17.3705
#
#
#
# Elastic Compliance Matrix: (Units=1/GPa)
#
#
# Indices 1 2 3 4 5 6 
#
# 1 0.044868 -0.017396 -0.002476 0.000000 0.000000 0.000000
# 2 -0.017396 0.035707 -0.012474 0.000000 0.000000 0.000000
# 3 -0.002476 -0.012474 0.012581 0.000000 0.000000 0.000000
# 4 0.000000 0.000000 0.000000 0.051549 0.000000 0.000000
# 5 0.000000 0.000000 0.000000 0.000000 0.058343 0.000000
# 6 0.000000 0.000000 0.000000 0.000000 0.000000 0.057569
#
#
# Mechanical properties :
#
#
# Convention : Reuss Voigt Hill
#
# Bulk Modulus (GPa) = 35.13274 61.48011 48.30643
# Shear Modulus (GPa) = 14.93442 18.98591 16.96016
#
# Velocity S-wave (km/s) = 3.00235 3.38519 3.19950
# Velocity P-wave (km/s) = 5.76405 7.23793 6.54263
#
# Compressibility (1/GPa) = 0.02846348
#
# Stress axis : x y z
#
# Youngs Moduli (GPa) = 22.28778 28.00581 79.48442
#
# Poissons Ratio (x) = 0.48719 0.19676
# Poissons Ratio (y) = 0.38772 0.99152
# Poissons Ratio (z) = 0.05517 0.34935
#
# Static dielectric constant tensor:
#      x y z
#    x 1.563910 0.000000 0.000000 
#    y 0.000000 1.623240 0.000000 
#    z 0.000000 0.000000 1.564150 
# 
# From -- ./inp_files/50249.got.cif
#   From: 2010.05.17/outbox.cif.g08.bks.cpg/sg65_26_cif.got.tgz:50249.got - 2010.06.03 17:01:31.
