data_PCOD9483685
_publ_section_title
;
Structure prediction by ZEFSAII (Michael W. Deem and Ramdas Pophale) SiO2 
 PCOD9483685
Probable space group: C M M M
;
_chemical_formula_sum "Si O2"
_cell_formula_units_Z 88
_cell_length_a 28.221627
_cell_length_b 8.510893
_cell_length_c 22.163968
_cell_angle_alpha 90.000000
_cell_angle_beta 90.000000
_cell_angle_gamma 90.000000
_cell_volume 5323.591128
_symmetry_space_group_name_H-M "C M M M"
_symmetry_group_IT_number 65
_symmetry_cell_setting 'orthorhombic'
loop_
_space_group_symop_operation_xyz
x,y,z
-x,-y,z
x,-y,-z
-x,y,-z
-x,-y,-z
x,y,-z
-x,y,z
x,-y,z
1/2+x,1/2+y,z
1/2-x,1/2-y,z
1/2+x,1/2-y,-z
1/2-x,1/2+y,-z
1/2-x,1/2-y,-z
1/2+x,1/2+y,-z
1/2-x,1/2+y,z
1/2+x,1/2-y,z
loop_
_atom_site_type_symbol
_atom_site_label
_atom_site_fract_x
_atom_site_fract_y
_atom_site_fract_z
Si Si1 0.102188 0.691729 0.932847
Si Si2 0.198246 0.311116 0.869903
Si Si3 0.303993 0.813208 0.500000
Si Si4 0.351586 0.809909 0.746133
Si Si5 0.803745 0.813543 0.373620
Si Si6 0.447130 0.808372 0.810475
O O1 0.101375 0.500000 0.933239
O O2 0.155586 0.738790 0.914017
O O3 0.068073 0.740522 0.878167
O O4 0.089826 0.745658 0.000000
O O5 0.199170 0.500000 0.870857
O O6 0.250000 0.250000 0.885287
O O7 0.182438 0.263589 0.802140
O O8 0.250000 0.750000 0.500000
O O9 0.324247 0.752083 0.563260
O O10 0.303456 0.000000 0.500000
O O11 0.333690 0.739181 0.683976
O O12 0.404644 0.761705 0.765884
O O13 0.350347 0.000000 0.742087
O O14 0.750000 0.750000 0.366437
O O15 0.801268 0.000000 0.377508
O O16 0.500000 0.754750 0.795329
O O17 0.447245 0.000000 0.810403
#
# Coordination Sequence:
#
# PCOD9483685 Si02
#       6
#    16  16   8  16  16  16
#     4   8  14  24  37  56  83 111 140 178 225 272
#     4   9  17  27  39  56  81 113 146 181 219 261
#     4  10  18  30  46  66  95 128 157 182 212 249
#     4   9  17  29  43  62  88 116 148 185 225 268
#     4  11  20  30  45  67  95 125 156 185 215 252
#     4   8  14  25  42  63  85 110 143 185 230 274
#
# _framework density 16.530194000000002
#
# number of rings (size 3 to 8) (size 9 to 14) (size 15 to 20)
#    0.000    2.909    0.000    6.273    0.000    2.909 
#    0.000    1.818    0.000    0.545    0.000    0.636 
#    0.000    5.091    0.000    8.000    0.000    8.000 
#
# Total GULP energy -245158.429757 kJ/mol
# GULP energy per Si atom -5571.782494 kJ/mol
# Density = 1.649257 g / cm^3
# Si number density = 16.530194 Si / 1000 Ang^3
#
#
#
# Elastic Constant Matrix: (Units=GPa)
#
#
# Indices 1 2 3 4 5 6 
#
# 1 79.5768 11.0837 29.6104 0.0000 0.0000 0.0000
# 2 11.0837 43.1192 27.2163 0.0000 0.0000 0.0000
# 3 29.6104 27.2163 118.5854 0.0000 0.0000 0.0000
# 4 0.0000 0.0000 0.0000 12.8597 0.0000 0.0000
# 5 0.0000 0.0000 0.0000 0.0000 11.4931 0.0000
# 6 0.0000 0.0000 0.0000 0.0000 0.0000 13.1309
#
#
#
# Elastic Compliance Matrix: (Units=1/GPa)
#
#
# Indices 1 2 3 4 5 6 
#
# 1 0.013950 -0.001622 -0.003111 0.000000 0.000000 0.000000
# 2 -0.001622 0.027309 -0.005863 0.000000 0.000000 0.000000
# 3 -0.003111 -0.005863 0.010555 0.000000 0.000000 0.000000
# 4 0.000000 0.000000 0.000000 0.077762 0.000000 0.000000
# 5 0.000000 0.000000 0.000000 0.000000 0.087009 0.000000
# 6 0.000000 0.000000 0.000000 0.000000 0.000000 0.076156
#
#
# Mechanical properties :
#
#
# Convention : Reuss Voigt Hill
#
# Bulk Modulus (GPa) = 32.65575 41.90026 37.27801
# Shear Modulus (GPa) = 15.42543 19.05481 17.24012
#
# Velocity S-wave (km/s) = 3.05809 3.39887 3.23297
# Velocity P-wave (km/s) = 5.68043 6.38794 6.04455
#
# Compressibility (1/GPa) = 0.03062248
#
# Stress axis : x y z
#
# Youngs Moduli (GPa) = 71.68454 36.61811 94.74142
#
# Poissons Ratio (x) = 0.05940 0.29474
# Poissons Ratio (y) = 0.11629 0.55543
# Poissons Ratio (z) = 0.22301 0.21468
#
# Static dielectric constant tensor:
#      x y z
#    x 1.545300 0.000000 0.000000 
#    y 0.000000 1.593570 0.000000 
#    z 0.000000 0.000000 1.568490 
# 
# From -- ./inp_files/65763.got.cif
#   From: 2010.05.17/outbox.cif.g08.bks.cpg/sg65_33_cif.got.tgz:65763.got - 2010.06.03 17:01:31.
