data_PCOD9483231
_publ_section_title
;
Structure prediction by ZEFSAII (Michael W. Deem and Ramdas Pophale) SiO2 
 PCOD9483231
Probable space group: C M M M
;
_chemical_formula_sum "Si O2"
_cell_formula_units_Z 104
_cell_length_a 9.075849
_cell_length_b 27.737027
_cell_length_c 23.379259
_cell_angle_alpha 90.000000
_cell_angle_beta 90.000000
_cell_angle_gamma 90.000000
_cell_volume 5885.426130
_symmetry_space_group_name_H-M "C M M M"
_symmetry_group_IT_number 65
_symmetry_cell_setting 'orthorhombic'
loop_
_space_group_symop_operation_xyz
x,y,z
-x,-y,z
x,-y,-z
-x,y,-z
-x,-y,-z
x,y,-z
-x,y,z
x,-y,z
1/2+x,1/2+y,z
1/2-x,1/2-y,z
1/2+x,1/2-y,-z
1/2-x,1/2+y,-z
1/2-x,1/2-y,-z
1/2+x,1/2+y,-z
1/2-x,1/2+y,z
1/2+x,1/2-y,z
loop_
_atom_site_type_symbol
_atom_site_label
_atom_site_fract_x
_atom_site_fract_y
_atom_site_fract_z
Si Si1 0.169053 0.298258 0.260628
Si Si2 0.179554 0.500000 0.065683
Si Si3 0.331373 0.201003 0.122403
Si Si4 0.819678 0.594917 0.864968
Si Si5 0.676886 0.698982 0.433237
Si Si6 0.826020 0.442969 0.740739
Si Si7 0.824595 0.125097 0.663607
O O1 0.250000 0.250000 0.279471
O O2 0.166261 0.298340 0.191876
O O3 0.265566 0.340519 0.286160
O O4 0.000000 0.301057 0.280486
O O5 0.225684 0.548955 0.097528
O O6 0.000000 0.500000 0.067263
O O7 0.226093 0.500000 0.000000
O O8 0.500000 0.203165 0.101861
O O9 0.250000 0.250000 0.103702
O O10 0.269511 0.147081 0.111215
O O11 0.775748 0.583247 0.799489
O O12 0.000000 0.597071 0.864647
O O13 0.712144 0.690439 0.500000
O O14 0.500000 0.704153 0.427837
O O15 0.750000 0.750000 0.416614
O O16 0.721914 0.653818 0.393687
O O17 0.808716 0.500000 0.749390
O O18 0.745883 0.425071 0.683419
O O19 0.000000 0.432254 0.734853
O O20 0.000000 0.121262 0.663154
#
# Coordination Sequence:
#
# PCOD9483231 Si02
#       7
#    16   8  16  16  16  16  16
#     4  10  18  28  42  64  96 131 163 195 237 292
#     4   9  16  26  48  80 105 127 166 219 262 298
#     4   9  17  28  43  64  95 134 166 196 237 296
#     4   9  15  28  47  69 101 135 165 204 258 309
#     4   9  19  35  52  71  97 131 168 205 249 298
#     4  10  19  33  52  71  96 134 167 201 258 321
#     4  11  21  31  47  71  99 128 162 208 251 299
#
# _framework density 17.670767000000001
#
# number of rings (size 3 to 8) (size 9 to 14) (size 15 to 20)
#    0.000    2.385    2.308    1.385    0.000    3.385 
#    0.000    0.000    0.000    0.923    0.000    3.231 
#    0.000    4.308    0.000    0.000    0.000    0.000 
#
# Total GULP energy -289603.909216 kJ/mol
# GULP energy per Si atom -5569.305946 kJ/mol
# Density = 1.763055 g / cm^3
# Si number density = 17.670767 Si / 1000 Ang^3
#
#
#
# Elastic Constant Matrix: (Units=GPa)
#
#
# Indices 1 2 3 4 5 6 
#
# 1 16.8216 34.2347 13.6970 0.0000 0.0000 0.0000
# 2 34.2347 130.2028 46.8773 0.0000 0.0000 0.0000
# 3 13.6970 46.8773 66.9350 0.0000 0.0000 0.0000
# 4 0.0000 0.0000 0.0000 21.2227 0.0000 0.0000
# 5 0.0000 0.0000 0.0000 0.0000 9.7093 0.0000
# 6 0.0000 0.0000 0.0000 0.0000 0.0000 26.1679
#
#
#
# Elastic Compliance Matrix: (Units=1/GPa)
#
#
# Indices 1 2 3 4 5 6 
#
# 1 0.128492 -0.032517 -0.003520 0.000000 0.000000 0.000000
# 2 -0.032517 0.018499 -0.006302 0.000000 0.000000 0.000000
# 3 -0.003520 -0.006302 0.020073 0.000000 0.000000 0.000000
# 4 0.000000 0.000000 0.000000 0.047119 0.000000 0.000000
# 5 0.000000 0.000000 0.000000 0.000000 0.102994 0.000000
# 6 0.000000 0.000000 0.000000 0.000000 0.000000 0.038215
#
#
# Mechanical properties :
#
#
# Convention : Reuss Voigt Hill
#
# Bulk Modulus (GPa) = 12.13802 44.84196 28.48999
# Shear Modulus (GPa) = 10.69445 19.36335 15.02890
#
# Velocity S-wave (km/s) = 2.46276 3.31385 2.91949
# Velocity P-wave (km/s) = 3.86921 6.33037 5.24616
#
# Compressibility (1/GPa) = 0.08238579
#
# Stress axis : x y z
#
# Youngs Moduli (GPa) = 7.78261 54.05695 49.81716
#
# Poissons Ratio (x) = 1.75779 0.17536
# Poissons Ratio (y) = 0.25307 0.31392
# Poissons Ratio (z) = 0.02740 0.34064
#
# Static dielectric constant tensor:
#      x y z
#    x 1.597840 0.000000 0.000000 
#    y 0.000000 1.620810 0.000000 
#    z 0.000000 0.000000 1.609410 
# 
# From -- ./inp_files/68261.got.cif
#   From: 2010.05.17/outbox.cif.g08.bks.cpg/sg65_35_cif.got.tgz:68261.got - 2010.06.03 17:01:31.
