data_PCOD9483482
_publ_section_title
;
Structure prediction by ZEFSAII (Michael W. Deem and Ramdas Pophale) SiO2 
 PCOD9483482
Probable space group: C M M M
;
_chemical_formula_sum "Si O2"
_cell_formula_units_Z 104
_cell_length_a 28.144958
_cell_length_b 29.030119
_cell_length_c 9.528782
_cell_angle_alpha 90.000000
_cell_angle_beta 90.000000
_cell_angle_gamma 90.000000
_cell_volume 7785.505436
_symmetry_space_group_name_H-M "C M M M"
_symmetry_group_IT_number 65
_symmetry_cell_setting 'orthorhombic'
loop_
_space_group_symop_operation_xyz
x,y,z
-x,-y,z
x,-y,-z
-x,y,-z
-x,-y,-z
x,y,-z
-x,y,z
x,-y,z
1/2+x,1/2+y,z
1/2-x,1/2-y,z
1/2+x,1/2-y,-z
1/2-x,1/2+y,-z
1/2-x,1/2-y,-z
1/2+x,1/2+y,-z
1/2-x,1/2+y,z
1/2+x,1/2-y,z
loop_
_atom_site_type_symbol
_atom_site_label
_atom_site_fract_x
_atom_site_fract_y
_atom_site_fract_z
Si Si1 0.000000 0.446007 0.653664
Si Si2 0.178484 0.446902 0.663940
Si Si3 0.225380 0.648874 0.663788
Si Si4 0.208601 0.211258 0.839354
Si Si5 0.087850 0.582934 0.160319
Si Si6 0.857765 0.723478 0.332976
Si Si7 0.443520 0.811174 0.160502
O O1 0.954265 0.434371 0.742910
O O2 0.000000 0.500000 0.635171
O O3 0.000000 0.423079 0.500000
O O4 0.162410 0.443742 0.500000
O O5 0.193956 0.500000 0.686290
O O6 0.215787 0.405362 0.682492
O O7 0.135943 0.434068 0.768070
O O8 0.237109 0.657611 0.500000
O O9 0.266442 0.668411 0.762927
O O10 0.176968 0.678721 0.691371
O O11 0.250000 0.250000 0.843418
O O12 0.167455 0.234235 0.746602
O O13 0.194309 0.201876 0.000000
O O14 0.079193 0.637745 0.158395
O O15 0.084530 0.566491 0.000000
O O16 0.859615 0.730326 0.500000
O O17 0.909719 0.715648 0.267560
O O18 0.500000 0.813482 0.195116
O O19 0.439752 0.793270 0.000000
#
# Coordination Sequence:
#
# PCOD9483482 Si02
#       7
#     8  16  16  16  16  16  16
#     4  11  23  35  45  55  69  93 129 175 223 267
#     4  10  20  33  46  61  83 111 141 173 214 258
#     4   9  17  29  44  63  84 107 136 172 209 250
#     4   9  17  28  44  65  85 106 129 162 209 257
#     4  11  21  33  46  59  76 100 134 177 220 258
#     4  10  18  29  46  65  83 105 134 172 210 252
#     4  10  20  33  45  59  81 109 138 173 216 259
#
# _framework density 13.358157
#
# number of rings (size 3 to 8) (size 9 to 14) (size 15 to 20)
#    0.000    2.077    2.308    2.077    0.000    6.769 
#    0.000    0.000    0.000    0.000    0.000    0.000 
#    0.000    0.000    0.000    0.000    0.000    0.769 
#
# Total GULP energy -289663.137241 kJ/mol
# GULP energy per Si atom -5570.444947 kJ/mol
# Density = 1.332775 g / cm^3
# Si number density = 13.358157 Si / 1000 Ang^3
#
#
#
# Elastic Constant Matrix: (Units=GPa)
#
#
# Indices 1 2 3 4 5 6 
#
# 1 44.7761 37.4047 47.0068 0.0000 0.0000 0.0000
# 2 37.4047 61.1732 52.7711 0.0000 0.0000 0.0000
# 3 47.0068 52.7711 105.0625 0.0000 0.0000 0.0000
# 4 0.0000 0.0000 0.0000 15.7997 0.0000 0.0000
# 5 0.0000 0.0000 0.0000 0.0000 25.0773 0.0000
# 6 0.0000 0.0000 0.0000 0.0000 0.0000 24.6354
#
#
#
# Elastic Compliance Matrix: (Units=1/GPa)
#
#
# Indices 1 2 3 4 5 6 
#
# 1 0.054777 -0.021796 -0.013561 0.000000 0.000000 0.000000
# 2 -0.021796 0.037518 -0.009093 0.000000 0.000000 0.000000
# 3 -0.013561 -0.009093 0.020153 0.000000 0.000000 0.000000
# 4 0.000000 0.000000 0.000000 0.063293 0.000000 0.000000
# 5 0.000000 0.000000 0.000000 0.000000 0.039877 0.000000
# 6 0.000000 0.000000 0.000000 0.000000 0.000000 0.040592
#
#
# Mechanical properties :
#
#
# Convention : Reuss Voigt Hill
#
# Bulk Modulus (GPa) = 42.46400 53.93077 48.19739
# Shear Modulus (GPa) = 14.16600 18.02442 16.09521
#
# Velocity S-wave (km/s) = 3.26003 3.67729 3.47493
# Velocity P-wave (km/s) = 6.78441 7.64791 7.22906
#
# Compressibility (1/GPa) = 0.02354936
#
# Stress axis : x y z
#
# Youngs Moduli (GPa) = 18.25576 26.65371 49.62117
#
# Poissons Ratio (x) = 0.58094 0.67290
# Poissons Ratio (y) = 0.39790 0.45120
# Poissons Ratio (z) = 0.24756 0.24236
#
# Static dielectric constant tensor:
#      x y z
#    x 1.424400 0.000000 0.000000 
#    y 0.000000 1.444680 0.000000 
#    z 0.000000 0.000000 1.472180 
# 
# From -- ./inp_files/15063.got.cif
#   From: 2010.05.17/outbox.cif.g08.bks.cpg/sg65_8_cif.got.tgz:15063.got - 2010.06.03 17:01:31.
