data_PCOD9483023
_publ_section_title
;
Structure prediction by ZEFSAII (Michael W. Deem and Ramdas Pophale) SiO2 
 PCOD9483023
Probable space group: C M M M
;
_chemical_formula_sum "Si O2"
_cell_formula_units_Z 96
_cell_length_a 18.448231
_cell_length_b 18.691362
_cell_length_c 16.981651
_cell_angle_alpha 90.000000
_cell_angle_beta 90.000000
_cell_angle_gamma 90.000000
_cell_volume 5855.656437
_symmetry_space_group_name_H-M "C M M M"
_symmetry_group_IT_number 65
_symmetry_cell_setting 'orthorhombic'
loop_
_space_group_symop_operation_xyz
x,y,z
-x,-y,z
x,-y,-z
-x,y,-z
-x,-y,-z
x,y,-z
-x,y,z
x,-y,z
1/2+x,1/2+y,z
1/2-x,1/2-y,z
1/2+x,1/2-y,-z
1/2-x,1/2+y,-z
1/2-x,1/2-y,-z
1/2+x,1/2+y,-z
1/2-x,1/2+y,z
1/2+x,1/2-y,z
loop_
_atom_site_type_symbol
_atom_site_label
_atom_site_fract_x
_atom_site_fract_y
_atom_site_fract_z
Si Si1 0.693952 0.683456 0.635927
Si Si2 0.185083 0.586430 0.172105
Si Si3 0.688184 0.310523 0.818694
Si Si4 0.414973 0.206136 0.905804
Si Si5 0.080745 0.198157 0.500000
Si Si6 0.420035 0.868372 0.500000
Si Si7 0.177674 0.415878 0.355829
O O1 0.750000 0.750000 0.622301
O O2 0.668851 0.685931 0.726419
O O3 0.627947 0.681360 0.576619
O O4 0.744212 0.615098 0.623228
O O5 0.180664 0.500000 0.160164
O O6 0.267143 0.617322 0.158989
O O7 0.129711 0.635595 0.122393
O O8 0.165951 0.603710 0.263987
O O9 0.750000 0.250000 0.825800
O O10 0.622446 0.277085 0.868348
O O11 0.500000 0.200797 0.883931
O O12 0.409643 0.210647 0.000000
O O13 0.074570 0.283520 0.500000
O O14 0.000000 0.166929 0.500000
O O15 0.500000 0.901102 0.500000
O O16 0.378413 0.888385 0.579712
O O17 0.177171 0.500000 0.359710
#
# Coordination Sequence:
#
# PCOD9483023 Si02
#       7
#    16  16  16  16   8   8  16
#     4  10  17  33  52  69  93 128 166 208 246 289
#     4   9  19  35  54  78 104 130 166 211 255 296
#     4   8  17  32  53  75  95 128 172 212 246 289
#     4  10  21  35  52  76 106 137 166 198 243 303
#     4  11  22  30  45  73 101 127 163 210 251 286
#     4  11  22  32  44  70 105 138 169 201 240 292
#     4  10  20  34  52  73  97 131 168 205 247 290
#
# _framework density 16.394404999999999
#
# number of rings (size 3 to 8) (size 9 to 14) (size 15 to 20)
#    0.000    2.333    1.667    2.000    0.000    5.667 
#    0.000    2.500    0.000    1.500    0.000    5.833 
#    0.000    0.000    0.000    0.000    0.000    0.000 
#
# Total GULP energy -267277.360801 kJ/mol
# GULP energy per Si atom -5568.278350 kJ/mol
# Density = 1.635709 g / cm^3
# Si number density = 16.394405 Si / 1000 Ang^3
#
#
#
# Elastic Constant Matrix: (Units=GPa)
#
#
# Indices 1 2 3 4 5 6 
#
# 1 121.4758 36.0527 77.2331 0.0000 0.0000 0.0000
# 2 36.0527 31.8494 32.3392 0.0000 0.0000 0.0000
# 3 77.2331 32.3392 78.7250 0.0000 0.0000 0.0000
# 4 0.0000 0.0000 0.0000 3.2937 0.0000 0.0000
# 5 0.0000 0.0000 0.0000 0.0000 153.2573 0.0000
# 6 0.0000 0.0000 0.0000 0.0000 0.0000 14.3874
#
#
#
# Elastic Compliance Matrix: (Units=1/GPa)
#
#
# Indices 1 2 3 4 5 6 
#
# 1 0.022372 -0.005214 -0.019807 0.000000 0.000000 0.000000
# 2 -0.005214 0.055080 -0.017511 0.000000 0.000000 0.000000
# 3 -0.019807 -0.017511 0.039327 0.000000 0.000000 0.000000
# 4 0.000000 0.000000 0.000000 0.303612 0.000000 0.000000
# 5 0.000000 0.000000 0.000000 0.000000 0.006525 0.000000
# 6 0.000000 0.000000 0.000000 0.000000 0.000000 0.069505
#
#
# Mechanical properties :
#
#
# Convention : Reuss Voigt Hill
#
# Bulk Modulus (GPa) = 31.52955 58.14447 44.83701
# Shear Modulus (GPa) = 8.44512 39.94935 24.19723
#
# Velocity S-wave (km/s) = 2.27209 4.94172 3.84597
# Velocity P-wave (km/s) = 5.11438 8.25250 6.86515
#
# Compressibility (1/GPa) = 0.03171628
#
# Stress axis : x y z
#
# Youngs Moduli (GPa) = 44.69811 18.15540 25.42771
#
# Poissons Ratio (x) = 0.09466 0.50364
# Poissons Ratio (y) = 0.23304 0.44527
# Poissons Ratio (z) = 0.88532 0.31793
#
# Static dielectric constant tensor:
#      x y z
#    x 1.556640 0.000000 0.000000 
#    y 0.000000 1.562670 0.000000 
#    z 0.000000 0.000000 1.591080 
# 
# From -- ./inp_files/54543.got.cif
#   From: 2010.05.17/outbox.cif.g08.bks.cpg/sg65_28_cif.got.tgz:54543.got - 2010.06.03 17:01:31.
