data_PCOD9483664
_publ_section_title
;
Structure prediction by ZEFSAII (Michael W. Deem and Ramdas Pophale) SiO2 
 PCOD9483664
Probable space group: C M M M
;
_chemical_formula_sum "Si O2"
_cell_formula_units_Z 128
_cell_length_a 21.858972
_cell_length_b 27.504284
_cell_length_c 14.282529
_cell_angle_alpha 90.000000
_cell_angle_beta 90.000000
_cell_angle_gamma 90.000000
_cell_volume 8586.876012
_symmetry_space_group_name_H-M "C M M M"
_symmetry_group_IT_number 65
_symmetry_cell_setting 'orthorhombic'
loop_
_space_group_symop_operation_xyz
x,y,z
-x,-y,z
x,-y,-z
-x,y,-z
-x,-y,-z
x,y,-z
-x,y,z
x,-y,z
1/2+x,1/2+y,z
1/2-x,1/2-y,z
1/2+x,1/2-y,-z
1/2-x,1/2+y,-z
1/2-x,1/2-y,-z
1/2+x,1/2+y,-z
1/2-x,1/2+y,z
1/2+x,1/2-y,z
loop_
_atom_site_type_symbol
_atom_site_label
_atom_site_fract_x
_atom_site_fract_y
_atom_site_fract_z
Si Si1 0.068570 0.612574 0.390178
Si Si2 0.306779 0.057298 0.389270
Si Si3 0.185946 0.220076 0.606434
Si Si4 0.749669 0.642179 0.270415
Si Si5 0.570026 0.554179 0.886254
Si Si6 0.928196 0.761723 0.890162
Si Si7 0.622720 0.800383 0.274671
Si Si8 0.654987 0.642781 0.888598
O O1 0.072736 0.626326 0.500000
O O2 0.122620 0.573815 0.374147
O O3 0.081939 0.660057 0.328378
O O4 0.000000 0.594025 0.372619
O O5 0.293224 0.066895 0.500000
O O6 0.267318 0.091932 0.321642
O O7 0.299004 0.000000 0.372210
O O8 0.167280 0.210385 0.500000
O O9 0.250000 0.250000 0.603443
O O10 0.203233 0.171895 0.662925
O O11 0.137751 0.253973 0.659997
O O12 0.812061 0.673071 0.259626
O O13 0.716472 0.640096 0.170968
O O14 0.500000 0.562069 0.856252
O O15 0.589345 0.500000 0.856949
O O16 0.613768 0.597287 0.857033
O O17 0.569453 0.554650 0.000000
O O18 0.907110 0.719438 0.820184
O O19 0.884355 0.808175 0.873138
O O20 0.000000 0.773828 0.874798
O O21 0.921719 0.748552 0.000000
O O22 0.666251 0.639426 0.000000
#
# Coordination Sequence:
#
# PCOD9483664 Si02
#       8
#    16  16  16  16  16  16  16  16
#     4   9  17  29  47  71  96 121 151 190 235 279
#     4   9  18  32  49  69  94 122 152 190 233 279
#     4   9  16  27  44  64  86 115 149 182 219 265
#     4  10  19  30  45  67  92 121 153 186 225 272
#     4   8  14  26  44  63  82 106 139 181 226 268
#     4  10  20  32  46  64  89 123 159 195 234 275
#     4  10  18  30  45  65  92 122 154 187 226 269
#     4  10  19  30  44  65  92 121 152 187 230 277
#
# _framework density 14.906469
#
# number of rings (size 3 to 8) (size 9 to 14) (size 15 to 20)
#    0.000    2.625    1.250    1.875    0.000    5.750 
#    0.000    2.500    0.000    0.000    0.000    0.000 
#    0.000    0.000    0.000   19.250    0.000    0.750 
#
# Total GULP energy -356391.715855 kJ/mol
# GULP energy per Si atom -5568.620560 kJ/mol
# Density = 1.487254 g / cm^3
# Si number density = 14.906469 Si / 1000 Ang^3
#
#
#
# Elastic Constant Matrix: (Units=GPa)
#
#
# Indices 1 2 3 4 5 6 
#
# 1 47.3311 26.4490 31.1550 0.0000 0.0000 0.0000
# 2 26.4490 77.7887 37.5964 0.0000 0.0000 0.0000
# 3 31.1550 37.5964 64.5359 0.0000 0.0000 0.0000
# 4 0.0000 0.0000 0.0000 17.3948 0.0000 0.0000
# 5 0.0000 0.0000 0.0000 0.0000 19.9881 0.0000
# 6 0.0000 0.0000 0.0000 0.0000 0.0000 11.6403
#
#
#
# Elastic Compliance Matrix: (Units=1/GPa)
#
#
# Indices 1 2 3 4 5 6 
#
# 1 0.032197 -0.004781 -0.012758 0.000000 0.000000 0.000000
# 2 -0.004781 0.018603 -0.008530 0.000000 0.000000 0.000000
# 3 -0.012758 -0.008530 0.026623 0.000000 0.000000 0.000000
# 4 0.000000 0.000000 0.000000 0.057488 0.000000 0.000000
# 5 0.000000 0.000000 0.000000 0.000000 0.050030 0.000000
# 6 0.000000 0.000000 0.000000 0.000000 0.000000 0.085909
#
#
# Mechanical properties :
#
#
# Convention : Reuss Voigt Hill
#
# Bulk Modulus (GPa) = 39.54698 42.22849 40.88773
# Shear Modulus (GPa) = 15.08672 16.10166 15.59419
#
# Velocity S-wave (km/s) = 3.18479 3.29017 3.23791
# Velocity P-wave (km/s) = 6.33337 6.54401 6.43955
#
# Compressibility (1/GPa) = 0.02528638
#
# Stress axis : x y z
#
# Youngs Moduli (GPa) = 31.05851 53.75340 37.56117
#
# Poissons Ratio (x) = 0.25701 0.47920
# Poissons Ratio (y) = 0.14850 0.32038
# Poissons Ratio (z) = 0.39624 0.45849
#
# Static dielectric constant tensor:
#      x y z
#    x 1.493580 0.000000 0.000000 
#    y 0.000000 1.487440 0.000000 
#    z 0.000000 0.000000 1.485630 
# 
# From -- ./inp_files/31472.got.cif
#   From: 2010.05.17/outbox.cif.g08.bks.cpg/sg65_16_cif.got.tgz:31472.got - 2010.06.03 17:01:31.
