data_PCOD9483989
_publ_section_title
;
Structure prediction by ZEFSAII (Michael W. Deem and Ramdas Pophale) SiO2 
 PCOD9483989
Probable space group: C M M M
;
_chemical_formula_sum "Si O2"
_cell_formula_units_Z 80
_cell_length_a 26.790055
_cell_length_b 19.945580
_cell_length_c 8.615785
_cell_angle_alpha 90.000000
_cell_angle_beta 90.000000
_cell_angle_gamma 90.000000
_cell_volume 4603.786000
_symmetry_space_group_name_H-M "C M M M"
_symmetry_group_IT_number 65
_symmetry_cell_setting 'orthorhombic'
loop_
_space_group_symop_operation_xyz
x,y,z
-x,-y,z
x,-y,-z
-x,y,-z
-x,-y,-z
x,y,-z
-x,y,z
x,-y,z
1/2+x,1/2+y,z
1/2-x,1/2-y,z
1/2+x,1/2-y,-z
1/2-x,1/2+y,-z
1/2-x,1/2-y,-z
1/2+x,1/2+y,-z
1/2-x,1/2+y,z
1/2+x,1/2-y,z
loop_
_atom_site_type_symbol
_atom_site_label
_atom_site_fract_x
_atom_site_fract_y
_atom_site_fract_z
Si Si1 0.000000 0.837788 0.678643
Si Si2 0.608136 0.671559 0.313431
Si Si3 0.191936 0.576801 0.810822
Si Si4 0.500000 0.174676 0.321657
Si Si5 0.305167 0.421427 0.186745
Si Si6 0.606173 0.178389 0.186062
O O1 0.054092 0.855659 0.746654
O O2 0.000000 0.756344 0.678746
O O3 0.000000 0.861448 0.500000
O O4 0.605074 0.674970 0.500000
O O5 0.653285 0.624819 0.262503
O O6 0.614683 0.746906 0.250777
O O7 0.182481 0.500000 0.761624
O O8 0.248385 0.595851 0.764621
O O9 0.149541 0.628165 0.759277
O O10 0.191611 0.576652 0.000000
O O11 0.500000 0.152936 0.500000
O O12 0.551408 0.154601 0.240041
O O13 0.313016 0.500000 0.223143
O O14 0.307931 0.414275 0.000000
O O15 0.607030 0.181379 0.000000
#
# Coordination Sequence:
#
# PCOD9483989 Si02
#       6
#     8  16  16   8  16  16
#     4   7  14  29  46  63  88 126 159 185 226 279
#     4  10  19  32  50  72 100 130 161 200 247 297
#     4   8  16  32  52  72  96 128 165 206 250 291
#     4   9  17  31  48  69 102 134 157 192 248 298
#     4   9  18  34  53  71  95 128 165 206 250 293
#     4  10  18  30  52  77  97 124 167 208 240 285
#
# _framework density 17.377001
#
# number of rings (size 3 to 8) (size 9 to 14) (size 15 to 20)
#    0.000    3.000    0.000    3.900    0.000    1.200 
#    0.000    8.500    0.000   10.800    0.000    0.000 
#    0.000    0.000    0.000    0.000    0.000    0.000 
#
# Total GULP energy -222794.794705 kJ/mol
# GULP energy per Si atom -5569.869868 kJ/mol
# Density = 1.733745 g / cm^3
# Si number density = 17.377001 Si / 1000 Ang^3
#
#
#
# Elastic Constant Matrix: (Units=GPa)
#
#
# Indices 1 2 3 4 5 6 
#
# 1 202.5091 97.9125 43.1358 0.0000 0.0000 0.0000
# 2 97.9125 67.7272 29.7279 0.0000 0.0000 0.0000
# 3 43.1358 29.7279 36.8554 0.0000 0.0000 0.0000
# 4 0.0000 0.0000 0.0000 -4.4228 0.0000 0.0000
# 5 0.0000 0.0000 0.0000 0.0000 11.5805 0.0000
# 6 0.0000 0.0000 0.0000 0.0000 0.0000 -28.5721
#
#
#
# Elastic Compliance Matrix: (Units=1/GPa)
#
#
# Indices 1 2 3 4 5 6 
#
# 1 0.016405 -0.023669 -0.000109 0.000000 0.000000 0.000000
# 2 -0.023669 0.057006 -0.018280 0.000000 0.000000 0.000000
# 3 -0.000109 -0.018280 0.042006 0.000000 0.000000 0.000000
# 4 0.000000 0.000000 0.000000 -0.226104 0.000000 0.000000
# 5 0.000000 0.000000 0.000000 0.000000 0.086352 0.000000
# 6 0.000000 0.000000 0.000000 0.000000 0.000000 -0.034999
#
#
# Mechanical properties :
#
#
# Convention : Reuss Voigt Hill
#
# Bulk Modulus (GPa) = 31.94736 72.07157 52.00947
# Shear Modulus (GPa) = 141.98453 4.80484 73.39468
#
# Velocity S-wave (km/s) = 9.04907 1.66465 6.50603
# Velocity P-wave (km/s) = 11.29627 6.72756 9.29693
#
# Compressibility (1/GPa) = 0.03130149
#
# Stress axis : x y z
#
# Youngs Moduli (GPa) = 60.95710 17.54196 23.80630
#
# Poissons Ratio (x) = 0.41519 0.00260
# Poissons Ratio (y) = 1.44277 0.43518
# Poissons Ratio (z) = 0.00666 0.32067
#
# Static dielectric constant tensor:
#      x y z
#    x 1.616540 0.000000 0.000000 
#    y 0.000000 1.560400 0.000000 
#    z 0.000000 0.000000 1.597210 
# 
# From -- ./inp_files/13854.got.cif
#   From: 2010.05.17/outbox.cif.g08.bks.cpg/sg65_7_cif.got.tgz:13854.got - 2010.06.03 17:01:31.
