data_PCOD9483316
_publ_section_title
;
Structure prediction by ZEFSAII (Michael W. Deem and Ramdas Pophale) SiO2 
 PCOD9483316
Probable space group: C M M M
;
_chemical_formula_sum "Si O2"
_cell_formula_units_Z 80
_cell_length_a 7.633148
_cell_length_b 27.041660
_cell_length_c 19.931457
_cell_angle_alpha 90.000000
_cell_angle_beta 90.000000
_cell_angle_gamma 90.000000
_cell_volume 4114.111693
_symmetry_space_group_name_H-M "C M M M"
_symmetry_group_IT_number 65
_symmetry_cell_setting 'orthorhombic'
loop_
_space_group_symop_operation_xyz
x,y,z
-x,-y,z
x,-y,-z
-x,y,-z
-x,-y,-z
x,y,-z
-x,y,z
x,-y,z
1/2+x,1/2+y,z
1/2-x,1/2-y,z
1/2+x,1/2-y,-z
1/2-x,1/2+y,-z
1/2-x,1/2-y,-z
1/2+x,1/2+y,-z
1/2-x,1/2+y,z
1/2+x,1/2-y,z
loop_
_atom_site_type_symbol
_atom_site_label
_atom_site_fract_x
_atom_site_fract_y
_atom_site_fract_z
Si Si1 0.789793 0.805681 0.076328
Si Si2 0.210832 0.107337 0.327555
Si Si3 0.789462 0.805570 0.576559
Si Si4 0.801972 0.000000 0.162129
Si Si5 0.715553 0.392838 0.172814
Si Si6 0.202582 0.500000 0.686137
O O1 0.750000 0.750000 0.099227
O O2 0.725858 0.847865 0.126466
O O3 0.000000 0.810408 0.073641
O O4 0.722433 0.811081 0.000000
O O5 0.276825 0.150970 0.375326
O O6 0.270951 0.113016 0.250309
O O7 0.000000 0.110197 0.326507
O O8 0.258201 0.051667 0.349988
O O9 0.722779 0.809920 0.500000
O O10 0.750000 0.750000 0.600756
O O11 0.000000 0.810036 0.573971
O O12 0.723367 0.946520 0.146124
O O13 0.808019 0.000000 0.243807
O O14 0.000000 0.000000 0.135207
O O15 0.500000 0.394119 0.172995
O O16 0.000000 0.500000 0.705397
#
# Coordination Sequence:
#
# PCOD9483316 Si02
#       6
#    16  16  16   8  16   8
#     4   9  17  29  43  60  85 115 145 177 213 254
#     4   9  17  31  49  66  89 121 151 179 217 268
#     4   9  18  32  49  68  90 118 150 183 222 266
#     4   8  14  28  47  63  85 116 143 171 218 272
#     4   8  14  26  45  65  83 109 144 177 210 252
#     4  10  18  28  45  70  95 116 145 186 226 260
#
# _framework density 19.445267000000001
#
# number of rings (size 3 to 8) (size 9 to 14) (size 15 to 20)
#    0.000    3.200    0.000    2.100    0.000    1.600 
#    0.000    5.000    0.000    6.000    0.000    0.000 
#    0.000   16.000    0.000    0.000    0.000    0.000 
#
# Total GULP energy -222853.703409 kJ/mol
# GULP energy per Si atom -5571.342585 kJ/mol
# Density = 1.940101 g / cm^3
# Si number density = 19.445267 Si / 1000 Ang^3
#
#
#
# Elastic Constant Matrix: (Units=GPa)
#
#
# Indices 1 2 3 4 5 6 
#
# 1 43.6153 0.1582 4.7611 0.0000 0.0000 0.0000
# 2 0.1582 241.3892 102.4412 0.0000 0.0000 0.0000
# 3 4.7611 102.4412 66.2781 0.0000 0.0000 0.0000
# 4 0.0000 0.0000 0.0000 -31.7968 0.0000 0.0000
# 5 0.0000 0.0000 0.0000 0.0000 3.1132 0.0000
# 6 0.0000 0.0000 0.0000 0.0000 0.0000 19.9960
#
#
#
# Elastic Compliance Matrix: (Units=1/GPa)
#
#
# Indices 1 2 3 4 5 6 
#
# 1 0.023447 0.002033 -0.004826 0.000000 0.000000 0.000000
# 2 0.002033 0.012217 -0.019028 0.000000 0.000000 0.000000
# 3 -0.004826 -0.019028 0.044846 0.000000 0.000000 0.000000
# 4 0.000000 0.000000 0.000000 -0.031450 0.000000 0.000000
# 5 0.000000 0.000000 0.000000 0.000000 0.321214 0.000000
# 6 0.000000 0.000000 0.000000 0.000000 0.000000 0.050010
#
#
# Mechanical properties :
#
#
# Convention : Reuss Voigt Hill
#
# Bulk Modulus (GPa) = 27.12564 62.88927 45.00746
# Shear Modulus (GPa) = 10.49943 14.52396 12.51169
#
# Velocity S-wave (km/s) = 2.32620 2.73594 2.53935
# Velocity P-wave (km/s) = 4.60380 6.51094 5.63859
#
# Compressibility (1/GPa) = 0.03686548
#
# Stress axis : x y z
#
# Youngs Moduli (GPa) = 42.64896 81.85523 22.29877
#
# Poissons Ratio (x) = -0.16640 0.10762
# Poissons Ratio (y) = -0.08670 0.42431
# Poissons Ratio (z) = 0.20584 1.55758
#
# Static dielectric constant tensor:
#      x y z
#    x 1.758760 0.000000 0.000000 
#    y 0.000000 1.698300 0.000000 
#    z 0.000000 0.000000 1.658900 
# 
# From -- ./inp_files/49945.got.cif
#   From: 2010.05.17/outbox.cif.g08.bks.cpg/sg65_25_cif.got.tgz:49945.got - 2010.06.03 17:01:31.
