data_PCOD9483944
_publ_section_title
;
Structure prediction by ZEFSAII (Michael W. Deem and Ramdas Pophale) SiO2 
 PCOD9483944
Probable space group: C M M M
;
_chemical_formula_sum "Si O2"
_cell_formula_units_Z 116
_cell_length_a 28.471756
_cell_length_b 29.096176
_cell_length_c 7.390096
_cell_angle_alpha 90.000000
_cell_angle_beta 90.000000
_cell_angle_gamma 90.000000
_cell_volume 6122.097591
_symmetry_space_group_name_H-M "C M M M"
_symmetry_group_IT_number 65
_symmetry_cell_setting 'orthorhombic'
loop_
_space_group_symop_operation_xyz
x,y,z
-x,-y,z
x,-y,-z
-x,y,-z
-x,-y,-z
x,y,-z
-x,y,z
x,-y,z
1/2+x,1/2+y,z
1/2-x,1/2-y,z
1/2+x,1/2-y,-z
1/2-x,1/2+y,-z
1/2-x,1/2-y,-z
1/2+x,1/2+y,-z
1/2-x,1/2+y,z
1/2+x,1/2-y,z
loop_
_atom_site_type_symbol
_atom_site_label
_atom_site_fract_x
_atom_site_fract_y
_atom_site_fract_z
Si Si1 0.855020 0.145430 0.785409
Si Si2 0.805815 0.449383 0.788992
Si Si3 0.671256 0.147250 0.219976
Si Si4 0.553242 0.305441 0.780764
Si Si5 0.923010 0.699327 0.218224
Si Si6 0.000000 0.331618 0.500000
Si Si7 0.263944 0.301132 0.778826
Si Si8 0.303503 0.448600 0.284355
O O1 0.906257 0.159894 0.715751
O O2 0.813552 0.178699 0.715375
O O3 0.837987 0.093100 0.762041
O O4 0.856906 0.153622 0.000000
O O5 0.813555 0.500000 0.708330
O O6 0.832551 0.405151 0.713893
O O7 0.749674 0.440031 0.782184
O O8 0.818508 0.452264 0.000000
O O9 0.628920 0.181198 0.263855
O O10 0.721359 0.166485 0.279263
O O11 0.672711 0.145799 0.000000
O O12 0.500000 0.312994 0.714566
O O13 0.568947 0.253230 0.739426
O O14 0.551132 0.308443 0.000000
O O15 0.959396 0.671942 0.340561
O O16 0.930164 0.693929 0.000000
O O17 0.250000 0.250000 0.722996
O O18 0.265343 0.301154 0.000000
O O19 0.300611 0.449887 0.500000
O O20 0.317505 0.500000 0.221047
#
# Coordination Sequence:
#
# PCOD9483944 Si02
#       8
#    16  16  16  16  16   4  16  16
#     4  10  18  30  51  75  97 132 175 211 255 310
#     4   9  16  29  51  76 101 131 173 216 252 309
#     4   9  16  28  47  73 105 138 166 204 264 315
#     4   9  17  32  53  75 102 133 169 217 266 306
#     4  10  20  36  55  77 109 141 175 225 270 310
#     4  12  22  36  56  82 103 138 191 226 256 320
#     4   9  15  24  42  71 103 134 168 198 239 313
#     4  10  20  33  47  68 101 138 171 211 265 317
#
# _framework density 18.947754
#
# number of rings (size 3 to 8) (size 9 to 14) (size 15 to 20)
#    0.000    2.483    2.069    1.448    0.000    4.138 
#    2.483    0.000    0.000    0.828    0.000    3.862 
#    0.000    3.310    0.000    0.000    0.000    0.000 
#
# Total GULP energy -322947.369212 kJ/mol
# GULP energy per Si atom -5568.058090 kJ/mol
# Density = 1.890463 g / cm^3
# Si number density = 18.947754 Si / 1000 Ang^3
#
#
#
# Elastic Constant Matrix: (Units=GPa)
#
#
# Indices 1 2 3 4 5 6 
#
# 1 100.1749 49.0718 6.4442 0.0000 0.0000 0.0000
# 2 49.0718 101.1414 -2.3875 0.0000 0.0000 0.0000
# 3 6.4442 -2.3875 71.6444 0.0000 0.0000 0.0000
# 4 0.0000 0.0000 0.0000 47.6505 0.0000 0.0000
# 5 0.0000 0.0000 0.0000 0.0000 -44.3874 0.0000
# 6 0.0000 0.0000 0.0000 0.0000 0.0000 8.7131
#
#
#
# Elastic Compliance Matrix: (Units=1/GPa)
#
#
# Indices 1 2 3 4 5 6 
#
# 1 0.013235 -0.006454 -0.001406 0.000000 0.000000 0.000000
# 2 -0.006454 0.013043 0.001015 0.000000 0.000000 0.000000
# 3 -0.001406 0.001015 0.014118 0.000000 0.000000 0.000000
# 4 0.000000 0.000000 0.000000 0.020986 0.000000 0.000000
# 5 0.000000 0.000000 0.000000 0.000000 -0.022529 0.000000
# 6 0.000000 0.000000 0.000000 0.000000 0.000000 0.114769
#
#
# Mechanical properties :
#
#
# Convention : Reuss Voigt Hill
#
# Bulk Modulus (GPa) = 37.44475 42.13530 39.79003
# Shear Modulus (GPa) = 28.37466 17.05073 22.71269
#
# Velocity S-wave (km/s) = 3.87398 3.00306 3.46598
# Velocity P-wave (km/s) = 6.30994 5.85750 6.08792
#
# Compressibility (1/GPa) = 0.02670601
#
# Stress axis : x y z
#
# Youngs Moduli (GPa) = 75.55891 76.67156 70.83113
#
# Poissons Ratio (x) = 0.49487 0.09955
# Poissons Ratio (y) = 0.48769 -0.07191
# Poissons Ratio (z) = 0.10620 -0.07784
#
# Static dielectric constant tensor:
#      x y z
#    x 1.651790 0.000000 0.000000 
#    y 0.000000 1.691600 0.000000 
#    z 0.000000 0.000000 1.733000 
# 
# From -- ./inp_files/17343.got.cif
#   From: 2010.05.17/outbox.cif.g08.bks.cpg/sg65_9_cif.got.tgz:17343.got - 2010.06.03 17:01:31.
