data_PCOD9483044
_publ_section_title
;
Structure prediction by ZEFSAII (Michael W. Deem and Ramdas Pophale) SiO2 
 PCOD9483044
Probable space group: C M M M
;
_chemical_formula_sum "Si O2"
_cell_formula_units_Z 76
_cell_length_a 29.716833
_cell_length_b 11.749350
_cell_length_c 10.797908
_cell_angle_alpha 90.000000
_cell_angle_beta 90.000000
_cell_angle_gamma 90.000000
_cell_volume 3770.127066
_symmetry_space_group_name_H-M "C M M M"
_symmetry_group_IT_number 65
_symmetry_cell_setting 'orthorhombic'
loop_
_space_group_symop_operation_xyz
x,y,z
-x,-y,z
x,-y,-z
-x,y,-z
-x,-y,-z
x,y,-z
-x,y,z
x,-y,z
1/2+x,1/2+y,z
1/2-x,1/2-y,z
1/2+x,1/2-y,-z
1/2-x,1/2+y,-z
1/2-x,1/2-y,-z
1/2+x,1/2+y,-z
1/2-x,1/2+y,z
1/2+x,1/2-y,z
loop_
_atom_site_type_symbol
_atom_site_label
_atom_site_fract_x
_atom_site_fract_y
_atom_site_fract_z
Si Si1 0.360838 0.864983 0.769954
Si Si2 0.938326 0.000000 0.638653
Si Si3 0.798389 0.784472 0.642039
Si Si4 0.653268 0.500000 0.736974
Si Si5 0.805489 0.750874 0.000000
Si Si6 0.948972 0.742258 0.349580
Si Si7 0.653804 0.500000 0.000000
O O1 0.331099 0.822617 0.654217
O O2 0.410557 0.817031 0.734315
O O3 0.362527 0.000000 0.785830
O O4 0.332205 0.808748 0.883878
O O5 0.950142 0.124191 0.689568
O O6 0.955566 0.000000 0.500000
O O7 0.884677 0.000000 0.635467
O O8 0.794198 0.821028 0.500000
O O9 0.750000 0.750000 0.690221
O O10 0.817587 0.888828 0.718814
O O11 0.628654 0.500000 0.869576
O O12 0.750000 0.750000 0.000000
O O13 0.817469 0.884736 0.000000
O O14 0.938542 0.737415 0.500000
O O15 0.000000 0.696565 0.334704
#
# Coordination Sequence:
#
# PCOD9483044 Si02
#       7
#    16   8  16   8   8  16   4
#     4  12  26  43  64  92 132 174 224 275 326 397
#     4  10  17  34  64  96 132 169 217 280 342 396
#     4  11  24  39  60  90 127 169 212 268 335 400
#     4  12  22  39  62  93 129 167 218 281 331 393
#     4  12  27  46  70  98 129 172 226 282 334 394
#     4  10  21  39  66 100 136 176 223 280 347 411
#     4  12  24  38  70  90 121 172 217 264 330 380
#
# _framework density 20.158472
#
# number of rings (size 3 to 8) (size 9 to 14) (size 15 to 20)
#    0.000    0.842    4.211    2.842    2.947    3.368 
#    0.000    1.579    0.000    1.263    0.000    4.421 
#    0.000    0.000    0.000    0.000    0.000    0.000 
#
# Total GULP energy -211664.851384 kJ/mol
# GULP energy per Si atom -5570.127668 kJ/mol
# Density = 2.011259 g / cm^3
# Si number density = 20.158472 Si / 1000 Ang^3
#
#
#
# Elastic Constant Matrix: (Units=GPa)
#
#
# Indices 1 2 3 4 5 6 
#
# 1 172.9724 65.9947 47.1640 0.0000 0.0000 0.0000
# 2 65.9947 160.5640 34.4854 0.0000 0.0000 0.0000
# 3 47.1640 34.4854 100.0266 0.0000 0.0000 0.0000
# 4 0.0000 0.0000 0.0000 24.3521 0.0000 0.0000
# 5 0.0000 0.0000 0.0000 0.0000 19.2852 0.0000
# 6 0.0000 0.0000 0.0000 0.0000 0.0000 12.1166
#
#
#
# Elastic Compliance Matrix: (Units=1/GPa)
#
#
# Indices 1 2 3 4 5 6 
#
# 1 0.007457 -0.002495 -0.002656 0.000000 0.000000 0.000000
# 2 -0.002495 0.007561 -0.001430 0.000000 0.000000 0.000000
# 3 -0.002656 -0.001430 0.011743 0.000000 0.000000 0.000000
# 4 0.000000 0.000000 0.000000 0.041064 0.000000 0.000000
# 5 0.000000 0.000000 0.000000 0.000000 0.051853 0.000000
# 6 0.000000 0.000000 0.000000 0.000000 0.000000 0.082531
#
#
# Mechanical properties :
#
#
# Convention : Reuss Voigt Hill
#
# Bulk Modulus (GPa) = 73.53753 80.98346 77.26050
# Shear Modulus (GPa) = 22.73715 30.21206 26.47460
#
# Velocity S-wave (km/s) = 3.36210 3.87554 3.62791
# Velocity P-wave (km/s) = 7.18544 7.76447 7.48056
#
# Compressibility (1/GPa) = 0.01359850
#
# Stress axis : x y z
#
# Youngs Moduli (GPa) = 134.09689 132.26502 85.15780
#
# Poissons Ratio (x) = 0.32995 0.22619
# Poissons Ratio (y) = 0.33452 0.12181
# Poissons Ratio (z) = 0.35619 0.18919
#
# Static dielectric constant tensor:
#      x y z
#    x 1.725400 0.000000 0.000000 
#    y 0.000000 1.730100 0.000000 
#    z 0.000000 0.000000 1.794280 
# 
# From -- ./inp_files/33597.got.cif
#   From: 2010.05.17/outbox.cif.g08.bks.cpg/sg65_17_cif.got.tgz:33597.got - 2010.06.03 17:01:31.
