data_PCOD9483165
_publ_section_title
;
Structure prediction by ZEFSAII (Michael W. Deem and Ramdas Pophale) SiO2 
 PCOD9483165
Probable space group: C M M M
;
_chemical_formula_sum "Si O2"
_cell_formula_units_Z 112
_cell_length_a 23.186288
_cell_length_b 30.706032
_cell_length_c 7.376186
_cell_angle_alpha 90.000000
_cell_angle_beta 90.000000
_cell_angle_gamma 90.000000
_cell_volume 5251.541280
_symmetry_space_group_name_H-M "C M M M"
_symmetry_group_IT_number 65
_symmetry_cell_setting 'orthorhombic'
loop_
_space_group_symop_operation_xyz
x,y,z
-x,-y,z
x,-y,-z
-x,y,-z
-x,-y,-z
x,y,-z
-x,y,z
x,-y,z
1/2+x,1/2+y,z
1/2-x,1/2-y,z
1/2+x,1/2-y,-z
1/2-x,1/2+y,-z
1/2-x,1/2-y,-z
1/2+x,1/2+y,-z
1/2-x,1/2+y,z
1/2+x,1/2-y,z
loop_
_atom_site_type_symbol
_atom_site_label
_atom_site_fract_x
_atom_site_fract_y
_atom_site_fract_z
Si Si1 0.564036 0.644430 0.221398
Si Si2 0.089872 0.048158 0.791944
Si Si3 0.801463 0.699111 0.216119
Si Si4 0.936525 0.550273 0.721103
Si Si5 0.329882 0.705425 0.221013
Si Si6 0.776310 0.048809 0.717930
Si Si7 0.171084 0.395926 0.285235
O O1 0.500000 0.661089 0.269507
O O2 0.568889 0.594160 0.285427
O O3 0.617942 0.674316 0.282204
O O4 0.567023 0.643244 0.000000
O O5 0.159375 0.052140 0.792349
O O6 0.076248 0.000000 0.712716
O O7 0.069730 0.046882 0.000000
O O8 0.735168 0.692912 0.280526
O O9 0.831607 0.743717 0.278032
O O10 0.834187 0.655169 0.258448
O O11 0.796887 0.703594 0.000000
O O12 0.936190 0.551280 0.500000
O O13 0.929285 0.500000 0.772944
O O14 0.883826 0.578742 0.787916
O O15 0.000000 0.565163 0.778667
O O16 0.331385 0.703683 0.000000
O O17 0.782417 0.052230 0.500000
O O18 0.731307 0.084530 0.785674
O O19 0.753867 0.000000 0.757418
O O20 0.173091 0.404578 0.500000
#
# Coordination Sequence:
#
# PCOD9483165 Si02
#       7
#    16  16  16  16  16  16  16
#     4   9  16  26  43  66  89 114 146 183 217 249
#     4   9  17  28  43  66  93 116 141 176 216 256
#     4   9  17  30  48  66  86 113 143 178 220 263
#     4   8  14  26  44  63  84 115 152 181 205 246
#     4   8  15  29  46  62  82 114 153 181 206 254
#     4   9  17  28  42  62  90 121 147 174 212 256
#     4  10  18  27  43  69  93 110 138 182 224 258
#
# _framework density 21.327074
#
# number of rings (size 3 to 8) (size 9 to 14) (size 15 to 20)
#    0.000    3.143    0.000    2.571    0.000    3.714 
#    0.000    3.571    0.000    3.857    0.000    3.000 
#    0.000    0.000    0.000    0.000    0.000    0.000 
#
# Total GULP energy -312350.246297 kJ/mol
# GULP energy per Si atom -5577.682970 kJ/mol
# Density = 2.127853 g / cm^3
# Si number density = 21.327074 Si / 1000 Ang^3
#
#
#
# Elastic Constant Matrix: (Units=GPa)
#
#
# Indices 1 2 3 4 5 6 
#
# 1 120.5909 84.5688 5.6060 0.0000 0.0000 0.0000
# 2 84.5688 107.5039 3.7635 0.0000 0.0000 0.0000
# 3 5.6060 3.7635 74.2286 0.0000 0.0000 0.0000
# 4 0.0000 0.0000 0.0000 10.1837 0.0000 0.0000
# 5 0.0000 0.0000 0.0000 0.0000 -2.4886 0.0000
# 6 0.0000 0.0000 0.0000 0.0000 0.0000 23.7437
#
#
#
# Elastic Compliance Matrix: (Units=1/GPa)
#
#
# Indices 1 2 3 4 5 6 
#
# 1 0.018529 -0.014553 -0.000662 0.000000 0.000000 0.000000
# 2 -0.014553 0.020748 0.000047 0.000000 0.000000 0.000000
# 3 -0.000662 0.000047 0.013519 0.000000 0.000000 0.000000
# 4 0.000000 0.000000 0.000000 0.098196 0.000000 0.000000
# 5 0.000000 0.000000 0.000000 0.000000 -0.401835 0.000000
# 6 0.000000 0.000000 0.000000 0.000000 0.000000 0.042116
#
#
# Mechanical properties :
#
#
# Convention : Reuss Voigt Hill
#
# Bulk Modulus (GPa) = 44.51880 54.46665 49.49273
# Shear Modulus (GPa) = -29.25616 20.18010 -4.53803
#
# Velocity S-wave (km/s) = -3.70778 3.07941 -1.46029
# Velocity P-wave (km/s) = 1.60918 6.18367 4.51815
#
# Compressibility (1/GPa) = 0.02246242
#
# Stress axis : x y z
#
# Youngs Moduli (GPa) = 53.96974 48.19653 73.96737
#
# Poissons Ratio (x) = 0.70139 0.04893
# Poissons Ratio (y) = 0.78541 -0.00348
# Poissons Ratio (z) = 0.03570 -0.00227
#
# Static dielectric constant tensor:
#      x y z
#    x 1.752110 0.000000 0.000000 
#    y 0.000000 1.775210 0.000000 
#    z 0.000000 0.000000 1.829800 
# 
# From -- ./inp_files/29594.got.cif
#   From: 2010.05.17/outbox.cif.g08.bks.cpg/sg65_15_cif.got.tgz:29594.got - 2010.06.03 17:01:31.
