data_PCOD9483867
_publ_section_title
;
Structure prediction by ZEFSAII (Michael W. Deem and Ramdas Pophale) SiO2 
 PCOD9483867
Probable space group: C M M M
;
_chemical_formula_sum "Si O2"
_cell_formula_units_Z 72
_cell_length_a 28.765284
_cell_length_b 8.891866
_cell_length_c 16.094281
_cell_angle_alpha 90.000000
_cell_angle_beta 90.000000
_cell_angle_gamma 90.000000
_cell_volume 4116.547729
_symmetry_space_group_name_H-M "C M M M"
_symmetry_group_IT_number 65
_symmetry_cell_setting 'orthorhombic'
loop_
_space_group_symop_operation_xyz
x,y,z
-x,-y,z
x,-y,-z
-x,y,-z
-x,-y,-z
x,y,-z
-x,y,z
x,-y,z
1/2+x,1/2+y,z
1/2-x,1/2-y,z
1/2+x,1/2-y,-z
1/2-x,1/2+y,-z
1/2-x,1/2-y,-z
1/2+x,1/2+y,-z
1/2-x,1/2+y,z
1/2+x,1/2-y,z
loop_
_atom_site_type_symbol
_atom_site_label
_atom_site_fract_x
_atom_site_fract_y
_atom_site_fract_z
Si Si1 0.893842 0.821772 0.751877
Si Si2 0.945971 0.681147 0.905859
Si Si3 0.055898 0.321228 0.406502
Si Si4 0.697957 0.819729 0.500000
Si Si5 0.300681 0.320661 0.330391
O O1 0.914574 0.748441 0.834086
O O2 0.919940 0.759794 0.670210
O O3 0.838890 0.792669 0.739866
O O4 0.900591 0.000000 0.755024
O O5 0.943834 0.500000 0.902244
O O6 0.000000 0.723775 0.892069
O O7 0.933209 0.726993 0.000000
O O8 0.069734 0.270949 0.500000
O O9 0.065659 0.500000 0.401367
O O10 0.000000 0.302951 0.400277
O O11 0.750000 0.750000 0.500000
O O12 0.678786 0.755297 0.414156
O O13 0.698253 0.000000 0.500000
O O14 0.295692 0.500000 0.343736
O O15 0.250000 0.250000 0.314276
#
# Coordination Sequence:
#
# PCOD9483867 Si02
#       5
#    16  16  16   8  16
#     4  11  23  34  51  80 110 138 172 219 270 318
#     4   9  19  37  60  84 109 138 174 215 258 312
#     4   9  19  35  52  72 102 141 183 219 251 303
#     4  10  18  30  50  72  95 130 175 220 266 309
#     4  10  21  36  51  72 104 139 178 223 267 312
#
# _framework density 17.490383999999999
#
# number of rings (size 3 to 8) (size 9 to 14) (size 15 to 20)
#    0.000    2.222    0.000    5.667    1.556    8.000 
#    0.000    2.222    0.000    0.667    0.000    0.000 
#    0.000    0.000    0.000    0.000    0.000    0.000 
#
# Total GULP energy -200910.502984 kJ/mol
# GULP energy per Si atom -5580.847305 kJ/mol
# Density = 1.745057 g / cm^3
# Si number density = 17.490384 Si / 1000 Ang^3
#
#
#
# Elastic Constant Matrix: (Units=GPa)
#
#
# Indices 1 2 3 4 5 6 
#
# 1 86.5811 54.8717 88.3566 0.0000 0.0000 0.0000
# 2 54.8717 72.6606 63.2506 0.0000 0.0000 0.0000
# 3 88.3566 63.2506 152.3840 0.0000 0.0000 0.0000
# 4 0.0000 0.0000 0.0000 17.3030 0.0000 0.0000
# 5 0.0000 0.0000 0.0000 0.0000 29.3318 0.0000
# 6 0.0000 0.0000 0.0000 0.0000 0.0000 25.7200
#
#
#
# Elastic Compliance Matrix: (Units=1/GPa)
#
#
# Indices 1 2 3 4 5 6 
#
# 1 0.035444 -0.013898 -0.014782 0.000000 0.000000 0.000000
# 2 -0.013898 0.026998 -0.003148 0.000000 0.000000 0.000000
# 3 -0.014782 -0.003148 0.016440 0.000000 0.000000 0.000000
# 4 0.000000 0.000000 0.000000 0.057794 0.000000 0.000000
# 5 0.000000 0.000000 0.000000 0.000000 0.034093 0.000000
# 6 0.000000 0.000000 0.000000 0.000000 0.000000 0.038880
#
#
# Mechanical properties :
#
#
# Convention : Reuss Voigt Hill
#
# Bulk Modulus (GPa) = 65.67980 80.50927 73.09454
# Shear Modulus (GPa) = 17.96103 21.48073 19.72088
#
# Velocity S-wave (km/s) = 3.20802 3.50829 3.36151
# Velocity P-wave (km/s) = 7.16626 7.90831 7.54641
#
# Compressibility (1/GPa) = 0.01522538
#
# Stress axis : x y z
#
# Youngs Moduli (GPa) = 28.21384 37.03932 60.82657
#
# Poissons Ratio (x) = 0.51478 0.89916
# Poissons Ratio (y) = 0.39212 0.19146
# Poissons Ratio (z) = 0.41707 0.11659
#
# Static dielectric constant tensor:
#      x y z
#    x 1.638630 0.000000 0.000000 
#    y 0.000000 1.583460 0.000000 
#    z 0.000000 0.000000 1.592510 
# 
# From -- ./inp_files/46500.got.cif
#   From: 2010.05.17/outbox.cif.g08.bks.cpg/sg65_24_cif.got.tgz:46500.got - 2010.06.03 17:01:31.
