data_PCOD9483268
_publ_section_title
;
Structure prediction by ZEFSAII (Michael W. Deem and Ramdas Pophale) SiO2 
 PCOD9483268
Probable space group: C M M M
;
_chemical_formula_sum "Si O2"
_cell_formula_units_Z 104
_cell_length_a 31.193517
_cell_length_b 23.516791
_cell_length_c 7.496393
_cell_angle_alpha 90.000000
_cell_angle_beta 90.000000
_cell_angle_gamma 90.000000
_cell_volume 5499.139657
_symmetry_space_group_name_H-M "C M M M"
_symmetry_group_IT_number 65
_symmetry_cell_setting 'orthorhombic'
loop_
_space_group_symop_operation_xyz
x,y,z
-x,-y,z
x,-y,-z
-x,y,-z
-x,-y,-z
x,y,-z
-x,y,z
x,-y,z
1/2+x,1/2+y,z
1/2-x,1/2-y,z
1/2+x,1/2-y,-z
1/2-x,1/2+y,-z
1/2-x,1/2-y,-z
1/2+x,1/2+y,-z
1/2-x,1/2+y,z
1/2+x,1/2-y,z
loop_
_atom_site_type_symbol
_atom_site_label
_atom_site_fract_x
_atom_site_fract_y
_atom_site_fract_z
Si Si1 0.548408 0.149311 0.288589
Si Si2 0.599798 0.387898 0.787412
Si Si3 0.450264 0.500000 0.781634
Si Si4 0.450954 0.279104 0.215212
Si Si5 0.309105 0.565050 0.285307
Si Si6 0.122361 0.565887 0.281025
Si Si7 0.716198 0.930847 0.293140
O O1 0.545735 0.138500 0.500000
O O2 0.500000 0.142589 0.215194
O O3 0.561323 0.215051 0.265551
O O4 0.584187 0.106317 0.218609
O O5 0.574380 0.443442 0.719789
O O6 0.579784 0.329208 0.718732
O O7 0.650047 0.396943 0.756474
O O8 0.593202 0.387586 0.000000
O O9 0.500000 0.500000 0.729054
O O10 0.449368 0.500000 0.000000
O O11 0.500000 0.288844 0.276027
O O12 0.451362 0.280810 0.000000
O O13 0.305576 0.562104 0.500000
O O14 0.317024 0.500000 0.221823
O O15 0.262591 0.585492 0.216644
O O16 0.123553 0.566909 0.500000
O O17 0.115649 0.500000 0.230773
O O18 0.169755 0.585087 0.217967
O O19 0.715941 0.912395 0.500000
O O20 0.716609 0.000000 0.291793
#
# Coordination Sequence:
#
# PCOD9483268 Si02
#       7
#    16  16   8  16  16  16  16
#     4   9  17  28  44  68  93 114 139 175 216 252
#     4  10  18  28  44  64  83 107 143 184 220 254
#     4   9  16  26  41  61  83 105 133 175 220 257
#     4   9  18  32  47  61  80 113 153 181 205 249
#     4   9  16  26  41  62  88 113 138 172 217 263
#     4   8  13  23  42  68  94 116 140 171 208 251
#     4   7  11  21  38  60  85 114 143 169 201 248
#
# _framework density 18.912049
#
# number of rings (size 3 to 8) (size 9 to 14) (size 15 to 20)
#    0.000    3.308    0.769    2.308    0.000    2.769 
#    0.000    1.538    0.000    4.154    0.000   10.769 
#    0.000    0.000    0.000    0.000    0.000    0.000 
#
# Total GULP energy -289698.226775 kJ/mol
# GULP energy per Si atom -5571.119746 kJ/mol
# Density = 1.886900 g / cm^3
# Si number density = 18.912049 Si / 1000 Ang^3
#
#
#
# Elastic Constant Matrix: (Units=GPa)
#
#
# Indices 1 2 3 4 5 6 
#
# 1 188.2009 110.7275 2.3767 0.0000 0.0000 0.0000
# 2 110.7275 103.3962 -0.3312 0.0000 0.0000 0.0000
# 3 2.3767 -0.3312 49.3942 0.0000 0.0000 0.0000
# 4 0.0000 0.0000 0.0000 15.4012 0.0000 0.0000
# 5 0.0000 0.0000 0.0000 0.0000 19.9821 0.0000
# 6 0.0000 0.0000 0.0000 0.0000 0.0000 20.1847
#
#
#
# Elastic Compliance Matrix: (Units=1/GPa)
#
#
# Indices 1 2 3 4 5 6 
#
# 1 0.014394 -0.015418 -0.000796 0.000000 0.000000 0.000000
# 2 -0.015418 0.026185 0.000917 0.000000 0.000000 0.000000
# 3 -0.000796 0.000917 0.020290 0.000000 0.000000 0.000000
# 4 0.000000 0.000000 0.000000 0.064930 0.000000 0.000000
# 5 0.000000 0.000000 0.000000 0.000000 0.050045 0.000000
# 6 0.000000 0.000000 0.000000 0.000000 0.000000 0.049542
#
#
# Mechanical properties :
#
#
# Convention : Reuss Voigt Hill
#
# Bulk Modulus (GPa) = 33.02827 62.94858 47.98843
# Shear Modulus (GPa) = 18.79197 26.32817 22.56007
#
# Velocity S-wave (km/s) = 3.15564 3.73518 3.45758
# Velocity P-wave (km/s) = 5.54793 7.20828 6.43190
#
# Compressibility (1/GPa) = 0.03027709
#
# Stress axis : x y z
#
# Youngs Moduli (GPa) = 69.47126 38.18941 49.28595
#
# Poissons Ratio (x) = 0.58879 0.03923
# Poissons Ratio (y) = 1.07108 -0.04522
# Poissons Ratio (z) = 0.05530 -0.03504
#
# Static dielectric constant tensor:
#      x y z
#    x 1.690740 0.000000 0.000000 
#    y 0.000000 1.617390 0.000000 
#    z 0.000000 0.000000 1.741240 
# 
# From -- ./inp_files/18887.got.cif
#   From: 2010.05.17/outbox.cif.g08.bks.cpg/sg65_10_cif.got.tgz:18887.got - 2010.06.03 17:01:31.
