data_PCOD9483460
_publ_section_title
;
Structure prediction by ZEFSAII (Michael W. Deem and Ramdas Pophale) SiO2 
 PCOD9483460
Probable space group: C M M M
;
_chemical_formula_sum "Si O2"
_cell_formula_units_Z 96
_cell_length_a 14.628988
_cell_length_b 18.537177
_cell_length_c 18.673627
_cell_angle_alpha 90.000000
_cell_angle_beta 90.000000
_cell_angle_gamma 90.000000
_cell_volume 5063.916782
_symmetry_space_group_name_H-M "C M M M"
_symmetry_group_IT_number 65
_symmetry_cell_setting 'orthorhombic'
loop_
_space_group_symop_operation_xyz
x,y,z
-x,-y,z
x,-y,-z
-x,y,-z
-x,-y,-z
x,y,-z
-x,y,z
x,-y,z
1/2+x,1/2+y,z
1/2-x,1/2-y,z
1/2+x,1/2-y,-z
1/2-x,1/2+y,-z
1/2-x,1/2-y,-z
1/2+x,1/2+y,-z
1/2-x,1/2+y,z
1/2+x,1/2-y,z
loop_
_atom_site_type_symbol
_atom_site_label
_atom_site_fract_x
_atom_site_fract_y
_atom_site_fract_z
Si Si1 0.612202 0.695149 0.918331
Si Si2 0.612227 0.082361 0.700944
Si Si3 0.601368 0.183436 0.819942
Si Si4 0.155084 0.209856 0.297186
Si Si5 0.109542 0.303932 0.419476
Si Si6 0.888852 0.083088 0.795232
O O1 0.500000 0.697763 0.917103
O O2 0.644643 0.771453 0.884417
O O3 0.638260 0.629989 0.865201
O O4 0.640791 0.685166 0.000000
O O5 0.500000 0.085026 0.702201
O O6 0.643730 0.116932 0.776464
O O7 0.641866 0.132878 0.634618
O O8 0.639741 0.000000 0.692353
O O9 0.500000 0.160488 0.843242
O O10 0.592574 0.244461 0.757641
O O11 0.250000 0.250000 0.282826
O O12 0.130764 0.229586 0.378269
O O13 0.148004 0.128010 0.272775
O O14 0.146015 0.308225 0.500000
O O15 0.000000 0.310768 0.423149
O O16 0.000000 0.084119 0.791682
O O17 0.859846 0.000000 0.798107
#
# Coordination Sequence:
#
# PCOD9483460 Si02
#       6
#    16  16  16  16  16  16
#     4   8  13  22  40  67  93 113 139 184 238 280
#     4   8  13  22  38  59  80 104 139 181 217 251
#     4   8  14  26  42  59  83 117 153 182 216 272
#     4  10  18  29  45  65  90 118 151 188 228 273
#     4   9  17  29  45  64  86 114 148 185 228 281
#     4   9  17  30  49  70  92 121 157 196 235 276
#
# _framework density 18.957657000000001
#
# number of rings (size 3 to 8) (size 9 to 14) (size 15 to 20)
#    0.000    3.333    0.000    3.500    0.000    1.000 
#    0.000    6.667    0.000    9.000    0.000    5.833 
#    0.000    0.000    0.000    0.000    0.000    0.000 
#
# Total GULP energy -267219.046426 kJ/mol
# GULP energy per Si atom -5567.063467 kJ/mol
# Density = 1.891451 g / cm^3
# Si number density = 18.957657 Si / 1000 Ang^3
#
#
#
# Elastic Constant Matrix: (Units=GPa)
#
#
# Indices 1 2 3 4 5 6 
#
# 1 36.6463 3.0724 6.0358 0.0000 0.0000 0.0000
# 2 3.0724 146.1413 100.9945 0.0000 0.0000 0.0000
# 3 6.0358 100.9945 130.7978 0.0000 0.0000 0.0000
# 4 0.0000 0.0000 0.0000 18.5623 0.0000 0.0000
# 5 0.0000 0.0000 0.0000 0.0000 5.9397 0.0000
# 6 0.0000 0.0000 0.0000 0.0000 0.0000 -1.1565
#
#
#
# Elastic Compliance Matrix: (Units=1/GPa)
#
#
# Indices 1 2 3 4 5 6 
#
# 1 0.027525 0.000641 -0.001765 0.000000 0.000000 0.000000
# 2 0.000641 0.014686 -0.011370 0.000000 0.000000 0.000000
# 3 -0.001765 -0.011370 0.016506 0.000000 0.000000 0.000000
# 4 0.000000 0.000000 0.000000 0.053873 0.000000 0.000000
# 5 0.000000 0.000000 0.000000 0.000000 0.168357 0.000000
# 6 0.000000 0.000000 0.000000 0.000000 0.000000 -0.864668
#
#
# Mechanical properties :
#
#
# Convention : Reuss Voigt Hill
#
# Bulk Modulus (GPa) = 29.64736 59.31009 44.47873
# Shear Modulus (GPa) = -9.13258 18.23463 4.55103
#
# Velocity S-wave (km/s) = -2.19723 3.10475 1.55108
# Velocity P-wave (km/s) = 3.03901 6.64877 5.16922
#
# Compressibility (1/GPa) = 0.03372981
#
# Stress axis : x y z
#
# Youngs Moduli (GPa) = 36.33079 68.08990 60.58469
#
# Poissons Ratio (x) = -0.04367 0.10695
# Poissons Ratio (y) = -0.02330 0.68883
# Poissons Ratio (z) = 0.06414 0.77416
#
# Static dielectric constant tensor:
#      x y z
#    x 1.743620 0.000000 0.000000 
#    y 0.000000 1.665650 0.000000 
#    z 0.000000 0.000000 1.669980 
# 
# From -- ./inp_files/54494.got.cif
#   From: 2010.05.17/outbox.cif.g08.bks.cpg/sg65_28_cif.got.tgz:54494.got - 2010.06.03 17:01:31.
