data_PCOD9483586
_publ_section_title
;
Structure prediction by ZEFSAII (Michael W. Deem and Ramdas Pophale) SiO2 
 PCOD9483586
Probable space group: C M M M
;
_chemical_formula_sum "Si O2"
_cell_formula_units_Z 96
_cell_length_a 18.916318
_cell_length_b 18.669153
_cell_length_c 17.682249
_cell_angle_alpha 90.000000
_cell_angle_beta 90.000000
_cell_angle_gamma 90.000000
_cell_volume 6244.515144
_symmetry_space_group_name_H-M "C M M M"
_symmetry_group_IT_number 65
_symmetry_cell_setting 'orthorhombic'
loop_
_space_group_symop_operation_xyz
x,y,z
-x,-y,z
x,-y,-z
-x,y,-z
-x,-y,-z
x,y,-z
-x,y,z
x,-y,z
1/2+x,1/2+y,z
1/2-x,1/2-y,z
1/2+x,1/2-y,-z
1/2-x,1/2+y,-z
1/2-x,1/2-y,-z
1/2+x,1/2+y,-z
1/2-x,1/2+y,z
1/2+x,1/2-y,z
loop_
_atom_site_type_symbol
_atom_site_label
_atom_site_fract_x
_atom_site_fract_y
_atom_site_fract_z
Si Si1 0.829884 0.779725 0.413904
Si Si2 0.419542 0.385372 0.798365
Si Si3 0.704823 0.584066 0.088960
Si Si4 0.418703 0.772522 0.270873
Si Si5 0.717875 0.830858 0.787508
Si Si6 0.686277 0.419206 0.328743
O O1 0.851436 0.765095 0.500000
O O2 0.750000 0.750000 0.403539
O O3 0.881679 0.745786 0.351283
O O4 0.827383 0.864585 0.396802
O O5 0.500000 0.407937 0.809236
O O6 0.369948 0.401483 0.869645
O O7 0.418147 0.301031 0.777661
O O8 0.382474 0.420411 0.725431
O O9 0.721868 0.500000 0.100279
O O10 0.760166 0.633908 0.133326
O O11 0.701856 0.598642 0.000000
O O12 0.500000 0.795249 0.279352
O O13 0.364993 0.825558 0.228951
O O14 0.750000 0.750000 0.782509
O O15 0.755564 0.879950 0.724116
O O16 0.705692 0.500000 0.349309
#
# Coordination Sequence:
#
# PCOD9483586 Si02
#       6
#    16  16  16  16  16  16
#     4  10  18  32  51  72 100 130 162 200 242 289
#     4   9  17  30  47  70  99 131 164 199 238 286
#     4  10  21  33  48  73 101 130 161 198 247 298
#     4  10  18  31  51  74  98 124 164 210 247 282
#     4  11  16  33  53  72  94 125 168 207 242 279
#     4  10  18  29  48  73  99 132 167 201 240 284
#
# _framework density 15.373492000000001
#
# number of rings (size 3 to 8) (size 9 to 14) (size 15 to 20)
#    0.000    2.000    6.667    2.000    0.000    2.667 
#    0.000    0.833    0.000    2.500    0.000    5.833 
#    0.000    2.667    0.000    0.000    0.000    0.000 
#
# Total GULP energy -267417.512721 kJ/mol
# GULP energy per Si atom -5571.198182 kJ/mol
# Density = 1.533850 g / cm^3
# Si number density = 15.373492 Si / 1000 Ang^3
#
#
#
# Elastic Constant Matrix: (Units=GPa)
#
#
# Indices 1 2 3 4 5 6 
#
# 1 122.2338 44.1922 43.2314 0.0000 0.0000 0.0000
# 2 44.1922 62.8073 32.2949 0.0000 0.0000 0.0000
# 3 43.2314 32.2949 92.8401 0.0000 0.0000 0.0000
# 4 0.0000 0.0000 0.0000 11.5866 0.0000 0.0000
# 5 0.0000 0.0000 0.0000 0.0000 13.3728 0.0000
# 6 0.0000 0.0000 0.0000 0.0000 0.0000 10.3792
#
#
#
# Elastic Compliance Matrix: (Units=1/GPa)
#
#
# Indices 1 2 3 4 5 6 
#
# 1 0.011679 -0.006602 -0.003142 0.000000 0.000000 0.000000
# 2 -0.006602 0.023122 -0.004969 0.000000 0.000000 0.000000
# 3 -0.003142 -0.004969 0.013963 0.000000 0.000000 0.000000
# 4 0.000000 0.000000 0.000000 0.086307 0.000000 0.000000
# 5 0.000000 0.000000 0.000000 0.000000 0.074779 0.000000
# 6 0.000000 0.000000 0.000000 0.000000 0.000000 0.096347
#
#
# Mechanical properties :
#
#
# Convention : Reuss Voigt Hill
#
# Bulk Modulus (GPa) = 51.71106 57.47978 54.59542
# Shear Modulus (GPa) = 14.61698 17.61189 16.11443
#
# Velocity S-wave (km/s) = 3.08684 3.38834 3.24110
# Velocity P-wave (km/s) = 6.81280 7.26484 7.04245
#
# Compressibility (1/GPa) = 0.01933822
#
# Stress axis : x y z
#
# Youngs Moduli (GPa) = 85.62249 43.24895 71.61970
#
# Poissons Ratio (x) = 0.28553 0.22502
# Poissons Ratio (y) = 0.56529 0.35586
# Poissons Ratio (z) = 0.26901 0.21489
#
# Static dielectric constant tensor:
#      x y z
#    x 1.517450 0.000000 0.000000 
#    y 0.000000 1.527280 0.000000 
#    z 0.000000 0.000000 1.506700 
# 
# From -- ./inp_files/54760.got.cif
#   From: 2010.05.17/outbox.cif.g08.bks.cpg/sg65_28_cif.got.tgz:54760.got - 2010.06.03 17:01:31.
