data_PCOD9483539
_publ_section_title
;
Structure prediction by ZEFSAII (Michael W. Deem and Ramdas Pophale) SiO2 
 PCOD9483539
Probable space group: C M M M
;
_chemical_formula_sum "Si O2"
_cell_formula_units_Z 104
_cell_length_a 28.729426
_cell_length_b 7.907079
_cell_length_c 22.514586
_cell_angle_alpha 90.000000
_cell_angle_beta 90.000000
_cell_angle_gamma 90.000000
_cell_volume 5114.544864
_symmetry_space_group_name_H-M "C M M M"
_symmetry_group_IT_number 65
_symmetry_cell_setting 'orthorhombic'
loop_
_space_group_symop_operation_xyz
x,y,z
-x,-y,z
x,-y,-z
-x,y,-z
-x,-y,-z
x,y,-z
-x,y,z
x,-y,z
1/2+x,1/2+y,z
1/2-x,1/2-y,z
1/2+x,1/2-y,-z
1/2-x,1/2+y,-z
1/2-x,1/2-y,-z
1/2+x,1/2+y,-z
1/2-x,1/2+y,z
1/2+x,1/2-y,z
loop_
_atom_site_type_symbol
_atom_site_label
_atom_site_fract_x
_atom_site_fract_y
_atom_site_fract_z
Si Si1 0.802975 0.204157 0.431755
Si Si2 0.598068 0.304076 0.118555
Si Si3 0.876672 0.191047 0.663088
Si Si4 0.800622 0.308758 0.884991
Si Si5 0.054992 0.200476 0.000000
Si Si6 0.699781 0.191482 0.742242
Si Si7 0.945646 0.792749 0.242050
O O1 0.808986 0.260436 0.500000
O O2 0.750000 0.250000 0.414013
O O3 0.845002 0.267739 0.389703
O O4 0.805114 0.000000 0.429841
O O5 0.583345 0.500000 0.121915
O O6 0.652852 0.295648 0.104092
O O7 0.582508 0.233586 0.182948
O O8 0.573391 0.224191 0.061515
O O9 0.839409 0.188342 0.716885
O O10 0.921148 0.268826 0.696838
O O11 0.889167 0.000000 0.644501
O O12 0.808583 0.500000 0.905246
O O13 0.750000 0.250000 0.906979
O O14 0.798258 0.307314 0.813222
O O15 0.000000 0.206359 0.000000
O O16 0.069210 0.000000 0.000000
O O17 0.750000 0.250000 0.720705
O O18 0.689880 0.000000 0.723068
O O19 0.000000 0.747536 0.237452
O O20 0.942960 0.000000 0.244326
#
# Coordination Sequence:
#
# PCOD9483539 Si02
#       7
#    16  16  16  16   8  16  16
#     4   9  18  31  46  67  97 131 163 197 239 288
#     4  10  18  32  54  77 103 132 165 205 248 294
#     4  10  18  29  47  70  96 127 164 202 242 289
#     4  10  20  33  50  73 102 133 164 199 243 298
#     4   9  18  32  54  83 106 129 168 213 252 295
#     4  10  19  29  44  68  99 128 157 194 238 288
#     4   9  17  29  48  73  98 126 162 204 247 291
#
# _framework density 20.334164999999999
#
# number of rings (size 3 to 8) (size 9 to 14) (size 15 to 20)
#    0.000    2.385    1.538    1.846    0.000    4.923 
#    0.000    0.769    0.000    4.154    0.000    3.231 
#    0.000    0.000    0.000    5.231    0.000    5.538 
#
# Total GULP energy -289662.915703 kJ/mol
# GULP energy per Si atom -5570.440687 kJ/mol
# Density = 2.028788 g / cm^3
# Si number density = 20.334165 Si / 1000 Ang^3
#
#
#
# Elastic Constant Matrix: (Units=GPa)
#
#
# Indices 1 2 3 4 5 6 
#
# 1 106.2403 -10.1312 49.4852 0.0000 0.0000 0.0000
# 2 -10.1312 30.4415 5.8178 0.0000 0.0000 0.0000
# 3 49.4852 5.8178 101.2590 0.0000 0.0000 0.0000
# 4 0.0000 0.0000 0.0000 2.9259 0.0000 0.0000
# 5 0.0000 0.0000 0.0000 0.0000 18.9870 0.0000
# 6 0.0000 0.0000 0.0000 0.0000 0.0000 13.9352
#
#
#
# Elastic Compliance Matrix: (Units=1/GPa)
#
#
# Indices 1 2 3 4 5 6 
#
# 1 0.013078 0.005636 -0.006715 0.000000 0.000000 0.000000
# 2 0.005636 0.035643 -0.004802 0.000000 0.000000 0.000000
# 3 -0.006715 -0.004802 0.013433 0.000000 0.000000 0.000000
# 4 0.000000 0.000000 0.000000 0.341779 0.000000 0.000000
# 5 0.000000 0.000000 0.000000 0.000000 0.052668 0.000000
# 6 0.000000 0.000000 0.000000 0.000000 0.000000 0.071761
#
#
# Mechanical properties :
#
#
# Convention : Reuss Voigt Hill
#
# Bulk Modulus (GPa) = 19.84458 36.47605 28.16031
# Shear Modulus (GPa) = 8.97794 20.02088 14.49941
#
# Velocity S-wave (km/s) = 2.10352 3.14123 2.67321
# Velocity P-wave (km/s) = 3.95981 5.57975 4.83807
#
# Compressibility (1/GPa) = 0.05039159
#
# Stress axis : x y z
#
# Youngs Moduli (GPa) = 76.46587 28.05588 74.44290
#
# Poissons Ratio (x) = -0.15811 0.49987
# Poissons Ratio (y) = -0.43094 0.35747
# Poissons Ratio (z) = 0.51346 0.13472
#
# Static dielectric constant tensor:
#      x y z
#    x 1.736480 0.000000 0.000000 
#    y 0.000000 1.787470 0.000000 
#    z 0.000000 0.000000 1.767460 
# 
# From -- ./inp_files/71827.got.cif
#   From: 2010.05.17/outbox.cif.g08.bks.cpg/sg65_36_cif.got.tgz:71827.got - 2010.06.03 17:01:31.
