data_PCOD9483031
_publ_section_title
;
Structure prediction by ZEFSAII (Michael W. Deem and Ramdas Pophale) SiO2 
 PCOD9483031
Probable space group: C M M M
;
_chemical_formula_sum "Si O2"
_cell_formula_units_Z 84
_cell_length_a 23.710077
_cell_length_b 15.583563
_cell_length_c 11.934935
_cell_angle_alpha 90.000000
_cell_angle_beta 90.000000
_cell_angle_gamma 90.000000
_cell_volume 4409.809041
_symmetry_space_group_name_H-M "C M M M"
_symmetry_group_IT_number 65
_symmetry_cell_setting 'orthorhombic'
loop_
_space_group_symop_operation_xyz
x,y,z
-x,-y,z
x,-y,-z
-x,y,-z
-x,-y,-z
x,y,-z
-x,y,z
x,-y,z
1/2+x,1/2+y,z
1/2-x,1/2-y,z
1/2+x,1/2-y,-z
1/2-x,1/2+y,-z
1/2-x,1/2-y,-z
1/2+x,1/2+y,-z
1/2-x,1/2+y,z
1/2+x,1/2-y,z
loop_
_atom_site_type_symbol
_atom_site_label
_atom_site_fract_x
_atom_site_fract_y
_atom_site_fract_z
Si Si1 0.394476 0.904857 0.754964
Si Si2 0.000000 0.150234 0.249043
Si Si3 0.500000 0.835300 0.631693
Si Si4 0.317061 0.263762 0.753506
Si Si5 0.816308 0.761896 0.000000
Si Si6 0.886843 0.903465 0.630718
Si Si7 0.000000 0.795996 0.000000
Si Si8 0.911885 0.643143 0.000000
O O1 0.444434 0.886821 0.667820
O O2 0.349952 0.827004 0.744650
O O3 0.421328 0.900752 0.880788
O O4 0.370214 0.000000 0.739417
O O5 0.943670 0.108523 0.298010
O O6 0.000000 0.248363 0.294567
O O7 0.000000 0.151995 0.114883
O O8 0.500000 0.815481 0.500000
O O9 0.250000 0.250000 0.742582
O O10 0.330746 0.300270 0.879010
O O11 0.342737 0.331065 0.667187
O O12 0.750000 0.750000 0.000000
O O13 0.846231 0.669277 0.000000
O O14 0.901312 0.892862 0.500000
O O15 0.864650 0.000000 0.647084
O O16 0.053401 0.731671 0.000000
#
# Coordination Sequence:
#
# PCOD9483031 Si02
#       8
#    16   8   8  16   8  16   4   8
#     4  11  22  36  58  88 120 158 200 245 298 359
#     4  12  21  40  65  90 120 156 195 246 303 359
#     4  12  23  38  59  83 117 158 195 235 293 357
#     4  10  21  39  62  88 121 160 201 251 307 358
#     4   8  16  33  57  83 114 152 195 244 296 349
#     4  11  24  42  64  89 118 159 209 253 296 355
#     4  12  20  34  62  92 122 158 194 238 304 366
#     4  10  17  34  52  82 118 155 197 239 288 353
#
# _framework density 19.048442999999999
#
# number of rings (size 3 to 8) (size 9 to 14) (size 15 to 20)
#    0.000    1.333    3.810    2.857    0.000    2.667 
#    0.000    3.810    0.000    3.429    0.000    0.000 
#    0.000    0.000    0.000    0.000    0.000    0.000 
#
# Total GULP energy -234331.969309 kJ/mol
# GULP energy per Si atom -5579.332603 kJ/mol
# Density = 1.900509 g / cm^3
# Si number density = 19.048443 Si / 1000 Ang^3
#
#
#
# Elastic Constant Matrix: (Units=GPa)
#
#
# Indices 1 2 3 4 5 6 
#
# 1 103.1656 40.9336 34.4327 0.0000 0.0000 0.0000
# 2 40.9336 109.2198 47.5576 0.0000 0.0000 0.0000
# 3 34.4327 47.5576 128.3152 0.0000 0.0000 0.0000
# 4 0.0000 0.0000 0.0000 11.5911 0.0000 0.0000
# 5 0.0000 0.0000 0.0000 0.0000 -5.7424 0.0000
# 6 0.0000 0.0000 0.0000 0.0000 0.0000 5.8310
#
#
#
# Elastic Compliance Matrix: (Units=1/GPa)
#
#
# Indices 1 2 3 4 5 6 
#
# 1 0.011729 -0.003607 -0.001810 0.000000 0.000000 0.000000
# 2 -0.003607 0.012027 -0.003490 0.000000 0.000000 0.000000
# 3 -0.001810 -0.003490 0.009572 0.000000 0.000000 0.000000
# 4 0.000000 0.000000 0.000000 0.086273 0.000000 0.000000
# 5 0.000000 0.000000 0.000000 0.000000 -0.174143 0.000000
# 6 0.000000 0.000000 0.000000 0.000000 0.000000 0.171498
#
#
# Mechanical properties :
#
#
# Convention : Reuss Voigt Hill
#
# Bulk Modulus (GPa) = 64.45917 65.17204 64.81561
# Shear Modulus (GPa) = 35.72885 16.85437 26.29161
#
# Velocity S-wave (km/s) = 4.33561 2.97781 3.71920
# Velocity P-wave (km/s) = 7.67961 6.79053 7.24872
#
# Compressibility (1/GPa) = 0.01551370
#
# Stress axis : x y z
#
# Youngs Moduli (GPa) = 85.26090 83.14376 104.46614
#
# Poissons Ratio (x) = 0.29994 0.18912
# Poissons Ratio (y) = 0.30757 0.36455
# Poissons Ratio (z) = 0.15435 0.29014
#
# Static dielectric constant tensor:
#      x y z
#    x 1.669920 0.000000 0.000000 
#    y 0.000000 1.664810 0.000000 
#    z 0.000000 0.000000 1.695730 
# 
# From -- ./inp_files/30620.got.cif
#   From: 2010.05.17/outbox.cif.g08.bks.cpg/sg65_16_cif.got.tgz:30620.got - 2010.06.03 17:01:31.
