data_PCOD9483423
_publ_section_title
;
Structure prediction by ZEFSAII (Michael W. Deem and Ramdas Pophale) SiO2 
 PCOD9483423
Probable space group: C M M M
;
_chemical_formula_sum "Si O2"
_cell_formula_units_Z 96
_cell_length_a 25.859529
_cell_length_b 11.667954
_cell_length_c 22.440021
_cell_angle_alpha 90.000000
_cell_angle_beta 90.000000
_cell_angle_gamma 90.000000
_cell_volume 6770.778052
_symmetry_space_group_name_H-M "C M M M"
_symmetry_group_IT_number 65
_symmetry_cell_setting 'orthorhombic'
loop_
_space_group_symop_operation_xyz
x,y,z
-x,-y,z
x,-y,-z
-x,y,-z
-x,-y,-z
x,y,-z
-x,y,z
x,-y,z
1/2+x,1/2+y,z
1/2-x,1/2-y,z
1/2+x,1/2-y,-z
1/2-x,1/2+y,-z
1/2-x,1/2-y,-z
1/2+x,1/2+y,-z
1/2-x,1/2+y,z
1/2+x,1/2-y,z
loop_
_atom_site_type_symbol
_atom_site_label
_atom_site_fract_x
_atom_site_fract_y
_atom_site_fract_z
Si Si1 0.189763 0.759362 0.068939
Si Si2 0.898487 0.364185 0.861305
Si Si3 0.500000 0.860041 0.931645
Si Si4 0.437788 0.259526 0.250523
Si Si5 0.440819 0.138984 0.500000
Si Si6 0.061593 0.000000 0.813374
Si Si7 0.062971 0.633122 0.369560
Si Si8 0.368225 0.500000 0.932067
O O1 0.250000 0.750000 0.084362
O O2 0.153377 0.685180 0.111012
O O3 0.167813 0.888054 0.072410
O O4 0.184075 0.720659 0.000000
O O5 0.898180 0.500000 0.865595
O O6 0.909005 0.324725 0.794597
O O7 0.948172 0.319890 0.898930
O O8 0.500000 0.000000 0.930049
O O9 0.500000 0.824081 0.000000
O O10 0.500000 0.242683 0.245278
O O11 0.426669 0.387213 0.226345
O O12 0.423215 0.221268 0.317257
O O13 0.500000 0.182419 0.500000
O O14 0.417685 0.168642 0.564484
O O15 0.443204 0.000000 0.500000
O O16 0.092216 0.000000 0.876256
O O17 0.000000 0.000000 0.825622
O O18 0.078098 0.500000 0.356954
O O19 0.000000 0.631355 0.372869
O O20 0.391149 0.500000 0.000000
#
# Coordination Sequence:
#
# PCOD9483423 Si02
#       8
#    16  16   8  16   8   8  16   8
#     4  10  22  37  52  67  84 110 146 187 228 274
#     4  11  20  30  47  68  89 112 140 177 226 274
#     4   9  18  30  42  61  89 112 132 168 220 275
#     4  10  18  29  43  61  88 119 150 182 219 266
#     4   7  10  18  32  55  83 111 146 182 214 251
#     4  10  20  33  46  63  88 120 156 188 222 268
#     4   8  13  21  37  59  84 114 147 183 220 255
#     4  10  20  37  54  66  83 112 152 192 232 274
#
# _framework density 14.178577000000001
#
# number of rings (size 3 to 8) (size 9 to 14) (size 15 to 20)
#    0.000    2.500    2.500    2.000    1.167    1.833 
#    0.000    0.000    0.000    0.500    0.000    3.500 
#    0.000    0.000    0.000    0.750    0.000    4.417 
#
# Total GULP energy -267238.713404 kJ/mol
# GULP energy per Si atom -5567.473196 kJ/mol
# Density = 1.414631 g / cm^3
# Si number density = 14.178577 Si / 1000 Ang^3
#
#
#
# Elastic Constant Matrix: (Units=GPa)
#
#
# Indices 1 2 3 4 5 6 
#
# 1 48.1518 22.3096 46.6687 0.0000 0.0000 0.0000
# 2 22.3096 59.4596 45.6258 0.0000 0.0000 0.0000
# 3 46.6687 45.6258 139.4627 0.0000 0.0000 0.0000
# 4 0.0000 0.0000 0.0000 18.1224 0.0000 0.0000
# 5 0.0000 0.0000 0.0000 0.0000 11.8500 0.0000
# 6 0.0000 0.0000 0.0000 0.0000 0.0000 8.4434
#
#
#
# Elastic Compliance Matrix: (Units=1/GPa)
#
#
# Indices 1 2 3 4 5 6 
#
# 1 0.031825 -0.005032 -0.009003 0.000000 0.000000 0.000000
# 2 -0.005032 0.023251 -0.005923 0.000000 0.000000 0.000000
# 3 -0.009003 -0.005923 0.012121 0.000000 0.000000 0.000000
# 4 0.000000 0.000000 0.000000 0.055180 0.000000 0.000000
# 5 0.000000 0.000000 0.000000 0.000000 0.084388 0.000000
# 6 0.000000 0.000000 0.000000 0.000000 0.000000 0.118436
#
#
# Mechanical properties :
#
#
# Convention : Reuss Voigt Hill
#
# Bulk Modulus (GPa) = 36.65651 52.92027 44.78839
# Shear Modulus (GPa) = 13.36140 16.51448 14.93794
#
# Velocity S-wave (km/s) = 3.07313 3.41654 3.24938
# Velocity P-wave (km/s) = 6.20498 7.27797 6.76279
#
# Compressibility (1/GPa) = 0.02728028
#
# Stress axis : x y z
#
# Youngs Moduli (GPa) = 31.42144 43.00880 82.50245
#
# Poissons Ratio (x) = 0.21644 0.74281
# Poissons Ratio (y) = 0.15812 0.48864
# Poissons Ratio (z) = 0.28290 0.25473
#
# Static dielectric constant tensor:
#      x y z
#    x 1.441190 0.000000 0.000000 
#    y 0.000000 1.479530 0.000000 
#    z 0.000000 0.000000 1.490200 
# 
# From -- ./inp_files/66030.got.cif
#   From: 2010.05.17/outbox.cif.g08.bks.cpg/sg65_34_cif.got.tgz:66030.got - 2010.06.03 17:01:31.
