data_PCOD9483837
_publ_section_title
;
Structure prediction by ZEFSAII (Michael W. Deem and Ramdas Pophale) SiO2 
 PCOD9483837
Probable space group: C M M M
;
_chemical_formula_sum "Si O2"
_cell_formula_units_Z 112
_cell_length_a 29.816872
_cell_length_b 13.696522
_cell_length_c 14.887208
_cell_angle_alpha 90.000000
_cell_angle_beta 90.000000
_cell_angle_gamma 90.000000
_cell_volume 6079.748813
_symmetry_space_group_name_H-M "C M M M"
_symmetry_group_IT_number 65
_symmetry_cell_setting 'orthorhombic'
loop_
_space_group_symop_operation_xyz
x,y,z
-x,-y,z
x,-y,-z
-x,y,-z
-x,-y,-z
x,y,-z
-x,y,z
x,-y,z
1/2+x,1/2+y,z
1/2-x,1/2-y,z
1/2+x,1/2-y,-z
1/2-x,1/2+y,-z
1/2-x,1/2-y,-z
1/2+x,1/2+y,-z
1/2-x,1/2+y,z
1/2+x,1/2-y,z
loop_
_atom_site_type_symbol
_atom_site_label
_atom_site_fract_x
_atom_site_fract_y
_atom_site_fract_z
Si Si1 0.274830 0.881246 0.400005
Si Si2 0.100231 0.387256 0.103760
Si Si3 0.776649 0.880803 0.896785
Si Si4 0.050733 0.196009 0.105225
Si Si5 0.365194 0.617494 0.786992
Si Si6 0.188068 0.618809 0.788031
Si Si7 0.670112 0.381104 0.400311
O O1 0.289123 0.849876 0.500000
O O2 0.303399 0.849619 0.314302
O O3 0.222541 0.854112 0.387557
O O4 0.275732 0.000000 0.400119
O O5 0.088571 0.500000 0.121547
O O6 0.059555 0.312229 0.111851
O O7 0.140683 0.355141 0.168318
O O8 0.116491 0.381816 0.000000
O O9 0.820746 0.850976 0.841718
O O10 0.730528 0.851205 0.848517
O O11 0.776495 0.000000 0.896856
O O12 0.779032 0.849012 0.000000
O O13 0.089413 0.148799 0.164682
O O14 0.000000 0.170871 0.131042
O O15 0.057040 0.169246 0.000000
O O16 0.364219 0.500000 0.786689
O O17 0.359227 0.650897 0.684161
O O18 0.188568 0.500000 0.788433
O O19 0.655557 0.350148 0.500000
O O20 0.669864 0.500000 0.400093
#
# Coordination Sequence:
#
# PCOD9483837 Si02
#       7
#    16  16  16  16  16  16  16
#     4   8  12  19  35  63  98 132 165 197 229 271
#     4   9  18  33  53  74  95 123 160 202 249 297
#     4   9  15  22  36  62  96 132 164 190 220 269
#     4  10  22  38  53  71  95 122 159 209 256 296
#     4  10  18  30  49  73 101 135 168 194 232 287
#     4   9  14  23  41  67  97 128 159 192 234 281
#     4   8  13  23  42  69  99 132 171 205 230 267
#
# _framework density 18.421813
#
# number of rings (size 3 to 8) (size 9 to 14) (size 15 to 20)
#    0.000    3.000    1.429    1.714    0.000    3.143 
#    0.000    2.857    0.000    3.857    0.000    4.000 
#    0.000    0.000    0.000    6.857    0.000    0.286 
#
# Total GULP energy -312676.869375 kJ/mol
# GULP energy per Si atom -5583.515525 kJ/mol
# Density = 1.837988 g / cm^3
# Si number density = 18.421813 Si / 1000 Ang^3
#
#
#
# Elastic Constant Matrix: (Units=GPa)
#
#
# Indices 1 2 3 4 5 6 
#
# 1 92.0213 6.8154 56.3851 0.0000 0.0000 0.0000
# 2 6.8154 50.6648 8.9114 0.0000 0.0000 0.0000
# 3 56.3851 8.9114 125.2230 0.0000 0.0000 0.0000
# 4 0.0000 0.0000 0.0000 8.8525 0.0000 0.0000
# 5 0.0000 0.0000 0.0000 0.0000 9.8113 0.0000
# 6 0.0000 0.0000 0.0000 0.0000 0.0000 18.3454
#
#
#
# Elastic Compliance Matrix: (Units=1/GPa)
#
#
# Indices 1 2 3 4 5 6 
#
# 1 0.015043 -0.000843 -0.006714 0.000000 0.000000 0.000000
# 2 -0.000843 0.020035 -0.001046 0.000000 0.000000 0.000000
# 3 -0.006714 -0.001046 0.011083 0.000000 0.000000 0.000000
# 4 0.000000 0.000000 0.000000 0.112963 0.000000 0.000000
# 5 0.000000 0.000000 0.000000 0.000000 0.101923 0.000000
# 6 0.000000 0.000000 0.000000 0.000000 0.000000 0.054510
#
#
# Mechanical properties :
#
#
# Convention : Reuss Voigt Hill
#
# Bulk Modulus (GPa) = 34.53517 45.79255 40.16386
# Shear Modulus (GPa) = 14.60222 20.45499 17.52860
#
# Velocity S-wave (km/s) = 2.81847 3.33583 3.08801
# Velocity P-wave (km/s) = 5.42027 6.30466 5.87912
#
# Compressibility (1/GPa) = 0.02895599
#
# Stress axis : x y z
#
# Youngs Moduli (GPa) = 66.47535 49.91270 90.22654
#
# Poissons Ratio (x) = 0.04206 0.60575
# Poissons Ratio (y) = 0.05602 0.09440
# Poissons Ratio (z) = 0.44629 0.05222
#
# Static dielectric constant tensor:
#      x y z
#    x 1.569170 0.000000 0.000000 
#    y 0.000000 1.728570 0.000000 
#    z 0.000000 0.000000 1.640590 
# 
# From -- ./inp_files/41145.got.cif
#   From: 2010.05.17/outbox.cif.g08.bks.cpg/sg65_21_cif.got.tgz:41145.got - 2010.06.03 17:01:31.
