data_PCOD9483465
_publ_section_title
;
Structure prediction by ZEFSAII (Michael W. Deem and Ramdas Pophale) SiO2 
 PCOD9483465
Probable space group: C M M M
;
_chemical_formula_sum "Si O2"
_cell_formula_units_Z 104
_cell_length_a 28.282929
_cell_length_b 8.504722
_cell_length_c 27.630702
_cell_angle_alpha 90.000000
_cell_angle_beta 90.000000
_cell_angle_gamma 90.000000
_cell_volume 6646.246190
_symmetry_space_group_name_H-M "C M M M"
_symmetry_group_IT_number 65
_symmetry_cell_setting 'orthorhombic'
loop_
_space_group_symop_operation_xyz
x,y,z
-x,-y,z
x,-y,-z
-x,y,-z
-x,-y,-z
x,y,-z
-x,y,z
x,-y,z
1/2+x,1/2+y,z
1/2-x,1/2-y,z
1/2+x,1/2-y,-z
1/2-x,1/2+y,-z
1/2-x,1/2-y,-z
1/2+x,1/2+y,-z
1/2-x,1/2+y,z
1/2+x,1/2-y,z
loop_
_atom_site_type_symbol
_atom_site_label
_atom_site_fract_x
_atom_site_fract_y
_atom_site_fract_z
Si Si1 0.895793 0.190614 0.151309
Si Si2 0.803948 0.688864 0.393927
Si Si3 0.356035 0.311612 0.300145
Si Si4 0.945079 0.191543 0.054008
Si Si5 0.302094 0.689073 0.796520
Si Si6 0.446102 0.188572 0.246942
Si Si7 0.303691 0.189383 0.500000
O O1 0.913734 0.245305 0.099045
O O2 0.842595 0.239126 0.165584
O O3 0.929355 0.250335 0.194399
O O4 0.897374 0.000000 0.152221
O O5 0.802511 0.500000 0.392221
O O6 0.750000 0.750000 0.388470
O O7 0.836064 0.750435 0.350592
O O8 0.822691 0.739176 0.447372
O O9 0.356613 0.500000 0.300373
O O10 0.321078 0.259747 0.256394
O O11 0.407833 0.251633 0.285203
O O12 0.000000 0.236162 0.061327
O O13 0.943869 0.000000 0.053992
O O14 0.930514 0.242993 0.000000
O O15 0.300873 0.500000 0.796448
O O16 0.250000 0.750000 0.806348
O O17 0.500000 0.238723 0.256546
O O18 0.444321 0.000000 0.246853
O O19 0.250000 0.250000 0.500000
O O20 0.303776 0.000000 0.500000
#
# Coordination Sequence:
#
# PCOD9483465 Si02
#       7
#    16  16  16  16  16  16   8
#     4   9  17  29  45  65  88 114 145 180 218 261
#     4  10  18  29  45  66  94 125 156 189 224 263
#     4  10  20  32  46  66  89 116 151 186 224 267
#     4   8  13  22  40  66  89 108 136 177 222 263
#     4   9  18  29  41  59  83 112 145 178 213 254
#     4  10  20  32  46  66  91 117 145 177 217 268
#     4   8  16  28  42  62  89 122 155 186 222 263
#
# _framework density 15.647931
#
# number of rings (size 3 to 8) (size 9 to 14) (size 15 to 20)
#    0.000    2.769    0.000    3.692    0.000    6.769 
#    0.000    0.000    0.000    0.923    0.000    2.692 
#    0.000    4.308    0.000    0.000    0.000    0.308 
#
# Total GULP energy -289682.668379 kJ/mol
# GULP energy per Si atom -5570.820546 kJ/mol
# Density = 1.561232 g / cm^3
# Si number density = 15.647931 Si / 1000 Ang^3
#
#
#
# Elastic Constant Matrix: (Units=GPa)
#
#
# Indices 1 2 3 4 5 6 
#
# 1 118.9188 24.0070 87.4435 0.0000 0.0000 0.0000
# 2 24.0070 19.7981 25.3889 0.0000 0.0000 0.0000
# 3 87.4435 25.3889 167.8360 0.0000 0.0000 0.0000
# 4 0.0000 0.0000 0.0000 14.7176 0.0000 0.0000
# 5 0.0000 0.0000 0.0000 0.0000 23.5308 0.0000
# 6 0.0000 0.0000 0.0000 0.0000 0.0000 22.3389
#
#
#
# Elastic Compliance Matrix: (Units=1/GPa)
#
#
# Indices 1 2 3 4 5 6 
#
# 1 0.015133 -0.010223 -0.006338 0.000000 0.000000 0.000000
# 2 -0.010223 0.069572 -0.005198 0.000000 0.000000 0.000000
# 3 -0.006338 -0.005198 0.010047 0.000000 0.000000 0.000000
# 4 0.000000 0.000000 0.000000 0.067946 0.000000 0.000000
# 5 0.000000 0.000000 0.000000 0.000000 0.042497 0.000000
# 6 0.000000 0.000000 0.000000 0.000000 0.000000 0.044765
#
#
# Mechanical properties :
#
#
# Convention : Reuss Voigt Hill
#
# Bulk Modulus (GPa) = 19.51825 64.47018 41.99422
# Shear Modulus (GPa) = 16.10013 23.43171 19.76592
#
# Velocity S-wave (km/s) = 3.21112 3.87386 3.55796
# Velocity P-wave (km/s) = 5.12337 7.82937 6.61619
#
# Compressibility (1/GPa) = 0.05123410
#
# Stress axis : x y z
#
# Youngs Moduli (GPa) = 66.07895 14.37359 99.53431
#
# Poissons Ratio (x) = 0.14694 0.63087
# Poissons Ratio (y) = 0.67550 0.51741
# Poissons Ratio (z) = 0.41882 0.07472
#
# Static dielectric constant tensor:
#      x y z
#    x 1.501340 0.000000 0.000000 
#    y 0.000000 1.536910 0.000000 
#    z 0.000000 0.000000 1.539060 
# 
# From -- ./inp_files/76022.got.cif
#   From: 2010.05.17/outbox.cif.g08.bks.cpg/sg65_39_cif.got.tgz:76022.got - 2010.06.03 17:01:31.
