data_PCOD9483876
_publ_section_title
;
Structure prediction by ZEFSAII (Michael W. Deem and Ramdas Pophale) SiO2 
 PCOD9483876
Probable space group: C M M M
;
_chemical_formula_sum "Si O2"
_cell_formula_units_Z 104
_cell_length_a 8.593782
_cell_length_b 18.593025
_cell_length_c 34.949444
_cell_angle_alpha 90.000000
_cell_angle_beta 90.000000
_cell_angle_gamma 90.000000
_cell_volume 5584.376065
_symmetry_space_group_name_H-M "C M M M"
_symmetry_group_IT_number 65
_symmetry_cell_setting 'orthorhombic'
loop_
_space_group_symop_operation_xyz
x,y,z
-x,-y,z
x,-y,-z
-x,y,-z
-x,-y,-z
x,y,-z
-x,y,z
x,-y,z
1/2+x,1/2+y,z
1/2-x,1/2-y,z
1/2+x,1/2-y,-z
1/2-x,1/2+y,-z
1/2-x,1/2-y,-z
1/2+x,1/2+y,-z
1/2-x,1/2+y,z
1/2+x,1/2-y,z
loop_
_atom_site_type_symbol
_atom_site_label
_atom_site_fract_x
_atom_site_fract_y
_atom_site_fract_z
Si Si1 0.314642 0.914187 0.542968
Si Si2 0.814775 0.331840 0.693376
Si Si3 0.816259 0.169431 0.614465
Si Si4 0.689840 0.582881 0.000000
Si Si5 0.813065 0.168585 0.226826
Si Si6 0.689755 0.582633 0.151202
Si Si7 0.188413 0.830891 0.075732
O O1 0.267167 0.891317 0.500000
O O2 0.500000 0.900692 0.546684
O O3 0.226910 0.874784 0.576877
O O4 0.291748 0.000000 0.545488
O O5 0.750000 0.250000 0.692779
O O6 0.757695 0.363723 0.653155
O O7 0.748800 0.362677 0.732962
O O8 0.000000 0.330424 0.694605
O O9 0.750000 0.250000 0.609880
O O10 0.000000 0.173820 0.619847
O O11 0.738591 0.625159 0.038094
O O12 0.741472 0.500000 0.000000
O O13 0.500000 0.581840 0.000000
O O14 0.750000 0.250000 0.222684
O O15 0.763398 0.121861 0.190354
O O16 0.000000 0.171527 0.228299
O O17 0.500000 0.581936 0.150827
O O18 0.741804 0.500000 0.149478
O O19 0.739597 0.627670 0.114090
O O20 0.250000 0.750000 0.074973
O O21 0.000000 0.828997 0.075781
#
# Coordination Sequence:
#
# PCOD9483876 Si02
#       7
#    16  16  16   8  16  16  16
#     4   9  19  37  58  78 104 139 176 215 262 314
#     4  10  18  31  51  74 102 133 167 208 254 305
#     4  11  21  34  54  80 109 139 175 218 262 309
#     4   9  17  30  51  77 102 133 174 214 250 295
#     4  10  18  30  50  73  97 126 162 204 248 299
#     4   9  18  32  50  72  98 130 168 209 251 295
#     4  10  19  32  52  76 102 132 169 212 254 300
#
# _framework density 18.623387000000001
#
# number of rings (size 3 to 8) (size 9 to 14) (size 15 to 20)
#    0.000    2.231    0.000    6.692    0.000    2.769 
#    0.000    2.308    0.000    8.769    0.000    0.000 
#    0.000    0.000    0.000    0.000    0.000    0.000 
#
# Total GULP energy -290199.258407 kJ/mol
# GULP energy per Si atom -5580.754969 kJ/mol
# Density = 1.858100 g / cm^3
# Si number density = 18.623387 Si / 1000 Ang^3
#
#
#
# Elastic Constant Matrix: (Units=GPa)
#
#
# Indices 1 2 3 4 5 6 
#
# 1 72.9329 26.7710 53.1786 0.0000 0.0000 0.0000
# 2 26.7710 92.6885 77.1802 0.0000 0.0000 0.0000
# 3 53.1786 77.1802 201.0694 0.0000 0.0000 0.0000
# 4 0.0000 0.0000 0.0000 -44.4761 0.0000 0.0000
# 5 0.0000 0.0000 0.0000 0.0000 24.2933 0.0000
# 6 0.0000 0.0000 0.0000 0.0000 0.0000 19.5389
#
#
#
# Elastic Compliance Matrix: (Units=1/GPa)
#
#
# Indices 1 2 3 4 5 6 
#
# 1 0.017174 -0.001732 -0.003878 0.000000 0.000000 0.000000
# 2 -0.001732 0.016032 -0.005696 0.000000 0.000000 0.000000
# 3 -0.003878 -0.005696 0.008185 0.000000 0.000000 0.000000
# 4 0.000000 0.000000 0.000000 -0.022484 0.000000 0.000000
# 5 0.000000 0.000000 0.000000 0.000000 0.041164 0.000000
# 6 0.000000 0.000000 0.000000 0.000000 0.000000 0.051180
#
#
# Mechanical properties :
#
#
# Convention : Reuss Voigt Hill
#
# Bulk Modulus (GPa) = 53.24452 75.66117 64.45285
# Shear Modulus (GPa) = 35.68348 13.84197 24.76272
#
# Velocity S-wave (km/s) = 4.38203 2.72923 3.65040
# Velocity P-wave (km/s) = 7.36581 7.11665 7.24230
#
# Compressibility (1/GPa) = 0.01878127
#
# Stress axis : x y z
#
# Youngs Moduli (GPa) = 58.22718 62.37619 122.17101
#
# Poissons Ratio (x) = 0.10801 0.47372
# Poissons Ratio (y) = 0.10083 0.69586
# Poissons Ratio (z) = 0.22578 0.35528
#
# Static dielectric constant tensor:
#      x y z
#    x 1.635680 0.000000 0.000000 
#    y 0.000000 1.384400 0.000000 
#    z 0.000000 0.000000 1.666180 
# 
# From -- ./inp_files/76911.got.cif
#   From: 2010.05.17/outbox.cif.g08.bks.cpg/sg65_39_cif.got.tgz:76911.got - 2010.06.03 17:01:31.
