data_PCOD9483492
_publ_section_title
;
Structure prediction by ZEFSAII (Michael W. Deem and Ramdas Pophale) SiO2 
 PCOD9483492
Probable space group: C M M M
;
_chemical_formula_sum "Si O2"
_cell_formula_units_Z 104
_cell_length_a 14.698808
_cell_length_b 23.437921
_cell_length_c 16.589199
_cell_angle_alpha 90.000000
_cell_angle_beta 90.000000
_cell_angle_gamma 90.000000
_cell_volume 5715.136664
_symmetry_space_group_name_H-M "C M M M"
_symmetry_group_IT_number 65
_symmetry_cell_setting 'orthorhombic'
loop_
_space_group_symop_operation_xyz
x,y,z
-x,-y,z
x,-y,-z
-x,y,-z
-x,-y,-z
x,y,-z
-x,y,z
x,-y,z
1/2+x,1/2+y,z
1/2-x,1/2-y,z
1/2+x,1/2-y,-z
1/2-x,1/2+y,-z
1/2-x,1/2-y,-z
1/2+x,1/2+y,-z
1/2-x,1/2+y,z
1/2+x,1/2-y,z
loop_
_atom_site_type_symbol
_atom_site_label
_atom_site_fract_x
_atom_site_fract_y
_atom_site_fract_z
Si Si1 0.214796 0.931049 0.911605
Si Si2 0.105506 0.431889 0.174134
Si Si3 0.641738 0.756311 0.590243
Si Si4 0.391627 0.568264 0.752620
Si Si5 0.105131 0.875168 0.590074
Si Si6 0.106916 0.626255 0.662015
Si Si7 0.388476 0.066524 0.500000
O O1 0.321308 0.919650 0.894952
O O2 0.157623 0.911174 0.834096
O O3 0.204330 0.000000 0.912772
O O4 0.186922 0.909613 0.000000
O O5 0.108164 0.500000 0.190124
O O6 0.139563 0.399563 0.254181
O O7 0.000000 0.417165 0.156287
O O8 0.611514 0.774408 0.500000
O O9 0.750000 0.750000 0.589721
O O10 0.605336 0.692932 0.603933
O O11 0.616603 0.806018 0.651520
O O12 0.500000 0.580023 0.758931
O O13 0.380002 0.500000 0.746829
O O14 0.355066 0.595634 0.669565
O O15 0.144833 0.885165 0.500000
O O16 0.000000 0.894594 0.586177
O O17 0.145264 0.597154 0.581225
O O18 0.000000 0.612118 0.662498
O O19 0.500000 0.070053 0.500000
O O20 0.364586 0.000000 0.500000
#
# Coordination Sequence:
#
# PCOD9483492 Si02
#       7
#    16  16  16  16  16  16   8
#     4   9  18  32  51  74 101 134 166 202 251 305
#     4   9  18  31  48  73 103 132 164 203 246 299
#     4  10  20  31  44  66  94 129 170 215 248 283
#     4   9  18  32  51  77 105 132 165 207 253 303
#     4   9  18  32  50  70  97 133 170 207 247 294
#     4  10  18  29  46  66  93 130 167 203 245 290
#     4   9  16  26  43  66  92 126 165 200 238 287
#
# _framework density 18.197289999999999
#
# number of rings (size 3 to 8) (size 9 to 14) (size 15 to 20)
#    0.000    2.692    0.769    0.923    2.154    3.385 
#    0.000    4.615    0.000    0.000    0.000    2.154 
#    0.000    4.923    0.000    0.000    0.000    0.000 
#
# Total GULP energy -289787.856133 kJ/mol
# GULP energy per Si atom -5572.843387 kJ/mol
# Density = 1.815587 g / cm^3
# Si number density = 18.197290 Si / 1000 Ang^3
#
#
#
# Elastic Constant Matrix: (Units=GPa)
#
#
# Indices 1 2 3 4 5 6 
#
# 1 48.3539 8.0865 35.9518 0.0000 0.0000 0.0000
# 2 8.0865 26.1137 41.1278 0.0000 0.0000 0.0000
# 3 35.9518 41.1278 143.7413 0.0000 0.0000 0.0000
# 4 0.0000 0.0000 0.0000 9.2285 0.0000 0.0000
# 5 0.0000 0.0000 0.0000 0.0000 19.3247 0.0000
# 6 0.0000 0.0000 0.0000 0.0000 0.0000 5.1304
#
#
#
# Elastic Compliance Matrix: (Units=1/GPa)
#
#
# Indices 1 2 3 4 5 6 
#
# 1 0.025625 0.003930 -0.007534 0.000000 0.000000 0.000000
# 2 0.003930 0.070308 -0.021100 0.000000 0.000000 0.000000
# 3 -0.007534 -0.021100 0.014878 0.000000 0.000000 0.000000
# 4 0.000000 0.000000 0.000000 0.108360 0.000000 0.000000
# 5 0.000000 0.000000 0.000000 0.000000 0.051747 0.000000
# 6 0.000000 0.000000 0.000000 0.000000 0.000000 0.194916
#
#
# Mechanical properties :
#
#
# Convention : Reuss Voigt Hill
#
# Bulk Modulus (GPa) = 16.28543 43.17122 29.72832
# Shear Modulus (GPa) = 9.33340 15.60624 12.46982
#
# Velocity S-wave (km/s) = 2.26719 2.93168 2.62058
# Velocity P-wave (km/s) = 3.97773 5.93592 5.05260
#
# Compressibility (1/GPa) = 0.06140459
#
# Stress axis : x y z
#
# Youngs Moduli (GPa) = 39.02444 14.22312 67.21177
#
# Poissons Ratio (x) = -0.05590 0.50635
# Poissons Ratio (y) = -0.15336 1.41815
# Poissons Ratio (z) = 0.29400 0.30010
#
# Static dielectric constant tensor:
#      x y z
#    x 1.688290 0.000000 0.000000 
#    y 0.000000 1.605320 0.000000 
#    z 0.000000 0.000000 1.644040 
# 
# From -- ./inp_files/43115.got.cif
#   From: 2010.05.17/outbox.cif.g08.bks.cpg/sg65_22_cif.got.tgz:43115.got - 2010.06.03 17:01:31.
