data_PCOD9483987
_publ_section_title
;
Structure prediction by ZEFSAII (Michael W. Deem and Ramdas Pophale) SiO2 
 PCOD9483987
Probable space group: C M M M
;
_chemical_formula_sum "Si O2"
_cell_formula_units_Z 72
_cell_length_a 19.064212
_cell_length_b 8.712728
_cell_length_c 24.361567
_cell_angle_alpha 90.000000
_cell_angle_beta 90.000000
_cell_angle_gamma 90.000000
_cell_volume 4046.487795
_symmetry_space_group_name_H-M "C M M M"
_symmetry_group_IT_number 65
_symmetry_cell_setting 'orthorhombic'
loop_
_space_group_symop_operation_xyz
x,y,z
-x,-y,z
x,-y,-z
-x,y,-z
-x,-y,-z
x,y,-z
-x,y,z
x,-y,z
1/2+x,1/2+y,z
1/2-x,1/2-y,z
1/2+x,1/2-y,-z
1/2-x,1/2+y,-z
1/2-x,1/2-y,-z
1/2+x,1/2+y,-z
1/2-x,1/2+y,z
1/2+x,1/2-y,z
loop_
_atom_site_type_symbol
_atom_site_label
_atom_site_fract_x
_atom_site_fract_y
_atom_site_fract_z
Si Si1 0.419460 0.686928 0.000000
Si Si2 0.828402 0.683330 0.339531
Si Si3 0.917702 0.184687 0.438636
Si Si4 0.671004 0.684432 0.894519
Si Si5 0.670882 0.184110 0.781242
O O1 0.376781 0.733140 0.945699
O O2 0.420640 0.500000 0.000000
O O3 0.500000 0.739843 0.000000
O O4 0.823916 0.500000 0.341673
O O5 0.750000 0.750000 0.343510
O O6 0.874109 0.743770 0.389565
O O7 0.858800 0.724262 0.278940
O O8 0.894400 0.233003 0.500000
O O9 0.000000 0.223269 0.433436
O O10 0.911844 0.000000 0.436145
O O11 0.675348 0.500000 0.893036
O O12 0.750000 0.750000 0.900778
O O13 0.640171 0.744107 0.836615
O O14 0.750000 0.250000 0.779819
O O15 0.672751 0.000000 0.786529
#
# Coordination Sequence:
#
# PCOD9483987 Si02
#       5
#     8  16  16  16  16
#     4   9  19  34  49  69  98 129 162 200 240 283
#     4  10  20  33  52  77 104 134 166 205 251 297
#     4   9  19  36  55  74  99 132 169 209 251 296
#     4  10  18  30  52  75  96 125 161 201 240 285
#     4   9  17  30  48  72 101 128 159 200 242 287
#
# _framework density 17.793209000000001
#
# number of rings (size 3 to 8) (size 9 to 14) (size 15 to 20)
#    0.000    2.556    0.000    4.333    0.000    4.000 
#    0.000    3.889    0.000    9.333    0.000    0.000 
#    0.000    0.000    0.000    0.000    0.000    0.000 
#
# Total GULP energy -200644.040048 kJ/mol
# GULP energy per Si atom -5573.445557 kJ/mol
# Density = 1.775271 g / cm^3
# Si number density = 17.793209 Si / 1000 Ang^3
#
#
#
# Elastic Constant Matrix: (Units=GPa)
#
#
# Indices 1 2 3 4 5 6 
#
# 1 62.4830 26.7850 83.6844 0.0000 0.0000 0.0000
# 2 26.7850 49.1849 57.8424 0.0000 0.0000 0.0000
# 3 83.6844 57.8424 233.6308 0.0000 0.0000 0.0000
# 4 0.0000 0.0000 0.0000 52.7599 0.0000 0.0000
# 5 0.0000 0.0000 0.0000 0.0000 -26.3374 0.0000
# 6 0.0000 0.0000 0.0000 0.0000 0.0000 21.0113
#
#
#
# Elastic Compliance Matrix: (Units=1/GPa)
#
#
# Indices 1 2 3 4 5 6 
#
# 1 0.031794 -0.005532 -0.010019 0.000000 0.000000 0.000000
# 2 -0.005532 0.029645 -0.005358 0.000000 0.000000 0.000000
# 3 -0.010019 -0.005358 0.009195 0.000000 0.000000 0.000000
# 4 0.000000 0.000000 0.000000 0.018954 0.000000 0.000000
# 5 0.000000 0.000000 0.000000 0.000000 -0.037969 0.000000
# 6 0.000000 0.000000 0.000000 0.000000 0.000000 0.047593
#
#
# Mechanical properties :
#
#
# Convention : Reuss Voigt Hill
#
# Bulk Modulus (GPa) = 34.70176 75.76915 55.23546
# Shear Modulus (GPa) = 33.19253 21.28589 27.23921
#
# Velocity S-wave (km/s) = 4.32378 3.46250 3.91689
# Velocity P-wave (km/s) = 6.66873 7.65904 7.18097
#
# Compressibility (1/GPa) = 0.02881698
#
# Stress axis : x y z
#
# Youngs Moduli (GPa) = 31.45249 33.73224 108.75006
#
# Poissons Ratio (x) = 0.18661 1.08953
# Poissons Ratio (y) = 0.17400 0.58269
# Poissons Ratio (z) = 0.31511 0.18074
#
# Static dielectric constant tensor:
#      x y z
#    x 1.583300 0.000000 0.000000 
#    y 0.000000 1.603320 0.000000 
#    z 0.000000 0.000000 1.650960 
# 
# From -- ./inp_files/67110.got.cif
#   From: 2010.05.17/outbox.cif.g08.bks.cpg/sg65_34_cif.got.tgz:67110.got - 2010.06.03 17:01:31.
