data_PCOD9483215
_publ_section_title
;
Structure prediction by ZEFSAII (Michael W. Deem and Ramdas Pophale) SiO2 
 PCOD9483215
Probable space group: C M M M
;
_chemical_formula_sum "Si O2"
_cell_formula_units_Z 104
_cell_length_a 28.252101
_cell_length_b 8.376576
_cell_length_c 27.645995
_cell_angle_alpha 90.000000
_cell_angle_beta 90.000000
_cell_angle_gamma 90.000000
_cell_volume 6542.587032
_symmetry_space_group_name_H-M "C M M M"
_symmetry_group_IT_number 65
_symmetry_cell_setting 'orthorhombic'
loop_
_space_group_symop_operation_xyz
x,y,z
-x,-y,z
x,-y,-z
-x,y,-z
-x,-y,-z
x,y,-z
-x,y,z
x,-y,z
1/2+x,1/2+y,z
1/2-x,1/2-y,z
1/2+x,1/2-y,-z
1/2-x,1/2+y,-z
1/2-x,1/2-y,-z
1/2+x,1/2+y,-z
1/2-x,1/2+y,z
1/2+x,1/2-y,z
loop_
_atom_site_type_symbol
_atom_site_label
_atom_site_fract_x
_atom_site_fract_y
_atom_site_fract_z
Si Si1 0.304304 0.689508 0.500000
Si Si2 0.302013 0.690943 0.204013
Si Si3 0.103881 0.193212 0.848785
Si Si4 0.852808 0.307162 0.700725
Si Si5 0.553141 0.192960 0.753287
Si Si6 0.804253 0.691357 0.397437
Si Si7 0.054961 0.194581 0.054054
O O1 0.304363 0.500000 0.500000
O O2 0.250000 0.750000 0.500000
O O3 0.324207 0.751231 0.550889
O O4 0.302046 0.500000 0.205249
O O5 0.250000 0.750000 0.191223
O O6 0.343549 0.744557 0.167411
O O7 0.317472 0.752861 0.256860
O O8 0.068830 0.251250 0.806574
O O9 0.086721 0.249722 0.901240
O O10 0.102992 0.000000 0.848798
O O11 0.853006 0.500000 0.700125
O O12 0.905250 0.252664 0.716918
O O13 0.834445 0.252052 0.648614
O O14 0.500000 0.248064 0.741907
O O15 0.553208 0.000000 0.752825
O O16 0.803261 0.500000 0.397778
O O17 0.750000 0.750000 0.392484
O O18 0.000000 0.239867 0.061682
O O19 0.056122 0.000000 0.054043
O O20 0.069250 0.246724 0.000000
#
# Coordination Sequence:
#
# PCOD9483215 Si02
#       7
#     8  16  16  16  16  16  16
#     4  10  18  28  42  60  83 110 139 169 204 245
#     4  10  19  29  42  60  83 111 141 174 209 247
#     4   9  17  28  43  63  84 108 140 174 208 247
#     4   9  18  30  44  63  86 113 142 172 206 245
#     4   9  17  29  44  63  88 115 140 167 205 251
#     4  10  18  28  42  60  84 111 139 170 204 241
#     4   8  13  22  39  63  86 105 129 167 212 251
#
# _framework density 15.895853000000001
#
# number of rings (size 3 to 8) (size 9 to 14) (size 15 to 20)
#    0.000    2.769    0.000    3.923    0.000    4.000 
#    0.000    0.000    0.000    0.923    0.000    2.692 
#    0.000    4.308    0.000    0.000    0.000    0.462 
#
# Total GULP energy -289719.075848 kJ/mol
# GULP energy per Si atom -5571.520689 kJ/mol
# Density = 1.585967 g / cm^3
# Si number density = 15.895853 Si / 1000 Ang^3
#
#
#
# Elastic Constant Matrix: (Units=GPa)
#
#
# Indices 1 2 3 4 5 6 
#
# 1 98.4807 12.8944 71.4111 0.0000 0.0000 0.0000
# 2 12.8944 16.1726 18.6484 0.0000 0.0000 0.0000
# 3 71.4111 18.6484 164.3297 0.0000 0.0000 0.0000
# 4 0.0000 0.0000 0.0000 16.4879 0.0000 0.0000
# 5 0.0000 0.0000 0.0000 0.0000 20.2539 0.0000
# 6 0.0000 0.0000 0.0000 0.0000 0.0000 12.2724
#
#
#
# Elastic Compliance Matrix: (Units=1/GPa)
#
#
# Indices 1 2 3 4 5 6 
#
# 1 0.015194 -0.005178 -0.006015 0.000000 0.000000 0.000000
# 2 -0.005178 0.072907 -0.006023 0.000000 0.000000 0.000000
# 3 -0.006015 -0.006023 0.009383 0.000000 0.000000 0.000000
# 4 0.000000 0.000000 0.000000 0.060650 0.000000 0.000000
# 5 0.000000 0.000000 0.000000 0.000000 0.049373 0.000000
# 6 0.000000 0.000000 0.000000 0.000000 0.000000 0.081483
#
#
# Mechanical properties :
#
#
# Convention : Reuss Voigt Hill
#
# Bulk Modulus (GPa) = 15.86029 53.87676 34.86853
# Shear Modulus (GPa) = 14.51626 21.53812 18.02719
#
# Velocity S-wave (km/s) = 3.02522 3.68496 3.37127
# Velocity P-wave (km/s) = 4.71189 7.21612 6.09403
#
# Compressibility (1/GPa) = 0.06305054
#
# Stress axis : x y z
#
# Youngs Moduli (GPa) = 65.81560 13.71606 106.57845
#
# Poissons Ratio (x) = 0.07103 0.64107
# Poissons Ratio (y) = 0.34081 0.64196
# Poissons Ratio (z) = 0.39588 0.08262
#
# Static dielectric constant tensor:
#      x y z
#    x 1.529940 0.000000 0.000000 
#    y 0.000000 1.540390 0.000000 
#    z 0.000000 0.000000 1.542660 
# 
# From -- ./inp_files/76054.got.cif
#   From: 2010.05.17/outbox.cif.g08.bks.cpg/sg65_39_cif.got.tgz:76054.got - 2010.06.03 17:01:31.
