data_PCOD9483708
_publ_section_title
;
Structure prediction by ZEFSAII (Michael W. Deem and Ramdas Pophale) SiO2 
 PCOD9483708
Probable space group: C M M M
;
_chemical_formula_sum "Si O2"
_cell_formula_units_Z 120
_cell_length_a 29.310652
_cell_length_b 15.802078
_cell_length_c 15.058698
_cell_angle_alpha 90.000000
_cell_angle_beta 90.000000
_cell_angle_gamma 90.000000
_cell_volume 6974.725243
_symmetry_space_group_name_H-M "C M M M"
_symmetry_group_IT_number 65
_symmetry_cell_setting 'orthorhombic'
loop_
_space_group_symop_operation_xyz
x,y,z
-x,-y,z
x,-y,-z
-x,y,-z
-x,-y,-z
x,y,-z
-x,y,z
x,-y,z
1/2+x,1/2+y,z
1/2-x,1/2-y,z
1/2+x,1/2-y,-z
1/2-x,1/2+y,-z
1/2-x,1/2-y,-z
1/2+x,1/2+y,-z
1/2-x,1/2+y,z
1/2+x,1/2-y,z
loop_
_atom_site_type_symbol
_atom_site_label
_atom_site_fract_x
_atom_site_fract_y
_atom_site_fract_z
Si Si1 0.196005 0.757265 0.106014
Si Si2 0.111509 0.903608 0.599750
Si Si3 0.859315 0.407283 0.106635
Si Si4 0.055514 0.597149 0.500000
Si Si5 0.552537 0.629564 0.101082
Si Si6 0.554023 0.762248 0.638443
Si Si7 0.551950 0.816523 0.840398
Si Si8 0.856180 0.094081 0.794057
O O1 0.250000 0.750000 0.119467
O O2 0.172072 0.670352 0.136241
O O3 0.172905 0.834288 0.157811
O O4 0.187697 0.768425 0.000000
O O5 0.131951 0.897976 0.500000
O O6 0.077082 0.825047 0.609139
O O7 0.142662 0.895246 0.687457
O O8 0.091857 0.000000 0.606232
O O9 0.846361 0.500000 0.140797
O O10 0.910907 0.384204 0.132027
O O11 0.856110 0.409112 0.000000
O O12 0.071814 0.500000 0.500000
O O13 0.069412 0.655347 0.416727
O O14 0.000000 0.592820 0.500000
O O15 0.500000 0.608532 0.127188
O O16 0.555527 0.731716 0.101153
O O17 0.591851 0.599288 0.167580
O O18 0.560173 0.599829 0.000000
O O19 0.500000 0.753192 0.624264
O O20 0.561593 0.782463 0.741406
O O21 0.500000 0.848088 0.844032
O O22 0.838860 0.000000 0.814864
#
# Coordination Sequence:
#
# PCOD9483708 Si02
#       8
#    16  16  16   8  16  16  16  16
#     4  10  21  38  59  82 110 141 175 220 272 326
#     4  10  20  33  51  76 105 138 175 218 269 324
#     4  10  20  34  52  74 102 135 173 218 265 312
#     4   9  18  30  43  61  87 121 167 226 282 321
#     4  10  19  31  49  73 106 148 188 224 263 312
#     4  10  18  30  47  66  95 135 179 226 271 316
#     4  10  19  31  49  72 101 141 184 221 259 313
#     4  11  22  36  56  82 112 145 182 224 271 327
#
# _framework density 17.204979000000002
#
# number of rings (size 3 to 8) (size 9 to 14) (size 15 to 20)
#    0.000    1.933    3.333    0.800    0.000    3.733 
#    0.000    6.000    0.000    0.400    0.000    0.000 
#    0.000    0.000    0.000    0.000    0.000    0.000 
#
# Total GULP energy -334442.919634 kJ/mol
# GULP energy per Si atom -5574.048661 kJ/mol
# Density = 1.716582 g / cm^3
# Si number density = 17.204979 Si / 1000 Ang^3
#
#
#
# Elastic Constant Matrix: (Units=GPa)
#
#
# Indices 1 2 3 4 5 6 
#
# 1 50.5584 46.9951 28.1270 0.0000 0.0000 0.0000
# 2 46.9951 161.6800 45.5982 0.0000 0.0000 0.0000
# 3 28.1270 45.5982 79.6130 0.0000 0.0000 0.0000
# 4 0.0000 0.0000 0.0000 -12.1759 0.0000 0.0000
# 5 0.0000 0.0000 0.0000 0.0000 11.2778 0.0000
# 6 0.0000 0.0000 0.0000 0.0000 0.0000 -1.8710
#
#
#
# Elastic Compliance Matrix: (Units=1/GPa)
#
#
# Indices 1 2 3 4 5 6 
#
# 1 0.029776 -0.006784 -0.006634 0.000000 0.000000 0.000000
# 2 -0.006784 0.008922 -0.002713 0.000000 0.000000 0.000000
# 3 -0.006634 -0.002713 0.016459 0.000000 0.000000 0.000000
# 4 0.000000 0.000000 0.000000 -0.082129 0.000000 0.000000
# 5 0.000000 0.000000 0.000000 0.000000 0.088669 0.000000
# 6 0.000000 0.000000 0.000000 0.000000 0.000000 -0.534485
#
#
# Mechanical properties :
#
#
# Convention : Reuss Voigt Hill
#
# Bulk Modulus (GPa) = 43.68037 59.25465 51.46751
# Shear Modulus (GPa) = -11.55018 10.85493 -0.34762
#
# Velocity S-wave (km/s) = -2.59381 2.51453 -0.44998
# Velocity P-wave (km/s) = 4.05868 6.55330 5.45062
#
# Compressibility (1/GPa) = 0.02289358
#
# Stress axis : x y z
#
# Youngs Moduli (GPa) = 33.58458 112.08062 60.75804
#
# Poissons Ratio (x) = 0.76033 0.40308
# Poissons Ratio (y) = 0.22783 0.16486
# Poissons Ratio (z) = 0.22281 0.30413
#
# Static dielectric constant tensor:
#      x y z
#    x 1.559920 0.000000 0.000000 
#    y 0.000000 1.605440 0.000000 
#    z 0.000000 0.000000 1.615750 
# 
# From -- ./inp_files/48082.got.cif
#   From: 2010.05.17/outbox.cif.g08.bks.cpg/sg65_25_cif.got.tgz:48082.got - 2010.06.03 17:01:31.
