data_PCOD9483746
_publ_section_title
;
Structure prediction by ZEFSAII (Michael W. Deem and Ramdas Pophale) SiO2 
 PCOD9483746
Probable space group: C M M M
;
_chemical_formula_sum "Si O2"
_cell_formula_units_Z 72
_cell_length_a 20.102016
_cell_length_b 23.039115
_cell_length_c 7.339632
_cell_angle_alpha 90.000000
_cell_angle_beta 90.000000
_cell_angle_gamma 90.000000
_cell_volume 3399.223280
_symmetry_space_group_name_H-M "C M M M"
_symmetry_group_IT_number 65
_symmetry_cell_setting 'orthorhombic'
loop_
_space_group_symop_operation_xyz
x,y,z
-x,-y,z
x,-y,-z
-x,y,-z
-x,-y,-z
x,y,-z
-x,y,z
x,-y,z
1/2+x,1/2+y,z
1/2-x,1/2-y,z
1/2+x,1/2-y,-z
1/2-x,1/2+y,-z
1/2-x,1/2-y,-z
1/2+x,1/2+y,-z
1/2-x,1/2+y,z
1/2+x,1/2-y,z
loop_
_atom_site_type_symbol
_atom_site_label
_atom_site_fract_x
_atom_site_fract_y
_atom_site_fract_z
Si Si1 0.575885 0.216361 0.277748
Si Si2 0.923879 0.500000 0.218164
Si Si3 0.834874 0.387769 0.712608
Si Si4 0.924463 0.848887 0.721732
Si Si5 0.806768 0.933081 0.276964
O O1 0.576213 0.215220 0.500000
O O2 0.500000 0.202336 0.222817
O O3 0.627604 0.168411 0.211231
O O4 0.590723 0.282535 0.223509
O O5 0.883806 0.557118 0.276069
O O6 0.000000 0.500000 0.284355
O O7 0.925332 0.500000 0.000000
O O8 0.823435 0.374962 0.500000
O O9 0.763095 0.405932 0.786615
O O10 0.924387 0.849339 0.500000
O O11 0.869056 0.894271 0.781338
O O12 0.000000 0.862741 0.778655
O O13 0.805961 0.933250 0.500000
O O14 0.811710 0.000000 0.220567
#
# Coordination Sequence:
#
# PCOD9483746 Si02
#       5
#    16   8  16  16  16
#     4   8  14  24  39  61  87 117 154 189 224 270
#     4  11  23  35  47  67  94 123 156 188 221 269
#     4  10  18  30  48  68  93 122 152 190 230 268
#     4   8  14  24  37  58  92 126 152 186 232 275
#     4   9  16  25  38  60  91 123 157 190 223 271
#
# _framework density 21.181308999999999
#
# number of rings (size 3 to 8) (size 9 to 14) (size 15 to 20)
#    0.000    3.000    1.111    2.333    0.000    3.111 
#    0.000    6.667    0.000    0.000    0.000    3.111 
#    0.000    3.556    0.000    0.000    0.000    0.000 
#
# Total GULP energy -201008.244212 kJ/mol
# GULP energy per Si atom -5583.562339 kJ/mol
# Density = 2.113310 g / cm^3
# Si number density = 21.181309 Si / 1000 Ang^3
#
#
#
# Elastic Constant Matrix: (Units=GPa)
#
#
# Indices 1 2 3 4 5 6 
#
# 1 222.0736 166.6979 2.3496 0.0000 0.0000 0.0000
# 2 166.6979 192.8347 5.2236 0.0000 0.0000 0.0000
# 3 2.3496 5.2236 80.0983 0.0000 0.0000 0.0000
# 4 0.0000 0.0000 0.0000 -45.6618 0.0000 0.0000
# 5 0.0000 0.0000 0.0000 0.0000 -38.9925 0.0000
# 6 0.0000 0.0000 0.0000 0.0000 0.0000 99.6360
#
#
#
# Elastic Compliance Matrix: (Units=1/GPa)
#
#
# Indices 1 2 3 4 5 6 
#
# 1 0.012835 -0.011105 0.000348 0.000000 0.000000 0.000000
# 2 -0.011105 0.014803 -0.000640 0.000000 0.000000 0.000000
# 3 0.000348 -0.000640 0.012516 0.000000 0.000000 0.000000
# 4 0.000000 0.000000 0.000000 -0.021900 0.000000 0.000000
# 5 0.000000 0.000000 0.000000 0.000000 -0.025646 0.000000
# 6 0.000000 0.000000 0.000000 0.000000 0.000000 0.010037
#
#
# Mechanical properties :
#
#
# Convention : Reuss Voigt Hill
#
# Bulk Modulus (GPa) = 57.60184 93.72763 75.66474
# Shear Modulus (GPa) = 160.12802 24.37870 92.25336
#
# Velocity S-wave (km/s) = 8.70419 3.39625 6.60672
# Velocity P-wave (km/s) = 11.32567 7.72823 9.69527
#
# Compressibility (1/GPa) = 0.01736056
#
# Stress axis : x y z
#
# Youngs Moduli (GPa) = 77.91122 67.55465 79.89662
#
# Poissons Ratio (x) = 0.75019 -0.02778
# Poissons Ratio (y) = 0.86519 0.05110
# Poissons Ratio (z) = -0.02709 0.04321
#
# Static dielectric constant tensor:
#      x y z
#    x 1.726860 0.000000 0.000000 
#    y 0.000000 1.711440 0.000000 
#    z 0.000000 0.000000 1.785180 
# 
# From -- ./inp_files/11216.got.cif
#   From: 2010.05.17/outbox.cif.g08.bks.cpg/sg65_6_cif.got.tgz:11216.got - 2010.06.03 17:01:31.
