data_PCOD9484035
_publ_section_title
;
Structure prediction by ZEFSAII (Michael W. Deem and Ramdas Pophale) SiO2 
 PCOD9484035
Probable space group: C M M M
;
_chemical_formula_sum "Si O2"
_cell_formula_units_Z 80
_cell_length_a 26.438519
_cell_length_b 27.776769
_cell_length_c 7.728504
_cell_angle_alpha 90.000000
_cell_angle_beta 90.000000
_cell_angle_gamma 90.000000
_cell_volume 5675.632761
_symmetry_space_group_name_H-M "C M M M"
_symmetry_group_IT_number 65
_symmetry_cell_setting 'orthorhombic'
loop_
_space_group_symop_operation_xyz
x,y,z
-x,-y,z
x,-y,-z
-x,y,-z
-x,-y,-z
x,y,-z
-x,y,z
x,-y,z
1/2+x,1/2+y,z
1/2-x,1/2-y,z
1/2+x,1/2-y,-z
1/2-x,1/2+y,-z
1/2-x,1/2-y,-z
1/2+x,1/2+y,-z
1/2-x,1/2+y,z
1/2+x,1/2-y,z
loop_
_atom_site_type_symbol
_atom_site_label
_atom_site_fract_x
_atom_site_fract_y
_atom_site_fract_z
Si Si1 0.762076 0.871866 0.301077
Si Si2 0.644772 0.301661 0.293213
Si Si3 0.705366 0.784777 0.797335
Si Si4 0.900750 0.056011 0.000000
Si Si5 0.940291 0.125369 0.295257
Si Si6 0.778639 0.056050 0.000000
O O1 0.770472 0.886300 0.500000
O O2 0.809942 0.838497 0.242635
O O3 0.713851 0.836141 0.289756
O O4 0.759298 0.915715 0.169156
O O5 0.647050 0.297686 0.500000
O O6 0.656240 0.248489 0.223004
O O7 0.592655 0.327669 0.246542
O O8 0.750000 0.750000 0.726454
O O9 0.714607 0.792641 0.000000
O O10 0.921964 0.082988 0.830572
O O11 0.839852 0.059077 0.000000
O O12 0.915254 0.000000 0.000000
O O13 0.930415 0.115170 0.500000
O O14 0.000000 0.132922 0.274277
O O15 0.764661 0.000000 0.000000
#
# Coordination Sequence:
#
# PCOD9484035 Si02
#       6
#    16  16  16   8  16   8
#     4  10  18  31  47  63  85 110 138 173 212 253
#     4   9  17  28  43  64  86 108 137 171 209 259
#     4   9  16  24  43  67  87 108 131 163 208 252
#     4  11  23  36  50  62  77 105 145 193 239 269
#     4  10  21  35  49  64  84 111 142 180 226 268
#     4  11  22  33  46  64  84 110 145 182 226 266
#
# _framework density 14.095345
#
# number of rings (size 3 to 8) (size 9 to 14) (size 15 to 20)
#    0.000    2.200    3.000    0.900    2.800    4.000 
#    0.000    3.000    0.000    0.000    0.000    0.000 
#    0.000    0.000    0.000    0.000    0.000    2.000 
#
# Total GULP energy -222850.109445 kJ/mol
# GULP energy per Si atom -5571.252736 kJ/mol
# Density = 1.406326 g / cm^3
# Si number density = 14.095345 Si / 1000 Ang^3
#
#
#
# Elastic Constant Matrix: (Units=GPa)
#
#
# Indices 1 2 3 4 5 6 
#
# 1 43.1176 44.1102 24.2306 0.0000 0.0000 0.0000
# 2 44.1102 101.9390 50.2503 0.0000 0.0000 0.0000
# 3 24.2306 50.2503 69.9979 0.0000 0.0000 0.0000
# 4 0.0000 0.0000 0.0000 9.8754 0.0000 0.0000
# 5 0.0000 0.0000 0.0000 0.0000 14.0407 0.0000
# 6 0.0000 0.0000 0.0000 0.0000 0.0000 18.0944
#
#
#
# Elastic Compliance Matrix: (Units=1/GPa)
#
#
# Indices 1 2 3 4 5 6 
#
# 1 0.041852 -0.016975 -0.002301 0.000000 0.000000 0.000000
# 2 -0.016975 0.022068 -0.009966 0.000000 0.000000 0.000000
# 3 -0.002301 -0.009966 0.022237 0.000000 0.000000 0.000000
# 4 0.000000 0.000000 0.000000 0.101262 0.000000 0.000000
# 5 0.000000 0.000000 0.000000 0.000000 0.071221 0.000000
# 6 0.000000 0.000000 0.000000 0.000000 0.000000 0.055266
#
#
# Mechanical properties :
#
#
# Convention : Reuss Voigt Hill
#
# Bulk Modulus (GPa) = 36.13788 50.24852 43.19320
# Shear Modulus (GPa) = 13.10224 14.83300 13.96762
#
# Velocity S-wave (km/s) = 3.05215 3.24749 3.15133
# Velocity P-wave (km/s) = 6.17371 7.05606 6.62958
#
# Compressibility (1/GPa) = 0.02767180
#
# Stress axis : x y z
#
# Youngs Moduli (GPa) = 23.89387 45.31469 44.96997
#
# Poissons Ratio (x) = 0.76924 0.10348
# Poissons Ratio (y) = 0.40561 0.44817
# Poissons Ratio (z) = 0.05498 0.45160
#
# Static dielectric constant tensor:
#      x y z
#    x 1.468430 0.000000 0.000000 
#    y 0.000000 1.466870 0.000000 
#    z 0.000000 0.000000 1.496110 
# 
# From -- ./inp_files/14213.got.cif
#   From: 2010.05.17/outbox.cif.g08.bks.cpg/sg65_8_cif.got.tgz:14213.got - 2010.06.03 17:01:31.
