data_PCOD9484943
_publ_section_title
;
Structure prediction by ZEFSAII (Michael W. Deem and Ramdas Pophale) SiO2 
 PCOD9484943
Probable space group: C M M M
;
_chemical_formula_sum "Si O2"
_cell_formula_units_Z 96
_cell_length_a 7.607222
_cell_length_b 27.581198
_cell_length_c 25.404373
_cell_angle_alpha 90.000000
_cell_angle_beta 90.000000
_cell_angle_gamma 90.000000
_cell_volume 5330.251450
_symmetry_space_group_name_H-M "C M M M"
_symmetry_group_IT_number 65
_symmetry_cell_setting 'orthorhombic'
loop_
_space_group_symop_operation_xyz
x,y,z
-x,-y,z
x,-y,-z
-x,y,-z
-x,-y,-z
x,y,-z
-x,y,z
x,-y,z
1/2+x,1/2+y,z
1/2-x,1/2-y,z
1/2+x,1/2-y,-z
1/2-x,1/2+y,-z
1/2-x,1/2-y,-z
1/2+x,1/2+y,-z
1/2-x,1/2+y,z
1/2+x,1/2-y,z
loop_
_atom_site_type_symbol
_atom_site_label
_atom_site_fract_x
_atom_site_fract_y
_atom_site_fract_z
Si Si1 0.788784 0.692372 0.056642
Si Si2 0.790481 0.305180 0.609671
Si Si3 0.211530 0.307231 0.829223
Si Si4 0.792583 0.346800 0.719615
Si Si5 0.786892 0.054187 0.332813
Si Si6 0.794043 0.903596 0.557511
O O1 0.750000 0.750000 0.056737
O O2 0.722157 0.674673 0.113568
O O3 0.000000 0.686433 0.056422
O O4 0.722092 0.673357 0.000000
O O5 0.750000 0.250000 0.595605
O O6 0.721425 0.317670 0.668687
O O7 0.718938 0.346500 0.571063
O O8 0.000000 0.311422 0.610028
O O9 0.250000 0.250000 0.825302
O O10 0.281292 0.332169 0.776294
O O11 0.000000 0.313186 0.830286
O O12 0.770347 0.403206 0.706013
O O13 0.000000 0.335608 0.721398
O O14 0.721692 0.068817 0.391363
O O15 0.000000 0.055127 0.333884
O O16 0.730305 0.000000 0.319060
O O17 0.716821 0.913731 0.500000
O O18 0.000000 0.916380 0.555235
#
# Coordination Sequence:
#
# PCOD9484943 Si02
#       6
#    16  16  16  16  16  16
#     4   8  13  21  33  50  75 108 142 172 200 229
#     4  10  19  30  44  61  83 111 140 168 198 232
#     4   9  16  25  38  58  84 113 144 173 200 233
#     4   9  18  30  43  61  84 109 137 168 201 240
#     4   9  18  32  49  67  84 102 126 160 203 247
#     4   9  18  32  48  65  84 105 130 160 195 238
#
# _framework density 18.010408000000002
#
# number of rings (size 3 to 8) (size 9 to 14) (size 15 to 20)
#    0.000    3.000    0.000    1.000    0.000    2.667 
#    0.000    1.667    0.000    0.000    0.000    4.667 
#    0.000    0.667    0.000    8.333    0.000    1.333 
#
# Total GULP energy -267358.850028 kJ/mol
# GULP energy per Si atom -5569.976042 kJ/mol
# Density = 1.796942 g / cm^3
# Si number density = 18.010408 Si / 1000 Ang^3
#
#
#
# Elastic Constant Matrix: (Units=GPa)
#
#
# Indices 1 2 3 4 5 6 
#
# 1 38.9982 -17.3898 1.0692 0.0000 0.0000 0.0000
# 2 -17.3898 34.2895 8.9588 0.0000 0.0000 0.0000
# 3 1.0692 8.9588 137.4411 0.0000 0.0000 0.0000
# 4 0.0000 0.0000 0.0000 8.1521 0.0000 0.0000
# 5 0.0000 0.0000 0.0000 0.0000 -1.2524 0.0000
# 6 0.0000 0.0000 0.0000 0.0000 0.0000 15.0515
#
#
#
# Elastic Compliance Matrix: (Units=1/GPa)
#
#
# Indices 1 2 3 4 5 6 
#
# 1 0.033394 0.017298 -0.001387 0.000000 0.000000 0.000000
# 2 0.017298 0.038629 -0.002653 0.000000 0.000000 0.000000
# 3 -0.001387 -0.002653 0.007460 0.000000 0.000000 0.000000
# 4 0.000000 0.000000 0.000000 0.122668 0.000000 0.000000
# 5 0.000000 0.000000 0.000000 0.000000 -0.798443 0.000000
# 6 0.000000 0.000000 0.000000 0.000000 0.000000 0.066439
#
#
# Mechanical properties :
#
#
# Convention : Reuss Voigt Hill
#
# Bulk Modulus (GPa) = 9.43414 21.77837 15.60625
# Shear Modulus (GPa) = -9.59622 18.92960 4.66669
#
# Velocity S-wave (km/s) = -2.31078 3.24549 1.61144
# Velocity P-wave (km/s) = 1.36752 5.11494 3.48515
#
# Compressibility (1/GPa) = 0.10599805
#
# Stress axis : x y z
#
# Youngs Moduli (GPa) = 29.94592 25.88731 134.05665
#
# Poissons Ratio (x) = -0.44779 0.18598
# Poissons Ratio (y) = -0.51800 0.35559
# Poissons Ratio (z) = 0.04154 0.06867
#
# Static dielectric constant tensor:
#      x y z
#    x 1.757810 0.000000 0.000000 
#    y 0.000000 1.572630 0.000000 
#    z 0.000000 0.000000 1.688640 
# 
# From -- ./inp_files/68040.got.cif
#   From: 2010.05.17/outbox.cif.g08.bks.cpg/sg65_35_cif.got.tgz:68040.got - 2010.06.03 17:01:31.
