data_PCOD9484410
_publ_section_title
;
Structure prediction by ZEFSAII (Michael W. Deem and Ramdas Pophale) SiO2 
 PCOD9484410
Probable space group: C M M M
;
_chemical_formula_sum "Si O2"
_cell_formula_units_Z 96
_cell_length_a 23.631937
_cell_length_b 8.580865
_cell_length_c 26.178221
_cell_angle_alpha 90.000000
_cell_angle_beta 90.000000
_cell_angle_gamma 90.000000
_cell_volume 5308.484081
_symmetry_space_group_name_H-M "C M M M"
_symmetry_group_IT_number 65
_symmetry_cell_setting 'orthorhombic'
loop_
_space_group_symop_operation_xyz
x,y,z
-x,-y,z
x,-y,-z
-x,y,-z
-x,-y,-z
x,y,-z
-x,y,z
x,-y,z
1/2+x,1/2+y,z
1/2-x,1/2-y,z
1/2+x,1/2-y,-z
1/2-x,1/2+y,-z
1/2-x,1/2-y,-z
1/2+x,1/2+y,-z
1/2-x,1/2+y,z
1/2+x,1/2-y,z
loop_
_atom_site_type_symbol
_atom_site_label
_atom_site_fract_x
_atom_site_fract_y
_atom_site_fract_z
Si Si1 0.880020 0.687723 0.897310
Si Si2 0.185784 0.313699 0.500000
Si Si3 0.500000 0.687579 0.866447
Si Si4 0.685623 0.313851 0.607667
Si Si5 0.618159 0.814099 0.295911
Si Si6 0.000000 0.187374 0.254563
Si Si7 0.313066 0.313884 0.199994
Si Si8 0.813885 0.687656 0.000000
O O1 0.878201 0.500000 0.893103
O O2 0.847644 0.763536 0.849787
O O3 0.848390 0.734674 0.949413
O O4 0.944271 0.745134 0.893136
O O5 0.185665 0.500000 0.500000
O O6 0.250000 0.250000 0.500000
O O7 0.162482 0.249818 0.446553
O O8 0.500000 0.500000 0.868762
O O9 0.500000 0.731819 0.805869
O O10 0.688858 0.500000 0.606051
O O11 0.750000 0.250000 0.615072
O O12 0.645604 0.257750 0.653273
O O13 0.555963 0.751449 0.281953
O O14 0.657747 0.762298 0.249038
O O15 0.617047 0.000000 0.300129
O O16 0.000000 0.000000 0.256512
O O17 0.313415 0.500000 0.205311
O O18 0.250000 0.250000 0.195163
O O19 0.750000 0.750000 0.000000
O O20 0.810942 0.500000 0.000000
#
# Coordination Sequence:
#
# PCOD9484410 Si02
#       8
#    16   8   8  16  16   8  16   8
#     4  11  23  41  64  89 119 156 197 243 295 350
#     4  10  18  32  54  83 118 159 204 248 297 356
#     4  11  23  40  64  91 120 154 198 245 294 351
#     4  11  21  36  57  86 123 161 201 249 301 355
#     4  12  24  39  60  87 117 155 198 245 299 354
#     4  11  23  41  62  87 119 155 198 244 295 354
#     4  12  24  39  58  86 119 154 194 240 295 357
#     4  10  24  43  64  91 121 156 196 242 295 356
#
# _framework density 18.084258999999999
#
# number of rings (size 3 to 8) (size 9 to 14) (size 15 to 20)
#    0.000    0.833    1.667    8.250    0.000    3.667 
#    0.000    1.667    0.000    0.500    0.000    3.500 
#    0.000    0.000    0.000    0.000    0.000    0.000 
#
# Total GULP energy -268450.325318 kJ/mol
# GULP energy per Si atom -5592.715111 kJ/mol
# Density = 1.804310 g / cm^3
# Si number density = 18.084259 Si / 1000 Ang^3
#
#
#
# Elastic Constant Matrix: (Units=GPa)
#
#
# Indices 1 2 3 4 5 6 
#
# 1 144.9759 39.3411 66.0023 0.0000 0.0000 0.0000
# 2 39.3411 136.2117 46.9940 0.0000 0.0000 0.0000
# 3 66.0023 46.9940 156.1412 0.0000 0.0000 0.0000
# 4 0.0000 0.0000 0.0000 -124.5897 0.0000 0.0000
# 5 0.0000 0.0000 0.0000 0.0000 19.8725 0.0000
# 6 0.0000 0.0000 0.0000 0.0000 0.0000 37.6187
#
#
#
# Elastic Compliance Matrix: (Units=1/GPa)
#
#
# Indices 1 2 3 4 5 6 
#
# 1 0.008774 -0.001400 -0.003288 0.000000 0.000000 0.000000
# 2 -0.001400 0.008416 -0.001941 0.000000 0.000000 0.000000
# 3 -0.003288 -0.001941 0.008378 0.000000 0.000000 0.000000
# 4 0.000000 0.000000 0.000000 -0.008026 0.000000 0.000000
# 5 0.000000 0.000000 0.000000 0.000000 0.050321 0.000000
# 6 0.000000 0.000000 0.000000 0.000000 0.000000 0.026582
#
#
# Mechanical properties :
#
#
# Convention : Reuss Voigt Hill
#
# Bulk Modulus (GPa) = 81.22872 82.44485 81.83678
# Shear Modulus (GPa) = 44.72028 5.57974 25.15001
#
# Velocity S-wave (km/s) = 4.97821 1.75844 3.73327
# Velocity P-wave (km/s) = 8.83503 7.05770 7.99590
#
# Compressibility (1/GPa) = 0.01231092
#
# Stress axis : x y z
#
# Youngs Moduli (GPa) = 113.96858 118.82784 119.35485
#
# Poissons Ratio (x) = 0.16636 0.39240
# Poissons Ratio (y) = 0.15955 0.23167
# Poissons Ratio (z) = 0.37469 0.23065
#
# Static dielectric constant tensor:
#      x y z
#    x 1.629640 0.000000 0.000000 
#    y 0.000000 1.604980 0.000000 
#    z 0.000000 0.000000 1.620880 
# 
# From -- ./inp_files/71510.got.cif
#   From: 2010.05.17/outbox.cif.g08.bks.cpg/sg65_36_cif.got.tgz:71510.got - 2010.06.03 17:01:31.
