data_PCOD9484764
_publ_section_title
;
Structure prediction by ZEFSAII (Michael W. Deem and Ramdas Pophale) SiO2 
 PCOD9484764
Probable space group: C M M M
;
_chemical_formula_sum "Si O2"
_cell_formula_units_Z 64
_cell_length_a 19.298474
_cell_length_b 7.351653
_cell_length_c 21.851182
_cell_angle_alpha 90.000000
_cell_angle_beta 90.000000
_cell_angle_gamma 90.000000
_cell_volume 3100.151399
_symmetry_space_group_name_H-M "C M M M"
_symmetry_group_IT_number 65
_symmetry_cell_setting 'orthorhombic'
loop_
_space_group_symop_operation_xyz
x,y,z
-x,-y,z
x,-y,-z
-x,y,-z
-x,-y,-z
x,y,-z
-x,y,z
x,-y,z
1/2+x,1/2+y,z
1/2-x,1/2-y,z
1/2+x,1/2-y,-z
1/2-x,1/2+y,-z
1/2-x,1/2-y,-z
1/2+x,1/2+y,-z
1/2-x,1/2+y,z
1/2+x,1/2-y,z
loop_
_atom_site_type_symbol
_atom_site_label
_atom_site_fract_x
_atom_site_fract_y
_atom_site_fract_z
Si Si1 0.419762 0.221638 0.615108
Si Si2 0.167219 0.283079 0.000000
Si Si3 0.331665 0.782804 0.500000
Si Si4 0.667881 0.217584 0.866942
Si Si5 0.580184 0.221497 0.247820
O O1 0.500000 0.274264 0.604507
O O2 0.369879 0.285371 0.561122
O O3 0.398933 0.279322 0.683668
O O4 0.418963 0.000000 0.615124
O O5 0.250000 0.250000 0.000000
O O6 0.143202 0.212935 0.066258
O O7 0.155450 0.500000 0.000000
O O8 0.250000 0.750000 0.500000
O O9 0.341475 0.000000 0.500000
O O10 0.750000 0.250000 0.861227
O O11 0.627256 0.286952 0.807882
O O12 0.658164 0.000000 0.868241
O O13 0.500000 0.272473 0.238740
O O14 0.582592 0.000000 0.247852
#
# Coordination Sequence:
#
# PCOD9484764 Si02
#       5
#    16   8   8  16  16
#     4   8  14  26  44  62  79 105 141 171 193 229
#     4   8  14  24  37  55  79 105 133 162 194 236
#     4  10  19  29  43  65  89 108 130 166 206 238
#     4   9  16  26  41  60  81 106 135 166 200 238
#     4   8  14  25  41  61  83 105 132 168 205 237
#
# _framework density 20.644151999999998
#
# number of rings (size 3 to 8) (size 9 to 14) (size 15 to 20)
#    0.000    3.500    0.000    1.875    0.000    2.500 
#    0.000    0.625    0.000    6.000    0.000    3.500 
#    0.000   10.000    0.000    0.000    0.000    0.000 
#
# Total GULP energy -178370.535544 kJ/mol
# GULP energy per Si atom -5574.079236 kJ/mol
# Density = 2.059717 g / cm^3
# Si number density = 20.644152 Si / 1000 Ang^3
#
#
#
# Elastic Constant Matrix: (Units=GPa)
#
#
# Indices 1 2 3 4 5 6 
#
# 1 89.6315 -0.0284 132.1988 0.0000 0.0000 0.0000
# 2 -0.0284 78.8128 11.6580 0.0000 0.0000 0.0000
# 3 132.1988 11.6580 283.2580 0.0000 0.0000 0.0000
# 4 0.0000 0.0000 0.0000 -6.3328 0.0000 0.0000
# 5 0.0000 0.0000 0.0000 0.0000 50.2916 0.0000
# 6 0.0000 0.0000 0.0000 0.0000 0.0000 11.4834
#
#
#
# Elastic Compliance Matrix: (Units=1/GPa)
#
#
# Indices 1 2 3 4 5 6 
#
# 1 0.036296 0.002534 -0.017044 0.000000 0.000000 0.000000
# 2 0.002534 0.012943 -0.001715 0.000000 0.000000 0.000000
# 3 -0.017044 -0.001715 0.011555 0.000000 0.000000 0.000000
# 4 0.000000 0.000000 0.000000 -0.157909 0.000000 0.000000
# 5 0.000000 0.000000 0.000000 0.000000 0.019884 0.000000
# 6 0.000000 0.000000 0.000000 0.000000 0.000000 0.087082
#
#
# Mechanical properties :
#
#
# Convention : Reuss Voigt Hill
#
# Bulk Modulus (GPa) = 35.28066 82.15100 58.71583
# Shear Modulus (GPa) = 96.61817 31.61337 64.11577
#
# Velocity S-wave (km/s) = 6.84860 3.91749 5.57898
# Velocity P-wave (km/s) = 8.92551 7.76804 8.36682
#
# Compressibility (1/GPa) = 0.02834414
#
# Stress axis : x y z
#
# Youngs Moduli (GPa) = 27.55132 77.26207 86.53906
#
# Poissons Ratio (x) = -0.19580 1.47496
# Poissons Ratio (y) = -0.06982 0.14845
# Poissons Ratio (z) = 0.46958 0.13254
#
# Static dielectric constant tensor:
#      x y z
#    x 1.672690 0.000000 0.000000 
#    y 0.000000 1.824880 0.000000 
#    z 0.000000 0.000000 1.771230 
# 
# From -- ./inp_files/51080.got.cif
#   From: 2010.05.17/outbox.cif.g08.bks.cpg/sg65_26_cif.got.tgz:51080.got - 2010.06.03 17:01:31.
