data_PCOD9484842
_publ_section_title
;
Structure prediction by ZEFSAII (Michael W. Deem and Ramdas Pophale) SiO2 
 PCOD9484842
Probable space group: C M M M
;
_chemical_formula_sum "Si O2"
_cell_formula_units_Z 104
_cell_length_a 29.630467
_cell_length_b 14.306895
_cell_length_c 14.761401
_cell_angle_alpha 90.000000
_cell_angle_beta 90.000000
_cell_angle_gamma 90.000000
_cell_volume 6257.652819
_symmetry_space_group_name_H-M "C M M M"
_symmetry_group_IT_number 65
_symmetry_cell_setting 'orthorhombic'
loop_
_space_group_symop_operation_xyz
x,y,z
-x,-y,z
x,-y,-z
-x,y,-z
-x,-y,-z
x,y,-z
-x,y,z
x,-y,z
1/2+x,1/2+y,z
1/2-x,1/2-y,z
1/2+x,1/2-y,-z
1/2-x,1/2+y,-z
1/2-x,1/2-y,-z
1/2+x,1/2+y,-z
1/2-x,1/2+y,z
1/2+x,1/2-y,z
loop_
_atom_site_type_symbol
_atom_site_label
_atom_site_fract_x
_atom_site_fract_y
_atom_site_fract_z
Si Si1 0.249933 0.112154 0.199443
Si Si2 0.000000 0.605744 0.109931
Si Si3 0.449394 0.388395 0.743133
Si Si4 0.317700 0.749162 0.891690
Si Si5 0.729086 0.613260 0.600944
Si Si6 0.923779 0.750486 0.892446
Si Si7 0.625149 0.613608 0.398503
O O1 0.289924 0.161463 0.144065
O O2 0.204617 0.160491 0.159570
O O3 0.254438 0.137543 0.306303
O O4 0.248664 0.000000 0.190302
O O5 0.044667 0.663637 0.135979
O O6 0.000000 0.500000 0.144122
O O7 0.000000 0.601891 0.000000
O O8 0.500000 0.367144 0.709807
O O9 0.445668 0.500000 0.751166
O O10 0.441642 0.339543 0.838625
O O11 0.410500 0.353992 0.675340
O O12 0.370683 0.760696 0.873738
O O13 0.311205 0.738633 0.000000
O O14 0.744736 0.642970 0.500000
O O15 0.728635 0.500000 0.598726
O O16 0.676958 0.643992 0.613505
O O17 0.929097 0.762430 0.000000
O O18 0.610885 0.639649 0.500000
O O19 0.625831 0.500000 0.394520
#
# Coordination Sequence:
#
# PCOD9484842 Si02
#       7
#    16   8  16  16  16  16  16
#     4  10  19  33  52  72  99 133 165 202 246 294
#     4   9  18  34  55  73  88 115 159 207 253 292
#     4  10  19  29  45  71 101 132 161 191 236 296
#     4  10  22  35  48  71 100 130 167 209 246 289
#     4   8  14  26  46  70  94 124 161 198 239 288
#     4  10  20  35  51  69  98 129 160 204 250 290
#     4   8  14  25  41  64  96 131 165 197 228 271
#
# _framework density 16.61965
#
# number of rings (size 3 to 8) (size 9 to 14) (size 15 to 20)
#    0.000    2.692    0.769    2.769    0.000    4.308 
#    0.000    6.923    0.000    0.923    0.000    0.000 
#    0.000    1.231    0.000    0.000    0.000    0.308 
#
# Total GULP energy -289617.789854 kJ/mol
# GULP energy per Si atom -5569.572882 kJ/mol
# Density = 1.658182 g / cm^3
# Si number density = 16.619650 Si / 1000 Ang^3
#
#
#
# Elastic Constant Matrix: (Units=GPa)
#
#
# Indices 1 2 3 4 5 6 
#
# 1 39.9568 6.8972 18.2644 0.0000 0.0000 0.0000
# 2 6.8972 51.9481 16.4270 0.0000 0.0000 0.0000
# 3 18.2644 16.4270 72.4368 0.0000 0.0000 0.0000
# 4 0.0000 0.0000 0.0000 -16.6189 0.0000 0.0000
# 5 0.0000 0.0000 0.0000 0.0000 18.3787 0.0000
# 6 0.0000 0.0000 0.0000 0.0000 0.0000 10.6992
#
#
#
# Elastic Compliance Matrix: (Units=1/GPa)
#
#
# Indices 1 2 3 4 5 6 
#
# 1 0.028414 -0.001623 -0.006796 0.000000 0.000000 0.000000
# 2 -0.001623 0.020830 -0.004314 0.000000 0.000000 0.000000
# 3 -0.006796 -0.004314 0.016497 0.000000 0.000000 0.000000
# 4 0.000000 0.000000 0.000000 -0.060172 0.000000 0.000000
# 5 0.000000 0.000000 0.000000 0.000000 0.054411 0.000000
# 6 0.000000 0.000000 0.000000 0.000000 0.000000 0.093465
#
#
# Mechanical properties :
#
#
# Convention : Reuss Voigt Hill
#
# Bulk Modulus (GPa) = 24.83067 27.50210 26.16638
# Shear Modulus (GPa) = 25.99617 10.67535 18.33576
#
# Velocity S-wave (km/s) = 3.95927 2.53718 3.32514
# Velocity P-wave (km/s) = 5.98949 5.01666 5.52453
#
# Compressibility (1/GPa) = 0.04027278
#
# Stress axis : x y z
#
# Youngs Moduli (GPa) = 35.19411 48.00806 60.61647
#
# Poissons Ratio (x) = 0.07794 0.41196
# Poissons Ratio (y) = 0.05714 0.26152
# Poissons Ratio (z) = 0.23919 0.20713
#
# Static dielectric constant tensor:
#      x y z
#    x 1.570870 0.000000 0.000000 
#    y 0.000000 1.554810 0.000000 
#    z 0.000000 0.000000 1.575970 
# 
# From -- ./inp_files/48005.got.cif
#   From: 2010.05.17/outbox.cif.g08.bks.cpg/sg65_25_cif.got.tgz:48005.got - 2010.06.03 17:01:31.
