data_PCOD9484670
_publ_section_title
;
Structure prediction by ZEFSAII (Michael W. Deem and Ramdas Pophale) SiO2 
 PCOD9484670
Probable space group: C M M M
;
_chemical_formula_sum "Si O2"
_cell_formula_units_Z 60
_cell_length_a 7.320262
_cell_length_b 18.595120
_cell_length_c 20.943400
_cell_angle_alpha 90.000000
_cell_angle_beta 90.000000
_cell_angle_gamma 90.000000
_cell_volume 2850.839700
_symmetry_space_group_name_H-M "C M M M"
_symmetry_group_IT_number 65
_symmetry_cell_setting 'orthorhombic'
loop_
_space_group_symop_operation_xyz
x,y,z
-x,-y,z
x,-y,-z
-x,y,-z
-x,-y,-z
x,y,-z
-x,y,z
x,-y,z
1/2+x,1/2+y,z
1/2-x,1/2-y,z
1/2+x,1/2-y,-z
1/2-x,1/2+y,-z
1/2-x,1/2-y,-z
1/2+x,1/2+y,-z
1/2-x,1/2+y,z
1/2+x,1/2-y,z
loop_
_atom_site_type_symbol
_atom_site_label
_atom_site_fract_x
_atom_site_fract_y
_atom_site_fract_z
Si Si1 0.217530 0.665284 0.000000
Si Si2 0.000000 0.115693 0.500000
Si Si3 0.276586 0.082846 0.874040
Si Si4 0.216941 0.666226 0.750071
Si Si5 0.282361 0.835385 0.604437
O O1 0.250000 0.750000 0.000000
O O2 0.285777 0.628127 0.935300
O O3 0.000000 0.654017 0.000000
O O4 0.840192 0.121040 0.555565
O O5 0.500000 0.085074 0.873377
O O6 0.212895 0.117713 0.807647
O O7 0.223464 0.000000 0.879719
O O8 0.250000 0.750000 0.764675
O O9 0.279055 0.652133 0.677724
O O10 0.000000 0.655655 0.747590
O O11 0.500000 0.848587 0.598275
O O12 0.250000 0.750000 0.590971
#
# Coordination Sequence:
#
# PCOD9484670 Si02
#       5
#     8   4  16  16  16
#     4  10  19  31  53  83 109 142 176 214 268 318
#     4  12  20  28  46  70 105 142 165 222 280 326
#     4   9  17  31  52  77 104 136 181 226 260 305
#     4   9  18  31  47  70 101 137 172 217 268 318
#     4  10  19  28  42  69 101 138 176 215 272 334
#
# _framework density 21.046430999999998
#
# number of rings (size 3 to 8) (size 9 to 14) (size 15 to 20)
#    0.000    2.400    1.333    2.000    1.867    1.600 
#    0.000    0.000    0.000    4.000    0.000    1.867 
#    0.000    6.400    0.000    0.000    0.000    0.000 
#
# Total GULP energy -167019.734479 kJ/mol
# GULP energy per Si atom -5567.324483 kJ/mol
# Density = 2.099853 g / cm^3
# Si number density = 21.046431 Si / 1000 Ang^3
#
#
#
# Elastic Constant Matrix: (Units=GPa)
#
#
# Indices 1 2 3 4 5 6 
#
# 1 121.3688 7.6457 30.9493 0.0000 0.0000 0.0000
# 2 7.6457 97.9570 88.7028 0.0000 0.0000 0.0000
# 3 30.9493 88.7028 162.5927 0.0000 0.0000 0.0000
# 4 0.0000 0.0000 0.0000 -1.7627 0.0000 0.0000
# 5 0.0000 0.0000 0.0000 0.0000 24.3980 0.0000
# 6 0.0000 0.0000 0.0000 0.0000 0.0000 10.4345
#
#
#
# Elastic Compliance Matrix: (Units=1/GPa)
#
#
# Indices 1 2 3 4 5 6 
#
# 1 0.008791 0.001639 -0.002567 0.000000 0.000000 0.000000
# 2 0.001639 0.020481 -0.011485 0.000000 0.000000 0.000000
# 3 -0.002567 -0.011485 0.012905 0.000000 0.000000 0.000000
# 4 0.000000 0.000000 0.000000 -0.567311 0.000000 0.000000
# 5 0.000000 0.000000 0.000000 0.000000 0.040987 0.000000
# 6 0.000000 0.000000 0.000000 0.000000 0.000000 0.095836
#
#
# Mechanical properties :
#
#
# Convention : Reuss Voigt Hill
#
# Bulk Modulus (GPa) = 57.64154 70.72379 64.18266
# Shear Modulus (GPa) = -13.97818 23.58867 4.80525
#
# Velocity S-wave (km/s) = -2.57992 3.35146 1.51265
# Velocity P-wave (km/s) = 4.30959 6.97517 5.79765
#
# Compressibility (1/GPa) = 0.01734860
#
# Stress axis : x y z
#
# Youngs Moduli (GPa) = 113.75556 48.82578 77.49011
#
# Poissons Ratio (x) = -0.08000 0.19894
# Poissons Ratio (y) = -0.18640 0.89000
# Poissons Ratio (z) = 0.29204 0.56078
#
# Static dielectric constant tensor:
#      x y z
#    x 1.795760 0.000000 0.000000 
#    y 0.000000 1.719690 0.000000 
#    z 0.000000 0.000000 1.748640 
# 
# From -- ./inp_files/58870.got.cif
#   From: 2010.05.17/outbox.cif.g08.bks.cpg/sg65_30_cif.got.tgz:58870.got - 2010.06.03 17:01:31.
