data_PCOD9484295
_publ_section_title
;
Structure prediction by ZEFSAII (Michael W. Deem and Ramdas Pophale) SiO2 
 PCOD9484295
Probable space group: C M M M
;
_chemical_formula_sum "Si O2"
_cell_formula_units_Z 56
_cell_length_a 31.071651
_cell_length_b 8.765851
_cell_length_c 12.837400
_cell_angle_alpha 90.000000
_cell_angle_beta 90.000000
_cell_angle_gamma 90.000000
_cell_volume 3496.515744
_symmetry_space_group_name_H-M "C M M M"
_symmetry_group_IT_number 65
_symmetry_cell_setting 'orthorhombic'
loop_
_space_group_symop_operation_xyz
x,y,z
-x,-y,z
x,-y,-z
-x,y,-z
-x,-y,-z
x,y,-z
-x,y,z
x,-y,z
1/2+x,1/2+y,z
1/2-x,1/2-y,z
1/2+x,1/2-y,-z
1/2-x,1/2+y,-z
1/2-x,1/2-y,-z
1/2+x,1/2+y,-z
1/2-x,1/2+y,z
1/2+x,1/2-y,z
loop_
_atom_site_type_symbol
_atom_site_label
_atom_site_fract_x
_atom_site_fract_y
_atom_site_fract_z
Si Si1 0.297855 0.818653 0.285402
Si Si2 0.637395 0.680060 0.876220
Si Si3 0.298513 0.682637 0.500000
Si Si4 0.952464 0.321789 0.126265
O O1 0.250000 0.750000 0.270244
O O2 0.327988 0.772898 0.189711
O O3 0.316947 0.746040 0.391824
O O4 0.294479 0.000000 0.297140
O O5 0.644107 0.500000 0.860997
O O6 0.589160 0.726721 0.841888
O O7 0.641219 0.712535 0.000000
O O8 0.297668 0.500000 0.500000
O O9 0.250000 0.750000 0.500000
O O10 0.947047 0.500000 0.154651
O O11 0.000000 0.270441 0.162234
O O12 0.953366 0.315777 0.000000
#
# Coordination Sequence:
#
# PCOD9484295 Si02
#       4
#    16  16   8  16
#     4  11  21  34  51  70  94 124 159 196 236 279
#     4  10  20  32  46  68  98 129 161 195 234 281
#     4  10  18  32  52  72  93 116 151 196 238 276
#     4   8  14  26  44  65  90 121 156 193 233 276
#
# _framework density 16.015943
#
# number of rings (size 3 to 8) (size 9 to 14) (size 15 to 20)
#    0.000    2.286    0.000    7.286    0.000    2.857 
#    0.000    2.857    0.000    0.000    0.000    1.000 
#    0.000    8.000    0.000    0.000    0.000    0.000 
#
# Total GULP energy -156033.210599 kJ/mol
# GULP energy per Si atom -5572.614664 kJ/mol
# Density = 1.597949 g / cm^3
# Si number density = 16.015943 Si / 1000 Ang^3
#
#
#
# Elastic Constant Matrix: (Units=GPa)
#
#
# Indices 1 2 3 4 5 6 
#
# 1 76.8727 45.6046 32.6384 0.0000 0.0000 0.0000
# 2 45.6046 122.6570 45.3080 0.0000 0.0000 0.0000
# 3 32.6384 45.3080 50.6188 0.0000 0.0000 0.0000
# 4 0.0000 0.0000 0.0000 23.9305 0.0000 0.0000
# 5 0.0000 0.0000 0.0000 0.0000 -2.5018 0.0000
# 6 0.0000 0.0000 0.0000 0.0000 0.0000 28.4772
#
#
#
# Elastic Compliance Matrix: (Units=1/GPa)
#
#
# Indices 1 2 3 4 5 6 
#
# 1 0.019027 -0.003799 -0.008869 0.000000 0.000000 0.000000
# 2 -0.003799 0.012938 -0.009131 0.000000 0.000000 0.000000
# 3 -0.008869 -0.009131 0.033647 0.000000 0.000000 0.000000
# 4 0.000000 0.000000 0.000000 0.041788 0.000000 0.000000
# 5 0.000000 0.000000 0.000000 0.000000 -0.399709 0.000000
# 6 0.000000 0.000000 0.000000 0.000000 0.000000 0.035116
#
#
# Mechanical properties :
#
#
# Convention : Reuss Voigt Hill
#
# Bulk Modulus (GPa) = 45.42235 55.25005 50.33620
# Shear Modulus (GPa) = -24.24161 18.42100 -2.91030
#
# Velocity S-wave (km/s) = -3.89471 3.39509 -1.34947
# Velocity P-wave (km/s) = 2.86308 7.06687 5.39156
#
# Compressibility (1/GPa) = 0.02201560
#
# Stress axis : x y z
#
# Youngs Moduli (GPa) = 52.55578 77.29049 29.72007
#
# Poissons Ratio (x) = 0.29359 0.26358
# Poissons Ratio (y) = 0.19964 0.27139
# Poissons Ratio (z) = 0.46610 0.70578
#
# Static dielectric constant tensor:
#      x y z
#    x 1.545860 0.000000 0.000000 
#    y 0.000000 1.537750 0.000000 
#    z 0.000000 0.000000 1.550790 
# 
# From -- ./inp_files/20444.got.cif
#   From: 2010.05.17/outbox.cif.g08.bks.cpg/sg65_11_cif.got.tgz:20444.got - 2010.06.03 17:01:31.
