data_PCOD9484009
_publ_section_title
;
Structure prediction by ZEFSAII (Michael W. Deem and Ramdas Pophale) SiO2 
 PCOD9484009
Probable space group: C M M M
;
_chemical_formula_sum "Si O2"
_cell_formula_units_Z 112
_cell_length_a 18.815577
_cell_length_b 18.468077
_cell_length_c 17.525597
_cell_angle_alpha 90.000000
_cell_angle_beta 90.000000
_cell_angle_gamma 90.000000
_cell_volume 6089.926323
_symmetry_space_group_name_H-M "C M M M"
_symmetry_group_IT_number 65
_symmetry_cell_setting 'orthorhombic'
loop_
_space_group_symop_operation_xyz
x,y,z
-x,-y,z
x,-y,-z
-x,y,-z
-x,-y,-z
x,y,-z
-x,y,z
x,-y,z
1/2+x,1/2+y,z
1/2-x,1/2-y,z
1/2+x,1/2-y,-z
1/2-x,1/2+y,-z
1/2-x,1/2-y,-z
1/2+x,1/2+y,-z
1/2-x,1/2+y,z
1/2+x,1/2-y,z
loop_
_atom_site_type_symbol
_atom_site_label
_atom_site_fract_x
_atom_site_fract_y
_atom_site_fract_z
Si Si1 0.675289 0.790971 0.914151
Si Si2 0.266507 0.412748 0.137973
Si Si3 0.795794 0.083471 0.411919
Si Si4 0.278690 0.167688 0.710119
Si Si5 0.578091 0.582462 0.878791
Si Si6 0.917901 0.278486 0.232169
Si Si7 0.421354 0.617082 0.702851
O O1 0.750000 0.750000 0.898284
O O2 0.701034 0.874368 0.904685
O O3 0.616540 0.770845 0.851905
O O4 0.652563 0.776119 0.000000
O O5 0.263838 0.500000 0.138808
O O6 0.259134 0.380295 0.223852
O O7 0.342910 0.389722 0.101155
O O8 0.809498 0.101540 0.500000
O O9 0.739408 0.135498 0.371605
O O10 0.864707 0.092538 0.358544
O O11 0.772589 0.000000 0.407783
O O12 0.250000 0.250000 0.716752
O O13 0.362441 0.168764 0.726624
O O14 0.500000 0.616288 0.897394
O O15 0.575458 0.500000 0.906943
O O16 0.582298 0.580934 0.786382
O O17 0.914002 0.201969 0.276144
O O18 0.000000 0.300423 0.228661
O O19 0.500000 0.603511 0.672301
#
# Coordination Sequence:
#
# PCOD9484009 Si02
#       7
#    16  16  16  16  16  16  16
#     4  10  21  36  54  80 115 149 182 224 280 337
#     4  10  18  30  53  79 103 139 187 233 278 327
#     4  11  23  36  53  82 117 154 191 226 275 334
#     4  11  19  35  56  80 109 144 187 236 279 319
#     4   9  15  23  41  70 102 136 176 218 257 304
#     4  10  20  35  58  83 107 140 186 235 280 329
#     4  10  18  31  51  78 112 150 187 223 266 323
#
# _framework density 18.391027000000001
#
# number of rings (size 3 to 8) (size 9 to 14) (size 15 to 20)
#    0.000    1.857    2.857    3.429    0.000    2.000 
#    0.000    0.714    0.000   12.429    0.000    7.000 
#    0.000    0.000    0.000    3.714    0.000    0.000 
#
# Total GULP energy -312276.780439 kJ/mol
# GULP energy per Si atom -5576.371079 kJ/mol
# Density = 1.834917 g / cm^3
# Si number density = 18.391027 Si / 1000 Ang^3
#
#
#
# Elastic Constant Matrix: (Units=GPa)
#
#
# Indices 1 2 3 4 5 6 
#
# 1 106.7470 24.7527 17.7973 0.0000 0.0000 0.0000
# 2 24.7527 66.3818 16.2764 0.0000 0.0000 0.0000
# 3 17.7973 16.2764 92.8809 0.0000 0.0000 0.0000
# 4 0.0000 0.0000 0.0000 43.1164 0.0000 0.0000
# 5 0.0000 0.0000 0.0000 0.0000 10.8554 0.0000
# 6 0.0000 0.0000 0.0000 0.0000 0.0000 19.9584
#
#
#
# Elastic Compliance Matrix: (Units=1/GPa)
#
#
# Indices 1 2 3 4 5 6 
#
# 1 0.010420 -0.003548 -0.001375 0.000000 0.000000 0.000000
# 2 -0.003548 0.016949 -0.002290 0.000000 0.000000 0.000000
# 3 -0.001375 -0.002290 0.011431 0.000000 0.000000 0.000000
# 4 0.000000 0.000000 0.000000 0.023193 0.000000 0.000000
# 5 0.000000 0.000000 0.000000 0.000000 0.092120 0.000000
# 6 0.000000 0.000000 0.000000 0.000000 0.000000 0.050104
#
#
# Mechanical properties :
#
#
# Convention : Reuss Voigt Hill
#
# Bulk Modulus (GPa) = 41.02816 42.62916 41.82866
# Shear Modulus (GPa) = 22.04885 28.59825 25.32355
#
# Velocity S-wave (km/s) = 3.46626 3.94764 3.71476
# Velocity P-wave (km/s) = 6.19493 6.63386 6.41815
#
# Compressibility (1/GPa) = 0.02437350
#
# Stress axis : x y z
#
# Youngs Moduli (GPa) = 95.96970 59.00040 87.47955
#
# Poissons Ratio (x) = 0.20935 0.12027
# Poissons Ratio (y) = 0.34053 0.20035
# Poissons Ratio (z) = 0.13194 0.13512
#
# Static dielectric constant tensor:
#      x y z
#    x 1.670510 0.000000 0.000000 
#    y 0.000000 1.678500 0.000000 
#    z 0.000000 0.000000 1.636440 
# 
# From -- ./inp_files/56045.got.cif
#   From: 2010.05.17/outbox.cif.g08.bks.cpg/sg65_29_cif.got.tgz:56045.got - 2010.06.03 17:01:31.
