data_PCOD9484304
_publ_section_title
;
Structure prediction by ZEFSAII (Michael W. Deem and Ramdas Pophale) SiO2 
 PCOD9484304
Probable space group: C M M M
;
_chemical_formula_sum "Si O2"
_cell_formula_units_Z 104
_cell_length_a 8.609589
_cell_length_b 29.478948
_cell_length_c 24.062821
_cell_angle_alpha 90.000000
_cell_angle_beta 90.000000
_cell_angle_gamma 90.000000
_cell_volume 6107.183106
_symmetry_space_group_name_H-M "C M M M"
_symmetry_group_IT_number 65
_symmetry_cell_setting 'orthorhombic'
loop_
_space_group_symop_operation_xyz
x,y,z
-x,-y,z
x,-y,-z
-x,y,-z
-x,-y,-z
x,y,-z
-x,y,z
x,-y,z
1/2+x,1/2+y,z
1/2-x,1/2-y,z
1/2+x,1/2-y,-z
1/2-x,1/2+y,-z
1/2-x,1/2-y,-z
1/2+x,1/2+y,-z
1/2-x,1/2+y,z
1/2+x,1/2-y,z
loop_
_atom_site_type_symbol
_atom_site_label
_atom_site_fract_x
_atom_site_fract_y
_atom_site_fract_z
Si Si1 0.814773 0.301423 0.000000
Si Si2 0.184648 0.801189 0.116047
Si Si3 0.687390 0.144669 0.779733
Si Si4 0.813440 0.550989 0.729239
Si Si5 0.685490 0.449005 0.604793
Si Si6 0.687127 0.856754 0.438975
Si Si7 0.812499 0.300734 0.668181
O O1 0.750000 0.250000 0.000000
O O2 0.752518 0.320566 0.058138
O O3 0.000000 0.300925 0.000000
O O4 0.250000 0.750000 0.124002
O O5 0.234936 0.831827 0.167700
O O6 0.000000 0.798073 0.111725
O O7 0.500000 0.147653 0.785832
O O8 0.729989 0.092133 0.769539
O O9 0.731284 0.171408 0.723357
O O10 0.778256 0.500000 0.749382
O O11 0.734373 0.556799 0.669244
O O12 0.000000 0.554151 0.720356
O O13 0.500000 0.446376 0.600051
O O14 0.734790 0.500000 0.588004
O O15 0.760959 0.408324 0.570969
O O16 0.739799 0.841109 0.500000
O O17 0.500000 0.855410 0.437867
O O18 0.743406 0.826448 0.387372
O O19 0.750000 0.250000 0.670751
O O20 0.000000 0.299648 0.666694
#
# Coordination Sequence:
#
# PCOD9484304 Si02
#       7
#     8  16  16  16  16  16  16
#     4  10  18  32  52  74 105 144 181 218 258 297
#     4  11  21  33  50  76 109 145 182 216 254 300
#     4  10  19  33  52  77 106 134 170 212 255 301
#     4   9  17  32  55  78 102 134 169 205 249 303
#     4  10  20  33  51  76 104 129 156 198 255 313
#     4  10  21  38  56  72  93 127 171 212 253 307
#     4  10  21  36  52  73  98 129 165 211 257 303
#
# _framework density 17.029126999999999
#
# number of rings (size 3 to 8) (size 9 to 14) (size 15 to 20)
#    0.000    2.000    1.538    3.923    0.000    4.923 
#    0.000    1.538    0.000    0.000    0.000    0.538 
#    0.000    4.308    0.000    0.000    0.000    0.000 
#
# Total GULP energy -290187.404323 kJ/mol
# GULP energy per Si atom -5580.527006 kJ/mol
# Density = 1.699037 g / cm^3
# Si number density = 17.029127 Si / 1000 Ang^3
#
#
#
# Elastic Constant Matrix: (Units=GPa)
#
#
# Indices 1 2 3 4 5 6 
#
# 1 45.2806 25.2343 41.1958 0.0000 0.0000 0.0000
# 2 25.2343 97.1401 61.7912 0.0000 0.0000 0.0000
# 3 41.1958 61.7912 138.8797 0.0000 0.0000 0.0000
# 4 0.0000 0.0000 0.0000 21.6716 0.0000 0.0000
# 5 0.0000 0.0000 0.0000 0.0000 18.1870 0.0000
# 6 0.0000 0.0000 0.0000 0.0000 0.0000 24.2213
#
#
#
# Elastic Compliance Matrix: (Units=1/GPa)
#
#
# Indices 1 2 3 4 5 6 
#
# 1 0.030887 -0.003062 -0.007800 0.000000 0.000000 0.000000
# 2 -0.003062 0.014662 -0.005615 0.000000 0.000000 0.000000
# 3 -0.007800 -0.005615 0.012012 0.000000 0.000000 0.000000
# 4 0.000000 0.000000 0.000000 0.046143 0.000000 0.000000
# 5 0.000000 0.000000 0.000000 0.000000 0.054984 0.000000
# 6 0.000000 0.000000 0.000000 0.000000 0.000000 0.041286
#
#
# Mechanical properties :
#
#
# Convention : Reuss Voigt Hill
#
# Bulk Modulus (GPa) = 40.63819 59.74921 50.19370
# Shear Modulus (GPa) = 20.73564 23.02124 21.87844
#
# Velocity S-wave (km/s) = 3.49328 3.68077 3.58825
# Velocity P-wave (km/s) = 6.33928 7.29567 6.83422
#
# Compressibility (1/GPa) = 0.02460739
#
# Stress axis : x y z
#
# Youngs Moduli (GPa) = 32.37607 68.20529 83.24799
#
# Poissons Ratio (x) = 0.20886 0.64929
# Poissons Ratio (y) = 0.09914 0.46744
# Poissons Ratio (z) = 0.25252 0.38297
#
# Static dielectric constant tensor:
#      x y z
#    x 1.610400 0.000000 0.000000 
#    y 0.000000 1.563740 0.000000 
#    z 0.000000 0.000000 1.584400 
# 
# From -- ./inp_files/60396.got.cif
#   From: 2010.05.17/outbox.cif.g08.bks.cpg/sg65_31_cif.got.tgz:60396.got - 2010.06.03 17:01:31.
