data_PCOD9484270
_publ_section_title
;
Structure prediction by ZEFSAII (Michael W. Deem and Ramdas Pophale) SiO2 
 PCOD9484270
Probable space group: C M M M
;
_chemical_formula_sum "Si O2"
_cell_formula_units_Z 64
_cell_length_a 5.401926
_cell_length_b 14.775027
_cell_length_c 37.993758
_cell_angle_alpha 90.000000
_cell_angle_beta 90.000000
_cell_angle_gamma 90.000000
_cell_volume 3032.418699
_symmetry_space_group_name_H-M "C M M M"
_symmetry_group_IT_number 65
_symmetry_cell_setting 'orthorhombic'
loop_
_space_group_symop_operation_xyz
x,y,z
-x,-y,z
x,-y,-z
-x,y,-z
-x,-y,-z
x,y,-z
-x,y,z
x,-y,z
1/2+x,1/2+y,z
1/2-x,1/2-y,z
1/2+x,1/2-y,-z
1/2-x,1/2+y,-z
1/2-x,1/2-y,-z
1/2+x,1/2+y,-z
1/2-x,1/2+y,z
1/2+x,1/2-y,z
loop_
_atom_site_type_symbol
_atom_site_label
_atom_site_fract_x
_atom_site_fract_y
_atom_site_fract_z
Si Si1 0.500000 0.809781 0.732115
Si Si2 0.000000 0.309926 0.654681
Si Si3 0.500000 0.854496 0.041971
Si Si4 0.500000 0.389072 0.459342
Si Si5 0.000000 0.889349 0.152883
Si Si6 0.000000 0.148640 0.928339
Si Si7 0.000000 0.392201 0.578969
Si Si8 0.500000 0.107691 0.807967
O O1 0.750000 0.750000 0.733557
O O2 0.500000 0.855490 0.693413
O O3 0.500000 0.869940 0.766812
O O4 0.250000 0.250000 0.653101
O O5 0.000000 0.371007 0.620215
O O6 0.749955 0.895325 0.057407
O O7 0.500000 0.750247 0.055642
O O8 0.500000 0.855663 0.000000
O O9 0.500000 0.500000 0.459071
O O10 0.500000 0.360696 0.500000
O O11 0.748633 0.358724 0.439489
O O12 0.247842 0.860217 0.173399
O O13 0.000000 0.850884 0.113599
O O14 0.000000 0.000000 0.150499
O O15 0.000000 0.500000 0.574266
O O16 0.500000 0.000000 0.812016
#
# Coordination Sequence:
#
# PCOD9484270 Si02
#       8
#     8   8   8   8   8   8   8   8
#     4  10  21  39  57  84 109 142 180 225 271 317
#     4  10  21  37  57  76 111 146 175 216 281 333
#     4  10  19  33  53  74 103 136 169 220 267 300
#     4   9  17  30  50  77 109 140 175 228 283 321
#     4  10  21  37  55  76 108 143 175 211 258 314
#     4  10  18  32  50  75 100 131 171 206 258 307
#     4  10  19  32  54  82 104 135 189 232 263 319
#     4  10  21  39  58  79 109 149 180 214 267 325
#
# _framework density 21.105264999999999
#
# number of rings (size 3 to 8) (size 9 to 14) (size 15 to 20)
#    0.000    2.125    0.000    4.500    0.000    2.000 
#   13.500    0.000    0.000   20.625    0.000    0.000 
#    0.000    0.000    0.000    0.000    0.000    0.000 
#
# Total GULP energy -178756.402820 kJ/mol
# GULP energy per Si atom -5586.137588 kJ/mol
# Density = 2.105723 g / cm^3
# Si number density = 21.105265 Si / 1000 Ang^3
#
#
#
# Elastic Constant Matrix: (Units=GPa)
#
#
# Indices 1 2 3 4 5 6 
#
# 1 238.0175 20.8419 101.6456 0.0000 0.0000 0.0000
# 2 20.8419 44.7297 15.3727 0.0000 0.0000 0.0000
# 3 101.6456 15.3727 216.5423 0.0000 0.0000 0.0000
# 4 0.0000 0.0000 0.0000 36.2896 0.0000 0.0000
# 5 0.0000 0.0000 0.0000 0.0000 44.4127 0.0000
# 6 0.0000 0.0000 0.0000 0.0000 0.0000 -11.7330
#
#
#
# Elastic Compliance Matrix: (Units=1/GPa)
#
#
# Indices 1 2 3 4 5 6 
#
# 1 0.005375 -0.001678 -0.002404 0.000000 0.000000 0.000000
# 2 -0.001678 0.023440 -0.000876 0.000000 0.000000 0.000000
# 3 -0.002404 -0.000876 0.005809 0.000000 0.000000 0.000000
# 4 0.000000 0.000000 0.000000 0.027556 0.000000 0.000000
# 5 0.000000 0.000000 0.000000 0.000000 0.022516 0.000000
# 6 0.000000 0.000000 0.000000 0.000000 0.000000 -0.085229
#
#
# Mechanical properties :
#
#
# Convention : Reuss Voigt Hill
#
# Bulk Modulus (GPa) = 40.47527 86.11219 63.29373
# Shear Modulus (GPa) = 283.79786 37.88914 160.84350
#
# Velocity S-wave (km/s) = 11.60861 4.24163 8.73931
# Velocity P-wave (km/s) = 14.10316 8.05472 11.48428
#
# Compressibility (1/GPa) = 0.02470644
#
# Stress axis : x y z
#
# Youngs Moduli (GPa) = 186.05013 42.66273 172.15809
#
# Poissons Ratio (x) = 0.07160 0.41384
# Poissons Ratio (y) = 0.31225 0.15085
# Poissons Ratio (z) = 0.44724 0.03738
#
# Static dielectric constant tensor:
#      x y z
#    x 1.771950 0.000000 0.000000 
#    y 0.000000 1.751120 0.000000 
#    z 0.000000 0.000000 1.710110 
# 
# From -- ./inp_files/76339.got.cif
#   From: 2010.05.17/outbox.cif.g08.bks.cpg/sg65_39_cif.got.tgz:76339.got - 2010.06.03 17:01:31.
