data_PCOD9484458
_publ_section_title
;
Structure prediction by ZEFSAII (Michael W. Deem and Ramdas Pophale) SiO2 
 PCOD9484458
Probable space group: C M M M
;
_chemical_formula_sum "Si O2"
_cell_formula_units_Z 104
_cell_length_a 26.762595
_cell_length_b 8.127878
_cell_length_c 24.398165
_cell_angle_alpha 90.000000
_cell_angle_beta 90.000000
_cell_angle_gamma 90.000000
_cell_volume 5307.164659
_symmetry_space_group_name_H-M "C M M M"
_symmetry_group_IT_number 65
_symmetry_cell_setting 'orthorhombic'
loop_
_space_group_symop_operation_xyz
x,y,z
-x,-y,z
x,-y,-z
-x,y,-z
-x,-y,-z
x,y,-z
-x,y,z
x,-y,z
1/2+x,1/2+y,z
1/2-x,1/2-y,z
1/2+x,1/2-y,-z
1/2-x,1/2+y,-z
1/2-x,1/2-y,-z
1/2+x,1/2+y,-z
1/2-x,1/2+y,z
1/2+x,1/2-y,z
loop_
_atom_site_type_symbol
_atom_site_label
_atom_site_fract_x
_atom_site_fract_y
_atom_site_fract_z
Si Si1 0.107647 0.697971 0.769089
Si Si2 0.805466 0.803734 0.437758
Si Si3 0.607230 0.801743 0.642371
Si Si4 0.805345 0.193341 0.850056
Si Si5 0.556719 0.500000 0.066773
Si Si6 0.500000 0.807700 0.637080
Si Si7 0.500000 0.694926 0.238328
Si Si8 0.377698 0.816362 0.065495
O O1 0.109113 0.500000 0.771493
O O2 0.113297 0.752437 0.705515
O O3 0.153128 0.767535 0.804229
O O4 0.052718 0.756397 0.788545
O O5 0.813790 0.740341 0.500000
O O6 0.750000 0.750000 0.420688
O O7 0.847366 0.744984 0.396096
O O8 0.806684 0.000000 0.439439
O O9 0.553640 0.736796 0.620330
O O10 0.603905 0.000000 0.644212
O O11 0.750000 0.250000 0.834209
O O12 0.825696 0.287340 0.903605
O O13 0.804684 0.000000 0.861091
O O14 0.500000 0.500000 0.087732
O O15 0.586283 0.334271 0.082274
O O16 0.554692 0.500000 0.000000
O O17 0.500000 0.791436 0.703376
O O18 0.500000 0.000000 0.621683
O O19 0.500000 0.500000 0.248451
O O20 0.396802 0.000000 0.079409
O O21 0.371879 0.808236 0.000000
#
# Coordination Sequence:
#
# PCOD9484458 Si02
#       8
#    16  16  16  16   8   8   8  16
#     4  10  21  39  59  84 116 151 191 233 284 342
#     4  10  21  36  54  77 106 141 183 231 280 331
#     4   9  18  34  58  82 109 145 184 227 274 331
#     4  12  25  42  62  86 118 153 194 245 297 348
#     4   9  18  36  62  92 126 160 196 243 292 350
#     4   8  16  32  53  79 110 146 183 222 271 328
#     4  10  18  32  56  85 114 147 188 233 281 336
#     4  10  21  40  64  90 122 159 201 245 295 352
#
# _framework density 19.596152
#
# number of rings (size 3 to 8) (size 9 to 14) (size 15 to 20)
#    0.000    2.077    0.769    3.923    0.000    5.231 
#    1.385    1.923    0.000    2.308    0.000    0.000 
#    0.000    0.000    0.000    0.000    0.000    0.000 
#
# Total GULP energy -290228.826394 kJ/mol
# GULP energy per Si atom -5581.323585 kJ/mol
# Density = 1.955155 g / cm^3
# Si number density = 19.596152 Si / 1000 Ang^3
#
#
#
# Elastic Constant Matrix: (Units=GPa)
#
#
# Indices 1 2 3 4 5 6 
#
# 1 178.1576 36.1882 64.7855 0.0000 0.0000 0.0000
# 2 36.1882 83.3235 17.7402 0.0000 0.0000 0.0000
# 3 64.7855 17.7402 63.3520 0.0000 0.0000 0.0000
# 4 0.0000 0.0000 0.0000 22.6409 0.0000 0.0000
# 5 0.0000 0.0000 0.0000 0.0000 105.0627 0.0000
# 6 0.0000 0.0000 0.0000 0.0000 0.0000 25.2598
#
#
#
# Elastic Compliance Matrix: (Units=1/GPa)
#
#
# Indices 1 2 3 4 5 6 
#
# 1 0.009281 -0.002138 -0.008892 0.000000 0.000000 0.000000
# 2 -0.002138 0.013255 -0.001526 0.000000 0.000000 0.000000
# 3 -0.008892 -0.001526 0.025305 0.000000 0.000000 0.000000
# 4 0.000000 0.000000 0.000000 0.044168 0.000000 0.000000
# 5 0.000000 0.000000 0.000000 0.000000 0.009518 0.000000
# 6 0.000000 0.000000 0.000000 0.000000 0.000000 0.039589
#
#
# Mechanical properties :
#
#
# Convention : Reuss Voigt Hill
#
# Bulk Modulus (GPa) = 43.99491 62.47342 53.23417
# Shear Modulus (GPa) = 28.76823 44.33397 36.55110
#
# Velocity S-wave (km/s) = 3.83568 4.76161 4.32350
# Velocity P-wave (km/s) = 6.48969 7.88544 7.22137
#
# Compressibility (1/GPa) = 0.02272990
#
# Stress axis : x y z
#
# Youngs Moduli (GPa) = 107.74986 75.44545 39.51718
#
# Poissons Ratio (x) = 0.16127 0.35139
# Poissons Ratio (y) = 0.23032 0.06029
# Poissons Ratio (z) = 0.95813 0.11511
#
# Static dielectric constant tensor:
#      x y z
#    x 1.694560 0.000000 0.000000 
#    y 0.000000 1.698960 0.000000 
#    z 0.000000 0.000000 1.692630 
# 
# From -- ./inp_files/65956.got.cif
#   From: 2010.05.17/outbox.cif.g08.bks.cpg/sg65_33_cif.got.tgz:65956.got - 2010.06.03 17:01:31.
