data_PCOD9484786
_publ_section_title
;
Structure prediction by ZEFSAII (Michael W. Deem and Ramdas Pophale) SiO2 
 PCOD9484786
Probable space group: C M M M
;
_chemical_formula_sum "Si O2"
_cell_formula_units_Z 88
_cell_length_a 20.211229
_cell_length_b 18.022809
_cell_length_c 14.082606
_cell_angle_alpha 90.000000
_cell_angle_beta 90.000000
_cell_angle_gamma 90.000000
_cell_volume 5129.773998
_symmetry_space_group_name_H-M "C M M M"
_symmetry_group_IT_number 65
_symmetry_cell_setting 'orthorhombic'
loop_
_space_group_symop_operation_xyz
x,y,z
-x,-y,z
x,-y,-z
-x,y,-z
-x,-y,-z
x,y,-z
-x,y,z
x,-y,z
1/2+x,1/2+y,z
1/2-x,1/2-y,z
1/2+x,1/2-y,-z
1/2-x,1/2+y,-z
1/2-x,1/2-y,-z
1/2+x,1/2+y,-z
1/2-x,1/2+y,z
1/2+x,1/2-y,z
loop_
_atom_site_type_symbol
_atom_site_label
_atom_site_fract_x
_atom_site_fract_y
_atom_site_fract_z
Si Si1 0.000000 0.172055 0.606403
Si Si2 0.768160 0.087191 0.221128
Si Si3 0.000000 0.200016 0.189773
Si Si4 0.500000 0.859983 0.889102
Si Si5 0.398830 0.583824 0.111786
Si Si6 0.642745 0.910689 0.110264
Si Si7 0.359666 0.411265 0.607812
O O1 0.000000 0.222667 0.699834
O O2 0.932929 0.123532 0.614909
O O3 0.000000 0.205148 0.500000
O O4 0.821850 0.090468 0.136660
O O5 0.700044 0.119046 0.179927
O O6 0.807374 0.116817 0.313492
O O7 0.755702 0.000000 0.242185
O O8 0.061575 0.147030 0.165740
O O9 0.000000 0.272081 0.125182
O O10 0.430252 0.890660 0.852545
O O11 0.500000 0.880841 0.000000
O O12 0.418824 0.500000 0.141504
O O13 0.411075 0.590403 0.000000
O O14 0.648566 0.000000 0.106780
O O15 0.650093 0.884355 0.000000
O O16 0.336111 0.397980 0.500000
O O17 0.366690 0.500000 0.621289
#
# Coordination Sequence:
#
# PCOD9484786 Si02
#       7
#     8  16   8   8  16  16  16
#     4  10  19  30  46  65  91 132 174 204 234 279
#     4   9  16  27  46  71  97 125 158 195 238 287
#     4  12  21  32  47  66  97 135 165 202 237 278
#     4  10  21  35  51  73  97 123 159 203 249 291
#     4  10  19  29  43  66  98 135 169 194 225 280
#     4   9  17  32  54  76  97 122 155 197 245 297
#     4   9  16  26  43  70 100 127 161 207 249 279
#
# _framework density 17.154751999999998
#
# number of rings (size 3 to 8) (size 9 to 14) (size 15 to 20)
#    0.000    2.364    1.818    2.182    0.000    5.818 
#    0.000    0.909    0.000    4.364    0.000    2.545 
#    0.000    5.091    0.000    0.000    0.000    0.000 
#
# Total GULP energy -244963.695028 kJ/mol
# GULP energy per Si atom -5567.356705 kJ/mol
# Density = 1.711571 g / cm^3
# Si number density = 17.154752 Si / 1000 Ang^3
#
#
#
# Elastic Constant Matrix: (Units=GPa)
#
#
# Indices 1 2 3 4 5 6 
#
# 1 126.8803 3.7896 40.0256 0.0000 0.0000 0.0000
# 2 3.7896 4.9242 -1.5974 0.0000 0.0000 0.0000
# 3 40.0256 -1.5974 79.2968 0.0000 0.0000 0.0000
# 4 0.0000 0.0000 0.0000 10.0999 0.0000 0.0000
# 5 0.0000 0.0000 0.0000 0.0000 22.7204 0.0000
# 6 0.0000 0.0000 0.0000 0.0000 0.0000 -26.0035
#
#
#
# Elastic Compliance Matrix: (Units=1/GPa)
#
#
# Indices 1 2 3 4 5 6 
#
# 1 0.009770 -0.009178 -0.005116 0.000000 0.000000 0.000000
# 2 -0.009178 0.213037 0.008924 0.000000 0.000000 0.000000
# 3 -0.005116 0.008924 0.015373 0.000000 0.000000 0.000000
# 4 0.000000 0.000000 0.000000 0.099011 0.000000 0.000000
# 5 0.000000 0.000000 0.000000 0.000000 0.044013 0.000000
# 6 0.000000 0.000000 0.000000 0.000000 0.000000 -0.038456
#
#
# Mechanical properties :
#
#
# Convention : Reuss Voigt Hill
#
# Bulk Modulus (GPa) = 4.39677 32.83743 18.61710
# Shear Modulus (GPa) = 11.64684 12.62225 12.13455
#
# Velocity S-wave (km/s) = 2.60845 2.71548 2.66250
# Velocity P-wave (km/s) = 3.41183 5.38658 4.50865
#
# Compressibility (1/GPa) = 0.22743978
#
# Stress axis : x y z
#
# Youngs Moduli (GPa) = 102.35933 4.69402 65.04897
#
# Poissons Ratio (x) = 0.04308 0.33280
# Poissons Ratio (y) = 0.93948 -0.58052
# Poissons Ratio (z) = 0.52368 -0.04189
#
# Static dielectric constant tensor:
#      x y z
#    x 1.608930 0.000000 0.000000 
#    y 0.000000 1.556730 0.000000 
#    z 0.000000 0.000000 1.621400 
# 
# From -- ./inp_files/42786.got.cif
#   From: 2010.05.17/outbox.cif.g08.bks.cpg/sg65_22_cif.got.tgz:42786.got - 2010.06.03 17:01:31.
