data_PCOD9484853
_publ_section_title
;
Structure prediction by ZEFSAII (Michael W. Deem and Ramdas Pophale) SiO2 
 PCOD9484853
Probable space group: C M M M
;
_chemical_formula_sum "Si O2"
_cell_formula_units_Z 80
_cell_length_a 7.523009
_cell_length_b 27.767807
_cell_length_c 21.249040
_cell_angle_alpha 90.000000
_cell_angle_beta 90.000000
_cell_angle_gamma 90.000000
_cell_volume 4438.870525
_symmetry_space_group_name_H-M "C M M M"
_symmetry_group_IT_number 65
_symmetry_cell_setting 'orthorhombic'
loop_
_space_group_symop_operation_xyz
x,y,z
-x,-y,z
x,-y,-z
-x,y,-z
-x,-y,-z
x,y,-z
-x,y,z
x,-y,z
1/2+x,1/2+y,z
1/2-x,1/2-y,z
1/2+x,1/2-y,-z
1/2-x,1/2+y,-z
1/2-x,1/2-y,-z
1/2+x,1/2+y,-z
1/2-x,1/2+y,z
1/2+x,1/2-y,z
loop_
_atom_site_type_symbol
_atom_site_label
_atom_site_fract_x
_atom_site_fract_y
_atom_site_fract_z
Si Si1 0.711645 0.193564 0.362800
Si Si2 0.205484 0.899263 0.302100
Si Si3 0.787544 0.307366 0.500000
Si Si4 0.208448 0.057863 0.171857
Si Si5 0.284732 0.557108 0.431595
Si Si6 0.500000 0.058480 0.071646
O O1 0.500000 0.188240 0.363510
O O2 0.750000 0.250000 0.354512
O O3 0.785868 0.158057 0.310436
O O4 0.782941 0.176869 0.431889
O O5 0.278163 0.918227 0.236342
O O6 0.284999 0.919929 0.367127
O O7 0.000000 0.915447 0.301418
O O8 0.750000 0.250000 0.500000
O O9 0.000000 0.314182 0.500000
O O10 0.327653 0.072270 0.112470
O O11 0.000000 0.069841 0.162797
O O12 0.220933 0.000000 0.179349
O O13 0.219694 0.575697 0.500000
O O14 0.500000 0.562572 0.432203
O O15 0.248417 0.500000 0.429596
O O16 0.500000 0.000000 0.068992
O O17 0.500000 0.076190 0.000000
#
# Coordination Sequence:
#
# PCOD9484853 Si02
#       6
#    16  16   8  16  16   8
#     4  10  20  33  47  63  87 120 158 210 259 308
#     4  10  19  29  46  69  93 126 163 204 246 301
#     4   8  16  30  44  58  77 108 151 199 257 304
#     4   9  18  32  50  74 106 141 172 203 242 293
#     4   8  14  25  41  62  88 119 160 206 245 283
#     4   9  18  32  52  78 107 137 169 203 240 290
#
# _framework density 18.022601999999999
#
# number of rings (size 3 to 8) (size 9 to 14) (size 15 to 20)
#    0.000    2.900    0.000    1.800    2.800    3.600 
#    0.000    2.000    0.000    0.000    0.000    1.400 
#    0.000    0.800    0.400    0.000    0.000    0.000 
#
# Total GULP energy -223036.481168 kJ/mol
# GULP energy per Si atom -5575.912029 kJ/mol
# Density = 1.798158 g / cm^3
# Si number density = 18.022602 Si / 1000 Ang^3
#
#
#
# Elastic Constant Matrix: (Units=GPa)
#
#
# Indices 1 2 3 4 5 6 
#
# 1 72.1867 10.2288 44.6722 0.0000 0.0000 0.0000
# 2 10.2288 44.7395 47.6081 0.0000 0.0000 0.0000
# 3 44.6722 47.6081 173.9367 0.0000 0.0000 0.0000
# 4 0.0000 0.0000 0.0000 16.1849 0.0000 0.0000
# 5 0.0000 0.0000 0.0000 0.0000 10.6903 0.0000
# 6 0.0000 0.0000 0.0000 0.0000 0.0000 10.1603
#
#
#
# Elastic Compliance Matrix: (Units=1/GPa)
#
#
# Indices 1 2 3 4 5 6 
#
# 1 0.016505 0.001040 -0.004524 0.000000 0.000000 0.000000
# 2 0.001040 0.031603 -0.008917 0.000000 0.000000 0.000000
# 3 -0.004524 -0.008917 0.009352 0.000000 0.000000 0.000000
# 4 0.000000 0.000000 0.000000 0.061786 0.000000 0.000000
# 5 0.000000 0.000000 0.000000 0.000000 0.093542 0.000000
# 6 0.000000 0.000000 0.000000 0.000000 0.000000 0.098422
#
#
# Mechanical properties :
#
#
# Convention : Reuss Voigt Hill
#
# Bulk Modulus (GPa) = 30.62018 55.09791 42.85904
# Shear Modulus (GPa) = 14.41347 19.96401 17.18874
#
# Velocity S-wave (km/s) = 2.83104 3.33185 3.09161
# Velocity P-wave (km/s) = 5.26433 6.74089 6.04784
#
# Compressibility (1/GPa) = 0.03265820
#
# Stress axis : x y z
#
# Youngs Moduli (GPa) = 60.58761 31.64289 106.93200
#
# Poissons Ratio (x) = -0.03291 0.48373
# Poissons Ratio (y) = -0.06302 0.95352
# Poissons Ratio (z) = 0.27408 0.28216
#
# Static dielectric constant tensor:
#      x y z
#    x 1.671190 0.000000 0.000000 
#    y 0.000000 1.620760 0.000000 
#    z 0.000000 0.000000 1.628840 
# 
# From -- ./inp_files/50166.got.cif
#   From: 2010.05.17/outbox.cif.g08.bks.cpg/sg65_26_cif.got.tgz:50166.got - 2010.06.03 17:01:31.
