data_PCOD9484587
_publ_section_title
;
Structure prediction by ZEFSAII (Michael W. Deem and Ramdas Pophale) SiO2 
 PCOD9484587
Probable space group: C M M M
;
_chemical_formula_sum "Si O2"
_cell_formula_units_Z 58
_cell_length_a 33.282820
_cell_length_b 5.270425
_cell_length_c 18.854299
_cell_angle_alpha 90.000000
_cell_angle_beta 90.000000
_cell_angle_gamma 90.000000
_cell_volume 3307.319442
_symmetry_space_group_name_H-M "C M M M"
_symmetry_group_IT_number 65
_symmetry_cell_setting 'orthorhombic'
loop_
_space_group_symop_operation_xyz
x,y,z
-x,-y,z
x,-y,-z
-x,y,-z
-x,-y,-z
x,y,-z
-x,y,z
x,-y,z
1/2+x,1/2+y,z
1/2-x,1/2-y,z
1/2+x,1/2-y,-z
1/2-x,1/2+y,-z
1/2-x,1/2-y,-z
1/2+x,1/2+y,-z
1/2-x,1/2+y,z
1/2+x,1/2-y,z
loop_
_atom_site_type_symbol
_atom_site_label
_atom_site_fract_x
_atom_site_fract_y
_atom_site_fract_z
Si Si1 0.057562 0.000000 0.637131
Si Si2 0.045068 0.000000 0.915177
Si Si3 0.097158 0.500000 0.084867
Si Si4 0.852067 0.000000 0.687751
Si Si5 0.776909 0.000000 0.582925
Si Si6 0.542594 0.000000 0.727586
Si Si7 0.500000 0.500000 0.500000
Si Si8 0.632802 0.000000 0.222485
O O1 0.106244 0.000000 0.642509
O O2 0.044220 0.749181 0.678933
O O3 0.035359 0.000000 0.562133
O O4 0.070629 0.249888 0.899230
O O5 0.000000 0.000000 0.883959
O O6 0.040616 0.000000 0.000000
O O7 0.135560 0.500000 0.137174
O O8 0.106102 0.500000 0.000000
O O9 0.851846 0.249218 0.737665
O O10 0.814844 0.000000 0.634525
O O11 0.750000 0.750000 0.594620
O O12 0.789513 0.000000 0.500000
O O13 0.500000 0.000000 0.767658
O O14 0.584480 0.000000 0.767710
#
# Coordination Sequence:
#
# PCOD9484587 Si02
#       8
#     8   8   8   8   8   8   2   8
#     4  10  22  31  51  69  99 134 178 226 256 299
#     4   9  17  28  43  64  94 128 175 235 290 332
#     4  10  19  32  48  71 100 134 179 230 278 326
#     4  10  21  39  55  81 111 142 177 217 270 324
#     4  10  21  38  63  90 118 143 172 215 269 332
#     4  10  18  35  43  63  93 132 177 218 265 304
#     4  12  20  34  52  74  96 138 190 226 260 294
#     4  10  21  34  53  73 105 144 178 222 268 321
#
# _framework density 17.536860999999998
#
# number of rings (size 3 to 8) (size 9 to 14) (size 15 to 20)
#    0.000    2.069    1.379    2.069    0.966    3.862 
#    0.000    0.000    0.000    0.000    0.000    0.000 
#    0.000   11.034    0.000    0.000    0.000    0.000 
#
# Total GULP energy -161455.952916 kJ/mol
# GULP energy per Si atom -5567.446652 kJ/mol
# Density = 1.749695 g / cm^3
# Si number density = 17.536861 Si / 1000 Ang^3
#
#
#
# Elastic Constant Matrix: (Units=GPa)
#
#
# Indices 1 2 3 4 5 6 
#
# 1 95.2625 44.4175 57.0667 0.0000 0.0000 0.0000
# 2 44.4175 166.0318 59.6202 0.0000 0.0000 0.0000
# 3 57.0667 59.6202 112.2560 0.0000 0.0000 0.0000
# 4 0.0000 0.0000 0.0000 -8.5679 0.0000 0.0000
# 5 0.0000 0.0000 0.0000 0.0000 21.7755 0.0000
# 6 0.0000 0.0000 0.0000 0.0000 0.0000 9.6464
#
#
#
# Elastic Compliance Matrix: (Units=1/GPa)
#
#
# Indices 1 2 3 4 5 6 
#
# 1 0.015439 -0.001621 -0.006988 0.000000 0.000000 0.000000
# 2 -0.001621 0.007613 -0.003219 0.000000 0.000000 0.000000
# 3 -0.006988 -0.003219 0.014170 0.000000 0.000000 0.000000
# 4 0.000000 0.000000 0.000000 -0.116714 0.000000 0.000000
# 5 0.000000 0.000000 0.000000 0.000000 0.045923 0.000000
# 6 0.000000 0.000000 0.000000 0.000000 0.000000 0.103666
#
#
# Mechanical properties :
#
#
# Convention : Reuss Voigt Hill
#
# Bulk Modulus (GPa) = 73.71250 77.30656 75.50953
# Shear Modulus (GPa) = 50.87818 18.73386 34.80602
#
# Velocity S-wave (km/s) = 5.39214 3.27197 4.45987
# Velocity P-wave (km/s) = 8.99394 7.64541 8.34696
#
# Compressibility (1/GPa) = 0.01356622
#
# Stress axis : x y z
#
# Youngs Moduli (GPa) = 64.77049 131.36242 70.57117
#
# Poissons Ratio (x) = 0.21296 0.49313
# Poissons Ratio (y) = 0.10500 0.22717
# Poissons Ratio (z) = 0.45259 0.42285
#
# Static dielectric constant tensor:
#      x y z
#    x 1.577730 0.000000 0.000000 
#    y 0.000000 1.591570 0.000000 
#    z 0.000000 0.000000 1.618300 
# 
# From -- ./inp_files/57080.got.cif
#   From: 2010.05.17/outbox.cif.g08.bks.cpg/sg65_29_cif.got.tgz:57080.got - 2010.06.03 17:01:31.
