data_PCOD9484336
_publ_section_title
;
Structure prediction by ZEFSAII (Michael W. Deem and Ramdas Pophale) SiO2 
 PCOD9484336
Probable space group: C M M M
;
_chemical_formula_sum "Si O2"
_cell_formula_units_Z 72
_cell_length_a 14.947268
_cell_length_b 8.785275
_cell_length_c 24.842934
_cell_angle_alpha 90.000000
_cell_angle_beta 90.000000
_cell_angle_gamma 90.000000
_cell_volume 3262.271240
_symmetry_space_group_name_H-M "C M M M"
_symmetry_group_IT_number 65
_symmetry_cell_setting 'orthorhombic'
loop_
_space_group_symop_operation_xyz
x,y,z
-x,-y,z
x,-y,-z
-x,y,-z
-x,-y,-z
x,y,-z
-x,y,z
x,-y,z
1/2+x,1/2+y,z
1/2-x,1/2-y,z
1/2+x,1/2-y,-z
1/2-x,1/2+y,-z
1/2-x,1/2-y,-z
1/2+x,1/2+y,-z
1/2-x,1/2+y,z
1/2+x,1/2-y,z
loop_
_atom_site_type_symbol
_atom_site_label
_atom_site_fract_x
_atom_site_fract_y
_atom_site_fract_z
Si Si1 0.392687 0.183677 0.057703
Si Si2 0.890297 0.322420 0.174221
Si Si3 0.605597 0.667785 0.717528
Si Si4 0.151115 0.320051 0.391868
Si Si5 0.648427 0.681885 0.500000
O O1 0.500000 0.208898 0.056988
O O2 0.360331 0.240565 0.115855
O O3 0.380689 0.000000 0.058420
O O4 0.357685 0.242270 0.000000
O O5 0.865609 0.500000 0.178827
O O6 0.857813 0.233591 0.226657
O O7 0.000000 0.318915 0.173719
O O8 0.500000 0.652088 0.726510
O O9 0.643672 0.500000 0.705028
O O10 0.613688 0.776047 0.666188
O O11 0.152451 0.500000 0.399741
O O12 0.250000 0.250000 0.389905
O O13 0.107050 0.242652 0.444351
O O14 0.651583 0.500000 0.500000
O O15 0.750000 0.750000 0.500000
#
# Coordination Sequence:
#
# PCOD9484336 Si02
#       5
#    16  16  16  16   8
#     4   7   9  14  27  49  76 106 143 187 230 271
#     4   8  13  22  37  57  82 115 154 192 232 279
#     4  10  20  33  48  68  97 131 164 198 239 284
#     4  11  21  35  55  77 100 125 158 196 235 279
#     4  10  18  32  53  76 101 126 155 189 231 279
#
# _framework density 22.070513999999999
#
# number of rings (size 3 to 8) (size 9 to 14) (size 15 to 20)
#    0.000    2.889    0.000    7.000    0.000    1.333 
#    0.000    0.556    0.000    4.000    0.000    4.667 
#    0.000    0.889    0.000    2.444    0.000    6.222 
#
# Total GULP energy -200670.701420 kJ/mol
# GULP energy per Si atom -5574.186151 kJ/mol
# Density = 2.202028 g / cm^3
# Si number density = 22.070514 Si / 1000 Ang^3
#
#
#
# Elastic Constant Matrix: (Units=GPa)
#
#
# Indices 1 2 3 4 5 6 
#
# 1 42.6499 4.0820 11.0686 0.0000 0.0000 0.0000
# 2 4.0820 133.3084 73.7795 0.0000 0.0000 0.0000
# 3 11.0686 73.7795 228.8890 0.0000 0.0000 0.0000
# 4 0.0000 0.0000 0.0000 43.5835 0.0000 0.0000
# 5 0.0000 0.0000 0.0000 0.0000 20.5428 0.0000
# 6 0.0000 0.0000 0.0000 0.0000 0.0000 7.6421
#
#
#
# Elastic Compliance Matrix: (Units=1/GPa)
#
#
# Indices 1 2 3 4 5 6 
#
# 1 0.023746 -0.000111 -0.001112 0.000000 0.000000 0.000000
# 2 -0.000111 0.009131 -0.002938 0.000000 0.000000 0.000000
# 3 -0.001112 -0.002938 0.005370 0.000000 0.000000 0.000000
# 4 0.000000 0.000000 0.000000 0.022944 0.000000 0.000000
# 5 0.000000 0.000000 0.000000 0.000000 0.048679 0.000000
# 6 0.000000 0.000000 0.000000 0.000000 0.000000 0.130854
#
#
# Mechanical properties :
#
#
# Convention : Reuss Voigt Hill
#
# Bulk Modulus (GPa) = 33.41888 64.74528 49.08208
# Shear Modulus (GPa) = 19.30339 35.41483 27.35911
#
# Velocity S-wave (km/s) = 2.96061 4.01012 3.52465
# Velocity P-wave (km/s) = 5.18283 7.13027 6.23307
#
# Compressibility (1/GPa) = 0.02992321
#
# Stress axis : x y z
#
# Youngs Moduli (GPa) = 42.11220 109.52025 186.23085
#
# Poissons Ratio (x) = 0.01221 0.20716
# Poissons Ratio (y) = 0.00469 0.54711
# Poissons Ratio (z) = 0.04684 0.32175
#
# Static dielectric constant tensor:
#      x y z
#    x 1.813030 0.000000 0.000000 
#    y 0.000000 1.776220 0.000000 
#    z 0.000000 0.000000 1.899290 
# 
# From -- ./inp_files/70741.got.cif
#   From: 2010.05.17/outbox.cif.g08.bks.cpg/sg65_36_cif.got.tgz:70741.got - 2010.06.03 17:01:31.
