data_PCOD9484470
_publ_section_title
;
Structure prediction by ZEFSAII (Michael W. Deem and Ramdas Pophale) SiO2 
 PCOD9484470
Probable space group: C M M M
;
_chemical_formula_sum "Si O2"
_cell_formula_units_Z 64
_cell_length_a 14.588207
_cell_length_b 20.262098
_cell_length_c 12.167483
_cell_angle_alpha 90.000000
_cell_angle_beta 90.000000
_cell_angle_gamma 90.000000
_cell_volume 3596.558070
_symmetry_space_group_name_H-M "C M M M"
_symmetry_group_IT_number 65
_symmetry_cell_setting 'orthorhombic'
loop_
_space_group_symop_operation_xyz
x,y,z
-x,-y,z
x,-y,-z
-x,y,-z
-x,-y,-z
x,y,-z
-x,y,z
x,-y,z
1/2+x,1/2+y,z
1/2-x,1/2-y,z
1/2+x,1/2-y,-z
1/2-x,1/2+y,-z
1/2-x,1/2-y,-z
1/2+x,1/2+y,-z
1/2-x,1/2+y,z
1/2+x,1/2-y,z
loop_
_atom_site_type_symbol
_atom_site_label
_atom_site_fract_x
_atom_site_fract_y
_atom_site_fract_z
Si Si1 0.318828 0.923538 0.233056
Si Si2 0.854988 0.227696 0.000000
Si Si3 0.000000 0.770330 0.628464
Si Si4 0.823187 0.189358 0.237526
Si Si5 0.397559 0.121772 0.000000
Si Si6 0.000000 0.611969 0.369916
O O1 0.235537 0.875432 0.264323
O O2 0.408296 0.913559 0.309804
O O3 0.293148 0.000000 0.234083
O O4 0.347478 0.901268 0.110067
O O5 0.750000 0.250000 0.000000
O O6 0.865354 0.189049 0.113770
O O7 0.903758 0.298585 0.000000
O O8 0.907879 0.797744 0.683068
O O9 0.000000 0.784523 0.500000
O O10 0.000000 0.691141 0.643708
O O11 0.750000 0.250000 0.243075
O O12 0.500000 0.093862 0.000000
O O13 0.000000 0.596176 0.500000
#
# Coordination Sequence:
#
# PCOD9484470 Si02
#       6
#    16   8   8  16   8   8
#     4  12  24  38  58  89 127 161 193 237 301 368
#     4  10  18  32  58  86 119 147 193 237 286 353
#     4  11  24  40  64  93 114 149 211 267 297 342
#     4  11  21  39  62  88 121 157 200 247 300 355
#     4  12  21  33  58  94 127 154 190 242 304 361
#     4  11  23  39  59  87 120 154 196 246 301 357
#
# _framework density 17.794792000000001
#
# number of rings (size 3 to 8) (size 9 to 14) (size 15 to 20)
#    0.000    0.750    8.750    0.750    1.750    3.000 
#    0.000    0.625    0.000    0.750    0.000    3.500 
#    0.000    0.000    0.000    0.000    0.000    0.000 
#
# Total GULP energy -178721.242104 kJ/mol
# GULP energy per Si atom -5585.038816 kJ/mol
# Density = 1.775429 g / cm^3
# Si number density = 17.794792 Si / 1000 Ang^3
#
#
#
# Elastic Constant Matrix: (Units=GPa)
#
#
# Indices 1 2 3 4 5 6 
#
# 1 108.1681 59.2267 54.3804 0.0000 0.0000 0.0000
# 2 59.2267 112.7589 38.4523 0.0000 0.0000 0.0000
# 3 54.3804 38.4523 93.3149 0.0000 0.0000 0.0000
# 4 0.0000 0.0000 0.0000 -13.0466 0.0000 0.0000
# 5 0.0000 0.0000 0.0000 0.0000 11.6220 0.0000
# 6 0.0000 0.0000 0.0000 0.0000 0.0000 6.9082
#
#
#
# Elastic Compliance Matrix: (Units=1/GPa)
#
#
# Indices 1 2 3 4 5 6 
#
# 1 0.016003 -0.006079 -0.006821 0.000000 0.000000 0.000000
# 2 -0.006079 0.012628 -0.001661 0.000000 0.000000 0.000000
# 3 -0.006821 -0.001661 0.015376 0.000000 0.000000 0.000000
# 4 0.000000 0.000000 0.000000 -0.076648 0.000000 0.000000
# 5 0.000000 0.000000 0.000000 0.000000 0.086043 0.000000
# 6 0.000000 0.000000 0.000000 0.000000 0.000000 0.144755
#
#
# Mechanical properties :
#
#
# Convention : Reuss Voigt Hill
#
# Bulk Modulus (GPa) = 67.18348 68.70677 67.94512
# Shear Modulus (GPa) = 21.52957 11.90891 16.71924
#
# Velocity S-wave (km/s) = 3.48211 2.58977 3.06855
# Velocity P-wave (km/s) = 7.34869 6.90195 7.12882
#
# Compressibility (1/GPa) = 0.01488461
#
# Stress axis : x y z
#
# Youngs Moduli (GPa) = 62.48981 79.18864 65.03846
#
# Poissons Ratio (x) = 0.48143 0.44360
# Poissons Ratio (y) = 0.37991 0.10801
# Poissons Ratio (z) = 0.42621 0.13151
#
# Static dielectric constant tensor:
#      x y z
#    x 1.585770 0.000000 0.000000 
#    y 0.000000 1.606400 0.000000 
#    z 0.000000 0.000000 1.644610 
# 
# From -- ./inp_files/24000.got.cif
#   From: 2010.05.17/outbox.cif.g08.bks.cpg/sg65_12_cif.got.tgz:24000.got - 2010.06.03 17:01:31.
