data_PCOD9484913
_publ_section_title
;
Structure prediction by ZEFSAII (Michael W. Deem and Ramdas Pophale) SiO2 
 PCOD9484913
Probable space group: C M M M
;
_chemical_formula_sum "Si O2"
_cell_formula_units_Z 104
_cell_length_a 23.735307
_cell_length_b 18.166516
_cell_length_c 20.128610
_cell_angle_alpha 90.000000
_cell_angle_beta 90.000000
_cell_angle_gamma 90.000000
_cell_volume 8679.211755
_symmetry_space_group_name_H-M "C M M M"
_symmetry_group_IT_number 65
_symmetry_cell_setting 'orthorhombic'
loop_
_space_group_symop_operation_xyz
x,y,z
-x,-y,z
x,-y,-z
-x,y,-z
-x,-y,-z
x,y,-z
-x,y,z
x,-y,z
1/2+x,1/2+y,z
1/2-x,1/2-y,z
1/2+x,1/2-y,-z
1/2-x,1/2+y,-z
1/2-x,1/2-y,-z
1/2+x,1/2+y,-z
1/2-x,1/2+y,z
1/2+x,1/2-y,z
loop_
_atom_site_type_symbol
_atom_site_label
_atom_site_fract_x
_atom_site_fract_y
_atom_site_fract_z
Si Si1 0.114842 0.355554 0.647228
Si Si2 0.932637 0.500000 0.576529
Si Si3 0.567741 0.087915 0.071353
Si Si4 0.067778 0.411115 0.218620
Si Si5 0.652023 0.583247 0.419577
Si Si6 0.232263 0.664415 0.422239
Si Si7 0.433684 0.289190 0.578998
O O1 0.089709 0.427149 0.611312
O O2 0.101370 0.368913 0.724350
O O3 0.179727 0.349647 0.625387
O O4 0.084520 0.282923 0.619031
O O5 0.915067 0.500000 0.500000
O O6 0.000000 0.500000 0.580228
O O7 0.500000 0.097110 0.071091
O O8 0.586021 0.113429 0.144352
O O9 0.577790 0.000000 0.070953
O O10 0.589129 0.117481 0.000000
O O11 0.076044 0.500000 0.224609
O O12 0.000000 0.399429 0.226244
O O13 0.649375 0.580746 0.500000
O O14 0.644224 0.500000 0.394884
O O15 0.713617 0.615494 0.403862
O O16 0.604228 0.641482 0.399399
O O17 0.217123 0.649259 0.500000
O O18 0.250000 0.750000 0.419135
O O19 0.422748 0.275960 0.500000
O O20 0.500000 0.303595 0.586609
#
# Coordination Sequence:
#
# PCOD9484913 Si02
#       7
#    16   8  16  16  16  16  16
#     4  12  20  28  40  55  77 106 135 161 196 233
#     4  11  22  30  36  52  79 109 138 164 187 227
#     4   7  10  18  33  50  69  99 135 161 181 213
#     4   9  16  25  35  52  81 109 131 158 191 225
#     4   9  18  31  45  59  71  87 119 167 213 243
#     4  10  19  32  45  55  70  96 133 171 202 231
#     4  10  19  30  43  56  71  95 126 161 203 247
#
# _framework density 11.982654999999999
#
# number of rings (size 3 to 8) (size 9 to 14) (size 15 to 20)
#    0.000    2.385    2.308    4.154    1.077    1.538 
#    0.000    1.538    0.000    0.000    0.000    0.000 
#    0.000    0.615    0.000    0.000    0.000    0.769 
#
# Total GULP energy -289504.348350 kJ/mol
# GULP energy per Si atom -5567.391314 kJ/mol
# Density = 1.195538 g / cm^3
# Si number density = 11.982655 Si / 1000 Ang^3
#
#
#
# Elastic Constant Matrix: (Units=GPa)
#
#
# Indices 1 2 3 4 5 6 
#
# 1 54.1409 28.1107 42.8651 0.0000 0.0000 0.0000
# 2 28.1107 70.4799 35.6276 0.0000 0.0000 0.0000
# 3 42.8651 35.6276 99.4150 0.0000 0.0000 0.0000
# 4 0.0000 0.0000 0.0000 6.6897 0.0000 0.0000
# 5 0.0000 0.0000 0.0000 0.0000 11.2806 0.0000
# 6 0.0000 0.0000 0.0000 0.0000 0.0000 12.2540
#
#
#
# Elastic Compliance Matrix: (Units=1/GPa)
#
#
# Indices 1 2 3 4 5 6 
#
# 1 0.030449 -0.006726 -0.010718 0.000000 0.000000 0.000000
# 2 -0.006726 0.018813 -0.003842 0.000000 0.000000 0.000000
# 3 -0.010718 -0.003842 0.016057 0.000000 0.000000 0.000000
# 4 0.000000 0.000000 0.000000 0.149483 0.000000 0.000000
# 5 0.000000 0.000000 0.000000 0.000000 0.088648 0.000000
# 6 0.000000 0.000000 0.000000 0.000000 0.000000 0.081606
#
#
# Mechanical properties :
#
#
# Convention : Reuss Voigt Hill
#
# Bulk Modulus (GPa) = 43.96339 48.58250 46.27294
# Shear Modulus (GPa) = 11.48870 13.87370 12.68120
#
# Velocity S-wave (km/s) = 3.09977 3.40636 3.25668
# Velocity P-wave (km/s) = 7.04133 7.49020 7.26923
#
# Compressibility (1/GPa) = 0.02274620
#
# Stress axis : x y z
#
# Youngs Moduli (GPa) = 32.84225 53.15383 62.27793
#
# Poissons Ratio (x) = 0.35753 0.66750
# Poissons Ratio (y) = 0.22091 0.23927
# Poissons Ratio (z) = 0.35201 0.20421
#
# Static dielectric constant tensor:
#      x y z
#    x 1.383830 0.000000 0.000000 
#    y 0.000000 1.382880 0.000000 
#    z 0.000000 0.000000 1.403220 
# 
# From -- ./inp_files/65498.got.cif
#   From: 2010.05.17/outbox.cif.g08.bks.cpg/sg65_33_cif.got.tgz:65498.got - 2010.06.03 17:01:31.
