data_PCOD9484511
_publ_section_title
;
Structure prediction by ZEFSAII (Michael W. Deem and Ramdas Pophale) SiO2 
 PCOD9484511
Probable space group: C M M M
;
_chemical_formula_sum "Si O2"
_cell_formula_units_Z 116
_cell_length_a 15.516075
_cell_length_b 18.703326
_cell_length_c 23.026666
_cell_angle_alpha 90.000000
_cell_angle_beta 90.000000
_cell_angle_gamma 90.000000
_cell_volume 6682.389338
_symmetry_space_group_name_H-M "C M M M"
_symmetry_group_IT_number 65
_symmetry_cell_setting 'orthorhombic'
loop_
_space_group_symop_operation_xyz
x,y,z
-x,-y,z
x,-y,-z
-x,y,-z
-x,-y,-z
x,y,-z
-x,y,z
x,-y,z
1/2+x,1/2+y,z
1/2-x,1/2-y,z
1/2+x,1/2-y,-z
1/2-x,1/2+y,-z
1/2-x,1/2-y,-z
1/2+x,1/2+y,-z
1/2-x,1/2+y,z
1/2+x,1/2-y,z
loop_
_atom_site_type_symbol
_atom_site_label
_atom_site_fract_x
_atom_site_fract_y
_atom_site_fract_z
Si Si1 0.730654 0.081030 0.367963
Si Si2 0.719595 0.329476 0.155449
Si Si3 0.599597 0.584918 0.930973
Si Si4 0.599667 0.813841 0.431887
Si Si5 0.097848 0.224131 0.743413
Si Si6 0.500000 0.000000 0.756300
Si Si7 0.157423 0.614281 0.753533
Si Si8 0.901877 0.158553 0.614961
O O1 0.663778 0.136483 0.396206
O O2 0.720288 0.088623 0.298274
O O3 0.826111 0.101397 0.389382
O O4 0.708349 0.000000 0.383995
O O5 0.750000 0.250000 0.136389
O O6 0.667152 0.370308 0.106176
O O7 0.657435 0.314298 0.210086
O O8 0.796132 0.376222 0.184075
O O9 0.500000 0.603418 0.916270
O O10 0.610099 0.500000 0.920153
O O11 0.610497 0.596444 0.000000
O O12 0.605896 0.830218 0.500000
O O13 0.500000 0.825014 0.412759
O O14 0.618010 0.729892 0.421976
O O15 0.129401 0.305262 0.736821
O O16 0.100450 0.185997 0.681429
O O17 0.000000 0.224640 0.764602
O O18 0.423878 0.937740 0.755601
O O19 0.000000 0.134990 0.601711
#
# Coordination Sequence:
#
# PCOD9484511 Si02
#       8
#    16  16  16  16  16   4  16  16
#     4  12  24  36  56  83 117 150 186 232 288 350
#     4  10  21  34  56  86 115 148 191 242 278 329
#     4   9  19  37  60  85 116 155 193 232 284 339
#     4  10  23  41  63  87 108 142 193 241 286 341
#     4  10  18  33  55  80 111 147 187 230 282 327
#     4  12  24  36  52  76 124 162 186 224 286 370
#     4  11  22  34  51  82 114 153 191 225 282 348
#     4  10  21  38  61  79 109 151 187 234 283 340
#
# _framework density 17.359058999999998
#
# number of rings (size 3 to 8) (size 9 to 14) (size 15 to 20)
#    0.000    1.655    4.138    1.241    1.931    2.207 
#    0.000    0.690    0.000    0.000    0.000    3.379 
#    0.000    0.000    0.000    0.000    0.000    0.000 
#
# Total GULP energy -323141.418994 kJ/mol
# GULP energy per Si atom -5571.403776 kJ/mol
# Density = 1.731955 g / cm^3
# Si number density = 17.359059 Si / 1000 Ang^3
#
#
#
# Elastic Constant Matrix: (Units=GPa)
#
#
# Indices 1 2 3 4 5 6 
#
# 1 85.2048 34.3466 29.0070 0.0000 0.0000 0.0000
# 2 34.3466 40.4158 25.7293 0.0000 0.0000 0.0000
# 3 29.0070 25.7293 48.1151 0.0000 0.0000 0.0000
# 4 0.0000 0.0000 0.0000 2.2892 0.0000 0.0000
# 5 0.0000 0.0000 0.0000 0.0000 23.5912 0.0000
# 6 0.0000 0.0000 0.0000 0.0000 0.0000 25.6634
#
#
#
# Elastic Compliance Matrix: (Units=1/GPa)
#
#
# Indices 1 2 3 4 5 6 
#
# 1 0.018379 -0.012986 -0.004136 0.000000 0.000000 0.000000
# 2 -0.012986 0.046689 -0.017138 0.000000 0.000000 0.000000
# 3 -0.004136 -0.017138 0.032441 0.000000 0.000000 0.000000
# 4 0.000000 0.000000 0.000000 0.436830 0.000000 0.000000
# 5 0.000000 0.000000 0.000000 0.000000 0.042389 0.000000
# 6 0.000000 0.000000 0.000000 0.000000 0.000000 0.038966
#
#
# Mechanical properties :
#
#
# Convention : Reuss Voigt Hill
#
# Bulk Modulus (GPa) = 34.49500 39.10015 36.79758
# Shear Modulus (GPa) = 7.20588 15.95230 11.57909
#
# Velocity S-wave (km/s) = 2.03963 3.03473 2.58550
# Velocity P-wave (km/s) = 5.04593 5.90361 5.49154
#
# Compressibility (1/GPa) = 0.02898971
#
# Stress axis : x y z
#
# Youngs Moduli (GPa) = 54.40893 21.41831 30.82508
#
# Poissons Ratio (x) = 0.27815 0.12749
# Poissons Ratio (y) = 0.70657 0.52827
# Poissons Ratio (z) = 0.22503 0.36706
#
# Static dielectric constant tensor:
#      x y z
#    x 1.610960 0.000000 0.000000 
#    y 0.000000 1.579560 0.000000 
#    z 0.000000 0.000000 1.573100 
# 
# From -- ./inp_files/70196.got.cif
#   From: 2010.05.17/outbox.cif.g08.bks.cpg/sg65_36_cif.got.tgz:70196.got - 2010.06.03 17:01:31.
