data_PCOD9484746
_publ_section_title
;
Structure prediction by ZEFSAII (Michael W. Deem and Ramdas Pophale) SiO2 
 PCOD9484746
Probable space group: C M M M
;
_chemical_formula_sum "Si O2"
_cell_formula_units_Z 96
_cell_length_a 9.127626
_cell_length_b 27.193923
_cell_length_c 23.416359
_cell_angle_alpha 90.000000
_cell_angle_beta 90.000000
_cell_angle_gamma 90.000000
_cell_volume 5812.313997
_symmetry_space_group_name_H-M "C M M M"
_symmetry_group_IT_number 65
_symmetry_cell_setting 'orthorhombic'
loop_
_space_group_symop_operation_xyz
x,y,z
-x,-y,z
x,-y,-z
-x,y,-z
-x,-y,-z
x,y,-z
-x,y,z
x,-y,z
1/2+x,1/2+y,z
1/2-x,1/2-y,z
1/2+x,1/2-y,-z
1/2-x,1/2+y,-z
1/2-x,1/2-y,-z
1/2+x,1/2+y,-z
1/2-x,1/2+y,z
1/2+x,1/2-y,z
loop_
_atom_site_type_symbol
_atom_site_label
_atom_site_fract_x
_atom_site_fract_y
_atom_site_fract_z
Si Si1 0.664039 0.795521 0.242851
Si Si2 0.675773 0.698231 0.433749
Si Si3 0.175103 0.136457 0.328225
Si Si4 0.330142 0.301696 0.931411
Si Si5 0.823032 0.557428 0.752949
Si Si6 0.835156 0.622554 0.854618
O O1 0.500000 0.783251 0.262536
O O2 0.750000 0.750000 0.217869
O O3 0.763695 0.817383 0.292598
O O4 0.653130 0.836482 0.194749
O O5 0.714740 0.689201 0.500000
O O6 0.500000 0.704649 0.429961
O O7 0.750000 0.750000 0.416495
O O8 0.713425 0.652204 0.392925
O O9 0.250086 0.089892 0.297179
O O10 0.000000 0.131875 0.323234
O O11 0.500000 0.297578 0.914262
O O12 0.250000 0.250000 0.917291
O O13 0.259632 0.349823 0.902196
O O14 0.321767 0.306824 0.000000
O O15 0.790489 0.500000 0.746528
O O16 0.777572 0.576988 0.816304
O O17 0.000000 0.564424 0.750188
O O18 0.000000 0.611544 0.875958
#
# Coordination Sequence:
#
# PCOD9484746 Si02
#       6
#    16  16  16  16  16  16
#     4  10  19  29  42  64  95 126 155 190 233 280
#     4   9  18  31  46  67  97 131 164 196 229 270
#     4  10  19  30  47  70  94 122 157 195 236 285
#     4  10  20  32  47  69  98 131 163 193 226 267
#     4   9  19  36  55  73  94 120 152 196 248 293
#     4   9  18  31  48  69  91 119 154 191 233 280
#
# _framework density 16.516658
#
# number of rings (size 3 to 8) (size 9 to 14) (size 15 to 20)
#    0.000    2.500    0.000    3.500    0.000    8.667 
#    0.000    0.000    0.000    1.000    0.000    7.000 
#    0.000    0.000    0.000    0.000    0.000    0.000 
#
# Total GULP energy -267240.527686 kJ/mol
# GULP energy per Si atom -5567.510993 kJ/mol
# Density = 1.647907 g / cm^3
# Si number density = 16.516658 Si / 1000 Ang^3
#
#
#
# Elastic Constant Matrix: (Units=GPa)
#
#
# Indices 1 2 3 4 5 6 
#
# 1 58.7580 40.5775 35.4949 0.0000 0.0000 0.0000
# 2 40.5775 84.9657 41.5573 0.0000 0.0000 0.0000
# 3 35.4949 41.5573 70.4627 0.0000 0.0000 0.0000
# 4 0.0000 0.0000 0.0000 23.6112 0.0000 0.0000
# 5 0.0000 0.0000 0.0000 0.0000 13.4715 0.0000
# 6 0.0000 0.0000 0.0000 0.0000 0.0000 19.4833
#
#
#
# Elastic Compliance Matrix: (Units=1/GPa)
#
#
# Indices 1 2 3 4 5 6 
#
# 1 0.028990 -0.009419 -0.009048 0.000000 0.000000 0.000000
# 2 -0.009419 0.019601 -0.006816 0.000000 0.000000 0.000000
# 3 -0.009048 -0.006816 0.022769 0.000000 0.000000 0.000000
# 4 0.000000 0.000000 0.000000 0.042353 0.000000 0.000000
# 5 0.000000 0.000000 0.000000 0.000000 0.074231 0.000000
# 6 0.000000 0.000000 0.000000 0.000000 0.000000 0.051326
#
#
# Mechanical properties :
#
#
# Convention : Reuss Voigt Hill
#
# Bulk Modulus (GPa) = 48.08906 49.93840 49.01373
# Shear Modulus (GPa) = 16.84822 17.75030 17.29926
#
# Velocity S-wave (km/s) = 3.19733 3.28180 3.23984
# Velocity P-wave (km/s) = 6.54288 6.68290 6.61326
#
# Compressibility (1/GPa) = 0.02079475
#
# Stress axis : x y z
#
# Youngs Moduli (GPa) = 34.49522 51.01675 43.91853
#
# Poissons Ratio (x) = 0.48054 0.39737
# Poissons Ratio (y) = 0.32492 0.29933
# Poissons Ratio (z) = 0.31211 0.34771
#
# Static dielectric constant tensor:
#      x y z
#    x 1.579430 0.000000 0.000000 
#    y 0.000000 1.566280 0.000000 
#    z 0.000000 0.000000 1.582500 
# 
# From -- ./inp_files/68000.got.cif
#   From: 2010.05.17/outbox.cif.g08.bks.cpg/sg65_34_cif.got.tgz:68000.got - 2010.06.03 17:01:31.
