data_PCOD9484154
_publ_section_title
;
Structure prediction by ZEFSAII (Michael W. Deem and Ramdas Pophale) SiO2 
 PCOD9484154
Probable space group: C M M M
;
_chemical_formula_sum "Si O2"
_cell_formula_units_Z 56
_cell_length_a 23.943823
_cell_length_b 13.835199
_cell_length_c 8.553916
_cell_angle_alpha 90.000000
_cell_angle_beta 90.000000
_cell_angle_gamma 90.000000
_cell_volume 2833.634848
_symmetry_space_group_name_H-M "C M M M"
_symmetry_group_IT_number 65
_symmetry_cell_setting 'orthorhombic'
loop_
_space_group_symop_operation_xyz
x,y,z
-x,-y,z
x,-y,-z
-x,y,-z
-x,-y,-z
x,y,-z
-x,y,z
x,-y,z
1/2+x,1/2+y,z
1/2-x,1/2-y,z
1/2+x,1/2-y,-z
1/2-x,1/2+y,-z
1/2-x,1/2-y,-z
1/2+x,1/2+y,-z
1/2-x,1/2+y,z
1/2+x,1/2-y,z
loop_
_atom_site_type_symbol
_atom_site_label
_atom_site_fract_x
_atom_site_fract_y
_atom_site_fract_z
Si Si1 0.868257 0.893656 0.184705
Si Si2 0.629175 0.191795 0.311872
Si Si3 0.064544 0.500000 0.690952
Si Si4 0.745199 0.889271 0.681762
O O1 0.892490 0.795861 0.257696
O O2 0.802002 0.888318 0.222098
O O3 0.886937 0.000000 0.244543
O O4 0.877025 0.891544 0.000000
O O5 0.629490 0.189966 0.500000
O O6 0.693939 0.175999 0.263260
O O7 0.594562 0.098683 0.256572
O O8 0.067015 0.500000 0.500000
O O9 0.000000 0.500000 0.736788
O O10 0.758992 0.866231 0.500000
O O11 0.723766 0.000000 0.682653
#
# Coordination Sequence:
#
# PCOD9484154 Si02
#       4
#    16  16   8  16
#     4  10  21  33  45  68 103 139 172 204 243 292
#     4  10  18  31  52  75  99 130 167 205 250 302
#     4   9  18  34  57  83 105 125 159 213 268 307
#     4   9  16  28  46  70 101 134 168 203 241 295
#
# _framework density 19.762604
#
# number of rings (size 3 to 8) (size 9 to 14) (size 15 to 20)
#    0.000    2.429    1.429    1.714    0.000    6.286 
#    0.000    0.714    0.000    2.571    0.000    6.000 
#    0.000    0.000    0.000    0.000    0.000    0.000 
#
# Total GULP energy -156142.254445 kJ/mol
# GULP energy per Si atom -5576.509087 kJ/mol
# Density = 1.971762 g / cm^3
# Si number density = 19.762604 Si / 1000 Ang^3
#
#
#
# Elastic Constant Matrix: (Units=GPa)
#
#
# Indices 1 2 3 4 5 6 
#
# 1 34.2941 27.9508 3.0908 0.0000 0.0000 0.0000
# 2 27.9508 198.7999 12.7157 0.0000 0.0000 0.0000
# 3 3.0908 12.7157 3.3177 0.0000 0.0000 0.0000
# 4 0.0000 0.0000 0.0000 18.9338 0.0000 0.0000
# 5 0.0000 0.0000 0.0000 0.0000 42.2947 0.0000
# 6 0.0000 0.0000 0.0000 0.0000 0.0000 10.4827
#
#
#
# Elastic Compliance Matrix: (Units=1/GPa)
#
#
# Indices 1 2 3 4 5 6 
#
# 1 0.033685 -0.003615 -0.017526 0.000000 0.000000 0.000000
# 2 -0.003615 0.007052 -0.023660 0.000000 0.000000 0.000000
# 3 -0.017526 -0.023660 0.408422 0.000000 0.000000 0.000000
# 4 0.000000 0.000000 0.000000 0.052816 0.000000 0.000000
# 5 0.000000 0.000000 0.000000 0.000000 0.023644 0.000000
# 6 0.000000 0.000000 0.000000 0.000000 0.000000 0.095395
#
#
# Mechanical properties :
#
#
# Convention : Reuss Voigt Hill
#
# Bulk Modulus (GPa) = 2.78120 35.99182 19.38651
# Shear Modulus (GPa) = 6.02071 27.18588 16.60329
#
# Velocity S-wave (km/s) = 1.74732 3.71296 2.90166
# Velocity P-wave (km/s) = 2.34120 6.05253 4.58881
#
# Compressibility (1/GPa) = 0.35955734
#
# Stress axis : x y z
#
# Youngs Moduli (GPa) = 29.68637 141.80825 2.44845
#
# Poissons Ratio (x) = 0.51265 0.04291
# Poissons Ratio (y) = 0.10732 0.05793
# Poissons Ratio (z) = 0.52029 3.35512
#
# Static dielectric constant tensor:
#      x y z
#    x 1.668330 0.000000 0.000000 
#    y 0.000000 1.795620 0.000000 
#    z 0.000000 0.000000 1.677160 
# 
# From -- ./inp_files/6253.got.cif
#   From: 2010.05.17/outbox.cif.g08.bks.cpg/sg65_4_cif.got.tgz:6253.got - 2010.06.03 17:01:31.
