data_PCOD9484383
_publ_section_title
;
Structure prediction by ZEFSAII (Michael W. Deem and Ramdas Pophale) SiO2 
 PCOD9484383
Probable space group: C M M M
;
_chemical_formula_sum "Si O2"
_cell_formula_units_Z 128
_cell_length_a 20.638734
_cell_length_b 20.883845
_cell_length_c 16.318666
_cell_angle_alpha 90.000000
_cell_angle_beta 90.000000
_cell_angle_gamma 90.000000
_cell_volume 7033.608133
_symmetry_space_group_name_H-M "C M M M"
_symmetry_group_IT_number 65
_symmetry_cell_setting 'orthorhombic'
loop_
_space_group_symop_operation_xyz
x,y,z
-x,-y,z
x,-y,-z
-x,y,-z
-x,-y,-z
x,y,-z
-x,y,z
x,-y,z
1/2+x,1/2+y,z
1/2-x,1/2-y,z
1/2+x,1/2-y,-z
1/2-x,1/2+y,-z
1/2-x,1/2-y,-z
1/2+x,1/2+y,-z
1/2-x,1/2+y,z
1/2+x,1/2-y,z
loop_
_atom_site_type_symbol
_atom_site_label
_atom_site_fract_x
_atom_site_fract_y
_atom_site_fract_z
Si Si1 0.797578 0.428294 0.330800
Si Si2 0.348589 0.928366 0.852781
Si Si3 0.926768 0.693992 0.900708
Si Si4 0.211087 0.815573 0.599033
Si Si5 0.428968 0.120040 0.401624
Si Si6 0.572099 0.730912 0.599876
Si Si7 0.791922 0.070528 0.093160
Si Si8 0.314137 0.710674 0.100357
O O1 0.772938 0.500000 0.346106
O O2 0.815581 0.421408 0.235785
O O3 0.748114 0.374616 0.360621
O O4 0.866926 0.418799 0.374205
O O5 0.399680 0.873389 0.869171
O O6 0.286006 0.922682 0.910720
O O7 0.376035 0.000000 0.860248
O O8 0.876838 0.749092 0.874932
O O9 0.000000 0.705559 0.873399
O O10 0.925821 0.691935 0.000000
O O11 0.212959 0.823338 0.500000
O O12 0.250000 0.750000 0.617455
O O13 0.136343 0.806798 0.625708
O O14 0.430277 0.119795 0.500000
O O15 0.500000 0.097388 0.372444
O O16 0.420996 0.194378 0.375723
O O17 0.572583 0.730374 0.500000
O O18 0.500000 0.708908 0.625644
O O19 0.815347 0.137449 0.130978
O O20 0.805150 0.000000 0.131039
O O21 0.817082 0.068427 0.000000
O O22 0.250000 0.750000 0.126170
O O23 0.311804 0.708144 0.000000
#
# Coordination Sequence:
#
# PCOD9484383 Si02
#       8
#    16  16  16  16  16  16  16  16
#     4  11  23  35  47  70 106 140 168 206 260 310
#     4  10  21  35  48  68 102 138 170 205 251 310
#     4  10  20  34  53  77 105 137 174 218 263 306
#     4  10  18  32  54  78 102 131 172 218 259 303
#     4   9  17  31  50  69  90 123 168 207 242 297
#     4   8  14  27  50  77 102 127 158 205 259 301
#     4   9  16  29  52  76  96 124 168 213 248 295
#     4   9  15  27  48  74 100 127 161 206 255 296
#
# _framework density 18.198340999999999
#
# number of rings (size 3 to 8) (size 9 to 14) (size 15 to 20)
#    0.000    2.500    2.500    1.500    0.000    2.750 
#    2.250    2.500    0.000    0.750    0.000    4.375 
#    0.000    3.000    0.000    0.125    0.000    0.000 
#
# Total GULP energy -356753.964855 kJ/mol
# GULP energy per Si atom -5574.280701 kJ/mol
# Density = 1.815692 g / cm^3
# Si number density = 18.198341 Si / 1000 Ang^3
#
#
#
# Elastic Constant Matrix: (Units=GPa)
#
#
# Indices 1 2 3 4 5 6 
#
# 1 130.3996 84.5140 17.5688 0.0000 0.0000 0.0000
# 2 84.5140 158.3298 21.7232 0.0000 0.0000 0.0000
# 3 17.5688 21.7232 16.3886 0.0000 0.0000 0.0000
# 4 0.0000 0.0000 0.0000 30.1442 0.0000 0.0000
# 5 0.0000 0.0000 0.0000 0.0000 2.8904 0.0000
# 6 0.0000 0.0000 0.0000 0.0000 0.0000 24.5168
#
#
#
# Elastic Compliance Matrix: (Units=1/GPa)
#
#
# Indices 1 2 3 4 5 6 
#
# 1 0.012103 -0.005720 -0.005392 0.000000 0.000000 0.000000
# 2 -0.005720 0.010424 -0.007684 0.000000 0.000000 0.000000
# 3 -0.005392 -0.007684 0.076984 0.000000 0.000000 0.000000
# 4 0.000000 0.000000 0.000000 0.033174 0.000000 0.000000
# 5 0.000000 0.000000 0.000000 0.000000 0.345968 0.000000
# 6 0.000000 0.000000 0.000000 0.000000 0.000000 0.040788
#
#
# Mechanical properties :
#
#
# Convention : Reuss Voigt Hill
#
# Bulk Modulus (GPa) = 16.15066 61.41447 38.78256
# Shear Modulus (GPa) = 8.65542 23.59774 16.12658
#
# Velocity S-wave (km/s) = 2.18323 3.60488 2.98007
# Velocity P-wave (km/s) = 3.90505 7.15174 5.76180
#
# Compressibility (1/GPa) = 0.06191697
#
# Stress axis : x y z
#
# Youngs Moduli (GPa) = 82.62624 95.93483 12.98979
#
# Poissons Ratio (x) = 0.54879 0.07004
# Poissons Ratio (y) = 0.47266 0.09982
# Poissons Ratio (z) = 0.44550 0.73719
#
# Static dielectric constant tensor:
#      x y z
#    x 1.626910 0.000000 0.000000 
#    y 0.000000 1.634920 0.000000 
#    z 0.000000 0.000000 2.090170 
# 
# From -- ./inp_files/56241.got.cif
#   From: 2010.05.17/outbox.cif.g08.bks.cpg/sg65_29_cif.got.tgz:56241.got - 2010.06.03 17:01:31.
