data_PCOD9484090
_publ_section_title
;
Structure prediction by ZEFSAII (Michael W. Deem and Ramdas Pophale) SiO2 
 PCOD9484090
Probable space group: C M M M
;
_chemical_formula_sum "Si O2"
_cell_formula_units_Z 104
_cell_length_a 18.887207
_cell_length_b 19.617004
_cell_length_c 17.906832
_cell_angle_alpha 90.000000
_cell_angle_beta 90.000000
_cell_angle_gamma 90.000000
_cell_volume 6634.667760
_symmetry_space_group_name_H-M "C M M M"
_symmetry_group_IT_number 65
_symmetry_cell_setting 'orthorhombic'
loop_
_space_group_symop_operation_xyz
x,y,z
-x,-y,z
x,-y,-z
-x,y,-z
-x,-y,-z
x,y,-z
-x,y,z
x,-y,z
1/2+x,1/2+y,z
1/2-x,1/2-y,z
1/2+x,1/2-y,-z
1/2-x,1/2+y,-z
1/2-x,1/2-y,-z
1/2+x,1/2+y,-z
1/2-x,1/2+y,z
1/2+x,1/2-y,z
loop_
_atom_site_type_symbol
_atom_site_label
_atom_site_fract_x
_atom_site_fract_y
_atom_site_fract_z
Si Si1 0.085349 0.500000 0.584406
Si Si2 0.292857 0.922944 0.807548
Si Si3 0.290349 0.677974 0.087403
Si Si4 0.082115 0.246808 0.149868
Si Si5 0.678449 0.793897 0.711630
Si Si6 0.418399 0.896427 0.914830
Si Si7 0.583398 0.151359 0.409947
O O1 0.114069 0.500000 0.500000
O O2 0.101851 0.426082 0.616596
O O3 0.000000 0.500000 0.579196
O O4 0.241065 0.883376 0.864611
O O5 0.301257 0.869627 0.740253
O O6 0.366812 0.925883 0.852856
O O7 0.271666 0.000000 0.788079
O O8 0.250000 0.750000 0.106129
O O9 0.371894 0.690457 0.107666
O O10 0.279454 0.666249 0.000000
O O11 0.124755 0.264067 0.225767
O O12 0.084626 0.314999 0.099015
O O13 0.000000 0.230576 0.163317
O O14 0.750000 0.750000 0.706963
O O15 0.635159 0.799493 0.634792
O O16 0.500000 0.917230 0.905076
O O17 0.396964 0.911958 0.000000
O O18 0.590656 0.154249 0.500000
O O19 0.500000 0.163350 0.393096
#
# Coordination Sequence:
#
# PCOD9484090 Si02
#       7
#     8  16  16  16  16  16  16
#     4   7  12  26  46  70 104 138 160 180 215 270
#     4  11  22  34  47  68  98 134 168 204 248 297
#     4  11  19  33  52  70  95 128 165 208 253 298
#     4  10  18  31  50  72  94 123 163 205 250 298
#     4  11  20  35  52  73 101 131 164 205 251 293
#     4   9  17  29  45  67  95 125 159 197 237 287
#     4   9  18  32  51  77 107 137 167 196 231 284
#
# _framework density 15.675238
#
# number of rings (size 3 to 8) (size 9 to 14) (size 15 to 20)
#    0.000    2.077    4.615    2.308    1.077    3.385 
#    0.000    0.769    0.000    0.462    0.000    1.077 
#    0.000    0.000    0.000    1.692    0.000    0.000 
#
# Total GULP energy -289760.016349 kJ/mol
# GULP energy per Si atom -5572.308007 kJ/mol
# Density = 1.563956 g / cm^3
# Si number density = 15.675238 Si / 1000 Ang^3
#
#
#
# Elastic Constant Matrix: (Units=GPa)
#
#
# Indices 1 2 3 4 5 6 
#
# 1 95.8861 43.4305 37.0481 0.0000 0.0000 0.0000
# 2 43.4305 68.3273 30.2252 0.0000 0.0000 0.0000
# 3 37.0481 30.2252 58.9983 0.0000 0.0000 0.0000
# 4 0.0000 0.0000 0.0000 0.1788 0.0000 0.0000
# 5 0.0000 0.0000 0.0000 0.0000 25.7083 0.0000
# 6 0.0000 0.0000 0.0000 0.0000 0.0000 15.7131
#
#
#
# Elastic Compliance Matrix: (Units=1/GPa)
#
#
# Indices 1 2 3 4 5 6 
#
# 1 0.016311 -0.007547 -0.006376 0.000000 0.000000 0.000000
# 2 -0.007547 0.022416 -0.006745 0.000000 0.000000 0.000000
# 3 -0.006376 -0.006745 0.024409 0.000000 0.000000 0.000000
# 4 0.000000 0.000000 0.000000 5.594153 0.000000 0.000000
# 5 0.000000 0.000000 0.000000 0.000000 0.038898 0.000000
# 6 0.000000 0.000000 0.000000 0.000000 0.000000 0.063641
#
#
# Mechanical properties :
#
#
# Convention : Reuss Voigt Hill
#
# Bulk Modulus (GPa) = 45.87113 49.40214 47.63663
# Shear Modulus (GPa) = 0.86082 15.82055 8.34068
#
# Velocity S-wave (km/s) = 0.74186 3.18035 2.30922
# Velocity P-wave (km/s) = 5.48277 6.71346 6.12909
#
# Compressibility (1/GPa) = 0.02180020
#
# Stress axis : x y z
#
# Youngs Moduli (GPa) = 61.30828 44.61065 40.96870
#
# Poissons Ratio (x) = 0.33668 0.26122
# Poissons Ratio (y) = 0.46270 0.27632
# Poissons Ratio (z) = 0.39091 0.30088
#
# Static dielectric constant tensor:
#      x y z
#    x 1.527990 0.000000 0.000000 
#    y 0.000000 1.543680 0.000000 
#    z 0.000000 0.000000 1.531940 
# 
# From -- ./inp_files/54846.got.cif
#   From: 2010.05.17/outbox.cif.g08.bks.cpg/sg65_28_cif.got.tgz:54846.got - 2010.06.03 17:01:31.
