data_PCOD9484514
_publ_section_title
;
Structure prediction by ZEFSAII (Michael W. Deem and Ramdas Pophale) SiO2 
 PCOD9484514
Probable space group: C M M M
;
_chemical_formula_sum "Si O2"
_cell_formula_units_Z 82
_cell_length_a 23.938865
_cell_length_b 7.795812
_cell_length_c 21.363013
_cell_angle_alpha 90.000000
_cell_angle_beta 90.000000
_cell_angle_gamma 90.000000
_cell_volume 3986.827247
_symmetry_space_group_name_H-M "C M M M"
_symmetry_group_IT_number 65
_symmetry_cell_setting 'orthorhombic'
loop_
_space_group_symop_operation_xyz
x,y,z
-x,-y,z
x,-y,-z
-x,y,-z
-x,-y,-z
x,y,-z
-x,y,z
x,-y,z
1/2+x,1/2+y,z
1/2-x,1/2-y,z
1/2+x,1/2-y,-z
1/2-x,1/2+y,-z
1/2-x,1/2-y,-z
1/2+x,1/2+y,-z
1/2-x,1/2+y,z
1/2+x,1/2-y,z
loop_
_atom_site_type_symbol
_atom_site_label
_atom_site_fract_x
_atom_site_fract_y
_atom_site_fract_z
Si Si1 0.616337 0.190152 0.500000
Si Si2 0.500000 0.789222 0.698796
Si Si3 0.000000 0.704673 0.156724
Si Si4 0.122751 0.795077 0.876033
Si Si5 0.814499 0.204760 0.247414
Si Si6 0.114471 0.295947 0.635017
Si Si7 0.000000 0.500000 0.500000
Si Si8 0.684808 0.707074 0.000000
O O1 0.628725 0.275951 0.433418
O O2 0.645000 0.000000 0.500000
O O3 0.549962 0.146124 0.500000
O O4 0.500000 0.732446 0.771043
O O5 0.555966 0.731154 0.663699
O O6 0.500000 0.000000 0.698634
O O7 0.056897 0.761652 0.123952
O O8 0.000000 0.500000 0.159022
O O9 0.149456 0.727239 0.811396
O O10 0.154436 0.727780 0.937262
O O11 0.131052 0.000000 0.875222
O O12 0.750000 0.250000 0.238676
O O13 0.838999 0.272805 0.312373
O O14 0.820216 0.000000 0.249212
O O15 0.105693 0.500000 0.625079
O O16 0.750000 0.750000 0.000000
O O17 0.679807 0.500000 0.000000
#
# Coordination Sequence:
#
# PCOD9484514 Si02
#       8
#     8   8   8  16  16  16   2   8
#     4   8  16  26  50  82 114 142 181 224 277 325
#     4   9  17  28  52  84 114 144 179 223 273 328
#     4  11  21  35  57  90 120 151 188 229 278 333
#     4  10  22  40  60  85 117 150 186 229 287 343
#     4  11  23  38  57  81 108 146 190 238 285 334
#     4  10  18  33  55  83 115 146 185 231 281 335
#     4   8  12  28  48  88 114 140 176 226 274 326
#     4  10  22  41  64  87 113 152 194 236 283 332
#
# _framework density 20.567734000000002
#
# number of rings (size 3 to 8) (size 9 to 14) (size 15 to 20)
#    0.293    1.756    1.951    2.049    1.366    1.951 
#    0.000    3.415    0.000    0.000    0.000    2.049 
#    0.000    0.000    0.000    0.000    0.000    0.000 
#
# Total GULP energy -228595.391729 kJ/mol
# GULP energy per Si atom -5575.497359 kJ/mol
# Density = 2.052092 g / cm^3
# Si number density = 20.567734 Si / 1000 Ang^3
#
#
#
# Elastic Constant Matrix: (Units=GPa)
#
#
# Indices 1 2 3 4 5 6 
#
# 1 131.6154 -15.1856 76.4772 0.0000 0.0000 0.0000
# 2 -15.1856 23.5548 7.2163 0.0000 0.0000 0.0000
# 3 76.4772 7.2163 182.6489 0.0000 0.0000 0.0000
# 4 0.0000 0.0000 0.0000 2.2841 0.0000 0.0000
# 5 0.0000 0.0000 0.0000 0.0000 1.3068 0.0000
# 6 0.0000 0.0000 0.0000 0.0000 0.0000 -5.2944
#
#
#
# Elastic Compliance Matrix: (Units=1/GPa)
#
#
# Indices 1 2 3 4 5 6 
#
# 1 0.011717 0.009168 -0.005268 0.000000 0.000000 0.000000
# 2 0.009168 0.050148 -0.005820 0.000000 0.000000 0.000000
# 3 -0.005268 -0.005820 0.007911 0.000000 0.000000 0.000000
# 4 0.000000 0.000000 0.000000 0.437805 0.000000 0.000000
# 5 0.000000 0.000000 0.000000 0.000000 0.765228 0.000000
# 6 0.000000 0.000000 0.000000 0.000000 0.000000 -0.188879
#
#
# Mechanical properties :
#
#
# Convention : Reuss Voigt Hill
#
# Bulk Modulus (GPa) = 15.16659 52.75943 33.96301
# Shear Modulus (GPa) = 4.50553 17.61338 11.05945
#
# Velocity S-wave (km/s) = 1.48167 2.92954 2.32137
# Velocity P-wave (km/s) = 3.21202 6.09509 4.87172
#
# Compressibility (1/GPa) = 0.06593442
#
# Stress axis : x y z
#
# Youngs Moduli (GPa) = 85.34745 19.94114 126.40995
#
# Poissons Ratio (x) = -0.18281 0.66595
# Poissons Ratio (y) = -0.78244 0.73569
# Poissons Ratio (z) = 0.44963 0.11606
#
# Static dielectric constant tensor:
#      x y z
#    x 1.681680 0.000000 0.000000 
#    y 0.000000 1.765480 0.000000 
#    z 0.000000 0.000000 1.776600 
# 
# From -- ./inp_files/65146.got.cif
#   From: 2010.05.17/outbox.cif.g08.bks.cpg/sg65_33_cif.got.tgz:65146.got - 2010.06.03 17:01:31.
