data_PCOD9484082
_publ_section_title
;
Structure prediction by ZEFSAII (Michael W. Deem and Ramdas Pophale) SiO2 
 PCOD9484082
Probable space group: C M M M
;
_chemical_formula_sum "Si O2"
_cell_formula_units_Z 116
_cell_length_a 29.713191
_cell_length_b 7.509944
_cell_length_c 28.509757
_cell_angle_alpha 90.000000
_cell_angle_beta 90.000000
_cell_angle_gamma 90.000000
_cell_volume 6361.792633
_symmetry_space_group_name_H-M "C M M M"
_symmetry_group_IT_number 65
_symmetry_cell_setting 'orthorhombic'
loop_
_space_group_symop_operation_xyz
x,y,z
-x,-y,z
x,-y,-z
-x,y,-z
-x,-y,-z
x,y,-z
-x,y,z
x,-y,z
1/2+x,1/2+y,z
1/2-x,1/2-y,z
1/2+x,1/2-y,-z
1/2-x,1/2+y,-z
1/2-x,1/2-y,-z
1/2+x,1/2+y,-z
1/2-x,1/2+y,z
1/2+x,1/2-y,z
loop_
_atom_site_type_symbol
_atom_site_label
_atom_site_fract_x
_atom_site_fract_y
_atom_site_fract_z
Si Si1 0.553849 0.711625 0.917595
Si Si2 0.799892 0.786533 0.316278
Si Si3 0.895721 0.786001 0.177327
Si Si4 0.551352 0.210479 0.726685
Si Si5 0.699983 0.713216 0.791143
Si Si6 0.448485 0.717618 0.446813
Si Si7 0.111080 0.793679 0.362221
Si Si8 0.570136 0.000000 0.000000
O O1 0.500000 0.726413 0.911326
O O2 0.563399 0.500000 0.926760
O O3 0.578793 0.768355 0.869754
O O4 0.567553 0.842904 0.959193
O O5 0.750000 0.750000 0.334705
O O6 0.802011 0.718119 0.262584
O O7 0.841109 0.714755 0.346672
O O8 0.805299 0.000000 0.313267
O O9 0.922926 0.739213 0.224380
O O10 0.844164 0.720655 0.181845
O O11 0.894427 0.000000 0.175833
O O12 0.500000 0.278023 0.729027
O O13 0.579238 0.289624 0.683525
O O14 0.549712 0.000000 0.718182
O O15 0.696298 0.500000 0.789040
O O16 0.750000 0.750000 0.810162
O O17 0.436709 0.769940 0.500000
O O18 0.500000 0.772565 0.437278
O O19 0.448619 0.500000 0.445694
O O20 0.415183 0.783798 0.406590
O O21 0.119609 0.000000 0.374297
#
# Coordination Sequence:
#
# PCOD9484082 Si02
#       8
#    16  16  16  16  16  16  16   4
#     4  10  21  36  56  82 111 144 182 224 269 313
#     4   9  17  29  45  67  93 125 164 202 247 301
#     4  10  20  36  54  75 106 139 174 212 256 310
#     4  11  23  33  44  69 105 139 169 202 245 306
#     4   9  17  31  49  72 102 132 167 210 252 303
#     4   8  14  25  44  71  96 118 156 212 262 299
#     4  10  18  31  50  70  93 128 169 208 250 306
#     4  12  23  38  60  82 112 148 186 230 264 310
#
# _framework density 18.233854000000001
#
# number of rings (size 3 to 8) (size 9 to 14) (size 15 to 20)
#    0.000    2.345    1.379    2.483    0.966    3.862 
#    0.000    0.000    0.000    0.828    0.000    2.414 
#    0.000    0.000    0.000    0.000    0.000    0.000 
#
# Total GULP energy -322995.076712 kJ/mol
# GULP energy per Si atom -5568.880633 kJ/mol
# Density = 1.819235 g / cm^3
# Si number density = 18.233854 Si / 1000 Ang^3
#
#
#
# Elastic Constant Matrix: (Units=GPa)
#
#
# Indices 1 2 3 4 5 6 
#
# 1 94.1616 8.4780 53.8784 0.0000 0.0000 0.0000
# 2 8.4780 59.4134 16.3906 0.0000 0.0000 0.0000
# 3 53.8784 16.3906 110.6752 0.0000 0.0000 0.0000
# 4 0.0000 0.0000 0.0000 -0.5552 0.0000 0.0000
# 5 0.0000 0.0000 0.0000 0.0000 7.9219 0.0000
# 6 0.0000 0.0000 0.0000 0.0000 0.0000 11.0765
#
#
#
# Elastic Compliance Matrix: (Units=1/GPa)
#
#
# Indices 1 2 3 4 5 6 
#
# 1 0.014721 -0.000129 -0.007148 0.000000 0.000000 0.000000
# 2 -0.000129 0.017549 -0.002536 0.000000 0.000000 0.000000
# 3 -0.007148 -0.002536 0.012891 0.000000 0.000000 0.000000
# 4 0.000000 0.000000 0.000000 -1.801248 0.000000 0.000000
# 5 0.000000 0.000000 0.000000 0.000000 0.126232 0.000000
# 6 0.000000 0.000000 0.000000 0.000000 0.000000 0.090281
#
#
# Mechanical properties :
#
#
# Convention : Reuss Voigt Hill
#
# Bulk Modulus (GPa) = 39.16040 46.86046 43.01043
# Shear Modulus (GPa) = -3.30811 16.05555 6.37372
#
# Velocity S-wave (km/s) = -1.34841 2.97060 1.87166
# Velocity P-wave (km/s) = 4.37025 6.12548 5.32074
#
# Compressibility (1/GPa) = 0.02553600
#
# Stress axis : x y z
#
# Youngs Moduli (GPa) = 67.92845 56.98235 77.57610
#
# Poissons Ratio (x) = 0.00734 0.55448
# Poissons Ratio (y) = 0.00875 0.19675
# Poissons Ratio (z) = 0.48552 0.14452
#
# Static dielectric constant tensor:
#      x y z
#    x 1.647710 0.000000 0.000000 
#    y 0.000000 1.688720 0.000000 
#    z 0.000000 0.000000 1.601820 
# 
# From -- ./inp_files/76274.got.cif
#   From: 2010.05.17/outbox.cif.g08.bks.cpg/sg65_39_cif.got.tgz:76274.got - 2010.06.03 17:01:31.
