data_PCOD9484492
_publ_section_title
;
Structure prediction by ZEFSAII (Michael W. Deem and Ramdas Pophale) SiO2 
 PCOD9484492
Probable space group: C M M M
;
_chemical_formula_sum "Si O2"
_cell_formula_units_Z 64
_cell_length_a 18.839938
_cell_length_b 13.590619
_cell_length_c 15.997847
_cell_angle_alpha 90.000000
_cell_angle_beta 90.000000
_cell_angle_gamma 90.000000
_cell_volume 4096.191442
_symmetry_space_group_name_H-M "C M M M"
_symmetry_group_IT_number 65
_symmetry_cell_setting 'orthorhombic'
loop_
_space_group_symop_operation_xyz
x,y,z
-x,-y,z
x,-y,-z
-x,y,-z
-x,-y,-z
x,y,-z
-x,y,z
x,-y,z
1/2+x,1/2+y,z
1/2-x,1/2-y,z
1/2+x,1/2-y,-z
1/2-x,1/2+y,-z
1/2-x,1/2-y,-z
1/2+x,1/2+y,-z
1/2-x,1/2+y,z
1/2+x,1/2-y,z
loop_
_atom_site_type_symbol
_atom_site_label
_atom_site_fract_x
_atom_site_fract_y
_atom_site_fract_z
Si Si1 0.000000 0.390124 0.712628
Si Si2 0.500000 0.699584 0.401272
Si Si3 0.845886 0.884448 0.401229
Si Si4 0.582361 0.880384 0.000000
Si Si5 0.356957 0.885142 0.822048
Si Si6 0.250000 0.250000 0.281733
O O1 0.930321 0.382224 0.769998
O O2 0.000000 0.500000 0.674271
O O3 0.000000 0.302111 0.647329
O O4 0.500000 0.719214 0.500000
O O5 0.571733 0.639879 0.382685
O O6 0.833642 0.862534 0.500000
O O7 0.797451 0.818616 0.341791
O O8 0.832248 0.000000 0.388597
O O9 0.623179 0.851628 0.084270
O O10 0.500000 0.846864 0.000000
O O11 0.579564 0.000000 0.000000
O O12 0.300005 0.817673 0.775898
O O13 0.334076 0.000000 0.824604
#
# Coordination Sequence:
#
# PCOD9484492 Si02
#       6
#     8   8  16   8  16   8
#     4  10  18  33  53  76 104 131 172 214 250 299
#     4  10  19  35  55  74  98 133 179 219 250 292
#     4  10  21  36  53  73  99 136 178 215 251 297
#     4   9  16  31  54  76  99 129 167 209 249 293
#     4  10  20  33  53  78 102 133 169 207 252 305
#     4  12  21  33  52  74 112 134 160 207 263 316
#
# _framework density 15.624269999999999
#
# number of rings (size 3 to 8) (size 9 to 14) (size 15 to 20)
#    0.000    1.875    3.750    1.500    0.000    2.250 
#    0.000    0.000    0.000    0.000    0.000    0.000 
#    0.000    4.000    0.000    0.000    0.000    0.000 
#
# Total GULP energy -178479.975066 kJ/mol
# GULP energy per Si atom -5577.499221 kJ/mol
# Density = 1.558871 g / cm^3
# Si number density = 15.624270 Si / 1000 Ang^3
#
#
#
# Elastic Constant Matrix: (Units=GPa)
#
#
# Indices 1 2 3 4 5 6 
#
# 1 119.9389 63.4423 78.2628 0.0000 0.0000 0.0000
# 2 63.4423 93.4527 68.5271 0.0000 0.0000 0.0000
# 3 78.2628 68.5271 99.3893 0.0000 0.0000 0.0000
# 4 0.0000 0.0000 0.0000 23.2459 0.0000 0.0000
# 5 0.0000 0.0000 0.0000 0.0000 22.7317 0.0000
# 6 0.0000 0.0000 0.0000 0.0000 0.0000 18.2237
#
#
#
# Elastic Compliance Matrix: (Units=1/GPa)
#
#
# Indices 1 2 3 4 5 6 
#
# 1 0.017741 -0.003641 -0.011460 0.000000 0.000000 0.000000
# 2 -0.003641 0.022390 -0.012571 0.000000 0.000000 0.000000
# 3 -0.011460 -0.012571 0.027753 0.000000 0.000000 0.000000
# 4 0.000000 0.000000 0.000000 0.043018 0.000000 0.000000
# 5 0.000000 0.000000 0.000000 0.000000 0.043991 0.000000
# 6 0.000000 0.000000 0.000000 0.000000 0.000000 0.054874
#
#
# Mechanical properties :
#
#
# Convention : Reuss Voigt Hill
#
# Bulk Modulus (GPa) = 79.73637 81.47169 80.60403
# Shear Modulus (GPa) = 18.56734 19.67684 19.12209
#
# Velocity S-wave (km/s) = 3.45101 3.55262 3.50218
# Velocity P-wave (km/s) = 8.18680 8.31178 8.24953
#
# Compressibility (1/GPa) = 0.01254133
#
# Stress axis : x y z
#
# Youngs Moduli (GPa) = 56.36616 44.66279 36.03256
#
# Poissons Ratio (x) = 0.16260 0.41293
# Poissons Ratio (y) = 0.20521 0.45296
# Poissons Ratio (z) = 0.64595 0.56144
#
# Static dielectric constant tensor:
#      x y z
#    x 1.509830 0.000000 0.000000 
#    y 0.000000 1.500200 0.000000 
#    z 0.000000 0.000000 1.507100 
# 
# From -- ./inp_files/39709.got.cif
#   From: 2010.05.17/outbox.cif.g08.bks.cpg/sg65_20_cif.got.tgz:39709.got - 2010.06.03 17:01:31.
