data_PCOD9484153
_publ_section_title
;
Structure prediction by ZEFSAII (Michael W. Deem and Ramdas Pophale) SiO2 
 PCOD9484153
Probable space group: C M M M
;
_chemical_formula_sum "Si O2"
_cell_formula_units_Z 72
_cell_length_a 30.256344
_cell_length_b 14.491261
_cell_length_c 7.404266
_cell_angle_alpha 90.000000
_cell_angle_beta 90.000000
_cell_angle_gamma 90.000000
_cell_volume 3246.419514
_symmetry_space_group_name_H-M "C M M M"
_symmetry_group_IT_number 65
_symmetry_cell_setting 'orthorhombic'
loop_
_space_group_symop_operation_xyz
x,y,z
-x,-y,z
x,-y,-z
-x,y,-z
-x,-y,-z
x,y,-z
-x,y,z
x,-y,z
1/2+x,1/2+y,z
1/2-x,1/2-y,z
1/2+x,1/2-y,-z
1/2-x,1/2+y,-z
1/2-x,1/2-y,-z
1/2+x,1/2+y,-z
1/2-x,1/2+y,z
1/2+x,1/2-y,z
loop_
_atom_site_type_symbol
_atom_site_label
_atom_site_fract_x
_atom_site_fract_y
_atom_site_fract_z
Si Si1 0.551415 0.101535 0.220262
Si Si2 0.724806 0.895773 0.220054
Si Si3 0.089855 0.788524 0.785907
Si Si4 0.000000 0.102775 0.285553
Si Si5 0.814510 0.200421 0.780114
O O1 0.500000 0.114392 0.271532
O O2 0.579948 0.186427 0.286704
O O3 0.565950 0.000000 0.277790
O O4 0.552043 0.102406 0.000000
O O5 0.774330 0.865273 0.277165
O O6 0.695146 0.807190 0.272493
O O7 0.713699 0.000000 0.280060
O O8 0.723522 0.897757 0.000000
O O9 0.136472 0.827143 0.718387
O O10 0.045185 0.845924 0.763408
O O11 0.095968 0.778675 0.000000
O O12 0.000000 0.097719 0.500000
O O13 0.000000 0.000000 0.209130
O O14 0.812557 0.197922 0.000000
#
# Coordination Sequence:
#
# PCOD9484153 Si02
#       5
#    16  16  16   8  16
#     4   8  13  22  39  65  94 119 145 186 239 282
#     4   8  13  23  37  58  96 134 154 181 234 289
#     4  10  18  31  52  75  97 124 165 210 242 274
#     4  11  25  41  52  65  92 130 165 199 246 297
#     4   8  15  24  38  65  95 123 157 193 231 279
#
# _framework density 22.178279
#
# number of rings (size 3 to 8) (size 9 to 14) (size 15 to 20)
#    0.000    3.222    1.111    2.333    0.000    2.667 
#    0.000    6.667    0.000    1.333    0.000    3.111 
#    0.000    1.778    0.000    0.000    0.000    0.000 
#
# Total GULP energy -200754.769870 kJ/mol
# GULP energy per Si atom -5576.521385 kJ/mol
# Density = 2.212780 g / cm^3
# Si number density = 22.178279 Si / 1000 Ang^3
#
#
#
# Elastic Constant Matrix: (Units=GPa)
#
#
# Indices 1 2 3 4 5 6 
#
# 1 108.9249 11.9960 -7.6147 0.0000 0.0000 0.0000
# 2 11.9960 67.6619 -7.4279 0.0000 0.0000 0.0000
# 3 -7.6147 -7.4279 69.9317 0.0000 0.0000 0.0000
# 4 0.0000 0.0000 0.0000 4.4072 0.0000 0.0000
# 5 0.0000 0.0000 0.0000 0.0000 -43.7164 0.0000
# 6 0.0000 0.0000 0.0000 0.0000 0.0000 11.8878
#
#
#
# Elastic Compliance Matrix: (Units=1/GPa)
#
#
# Indices 1 2 3 4 5 6 
#
# 1 0.009414 -0.001575 0.000858 0.000000 0.000000 0.000000
# 2 -0.001575 0.015217 0.001445 0.000000 0.000000 0.000000
# 3 0.000858 0.001445 0.014547 0.000000 0.000000 0.000000
# 4 0.000000 0.000000 0.000000 0.226902 0.000000 0.000000
# 5 0.000000 0.000000 0.000000 0.000000 -0.022875 0.000000
# 6 0.000000 0.000000 0.000000 0.000000 0.000000 0.084120
#
#
# Mechanical properties :
#
#
# Convention : Reuss Voigt Hill
#
# Bulk Modulus (GPa) = 24.61034 26.71389 25.66212
# Shear Modulus (GPa) = 14.73127 11.15338 12.94233
#
# Velocity S-wave (km/s) = 2.58004 2.24497 2.41832
# Velocity P-wave (km/s) = 4.47171 4.33487 4.40382
#
# Compressibility (1/GPa) = 0.04063332
#
# Stress axis : x y z
#
# Youngs Moduli (GPa) = 106.22424 65.71509 68.74491
#
# Poissons Ratio (x) = 0.10349 -0.05897
# Poissons Ratio (y) = 0.16729 -0.09933
# Poissons Ratio (z) = -0.09112 -0.09495
#
# Static dielectric constant tensor:
#      x y z
#    x 1.732130 0.000000 0.000000 
#    y 0.000000 1.801870 0.000000 
#    z 0.000000 0.000000 1.873570 
# 
# From -- ./inp_files/18014.got.cif
#   From: 2010.05.17/outbox.cif.g08.bks.cpg/sg65_10_cif.got.tgz:18014.got - 2010.06.03 17:01:31.
