data_PCOD9484629
_publ_section_title
;
Structure prediction by ZEFSAII (Michael W. Deem and Ramdas Pophale) SiO2 
 PCOD9484629
Probable space group: C M M M
;
_chemical_formula_sum "Si O2"
_cell_formula_units_Z 120
_cell_length_a 23.417656
_cell_length_b 26.284457
_cell_length_c 13.630447
_cell_angle_alpha 90.000000
_cell_angle_beta 90.000000
_cell_angle_gamma 90.000000
_cell_volume 8389.817810
_symmetry_space_group_name_H-M "C M M M"
_symmetry_group_IT_number 65
_symmetry_cell_setting 'orthorhombic'
loop_
_space_group_symop_operation_xyz
x,y,z
-x,-y,z
x,-y,-z
-x,y,-z
-x,-y,-z
x,y,-z
-x,y,z
x,-y,z
1/2+x,1/2+y,z
1/2-x,1/2-y,z
1/2+x,1/2-y,-z
1/2-x,1/2+y,-z
1/2-x,1/2-y,-z
1/2+x,1/2+y,-z
1/2-x,1/2+y,z
1/2+x,1/2-y,z
loop_
_atom_site_type_symbol
_atom_site_label
_atom_site_fract_x
_atom_site_fract_y
_atom_site_fract_z
Si Si1 0.280254 0.059432 0.725854
Si Si2 0.434744 0.362690 0.380737
Si Si3 0.399036 0.941830 0.616654
Si Si4 0.430674 0.248893 0.611894
Si Si5 0.564957 0.000000 0.117963
Si Si6 0.164059 0.939759 0.382975
Si Si7 0.565958 0.846123 0.256763
Si Si8 0.642050 0.901072 0.883688
O O1 0.332490 0.062686 0.648172
O O2 0.221191 0.074718 0.675625
O O3 0.300786 0.090517 0.820781
O O4 0.275438 0.000000 0.753779
O O5 0.436669 0.362198 0.500000
O O6 0.500000 0.371679 0.347196
O O7 0.415472 0.305615 0.352738
O O8 0.389738 0.405654 0.352105
O O9 0.405869 0.936248 0.500000
O O10 0.429657 0.896138 0.673674
O O11 0.417212 0.000000 0.642709
O O12 0.410233 0.241470 0.500000
O O13 0.500000 0.248464 0.608137
O O14 0.413995 0.202535 0.681098
O O15 0.602279 0.049585 0.140782
O O16 0.500000 0.000000 0.156929
O O17 0.559884 0.000000 0.000000
O O18 0.173339 0.932510 0.500000
O O19 0.153397 0.000000 0.368212
O O20 0.500000 0.839653 0.227914
O O21 0.606034 0.855525 0.163483
O O22 0.650057 0.898137 0.000000
#
# Coordination Sequence:
#
# PCOD9484629 Si02
#       8
#    16  16  16  16   8  16  16  16
#     4   9  16  27  41  57  79 109 145 173 200 245
#     4   8  14  25  42  65  93 121 141 158 190 239
#     4   9  17  27  37  50  73 106 139 173 212 249
#     4   8  14  26  42  59  82 112 143 171 199 238
#     4   9  16  26  40  56  75 101 128 161 215 269
#     4   9  16  25  41  67  95 118 139 164 193 234
#     4  10  19  27  39  58  78 103 139 178 215 257
#     4  10  19  30  42  57  78 105 136 178 224 261
#
# _framework density 14.303051999999999
#
# number of rings (size 3 to 8) (size 9 to 14) (size 15 to 20)
#    0.000    3.000    0.667    2.000    0.933    3.733 
#    0.000    2.000    0.000    3.200    0.000   14.000 
#    0.000    1.600    0.000    2.933    0.000    0.133 
#
# Total GULP energy -334024.143956 kJ/mol
# GULP energy per Si atom -5567.069066 kJ/mol
# Density = 1.427050 g / cm^3
# Si number density = 14.303052 Si / 1000 Ang^3
#
#
#
# Elastic Constant Matrix: (Units=GPa)
#
#
# Indices 1 2 3 4 5 6 
#
# 1 70.5197 43.6446 27.2598 0.0000 0.0000 0.0000
# 2 43.6446 68.0102 33.7081 0.0000 0.0000 0.0000
# 3 27.2598 33.7081 66.8775 0.0000 0.0000 0.0000
# 4 0.0000 0.0000 0.0000 10.5825 0.0000 0.0000
# 5 0.0000 0.0000 0.0000 0.0000 14.3424 0.0000
# 6 0.0000 0.0000 0.0000 0.0000 0.0000 1.6883
#
#
#
# Elastic Compliance Matrix: (Units=1/GPa)
#
#
# Indices 1 2 3 4 5 6 
#
# 1 0.023878 -0.013996 -0.002679 0.000000 0.000000 0.000000
# 2 -0.013996 0.027803 -0.008309 0.000000 0.000000 0.000000
# 3 -0.002679 -0.008309 0.020232 0.000000 0.000000 0.000000
# 4 0.000000 0.000000 0.000000 0.094495 0.000000 0.000000
# 5 0.000000 0.000000 0.000000 0.000000 0.069724 0.000000
# 6 0.000000 0.000000 0.000000 0.000000 0.000000 0.592324
#
#
# Mechanical properties :
#
#
# Convention : Reuss Voigt Hill
#
# Bulk Modulus (GPa) = 45.56372 46.07027 45.81699
# Shear Modulus (GPa) = 5.64501 12.04230 8.84365
#
# Velocity S-wave (km/s) = 1.98879 2.90477 2.48927
# Velocity P-wave (km/s) = 6.09908 6.59775 6.35331
#
# Compressibility (1/GPa) = 0.02194729
#
# Stress axis : x y z
#
# Youngs Moduli (GPa) = 41.88006 35.96693 49.42559
#
# Poissons Ratio (x) = 0.50338 0.13239
# Poissons Ratio (y) = 0.58614 0.41067
# Poissons Ratio (z) = 0.11218 0.29885
#
# Static dielectric constant tensor:
#      x y z
#    x 1.471160 0.000000 0.000000 
#    y 0.000000 1.483870 0.000000 
#    z 0.000000 0.000000 1.472900 
# 
# From -- ./inp_files/44833.got.cif
#   From: 2010.05.17/outbox.cif.g08.bks.cpg/sg65_23_cif.got.tgz:44833.got - 2010.06.03 17:01:31.
