data_PCOD9484474
_publ_section_title
;
Structure prediction by ZEFSAII (Michael W. Deem and Ramdas Pophale) SiO2 
 PCOD9484474
Probable space group: C M M M
;
_chemical_formula_sum "Si O2"
_cell_formula_units_Z 88
_cell_length_a 14.048649
_cell_length_b 21.034419
_cell_length_c 16.645015
_cell_angle_alpha 90.000000
_cell_angle_beta 90.000000
_cell_angle_gamma 90.000000
_cell_volume 4918.687978
_symmetry_space_group_name_H-M "C M M M"
_symmetry_group_IT_number 65
_symmetry_cell_setting 'orthorhombic'
loop_
_space_group_symop_operation_xyz
x,y,z
-x,-y,z
x,-y,-z
-x,y,-z
-x,-y,-z
x,y,-z
-x,y,z
x,-y,z
1/2+x,1/2+y,z
1/2-x,1/2-y,z
1/2+x,1/2-y,-z
1/2-x,1/2+y,-z
1/2-x,1/2-y,-z
1/2+x,1/2+y,-z
1/2-x,1/2+y,z
1/2+x,1/2-y,z
loop_
_atom_site_type_symbol
_atom_site_label
_atom_site_fract_x
_atom_site_fract_y
_atom_site_fract_z
Si Si1 0.191632 0.658827 0.139011
Si Si2 0.608769 0.704490 0.094534
Si Si3 0.110637 0.575554 0.000000
Si Si4 0.500000 0.609965 0.402759
Si Si5 0.685301 0.813642 0.680918
Si Si6 0.000000 0.258731 0.596599
Si Si7 0.292358 0.429534 0.597114
O O1 0.306529 0.665820 0.136737
O O2 0.142948 0.722693 0.103593
O O3 0.159409 0.603524 0.079794
O O4 0.161428 0.658412 0.231462
O O5 0.500000 0.696815 0.124089
O O6 0.610476 0.688557 0.000000
O O7 0.115491 0.500000 0.000000
O O8 0.000000 0.595652 0.000000
O O9 0.500000 0.607407 0.500000
O O10 0.500000 0.684203 0.380361
O O11 0.402445 0.577446 0.376866
O O12 0.750000 0.750000 0.691295
O O13 0.592754 0.791466 0.633040
O O14 0.738063 0.869389 0.632912
O O15 0.000000 0.262634 0.500000
O O16 0.288811 0.425680 0.500000
O O17 0.256729 0.500000 0.620320
#
# Coordination Sequence:
#
# PCOD9484474 Si02
#       7
#    16  16   8   8  16   8  16
#     4  11  21  37  57  88 119 152 190 241 296 348
#     4  10  18  32  59  88 116 149 186 231 286 353
#     4  11  24  41  63  85 115 161 205 246 290 349
#     4   9  17  32  61  89 113 146 193 248 297 354
#     4  12  24  37  60  93 123 155 198 256 311 363
#     4  11  24  39  59  90 125 159 199 257 319 375
#     4  10  21  39  60  82 114 157 202 246 298 362
#
# _framework density 17.89095
#
# number of rings (size 3 to 8) (size 9 to 14) (size 15 to 20)
#    0.000    1.364    5.455    1.909    2.545    2.545 
#    1.636    0.455    0.000    2.727    0.000    0.000 
#    0.000    0.000    0.000    0.000    0.000    0.000 
#
# Total GULP energy -245537.000206 kJ/mol
# GULP energy per Si atom -5580.386368 kJ/mol
# Density = 1.785023 g / cm^3
# Si number density = 17.890950 Si / 1000 Ang^3
#
#
#
# Elastic Constant Matrix: (Units=GPa)
#
#
# Indices 1 2 3 4 5 6 
#
# 1 96.3455 33.6472 24.9120 0.0000 0.0000 0.0000
# 2 33.6472 94.4218 34.8019 0.0000 0.0000 0.0000
# 3 24.9120 34.8019 81.4795 0.0000 0.0000 0.0000
# 4 0.0000 0.0000 0.0000 -26.0729 0.0000 0.0000
# 5 0.0000 0.0000 0.0000 0.0000 17.0301 0.0000
# 6 0.0000 0.0000 0.0000 0.0000 0.0000 20.0050
#
#
#
# Elastic Compliance Matrix: (Units=1/GPa)
#
#
# Indices 1 2 3 4 5 6 
#
# 1 0.012184 -0.003523 -0.002220 0.000000 0.000000 0.000000
# 2 -0.003523 0.013589 -0.004727 0.000000 0.000000 0.000000
# 3 -0.002220 -0.004727 0.014971 0.000000 0.000000 0.000000
# 4 0.000000 0.000000 0.000000 -0.038354 0.000000 0.000000
# 5 0.000000 0.000000 0.000000 0.000000 0.058720 0.000000
# 6 0.000000 0.000000 0.000000 0.000000 0.000000 0.049987
#
#
# Mechanical properties :
#
#
# Convention : Reuss Voigt Hill
#
# Bulk Modulus (GPa) = 50.49883 50.99654 50.74769
# Shear Modulus (GPa) = 36.06523 14.11816 25.09170
#
# Velocity S-wave (km/s) = 4.49468 2.81218 3.74903
# Velocity P-wave (km/s) = 7.43124 6.25384 6.86782
#
# Compressibility (1/GPa) = 0.01980244
#
# Stress axis : x y z
#
# Youngs Moduli (GPa) = 82.07556 73.59163 66.79693
#
# Poissons Ratio (x) = 0.25929 0.14831
# Poissons Ratio (y) = 0.28919 0.31573
# Poissons Ratio (z) = 0.18223 0.34785
#
# Static dielectric constant tensor:
#      x y z
#    x 1.626460 0.000000 0.000000 
#    y 0.000000 1.598490 0.000000 
#    z 0.000000 0.000000 1.622920 
# 
# From -- ./inp_files/40255.got.cif
#   From: 2010.05.17/outbox.cif.g08.bks.cpg/sg65_21_cif.got.tgz:40255.got - 2010.06.03 17:01:31.
