data_PCOD9484778
_publ_section_title
;
Structure prediction by ZEFSAII (Michael W. Deem and Ramdas Pophale) SiO2 
 PCOD9484778
Probable space group: C M M M
;
_chemical_formula_sum "Si O2"
_cell_formula_units_Z 116
_cell_length_a 18.596957
_cell_length_b 28.156625
_cell_length_c 13.857303
_cell_angle_alpha 90.000000
_cell_angle_beta 90.000000
_cell_angle_gamma 90.000000
_cell_volume 7256.065542
_symmetry_space_group_name_H-M "C M M M"
_symmetry_group_IT_number 65
_symmetry_cell_setting 'orthorhombic'
loop_
_space_group_symop_operation_xyz
x,y,z
-x,-y,z
x,-y,-z
-x,y,-z
-x,-y,-z
x,y,-z
-x,y,z
x,-y,z
1/2+x,1/2+y,z
1/2-x,1/2-y,z
1/2+x,1/2-y,-z
1/2-x,1/2+y,-z
1/2-x,1/2-y,-z
1/2+x,1/2+y,-z
1/2-x,1/2+y,z
1/2+x,1/2-y,z
loop_
_atom_site_type_symbol
_atom_site_label
_atom_site_fract_x
_atom_site_fract_y
_atom_site_fract_z
Si Si1 0.585562 0.182038 0.608912
Si Si2 0.216466 0.146499 0.882967
Si Si3 0.130573 0.428230 0.389440
Si Si4 0.859584 0.695343 0.189919
Si Si5 0.217881 0.446125 0.794734
Si Si6 0.000000 0.500000 0.346366
Si Si7 0.080585 0.206297 0.115192
Si Si8 0.920065 0.596910 0.884977
O O1 0.600852 0.199300 0.500000
O O2 0.500000 0.187410 0.626243
O O3 0.605994 0.126418 0.611916
O O4 0.630310 0.204284 0.696340
O O5 0.279717 0.180996 0.843631
O O6 0.231692 0.094761 0.838196
O O7 0.140042 0.168194 0.853184
O O8 0.222055 0.144499 0.000000
O O9 0.147332 0.441007 0.500000
O O10 0.196249 0.436165 0.316187
O O11 0.063373 0.459291 0.354980
O O12 0.889788 0.741270 0.136931
O O13 0.905518 0.648198 0.162652
O O14 0.242927 0.500000 0.807197
O O15 0.141797 0.438122 0.849770
O O16 0.000000 0.200533 0.155283
O O17 0.076417 0.201538 0.000000
O O18 0.000000 0.579610 0.860709
O O19 0.915039 0.602813 0.000000
#
# Coordination Sequence:
#
# PCOD9484778 Si02
#       8
#    16  16  16  16  16   4  16  16
#     4  10  19  29  43  66 100 139 174 207 242 281
#     4  10  21  36  51  73 104 130 158 203 250 296
#     4  11  20  29  43  65  95 131 175 218 247 277
#     4  11  18  30  52  74 100 131 164 197 244 295
#     4  11  22  32  48  66  91 130 168 202 245 297
#     4  12  21  28  44  68  97 138 183 228 256 270
#     4  10  20  34  56  81  99 122 159 204 252 301
#     4  10  20  30  40  61  95 130 165 200 230 273
#
# _framework density 15.986625
#
# number of rings (size 3 to 8) (size 9 to 14) (size 15 to 20)
#    0.000    1.517    4.138    4.759    0.966    3.586 
#    0.000    0.690    0.000    2.897    0.000    1.931 
#    0.000    0.000    0.000    1.241    0.000    0.000 
#
# Total GULP energy -323093.101606 kJ/mol
# GULP energy per Si atom -5570.570717 kJ/mol
# Density = 1.595024 g / cm^3
# Si number density = 15.986625 Si / 1000 Ang^3
#
#
#
# Elastic Constant Matrix: (Units=GPa)
#
#
# Indices 1 2 3 4 5 6 
#
# 1 84.8998 44.8056 23.5152 0.0000 0.0000 0.0000
# 2 44.8056 52.6004 11.7150 0.0000 0.0000 0.0000
# 3 23.5152 11.7150 77.3782 0.0000 0.0000 0.0000
# 4 0.0000 0.0000 0.0000 25.8373 0.0000 0.0000
# 5 0.0000 0.0000 0.0000 0.0000 1.5441 0.0000
# 6 0.0000 0.0000 0.0000 0.0000 0.0000 19.2159
#
#
#
# Elastic Compliance Matrix: (Units=1/GPa)
#
#
# Indices 1 2 3 4 5 6 
#
# 1 0.022582 -0.018325 -0.004088 0.000000 0.000000 0.000000
# 2 -0.018325 0.034545 0.000339 0.000000 0.000000 0.000000
# 3 -0.004088 0.000339 0.014115 0.000000 0.000000 0.000000
# 4 0.000000 0.000000 0.000000 0.038704 0.000000 0.000000
# 5 0.000000 0.000000 0.000000 0.000000 0.647618 0.000000
# 6 0.000000 0.000000 0.000000 0.000000 0.000000 0.052040
#
#
# Mechanical properties :
#
#
# Convention : Reuss Voigt Hill
#
# Bulk Modulus (GPa) = 36.90991 41.66110 39.28551
# Shear Modulus (GPa) = 5.79520 18.30897 12.05208
#
# Velocity S-wave (km/s) = 1.90602 3.38785 2.74868
# Velocity P-wave (km/s) = 5.28980 6.43583 5.89075
#
# Compressibility (1/GPa) = 0.02709299
#
# Stress axis : x y z
#
# Youngs Moduli (GPa) = 44.28338 28.94761 70.84835
#
# Poissons Ratio (x) = 0.53046 0.28964
# Poissons Ratio (y) = 0.81149 -0.02400
# Poissons Ratio (z) = 0.18104 -0.00981
#
# Static dielectric constant tensor:
#      x y z
#    x 1.532720 0.000000 0.000000 
#    y 0.000000 1.529650 0.000000 
#    z 0.000000 0.000000 1.589160 
# 
# From -- ./inp_files/43333.got.cif
#   From: 2010.05.17/outbox.cif.g08.bks.cpg/sg65_22_cif.got.tgz:43333.got - 2010.06.03 17:01:31.
