data_PCOD9484703
_publ_section_title
;
Structure prediction by ZEFSAII (Michael W. Deem and Ramdas Pophale) SiO2 
 PCOD9484703
Probable space group: C M M M
;
_chemical_formula_sum "Si O2"
_cell_formula_units_Z 104
_cell_length_a 7.581905
_cell_length_b 28.289751
_cell_length_c 27.848908
_cell_angle_alpha 90.000000
_cell_angle_beta 90.000000
_cell_angle_gamma 90.000000
_cell_volume 5973.317974
_symmetry_space_group_name_H-M "C M M M"
_symmetry_group_IT_number 65
_symmetry_cell_setting 'orthorhombic'
loop_
_space_group_symop_operation_xyz
x,y,z
-x,-y,z
x,-y,-z
-x,y,-z
-x,-y,-z
x,y,-z
-x,y,z
x,-y,z
1/2+x,1/2+y,z
1/2-x,1/2-y,z
1/2+x,1/2-y,-z
1/2-x,1/2+y,-z
1/2-x,1/2-y,-z
1/2+x,1/2+y,-z
1/2-x,1/2+y,z
1/2+x,1/2-y,z
loop_
_atom_site_type_symbol
_atom_site_label
_atom_site_fract_x
_atom_site_fract_y
_atom_site_fract_z
Si Si1 0.793298 0.642064 0.698383
Si Si2 0.789935 0.804121 0.206582
Si Si3 0.788875 0.694043 0.500000
Si Si4 0.290487 0.608536 0.853455
Si Si5 0.215508 0.945464 0.054127
Si Si6 0.713537 0.053301 0.757481
Si Si7 0.212729 0.694122 0.604792
O O1 0.780122 0.680035 0.741420
O O2 0.719905 0.593209 0.720315
O O3 0.717820 0.664006 0.649641
O O4 0.000000 0.633395 0.689377
O O5 0.750000 0.750000 0.195707
O O6 0.720674 0.841871 0.167541
O O7 0.000000 0.809758 0.209206
O O8 0.750000 0.750000 0.500000
O O9 0.721992 0.677621 0.447892
O O10 0.000000 0.687150 0.500000
O O11 0.500000 0.614508 0.860188
O O12 0.219737 0.588220 0.903372
O O13 0.263143 0.570938 0.810660
O O14 0.000000 0.944993 0.054789
O O15 0.267642 0.000000 0.062902
O O16 0.269646 0.932333 0.000000
O O17 0.500000 0.053476 0.755423
O O18 0.774767 0.000000 0.748499
O O19 0.250000 0.750000 0.610946
O O20 0.000000 0.690236 0.604393
#
# Coordination Sequence:
#
# PCOD9484703 Si02
#       7
#    16  16   8  16  16  16  16
#     4   9  17  28  41  58  79 104 133 162 193 230
#     4  10  19  29  41  58  80 106 134 163 195 230
#     4   8  14  24  36  52  73  97 125 155 190 230
#     4   9  17  28  43  62  81 103 132 163 194 229
#     4   8  13  22  39  63  85 101 121 155 197 234
#     4   9  17  28  41  58  81 107 132 158 192 234
#     4   9  16  25  38  55  76 101 127 157 192 229
#
# _framework density 17.410758000000001
#
# number of rings (size 3 to 8) (size 9 to 14) (size 15 to 20)
#    0.000    3.077    0.000    1.846    0.000    3.385 
#    0.000    0.000    0.000    0.923    0.000    2.692 
#    0.000    4.308    0.000    0.000    0.000   42.077 
#
# Total GULP energy -289667.906088 kJ/mol
# GULP energy per Si atom -5570.536656 kJ/mol
# Density = 1.737113 g / cm^3
# Si number density = 17.410758 Si / 1000 Ang^3
#
#
#
# Elastic Constant Matrix: (Units=GPa)
#
#
# Indices 1 2 3 4 5 6 
#
# 1 35.0195 -3.2792 -0.2247 0.0000 0.0000 0.0000
# 2 -3.2792 114.6106 86.9251 0.0000 0.0000 0.0000
# 3 -0.2247 86.9251 182.2565 0.0000 0.0000 0.0000
# 4 0.0000 0.0000 0.0000 23.2126 0.0000 0.0000
# 5 0.0000 0.0000 0.0000 0.0000 9.6925 0.0000
# 6 0.0000 0.0000 0.0000 0.0000 0.0000 7.1555
#
#
#
# Elastic Compliance Matrix: (Units=1/GPa)
#
#
# Indices 1 2 3 4 5 6 
#
# 1 0.028668 0.001243 -0.000558 0.000000 0.000000 0.000000
# 2 0.001243 0.013724 -0.006544 0.000000 0.000000 0.000000
# 3 -0.000558 -0.006544 0.008607 0.000000 0.000000 0.000000
# 4 0.000000 0.000000 0.000000 0.043080 0.000000 0.000000
# 5 0.000000 0.000000 0.000000 0.000000 0.103172 0.000000
# 6 0.000000 0.000000 0.000000 0.000000 0.000000 0.139752
#
#
# Mechanical properties :
#
#
# Convention : Reuss Voigt Hill
#
# Bulk Modulus (GPa) = 25.45650 55.41434 40.43542
# Shear Modulus (GPa) = 13.81923 24.57650 19.19787
#
# Velocity S-wave (km/s) = 2.82036 3.76116 3.32421
# Velocity P-wave (km/s) = 5.02581 7.12450 6.16511
#
# Compressibility (1/GPa) = 0.03928269
#
# Stress axis : x y z
#
# Youngs Moduli (GPa) = 34.88165 72.86543 116.18262
#
# Poissons Ratio (x) = -0.09058 0.06478
# Poissons Ratio (y) = -0.04336 0.76029
# Poissons Ratio (z) = 0.01945 0.47683
#
# Static dielectric constant tensor:
#      x y z
#    x 1.665160 0.000000 0.000000 
#    y 0.000000 1.592850 0.000000 
#    z 0.000000 0.000000 1.615840 
# 
# From -- ./inp_files/77107.got.cif
#   From: 2010.05.17/outbox.cif.g08.bks.cpg/sg65_39_cif.got.tgz:77107.got - 2010.06.03 17:01:31.
