data_PCOD9484393
_publ_section_title
;
Structure prediction by ZEFSAII (Michael W. Deem and Ramdas Pophale) SiO2 
 PCOD9484393
Probable space group: C M M M
;
_chemical_formula_sum "Si O2"
_cell_formula_units_Z 96
_cell_length_a 8.647509
_cell_length_b 24.133405
_cell_length_c 26.242145
_cell_angle_alpha 90.000000
_cell_angle_beta 90.000000
_cell_angle_gamma 90.000000
_cell_volume 5476.573930
_symmetry_space_group_name_H-M "C M M M"
_symmetry_group_IT_number 65
_symmetry_cell_setting 'orthorhombic'
loop_
_space_group_symop_operation_xyz
x,y,z
-x,-y,z
x,-y,-z
-x,y,-z
-x,-y,-z
x,y,-z
-x,y,z
x,-y,z
1/2+x,1/2+y,z
1/2-x,1/2-y,z
1/2+x,1/2-y,-z
1/2-x,1/2+y,-z
1/2-x,1/2-y,-z
1/2+x,1/2+y,-z
1/2-x,1/2+y,z
1/2+x,1/2-y,z
loop_
_atom_site_type_symbol
_atom_site_label
_atom_site_fract_x
_atom_site_fract_y
_atom_site_fract_z
Si Si1 0.815618 0.123669 0.799618
Si Si2 0.311178 0.565354 0.500000
Si Si3 0.182635 0.000000 0.228486
Si Si4 0.315847 0.687198 0.000000
Si Si5 0.681072 0.000000 0.662057
Si Si6 0.686669 0.311729 0.303685
Si Si7 0.683065 0.187995 0.105148
Si Si8 0.313659 0.391869 0.608770
O O1 0.769710 0.149919 0.744822
O O2 0.728570 0.153362 0.845390
O O3 0.000000 0.133466 0.805342
O O4 0.790067 0.057717 0.799969
O O5 0.263097 0.500000 0.500000
O O6 0.500000 0.564119 0.500000
O O7 0.260370 0.597760 0.449163
O O8 0.287816 0.000000 0.278162
O O9 0.000000 0.000000 0.244212
O O10 0.250000 0.750000 0.000000
O O11 0.254631 0.663008 0.053148
O O12 0.500000 0.688529 0.000000
O O13 0.761878 0.053675 0.638771
O O14 0.500000 0.000000 0.650261
O O15 0.500000 0.309741 0.304421
O O16 0.750000 0.250000 0.297603
O O17 0.739740 0.340189 0.356713
O O18 0.500000 0.191877 0.099207
O O19 0.750000 0.250000 0.111585
O O20 0.500000 0.389542 0.607512
#
# Coordination Sequence:
#
# PCOD9484393 Si02
#       8
#    16   8   8   8   8  16  16  16
#     4  10  20  35  56  81 105 139 178 220 268 317
#     4   9  16  28  57  84  96 124 180 228 259 308
#     4  10  20  38  59  78 107 142 179 217 261 321
#     4  10  18  32  54  79 108 143 186 230 270 318
#     4  12  22  31  51  82 110 137 168 215 270 323
#     4  10  21  35  54  75 105 140 177 217 262 316
#     4  11  21  34  53  80 114 148 182 225 269 317
#     4  10  19  36  56  77 103 138 177 219 264 319
#
# _framework density 17.529208000000001
#
# number of rings (size 3 to 8) (size 9 to 14) (size 15 to 20)
#    0.000    1.750    2.500    4.500    0.000    3.333 
#    0.000    1.250    0.000    0.500    0.000    3.500 
#    0.000    0.000    0.000    0.000    0.000    0.000 
#
# Total GULP energy -267792.136698 kJ/mol
# GULP energy per Si atom -5579.002848 kJ/mol
# Density = 1.748931 g / cm^3
# Si number density = 17.529208 Si / 1000 Ang^3
#
#
#
# Elastic Constant Matrix: (Units=GPa)
#
#
# Indices 1 2 3 4 5 6 
#
# 1 46.8127 26.3027 45.6720 0.0000 0.0000 0.0000
# 2 26.3027 101.1816 48.4173 0.0000 0.0000 0.0000
# 3 45.6720 48.4173 130.5172 0.0000 0.0000 0.0000
# 4 0.0000 0.0000 0.0000 28.7283 0.0000 0.0000
# 5 0.0000 0.0000 0.0000 0.0000 14.3711 0.0000
# 6 0.0000 0.0000 0.0000 0.0000 0.0000 15.5075
#
#
#
# Elastic Compliance Matrix: (Units=1/GPa)
#
#
# Indices 1 2 3 4 5 6 
#
# 1 0.033582 -0.003777 -0.010350 0.000000 0.000000 0.000000
# 2 -0.003777 0.012441 -0.003293 0.000000 0.000000 0.000000
# 3 -0.010350 -0.003293 0.012505 0.000000 0.000000 0.000000
# 4 0.000000 0.000000 0.000000 0.034809 0.000000 0.000000
# 5 0.000000 0.000000 0.000000 0.000000 0.069584 0.000000
# 6 0.000000 0.000000 0.000000 0.000000 0.000000 0.064485
#
#
# Mechanical properties :
#
#
# Convention : Reuss Voigt Hill
#
# Bulk Modulus (GPa) = 42.21732 57.69950 49.95841
# Shear Modulus (GPa) = 18.50870 22.26269 20.38569
#
# Velocity S-wave (km/s) = 3.25295 3.56762 3.41391
# Velocity P-wave (km/s) = 6.18427 7.06811 6.64091
#
# Compressibility (1/GPa) = 0.02368696
#
# Stress axis : x y z
#
# Youngs Moduli (GPa) = 29.77794 80.37889 79.96518
#
# Poissons Ratio (x) = 0.30359 0.82765
# Poissons Ratio (y) = 0.11247 0.26336
# Poissons Ratio (z) = 0.30821 0.26473
#
# Static dielectric constant tensor:
#      x y z
#    x 1.594220 0.000000 0.000000 
#    y 0.000000 1.579040 0.000000 
#    z 0.000000 0.000000 1.623080 
# 
# From -- ./inp_files/67947.got.cif
#   From: 2010.05.17/outbox.cif.g08.bks.cpg/sg65_34_cif.got.tgz:67947.got - 2010.06.03 17:01:31.
