data_PCOD9484488
_publ_section_title
;
Structure prediction by ZEFSAII (Michael W. Deem and Ramdas Pophale) SiO2 
 PCOD9484488
Probable space group: C M M M
;
_chemical_formula_sum "Si O2"
_cell_formula_units_Z 96
_cell_length_a 7.679733
_cell_length_b 24.486658
_cell_length_c 27.040498
_cell_angle_alpha 90.000000
_cell_angle_beta 90.000000
_cell_angle_gamma 90.000000
_cell_volume 5084.992568
_symmetry_space_group_name_H-M "C M M M"
_symmetry_group_IT_number 65
_symmetry_cell_setting 'orthorhombic'
loop_
_space_group_symop_operation_xyz
x,y,z
-x,-y,z
x,-y,-z
-x,y,-z
-x,-y,-z
x,y,-z
-x,y,z
x,-y,z
1/2+x,1/2+y,z
1/2-x,1/2-y,z
1/2+x,1/2-y,-z
1/2-x,1/2+y,-z
1/2-x,1/2-y,-z
1/2+x,1/2+y,-z
1/2-x,1/2+y,z
1/2+x,1/2-y,z
loop_
_atom_site_type_symbol
_atom_site_label
_atom_site_fract_x
_atom_site_fract_y
_atom_site_fract_z
Si Si1 0.285621 0.119805 0.756882
Si Si2 0.706883 0.000000 0.781291
Si Si3 0.290455 0.814256 0.338985
Si Si4 0.209357 0.685305 0.553142
Si Si5 0.206091 0.313559 0.147322
Si Si6 0.288854 0.500000 0.897277
Si Si7 0.708051 0.613104 0.055210
O O1 0.500000 0.120020 0.757186
O O2 0.227567 0.151094 0.707615
O O3 0.224789 0.152049 0.805889
O O4 0.225934 0.057146 0.759912
O O5 0.500000 0.000000 0.772493
O O6 0.735715 0.000000 0.840176
O O7 0.500000 0.818774 0.339783
O O8 0.250000 0.750000 0.332848
O O9 0.225347 0.833710 0.393133
O O10 0.274932 0.663399 0.500000
O O11 0.250000 0.750000 0.552979
O O12 0.000000 0.678817 0.553016
O O13 0.250000 0.250000 0.150868
O O14 0.260268 0.340423 0.095644
O O15 0.000000 0.318537 0.149677
O O16 0.500000 0.500000 0.898831
O O17 0.225602 0.555136 0.923836
O O18 0.500000 0.607437 0.051599
O O19 0.775463 0.624555 0.000000
#
# Coordination Sequence:
#
# PCOD9484488 Si02
#       7
#    16   8  16  16  16   8  16
#     4   9  18  31  49  70  92 120 154 191 230 277
#     4  10  18  33  53  71  93 120 152 191 232 276
#     4   9  16  27  42  64  92 122 154 187 227 273
#     4   8  13  21  35  56  84 117 151 186 223 264
#     4  11  22  36  53  73  97 126 159 193 232 278
#     4  10  19  34  56  80 100 119 149 190 236 278
#     4  10  21  37  56  77 100 125 153 187 230 280
#
# _framework density 18.879083000000001
#
# number of rings (size 3 to 8) (size 9 to 14) (size 15 to 20)
#    0.000    2.500    1.667    1.250    0.000    1.667 
#    0.000    1.667    0.000    1.500    0.000    0.583 
#    0.000    4.667    0.000    0.000    0.000   78.500 
#
# Total GULP energy -267627.511468 kJ/mol
# GULP energy per Si atom -5575.573156 kJ/mol
# Density = 1.883611 g / cm^3
# Si number density = 18.879083 Si / 1000 Ang^3
#
#
#
# Elastic Constant Matrix: (Units=GPa)
#
#
# Indices 1 2 3 4 5 6 
#
# 1 29.8549 1.2734 0.1175 0.0000 0.0000 0.0000
# 2 1.2734 130.1847 92.7114 0.0000 0.0000 0.0000
# 3 0.1175 92.7114 203.0702 0.0000 0.0000 0.0000
# 4 0.0000 0.0000 0.0000 6.4875 0.0000 0.0000
# 5 0.0000 0.0000 0.0000 0.0000 4.0452 0.0000
# 6 0.0000 0.0000 0.0000 0.0000 0.0000 -12.9667
#
#
#
# Elastic Compliance Matrix: (Units=1/GPa)
#
#
# Indices 1 2 3 4 5 6 
#
# 1 0.033514 -0.000465 0.000193 0.000000 0.000000 0.000000
# 2 -0.000465 0.011389 -0.005199 0.000000 0.000000 0.000000
# 3 0.000193 -0.005199 0.007298 0.000000 0.000000 0.000000
# 4 0.000000 0.000000 0.000000 0.154142 0.000000 0.000000
# 5 0.000000 0.000000 0.000000 0.000000 0.247204 0.000000
# 6 0.000000 0.000000 0.000000 0.000000 0.000000 -0.077121
#
#
# Mechanical properties :
#
#
# Convention : Reuss Voigt Hill
#
# Bulk Modulus (GPa) = 24.23766 61.25716 42.74741
# Shear Modulus (GPa) = 12.46504 17.44705 14.95604
#
# Velocity S-wave (km/s) = 2.57233 3.04328 2.81766
# Velocity P-wave (km/s) = 4.65712 6.69823 5.76867
#
# Compressibility (1/GPa) = 0.04125811
#
# Stress axis : x y z
#
# Youngs Moduli (GPa) = 29.83790 87.80759 137.02459
#
# Poissons Ratio (x) = 0.04085 -0.02645
# Poissons Ratio (y) = 0.01388 0.71241
# Poissons Ratio (z) = -0.00576 0.45653
#
# Static dielectric constant tensor:
#      x y z
#    x 1.687770 0.000000 0.000000 
#    y 0.000000 1.606470 0.000000 
#    z 0.000000 0.000000 1.702060 
# 
# From -- ./inp_files/73480.got.cif
#   From: 2010.05.17/outbox.cif.g08.bks.cpg/sg65_37_cif.got.tgz:73480.got - 2010.06.03 17:01:31.
