data_PCOD9484425
_publ_section_title
;
Structure prediction by ZEFSAII (Michael W. Deem and Ramdas Pophale) SiO2 
 PCOD9484425
Probable space group: C M M M
;
_chemical_formula_sum "Si O2"
_cell_formula_units_Z 96
_cell_length_a 21.122294
_cell_length_b 27.018255
_cell_length_c 8.817019
_cell_angle_alpha 90.000000
_cell_angle_beta 90.000000
_cell_angle_gamma 90.000000
_cell_volume 5031.762755
_symmetry_space_group_name_H-M "C M M M"
_symmetry_group_IT_number 65
_symmetry_cell_setting 'orthorhombic'
loop_
_space_group_symop_operation_xyz
x,y,z
-x,-y,z
x,-y,-z
-x,y,-z
-x,-y,-z
x,y,-z
-x,y,z
x,-y,z
1/2+x,1/2+y,z
1/2-x,1/2-y,z
1/2+x,1/2-y,-z
1/2-x,1/2+y,-z
1/2-x,1/2-y,-z
1/2+x,1/2+y,-z
1/2-x,1/2+y,z
1/2+x,1/2-y,z
loop_
_atom_site_type_symbol
_atom_site_label
_atom_site_fract_x
_atom_site_fract_y
_atom_site_fract_z
Si Si1 0.188900 0.616832 0.325812
Si Si2 0.426659 0.174311 0.182691
Si Si3 0.305048 0.441829 0.181022
Si Si4 0.407953 0.289927 0.174003
Si Si5 0.737994 0.692664 0.836235
Si Si6 0.430996 0.391070 0.319839
O O1 0.179768 0.603040 0.500000
O O2 0.122255 0.634431 0.252240
O O3 0.237857 0.578798 0.245393
O O4 0.229959 0.666631 0.303757
O O5 0.500000 0.164615 0.223613
O O6 0.412092 0.232314 0.224459
O O7 0.420971 0.172307 0.000000
O O8 0.309243 0.500000 0.214837
O O9 0.368133 0.415295 0.246641
O O10 0.305050 0.434536 0.000000
O O11 0.336417 0.309025 0.165496
O O12 0.435268 0.332774 0.278642
O O13 0.432117 0.291075 0.000000
O O14 0.750000 0.750000 0.834397
O O15 0.762487 0.672814 0.000000
O O16 0.425243 0.396773 0.500000
O O17 0.500000 0.412734 0.271292
#
# Coordination Sequence:
#
# PCOD9484425 Si02
#       6
#    16  16  16  16  16  16
#     4  12  24  37  59  87 120 155 189 239 301 360
#     4  10  21  38  60  86 120 163 206 244 284 337
#     4  11  25  45  68  89 109 142 195 252 299 350
#     4  10  19  33  57  85 117 161 207 244 276 324
#     4  10  18  32  55  81 113 153 199 244 280 330
#     4  11  24  39  57  86 125 163 195 236 293 350
#
# _framework density 19.078800000000001
#
# number of rings (size 3 to 8) (size 9 to 14) (size 15 to 20)
#    0.000    1.333    3.333    3.000    0.000    5.000 
#    0.000    1.667    0.000    0.500    0.000    3.500 
#    0.000    0.000    0.000    0.000    0.000    0.000 
#
# Total GULP energy -267353.589856 kJ/mol
# GULP energy per Si atom -5569.866455 kJ/mol
# Density = 1.903538 g / cm^3
# Si number density = 19.078800 Si / 1000 Ang^3
#
#
#
# Elastic Constant Matrix: (Units=GPa)
#
#
# Indices 1 2 3 4 5 6 
#
# 1 162.1168 51.7027 53.2387 0.0000 0.0000 0.0000
# 2 51.7027 102.9707 38.8590 0.0000 0.0000 0.0000
# 3 53.2387 38.8590 70.1278 0.0000 0.0000 0.0000
# 4 0.0000 0.0000 0.0000 -3.4842 0.0000 0.0000
# 5 0.0000 0.0000 0.0000 0.0000 -34.8080 0.0000
# 6 0.0000 0.0000 0.0000 0.0000 0.0000 11.1687
#
#
#
# Elastic Compliance Matrix: (Units=1/GPa)
#
#
# Indices 1 2 3 4 5 6 
#
# 1 0.008647 -0.002357 -0.005258 0.000000 0.000000 0.000000
# 2 -0.002357 0.012922 -0.005371 0.000000 0.000000 0.000000
# 3 -0.005258 -0.005371 0.021228 0.000000 0.000000 0.000000
# 4 0.000000 0.000000 0.000000 -0.287008 0.000000 0.000000
# 5 0.000000 0.000000 0.000000 0.000000 -0.028729 0.000000
# 6 0.000000 0.000000 0.000000 0.000000 0.000000 0.089536
#
#
# Mechanical properties :
#
#
# Convention : Reuss Voigt Hill
#
# Bulk Modulus (GPa) = 59.43908 69.20180 64.32044
# Shear Modulus (GPa) = -32.93279 7.33628 -12.79825
#
# Velocity S-wave (km/s) = -4.15920 1.96306 -2.59281
# Velocity P-wave (km/s) = 2.85603 6.44115 4.98224
#
# Compressibility (1/GPa) = 0.01682395
#
# Stress axis : x y z
#
# Youngs Moduli (GPa) = 115.64682 77.38780 47.10867
#
# Poissons Ratio (x) = 0.18243 0.24771
# Poissons Ratio (y) = 0.27263 0.25300
# Poissons Ratio (z) = 0.60810 0.41562
#
# Static dielectric constant tensor:
#      x y z
#    x 1.733230 0.000000 0.000000 
#    y 0.000000 1.588050 0.000000 
#    z 0.000000 0.000000 1.693470 
# 
# From -- ./inp_files/12215.got.cif
#   From: 2010.05.17/outbox.cif.g08.bks.cpg/sg65_7_cif.got.tgz:12215.got - 2010.06.03 17:01:31.
