data_PCOD9484878
_publ_section_title
;
Structure prediction by ZEFSAII (Michael W. Deem and Ramdas Pophale) SiO2 
 PCOD9484878
Probable space group: C M M M
;
_chemical_formula_sum "Si O2"
_cell_formula_units_Z 72
_cell_length_a 16.314142
_cell_length_b 8.055039
_cell_length_c 26.687549
_cell_angle_alpha 90.000000
_cell_angle_beta 90.000000
_cell_angle_gamma 90.000000
_cell_volume 3507.038838
_symmetry_space_group_name_H-M "C M M M"
_symmetry_group_IT_number 65
_symmetry_cell_setting 'orthorhombic'
loop_
_space_group_symop_operation_xyz
x,y,z
-x,-y,z
x,-y,-z
-x,y,-z
-x,-y,-z
x,y,-z
-x,y,z
x,-y,z
1/2+x,1/2+y,z
1/2-x,1/2-y,z
1/2+x,1/2-y,-z
1/2-x,1/2+y,-z
1/2-x,1/2-y,-z
1/2+x,1/2+y,-z
1/2-x,1/2+y,z
1/2+x,1/2-y,z
loop_
_atom_site_type_symbol
_atom_site_label
_atom_site_fract_x
_atom_site_fract_y
_atom_site_fract_z
Si Si1 0.000000 0.195967 0.267262
Si Si2 0.155774 0.200513 0.000000
Si Si3 0.338684 0.700198 0.789065
Si Si4 0.159314 0.801215 0.557802
Si Si5 0.406433 0.297875 0.892632
Si Si6 0.000000 0.694226 0.380006
O O1 0.916277 0.263048 0.242776
O O2 0.000000 0.216292 0.326601
O O3 0.000000 0.000000 0.255300
O O4 0.250000 0.250000 0.000000
O O5 0.116915 0.261923 0.947999
O O6 0.147676 0.000000 0.000000
O O7 0.341305 0.500000 0.789441
O O8 0.250000 0.750000 0.769362
O O9 0.350536 0.759055 0.846587
O O10 0.152598 0.741274 0.500000
O O11 0.250000 0.750000 0.576395
O O12 0.082113 0.738044 0.589206
O O13 0.155698 0.000000 0.557574
O O14 0.500000 0.253785 0.880960
O O15 0.402163 0.500000 0.893901
O O16 0.000000 0.500000 0.369871
#
# Coordination Sequence:
#
# PCOD9484878 Si02
#       6
#     8   8  16  16  16   8
#     4  10  22  41  59  77 108 151 194 241 294 349
#     4  10  19  29  47  75 107 138 172 219 269 331
#     4  10  20  36  59  81 105 141 185 234 287 345
#     4  10  21  39  64  94 128 165 204 245 291 347
#     4   9  16  30  52  77 103 136 181 223 268 333
#     4  12  25  39  60  89 123 161 203 251 300 353
#
# _framework density 20.530139999999999
#
# number of rings (size 3 to 8) (size 9 to 14) (size 15 to 20)
#    0.000    2.000    1.111    3.000    0.000    5.778 
#    0.000    2.222    0.000    2.667    0.000    0.000 
#    0.000    0.000    0.000    0.000    0.000    0.000 
#
# Total GULP energy -201015.335592 kJ/mol
# GULP energy per Si atom -5583.759322 kJ/mol
# Density = 2.048341 g / cm^3
# Si number density = 20.530140 Si / 1000 Ang^3
#
#
#
# Elastic Constant Matrix: (Units=GPa)
#
#
# Indices 1 2 3 4 5 6 
#
# 1 175.8956 0.0407 65.0117 0.0000 0.0000 0.0000
# 2 0.0407 14.8227 -10.8466 0.0000 0.0000 0.0000
# 3 65.0117 -10.8466 83.2511 0.0000 0.0000 0.0000
# 4 0.0000 0.0000 0.0000 5.2283 0.0000 0.0000
# 5 0.0000 0.0000 0.0000 0.0000 -1.6246 0.0000
# 6 0.0000 0.0000 0.0000 0.0000 0.0000 32.2981
#
#
#
# Elastic Compliance Matrix: (Units=1/GPa)
#
#
# Indices 1 2 3 4 5 6 
#
# 1 0.008352 -0.005301 -0.007213 0.000000 0.000000 0.000000
# 2 -0.005301 0.077939 0.014294 0.000000 0.000000 0.000000
# 3 -0.007213 0.014294 0.019507 0.000000 0.000000 0.000000
# 4 0.000000 0.000000 0.000000 0.191267 0.000000 0.000000
# 5 0.000000 0.000000 0.000000 0.000000 -0.615544 0.000000
# 6 0.000000 0.000000 0.000000 0.000000 0.000000 0.030962
#
#
# Mechanical properties :
#
#
# Convention : Reuss Voigt Hill
#
# Bulk Modulus (GPa) = 9.14431 42.48680 25.81556
# Shear Modulus (GPa) = -19.63674 21.83128 1.09727
#
# Velocity S-wave (km/s) = -3.09606 3.26448 0.73187
# Velocity P-wave (km/s) = 2.88393 5.91176 3.64910
#
# Compressibility (1/GPa) = 0.10935761
#
# Stress axis : x y z
#
# Youngs Moduli (GPa) = 119.72542 12.83062 51.26346
#
# Poissons Ratio (x) = 0.06802 0.36977
# Poissons Ratio (y) = 0.63470 -0.73277
# Poissons Ratio (z) = 0.86360 -0.18340
#
# Static dielectric constant tensor:
#      x y z
#    x 1.719410 0.000000 0.000000 
#    y 0.000000 1.741530 0.000000 
#    z 0.000000 0.000000 1.739670 
# 
# From -- ./inp_files/72629.got.cif
#   From: 2010.05.17/outbox.cif.g08.bks.cpg/sg65_37_cif.got.tgz:72629.got - 2010.06.03 17:01:31.
