data_PCOD9484530
_publ_section_title
;
Structure prediction by ZEFSAII (Michael W. Deem and Ramdas Pophale) SiO2 
 PCOD9484530
Probable space group: C M M M
;
_chemical_formula_sum "Si O2"
_cell_formula_units_Z 88
_cell_length_a 14.200524
_cell_length_b 18.830351
_cell_length_c 18.220755
_cell_angle_alpha 90.000000
_cell_angle_beta 90.000000
_cell_angle_gamma 90.000000
_cell_volume 4872.245398
_symmetry_space_group_name_H-M "C M M M"
_symmetry_group_IT_number 65
_symmetry_cell_setting 'orthorhombic'
loop_
_space_group_symop_operation_xyz
x,y,z
-x,-y,z
x,-y,-z
-x,y,-z
-x,-y,-z
x,y,-z
-x,y,z
x,-y,z
1/2+x,1/2+y,z
1/2-x,1/2-y,z
1/2+x,1/2-y,-z
1/2-x,1/2+y,-z
1/2-x,1/2-y,-z
1/2+x,1/2+y,-z
1/2-x,1/2+y,z
1/2+x,1/2-y,z
loop_
_atom_site_type_symbol
_atom_site_label
_atom_site_fract_x
_atom_site_fract_y
_atom_site_fract_z
Si Si1 0.888831 0.801418 0.725659
Si Si2 0.613968 0.413983 0.000000
Si Si3 0.275828 0.332424 0.871224
Si Si4 0.604863 0.081140 0.379405
Si Si5 0.784934 0.830771 0.578939
Si Si6 0.608149 0.858625 0.225600
O O1 0.839315 0.830799 0.798035
O O2 0.847947 0.835016 0.651632
O O3 0.870038 0.716473 0.732963
O O4 0.000000 0.811448 0.728304
O O5 0.666822 0.376363 0.068540
O O6 0.626050 0.500000 0.000000
O O7 0.500000 0.400379 0.000000
O O8 0.250000 0.250000 0.892393
O O9 0.178271 0.366256 0.842228
O O10 0.500000 0.111682 0.395193
O O11 0.691581 0.122213 0.413474
O O12 0.616568 0.085291 0.291019
O O13 0.605644 0.000000 0.403343
O O14 0.831649 0.846303 0.500000
O O15 0.750000 0.750000 0.577633
O O16 0.500000 0.855428 0.200867
#
# Coordination Sequence:
#
# PCOD9484530 Si02
#       6
#    16   8  16  16  16  16
#     4  10  18  33  57  84 113 147 190 240 287 336
#     4  11  25  42  59  87 125 157 190 237 286 338
#     4  10  19  37  62  87 114 150 195 237 283 339
#     4  10  20  35  55  80 113 151 189 233 290 352
#     4  11  21  34  52  79 113 150 195 243 288 336
#     4   9  17  32  57  87 116 144 183 234 285 341
#
# _framework density 18.061488000000001
#
# number of rings (size 3 to 8) (size 9 to 14) (size 15 to 20)
#    0.000    1.909    3.636    1.364    0.000    2.545 
#    0.000    3.182    0.000    1.091    0.000    1.273 
#    0.000    0.000    0.000    0.000    0.000    0.000 
#
# Total GULP energy -245268.976602 kJ/mol
# GULP energy per Si atom -5574.294923 kJ/mol
# Density = 1.802038 g / cm^3
# Si number density = 18.061488 Si / 1000 Ang^3
#
#
#
# Elastic Constant Matrix: (Units=GPa)
#
#
# Indices 1 2 3 4 5 6 
#
# 1 116.5903 44.4344 72.2649 0.0000 0.0000 0.0000
# 2 44.4344 60.5873 43.9933 0.0000 0.0000 0.0000
# 3 72.2649 43.9933 138.3445 0.0000 0.0000 0.0000
# 4 0.0000 0.0000 0.0000 72.8903 0.0000 0.0000
# 5 0.0000 0.0000 0.0000 0.0000 10.9827 0.0000
# 6 0.0000 0.0000 0.0000 0.0000 0.0000 27.0003
#
#
#
# Elastic Compliance Matrix: (Units=1/GPa)
#
#
# Indices 1 2 3 4 5 6 
#
# 1 0.014500 -0.006676 -0.005451 0.000000 0.000000 0.000000
# 2 -0.006676 0.024534 -0.004314 0.000000 0.000000 0.000000
# 3 -0.005451 -0.004314 0.011448 0.000000 0.000000 0.000000
# 4 0.000000 0.000000 0.000000 0.013719 0.000000 0.000000
# 5 0.000000 0.000000 0.000000 0.000000 0.091053 0.000000
# 6 0.000000 0.000000 0.000000 0.000000 0.000000 0.037037
#
#
# Mechanical properties :
#
#
# Convention : Reuss Voigt Hill
#
# Bulk Modulus (GPa) = 56.82332 70.76748 63.79540
# Shear Modulus (GPa) = 21.64121 32.49661 27.06891
#
# Velocity S-wave (km/s) = 3.46525 4.24632 3.87552
# Velocity P-wave (km/s) = 6.89492 7.95664 7.44473
#
# Compressibility (1/GPa) = 0.01759841
#
# Stress axis : x y z
#
# Youngs Moduli (GPa) = 68.96439 40.75943 87.35287
#
# Poissons Ratio (x) = 0.27212 0.47618
# Poissons Ratio (y) = 0.46042 0.37688
# Poissons Ratio (z) = 0.37594 0.17586
#
# Static dielectric constant tensor:
#      x y z
#    x 1.628770 0.000000 0.000000 
#    y 0.000000 1.630590 0.000000 
#    z 0.000000 0.000000 1.648730 
# 
# From -- ./inp_files/52972.got.cif
#   From: 2010.05.17/outbox.cif.g08.bks.cpg/sg65_27_cif.got.tgz:52972.got - 2010.06.03 17:01:31.
