data_PCOD9484198
_publ_section_title
;
Structure prediction by ZEFSAII (Michael W. Deem and Ramdas Pophale) SiO2 
 PCOD9484198
Probable space group: C M M M
;
_chemical_formula_sum "Si O2"
_cell_formula_units_Z 96
_cell_length_a 24.495650
_cell_length_b 26.172938
_cell_length_c 7.746409
_cell_angle_alpha 90.000000
_cell_angle_beta 90.000000
_cell_angle_gamma 90.000000
_cell_volume 4966.401974
_symmetry_space_group_name_H-M "C M M M"
_symmetry_group_IT_number 65
_symmetry_cell_setting 'orthorhombic'
loop_
_space_group_symop_operation_xyz
x,y,z
-x,-y,z
x,-y,-z
-x,y,-z
-x,-y,-z
x,y,-z
-x,y,z
x,-y,z
1/2+x,1/2+y,z
1/2-x,1/2-y,z
1/2+x,1/2-y,-z
1/2-x,1/2+y,-z
1/2-x,1/2-y,-z
1/2+x,1/2+y,-z
1/2-x,1/2+y,z
1/2+x,1/2-y,z
loop_
_atom_site_type_symbol
_atom_site_label
_atom_site_fract_x
_atom_site_fract_y
_atom_site_fract_z
Si Si1 0.438152 0.191014 0.793000
Si Si2 0.633953 0.098695 0.794331
Si Si3 0.437394 0.000000 0.292780
Si Si4 0.562603 0.500000 0.211724
Si Si5 0.061738 0.807146 0.294429
Si Si6 0.749839 0.440309 0.788511
Si Si7 0.633166 0.403663 0.206128
O O1 0.500000 0.182903 0.725709
O O2 0.396009 0.149086 0.724166
O O3 0.422983 0.249628 0.758062
O O4 0.440566 0.184730 0.000000
O O5 0.594894 0.050117 0.766881
O O6 0.694092 0.085281 0.726236
O O7 0.640258 0.105855 0.000000
O O8 0.500000 0.000000 0.230587
O O9 0.437979 0.000000 0.500000
O O10 0.500000 0.500000 0.268015
O O11 0.594621 0.449578 0.270441
O O12 0.562400 0.500000 0.000000
O O13 0.058774 0.808454 0.500000
O O14 0.104625 0.849855 0.239995
O O15 0.000000 0.817535 0.225701
O O16 0.747923 0.500000 0.738537
O O17 0.694825 0.411979 0.729936
O O18 0.750860 0.439790 0.000000
O O19 0.636018 0.409898 0.000000
#
# Coordination Sequence:
#
# PCOD9484198 Si02
#       7
#    16  16   8   8  16  16  16
#     4   9  18  33  54  79 102 129 172 220 264 312
#     4  10  19  34  57  80 104 136 176 221 265 309
#     4  11  23  34  47  75 113 145 174 213 262 317
#     4   9  16  25  43  73 101 125 160 207 254 296
#     4  10  21  36  53  74 103 139 174 212 264 317
#     4   9  16  30  53  80 106 135 171 214 260 306
#     4  10  18  31  53  78 104 135 173 214 257 308
#
# _framework density 19.329888
#
# number of rings (size 3 to 8) (size 9 to 14) (size 15 to 20)
#    0.000    2.333    1.667    1.750    0.000    3.667 
#    0.000    3.750    0.000    6.500    0.000    0.000 
#    0.000    0.000    0.000    0.000    0.000    0.000 
#
# Total GULP energy -267916.455852 kJ/mol
# GULP energy per Si atom -5581.592830 kJ/mol
# Density = 1.928589 g / cm^3
# Si number density = 19.329888 Si / 1000 Ang^3
#
#
#
# Elastic Constant Matrix: (Units=GPa)
#
#
# Indices 1 2 3 4 5 6 
#
# 1 207.1624 133.3085 5.0129 0.0000 0.0000 0.0000
# 2 133.3085 168.3567 -5.0845 0.0000 0.0000 0.0000
# 3 5.0129 -5.0845 24.3897 0.0000 0.0000 0.0000
# 4 0.0000 0.0000 0.0000 -655.9204 0.0000 0.0000
# 5 0.0000 0.0000 0.0000 0.0000 4.3267 0.0000
# 6 0.0000 0.0000 0.0000 0.0000 0.0000 92.8505
#
#
#
# Elastic Compliance Matrix: (Units=1/GPa)
#
#
# Indices 1 2 3 4 5 6 
#
# 1 0.010180 -0.008175 -0.003797 0.000000 0.000000 0.000000
# 2 -0.008175 0.012543 0.004295 0.000000 0.000000 0.000000
# 3 -0.003797 0.004295 0.042677 0.000000 0.000000 0.000000
# 4 0.000000 0.000000 0.000000 -0.001525 0.000000 0.000000
# 5 0.000000 0.000000 0.000000 0.000000 0.231125 0.000000
# 6 0.000000 0.000000 0.000000 0.000000 0.000000 0.010770
#
#
# Mechanical properties :
#
#
# Convention : Reuss Voigt Hill
#
# Bulk Modulus (GPa) = 19.98172 74.04251 47.01211
# Shear Modulus (GPa) = 14.80146 -93.97052 -39.58453
#
# Velocity S-wave (km/s) = 2.77018 -6.97995 -4.53022
# Velocity P-wave (km/s) = 4.53779 5.15477 1.72918
#
# Compressibility (1/GPa) = 0.05004575
#
# Stress axis : x y z
#
# Youngs Moduli (GPa) = 98.23471 79.72726 23.43204
#
# Poissons Ratio (x) = 0.65178 0.08896
# Poissons Ratio (y) = 0.80309 -0.10064
# Poissons Ratio (z) = 0.37295 -0.34243
#
# Static dielectric constant tensor:
#      x y z
#    x 1.661790 0.000000 0.000000 
#    y 0.000000 1.643170 0.000000 
#    z 0.000000 0.000000 1.702870 
# 
# From -- ./inp_files/14345.got.cif
#   From: 2010.05.17/outbox.cif.g08.bks.cpg/sg65_8_cif.got.tgz:14345.got - 2010.06.03 17:01:31.
