data_PCOD9484444
_publ_section_title
;
Structure prediction by ZEFSAII (Michael W. Deem and Ramdas Pophale) SiO2 
 PCOD9484444
Probable space group: C M M M
;
_chemical_formula_sum "Si O2"
_cell_formula_units_Z 96
_cell_length_a 13.653693
_cell_length_b 23.830401
_cell_length_c 14.420186
_cell_angle_alpha 90.000000
_cell_angle_beta 90.000000
_cell_angle_gamma 90.000000
_cell_volume 4691.938881
_symmetry_space_group_name_H-M "C M M M"
_symmetry_group_IT_number 65
_symmetry_cell_setting 'orthorhombic'
loop_
_space_group_symop_operation_xyz
x,y,z
-x,-y,z
x,-y,-z
-x,y,-z
-x,-y,-z
x,y,-z
-x,y,z
x,-y,z
1/2+x,1/2+y,z
1/2-x,1/2-y,z
1/2+x,1/2-y,-z
1/2-x,1/2+y,-z
1/2-x,1/2-y,-z
1/2+x,1/2+y,-z
1/2-x,1/2+y,z
1/2+x,1/2-y,z
loop_
_atom_site_type_symbol
_atom_site_label
_atom_site_fract_x
_atom_site_fract_y
_atom_site_fract_z
Si Si1 0.882614 0.224532 0.190997
Si Si2 0.248378 0.934525 0.000000
Si Si3 0.382190 0.829672 0.304848
Si Si4 0.881633 0.827792 0.000000
Si Si5 0.380744 0.645945 0.500000
Si Si6 0.880366 0.277146 0.500000
Si Si7 0.296640 0.936588 0.792882
Si Si8 0.385028 0.609400 0.299468
O O1 0.844970 0.282357 0.233119
O O2 0.846499 0.204330 0.091554
O O3 0.872145 0.172855 0.261678
O O4 0.000000 0.232336 0.180309
O O5 0.305548 0.925357 0.903142
O O6 0.160495 0.890330 0.000000
O O7 0.217828 0.000000 0.000000
O O8 0.500000 0.828426 0.305423
O O9 0.350487 0.809837 0.406990
O O10 0.348793 0.889793 0.268908
O O11 0.000000 0.830191 0.000000
O O12 0.500000 0.648233 0.500000
O O13 0.349836 0.711587 0.500000
O O14 0.353539 0.613038 0.406672
O O15 0.000000 0.275859 0.500000
O O16 0.182908 0.929652 0.763048
O O17 0.329604 0.000000 0.774724
O O18 0.500000 0.595268 0.292828
#
# Coordination Sequence:
#
# PCOD9484444 Si02
#       8
#    16   8  16   8   8   8  16  16
#     4   9  17  31  54  85 119 147 177 229 292 348
#     4  10  22  40  56  77 113 155 201 244 275 331
#     4  10  21  39  62  87 117 151 189 239 296 344
#     4  10  18  32  55  88 123 151 189 240 290 345
#     4   9  16  31  57  88 123 157 190 226 274 351
#     4   9  16  33  61  90 117 145 186 238 288 347
#     4  11  25  42  59  82 113 153 204 246 280 338
#     4  10  19  35  58  86 121 154 185 232 289 342
#
# _framework density 20.460623999999999
#
# number of rings (size 3 to 8) (size 9 to 14) (size 15 to 20)
#    0.000    2.167    3.333    0.000    0.000    2.833 
#    0.000    6.250    0.000    4.500    0.000    0.000 
#    0.000    0.000    0.000    0.000    0.000    0.000 
#
# Total GULP energy -268153.815055 kJ/mol
# GULP energy per Si atom -5586.537814 kJ/mol
# Density = 2.041405 g / cm^3
# Si number density = 20.460624 Si / 1000 Ang^3
#
#
#
# Elastic Constant Matrix: (Units=GPa)
#
#
# Indices 1 2 3 4 5 6 
#
# 1 47.4432 9.0693 8.4596 0.0000 0.0000 0.0000
# 2 9.0693 89.8443 37.7515 0.0000 0.0000 0.0000
# 3 8.4596 37.7515 143.4980 0.0000 0.0000 0.0000
# 4 0.0000 0.0000 0.0000 21.1083 0.0000 0.0000
# 5 0.0000 0.0000 0.0000 0.0000 16.8026 0.0000
# 6 0.0000 0.0000 0.0000 0.0000 0.0000 23.3987
#
#
#
# Elastic Compliance Matrix: (Units=1/GPa)
#
#
# Indices 1 2 3 4 5 6 
#
# 1 0.021571 -0.001847 -0.000786 0.000000 0.000000 0.000000
# 2 -0.001847 0.012672 -0.003225 0.000000 0.000000 0.000000
# 3 -0.000786 -0.003225 0.007863 0.000000 0.000000 0.000000
# 4 0.000000 0.000000 0.000000 0.047375 0.000000 0.000000
# 5 0.000000 0.000000 0.000000 0.000000 0.059515 0.000000
# 6 0.000000 0.000000 0.000000 0.000000 0.000000 0.042737
#
#
# Mechanical properties :
#
#
# Convention : Reuss Voigt Hill
#
# Bulk Modulus (GPa) = 32.90481 43.48293 38.19387
# Shear Modulus (GPa) = 23.41052 27.29559 25.35306
#
# Velocity S-wave (km/s) = 3.38623 3.65643 3.52392
# Velocity P-wave (km/s) = 5.60408 6.25493 5.93843
#
# Compressibility (1/GPa) = 0.03039070
#
# Stress axis : x y z
#
# Youngs Moduli (GPa) = 46.35840 78.91494 127.17075
#
# Poissons Ratio (x) = 0.14578 0.09991
# Poissons Ratio (y) = 0.08564 0.41010
# Poissons Ratio (z) = 0.03642 0.25449
#
# Static dielectric constant tensor:
#      x y z
#    x 1.797790 0.000000 0.000000 
#    y 0.000000 1.677940 0.000000 
#    z 0.000000 0.000000 1.740820 
# 
# From -- ./inp_files/40470.got.cif
#   From: 2010.05.17/outbox.cif.g08.bks.cpg/sg65_21_cif.got.tgz:40470.got - 2010.06.03 17:01:31.
