data_PCOD9484447
_publ_section_title
;
Structure prediction by ZEFSAII (Michael W. Deem and Ramdas Pophale) SiO2 
 PCOD9484447
Probable space group: C M M M
;
_chemical_formula_sum "Si O2"
_cell_formula_units_Z 112
_cell_length_a 18.083219
_cell_length_b 19.893677
_cell_length_c 18.877189
_cell_angle_alpha 90.000000
_cell_angle_beta 90.000000
_cell_angle_gamma 90.000000
_cell_volume 6790.912400
_symmetry_space_group_name_H-M "C M M M"
_symmetry_group_IT_number 65
_symmetry_cell_setting 'orthorhombic'
loop_
_space_group_symop_operation_xyz
x,y,z
-x,-y,z
x,-y,-z
-x,y,-z
-x,-y,-z
x,y,-z
-x,y,z
x,-y,z
1/2+x,1/2+y,z
1/2-x,1/2-y,z
1/2+x,1/2-y,-z
1/2-x,1/2+y,-z
1/2-x,1/2-y,-z
1/2+x,1/2+y,-z
1/2-x,1/2+y,z
1/2+x,1/2-y,z
loop_
_atom_site_type_symbol
_atom_site_label
_atom_site_fract_x
_atom_site_fract_y
_atom_site_fract_z
Si Si1 0.911651 0.376856 0.080535
Si Si2 0.141855 0.424985 0.223479
Si Si3 0.588780 0.668711 0.230887
Si Si4 0.794316 0.078532 0.693886
Si Si5 0.084253 0.306731 0.315303
Si Si6 0.589446 0.282407 0.078337
Si Si7 0.218849 0.325730 0.417872
O O1 0.866878 0.415562 0.139939
O O2 0.894903 0.297081 0.086215
O O3 0.000000 0.385030 0.092788
O O4 0.896463 0.397874 0.000000
O O5 0.117897 0.500000 0.244050
O O6 0.225165 0.415809 0.251722
O O7 0.093174 0.367632 0.260095
O O8 0.500000 0.658016 0.231849
O O9 0.634156 0.610508 0.269257
O O10 0.603640 0.738108 0.273570
O O11 0.613719 0.679383 0.149196
O O12 0.770043 0.123080 0.626374
O O13 0.803914 0.000000 0.676507
O O14 0.140126 0.322131 0.378643
O O15 0.000000 0.301116 0.339482
O O16 0.500000 0.287601 0.077228
O O17 0.616373 0.304239 0.000000
O O18 0.213367 0.345152 0.500000
O O19 0.250000 0.250000 0.413884
#
# Coordination Sequence:
#
# PCOD9484447 Si02
#       7
#    16  16  16  16  16  16  16
#     4   9  16  27  44  68 101 139 177 217 262 314
#     4  10  20  32  47  69 104 144 177 214 261 314
#     4  10  18  32  56  80 103 136 177 225 272 314
#     4  10  22  38  55  78 105 138 177 218 265 317
#     4  10  19  32  53  81 107 135 173 217 261 305
#     4   8  14  26  46  73 102 131 170 220 267 309
#     4  10  20  36  58  82 107 140 174 204 248 311
#
# _framework density 16.492629000000001
#
# number of rings (size 3 to 8) (size 9 to 14) (size 15 to 20)
#    0.000    2.429    2.857    1.286    0.000    2.286 
#    0.000    1.429    0.000    3.429    0.000    7.000 
#    0.000    0.000    0.000    0.000    0.000    0.000 
#
# Total GULP energy -312096.835486 kJ/mol
# GULP energy per Si atom -5573.157777 kJ/mol
# Density = 1.645509 g / cm^3
# Si number density = 16.492629 Si / 1000 Ang^3
#
#
#
# Elastic Constant Matrix: (Units=GPa)
#
#
# Indices 1 2 3 4 5 6 
#
# 1 32.5777 29.6868 40.8748 0.0000 0.0000 0.0000
# 2 29.6868 88.7226 49.9089 0.0000 0.0000 0.0000
# 3 40.8748 49.9089 133.8821 0.0000 0.0000 0.0000
# 4 0.0000 0.0000 0.0000 12.6835 0.0000 0.0000
# 5 0.0000 0.0000 0.0000 0.0000 16.4699 0.0000
# 6 0.0000 0.0000 0.0000 0.0000 0.0000 15.5455
#
#
#
# Elastic Compliance Matrix: (Units=1/GPa)
#
#
# Indices 1 2 3 4 5 6 
#
# 1 0.058409 -0.012037 -0.013345 0.000000 0.000000 0.000000
# 2 -0.012037 0.016742 -0.002566 0.000000 0.000000 0.000000
# 3 -0.013345 -0.002566 0.012500 0.000000 0.000000 0.000000
# 4 0.000000 0.000000 0.000000 0.078843 0.000000 0.000000
# 5 0.000000 0.000000 0.000000 0.000000 0.060717 0.000000
# 6 0.000000 0.000000 0.000000 0.000000 0.000000 0.064327
#
#
# Mechanical properties :
#
#
# Convention : Reuss Voigt Hill
#
# Bulk Modulus (GPa) = 31.49156 55.12482 43.30819
# Shear Modulus (GPa) = 13.96573 17.92057 15.94315
#
# Velocity S-wave (km/s) = 2.91312 3.29991 3.11253
# Velocity P-wave (km/s) = 5.51822 6.92933 6.26364
#
# Compressibility (1/GPa) = 0.03175454
#
# Stress axis : x y z
#
# Youngs Moduli (GPa) = 17.12077 59.72929 79.99756
#
# Poissons Ratio (x) = 0.71893 1.06760
# Poissons Ratio (y) = 0.20607 0.20531
# Poissons Ratio (z) = 0.22848 0.15329
#
# Static dielectric constant tensor:
#      x y z
#    x 1.544370 0.000000 0.000000 
#    y 0.000000 1.547280 0.000000 
#    z 0.000000 0.000000 1.559420 
# 
# From -- ./inp_files/54815.got.cif
#   From: 2010.05.17/outbox.cif.g08.bks.cpg/sg65_28_cif.got.tgz:54815.got - 2010.06.03 17:01:31.
