data_PCOD9484945
_publ_section_title
;
Structure prediction by ZEFSAII (Michael W. Deem and Ramdas Pophale) SiO2 
 PCOD9484945
Probable space group: C M M M
;
_chemical_formula_sum "Si O2"
_cell_formula_units_Z 88
_cell_length_a 24.222373
_cell_length_b 31.017488
_cell_length_c 8.722594
_cell_angle_alpha 90.000000
_cell_angle_beta 90.000000
_cell_angle_gamma 90.000000
_cell_volume 6553.434586
_symmetry_space_group_name_H-M "C M M M"
_symmetry_group_IT_number 65
_symmetry_cell_setting 'orthorhombic'
loop_
_space_group_symop_operation_xyz
x,y,z
-x,-y,z
x,-y,-z
-x,y,-z
-x,-y,-z
x,y,-z
-x,y,z
x,-y,z
1/2+x,1/2+y,z
1/2-x,1/2-y,z
1/2+x,1/2-y,-z
1/2-x,1/2+y,-z
1/2-x,1/2-y,-z
1/2+x,1/2+y,-z
1/2-x,1/2+y,z
1/2+x,1/2-y,z
loop_
_atom_site_type_symbol
_atom_site_label
_atom_site_fract_x
_atom_site_fract_y
_atom_site_fract_z
Si Si1 0.716788 0.795326 0.823772
Si Si2 0.884524 0.750794 0.316743
Si Si3 0.065578 0.000000 0.315622
Si Si4 0.319700 0.339518 0.316518
Si Si5 0.500000 0.360582 0.316966
Si Si6 0.104852 0.910276 0.816947
Si Si7 0.000000 0.765478 0.817781
O O1 0.750000 0.750000 0.825126
O O2 0.660542 0.784196 0.736006
O O3 0.758535 0.827894 0.741237
O O4 0.706565 0.807733 0.000000
O O5 0.891169 0.750274 0.500000
O O6 0.859133 0.798276 0.275094
O O7 0.942915 0.743811 0.234723
O O8 0.095689 0.957691 0.251499
O O9 0.067007 0.000000 0.500000
O O10 0.000000 0.000000 0.270642
O O11 0.320981 0.342922 0.500000
O O12 0.342969 0.382924 0.241732
O O13 0.500000 0.365437 0.500000
O O14 0.446945 0.383173 0.245697
O O15 0.500000 0.311000 0.270423
O O16 0.104399 0.912039 0.000000
O O17 0.000000 0.772037 0.000000
#
# Coordination Sequence:
#
# PCOD9484945 Si02
#       7
#    16  16   8  16   8  16   8
#     4   9  17  29  44  62  84 106 137 175 212 249
#     4  10  19  30  44  61  85 112 141 173 213 258
#     4  11  23  37  51  63  84 112 140 175 222 271
#     4  10  19  31  47  63  83 109 140 174 215 259
#     4  12  22  33  45  60  82 110 141 176 219 265
#     4  12  23  34  49  66  83 106 141 181 221 262
#     4  12  22  30  43  63  86 112 144 181 218 254
#
# _framework density 13.428074000000001
#
# number of rings (size 3 to 8) (size 9 to 14) (size 15 to 20)
#    0.000    1.364    2.727    5.182    0.000    4.000 
#    0.000    0.000    0.000    0.000    0.000    0.000 
#    0.000    0.000    0.000    0.000    0.000    0.909 
#
# Total GULP energy -245604.661872 kJ/mol
# GULP energy per Si atom -5581.924133 kJ/mol
# Density = 1.339751 g / cm^3
# Si number density = 13.428074 Si / 1000 Ang^3
#
#
#
# Elastic Constant Matrix: (Units=GPa)
#
#
# Indices 1 2 3 4 5 6 
#
# 1 83.3315 47.2848 29.9097 0.0000 0.0000 0.0000
# 2 47.2848 66.6837 33.1063 0.0000 0.0000 0.0000
# 3 29.9097 33.1063 83.2872 0.0000 0.0000 0.0000
# 4 0.0000 0.0000 0.0000 19.5213 0.0000 0.0000
# 5 0.0000 0.0000 0.0000 0.0000 23.8020 0.0000
# 6 0.0000 0.0000 0.0000 0.0000 0.0000 11.0733
#
#
#
# Elastic Compliance Matrix: (Units=1/GPa)
#
#
# Indices 1 2 3 4 5 6 
#
# 1 0.020332 -0.013446 -0.001957 0.000000 0.000000 0.000000
# 2 -0.013446 0.027575 -0.006132 0.000000 0.000000 0.000000
# 3 -0.001957 -0.006132 0.015147 0.000000 0.000000 0.000000
# 4 0.000000 0.000000 0.000000 0.051226 0.000000 0.000000
# 5 0.000000 0.000000 0.000000 0.000000 0.042013 0.000000
# 6 0.000000 0.000000 0.000000 0.000000 0.000000 0.090308
#
#
# Mechanical properties :
#
#
# Convention : Reuss Voigt Hill
#
# Bulk Modulus (GPa) = 50.04010 50.43378 50.23694
# Shear Modulus (GPa) = 16.87293 19.07943 17.97618
#
# Velocity S-wave (km/s) = 3.54862 3.77352 3.66280
# Velocity P-wave (km/s) = 7.35775 7.52502 7.44185
#
# Compressibility (1/GPa) = 0.01998397
#
# Stress axis : x y z
#
# Youngs Moduli (GPa) = 49.18293 36.26475 66.01976
#
# Poissons Ratio (x) = 0.48761 0.12920
# Poissons Ratio (y) = 0.66131 0.40485
# Poissons Ratio (z) = 0.09625 0.22239
#
# Static dielectric constant tensor:
#      x y z
#    x 1.440400 0.000000 0.000000 
#    y 0.000000 1.425890 0.000000 
#    z 0.000000 0.000000 1.445810 
# 
# From -- ./inp_files/12685.got.cif
#   From: 2010.05.17/outbox.cif.g08.bks.cpg/sg65_7_cif.got.tgz:12685.got - 2010.06.03 17:01:31.
