data_PCOD9484642
_publ_section_title
;
Structure prediction by ZEFSAII (Michael W. Deem and Ramdas Pophale) SiO2 
 PCOD9484642
Probable space group: C M M M
;
_chemical_formula_sum "Si O2"
_cell_formula_units_Z 104
_cell_length_a 27.925138
_cell_length_b 9.115181
_cell_length_c 27.276212
_cell_angle_alpha 90.000000
_cell_angle_beta 90.000000
_cell_angle_gamma 90.000000
_cell_volume 6942.960302
_symmetry_space_group_name_H-M "C M M M"
_symmetry_group_IT_number 65
_symmetry_cell_setting 'orthorhombic'
loop_
_space_group_symop_operation_xyz
x,y,z
-x,-y,z
x,-y,-z
-x,y,-z
-x,-y,-z
x,y,-z
-x,y,z
x,-y,z
1/2+x,1/2+y,z
1/2-x,1/2-y,z
1/2+x,1/2-y,-z
1/2-x,1/2+y,-z
1/2-x,1/2-y,-z
1/2+x,1/2+y,-z
1/2-x,1/2+y,z
1/2+x,1/2-y,z
loop_
_atom_site_type_symbol
_atom_site_label
_atom_site_fract_x
_atom_site_fract_y
_atom_site_fract_z
Si Si1 0.398980 0.323891 0.205431
Si Si2 0.558258 0.669077 0.599264
Si Si3 0.441610 0.830540 0.500000
Si Si4 0.057007 0.674377 0.299956
Si Si5 0.053298 0.178261 0.102790
Si Si6 0.848574 0.178871 0.945583
Si Si7 0.700594 0.323860 0.154366
O O1 0.402685 0.500000 0.211982
O O2 0.415755 0.243133 0.253985
O O3 0.432079 0.284211 0.158583
O O4 0.344700 0.289595 0.188970
O O5 0.500000 0.670623 0.598458
O O6 0.573528 0.500000 0.600107
O O7 0.574081 0.749159 0.549531
O O8 0.572462 0.752464 0.648786
O O9 0.500000 0.828153 0.500000
O O10 0.426957 0.000000 0.500000
O O11 0.063619 0.500000 0.302261
O O12 0.000000 0.703336 0.293906
O O13 0.097142 0.224932 0.068184
O O14 0.000000 0.230853 0.090479
O O15 0.052642 0.000000 0.100605
O O16 0.814726 0.224384 0.900709
O O17 0.848412 0.000000 0.945387
O O18 0.835015 0.228411 0.000000
O O19 0.705666 0.500000 0.153907
O O20 0.750000 0.250000 0.169030
#
# Coordination Sequence:
#
# PCOD9484642 Si02
#       7
#    16  16   8  16  16  16  16
#     4   9  17  29  43  58  78 105 136 169 206 250
#     4   9  16  25  37  53  75 108 148 182 212 248
#     4   9  15  23  35  51  75 107 144 187 224 247
#     4  10  19  28  39  59  85 110 139 175 212 247
#     4   8  13  21  35  55  77 103 134 164 196 237
#     4   8  14  24  37  56  82 106 129 161 199 240
#     4   9  18  31  46  63  81 103 132 166 207 254
#
# _framework density 14.979201
#
# number of rings (size 3 to 8) (size 9 to 14) (size 15 to 20)
#    0.000    3.154    0.000    3.462    0.000    5.538 
#    0.000    1.538    0.000    0.000    0.000    0.000 
#    0.000    0.000    0.000   17.000    0.000   21.769 
#
# Total GULP energy -289553.482785 kJ/mol
# GULP energy per Si atom -5568.336207 kJ/mol
# Density = 1.494511 g / cm^3
# Si number density = 14.979201 Si / 1000 Ang^3
#
#
#
# Elastic Constant Matrix: (Units=GPa)
#
#
# Indices 1 2 3 4 5 6 
#
# 1 43.4298 22.5612 12.9394 0.0000 0.0000 0.0000
# 2 22.5612 47.1103 49.2815 0.0000 0.0000 0.0000
# 3 12.9394 49.2815 111.4312 0.0000 0.0000 0.0000
# 4 0.0000 0.0000 0.0000 7.7664 0.0000 0.0000
# 5 0.0000 0.0000 0.0000 0.0000 9.7800 0.0000
# 6 0.0000 0.0000 0.0000 0.0000 0.0000 15.5631
#
#
#
# Elastic Compliance Matrix: (Units=1/GPa)
#
#
# Indices 1 2 3 4 5 6 
#
# 1 0.032545 -0.021648 0.005795 0.000000 0.000000 0.000000
# 2 -0.021648 0.053901 -0.021325 0.000000 0.000000 0.000000
# 3 0.005795 -0.021325 0.017732 0.000000 0.000000 0.000000
# 4 0.000000 0.000000 0.000000 0.128761 0.000000 0.000000
# 5 0.000000 0.000000 0.000000 0.000000 0.102250 0.000000
# 6 0.000000 0.000000 0.000000 0.000000 0.000000 0.064255
#
#
# Mechanical properties :
#
#
# Convention : Reuss Voigt Hill
#
# Bulk Modulus (GPa) = 33.53066 41.28173 37.40620
# Shear Modulus (GPa) = 10.33613 14.43449 12.38531
#
# Velocity S-wave (km/s) = 2.62970 3.10762 2.87859
# Velocity P-wave (km/s) = 5.62617 6.36361 6.00622
#
# Compressibility (1/GPa) = 0.02982345
#
# Stress axis : x y z
#
# Youngs Moduli (GPa) = 30.72684 18.55238 56.39421
#
# Poissons Ratio (x) = 0.40161 -0.32679
# Poissons Ratio (y) = 0.66516 1.20259
# Poissons Ratio (z) = -0.17805 0.39562
#
# Static dielectric constant tensor:
#      x y z
#    x 1.479730 0.000000 0.000000 
#    y 0.000000 1.497780 0.000000 
#    z 0.000000 0.000000 1.493140 
# 
# From -- ./inp_files/75971.got.cif
#   From: 2010.05.17/outbox.cif.g08.bks.cpg/sg65_38_cif.got.tgz:75971.got - 2010.06.03 17:01:31.
