data_PCOD9484836
_publ_section_title
;
Structure prediction by ZEFSAII (Michael W. Deem and Ramdas Pophale) SiO2 
 PCOD9484836
Probable space group: C M M M
;
_chemical_formula_sum "Si O2"
_cell_formula_units_Z 96
_cell_length_a 7.440153
_cell_length_b 16.497297
_cell_length_c 35.107342
_cell_angle_alpha 90.000000
_cell_angle_beta 90.000000
_cell_angle_gamma 90.000000
_cell_volume 4309.159898
_symmetry_space_group_name_H-M "C M M M"
_symmetry_group_IT_number 65
_symmetry_cell_setting 'orthorhombic'
loop_
_space_group_symop_operation_xyz
x,y,z
-x,-y,z
x,-y,-z
-x,y,-z
-x,-y,-z
x,y,-z
-x,y,z
x,-y,z
1/2+x,1/2+y,z
1/2-x,1/2-y,z
1/2+x,1/2-y,-z
1/2-x,1/2+y,-z
1/2-x,1/2-y,-z
1/2+x,1/2+y,-z
1/2-x,1/2+y,z
1/2+x,1/2-y,z
loop_
_atom_site_type_symbol
_atom_site_label
_atom_site_fract_x
_atom_site_fract_y
_atom_site_fract_z
Si Si1 0.785074 0.340106 0.779300
Si Si2 0.285583 0.156323 0.622096
Si Si3 0.215117 0.840903 0.043607
Si Si4 0.714279 0.000000 0.177498
Si Si5 0.781520 0.408295 0.701801
Si Si6 0.217732 0.404196 0.541180
Si Si7 0.783879 0.000000 0.912017
O O1 0.750000 0.250000 0.794219
O O2 0.716298 0.416572 0.803619
O O3 0.718716 0.350164 0.735685
O O4 0.000000 0.347903 0.777931
O O5 0.500000 0.140946 0.620453
O O6 0.250000 0.250000 0.629087
O O7 0.215838 0.109896 0.659246
O O8 0.213760 0.133899 0.580305
O O9 0.250000 0.750000 0.058745
O O10 0.000000 0.848701 0.041828
O O11 0.282543 0.917294 0.067881
O O12 0.283841 0.844421 0.000000
O O13 0.743544 0.000000 0.132537
O O14 0.500000 0.000000 0.184206
O O15 0.736823 0.500000 0.712855
O O16 0.000000 0.402794 0.700131
O O17 0.281843 0.372166 0.500000
O O18 0.256619 0.500000 0.542470
O O19 0.000000 0.396059 0.540933
O O20 0.000000 0.000000 0.915976
#
# Coordination Sequence:
#
# PCOD9484836 Si02
#       7
#    16  16  16   8  16  16   8
#     4  10  20  36  57  78 102 134 172 216 266 316
#     4  10  19  29  45  70  96 122 154 193 240 292
#     4   9  18  34  56  82 112 146 184 226 272 319
#     4  10  22  39  55  75 106 144 181 218 264 320
#     4   9  16  30  53  75  95 123 164 208 248 298
#     4   8  14  26  44  65  88 116 155 198 233 273
#     4  10  21  36  56  80 110 146 184 225 269 317
#
# _framework density 22.278124999999999
#
# number of rings (size 3 to 8) (size 9 to 14) (size 15 to 20)
#    0.000    2.667    0.833    1.750    0.000    5.333 
#    0.000    3.333    0.000    5.500    0.000    1.167 
#    0.000    0.000    0.000    0.000    0.000    0.000 
#
# Total GULP energy -267892.308837 kJ/mol
# GULP energy per Si atom -5581.089767 kJ/mol
# Density = 2.222742 g / cm^3
# Si number density = 22.278125 Si / 1000 Ang^3
#
#
#
# Elastic Constant Matrix: (Units=GPa)
#
#
# Indices 1 2 3 4 5 6 
#
# 1 70.5879 0.0911 4.3542 0.0000 0.0000 0.0000
# 2 0.0911 158.7584 88.3879 0.0000 0.0000 0.0000
# 3 4.3542 88.3879 136.1053 0.0000 0.0000 0.0000
# 4 0.0000 0.0000 0.0000 13.6132 0.0000 0.0000
# 5 0.0000 0.0000 0.0000 0.0000 1242.7641 0.0000
# 6 0.0000 0.0000 0.0000 0.0000 0.0000 13.9674
#
#
#
# Elastic Compliance Matrix: (Units=1/GPa)
#
#
# Indices 1 2 3 4 5 6 
#
# 1 0.014210 0.000384 -0.000704 0.000000 0.000000 0.000000
# 2 0.000384 0.009876 -0.006426 0.000000 0.000000 0.000000
# 3 -0.000704 -0.006426 0.011543 0.000000 0.000000 0.000000
# 4 0.000000 0.000000 0.000000 0.073458 0.000000 0.000000
# 5 0.000000 0.000000 0.000000 0.000000 0.000805 0.000000
# 6 0.000000 0.000000 0.000000 0.000000 0.000000 0.071595
#
#
# Mechanical properties :
#
#
# Convention : Reuss Voigt Hill
#
# Bulk Modulus (GPa) = 45.17400 61.23531 53.20465
# Shear Modulus (GPa) = 24.70871 272.24351 148.47611
#
# Velocity S-wave (km/s) = 3.33393 11.06650 8.17259
# Velocity P-wave (km/s) = 5.92802 13.81435 10.62962
#
# Compressibility (1/GPa) = 0.02213663
#
# Stress axis : x y z
#
# Youngs Moduli (GPa) = 70.37469 101.25227 86.63344
#
# Poissons Ratio (x) = -0.03884 0.06097
# Poissons Ratio (y) = -0.02700 0.55671
# Poissons Ratio (z) = 0.04952 0.65065
#
# Static dielectric constant tensor:
#      x y z
#    x 1.922680 0.000000 0.000000 
#    y 0.000000 1.796280 0.000000 
#    z 0.000000 0.000000 1.812960 
# 
# From -- ./inp_files/77343.got.cif
#   From: 2010.05.17/outbox.cif.g08.bks.cpg/sg65_39_cif.got.tgz:77343.got - 2010.06.03 17:01:31.
