data_PCOD9484021
_publ_section_title
;
Structure prediction by ZEFSAII (Michael W. Deem and Ramdas Pophale) SiO2 
 PCOD9484021
Probable space group: C M M M
;
_chemical_formula_sum "Si O2"
_cell_formula_units_Z 64
_cell_length_a 17.088574
_cell_length_b 21.014971
_cell_length_c 9.204033
_cell_angle_alpha 90.000000
_cell_angle_beta 90.000000
_cell_angle_gamma 90.000000
_cell_volume 3305.314475
_symmetry_space_group_name_H-M "C M M M"
_symmetry_group_IT_number 65
_symmetry_cell_setting 'orthorhombic'
loop_
_space_group_symop_operation_xyz
x,y,z
-x,-y,z
x,-y,-z
-x,y,-z
-x,-y,-z
x,y,-z
-x,y,z
x,-y,z
1/2+x,1/2+y,z
1/2-x,1/2-y,z
1/2+x,1/2-y,-z
1/2-x,1/2+y,-z
1/2-x,1/2-y,-z
1/2+x,1/2+y,-z
1/2-x,1/2+y,z
1/2+x,1/2-y,z
loop_
_atom_site_type_symbol
_atom_site_label
_atom_site_fract_x
_atom_site_fract_y
_atom_site_fract_z
Si Si1 0.313504 0.628173 0.669270
Si Si2 0.875440 0.639549 0.333220
Si Si3 0.803892 0.000000 0.827004
Si Si4 0.862680 0.500000 0.327301
Si Si5 0.090027 0.234450 0.168632
O O1 0.333300 0.620862 0.500000
O O2 0.219314 0.636321 0.677698
O O3 0.336759 0.564812 0.757473
O O4 0.354776 0.689383 0.736882
O O5 0.895409 0.656192 0.500000
O O6 0.904056 0.567510 0.304438
O O7 0.904472 0.693630 0.226549
O O8 0.713259 0.000000 0.774951
O O9 0.810497 0.000000 0.000000
O O10 0.838026 0.500000 0.500000
O O11 0.000000 0.213227 0.181738
O O12 0.113189 0.231565 0.000000
#
# Coordination Sequence:
#
# PCOD9484021 Si02
#       5
#    16  16   8   8  16
#     4  10  20  36  58  82 107 137 177 221 262 311
#     4   9  18  34  57  82 106 136 175 218 264 314
#     4  10  18  30  53  84 113 138 167 210 265 318
#     4   8  16  32  53  80 111 137 171 220 263 307
#     4  11  24  38  51  74 109 144 179 221 267 315
#
# _framework density 19.362757999999999
#
# number of rings (size 3 to 8) (size 9 to 14) (size 15 to 20)
#    0.000    2.250    0.000    4.875    0.000   10.000 
#    0.000    1.250    0.000    7.500    0.000    0.000 
#    0.000    0.000    0.000    0.000    0.000    0.000 
#
# Total GULP energy -178630.823808 kJ/mol
# GULP energy per Si atom -5582.213244 kJ/mol
# Density = 1.931869 g / cm^3
# Si number density = 19.362758 Si / 1000 Ang^3
#
#
#
# Elastic Constant Matrix: (Units=GPa)
#
#
# Indices 1 2 3 4 5 6 
#
# 1 37.2544 31.7216 34.5652 0.0000 0.0000 0.0000
# 2 31.7216 110.2681 60.0134 0.0000 0.0000 0.0000
# 3 34.5652 60.0134 125.3549 0.0000 0.0000 0.0000
# 4 0.0000 0.0000 0.0000 11.1241 0.0000 0.0000
# 5 0.0000 0.0000 0.0000 0.0000 -1.6083 0.0000
# 6 0.0000 0.0000 0.0000 0.0000 0.0000 -33.9078
#
#
#
# Elastic Compliance Matrix: (Units=1/GPa)
#
#
# Indices 1 2 3 4 5 6 
#
# 1 0.040161 -0.007474 -0.007496 0.000000 0.000000 0.000000
# 2 -0.007474 0.013655 -0.004477 0.000000 0.000000 0.000000
# 3 -0.007496 -0.004477 0.012187 0.000000 0.000000 0.000000
# 4 0.000000 0.000000 0.000000 0.089895 0.000000 0.000000
# 5 0.000000 0.000000 0.000000 0.000000 -0.621784 0.000000
# 6 0.000000 0.000000 0.000000 0.000000 0.000000 -0.029492
#
#
# Mechanical properties :
#
#
# Convention : Reuss Voigt Hill
#
# Bulk Modulus (GPa) = 36.88517 58.38642 47.63579
# Shear Modulus (GPa) = -11.17448 4.89344 -3.14052
#
# Velocity S-wave (km/s) = -2.40492 1.59145 -1.27494
# Velocity P-wave (km/s) = 3.37333 5.79624 4.74214
#
# Compressibility (1/GPa) = 0.02711117
#
# Stress axis : x y z
#
# Youngs Moduli (GPa) = 24.89974 73.23201 82.05179
#
# Poissons Ratio (x) = 0.54732 0.61505
# Poissons Ratio (y) = 0.18609 0.36731
# Poissons Ratio (z) = 0.18665 0.32783
#
# Static dielectric constant tensor:
#      x y z
#    x 1.668430 0.000000 0.000000 
#    y 0.000000 1.691410 0.000000 
#    z 0.000000 0.000000 1.641410 
# 
# From -- ./inp_files/8860.got.cif
#   From: 2010.05.17/outbox.cif.g08.bks.cpg/sg65_5_cif.got.tgz:8860.got - 2010.06.03 17:01:31.
