data_PCOD9484639
_publ_section_title
;
Structure prediction by ZEFSAII (Michael W. Deem and Ramdas Pophale) SiO2 
 PCOD9484639
Probable space group: C M M M
;
_chemical_formula_sum "Si O2"
_cell_formula_units_Z 88
_cell_length_a 19.553514
_cell_length_b 33.337707
_cell_length_c 7.421536
_cell_angle_alpha 90.000000
_cell_angle_beta 90.000000
_cell_angle_gamma 90.000000
_cell_volume 4837.871630
_symmetry_space_group_name_H-M "C M M M"
_symmetry_group_IT_number 65
_symmetry_cell_setting 'orthorhombic'
loop_
_space_group_symop_operation_xyz
x,y,z
-x,-y,z
x,-y,-z
-x,y,-z
-x,-y,-z
x,y,-z
-x,y,z
x,-y,z
1/2+x,1/2+y,z
1/2-x,1/2-y,z
1/2+x,1/2-y,-z
1/2-x,1/2+y,-z
1/2-x,1/2-y,-z
1/2+x,1/2+y,-z
1/2-x,1/2+y,z
1/2+x,1/2-y,z
loop_
_atom_site_type_symbol
_atom_site_label
_atom_site_fract_x
_atom_site_fract_y
_atom_site_fract_z
Si Si1 0.081962 0.455090 0.500000
Si Si2 0.856346 0.747708 0.713291
Si Si3 0.148078 0.159954 0.204410
Si Si4 0.706177 0.833155 0.216657
Si Si5 0.500000 0.236910 0.704395
Si Si6 0.500000 0.331254 0.221170
Si Si7 0.079441 0.387606 0.783332
O O1 0.111390 0.500000 0.500000
O O2 0.096798 0.428333 0.676183
O O3 0.000000 0.458931 0.500000
O O4 0.864773 0.755231 0.500000
O O5 0.849211 0.791178 0.799800
O O6 0.800157 0.713682 0.735177
O O7 0.926748 0.727450 0.786723
O O8 0.221700 0.149304 0.286734
O O9 0.072722 0.150299 0.280054
O O10 0.147520 0.144597 0.000000
O O11 0.637714 0.856105 0.274634
O O12 0.708744 0.835342 0.000000
O O13 0.500000 0.221452 0.500000
O O14 0.500000 0.285595 0.708465
O O15 0.500000 0.329345 0.000000
O O16 0.000000 0.376239 0.739972
O O17 0.082785 0.392487 0.000000
#
# Coordination Sequence:
#
# PCOD9484639 Si02
#       7
#     8  16  16  16   8   8  16
#     4   9  18  34  56  78  97 123 155 185 216 258
#     4  10  19  28  39  56  76 105 149 191 229 272
#     4   9  17  30  43  56  76 106 147 192 234 272
#     4  10  20  30  41  58  84 115 143 180 228 271
#     4   8  16  28  36  50  72  96 130 181 230 261
#     4   8  14  26  44  56  66  94 138 185 227 264
#     4   9  19  34  49  71 100 127 154 184 225 275
#
# _framework density 18.189816
#
# number of rings (size 3 to 8) (size 9 to 14) (size 15 to 20)
#    0.000    2.818    0.000    1.091    2.545    4.000 
#    0.000    1.818    0.000    0.000    0.000    0.000 
#    0.000    0.000    0.000    1.636    0.000   18.182 
#
# Total GULP energy -244974.719134 kJ/mol
# GULP energy per Si atom -5567.607253 kJ/mol
# Density = 1.814841 g / cm^3
# Si number density = 18.189816 Si / 1000 Ang^3
#
#
#
# Elastic Constant Matrix: (Units=GPa)
#
#
# Indices 1 2 3 4 5 6 
#
# 1 130.3367 18.9005 12.6896 0.0000 0.0000 0.0000
# 2 18.9005 49.6589 6.5612 0.0000 0.0000 0.0000
# 3 12.6896 6.5612 71.4882 0.0000 0.0000 0.0000
# 4 0.0000 0.0000 0.0000 8.3647 0.0000 0.0000
# 5 0.0000 0.0000 0.0000 0.0000 1.2119 0.0000
# 6 0.0000 0.0000 0.0000 0.0000 0.0000 11.2213
#
#
#
# Elastic Compliance Matrix: (Units=1/GPa)
#
#
# Indices 1 2 3 4 5 6 
#
# 1 0.008219 -0.002971 -0.001186 0.000000 0.000000 0.000000
# 2 -0.002971 0.021459 -0.001442 0.000000 0.000000 0.000000
# 3 -0.001186 -0.001442 0.014331 0.000000 0.000000 0.000000
# 4 0.000000 0.000000 0.000000 0.119551 0.000000 0.000000
# 5 0.000000 0.000000 0.000000 0.000000 0.825149 0.000000
# 6 0.000000 0.000000 0.000000 0.000000 0.000000 0.089116
#
#
# Mechanical properties :
#
#
# Convention : Reuss Voigt Hill
#
# Bulk Modulus (GPa) = 30.47887 36.42070 33.44978
# Shear Modulus (GPa) = 4.54562 18.38175 11.46368
#
# Velocity S-wave (km/s) = 1.58253 3.18237 2.51315
# Velocity P-wave (km/s) = 4.48683 5.79390 5.18174
#
# Compressibility (1/GPa) = 0.03280962
#
# Stress axis : x y z
#
# Youngs Moduli (GPa) = 121.67209 46.60083 69.77770
#
# Poissons Ratio (x) = 0.13847 0.08277
# Poissons Ratio (y) = 0.36154 0.10062
# Poissons Ratio (z) = 0.14432 0.06720
#
# Static dielectric constant tensor:
#      x y z
#    x 1.759200 0.000000 0.000000 
#    y 0.000000 1.572510 0.000000 
#    z 0.000000 0.000000 1.705070 
# 
# From -- ./inp_files/12704.got.cif
#   From: 2010.05.17/outbox.cif.g08.bks.cpg/sg65_7_cif.got.tgz:12704.got - 2010.06.03 17:01:31.
