data_PCOD9484667
_publ_section_title
;
Structure prediction by ZEFSAII (Michael W. Deem and Ramdas Pophale) SiO2 
 PCOD9484667
Probable space group: C M M M
;
_chemical_formula_sum "Si O2"
_cell_formula_units_Z 88
_cell_length_a 32.174871
_cell_length_b 19.996236
_cell_length_c 7.386845
_cell_angle_alpha 90.000000
_cell_angle_beta 90.000000
_cell_angle_gamma 90.000000
_cell_volume 4752.521107
_symmetry_space_group_name_H-M "C M M M"
_symmetry_group_IT_number 65
_symmetry_cell_setting 'orthorhombic'
loop_
_space_group_symop_operation_xyz
x,y,z
-x,-y,z
x,-y,-z
-x,y,-z
-x,-y,-z
x,y,-z
-x,y,z
x,-y,z
1/2+x,1/2+y,z
1/2-x,1/2-y,z
1/2+x,1/2-y,-z
1/2-x,1/2+y,-z
1/2-x,1/2-y,-z
1/2+x,1/2+y,-z
1/2-x,1/2+y,z
1/2+x,1/2-y,z
loop_
_atom_site_type_symbol
_atom_site_label
_atom_site_fract_x
_atom_site_fract_y
_atom_site_fract_z
Si Si1 0.167073 0.074325 0.718736
Si Si2 0.735557 0.926386 0.281789
Si Si3 0.707455 0.218405 0.789958
Si Si4 0.873398 0.787097 0.795461
Si Si5 0.550565 0.500000 0.208878
Si Si6 0.047821 0.853091 0.777477
O O1 0.164734 0.078554 0.500000
O O2 0.215816 0.079669 0.768873
O O3 0.143719 0.136990 0.799775
O O4 0.152353 0.000000 0.771561
O O5 0.734226 0.925425 0.500000
O O6 0.711614 0.861219 0.216921
O O7 0.720975 0.000000 0.221978
O O8 0.750000 0.250000 0.711019
O O9 0.664226 0.245144 0.709661
O O10 0.706599 0.240819 0.000000
O O11 0.919206 0.797771 0.715634
O O12 0.879309 0.761312 0.000000
O O13 0.500000 0.500000 0.207888
O O14 0.561325 0.572464 0.287447
O O15 0.564084 0.500000 0.000000
O O16 0.000000 0.841588 0.725985
O O17 0.048778 0.855064 0.000000
#
# Coordination Sequence:
#
# PCOD9484667 Si02
#       6
#    16  16  16  16   8  16
#     4   9  18  30  41  57  83 112 144 180 213 246
#     4   9  18  32  48  63  80 110 151 183 206 242
#     4  10  19  30  41  62  94 117 136 168 212 259
#     4  10  19  28  42  63  84 111 144 176 210 253
#     4   7  10  18  32  50  73  99 129 171 213 233
#     4   8  14  24  37  56  81 106 138 180 214 239
#
# _framework density 18.516487999999999
#
# number of rings (size 3 to 8) (size 9 to 14) (size 15 to 20)
#    0.000    3.000    1.818    2.182    1.273    1.818 
#    0.000    1.818    0.000    0.545    0.000    1.273 
#    0.000    0.727    0.000    9.091    0.000    1.455 
#
# Total GULP energy -245363.115301 kJ/mol
# GULP energy per Si atom -5576.434439 kJ/mol
# Density = 1.847434 g / cm^3
# Si number density = 18.516488 Si / 1000 Ang^3
#
#
#
# Elastic Constant Matrix: (Units=GPa)
#
#
# Indices 1 2 3 4 5 6 
#
# 1 122.7374 53.8399 4.4346 0.0000 0.0000 0.0000
# 2 53.8399 81.9024 -4.3890 0.0000 0.0000 0.0000
# 3 4.4346 -4.3890 65.1859 0.0000 0.0000 0.0000
# 4 0.0000 0.0000 0.0000 12.5730 0.0000 0.0000
# 5 0.0000 0.0000 0.0000 0.0000 -102.6750 0.0000
# 6 0.0000 0.0000 0.0000 0.0000 0.0000 39.3698
#
#
#
# Elastic Compliance Matrix: (Units=1/GPa)
#
#
# Indices 1 2 3 4 5 6 
#
# 1 0.011558 -0.007668 -0.001303 0.000000 0.000000 0.000000
# 2 -0.007668 0.017341 0.001689 0.000000 0.000000 0.000000
# 3 -0.001303 0.001689 0.015543 0.000000 0.000000 0.000000
# 4 0.000000 0.000000 0.000000 0.079536 0.000000 0.000000
# 5 0.000000 0.000000 0.000000 0.000000 -0.009739 0.000000
# 6 0.000000 0.000000 0.000000 0.000000 0.000000 0.025400
#
#
# Mechanical properties :
#
#
# Convention : Reuss Voigt Hill
#
# Bulk Modulus (GPa) = 33.46756 41.95520 37.71138
# Shear Modulus (GPa) = 30.45807 4.24958 17.35383
#
# Velocity S-wave (km/s) = 4.06016 1.51658 3.06471
# Velocity P-wave (km/s) = 6.33195 5.07683 5.73880
#
# Compressibility (1/GPa) = 0.02987968
#
# Stress axis : x y z
#
# Youngs Moduli (GPa) = 86.51990 57.66794 64.33727
#
# Poissons Ratio (x) = 0.44218 0.08380
# Poissons Ratio (y) = 0.66341 -0.10868
# Poissons Ratio (z) = 0.11270 -0.09741
#
# Static dielectric constant tensor:
#      x y z
#    x 1.693120 0.000000 0.000000 
#    y 0.000000 1.626590 0.000000 
#    z 0.000000 0.000000 1.712030 
# 
# From -- ./inp_files/18528.got.cif
#   From: 2010.05.17/outbox.cif.g08.bks.cpg/sg65_10_cif.got.tgz:18528.got - 2010.06.03 17:01:31.
