data_PCOD9484222
_publ_section_title
;
Structure prediction by ZEFSAII (Michael W. Deem and Ramdas Pophale) SiO2 
 PCOD9484222
Probable space group: C M M M
;
_chemical_formula_sum "Si O2"
_cell_formula_units_Z 88
_cell_length_a 15.312660
_cell_length_b 15.792908
_cell_length_c 17.718937
_cell_angle_alpha 90.000000
_cell_angle_beta 90.000000
_cell_angle_gamma 90.000000
_cell_volume 4284.995884
_symmetry_space_group_name_H-M "C M M M"
_symmetry_group_IT_number 65
_symmetry_cell_setting 'orthorhombic'
loop_
_space_group_symop_operation_xyz
x,y,z
-x,-y,z
x,-y,-z
-x,y,-z
-x,-y,-z
x,y,-z
-x,y,z
x,-y,z
1/2+x,1/2+y,z
1/2-x,1/2-y,z
1/2+x,1/2-y,-z
1/2-x,1/2+y,-z
1/2-x,1/2-y,-z
1/2+x,1/2+y,-z
1/2-x,1/2+y,z
1/2+x,1/2-y,z
loop_
_atom_site_type_symbol
_atom_site_label
_atom_site_fract_x
_atom_site_fract_y
_atom_site_fract_z
Si Si1 0.222004 0.399879 0.635992
Si Si2 0.095876 0.156261 0.668347
Si Si3 0.768113 0.000000 0.917528
Si Si4 0.327164 0.180541 0.915638
Si Si5 0.401532 0.103104 0.500000
Si Si6 0.096172 0.333589 0.244819
Si Si7 0.403732 0.500000 0.783775
O O1 0.237116 0.500000 0.626996
O O2 0.313913 0.353359 0.623676
O O3 0.151208 0.371813 0.574255
O O4 0.176492 0.383851 0.717187
O O5 0.096878 0.244453 0.712014
O O6 0.000000 0.147230 0.630611
O O7 0.102992 0.081420 0.730053
O O8 0.711942 0.914285 0.914270
O O9 0.833058 0.000000 0.848219
O O10 0.812846 0.000000 0.000000
O O11 0.250000 0.250000 0.905993
O O12 0.389104 0.184315 0.843328
O O13 0.364906 0.194549 0.000000
O O14 0.500000 0.135738 0.500000
O O15 0.405380 0.000000 0.500000
O O16 0.000000 0.373733 0.256892
O O17 0.500000 0.500000 0.818577
#
# Coordination Sequence:
#
# PCOD9484222 Si02
#       7
#    16  16   8  16   8  16   8
#     4  11  21  37  63  87 115 155 193 239 293 349
#     4  10  21  37  58  87 117 148 191 242 291 350
#     4  10  20  33  51  76 105 145 195 245 298 354
#     4  10  21  37  56  79 113 156 199 247 301 354
#     4   9  20  38  58  87 123 156 197 240 284 342
#     4  11  23  37  57  86 118 153 198 242 289 351
#     4  10  18  31  54  78 106 145 185 235 293 343
#
# _framework density 20.536776
#
# number of rings (size 3 to 8) (size 9 to 14) (size 15 to 20)
#    0.000    1.727    0.909    4.364    1.273    1.636 
#    0.000    2.273    0.000   12.000    0.000    0.000 
#    0.000    0.000    0.000    0.000    0.000    0.000 
#
# Total GULP energy -245634.072716 kJ/mol
# GULP energy per Si atom -5582.592562 kJ/mol
# Density = 2.049003 g / cm^3
# Si number density = 20.536776 Si / 1000 Ang^3
#
#
#
# Elastic Constant Matrix: (Units=GPa)
#
#
# Indices 1 2 3 4 5 6 
#
# 1 154.8165 11.9923 48.1488 0.0000 0.0000 0.0000
# 2 11.9923 70.1563 -5.0570 0.0000 0.0000 0.0000
# 3 48.1488 -5.0570 74.6700 0.0000 0.0000 0.0000
# 4 0.0000 0.0000 0.0000 14.4554 0.0000 0.0000
# 5 0.0000 0.0000 0.0000 0.0000 28.6838 0.0000
# 6 0.0000 0.0000 0.0000 0.0000 0.0000 12.0955
#
#
#
# Elastic Compliance Matrix: (Units=1/GPa)
#
#
# Indices 1 2 3 4 5 6 
#
# 1 0.008303 -0.001814 -0.005477 0.000000 0.000000 0.000000
# 2 -0.001814 0.014720 0.002167 0.000000 0.000000 0.000000
# 3 -0.005477 0.002167 0.017071 0.000000 0.000000 0.000000
# 4 0.000000 0.000000 0.000000 0.069179 0.000000 0.000000
# 5 0.000000 0.000000 0.000000 0.000000 0.034863 0.000000
# 6 0.000000 0.000000 0.000000 0.000000 0.000000 0.082676
#
#
# Mechanical properties :
#
#
# Convention : Reuss Voigt Hill
#
# Bulk Modulus (GPa) = 33.50612 45.53455 39.52034
# Shear Modulus (GPa) = 20.24226 27.35084 23.79655
#
# Velocity S-wave (km/s) = 3.14293 3.65334 3.40770
# Velocity P-wave (km/s) = 5.43335 6.32584 5.89650
#
# Compressibility (1/GPa) = 0.02984529
#
# Stress axis : x y z
#
# Youngs Moduli (GPa) = 120.43661 67.93403 58.58024
#
# Poissons Ratio (x) = 0.12324 0.32084
# Poissons Ratio (y) = 0.21848 -0.12692
# Poissons Ratio (z) = 0.65962 -0.14719
#
# Static dielectric constant tensor:
#      x y z
#    x 1.777250 0.000000 0.000000 
#    y 0.000000 1.786340 0.000000 
#    z 0.000000 0.000000 1.736610 
# 
# From -- ./inp_files/53076.got.cif
#   From: 2010.05.17/outbox.cif.g08.bks.cpg/sg65_27_cif.got.tgz:53076.got - 2010.06.03 17:01:31.
