data_PCOD9484152
_publ_section_title
;
Structure prediction by ZEFSAII (Michael W. Deem and Ramdas Pophale) SiO2 
 PCOD9484152
Probable space group: C M M M
;
_chemical_formula_sum "Si O2"
_cell_formula_units_Z 58
_cell_length_a 26.275127
_cell_length_b 7.727109
_cell_length_c 14.510874
_cell_angle_alpha 90.000000
_cell_angle_beta 90.000000
_cell_angle_gamma 90.000000
_cell_volume 2946.153926
_symmetry_space_group_name_H-M "C M M M"
_symmetry_group_IT_number 65
_symmetry_cell_setting 'orthorhombic'
loop_
_space_group_symop_operation_xyz
x,y,z
-x,-y,z
x,-y,-z
-x,y,-z
-x,-y,-z
x,y,-z
-x,y,z
x,-y,z
1/2+x,1/2+y,z
1/2-x,1/2-y,z
1/2+x,1/2-y,-z
1/2-x,1/2+y,-z
1/2-x,1/2-y,-z
1/2+x,1/2+y,-z
1/2-x,1/2+y,z
1/2+x,1/2-y,z
loop_
_atom_site_type_symbol
_atom_site_label
_atom_site_fract_x
_atom_site_fract_y
_atom_site_fract_z
Si Si1 0.500000 0.000000 0.000000
Si Si2 0.941424 0.289278 0.500000
Si Si3 0.500000 0.299978 0.161905
Si Si4 0.407284 0.212083 0.701353
Si Si5 0.309284 0.199568 0.201251
Si Si6 0.690131 0.704855 0.000000
O O1 0.500000 0.845279 0.081705
O O2 0.940006 0.500000 0.500000
O O3 0.917389 0.233385 0.403526
O O4 0.000000 0.235833 0.500000
O O5 0.500000 0.500000 0.128207
O O6 0.549134 0.272874 0.228223
O O7 0.352113 0.279153 0.734102
O O8 0.408663 0.000000 0.704051
O O9 0.250000 0.250000 0.206148
O O10 0.329093 0.222885 0.096316
O O11 0.308585 0.000000 0.223601
O O12 0.750000 0.750000 0.000000
O O13 0.684218 0.500000 0.000000
#
# Coordination Sequence:
#
# PCOD9484152 Si02
#       6
#     2   8   8  16  16   8
#     4  12  26  48  64  88 148 164 218 256 328 378
#     4   9  16  32  67  92 112 160 214 260 319 385
#     4  12  25  42  68  95 128 173 213 261 318 386
#     4  10  20  39  63  91 125 163 210 267 321 377
#     4  10  20  34  56  82 119 162 205 257 313 368
#     4  10  18  31  52  75 106 146 199 247 289 357
#
# _framework density 19.686684
#
# number of rings (size 3 to 8) (size 9 to 14) (size 15 to 20)
#    0.000    1.793    2.759    3.931    0.000    3.310 
#    0.000    2.069    0.000    0.000    0.000    0.000 
#    0.000    0.000    0.000    0.000    0.000    0.000 
#
# Total GULP energy -161437.350330 kJ/mol
# GULP energy per Si atom -5566.805184 kJ/mol
# Density = 1.964188 g / cm^3
# Si number density = 19.686684 Si / 1000 Ang^3
#
#
#
# Elastic Constant Matrix: (Units=GPa)
#
#
# Indices 1 2 3 4 5 6 
#
# 1 130.8548 20.6379 95.0770 0.0000 0.0000 0.0000
# 2 20.6379 80.8954 20.7842 0.0000 0.0000 0.0000
# 3 95.0770 20.7842 185.3132 0.0000 0.0000 0.0000
# 4 0.0000 0.0000 0.0000 7.1712 0.0000 0.0000
# 5 0.0000 0.0000 0.0000 0.0000 30.0456 0.0000
# 6 0.0000 0.0000 0.0000 0.0000 0.0000 12.2153
#
#
#
# Elastic Compliance Matrix: (Units=1/GPa)
#
#
# Indices 1 2 3 4 5 6 
#
# 1 0.012375 -0.001571 -0.006173 0.000000 0.000000 0.000000
# 2 -0.001571 0.012928 -0.000644 0.000000 0.000000 0.000000
# 3 -0.006173 -0.000644 0.008636 0.000000 0.000000 0.000000
# 4 0.000000 0.000000 0.000000 0.139448 0.000000 0.000000
# 5 0.000000 0.000000 0.000000 0.000000 0.033283 0.000000
# 6 0.000000 0.000000 0.000000 0.000000 0.000000 0.081865
#
#
# Mechanical properties :
#
#
# Convention : Reuss Voigt Hill
#
# Bulk Modulus (GPa) = 58.26604 74.45128 66.35866
# Shear Modulus (GPa) = 16.07561 27.25735 21.66648
#
# Velocity S-wave (km/s) = 2.86067 3.72500 3.32108
# Velocity P-wave (km/s) = 6.36963 7.51006 6.96323
#
# Compressibility (1/GPa) = 0.01716266
#
# Stress axis : x y z
#
# Youngs Moduli (GPa) = 80.80810 77.35211 115.80008
#
# Poissons Ratio (x) = 0.12153 0.71482
# Poissons Ratio (y) = 0.12696 0.07456
# Poissons Ratio (z) = 0.49882 0.04981
#
# Static dielectric constant tensor:
#      x y z
#    x 1.739750 0.000000 0.000000 
#    y 0.000000 1.783970 0.000000 
#    z 0.000000 0.000000 1.687270 
# 
# From -- ./inp_files/31836.got.cif
#   From: 2010.05.17/outbox.cif.g08.bks.cpg/sg65_16_cif.got.tgz:31836.got - 2010.06.03 17:01:31.
