data_PCOD9484342
_publ_section_title
;
Structure prediction by ZEFSAII (Michael W. Deem and Ramdas Pophale) SiO2 
 PCOD9484342
Probable space group: C M M M
;
_chemical_formula_sum "Si O2"
_cell_formula_units_Z 88
_cell_length_a 8.789171
_cell_length_b 19.143250
_cell_length_c 29.420298
_cell_angle_alpha 90.000000
_cell_angle_beta 90.000000
_cell_angle_gamma 90.000000
_cell_volume 4950.062159
_symmetry_space_group_name_H-M "C M M M"
_symmetry_group_IT_number 65
_symmetry_cell_setting 'orthorhombic'
loop_
_space_group_symop_operation_xyz
x,y,z
-x,-y,z
x,-y,-z
-x,y,-z
-x,-y,-z
x,y,-z
-x,y,z
x,-y,z
1/2+x,1/2+y,z
1/2-x,1/2-y,z
1/2+x,1/2-y,-z
1/2-x,1/2+y,-z
1/2-x,1/2-y,-z
1/2+x,1/2+y,-z
1/2-x,1/2+y,z
1/2+x,1/2-y,z
loop_
_atom_site_type_symbol
_atom_site_label
_atom_site_fract_x
_atom_site_fract_y
_atom_site_fract_z
Si Si1 0.821200 0.916537 0.326739
Si Si2 0.816098 0.581385 0.868279
Si Si3 0.682286 0.671282 0.500000
Si Si4 0.824075 0.584894 0.767856
Si Si5 0.182005 0.172593 0.051148
Si Si6 0.319015 0.172217 0.593325
O O1 0.773194 0.894621 0.275791
O O2 0.725935 0.874878 0.363967
O O3 0.000000 0.903846 0.333905
O O4 0.793738 0.000000 0.330543
O O5 0.772451 0.500000 0.872480
O O6 0.769669 0.607616 0.817856
O O7 0.747545 0.624651 0.909320
O O8 0.000000 0.584759 0.869365
O O9 0.500000 0.672703 0.500000
O O10 0.750000 0.750000 0.500000
O O11 0.745584 0.640958 0.547116
O O12 0.823689 0.500000 0.769681
O O13 0.000000 0.606389 0.761436
O O14 0.250000 0.250000 0.055768
O O15 0.000000 0.175908 0.054427
O O16 0.221513 0.147267 0.000000
O O17 0.500000 0.177654 0.587929
O O18 0.250000 0.250000 0.599635
#
# Coordination Sequence:
#
# PCOD9484342 Si02
#       6
#    16  16   8  16  16  16
#     4  10  20  34  53  78 107 138 172 210 255 305
#     4   9  18  33  54  79 105 133 167 208 252 299
#     4  10  18  32  53  76 103 134 171 211 255 307
#     4   8  15  30  51  74 101 134 170 206 248 300
#     4  10  21  36  53  73 100 135 172 210 254 305
#     4  11  21  35  55  78 105 136 173 214 257 304
#
# _framework density 17.777555
#
# number of rings (size 3 to 8) (size 9 to 14) (size 15 to 20)
#    0.000    2.364    0.000    5.727    0.000    3.636 
#    0.000    5.000    0.000    7.091    0.000    0.000 
#    0.000    0.000    0.000    0.000    0.000    0.000 
#
# Total GULP energy -245394.241965 kJ/mol
# GULP energy per Si atom -5577.141863 kJ/mol
# Density = 1.773709 g / cm^3
# Si number density = 17.777555 Si / 1000 Ang^3
#
#
#
# Elastic Constant Matrix: (Units=GPa)
#
#
# Indices 1 2 3 4 5 6 
#
# 1 99.7319 31.0410 65.8227 0.0000 0.0000 0.0000
# 2 31.0410 29.5117 48.7132 0.0000 0.0000 0.0000
# 3 65.8227 48.7132 169.3202 0.0000 0.0000 0.0000
# 4 0.0000 0.0000 0.0000 35.5733 0.0000 0.0000
# 5 0.0000 0.0000 0.0000 0.0000 36.5826 0.0000
# 6 0.0000 0.0000 0.0000 0.0000 0.0000 24.5093
#
#
#
# Elastic Compliance Matrix: (Units=1/GPa)
#
#
# Indices 1 2 3 4 5 6 
#
# 1 0.015458 -0.012074 -0.002536 0.000000 0.000000 0.000000
# 2 -0.012074 0.073959 -0.016584 0.000000 0.000000 0.000000
# 3 -0.002536 -0.016584 0.011663 0.000000 0.000000 0.000000
# 4 0.000000 0.000000 0.000000 0.028111 0.000000 0.000000
# 5 0.000000 0.000000 0.000000 0.000000 0.027335 0.000000
# 6 0.000000 0.000000 0.000000 0.000000 0.000000 0.040801
#
#
# Mechanical properties :
#
#
# Convention : Reuss Voigt Hill
#
# Bulk Modulus (GPa) = 25.84471 65.52418 45.68444
# Shear Modulus (GPa) = 18.34105 29.53216 23.93660
#
# Velocity S-wave (km/s) = 3.21549 4.08021 3.67338
# Velocity P-wave (km/s) = 5.32496 7.68995 6.61402
#
# Compressibility (1/GPa) = 0.03869264
#
# Stress axis : x y z
#
# Youngs Moduli (GPa) = 64.68979 13.52104 85.74130
#
# Poissons Ratio (x) = 0.16325 0.21742
# Poissons Ratio (y) = 0.78105 1.42195
# Poissons Ratio (z) = 0.16404 0.22424
#
# Static dielectric constant tensor:
#      x y z
#    x 1.597660 0.000000 0.000000 
#    y 0.000000 1.585600 0.000000 
#    z 0.000000 0.000000 1.632960 
# 
# From -- ./inp_files/73132.got.cif
#   From: 2010.05.17/outbox.cif.g08.bks.cpg/sg65_37_cif.got.tgz:73132.got - 2010.06.03 17:01:31.
