data_PCOD9484949
_publ_section_title
;
Structure prediction by ZEFSAII (Michael W. Deem and Ramdas Pophale) SiO2 
 PCOD9484949
Probable space group: C M M M
;
_chemical_formula_sum "Si O2"
_cell_formula_units_Z 88
_cell_length_a 9.904631
_cell_length_b 31.786188
_cell_length_c 20.020631
_cell_angle_alpha 90.000000
_cell_angle_beta 90.000000
_cell_angle_gamma 90.000000
_cell_volume 6303.104528
_symmetry_space_group_name_H-M "C M M M"
_symmetry_group_IT_number 65
_symmetry_cell_setting 'orthorhombic'
loop_
_space_group_symop_operation_xyz
x,y,z
-x,-y,z
x,-y,-z
-x,y,-z
-x,-y,-z
x,y,-z
-x,y,z
x,-y,z
1/2+x,1/2+y,z
1/2-x,1/2-y,z
1/2+x,1/2-y,-z
1/2-x,1/2+y,-z
1/2-x,1/2-y,-z
1/2+x,1/2+y,-z
1/2-x,1/2+y,z
1/2+x,1/2-y,z
loop_
_atom_site_type_symbol
_atom_site_label
_atom_site_fract_x
_atom_site_fract_y
_atom_site_fract_z
Si Si1 0.345534 0.500000 0.080999
Si Si2 0.000000 0.180653 0.921646
Si Si3 0.347384 0.923758 0.078602
Si Si4 0.780122 0.662448 0.853873
Si Si5 0.162223 0.293200 0.720265
Si Si6 0.500000 0.781327 0.922800
Si Si7 0.341240 0.791570 0.571787
O O1 0.500000 0.500000 0.104758
O O2 0.261498 0.541512 0.099574
O O3 0.348231 0.500000 0.000000
O O4 0.868548 0.164652 0.883930
O O5 0.000000 0.231304 0.918189
O O6 0.000000 0.168518 0.000000
O O7 0.500000 0.940987 0.082252
O O8 0.338043 0.882332 0.123601
O O9 0.323882 0.912497 0.000000
O O10 0.790590 0.673950 0.776175
O O11 0.869537 0.698664 0.888730
O O12 0.250000 0.250000 0.727329
O O13 0.183502 0.310755 0.644931
O O14 0.000000 0.284931 0.729013
O O15 0.500000 0.793838 0.000000
O O16 0.316418 0.813884 0.500000
O O17 0.500000 0.780074 0.572206
O O18 0.250000 0.750000 0.570959
#
# Coordination Sequence:
#
# PCOD9484949 Si02
#       7
#     8   8  16  16  16   8  16
#     4   9  19  33  51  71  87 103 130 175 226 272
#     4  11  24  34  44  59  82 116 156 195 227 254
#     4  10  19  33  50  66  85 109 140 177 222 274
#     4  12  22  32  46  64  85 114 149 189 227 265
#     4  10  19  30  44  62  86 116 149 185 222 260
#     4  11  20  34  46  57  80 114 154 189 221 254
#     4   8  14  25  41  60  81 107 141 179 217 257
#
# _framework density 13.961373999999999
#
# number of rings (size 3 to 8) (size 9 to 14) (size 15 to 20)
#    0.000    1.909    1.818    3.545    2.545    2.545 
#    0.000    0.000    0.000    0.000    0.000    0.000 
#    0.000    0.000    0.000    0.818    0.000   13.727 
#
# Total GULP energy -245087.941013 kJ/mol
# GULP energy per Si atom -5570.180478 kJ/mol
# Density = 1.392960 g / cm^3
# Si number density = 13.961374 Si / 1000 Ang^3
#
#
#
# Elastic Constant Matrix: (Units=GPa)
#
#
# Indices 1 2 3 4 5 6 
#
# 1 88.0196 16.9712 33.2198 0.0000 0.0000 0.0000
# 2 16.9712 40.3597 31.2828 0.0000 0.0000 0.0000
# 3 33.2198 31.2828 116.4852 0.0000 0.0000 0.0000
# 4 0.0000 0.0000 0.0000 11.0358 0.0000 0.0000
# 5 0.0000 0.0000 0.0000 0.0000 16.6663 0.0000
# 6 0.0000 0.0000 0.0000 0.0000 0.0000 3.1331
#
#
#
# Elastic Compliance Matrix: (Units=1/GPa)
#
#
# Indices 1 2 3 4 5 6 
#
# 1 0.013069 -0.003292 -0.002843 0.000000 0.000000 0.000000
# 2 -0.003292 0.032120 -0.007687 0.000000 0.000000 0.000000
# 3 -0.002843 -0.007687 0.011460 0.000000 0.000000 0.000000
# 4 0.000000 0.000000 0.000000 0.090614 0.000000 0.000000
# 5 0.000000 0.000000 0.000000 0.000000 0.060001 0.000000
# 6 0.000000 0.000000 0.000000 0.000000 0.000000 0.319175
#
#
# Mechanical properties :
#
#
# Convention : Reuss Voigt Hill
#
# Bulk Modulus (GPa) = 34.47735 45.31248 39.89491
# Shear Modulus (GPa) = 8.86916 17.05974 12.96445
#
# Velocity S-wave (km/s) = 2.52318 3.49940 3.05059
# Velocity P-wave (km/s) = 5.76515 6.98955 6.40667
#
# Compressibility (1/GPa) = 0.02900455
#
# Stress axis : x y z
#
# Youngs Moduli (GPa) = 76.51822 31.13355 87.26000
#
# Poissons Ratio (x) = 0.10249 0.24808
# Poissons Ratio (y) = 0.25188 0.67078
# Poissons Ratio (z) = 0.21754 0.23933
#
# Static dielectric constant tensor:
#      x y z
#    x 1.434270 0.000000 0.000000 
#    y 0.000000 1.425760 0.000000 
#    z 0.000000 0.000000 1.493300 
# 
# From -- ./inp_files/60762.got.cif
#   From: 2010.05.17/outbox.cif.g08.bks.cpg/sg65_31_cif.got.tgz:60762.got - 2010.06.03 17:01:31.
