data_PCOD9484978
_publ_section_title
;
Structure prediction by ZEFSAII (Michael W. Deem and Ramdas Pophale) SiO2 
 PCOD9484978
Probable space group: C M M M
;
_chemical_formula_sum "Si O2"
_cell_formula_units_Z 88
_cell_length_a 18.415739
_cell_length_b 7.330590
_cell_length_c 30.485283
_cell_angle_alpha 90.000000
_cell_angle_beta 90.000000
_cell_angle_gamma 90.000000
_cell_volume 4115.459312
_symmetry_space_group_name_H-M "C M M M"
_symmetry_group_IT_number 65
_symmetry_cell_setting 'orthorhombic'
loop_
_space_group_symop_operation_xyz
x,y,z
-x,-y,z
x,-y,-z
-x,y,-z
-x,-y,-z
x,y,-z
-x,y,z
x,-y,z
1/2+x,1/2+y,z
1/2-x,1/2-y,z
1/2+x,1/2-y,-z
1/2-x,1/2+y,-z
1/2-x,1/2-y,-z
1/2+x,1/2+y,-z
1/2-x,1/2+y,z
1/2+x,1/2-y,z
loop_
_atom_site_type_symbol
_atom_site_label
_atom_site_fract_x
_atom_site_fract_y
_atom_site_fract_z
Si Si1 0.915129 0.777444 0.142607
Si Si2 0.335412 0.282651 0.770290
Si Si3 0.083912 0.777006 0.682781
Si Si4 0.663171 0.717474 0.500000
Si Si5 0.836298 0.782035 0.595335
Si Si6 0.086805 0.780126 0.952864
O O1 0.870353 0.713256 0.184528
O O2 0.886495 0.716403 0.094726
O O3 0.000000 0.726832 0.147001
O O4 0.913496 0.000000 0.142057
O O5 0.347309 0.500000 0.770666
O O6 0.250000 0.250000 0.768687
O O7 0.374153 0.214377 0.726253
O O8 0.122166 0.713778 0.638071
O O9 0.000000 0.724260 0.684310
O O10 0.086412 0.000000 0.682538
O O11 0.650592 0.500000 0.500000
O O12 0.750000 0.750000 0.500000
O O13 0.638141 0.788038 0.547491
O O14 0.750000 0.750000 0.599684
O O15 0.846478 0.000000 0.594296
O O16 0.000000 0.743805 0.952607
O O17 0.094586 0.000000 0.953279
O O18 0.115704 0.713068 0.000000
#
# Coordination Sequence:
#
# PCOD9484978 Si02
#       6
#    16  16  16   8  16  16
#     4   8  13  22  38  59  80 104 136 170 202 238
#     4  10  19  30  45  63  83 108 137 169 204 244
#     4   9  17  29  45  64  84 107 137 172 208 244
#     4   8  14  24  39  61  85 109 137 166 198 236
#     4   9  16  27  44  64  86 111 139 170 202 239
#     4   7   9  14  27  50  78 102 125 160 203 237
#
# _framework density 21.382788999999999
#
# number of rings (size 3 to 8) (size 9 to 14) (size 15 to 20)
#    0.000    3.455    0.000    2.727    0.000    2.182 
#    0.000    0.455    0.000    7.091    0.000    0.000 
#    0.000    7.273    0.000    4.545    0.000    3.636 
#
# Total GULP energy -245270.311783 kJ/mol
# GULP energy per Si atom -5574.325268 kJ/mol
# Density = 2.133412 g / cm^3
# Si number density = 21.382789 Si / 1000 Ang^3
#
#
#
# Elastic Constant Matrix: (Units=GPa)
#
#
# Indices 1 2 3 4 5 6 
#
# 1 92.5198 -3.4964 113.2512 0.0000 0.0000 0.0000
# 2 -3.4964 84.2217 14.0202 0.0000 0.0000 0.0000
# 3 113.2512 14.0202 316.4887 0.0000 0.0000 0.0000
# 4 0.0000 0.0000 0.0000 47.0744 0.0000 0.0000
# 5 0.0000 0.0000 0.0000 0.0000 20.2807 0.0000
# 6 0.0000 0.0000 0.0000 0.0000 0.0000 3.9321
#
#
#
# Elastic Compliance Matrix: (Units=1/GPa)
#
#
# Indices 1 2 3 4 5 6 
#
# 1 0.019559 0.001992 -0.007087 0.000000 0.000000 0.000000
# 2 0.001992 0.012164 -0.001252 0.000000 0.000000 0.000000
# 3 -0.007087 -0.001252 0.005751 0.000000 0.000000 0.000000
# 4 0.000000 0.000000 0.000000 0.021243 0.000000 0.000000
# 5 0.000000 0.000000 0.000000 0.000000 0.049308 0.000000
# 6 0.000000 0.000000 0.000000 0.000000 0.000000 0.254318
#
#
# Mechanical properties :
#
#
# Convention : Reuss Voigt Hill
#
# Bulk Modulus (GPa) = 40.35416 82.30890 61.33153
# Shear Modulus (GPa) = 13.04467 38.88777 25.96622
#
# Velocity S-wave (km/s) = 2.47261 4.26919 3.48854
# Velocity P-wave (km/s) = 5.20240 7.92956 6.70607
#
# Compressibility (1/GPa) = 0.02478059
#
# Stress axis : x y z
#
# Youngs Moduli (GPa) = 51.12752 82.20669 173.87831
#
# Poissons Ratio (x) = -0.16374 1.23230
# Poissons Ratio (y) = -0.10183 0.21763
# Poissons Ratio (z) = 0.36235 0.10289
#
# Static dielectric constant tensor:
#      x y z
#    x 1.701140 0.000000 0.000000 
#    y 0.000000 1.819920 0.000000 
#    z 0.000000 0.000000 1.824680 
# 
# From -- ./inp_files/75366.got.cif
#   From: 2010.05.17/outbox.cif.g08.bks.cpg/sg65_38_cif.got.tgz:75366.got - 2010.06.03 17:01:31.
