data_PCOD9484441
_publ_section_title
;
Structure prediction by ZEFSAII (Michael W. Deem and Ramdas Pophale) SiO2 
 PCOD9484441
Probable space group: C M M M
;
_chemical_formula_sum "Si O2"
_cell_formula_units_Z 72
_cell_length_a 18.656851
_cell_length_b 8.560311
_cell_length_c 23.984832
_cell_angle_alpha 90.000000
_cell_angle_beta 90.000000
_cell_angle_gamma 90.000000
_cell_volume 3830.580266
_symmetry_space_group_name_H-M "C M M M"
_symmetry_group_IT_number 65
_symmetry_cell_setting 'orthorhombic'
loop_
_space_group_symop_operation_xyz
x,y,z
-x,-y,z
x,-y,-z
-x,y,-z
-x,-y,-z
x,y,-z
-x,y,z
x,-y,z
1/2+x,1/2+y,z
1/2-x,1/2-y,z
1/2+x,1/2-y,-z
1/2-x,1/2+y,-z
1/2-x,1/2-y,-z
1/2+x,1/2+y,-z
1/2-x,1/2+y,z
1/2+x,1/2-y,z
loop_
_atom_site_type_symbol
_atom_site_label
_atom_site_fract_x
_atom_site_fract_y
_atom_site_fract_z
Si Si1 0.416124 0.687404 0.777012
Si Si2 0.669589 0.811963 0.670627
Si Si3 0.331655 0.686409 0.000000
Si Si4 0.331332 0.186276 0.116757
Si Si5 0.582807 0.809887 0.562506
O O1 0.500000 0.729061 0.776018
O O2 0.409714 0.500000 0.778575
O O3 0.377138 0.750997 0.722091
O O4 0.377748 0.757419 0.831242
O O5 0.750000 0.750000 0.675306
O O6 0.633558 0.758159 0.612510
O O7 0.670049 0.000000 0.671698
O O8 0.250000 0.750000 0.000000
O O9 0.362260 0.749075 0.941795
O O10 0.331210 0.500000 0.000000
O O11 0.250000 0.250000 0.123120
O O12 0.328154 0.000000 0.114302
O O13 0.603847 0.759001 0.500000
O O14 0.500000 0.763055 0.572185
O O15 0.583576 0.000000 0.562455
#
# Coordination Sequence:
#
# PCOD9484441 Si02
#       5
#    16  16   8  16  16
#     4  11  24  41  59  80 109 144 183 230 284 337
#     4  11  22  36  56  82 112 146 186 230 277 329
#     4  10  18  32  55  84 117 150 187 227 273 325
#     4  11  21  36  59  86 116 148 187 230 274 326
#     4   8  15  30  53  80 109 143 184 228 274 326
#
# _framework density 18.796109000000001
#
# number of rings (size 3 to 8) (size 9 to 14) (size 15 to 20)
#    0.000    1.778    0.000    7.667    0.000    3.111 
#    0.000    0.556    0.000    5.333    0.000    7.778 
#    0.000    0.000    0.000    0.000    0.000    0.000 
#
# Total GULP energy -201102.526641 kJ/mol
# GULP energy per Si atom -5586.181296 kJ/mol
# Density = 1.875333 g / cm^3
# Si number density = 18.796109 Si / 1000 Ang^3
#
#
#
# Elastic Constant Matrix: (Units=GPa)
#
#
# Indices 1 2 3 4 5 6 
#
# 1 122.8067 56.8720 108.3441 0.0000 0.0000 0.0000
# 2 56.8720 99.3355 65.8946 0.0000 0.0000 0.0000
# 3 108.3441 65.8946 209.8617 0.0000 0.0000 0.0000
# 4 0.0000 0.0000 0.0000 -29.2693 0.0000 0.0000
# 5 0.0000 0.0000 0.0000 0.0000 26.8283 0.0000
# 6 0.0000 0.0000 0.0000 0.0000 0.0000 13.9418
#
#
#
# Elastic Compliance Matrix: (Units=1/GPa)
#
#
# Indices 1 2 3 4 5 6 
#
# 1 0.016603 -0.004824 -0.007056 0.000000 0.000000 0.000000
# 2 -0.004824 0.014117 -0.001942 0.000000 0.000000 0.000000
# 3 -0.007056 -0.001942 0.009018 0.000000 0.000000 0.000000
# 4 0.000000 0.000000 0.000000 -0.034165 0.000000 0.000000
# 5 0.000000 0.000000 0.000000 0.000000 0.037274 0.000000
# 6 0.000000 0.000000 0.000000 0.000000 0.000000 0.071727
#
#
# Mechanical properties :
#
#
# Convention : Reuss Voigt Hill
#
# Bulk Modulus (GPa) = 82.70072 99.35835 91.02954
# Shear Modulus (GPa) = 34.18825 15.69304 24.94065
#
# Velocity S-wave (km/s) = 4.26948 2.89261 3.64662
# Velocity P-wave (km/s) = 8.27037 8.00826 8.14037
#
# Compressibility (1/GPa) = 0.01209179
#
# Stress axis : x y z
#
# Youngs Moduli (GPa) = 60.23182 70.83552 110.89155
#
# Poissons Ratio (x) = 0.34174 0.78250
# Poissons Ratio (y) = 0.29058 0.21535
# Poissons Ratio (z) = 0.42502 0.13756
#
# Static dielectric constant tensor:
#      x y z
#    x 1.616320 0.000000 0.000000 
#    y 0.000000 1.627660 0.000000 
#    z 0.000000 0.000000 1.657790 
# 
# From -- ./inp_files/70328.got.cif
#   From: 2010.05.17/outbox.cif.g08.bks.cpg/sg65_36_cif.got.tgz:70328.got - 2010.06.03 17:01:31.
