data_PCOD9484773
_publ_section_title
;
Structure prediction by ZEFSAII (Michael W. Deem and Ramdas Pophale) SiO2 
 PCOD9484773
Probable space group: C M M M
;
_chemical_formula_sum "Si O2"
_cell_formula_units_Z 96
_cell_length_a 27.724613
_cell_length_b 14.205130
_cell_length_c 15.349847
_cell_angle_alpha 90.000000
_cell_angle_beta 90.000000
_cell_angle_gamma 90.000000
_cell_volume 6045.256828
_symmetry_space_group_name_H-M "C M M M"
_symmetry_group_IT_number 65
_symmetry_cell_setting 'orthorhombic'
loop_
_space_group_symop_operation_xyz
x,y,z
-x,-y,z
x,-y,-z
-x,y,-z
-x,-y,-z
x,y,-z
-x,y,z
x,-y,z
1/2+x,1/2+y,z
1/2-x,1/2-y,z
1/2+x,1/2-y,-z
1/2-x,1/2+y,-z
1/2-x,1/2-y,-z
1/2+x,1/2+y,-z
1/2-x,1/2+y,z
1/2+x,1/2-y,z
loop_
_atom_site_type_symbol
_atom_site_label
_atom_site_fract_x
_atom_site_fract_y
_atom_site_fract_z
Si Si1 0.057505 0.889110 0.100811
Si Si2 0.829527 0.791690 0.404266
Si Si3 0.770751 0.606672 0.630536
Si Si4 0.134958 0.213142 0.213709
Si Si5 0.189350 0.392873 0.824869
Si Si6 0.213508 0.113470 0.096807
O O1 0.087906 0.828317 0.168251
O O2 0.000000 0.878467 0.111632
O O3 0.069185 0.000000 0.112380
O O4 0.069233 0.865227 0.000000
O O5 0.850932 0.810290 0.500000
O O6 0.806612 0.686617 0.404514
O O7 0.783279 0.859744 0.390434
O O8 0.862220 0.798763 0.318087
O O9 0.778974 0.500000 0.600531
O O10 0.781053 0.607696 0.733846
O O11 0.145804 0.321128 0.187861
O O12 0.180204 0.158690 0.170108
O O13 0.174486 0.500000 0.843525
O O14 0.230194 0.360606 0.892614
O O15 0.211531 0.000000 0.105597
O O16 0.196112 0.138319 0.000000
#
# Coordination Sequence:
#
# PCOD9484773 Si02
#       6
#    16  16  16  16  16  16
#     4   9  19  36  57  79  96 110 140 190 241 286
#     4  10  20  29  40  65  93 121 164 201 225 265
#     4   9  16  29  44  58  88 131 165 197 231 258
#     4  11  19  30  49  68  91 125 156 190 235 277
#     4   9  18  30  42  63  97 130 160 189 219 266
#     4  10  19  29  43  65  93 124 156 189 226 274
#
# _framework density 15.880219
#
# number of rings (size 3 to 8) (size 9 to 14) (size 15 to 20)
#    0.000    2.333    1.667    3.000    0.000    5.333 
#    0.000    0.000    0.000    1.000    0.000    2.333 
#    0.000    0.000    0.000    8.333    0.000    0.000 
#
# Total GULP energy -267603.782879 kJ/mol
# GULP energy per Si atom -5575.078810 kJ/mol
# Density = 1.584407 g / cm^3
# Si number density = 15.880219 Si / 1000 Ang^3
#
#
#
# Elastic Constant Matrix: (Units=GPa)
#
#
# Indices 1 2 3 4 5 6 
#
# 1 48.1994 28.2771 36.9287 0.0000 0.0000 0.0000
# 2 28.2771 70.4199 38.8466 0.0000 0.0000 0.0000
# 3 36.9287 38.8466 106.1344 0.0000 0.0000 0.0000
# 4 0.0000 0.0000 0.0000 10.1803 0.0000 0.0000
# 5 0.0000 0.0000 0.0000 0.0000 9.6137 0.0000
# 6 0.0000 0.0000 0.0000 0.0000 0.0000 20.8802
#
#
#
# Elastic Compliance Matrix: (Units=1/GPa)
#
#
# Indices 1 2 3 4 5 6 
#
# 1 0.031773 -0.008345 -0.008001 0.000000 0.000000 0.000000
# 2 -0.008345 0.019985 -0.004411 0.000000 0.000000 0.000000
# 3 -0.008001 -0.004411 0.013820 0.000000 0.000000 0.000000
# 4 0.000000 0.000000 0.000000 0.098229 0.000000 0.000000
# 5 0.000000 0.000000 0.000000 0.000000 0.104018 0.000000
# 6 0.000000 0.000000 0.000000 0.000000 0.000000 0.047892
#
#
# Mechanical properties :
#
#
# Convention : Reuss Voigt Hill
#
# Bulk Modulus (GPa) = 41.55521 48.09538 44.82529
# Shear Modulus (GPa) = 13.68921 16.18161 14.93541
#
# Velocity S-wave (km/s) = 2.93922 3.19561 3.07009
# Velocity P-wave (km/s) = 6.14356 6.63084 6.39184
#
# Compressibility (1/GPa) = 0.02406437
#
# Stress axis : x y z
#
# Youngs Moduli (GPa) = 31.47360 50.03812 72.35687
#
# Poissons Ratio (x) = 0.41755 0.57891
# Poissons Ratio (y) = 0.26264 0.31918
# Poissons Ratio (z) = 0.25181 0.22073
#
# Static dielectric constant tensor:
#      x y z
#    x 1.492430 0.000000 0.000000 
#    y 0.000000 1.566020 0.000000 
#    z 0.000000 0.000000 1.574590 
# 
# From -- ./inp_files/47893.got.cif
#   From: 2010.05.17/outbox.cif.g08.bks.cpg/sg65_24_cif.got.tgz:47893.got - 2010.06.03 17:01:31.
