data_PCOD9484785
_publ_section_title
;
Structure prediction by ZEFSAII (Michael W. Deem and Ramdas Pophale) SiO2 
 PCOD9484785
Probable space group: C M M M
;
_chemical_formula_sum "Si O2"
_cell_formula_units_Z 88
_cell_length_a 25.334672
_cell_length_b 20.426073
_cell_length_c 9.439505
_cell_angle_alpha 90.000000
_cell_angle_beta 90.000000
_cell_angle_gamma 90.000000
_cell_volume 4884.829239
_symmetry_space_group_name_H-M "C M M M"
_symmetry_group_IT_number 65
_symmetry_cell_setting 'orthorhombic'
loop_
_space_group_symop_operation_xyz
x,y,z
-x,-y,z
x,-y,-z
-x,y,-z
-x,-y,-z
x,y,-z
-x,y,z
x,-y,z
1/2+x,1/2+y,z
1/2-x,1/2-y,z
1/2+x,1/2-y,-z
1/2-x,1/2+y,-z
1/2-x,1/2-y,-z
1/2+x,1/2+y,-z
1/2-x,1/2+y,z
1/2+x,1/2-y,z
loop_
_atom_site_type_symbol
_atom_site_label
_atom_site_fract_x
_atom_site_fract_y
_atom_site_fract_z
Si Si1 0.291719 0.695631 0.335484
Si Si2 0.834007 0.074192 0.831549
Si Si3 0.410085 0.249803 0.341064
Si Si4 0.558917 0.397062 0.332366
Si Si5 0.563561 0.125248 0.839820
Si Si6 0.435519 0.000000 0.662135
O O1 0.279174 0.678831 0.500000
O O2 0.250000 0.750000 0.285420
O O3 0.298892 0.630119 0.243325
O O4 0.348845 0.730188 0.335692
O O5 0.892363 0.077967 0.760483
O O6 0.814094 0.000000 0.810084
O O7 0.837927 0.086396 0.000000
O O8 0.423177 0.226086 0.500000
O O9 0.439902 0.318183 0.317489
O O10 0.422273 0.194071 0.229715
O O11 0.568395 0.411056 0.500000
O O12 0.500000 0.420619 0.295632
O O13 0.500000 0.121179 0.844083
O O14 0.582193 0.064873 0.744185
O O15 0.583415 0.119817 0.000000
O O16 0.500000 0.000000 0.662198
O O17 0.418177 0.000000 0.500000
#
# Coordination Sequence:
#
# PCOD9484785 Si02
#       6
#    16  16  16  16  16   8
#     4   9  19  37  60  81 100 127 171 221 265 312
#     4  10  21  35  52  78 111 144 177 214 262 320
#     4   9  17  30  49  72  97 125 161 207 254 301
#     4   9  18  32  50  74 105 142 183 221 254 295
#     4  10  19  29  43  66  97 130 163 199 241 295
#     4   9  17  29  45  63  85 121 165 203 241 285
#
# _framework density 18.014959999999999
#
# number of rings (size 3 to 8) (size 9 to 14) (size 15 to 20)
#    0.000    2.636    0.000    3.000    0.000    8.364 
#    0.000    1.818    2.000    0.000    0.000    0.000 
#    0.000    0.000    0.000    0.000    0.000    0.000 
#
# Total GULP energy -245335.495433 kJ/mol
# GULP energy per Si atom -5575.806714 kJ/mol
# Density = 1.797396 g / cm^3
# Si number density = 18.014960 Si / 1000 Ang^3
#
#
#
# Elastic Constant Matrix: (Units=GPa)
#
#
# Indices 1 2 3 4 5 6 
#
# 1 55.1984 29.8645 15.5432 0.0000 0.0000 0.0000
# 2 29.8645 120.4586 84.3602 0.0000 0.0000 0.0000
# 3 15.5432 84.3602 124.8064 0.0000 0.0000 0.0000
# 4 0.0000 0.0000 0.0000 32.0443 0.0000 0.0000
# 5 0.0000 0.0000 0.0000 0.0000 14.3150 0.0000
# 6 0.0000 0.0000 0.0000 0.0000 0.0000 19.4245
#
#
#
# Elastic Compliance Matrix: (Units=1/GPa)
#
#
# Indices 1 2 3 4 5 6 
#
# 1 0.021117 -0.006444 0.001726 0.000000 0.000000 0.000000
# 2 -0.006444 0.017730 -0.011182 0.000000 0.000000 0.000000
# 3 0.001726 -0.011182 0.015356 0.000000 0.000000 0.000000
# 4 0.000000 0.000000 0.000000 0.031207 0.000000 0.000000
# 5 0.000000 0.000000 0.000000 0.000000 0.069857 0.000000
# 6 0.000000 0.000000 0.000000 0.000000 0.000000 0.051481
#
#
# Mechanical properties :
#
#
# Convention : Reuss Voigt Hill
#
# Bulk Modulus (GPa) = 44.63748 62.22213 53.42981
# Shear Modulus (GPa) = 20.32398 24.53648 22.43023
#
# Velocity S-wave (km/s) = 3.36247 3.69454 3.53241
# Velocity P-wave (km/s) = 6.31718 7.26730 6.80883
#
# Compressibility (1/GPa) = 0.02240270
#
# Stress axis : x y z
#
# Youngs Moduli (GPa) = 47.35530 56.40129 65.12311
#
# Poissons Ratio (x) = 0.36345 -0.11239
# Poissons Ratio (y) = 0.30516 0.72819
# Poissons Ratio (z) = -0.08173 0.63066
#
# Static dielectric constant tensor:
#      x y z
#    x 1.613940 0.000000 0.000000 
#    y 0.000000 1.612890 0.000000 
#    z 0.000000 0.000000 1.615520 
# 
# From -- ./inp_files/13984.got.cif
#   From: 2010.05.17/outbox.cif.g08.bks.cpg/sg65_7_cif.got.tgz:13984.got - 2010.06.03 17:01:31.
