data_PCOD9484133
_publ_section_title
;
Structure prediction by ZEFSAII (Michael W. Deem and Ramdas Pophale) SiO2 
 PCOD9484133
Probable space group: C M M M
;
_chemical_formula_sum "Si O2"
_cell_formula_units_Z 88
_cell_length_a 29.368948
_cell_length_b 7.767753
_cell_length_c 18.784673
_cell_angle_alpha 90.000000
_cell_angle_beta 90.000000
_cell_angle_gamma 90.000000
_cell_volume 4285.361238
_symmetry_space_group_name_H-M "C M M M"
_symmetry_group_IT_number 65
_symmetry_cell_setting 'orthorhombic'
loop_
_space_group_symop_operation_xyz
x,y,z
-x,-y,z
x,-y,-z
-x,y,-z
-x,-y,-z
x,y,-z
-x,y,z
x,-y,z
1/2+x,1/2+y,z
1/2-x,1/2-y,z
1/2+x,1/2-y,-z
1/2-x,1/2+y,-z
1/2-x,1/2-y,-z
1/2+x,1/2+y,-z
1/2-x,1/2+y,z
1/2+x,1/2-y,z
loop_
_atom_site_type_symbol
_atom_site_label
_atom_site_fract_x
_atom_site_fract_y
_atom_site_fract_z
Si Si1 0.947138 0.210945 0.500000
Si Si2 0.447408 0.710808 0.783702
Si Si3 0.199543 0.205705 0.297881
Si Si4 0.395703 0.300269 0.077691
Si Si5 0.301280 0.197544 0.132536
Si Si6 0.894659 0.789770 0.358396
O O1 0.920193 0.267568 0.570507
O O2 0.000000 0.264844 0.500000
O O3 0.947453 0.000000 0.500000
O O4 0.500000 0.760974 0.782988
O O5 0.445557 0.500000 0.783607
O O6 0.421952 0.774752 0.854449
O O7 0.421729 0.765465 0.712179
O O8 0.250000 0.250000 0.324419
O O9 0.194662 0.279576 0.218053
O O10 0.157807 0.263070 0.347255
O O11 0.196628 0.000000 0.289659
O O12 0.409859 0.500000 0.074184
O O13 0.342083 0.296691 0.095112
O O14 0.404337 0.222138 0.000000
O O15 0.250000 0.250000 0.113153
O O16 0.307830 0.000000 0.114063
O O17 0.895161 0.000000 0.359967
#
# Coordination Sequence:
#
# PCOD9484133 Si02
#       6
#     8  16  16  16  16  16
#     4   9  16  26  43  74 111 141 169 207 262 311
#     4   9  16  28  48  73 100 132 172 215 258 301
#     4  10  18  31  51  76 106 137 173 213 257 307
#     4  10  20  34  51  74 106 138 171 214 260 308
#     4  11  21  34  54  77 103 135 173 216 262 311
#     4   9  16  27  46  72 106 139 168 210 257 304
#
# _framework density 20.535025999999998
#
# number of rings (size 3 to 8) (size 9 to 14) (size 15 to 20)
#    0.000    2.273    1.818    3.818    0.000    3.273 
#    0.000    2.273    0.000    0.545    0.000    3.182 
#    0.000    2.909    0.000    0.000    0.000    0.000 
#
# Total GULP energy -245641.986397 kJ/mol
# GULP energy per Si atom -5582.772418 kJ/mol
# Density = 2.048829 g / cm^3
# Si number density = 20.535026 Si / 1000 Ang^3
#
#
#
# Elastic Constant Matrix: (Units=GPa)
#
#
# Indices 1 2 3 4 5 6 
#
# 1 155.5541 -10.1289 102.5097 0.0000 0.0000 0.0000
# 2 -10.1289 35.5288 -1.9447 0.0000 0.0000 0.0000
# 3 102.5097 -1.9447 171.1288 0.0000 0.0000 0.0000
# 4 0.0000 0.0000 0.0000 0.6660 0.0000 0.0000
# 5 0.0000 0.0000 0.0000 0.0000 14.9968 0.0000
# 6 0.0000 0.0000 0.0000 0.0000 0.0000 28.8410
#
#
#
# Elastic Compliance Matrix: (Units=1/GPa)
#
#
# Indices 1 2 3 4 5 6 
#
# 1 0.010883 0.002748 -0.006488 0.000000 0.000000 0.000000
# 2 0.002748 0.028857 -0.001318 0.000000 0.000000 0.000000
# 3 -0.006488 -0.001318 0.009715 0.000000 0.000000 0.000000
# 4 0.000000 0.000000 0.000000 1.501537 0.000000 0.000000
# 5 0.000000 0.000000 0.000000 0.000000 0.066681 0.000000
# 6 0.000000 0.000000 0.000000 0.000000 0.000000 0.034673
#
#
# Mechanical properties :
#
#
# Convention : Reuss Voigt Hill
#
# Bulk Modulus (GPa) = 25.42023 60.34267 42.88145
# Shear Modulus (GPa) = 2.98405 27.01912 15.00158
#
# Velocity S-wave (km/s) = 1.20677 3.63127 2.70578
# Velocity P-wave (km/s) = 3.78782 6.85788 5.53977
#
# Compressibility (1/GPa) = 0.03933875
#
# Stress axis : x y z
#
# Youngs Moduli (GPa) = 91.88562 34.65324 102.93351
#
# Poissons Ratio (x) = -0.09521 0.66783
# Poissons Ratio (y) = -0.25246 0.13566
# Poissons Ratio (z) = 0.59615 0.04567
#
# Static dielectric constant tensor:
#      x y z
#    x 1.744820 0.000000 0.000000 
#    y 0.000000 1.777910 0.000000 
#    z 0.000000 0.000000 1.714770 
# 
# From -- ./inp_files/50424.got.cif
#   From: 2010.05.17/outbox.cif.g08.bks.cpg/sg65_26_cif.got.tgz:50424.got - 2010.06.03 17:01:31.
