data_PCOD9484961
_publ_section_title
;
Structure prediction by ZEFSAII (Michael W. Deem and Ramdas Pophale) SiO2 
 PCOD9484961
Probable space group: C M M M
;
_chemical_formula_sum "Si O2"
_cell_formula_units_Z 88
_cell_length_a 29.389957
_cell_length_b 8.660105
_cell_length_c 21.694690
_cell_angle_alpha 90.000000
_cell_angle_beta 90.000000
_cell_angle_gamma 90.000000
_cell_volume 5521.734963
_symmetry_space_group_name_H-M "C M M M"
_symmetry_group_IT_number 65
_symmetry_cell_setting 'orthorhombic'
loop_
_space_group_symop_operation_xyz
x,y,z
-x,-y,z
x,-y,-z
-x,y,-z
-x,-y,-z
x,y,-z
-x,y,z
x,-y,z
1/2+x,1/2+y,z
1/2-x,1/2-y,z
1/2+x,1/2-y,-z
1/2-x,1/2+y,-z
1/2-x,1/2-y,-z
1/2+x,1/2+y,-z
1/2-x,1/2+y,z
1/2+x,1/2-y,z
loop_
_atom_site_type_symbol
_atom_site_label
_atom_site_fract_x
_atom_site_fract_y
_atom_site_fract_z
Si Si1 0.856718 0.813420 0.815505
Si Si2 0.801335 0.185474 0.304904
Si Si3 0.555223 0.174439 0.000000
Si Si4 0.698799 0.185196 0.930907
Si Si5 0.301529 0.185127 0.567282
Si Si6 0.448428 0.685787 0.868875
O O1 0.831362 0.763768 0.753323
O O2 0.830774 0.751687 0.875537
O O3 0.909443 0.765126 0.821380
O O4 0.855091 0.000000 0.816971
O O5 0.750000 0.250000 0.298122
O O6 0.821201 0.244733 0.370044
O O7 0.798927 0.000000 0.306336
O O8 0.566850 0.259028 0.936720
O O9 0.500000 0.168317 0.000000
O O10 0.573298 0.000000 0.000000
O O11 0.750000 0.250000 0.925373
O O12 0.699976 0.000000 0.926808
O O13 0.682004 0.227204 0.000000
O O14 0.322028 0.224586 0.500000
O O15 0.250000 0.250000 0.565939
O O16 0.299928 0.000000 0.572389
O O17 0.500000 0.742435 0.857196
O O18 0.450071 0.500000 0.869475
#
# Coordination Sequence:
#
# PCOD9484961 Si02
#       6
#    16  16   8  16  16  16
#     4  10  21  33  47  67  89 117 151 187 226 271
#     4  10  19  30  44  64  91 120 151 182 216 257
#     4   9  17  29  45  65  86 105 132 177 229 275
#     4  10  21  35  49  65  85 113 150 189 228 268
#     4   9  16  26  42  64  89 118 150 179 210 250
#     4   9  18  33  50  66  86 114 147 183 227 278
#
# _framework density 15.937021
#
# number of rings (size 3 to 8) (size 9 to 14) (size 15 to 20)
#    0.000    2.455    0.000    3.545    1.273    6.909 
#    0.000    0.000    0.000    0.000    0.000    0.000 
#    0.000    0.727    0.000    9.091    0.000    1.455 
#
# Total GULP energy -245247.694751 kJ/mol
# GULP energy per Si atom -5573.811244 kJ/mol
# Density = 1.590075 g / cm^3
# Si number density = 15.937021 Si / 1000 Ang^3
#
#
#
# Elastic Constant Matrix: (Units=GPa)
#
#
# Indices 1 2 3 4 5 6 
#
# 1 70.3657 17.3477 66.7044 0.0000 0.0000 0.0000
# 2 17.3477 25.0657 29.8671 0.0000 0.0000 0.0000
# 3 66.7044 29.8671 150.1888 0.0000 0.0000 0.0000
# 4 0.0000 0.0000 0.0000 14.2780 0.0000 0.0000
# 5 0.0000 0.0000 0.0000 0.0000 8.8696 0.0000
# 6 0.0000 0.0000 0.0000 0.0000 0.0000 11.0223
#
#
#
# Elastic Compliance Matrix: (Units=1/GPa)
#
#
# Indices 1 2 3 4 5 6 
#
# 1 0.025083 -0.005354 -0.010075 0.000000 0.000000 0.000000
# 2 -0.005354 0.053427 -0.008247 0.000000 0.000000 0.000000
# 3 -0.010075 -0.008247 0.012773 0.000000 0.000000 0.000000
# 4 0.000000 0.000000 0.000000 0.070038 0.000000 0.000000
# 5 0.000000 0.000000 0.000000 0.000000 0.112745 0.000000
# 6 0.000000 0.000000 0.000000 0.000000 0.000000 0.090725
#
#
# Mechanical properties :
#
#
# Convention : Reuss Voigt Hill
#
# Bulk Modulus (GPa) = 22.76327 52.60652 37.68489
# Shear Modulus (GPa) = 11.71546 15.61404 13.66475
#
# Velocity S-wave (km/s) = 2.71423 3.13347 2.93135
# Velocity P-wave (km/s) = 4.91294 6.79501 5.92913
#
# Compressibility (1/GPa) = 0.04393043
#
# Stress axis : x y z
#
# Youngs Moduli (GPa) = 39.86829 18.71708 78.28931
#
# Poissons Ratio (x) = 0.10021 0.78880
# Poissons Ratio (y) = 0.21346 0.64564
# Poissons Ratio (z) = 0.40169 0.15436
#
# Static dielectric constant tensor:
#      x y z
#    x 1.544530 0.000000 0.000000 
#    y 0.000000 1.544710 0.000000 
#    z 0.000000 0.000000 1.554560 
# 
# From -- ./inp_files/66250.got.cif
#   From: 2010.05.17/outbox.cif.g08.bks.cpg/sg65_34_cif.got.tgz:66250.got - 2010.06.03 17:01:31.
