data_PCOD9484053
_publ_section_title
;
Structure prediction by ZEFSAII (Michael W. Deem and Ramdas Pophale) SiO2 
 PCOD9484053
Probable space group: C M M M
;
_chemical_formula_sum "Si O2"
_cell_formula_units_Z 128
_cell_length_a 17.901220
_cell_length_b 22.650012
_cell_length_c 18.718613
_cell_angle_alpha 90.000000
_cell_angle_beta 90.000000
_cell_angle_gamma 90.000000
_cell_volume 7589.702134
_symmetry_space_group_name_H-M "C M M M"
_symmetry_group_IT_number 65
_symmetry_cell_setting 'orthorhombic'
loop_
_space_group_symop_operation_xyz
x,y,z
-x,-y,z
x,-y,-z
-x,y,-z
-x,-y,-z
x,y,-z
-x,y,z
x,-y,z
1/2+x,1/2+y,z
1/2-x,1/2-y,z
1/2+x,1/2-y,-z
1/2-x,1/2+y,-z
1/2-x,1/2-y,-z
1/2+x,1/2+y,-z
1/2-x,1/2+y,z
1/2+x,1/2-y,z
loop_
_atom_site_type_symbol
_atom_site_label
_atom_site_fract_x
_atom_site_fract_y
_atom_site_fract_z
Si Si1 0.317678 0.066998 0.584963
Si Si2 0.089513 0.837747 0.919201
Si Si3 0.703369 0.188691 0.228614
Si Si4 0.910691 0.066276 0.803275
Si Si5 0.087970 0.198303 0.582873
Si Si6 0.670445 0.217389 0.921151
Si Si7 0.814163 0.888729 0.678795
Si Si8 0.088290 0.675135 0.352083
O O1 0.309684 0.074633 0.500000
O O2 0.238250 0.076063 0.624070
O O3 0.373028 0.117150 0.615060
O O4 0.344268 0.000000 0.598669
O O5 0.115549 0.884155 0.859806
O O6 0.114129 0.770942 0.903153
O O7 0.000000 0.840823 0.920393
O O8 0.116902 0.851148 0.000000
O O9 0.750000 0.250000 0.228905
O O10 0.678879 0.175935 0.147356
O O11 0.757776 0.141865 0.265240
O O12 0.630842 0.191506 0.278918
O O13 0.871105 0.074846 0.727422
O O14 0.000000 0.073095 0.794743
O O15 0.896467 0.000000 0.830490
O O16 0.103532 0.184898 0.500000
O O17 0.140116 0.160396 0.634656
O O18 0.099615 0.267877 0.597278
O O19 0.000000 0.186120 0.597013
O O20 0.750000 0.250000 0.927288
O O21 0.652196 0.192795 0.000000
O O22 0.000000 0.666617 0.342239
#
# Coordination Sequence:
#
# PCOD9484053 Si02
#       8
#    16  16  16  16  16  16  16  16
#     4  10  22  38  56  75  96 130 172 212 256 301
#     4   9  18  31  47  68  94 126 163 203 244 285
#     4  10  18  31  48  74 101 134 166 198 242 297
#     4  10  20  32  48  70  96 131 171 207 245 288
#     4  10  20  33  51  76 103 133 165 203 255 307
#     4   9  17  29  46  69  99 132 164 197 237 288
#     4  11  20  34  51  72 103 132 165 210 249 298
#     4  10  21  35  53  78 106 132 162 206 254 304
#
# _framework density 16.864957
#
# number of rings (size 3 to 8) (size 9 to 14) (size 15 to 20)
#    0.000    2.125    1.250    3.000    0.000    1.750 
#    0.000    3.750    0.000    0.000    0.000    5.250 
#    0.000    4.500    0.000    4.500    0.000    0.000 
#
# Total GULP energy -356728.266196 kJ/mol
# GULP energy per Si atom -5573.879159 kJ/mol
# Density = 1.682657 g / cm^3
# Si number density = 16.864957 Si / 1000 Ang^3
#
#
#
# Elastic Constant Matrix: (Units=GPa)
#
#
# Indices 1 2 3 4 5 6 
#
# 1 54.8413 26.9124 41.1956 0.0000 0.0000 0.0000
# 2 26.9124 57.3720 40.3903 0.0000 0.0000 0.0000
# 3 41.1956 40.3903 121.6115 0.0000 0.0000 0.0000
# 4 0.0000 0.0000 0.0000 22.2171 0.0000 0.0000
# 5 0.0000 0.0000 0.0000 0.0000 19.9505 0.0000
# 6 0.0000 0.0000 0.0000 0.0000 0.0000 15.9920
#
#
#
# Elastic Compliance Matrix: (Units=1/GPa)
#
#
# Indices 1 2 3 4 5 6 
#
# 1 0.027097 -0.008156 -0.006470 0.000000 0.000000 0.000000
# 2 -0.008156 0.025204 -0.005608 0.000000 0.000000 0.000000
# 3 -0.006470 -0.005608 0.012277 0.000000 0.000000 0.000000
# 4 0.000000 0.000000 0.000000 0.045010 0.000000 0.000000
# 5 0.000000 0.000000 0.000000 0.000000 0.050124 0.000000
# 6 0.000000 0.000000 0.000000 0.000000 0.000000 0.062531
#
#
# Mechanical properties :
#
#
# Convention : Reuss Voigt Hill
#
# Bulk Modulus (GPa) = 41.47655 50.09127 45.78391
# Shear Modulus (GPa) = 18.46727 19.98701 19.22714
#
# Velocity S-wave (km/s) = 3.31268 3.44629 3.38015
# Velocity P-wave (km/s) = 6.26726 6.75291 6.51461
#
# Compressibility (1/GPa) = 0.02411001
#
# Stress axis : x y z
#
# Youngs Moduli (GPa) = 36.90437 39.67622 81.45079
#
# Poissons Ratio (x) = 0.32359 0.52702
# Poissons Ratio (y) = 0.30098 0.45679
# Poissons Ratio (z) = 0.23878 0.22251
#
# Static dielectric constant tensor:
#      x y z
#    x 1.573170 0.000000 0.000000 
#    y 0.000000 1.560420 0.000000 
#    z 0.000000 0.000000 1.595980 
# 
# From -- ./inp_files/55126.got.cif
#   From: 2010.05.17/outbox.cif.g08.bks.cpg/sg65_28_cif.got.tgz:55126.got - 2010.06.03 17:01:31.
