data_PCOD9484370
_publ_section_title
;
Structure prediction by ZEFSAII (Michael W. Deem and Ramdas Pophale) SiO2 
 PCOD9484370
Probable space group: C M M M
;
_chemical_formula_sum "Si O2"
_cell_formula_units_Z 88
_cell_length_a 11.275389
_cell_length_b 15.046866
_cell_length_c 24.150601
_cell_angle_alpha 90.000000
_cell_angle_beta 90.000000
_cell_angle_gamma 90.000000
_cell_volume 4097.373272
_symmetry_space_group_name_H-M "C M M M"
_symmetry_group_IT_number 65
_symmetry_cell_setting 'orthorhombic'
loop_
_space_group_symop_operation_xyz
x,y,z
-x,-y,z
x,-y,-z
-x,y,-z
-x,-y,-z
x,y,-z
-x,y,z
x,-y,z
1/2+x,1/2+y,z
1/2-x,1/2-y,z
1/2+x,1/2-y,-z
1/2-x,1/2+y,-z
1/2-x,1/2-y,-z
1/2+x,1/2+y,-z
1/2-x,1/2+y,z
1/2+x,1/2-y,z
loop_
_atom_site_type_symbol
_atom_site_label
_atom_site_fract_x
_atom_site_fract_y
_atom_site_fract_z
Si Si1 0.500000 0.652911 0.887547
Si Si2 0.133799 0.188433 0.439795
Si Si3 0.000000 0.353243 0.065453
Si Si4 0.297216 0.604833 0.324637
Si Si5 0.000000 0.895284 0.765077
Si Si6 0.241929 0.644462 0.880841
Si Si7 0.366513 0.892146 0.764232
O O1 0.500000 0.748892 0.916834
O O2 0.500000 0.661695 0.820589
O O3 0.371425 0.608806 0.898579
O O4 0.135584 0.139881 0.500000
O O5 0.250000 0.250000 0.441563
O O6 0.154374 0.137439 0.382789
O O7 0.000000 0.229102 0.436877
O O8 0.123149 0.390927 0.089837
O O9 0.000000 0.361625 0.000000
O O10 0.280627 0.500000 0.331680
O O11 0.390391 0.619309 0.275525
O O12 0.177999 0.641944 0.295753
O O13 0.000000 0.000000 0.782115
O O14 0.250000 0.750000 0.891983
O O15 0.216601 0.632830 0.815649
O O16 0.500000 0.862178 0.775538
O O17 0.366158 0.000000 0.762465
#
# Coordination Sequence:
#
# PCOD9484370 Si02
#       7
#     8  16   8  16   8  16  16
#     4  10  20  32  54  85 114 146 180 232 293 342
#     4  10  22  40  59  83 117 159 201 243 292 345
#     4  10  22  40  57  75 111 157 197 239 280 339
#     4  10  20  35  57  85 115 150 192 242 293 344
#     4  10  18  32  53  81 115 143 175 227 296 349
#     4  10  20  34  54  83 112 146 190 234 281 344
#     4  10  20  35  56  83 118 153 188 233 288 349
#
# _framework density 21.477174000000002
#
# number of rings (size 3 to 8) (size 9 to 14) (size 15 to 20)
#    0.000    2.000    3.636    0.000    0.000    5.091 
#    0.000    0.909    0.000    1.364    0.000   10.182 
#    0.000    0.000    0.000    0.000    0.000    0.000 
#
# Total GULP energy -245178.532264 kJ/mol
# GULP energy per Si atom -5572.239370 kJ/mol
# Density = 2.142829 g / cm^3
# Si number density = 21.477174 Si / 1000 Ang^3
#
#
#
# Elastic Constant Matrix: (Units=GPa)
#
#
# Indices 1 2 3 4 5 6 
#
# 1 197.6705 18.5457 48.8510 0.0000 0.0000 0.0000
# 2 18.5457 27.2326 15.1164 0.0000 0.0000 0.0000
# 3 48.8510 15.1164 133.7668 0.0000 0.0000 0.0000
# 4 0.0000 0.0000 0.0000 18.1371 0.0000 0.0000
# 5 0.0000 0.0000 0.0000 0.0000 20.3103 0.0000
# 6 0.0000 0.0000 0.0000 0.0000 0.0000 10.3045
#
#
#
# Elastic Compliance Matrix: (Units=1/GPa)
#
#
# Indices 1 2 3 4 5 6 
#
# 1 0.005774 -0.002947 -0.001776 0.000000 0.000000 0.000000
# 2 -0.002947 0.040682 -0.003521 0.000000 0.000000 0.000000
# 3 -0.001776 -0.003521 0.008522 0.000000 0.000000 0.000000
# 4 0.000000 0.000000 0.000000 0.055136 0.000000 0.000000
# 5 0.000000 0.000000 0.000000 0.000000 0.049236 0.000000
# 6 0.000000 0.000000 0.000000 0.000000 0.000000 0.097045
#
#
# Mechanical properties :
#
#
# Convention : Reuss Voigt Hill
#
# Bulk Modulus (GPa) = 25.97998 58.18847 42.08423
# Shear Modulus (GPa) = 17.50010 28.16082 22.83046
#
# Velocity S-wave (km/s) = 2.85761 3.62497 3.26392
# Velocity P-wave (km/s) = 4.79695 6.68375 5.81736
#
# Compressibility (1/GPa) = 0.03849117
#
# Stress axis : x y z
#
# Youngs Moduli (GPa) = 173.18344 24.58091 117.34196
#
# Poissons Ratio (x) = 0.07243 0.20837
# Poissons Ratio (y) = 0.51031 0.41318
# Poissons Ratio (z) = 0.30753 0.08655
#
# Static dielectric constant tensor:
#      x y z
#    x 1.877230 0.000000 0.000000 
#    y 0.000000 1.813470 0.000000 
#    z 0.000000 0.000000 1.754490 
# 
# From -- ./inp_files/51496.got.cif
#   From: 2010.05.17/outbox.cif.g08.bks.cpg/sg65_26_cif.got.tgz:51496.got - 2010.06.03 17:01:31.
