data_PCOD9484355
_publ_section_title
;
Structure prediction by ZEFSAII (Michael W. Deem and Ramdas Pophale) SiO2 
 PCOD9484355
Probable space group: C M M M
;
_chemical_formula_sum "Si O2"
_cell_formula_units_Z 96
_cell_length_a 22.922912
_cell_length_b 11.291897
_cell_length_c 20.648031
_cell_angle_alpha 90.000000
_cell_angle_beta 90.000000
_cell_angle_gamma 90.000000
_cell_volume 5344.601618
_symmetry_space_group_name_H-M "C M M M"
_symmetry_group_IT_number 65
_symmetry_cell_setting 'orthorhombic'
loop_
_space_group_symop_operation_xyz
x,y,z
-x,-y,z
x,-y,-z
-x,y,-z
-x,-y,-z
x,y,-z
-x,y,z
x,-y,z
1/2+x,1/2+y,z
1/2-x,1/2-y,z
1/2+x,1/2-y,-z
1/2-x,1/2+y,-z
1/2-x,1/2-y,-z
1/2+x,1/2+y,-z
1/2-x,1/2+y,z
1/2+x,1/2-y,z
loop_
_atom_site_type_symbol
_atom_site_label
_atom_site_fract_x
_atom_site_fract_y
_atom_site_fract_z
Si Si1 0.793713 0.500000 0.428172
Si Si2 0.432970 0.500000 0.272455
Si Si3 0.333068 0.864113 0.256602
Si Si4 0.066843 0.236601 0.185380
Si Si5 0.250000 0.250000 0.155674
Si Si6 0.144310 0.858417 0.075767
Si Si7 0.681620 0.244658 0.394138
Si Si8 0.163975 0.000000 0.615175
O O1 0.766764 0.500000 0.500000
O O2 0.833583 0.383645 0.421724
O O3 0.736165 0.500000 0.380055
O O4 0.500000 0.500000 0.300400
O O5 0.428369 0.383916 0.227679
O O6 0.379139 0.500000 0.322811
O O7 0.393198 0.832183 0.221216
O O8 0.283411 0.839476 0.203543
O O9 0.324627 0.774841 0.316887
O O10 0.331821 0.000000 0.278486
O O11 0.093080 0.205481 0.115394
O O12 0.000000 0.272074 0.181912
O O13 0.203203 0.183200 0.111429
O O14 0.138012 0.000000 0.081696
O O15 0.145256 0.828105 0.000000
O O16 0.750000 0.250000 0.411123
O O17 0.653635 0.369077 0.414782
#
# Coordination Sequence:
#
# PCOD9484355 Si02
#       8
#     8   8  16  16   8  16  16   8
#     4  10  22  36  52  77 114 151 180 211 251 313
#     4  10  18  32  53  77 104 132 169 217 276 318
#     4  11  20  32  53  79 105 139 176 214 270 326
#     4  10  21  35  52  75 105 136 172 225 276 319
#     4  10  21  32  50  74 107 138 168 222 274 322
#     4  10  20  33  50  73 101 136 179 220 266 326
#     4  10  19  31  50  77 111 141 173 210 259 315
#     4  10  20  32  54  78 110 141 173 217 262 323
#
# _framework density 17.962050000000001
#
# number of rings (size 3 to 8) (size 9 to 14) (size 15 to 20)
#    0.000    1.833    4.167    0.750    0.000    3.667 
#    0.000    0.833    0.000    4.750    0.000    4.667 
#    0.000    3.333    0.000    0.000    0.000    0.000 
#
# Total GULP energy -267346.628861 kJ/mol
# GULP energy per Si atom -5569.721435 kJ/mol
# Density = 1.792117 g / cm^3
# Si number density = 17.962050 Si / 1000 Ang^3
#
#
#
# Elastic Constant Matrix: (Units=GPa)
#
#
# Indices 1 2 3 4 5 6 
#
# 1 80.5615 11.8378 29.4732 0.0000 0.0000 0.0000
# 2 11.8378 111.2431 11.1667 0.0000 0.0000 0.0000
# 3 29.4732 11.1667 76.5415 0.0000 0.0000 0.0000
# 4 0.0000 0.0000 0.0000 -22.9376 0.0000 0.0000
# 5 0.0000 0.0000 0.0000 0.0000 8.3791 0.0000
# 6 0.0000 0.0000 0.0000 0.0000 0.0000 10.6491
#
#
#
# Elastic Compliance Matrix: (Units=1/GPa)
#
#
# Indices 1 2 3 4 5 6 
#
# 1 0.014557 -0.001001 -0.005459 0.000000 0.000000 0.000000
# 2 -0.001001 0.009192 -0.000956 0.000000 0.000000 0.000000
# 3 -0.005459 -0.000956 0.015306 0.000000 0.000000 0.000000
# 4 0.000000 0.000000 0.000000 -0.043596 0.000000 0.000000
# 5 0.000000 0.000000 0.000000 0.000000 0.119344 0.000000
# 6 0.000000 0.000000 0.000000 0.000000 0.000000 0.093904
#
#
# Mechanical properties :
#
#
# Convention : Reuss Voigt Hill
#
# Bulk Modulus (GPa) = 41.28227 41.47794 41.38011
# Shear Modulus (GPa) = 21.58763 13.60936 17.59849
#
# Velocity S-wave (km/s) = 3.47053 2.75557 3.13351
# Velocity P-wave (km/s) = 6.25239 5.76770 6.01493
#
# Compressibility (1/GPa) = 0.02422347
#
# Stress axis : x y z
#
# Youngs Moduli (GPa) = 68.69419 108.79305 65.33210
#
# Poissons Ratio (x) = 0.10891 0.35667
# Poissons Ratio (y) = 0.06877 0.06243
# Poissons Ratio (z) = 0.37503 0.10395
#
# Static dielectric constant tensor:
#      x y z
#    x 1.588490 0.000000 0.000000 
#    y 0.000000 1.681720 0.000000 
#    z 0.000000 0.000000 1.622770 
# 
# From -- ./inp_files/64625.got.cif
#   From: 2010.05.17/outbox.cif.g08.bks.cpg/sg65_33_cif.got.tgz:64625.got - 2010.06.03 17:01:31.
