data_PCOD9484914
_publ_section_title
;
Structure prediction by ZEFSAII (Michael W. Deem and Ramdas Pophale) SiO2 
 PCOD9484914
Probable space group: C M M M
;
_chemical_formula_sum "Si O2"
_cell_formula_units_Z 72
_cell_length_a 31.983749
_cell_length_b 18.913008
_cell_length_c 9.009628
_cell_angle_alpha 90.000000
_cell_angle_beta 90.000000
_cell_angle_gamma 90.000000
_cell_volume 5450.004169
_symmetry_space_group_name_H-M "C M M M"
_symmetry_group_IT_number 65
_symmetry_cell_setting 'orthorhombic'
loop_
_space_group_symop_operation_xyz
x,y,z
-x,-y,z
x,-y,-z
-x,y,-z
-x,-y,-z
x,y,-z
-x,y,z
x,-y,z
1/2+x,1/2+y,z
1/2-x,1/2-y,z
1/2+x,1/2-y,-z
1/2-x,1/2+y,-z
1/2-x,1/2-y,-z
1/2+x,1/2+y,-z
1/2-x,1/2+y,z
1/2+x,1/2-y,z
loop_
_atom_site_type_symbol
_atom_site_label
_atom_site_fract_x
_atom_site_fract_y
_atom_site_fract_z
Si Si1 0.247724 0.081997 0.178735
Si Si2 0.167157 0.155198 0.323347
Si Si3 0.796206 0.285689 0.170468
Si Si4 0.086863 0.084596 0.176487
Si Si5 0.500000 0.414175 0.328974
O O1 0.205982 0.109680 0.258645
O O2 0.286010 0.134269 0.218189
O O3 0.255167 0.000000 0.211651
O O4 0.241538 0.089494 0.000000
O O5 0.166469 0.150234 0.500000
O O6 0.175573 0.235720 0.271134
O O7 0.124877 0.124814 0.253662
O O8 0.750000 0.250000 0.170875
O O9 0.811279 0.284409 0.000000
O O10 0.042359 0.106841 0.245183
O O11 0.091831 0.000000 0.201711
O O12 0.087337 0.096178 0.000000
O O13 0.500000 0.500000 0.329081
O O14 0.500000 0.390687 0.500000
#
# Coordination Sequence:
#
# PCOD9484914 Si02
#       5
#    16  16  16  16   8
#     4   9  17  29  43  57  74  99 131 164 197 234
#     4  11  20  27  38  57  79 102 130 164 198 229
#     4   8  15  28  42  54  72  99 128 158 194 234
#     4  10  19  30  43  57  75 102 134 163 192 229
#     4   9  17  29  43  59  79  99 122 157 198 233
#
# _framework density 13.211
#
# number of rings (size 3 to 8) (size 9 to 14) (size 15 to 20)
#    0.000    2.556    0.000    5.000    0.000    9.778 
#    0.000    0.000    0.000    0.000    0.000    0.000 
#    0.000    0.000    0.000    1.000    0.000   20.667 
#
# Total GULP energy -200595.541056 kJ/mol
# GULP energy per Si atom -5572.098363 kJ/mol
# Density = 1.318093 g / cm^3
# Si number density = 13.211000 Si / 1000 Ang^3
#
#
#
# Elastic Constant Matrix: (Units=GPa)
#
#
# Indices 1 2 3 4 5 6 
#
# 1 80.8325 49.0095 58.7418 0.0000 0.0000 0.0000
# 2 49.0095 95.5478 49.0672 0.0000 0.0000 0.0000
# 3 58.7418 49.0672 84.0701 0.0000 0.0000 0.0000
# 4 0.0000 0.0000 0.0000 11.6891 0.0000 0.0000
# 5 0.0000 0.0000 0.0000 0.0000 -108.8015 0.0000
# 6 0.0000 0.0000 0.0000 0.0000 0.0000 19.6548
#
#
#
# Elastic Compliance Matrix: (Units=1/GPa)
#
#
# Indices 1 2 3 4 5 6 
#
# 1 0.027362 -0.006022 -0.015604 0.000000 0.000000 0.000000
# 2 -0.006022 0.016271 -0.005289 0.000000 0.000000 0.000000
# 3 -0.015604 -0.005289 0.025884 0.000000 0.000000 0.000000
# 4 0.000000 0.000000 0.000000 0.085550 0.000000 0.000000
# 5 0.000000 0.000000 0.000000 0.000000 -0.009191 0.000000
# 6 0.000000 0.000000 0.000000 0.000000 0.000000 0.050878
#
#
# Mechanical properties :
#
#
# Convention : Reuss Voigt Hill
#
# Bulk Modulus (GPa) = 63.74201 63.78749 63.76475
# Shear Modulus (GPa) = 19.54565 -8.58275 5.48145
#
# Velocity S-wave (km/s) = 3.85060 -2.55162 2.03916
# Velocity P-wave (km/s) = 8.25369 6.30138 7.34271
#
# Compressibility (1/GPa) = 0.01568824
#
# Stress axis : x y z
#
# Youngs Moduli (GPa) = 36.54763 61.46032 38.63326
#
# Poissons Ratio (x) = 0.37008 0.60282
# Poissons Ratio (y) = 0.22007 0.20433
# Poissons Ratio (z) = 0.57028 0.32506
#
# Static dielectric constant tensor:
#      x y z
#    x 1.406590 0.000000 0.000000 
#    y 0.000000 1.448150 0.000000 
#    z 0.000000 0.000000 1.438260 
# 
# From -- ./inp_files/9516.got.cif
#   From: 2010.05.17/outbox.cif.g08.bks.cpg/sg65_5_cif.got.tgz:9516.got - 2010.06.03 17:01:31.
