data_PCOD9484751
_publ_section_title
;
Structure prediction by ZEFSAII (Michael W. Deem and Ramdas Pophale) SiO2 
 PCOD9484751
Probable space group: C M M M
;
_chemical_formula_sum "Si O2"
_cell_formula_units_Z 64
_cell_length_a 7.347038
_cell_length_b 14.642481
_cell_length_c 24.627726
_cell_angle_alpha 90.000000
_cell_angle_beta 90.000000
_cell_angle_gamma 90.000000
_cell_volume 2649.422794
_symmetry_space_group_name_H-M "C M M M"
_symmetry_group_IT_number 65
_symmetry_cell_setting 'orthorhombic'
loop_
_space_group_symop_operation_xyz
x,y,z
-x,-y,z
x,-y,-z
-x,y,-z
-x,-y,-z
x,y,-z
-x,y,z
x,-y,z
1/2+x,1/2+y,z
1/2-x,1/2-y,z
1/2+x,1/2-y,-z
1/2-x,1/2+y,-z
1/2-x,1/2-y,-z
1/2+x,1/2+y,-z
1/2-x,1/2+y,z
1/2+x,1/2-y,z
loop_
_atom_site_type_symbol
_atom_site_label
_atom_site_fract_x
_atom_site_fract_y
_atom_site_fract_z
Si Si1 0.222398 0.393393 0.733404
Si Si2 0.294424 0.891768 0.381622
Si Si3 0.000000 0.888214 0.061766
Si Si4 0.215854 0.356358 0.500000
Si Si5 0.208937 0.611890 0.851100
O O1 0.276124 0.500000 0.734902
O O2 0.286210 0.355533 0.675074
O O3 0.278972 0.355748 0.791927
O O4 0.000000 0.390429 0.732409
O O5 0.500000 0.852485 0.386643
O O6 0.209218 0.884749 0.441220
O O7 0.310439 0.000000 0.372613
O O8 0.171949 0.860038 0.097962
O O9 0.000000 0.000000 0.059918
O O10 0.000000 0.855473 0.000000
O O11 0.250000 0.250000 0.500000
O O12 0.000000 0.383112 0.500000
O O13 0.212574 0.500000 0.849311
O O14 0.000000 0.639273 0.857114
#
# Coordination Sequence:
#
# PCOD9484751 Si02
#       5
#    16  16   8   8  16
#     4   7  10  18  34  54  71  86 114 167 219 245
#     4   8  13  23  42  65  80  97 140 191 220 244
#     4   9  16  22  28  42  66  97 133 165 191 238
#     4  10  19  29  43  61  85 116 140 168 210 268
#     4   8  13  21  32  45  64  91 122 163 210 244
#
# _framework density 24.156205
#
# number of rings (size 3 to 8) (size 9 to 14) (size 15 to 20)
#    0.000    3.875    0.000    3.375    0.000    2.000 
#    0.000    2.500    2.750    1.500    0.000    0.000 
#    0.000    0.000    0.000    0.000    0.000    1.250 
#
# Total GULP energy -178296.565592 kJ/mol
# GULP energy per Si atom -5571.767675 kJ/mol
# Density = 2.410122 g / cm^3
# Si number density = 24.156205 Si / 1000 Ang^3
#
#
#
# Elastic Constant Matrix: (Units=GPa)
#
#
# Indices 1 2 3 4 5 6 
#
# 1 108.6893 -6.2960 78.4038 0.0000 0.0000 0.0000
# 2 -6.2960 58.2161 7.0169 0.0000 0.0000 0.0000
# 3 78.4038 7.0169 349.6400 0.0000 0.0000 0.0000
# 4 0.0000 0.0000 0.0000 -58.2765 0.0000 0.0000
# 5 0.0000 0.0000 0.0000 0.0000 68.5052 0.0000
# 6 0.0000 0.0000 0.0000 0.0000 0.0000 -0.6871
#
#
#
# Elastic Compliance Matrix: (Units=1/GPa)
#
#
# Indices 1 2 3 4 5 6 
#
# 1 0.011106 0.001505 -0.002521 0.000000 0.000000 0.000000
# 2 0.001505 0.017423 -0.000687 0.000000 0.000000 0.000000
# 3 -0.002521 -0.000687 0.003439 0.000000 0.000000 0.000000
# 4 0.000000 0.000000 0.000000 -0.017160 0.000000 0.000000
# 5 0.000000 0.000000 0.000000 0.000000 0.014597 0.000000
# 6 0.000000 0.000000 0.000000 0.000000 0.000000 -1.455290
#
#
# Mechanical properties :
#
#
# Convention : Reuss Voigt Hill
#
# Bulk Modulus (GPa) = 35.01110 74.97720 54.99415
# Shear Modulus (GPa) = -3.53868 31.06967 13.76550
#
# Velocity S-wave (km/s) = -1.21165 3.59025 2.38975
# Velocity P-wave (km/s) = 3.54509 6.94927 5.51634
#
# Compressibility (1/GPa) = 0.02856237
#
# Stress axis : x y z
#
# Youngs Moduli (GPa) = 90.04152 57.39553 290.77349
#
# Poissons Ratio (x) = -0.08637 0.73293
# Poissons Ratio (y) = -0.13550 0.19980
# Poissons Ratio (z) = 0.22696 0.03944
#
# Static dielectric constant tensor:
#      x y z
#    x 0.930050 0.000000 0.000000 
#    y 0.000000 1.908330 0.000000 
#    z 0.000000 0.000000 1.989160 
# 
# From -- ./inp_files/67200.got.cif
#   From: 2010.05.17/outbox.cif.g08.bks.cpg/sg65_34_cif.got.tgz:67200.got - 2010.06.03 17:01:31.
