data_PCOD9484313
_publ_section_title
;
Structure prediction by ZEFSAII (Michael W. Deem and Ramdas Pophale) SiO2 
 PCOD9484313
Probable space group: C M M M
;
_chemical_formula_sum "Si O2"
_cell_formula_units_Z 64
_cell_length_a 8.625569
_cell_length_b 28.905046
_cell_length_c 15.935616
_cell_angle_alpha 90.000000
_cell_angle_beta 90.000000
_cell_angle_gamma 90.000000
_cell_volume 3973.107122
_symmetry_space_group_name_H-M "C M M M"
_symmetry_group_IT_number 65
_symmetry_cell_setting 'orthorhombic'
loop_
_space_group_symop_operation_xyz
x,y,z
-x,-y,z
x,-y,-z
-x,y,-z
-x,-y,-z
x,y,-z
-x,y,z
x,-y,z
1/2+x,1/2+y,z
1/2-x,1/2-y,z
1/2+x,1/2-y,-z
1/2-x,1/2+y,-z
1/2-x,1/2-y,-z
1/2+x,1/2+y,-z
1/2-x,1/2+y,z
1/2+x,1/2-y,z
loop_
_atom_site_type_symbol
_atom_site_label
_atom_site_fract_x
_atom_site_fract_y
_atom_site_fract_z
Si Si1 0.314750 0.697654 0.324558
Si Si2 0.685875 0.301997 0.000000
Si Si3 0.186043 0.946980 0.900853
Si Si4 0.185419 0.697500 0.500000
Si Si5 0.184207 0.645705 0.163465
O O1 0.500000 0.699924 0.328392
O O2 0.250000 0.750000 0.314237
O O3 0.249041 0.677920 0.412504
O O4 0.258800 0.667525 0.246375
O O5 0.750000 0.250000 0.000000
O O6 0.746882 0.328058 0.082478
O O7 0.500000 0.301975 0.000000
O O8 0.271953 0.907950 0.848470
O O9 0.000000 0.941314 0.892112
O O10 0.224823 0.000000 0.878852
O O11 0.221660 0.940642 0.000000
O O12 0.250000 0.750000 0.500000
O O13 0.000000 0.697916 0.500000
O O14 0.000000 0.651939 0.165548
#
# Coordination Sequence:
#
# PCOD9484313 Si02
#       5
#    16   8  16   8  16
#     4  11  21  35  53  75 104 139 175 213 256 305
#     4  12  24  38  51  68  99 138 176 211 251 301
#     4   9  18  34  55  76 100 132 170 213 260 306
#     4  10  18  32  52  76 103 132 169 214 258 302
#     4  12  23  35  51  76 104 135 173 213 256 304
#
# _framework density 16.108298999999999
#
# number of rings (size 3 to 8) (size 9 to 14) (size 15 to 20)
#    0.000    1.250    1.250    9.750    0.000    0.500 
#    0.000    1.250    0.000    0.000    0.000    0.875 
#    0.000    7.000    0.000    0.000    0.000    0.000 
#
# Total GULP energy -178783.283553 kJ/mol
# GULP energy per Si atom -5586.977611 kJ/mol
# Density = 1.607164 g / cm^3
# Si number density = 16.108299 Si / 1000 Ang^3
#
#
#
# Elastic Constant Matrix: (Units=GPa)
#
#
# Indices 1 2 3 4 5 6 
#
# 1 162.4421 49.7966 69.6700 0.0000 0.0000 0.0000
# 2 49.7966 85.9906 56.8822 0.0000 0.0000 0.0000
# 3 69.6700 56.8822 149.5748 0.0000 0.0000 0.0000
# 4 0.0000 0.0000 0.0000 2.7676 0.0000 0.0000
# 5 0.0000 0.0000 0.0000 0.0000 26.7081 0.0000
# 6 0.0000 0.0000 0.0000 0.0000 0.0000 27.6216
#
#
#
# Elastic Compliance Matrix: (Units=1/GPa)
#
#
# Indices 1 2 3 4 5 6 
#
# 1 0.008227 -0.002979 -0.002699 0.000000 0.000000 0.000000
# 2 -0.002979 0.016616 -0.004932 0.000000 0.000000 0.000000
# 3 -0.002699 -0.004932 0.009818 0.000000 0.000000 0.000000
# 4 0.000000 0.000000 0.000000 0.361330 0.000000 0.000000
# 5 0.000000 0.000000 0.000000 0.000000 0.037442 0.000000
# 6 0.000000 0.000000 0.000000 0.000000 0.000000 0.036204
#
#
# Mechanical properties :
#
#
# Convention : Reuss Voigt Hill
#
# Bulk Modulus (GPa) = 74.39067 83.41169 78.90118
# Shear Modulus (GPa) = 10.09414 26.19669 18.14542
#
# Velocity S-wave (km/s) = 2.50600 4.03710 3.35992
# Velocity P-wave (km/s) = 7.39292 8.58051 8.00875
#
# Compressibility (1/GPa) = 0.01344255
#
# Stress axis : x y z
#
# Youngs Moduli (GPa) = 121.55410 60.18176 101.85012
#
# Poissons Ratio (x) = 0.17926 0.27491
# Poissons Ratio (y) = 0.36206 0.50229
# Poissons Ratio (z) = 0.32810 0.29680
#
# Static dielectric constant tensor:
#      x y z
#    x 1.538860 0.000000 0.000000 
#    y 0.000000 1.544730 0.000000 
#    z 0.000000 0.000000 1.543150 
# 
# From -- ./inp_files/36364.got.cif
#   From: 2010.05.17/outbox.cif.g08.bks.cpg/sg65_19_cif.got.tgz:36364.got - 2010.06.03 17:01:31.
