data_PCOD9484932
_publ_section_title
;
Structure prediction by ZEFSAII (Michael W. Deem and Ramdas Pophale) SiO2 
 PCOD9484932
Probable space group: C M M M
;
_chemical_formula_sum "Si O2"
_cell_formula_units_Z 80
_cell_length_a 25.507026
_cell_length_b 24.420612
_cell_length_c 7.496020
_cell_angle_alpha 90.000000
_cell_angle_beta 90.000000
_cell_angle_gamma 90.000000
_cell_volume 4669.249758
_symmetry_space_group_name_H-M "C M M M"
_symmetry_group_IT_number 65
_symmetry_cell_setting 'orthorhombic'
loop_
_space_group_symop_operation_xyz
x,y,z
-x,-y,z
x,-y,-z
-x,y,-z
-x,-y,-z
x,y,-z
-x,y,z
x,-y,z
1/2+x,1/2+y,z
1/2-x,1/2-y,z
1/2+x,1/2-y,-z
1/2-x,1/2+y,-z
1/2-x,1/2-y,-z
1/2+x,1/2+y,-z
1/2-x,1/2+y,z
1/2+x,1/2-y,z
loop_
_atom_site_type_symbol
_atom_site_label
_atom_site_fract_x
_atom_site_fract_y
_atom_site_fract_z
Si Si1 0.669302 0.275155 0.217792
Si Si2 0.557744 0.751870 0.789330
Si Si3 0.665805 0.939044 0.210403
Si Si4 0.058347 0.380302 0.286326
Si Si5 0.229611 0.335666 0.782237
O O1 0.609606 0.277610 0.282412
O O2 0.711111 0.321141 0.272848
O O3 0.694014 0.216446 0.269873
O O4 0.668267 0.275439 0.000000
O O5 0.500000 0.739716 0.712999
O O6 0.566292 0.817324 0.771725
O O7 0.555492 0.739896 0.000000
O O8 0.606278 0.917576 0.226401
O O9 0.703890 0.891702 0.283439
O O10 0.671311 0.000000 0.286287
O O11 0.677300 0.942377 0.000000
O O12 0.058248 0.380775 0.500000
O O13 0.000000 0.397249 0.224505
O O14 0.228905 0.336467 0.000000
#
# Coordination Sequence:
#
# PCOD9484932 Si02
#       5
#    16  16  16  16  16
#     4   8  12  20  38  59  78  98 119 151 192 232
#     4   9  15  24  41  62  80  99 128 163 192 219
#     4  10  19  30  44  59  74  95 130 171 198 219
#     4  10  20  31  41  54  76 106 134 159 192 231
#     4   8  13  22  37  58  78  96 121 152 194 234
#
# _framework density 17.133374
#
# number of rings (size 3 to 8) (size 9 to 14) (size 15 to 20)
#    0.000    3.000    2.000    1.800    0.000    2.000 
#    0.000    2.000    0.000    2.400    0.000    0.000 
#    0.000    0.800    0.000   11.200    0.000    0.000 
#
# Total GULP energy -222891.887252 kJ/mol
# GULP energy per Si atom -5572.297181 kJ/mol
# Density = 1.709438 g / cm^3
# Si number density = 17.133374 Si / 1000 Ang^3
#
#
#
# Elastic Constant Matrix: (Units=GPa)
#
#
# Indices 1 2 3 4 5 6 
#
# 1 170.8462 85.7471 2.6591 0.0000 0.0000 0.0000
# 2 85.7471 86.7756 0.2806 0.0000 0.0000 0.0000
# 3 2.6591 0.2806 47.4311 0.0000 0.0000 0.0000
# 4 0.0000 0.0000 0.0000 -27.2027 0.0000 0.0000
# 5 0.0000 0.0000 0.0000 0.0000 -21.2579 0.0000
# 6 0.0000 0.0000 0.0000 0.0000 0.0000 18.3280
#
#
#
# Elastic Compliance Matrix: (Units=1/GPa)
#
#
# Indices 1 2 3 4 5 6 
#
# 1 0.011628 -0.011489 -0.000584 0.000000 0.000000 0.000000
# 2 -0.011489 0.022875 0.000509 0.000000 0.000000 0.000000
# 3 -0.000584 0.000509 0.021113 0.000000 0.000000 0.000000
# 4 0.000000 0.000000 0.000000 -0.036761 0.000000 0.000000
# 5 0.000000 0.000000 0.000000 0.000000 -0.047041 0.000000
# 6 0.000000 0.000000 0.000000 0.000000 0.000000 0.054561
#
#
# Mechanical properties :
#
#
# Convention : Reuss Voigt Hill
#
# Bulk Modulus (GPa) = 30.78016 53.60293 42.19155
# Shear Modulus (GPa) = 82.87382 8.39788 45.63585
#
# Velocity S-wave (km/s) = 6.96239 2.21633 5.16657
# Velocity P-wave (km/s) = 9.09050 6.15655 7.76338
#
# Compressibility (1/GPa) = 0.03248846
#
# Stress axis : x y z
#
# Youngs Moduli (GPa) = 85.99575 43.71596 47.36432
#
# Poissons Ratio (x) = 0.50224 0.02766
# Poissons Ratio (y) = 0.98799 -0.02410
# Poissons Ratio (z) = 0.05022 -0.02224
#
# Static dielectric constant tensor:
#      x y z
#    x 1.622180 0.000000 0.000000 
#    y 0.000000 1.556080 0.000000 
#    z 0.000000 0.000000 1.641910 
# 
# From -- ./inp_files/9655.got.cif
#   From: 2010.05.17/outbox.cif.g08.bks.cpg/sg65_5_cif.got.tgz:9655.got - 2010.06.03 17:01:31.
