data_PCOD9484164
_publ_section_title
;
Structure prediction by ZEFSAII (Michael W. Deem and Ramdas Pophale) SiO2 
 PCOD9484164
Probable space group: C M M M
;
_chemical_formula_sum "Si O2"
_cell_formula_units_Z 88
_cell_length_a 13.966641
_cell_length_b 25.148173
_cell_length_c 13.464780
_cell_angle_alpha 90.000000
_cell_angle_beta 90.000000
_cell_angle_gamma 90.000000
_cell_volume 4729.308791
_symmetry_space_group_name_H-M "C M M M"
_symmetry_group_IT_number 65
_symmetry_cell_setting 'orthorhombic'
loop_
_space_group_symop_operation_xyz
x,y,z
-x,-y,z
x,-y,-z
-x,y,-z
-x,-y,-z
x,y,-z
-x,y,z
x,-y,z
1/2+x,1/2+y,z
1/2-x,1/2-y,z
1/2+x,1/2-y,-z
1/2-x,1/2+y,-z
1/2-x,1/2-y,-z
1/2+x,1/2+y,-z
1/2-x,1/2+y,z
1/2+x,1/2-y,z
loop_
_atom_site_type_symbol
_atom_site_label
_atom_site_fract_x
_atom_site_fract_y
_atom_site_fract_z
Si Si1 0.884638 0.621667 0.201430
Si Si2 0.388044 0.439071 0.726261
Si Si3 0.116314 0.730852 0.114161
Si Si4 0.616791 0.060985 0.000000
Si Si5 0.883451 0.851268 0.112714
Si Si6 0.796671 0.562462 0.611800
O O1 0.854745 0.682799 0.184899
O O2 0.854581 0.590237 0.101534
O O3 0.846458 0.595283 0.301204
O O4 0.000000 0.619818 0.204307
O O5 0.500000 0.430897 0.702427
O O6 0.378031 0.500000 0.763729
O O7 0.357232 0.396239 0.808704
O O8 0.316895 0.433812 0.633809
O O9 0.146324 0.790930 0.138865
O O10 0.000000 0.730949 0.113818
O O11 0.145062 0.719499 0.000000
O O12 0.500000 0.061239 0.000000
O O13 0.649288 0.000000 0.000000
O O14 0.000000 0.851100 0.110939
O O15 0.851898 0.862666 0.000000
O O16 0.819517 0.579751 0.500000
O O17 0.822754 0.500000 0.621433
#
# Coordination Sequence:
#
# PCOD9484164 Si02
#       6
#    16  16  16   8  16  16
#     4  10  18  31  52  76 106 141 171 205 249 298
#     4   9  18  34  55  76  98 128 168 215 267 312
#     4   8  13  25  47  75 105 138 173 204 240 294
#     4   9  16  26  44  72 102 131 166 206 246 291
#     4   8  14  26  48  77 107 136 165 202 251 309
#     4  10  22  38  53  73 101 132 174 222 259 302
#
# _framework density 18.607371000000001
#
# number of rings (size 3 to 8) (size 9 to 14) (size 15 to 20)
#    0.000    3.000    0.909    1.636    0.000    2.182 
#    1.636    5.455    0.000    4.364    0.000    5.091 
#    0.000    0.000    0.000    0.000    0.000    0.000 
#
# Total GULP energy -245488.747477 kJ/mol
# GULP energy per Si atom -5579.289715 kJ/mol
# Density = 1.856502 g / cm^3
# Si number density = 18.607371 Si / 1000 Ang^3
#
#
#
# Elastic Constant Matrix: (Units=GPa)
#
#
# Indices 1 2 3 4 5 6 
#
# 1 64.8505 23.8318 34.2949 0.0000 0.0000 0.0000
# 2 23.8318 85.4690 67.4707 0.0000 0.0000 0.0000
# 3 34.2949 67.4707 129.2917 0.0000 0.0000 0.0000
# 4 0.0000 0.0000 0.0000 21.7147 0.0000 0.0000
# 5 0.0000 0.0000 0.0000 0.0000 19.6364 0.0000
# 6 0.0000 0.0000 0.0000 0.0000 0.0000 12.5913
#
#
#
# Elastic Compliance Matrix: (Units=1/GPa)
#
#
# Indices 1 2 3 4 5 6 
#
# 1 0.018164 -0.002145 -0.003699 0.000000 0.000000 0.000000
# 2 -0.002145 0.020150 -0.009946 0.000000 0.000000 0.000000
# 3 -0.003699 -0.009946 0.013906 0.000000 0.000000 0.000000
# 4 0.000000 0.000000 0.000000 0.046052 0.000000 0.000000
# 5 0.000000 0.000000 0.000000 0.000000 0.050926 0.000000
# 6 0.000000 0.000000 0.000000 0.000000 0.000000 0.079420
#
#
# Mechanical properties :
#
#
# Convention : Reuss Voigt Hill
#
# Bulk Modulus (GPa) = 48.44895 58.97845 53.71370
# Shear Modulus (GPa) = 18.72113 21.05609 19.88861
#
# Velocity S-wave (km/s) = 3.17537 3.36757 3.27288
# Velocity P-wave (km/s) = 6.28793 6.84732 6.57358
#
# Compressibility (1/GPa) = 0.02064028
#
# Stress axis : x y z
#
# Youngs Moduli (GPa) = 55.05284 49.62770 71.91128
#
# Poissons Ratio (x) = 0.10645 0.26598
# Poissons Ratio (y) = 0.11809 0.71525
# Poissons Ratio (z) = 0.20363 0.49361
#
# Static dielectric constant tensor:
#      x y z
#    x 1.717470 0.000000 0.000000 
#    y 0.000000 1.647680 0.000000 
#    z 0.000000 0.000000 1.585600 
# 
# From -- ./inp_files/25130.got.cif
#   From: 2010.05.17/outbox.cif.g08.bks.cpg/sg65_13_cif.got.tgz:25130.got - 2010.06.03 17:01:31.
