data_PCOD9484712
_publ_section_title
;
Structure prediction by ZEFSAII (Michael W. Deem and Ramdas Pophale) SiO2 
 PCOD9484712
Probable space group: C M M M
;
_chemical_formula_sum "Si O2"
_cell_formula_units_Z 56
_cell_length_a 26.250831
_cell_length_b 5.263479
_cell_length_c 25.963451
_cell_angle_alpha 90.000000
_cell_angle_beta 90.000000
_cell_angle_gamma 90.000000
_cell_volume 3587.388139
_symmetry_space_group_name_H-M "C M M M"
_symmetry_group_IT_number 65
_symmetry_cell_setting 'orthorhombic'
loop_
_space_group_symop_operation_xyz
x,y,z
-x,-y,z
x,-y,-z
-x,y,-z
-x,-y,-z
x,y,-z
-x,y,z
x,-y,z
1/2+x,1/2+y,z
1/2-x,1/2-y,z
1/2+x,1/2-y,-z
1/2-x,1/2+y,-z
1/2-x,1/2-y,-z
1/2+x,1/2+y,-z
1/2-x,1/2+y,z
1/2+x,1/2-y,z
loop_
_atom_site_type_symbol
_atom_site_label
_atom_site_fract_x
_atom_site_fract_y
_atom_site_fract_z
Si Si1 0.714816 0.000000 0.000000
Si Si2 0.285538 0.000000 0.610948
Si Si3 0.214856 0.500000 0.724154
Si Si4 0.058529 0.000000 0.076291
Si Si5 0.285909 0.000000 0.500000
Si Si6 0.379201 0.000000 0.201133
Si Si7 0.058046 0.000000 0.201083
Si Si8 0.122280 0.500000 0.923045
O O1 0.750000 0.250000 0.000000
O O2 0.676418 0.000000 0.951318
O O3 0.250000 0.750000 0.610822
O O4 0.311193 0.000000 0.667121
O O5 0.313814 0.000000 0.555557
O O6 0.250000 0.750000 0.727790
O O7 0.173608 0.500000 0.768916
O O8 0.089812 0.251244 0.061950
O O9 0.056102 0.000000 0.138654
O O10 0.000000 0.000000 0.058340
O O11 0.250000 0.750000 0.500000
O O12 0.411372 0.248670 0.215679
O O13 0.371686 0.000000 0.139082
O O14 0.000000 0.000000 0.219823
#
# Coordination Sequence:
#
# PCOD9484712 Si02
#       8
#     4   8   8   8   4   8   8   8
#     4  12  26  42  55  66  89 124 158 192 216 234
#     4   8  14  23  35  52  76 108 143 177 211 248
#     4  10  19  29  41  61  90 120 150 182 214 249
#     4   9  17  33  56  78  98 113 130 170 226 278
#     4   8  12  20  34  50  70 102 143 176 207 250
#     4  10  19  31  49  69  90 117 146 180 218 259
#     4   9  17  30  49  71  92 115 142 174 219 269
#     4  10  21  36  52  72  92 115 151 180 213 266
#
# _framework density 15.610244
#
# number of rings (size 3 to 8) (size 9 to 14) (size 15 to 20)
#    0.000    2.571    0.000    2.571    0.000    4.571 
#    0.000    2.143    0.000    0.000    0.000    0.000 
#    0.000    0.000    0.000    3.857    0.000    1.429 
#
# Total GULP energy -155968.628184 kJ/mol
# GULP energy per Si atom -5570.308149 kJ/mol
# Density = 1.557471 g / cm^3
# Si number density = 15.610244 Si / 1000 Ang^3
#
#
#
# Elastic Constant Matrix: (Units=GPa)
#
#
# Indices 1 2 3 4 5 6 
#
# 1 110.4695 67.0031 46.7909 0.0000 0.0000 0.0000
# 2 67.0031 162.1199 29.2722 0.0000 0.0000 0.0000
# 3 46.7909 29.2722 92.3725 0.0000 0.0000 0.0000
# 4 0.0000 0.0000 0.0000 -26.2463 0.0000 0.0000
# 5 0.0000 0.0000 0.0000 0.0000 -6.4825 0.0000
# 6 0.0000 0.0000 0.0000 0.0000 0.0000 24.6718
#
#
#
# Elastic Compliance Matrix: (Units=1/GPa)
#
#
# Indices 1 2 3 4 5 6 
#
# 1 0.014502 -0.004950 -0.005777 0.000000 0.000000 0.000000
# 2 -0.004950 0.008233 -0.000101 0.000000 0.000000 0.000000
# 3 -0.005777 -0.000101 0.013784 0.000000 0.000000 0.000000
# 4 0.000000 0.000000 0.000000 -0.038101 0.000000 0.000000
# 5 0.000000 0.000000 0.000000 0.000000 -0.154261 0.000000
# 6 0.000000 0.000000 0.000000 0.000000 0.000000 0.040532
#
#
# Mechanical properties :
#
#
# Convention : Reuss Voigt Hill
#
# Bulk Modulus (GPa) = 67.28985 72.34380 69.81683
# Shear Modulus (GPa) = -56.36994 13.18165 -21.59414
#
# Velocity S-wave (km/s) = -6.01575 2.90905 -3.72335
# Velocity P-wave (km/s) = 2.24779 7.59788 5.13202
#
# Compressibility (1/GPa) = 0.01486108
#
# Stress axis : x y z
#
# Youngs Moduli (GPa) = 68.95698 121.46954 72.54699
#
# Poissons Ratio (x) = 0.60132 0.41911
# Poissons Ratio (y) = 0.34136 0.00734
# Poissons Ratio (z) = 0.39837 0.01230
#
# Static dielectric constant tensor:
#      x y z
#    x 1.477720 0.000000 0.000000 
#    y 0.000000 1.522650 0.000000 
#    z 0.000000 0.000000 1.565640 
# 
# From -- ./inp_files/75270.got.cif
#   From: 2010.05.17/outbox.cif.g08.bks.cpg/sg65_38_cif.got.tgz:75270.got - 2010.06.03 17:01:31.
