data_PCOD9484599
_publ_section_title
;
Structure prediction by ZEFSAII (Michael W. Deem and Ramdas Pophale) SiO2 
 PCOD9484599
Probable space group: C M M M
;
_chemical_formula_sum "Si O2"
_cell_formula_units_Z 88
_cell_length_a 24.077592
_cell_length_b 9.123968
_cell_length_c 23.187180
_cell_angle_alpha 90.000000
_cell_angle_beta 90.000000
_cell_angle_gamma 90.000000
_cell_volume 5093.833413
_symmetry_space_group_name_H-M "C M M M"
_symmetry_group_IT_number 65
_symmetry_cell_setting 'orthorhombic'
loop_
_space_group_symop_operation_xyz
x,y,z
-x,-y,z
x,-y,-z
-x,y,-z
-x,-y,-z
x,y,-z
-x,y,z
x,-y,z
1/2+x,1/2+y,z
1/2-x,1/2-y,z
1/2+x,1/2-y,-z
1/2-x,1/2+y,-z
1/2-x,1/2-y,-z
1/2+x,1/2+y,-z
1/2-x,1/2+y,z
1/2+x,1/2-y,z
loop_
_atom_site_type_symbol
_atom_site_label
_atom_site_fract_x
_atom_site_fract_y
_atom_site_fract_z
Si Si1 0.610255 0.169994 0.612326
Si Si2 0.434535 0.675351 0.500000
Si Si3 0.500000 0.327759 0.195249
Si Si4 0.690429 0.175741 0.935188
Si Si5 0.000000 0.336700 0.310324
Si Si6 0.615152 0.176463 0.173118
Si Si7 0.189898 0.677052 0.715206
O O1 0.596811 0.264053 0.556230
O O2 0.554505 0.172533 0.650883
O O3 0.659515 0.218466 0.655207
O O4 0.620151 0.000000 0.595782
O O5 0.434440 0.500000 0.500000
O O6 0.500000 0.723686 0.500000
O O7 0.500000 0.500000 0.185238
O O8 0.500000 0.288258 0.263046
O O9 0.555867 0.253394 0.172158
O O10 0.750000 0.250000 0.927121
O O11 0.649829 0.217895 0.883597
O O12 0.697284 0.000000 0.932568
O O13 0.670371 0.212844 0.000000
O O14 0.000000 0.500000 0.282187
O O15 0.650009 0.216099 0.230781
O O16 0.608169 0.000000 0.174080
O O17 0.195146 0.500000 0.715726
O O18 0.250000 0.750000 0.720877
#
# Coordination Sequence:
#
# PCOD9484599 Si02
#       7
#    16   8   8  16   8  16  16
#     4  10  20  36  58  80 105 142 184 216 260 328
#     4  11  23  35  52  83 116 139 170 222 279 316
#     4  12  24  34  52  84 114 141 180 228 281 326
#     4   9  18  33  56  84 112 146 187 230 274 321
#     4  10  18  35  59  79 108 144 179 219 269 328
#     4  10  20  37  57  78 111 149 185 221 268 332
#     4  10  21  36  56  81 107 141 181 223 269 319
#
# _framework density 17.275791000000002
#
# number of rings (size 3 to 8) (size 9 to 14) (size 15 to 20)
#    0.000    1.909    2.727    1.636    0.000    3.273 
#    0.000    0.909    0.000    2.727    0.000    0.000 
#    0.000    0.000    0.000    0.000    0.000    0.000 
#
# Total GULP energy -245537.604269 kJ/mol
# GULP energy per Si atom -5580.400097 kJ/mol
# Density = 1.723647 g / cm^3
# Si number density = 17.275791 Si / 1000 Ang^3
#
#
#
# Elastic Constant Matrix: (Units=GPa)
#
#
# Indices 1 2 3 4 5 6 
#
# 1 135.1001 47.2359 80.3608 0.0000 0.0000 0.0000
# 2 47.2359 39.3955 51.4227 0.0000 0.0000 0.0000
# 3 80.3608 51.4227 140.8426 0.0000 0.0000 0.0000
# 4 0.0000 0.0000 0.0000 17.0402 0.0000 0.0000
# 5 0.0000 0.0000 0.0000 0.0000 37.6565 0.0000
# 6 0.0000 0.0000 0.0000 0.0000 0.0000 30.1788
#
#
#
# Elastic Compliance Matrix: (Units=1/GPa)
#
#
# Indices 1 2 3 4 5 6 
#
# 1 0.013565 -0.011773 -0.003442 0.000000 0.000000 0.000000
# 2 -0.011773 0.058712 -0.014719 0.000000 0.000000 0.000000
# 3 -0.003442 -0.014719 0.014438 0.000000 0.000000 0.000000
# 4 0.000000 0.000000 0.000000 0.058685 0.000000 0.000000
# 5 0.000000 0.000000 0.000000 0.000000 0.026556 0.000000
# 6 0.000000 0.000000 0.000000 0.000000 0.000000 0.033136
#
#
# Mechanical properties :
#
#
# Convention : Reuss Voigt Hill
#
# Bulk Modulus (GPa) = 37.24628 74.81968 56.03298
# Shear Modulus (GPa) = 18.25436 26.06301 22.15868
#
# Velocity S-wave (km/s) = 3.25413 3.88834 3.58529
# Velocity P-wave (km/s) = 5.97711 7.97257 7.04584
#
# Compressibility (1/GPa) = 0.02684832
#
# Stress axis : x y z
#
# Youngs Moduli (GPa) = 73.71791 17.03239 69.26220
#
# Poissons Ratio (x) = 0.20051 0.23838
# Poissons Ratio (y) = 0.86785 1.01947
# Poissons Ratio (z) = 0.25371 0.25070
#
# Static dielectric constant tensor:
#      x y z
#    x 1.563010 0.000000 0.000000 
#    y 0.000000 1.580870 0.000000 
#    z 0.000000 0.000000 1.587550 
# 
# From -- ./inp_files/65214.got.cif
#   From: 2010.05.17/outbox.cif.g08.bks.cpg/sg65_33_cif.got.tgz:65214.got - 2010.06.03 17:01:31.
