data_PCOD9484848
_publ_section_title
;
Structure prediction by ZEFSAII (Michael W. Deem and Ramdas Pophale) SiO2 
 PCOD9484848
Probable space group: C M M M
;
_chemical_formula_sum "Si O2"
_cell_formula_units_Z 80
_cell_length_a 26.350109
_cell_length_b 19.091587
_cell_length_c 7.353191
_cell_angle_alpha 90.000000
_cell_angle_beta 90.000000
_cell_angle_gamma 90.000000
_cell_volume 3699.135960
_symmetry_space_group_name_H-M "C M M M"
_symmetry_group_IT_number 65
_symmetry_cell_setting 'orthorhombic'
loop_
_space_group_symop_operation_xyz
x,y,z
-x,-y,z
x,-y,-z
-x,y,-z
-x,-y,-z
x,y,-z
-x,y,z
x,-y,z
1/2+x,1/2+y,z
1/2-x,1/2-y,z
1/2+x,1/2-y,-z
1/2-x,1/2+y,-z
1/2-x,1/2-y,-z
1/2+x,1/2+y,-z
1/2-x,1/2+y,z
1/2+x,1/2-y,z
loop_
_atom_site_type_symbol
_atom_site_label
_atom_site_fract_x
_atom_site_fract_y
_atom_site_fract_z
Si Si1 0.942678 0.579831 0.780984
Si Si2 0.152297 0.828900 0.277545
Si Si3 0.344634 0.829779 0.712760
Si Si4 0.057240 0.919612 0.721363
Si Si5 0.249861 0.080401 0.722181
O O1 0.931273 0.500000 0.720400
O O2 0.899111 0.633288 0.726559
O O3 0.000000 0.597672 0.720456
O O4 0.943379 0.578763 0.000000
O O5 0.151504 0.828293 0.500000
O O6 0.155445 0.748913 0.213219
O O7 0.100829 0.867174 0.218122
O O8 0.200961 0.874509 0.223823
O O9 0.332593 0.821929 0.500000
O O10 0.300896 0.880748 0.785621
O O11 0.057410 0.919152 0.500000
O O12 0.000000 0.901287 0.778610
O O13 0.067786 0.000000 0.775611
O O14 0.250192 0.078675 0.500000
O O15 0.247399 0.000000 0.782299
#
# Coordination Sequence:
#
# PCOD9484848 Si02
#       5
#    16  16  16  16  16
#     4   9  19  36  54  69  89 122 160 190 220 270
#     4   9  16  25  38  59  91 126 153 183 230 280
#     4  10  19  29  45  72 100 120 146 192 242 279
#     4   8  13  21  33  50  76 114 157 192 221 263
#     4   9  16  26  41  61  88 125 164 193 222 271
#
# _framework density 21.626673
#
# number of rings (size 3 to 8) (size 9 to 14) (size 15 to 20)
#    0.000    3.000    0.000    3.000    0.000    7.200 
#    0.000    3.000    0.000    2.400    0.000    0.000 
#    0.000    2.400    0.000   11.000    0.000    8.400 
#
# Total GULP energy -223408.338234 kJ/mol
# GULP energy per Si atom -5585.208456 kJ/mol
# Density = 2.157745 g / cm^3
# Si number density = 21.626673 Si / 1000 Ang^3
#
#
#
# Elastic Constant Matrix: (Units=GPa)
#
#
# Indices 1 2 3 4 5 6 
#
# 1 181.5674 153.1844 -3.4685 0.0000 0.0000 0.0000
# 2 153.1844 228.7639 3.9624 0.0000 0.0000 0.0000
# 3 -3.4685 3.9624 77.6789 0.0000 0.0000 0.0000
# 4 0.0000 0.0000 0.0000 61.7311 0.0000 0.0000
# 5 0.0000 0.0000 0.0000 0.0000 136.2186 0.0000
# 6 0.0000 0.0000 0.0000 0.0000 0.0000 -17.0321
#
#
#
# Elastic Compliance Matrix: (Units=1/GPa)
#
#
# Indices 1 2 3 4 5 6 
#
# 1 0.012737 -0.008547 0.001005 0.000000 0.000000 0.000000
# 2 -0.008547 0.010110 -0.000897 0.000000 0.000000 0.000000
# 3 0.001005 -0.000897 0.012964 0.000000 0.000000 0.000000
# 4 0.000000 0.000000 0.000000 0.016199 0.000000 0.000000
# 5 0.000000 0.000000 0.000000 0.000000 0.007341 0.000000
# 6 0.000000 0.000000 0.000000 0.000000 0.000000 -0.058713
#
#
# Mechanical properties :
#
#
# Convention : Reuss Voigt Hill
#
# Bulk Modulus (GPa) = 52.81805 88.37409 70.59607
# Shear Modulus (GPa) = 209.83494 58.47231 134.15363
#
# Velocity S-wave (km/s) = 9.86086 5.20536 7.88456
# Velocity P-wave (km/s) = 12.41469 8.77952 10.75185
#
# Compressibility (1/GPa) = 0.01893292
#
# Stress axis : x y z
#
# Youngs Moduli (GPa) = 78.50953 98.91416 77.13586
#
# Poissons Ratio (x) = 0.84537 -0.07750
# Poissons Ratio (y) = 0.67098 0.06921
# Poissons Ratio (z) = -0.07888 0.08876
#
# Static dielectric constant tensor:
#      x y z
#    x 1.738860 0.000000 0.000000 
#    y 0.000000 1.736960 0.000000 
#    z 0.000000 0.000000 1.850320 
# 
# From -- ./inp_files/9575.got.cif
#   From: 2010.05.17/outbox.cif.g08.bks.cpg/sg65_5_cif.got.tgz:9575.got - 2010.06.03 17:01:31.
