data_PCOD9484704
_publ_section_title
;
Structure prediction by ZEFSAII (Michael W. Deem and Ramdas Pophale) SiO2 
 PCOD9484704
Probable space group: C M M M
;
_chemical_formula_sum "Si O2"
_cell_formula_units_Z 80
_cell_length_a 18.311756
_cell_length_b 7.271206
_cell_length_c 28.044630
_cell_angle_alpha 90.000000
_cell_angle_beta 90.000000
_cell_angle_gamma 90.000000
_cell_volume 3734.101823
_symmetry_space_group_name_H-M "C M M M"
_symmetry_group_IT_number 65
_symmetry_cell_setting 'orthorhombic'
loop_
_space_group_symop_operation_xyz
x,y,z
-x,-y,z
x,-y,-z
-x,y,-z
-x,-y,-z
x,y,-z
-x,y,z
x,-y,z
1/2+x,1/2+y,z
1/2-x,1/2-y,z
1/2+x,1/2-y,-z
1/2-x,1/2+y,-z
1/2-x,1/2-y,-z
1/2+x,1/2+y,-z
1/2-x,1/2+y,z
1/2+x,1/2-y,z
loop_
_atom_site_type_symbol
_atom_site_label
_atom_site_fract_x
_atom_site_fract_y
_atom_site_fract_z
Si Si1 0.412834 0.721726 0.397404
Si Si2 0.414670 0.724068 0.706190
Si Si3 0.835782 0.781338 0.801306
Si Si4 0.587025 0.722709 0.500000
Si Si5 0.085273 0.775717 0.103567
Si Si6 0.587884 0.719546 0.000000
O O1 0.500000 0.760557 0.397107
O O2 0.405948 0.500000 0.397825
O O3 0.385288 0.785209 0.345745
O O4 0.383334 0.787324 0.448684
O O5 0.500000 0.774472 0.710215
O O6 0.412474 0.500000 0.705660
O O7 0.371631 0.789008 0.752503
O O8 0.750000 0.750000 0.801191
O O9 0.871342 0.711240 0.850217
O O10 0.849395 0.000000 0.801330
O O11 0.592359 0.500000 0.500000
O O12 0.500000 0.764237 0.500000
O O13 0.113958 0.712769 0.051629
O O14 0.000000 0.725538 0.107964
O O15 0.087496 0.000000 0.102782
O O16 0.599647 0.500000 0.000000
O O17 0.500000 0.747954 0.000000
#
# Coordination Sequence:
#
# PCOD9484704 Si02
#       6
#    16  16  16   8  16   8
#     4   7   9  13  23  42  67  91 115 146 186 228
#     4   8  13  22  37  55  72  94 129 167 194 220
#     4  10  19  29  41  58  81 106 131 160 194 231
#     4   7   8  10  18  36  65  94 111 133 182 237
#     4   8  13  23  41  62  80 100 129 163 194 224
#     4   7  10  18  35  60  83  97 118 159 200 224
#
# _framework density 21.424161000000002
#
# number of rings (size 3 to 8) (size 9 to 14) (size 15 to 20)
#    0.000    4.000    0.000    4.200    0.000    2.400 
#    0.000    0.500    0.000    2.400    0.000    0.700 
#    0.000    2.400    0.000    0.000    0.000   11.600 
#
# Total GULP energy -222739.701571 kJ/mol
# GULP energy per Si atom -5568.492539 kJ/mol
# Density = 2.137540 g / cm^3
# Si number density = 21.424161 Si / 1000 Ang^3
#
#
#
# Elastic Constant Matrix: (Units=GPa)
#
#
# Indices 1 2 3 4 5 6 
#
# 1 45.1674 -4.7308 84.3741 0.0000 0.0000 0.0000
# 2 -4.7308 90.4736 13.5417 0.0000 0.0000 0.0000
# 3 84.3741 13.5417 331.6625 0.0000 0.0000 0.0000
# 4 0.0000 0.0000 0.0000 -22.6564 0.0000 0.0000
# 5 0.0000 0.0000 0.0000 0.0000 -6.8404 0.0000
# 6 0.0000 0.0000 0.0000 0.0000 0.0000 6.5555
#
#
#
# Elastic Compliance Matrix: (Units=1/GPa)
#
#
# Indices 1 2 3 4 5 6 
#
# 1 0.043555 0.003960 -0.011242 0.000000 0.000000 0.000000
# 2 0.003960 0.011481 -0.001476 0.000000 0.000000 0.000000
# 3 -0.011242 -0.001476 0.005935 0.000000 0.000000 0.000000
# 4 0.000000 0.000000 0.000000 -0.044138 0.000000 0.000000
# 5 0.000000 0.000000 0.000000 0.000000 -0.146191 0.000000
# 6 0.000000 0.000000 0.000000 0.000000 0.000000 0.152543
#
#
# Mechanical properties :
#
#
# Convention : Reuss Voigt Hill
#
# Bulk Modulus (GPa) = 23.01221 72.63039 47.82130
# Shear Modulus (GPa) = 90.59962 20.35297 55.47629
#
# Velocity S-wave (km/s) = 6.51002 3.08555 5.09416
# Velocity P-wave (km/s) = 8.20193 6.83147 7.54787
#
# Compressibility (1/GPa) = 0.04345519
#
# Stress axis : x y z
#
# Youngs Moduli (GPa) = 22.95944 87.10060 168.48285
#
# Poissons Ratio (x) = -0.34493 1.89408
# Poissons Ratio (y) = -0.09092 0.24872
# Poissons Ratio (z) = 0.25811 0.12858
#
# Static dielectric constant tensor:
#      x y z
#    x 1.681550 0.000000 0.000000 
#    y 0.000000 1.837790 0.000000 
#    z 0.000000 0.000000 1.853610 
# 
# From -- ./inp_files/75154.got.cif
#   From: 2010.05.17/outbox.cif.g08.bks.cpg/sg65_38_cif.got.tgz:75154.got - 2010.06.03 17:01:31.
