data_PCOD9484552
_publ_section_title
;
Structure prediction by ZEFSAII (Michael W. Deem and Ramdas Pophale) SiO2 
 PCOD9484552
Probable space group: C M M M
;
_chemical_formula_sum "Si O2"
_cell_formula_units_Z 104
_cell_length_a 7.569691
_cell_length_b 24.199803
_cell_length_c 29.553322
_cell_angle_alpha 90.000000
_cell_angle_beta 90.000000
_cell_angle_gamma 90.000000
_cell_volume 5413.726206
_symmetry_space_group_name_H-M "C M M M"
_symmetry_group_IT_number 65
_symmetry_cell_setting 'orthorhombic'
loop_
_space_group_symop_operation_xyz
x,y,z
-x,-y,z
x,-y,-z
-x,y,-z
-x,-y,-z
x,y,-z
-x,y,z
x,-y,z
1/2+x,1/2+y,z
1/2-x,1/2-y,z
1/2+x,1/2-y,-z
1/2-x,1/2+y,-z
1/2-x,1/2-y,-z
1/2+x,1/2+y,-z
1/2-x,1/2+y,z
1/2+x,1/2-y,z
loop_
_atom_site_type_symbol
_atom_site_label
_atom_site_fract_x
_atom_site_fract_y
_atom_site_fract_z
Si Si1 0.710142 0.563741 0.400782
Si Si2 0.289831 0.937147 0.500000
Si Si3 0.213985 0.000000 0.163732
Si Si4 0.783686 0.879010 0.861651
Si Si5 0.294751 0.000000 0.268921
Si Si6 0.203030 0.884666 0.688362
Si Si7 0.712225 0.685166 0.228590
Si Si8 0.211983 0.814677 0.949804
O O1 0.500000 0.559615 0.393173
O O2 0.779729 0.500000 0.398395
O O3 0.736479 0.586341 0.451435
O O4 0.782864 0.602600 0.360985
O O5 0.500000 0.939819 0.500000
O O6 0.216070 0.000000 0.500000
O O7 0.269784 0.942889 0.140852
O O8 0.278877 0.000000 0.215129
O O9 0.000000 0.000000 0.165353
O O10 0.724509 0.846921 0.816303
O O11 0.721426 0.849309 0.907242
O O12 0.000000 0.877302 0.861563
O O13 0.207112 0.944759 0.287980
O O14 0.500000 0.000000 0.282302
O O15 0.282478 0.842661 0.725129
O O16 0.000000 0.866786 0.681285
O O17 0.500000 0.677712 0.229208
O O18 0.750000 0.750000 0.225970
O O19 0.250000 0.750000 0.942765
O O20 0.000000 0.821215 0.950747
O O21 0.279302 0.829913 0.000000
#
# Coordination Sequence:
#
# PCOD9484552 Si02
#       8
#    16   8   8  16   8  16  16  16
#     4   9  16  27  46  67  88 121 166 199 224 274
#     4   9  17  27  39  61  98 131 152 187 244 288
#     4  10  18  34  53  66  91 131 168 192 235 302
#     4   9  17  30  51  72  92 127 164 198 236 288
#     4  12  22  30  46  74 102 125 158 206 246 280
#     4  10  19  34  52  69  94 134 169 196 236 295
#     4  10  20  33  50  70  95 126 163 200 242 288
#     4   9  17  30  48  72  98 124 160 203 246 289
#
# _framework density 19.210428
#
# number of rings (size 3 to 8) (size 9 to 14) (size 15 to 20)
#    0.000    2.385    2.308    1.385    0.000    2.154 
#    0.000    1.154    0.000    2.308    0.000    0.538 
#    0.000    3.077    0.000    0.000    0.000    0.000 
#
# Total GULP energy -290004.841809 kJ/mol
# GULP energy per Si atom -5577.016189 kJ/mol
# Density = 1.916670 g / cm^3
# Si number density = 19.210428 Si / 1000 Ang^3
#
#
#
# Elastic Constant Matrix: (Units=GPa)
#
#
# Indices 1 2 3 4 5 6 
#
# 1 49.6013 -3.9350 5.7050 0.0000 0.0000 0.0000
# 2 -3.9350 110.5541 87.5756 0.0000 0.0000 0.0000
# 3 5.7050 87.5756 208.5872 0.0000 0.0000 0.0000
# 4 0.0000 0.0000 0.0000 9.3128 0.0000 0.0000
# 5 0.0000 0.0000 0.0000 0.0000 -10.8952 0.0000
# 6 0.0000 0.0000 0.0000 0.0000 0.0000 11.5894
#
#
#
# Elastic Compliance Matrix: (Units=1/GPa)
#
#
# Indices 1 2 3 4 5 6 
#
# 1 0.020449 0.001754 -0.001296 0.000000 0.000000 0.000000
# 2 0.001754 0.013703 -0.005801 0.000000 0.000000 0.000000
# 3 -0.001296 -0.005801 0.007265 0.000000 0.000000 0.000000
# 4 0.000000 0.000000 0.000000 0.107379 0.000000 0.000000
# 5 0.000000 0.000000 0.000000 0.000000 -0.091784 0.000000
# 6 0.000000 0.000000 0.000000 0.000000 0.000000 0.086286
#
#
# Mechanical properties :
#
#
# Convention : Reuss Voigt Hill
#
# Bulk Modulus (GPa) = 32.53943 60.82596 46.68270
# Shear Modulus (GPa) = 30.44544 20.62788 25.53666
#
# Velocity S-wave (km/s) = 3.98532 3.28042 3.64993
# Velocity P-wave (km/s) = 6.17675 6.78822 6.48969
#
# Compressibility (1/GPa) = 0.03073194
#
# Stress axis : x y z
#
# Youngs Moduli (GPa) = 48.90221 72.97495 137.64054
#
# Poissons Ratio (x) = -0.12803 0.17836
# Poissons Ratio (y) = -0.08579 0.79850
# Poissons Ratio (z) = 0.06337 0.42335
#
# Static dielectric constant tensor:
#      x y z
#    x 1.716190 0.000000 0.000000 
#    y 0.000000 1.633730 0.000000 
#    z 0.000000 0.000000 1.707310 
# 
# From -- ./inp_files/73663.got.cif
#   From: 2010.05.17/outbox.cif.g08.bks.cpg/sg65_37_cif.got.tgz:73663.got - 2010.06.03 17:01:31.
