data_PCOD9484296
_publ_section_title
;
Structure prediction by ZEFSAII (Michael W. Deem and Ramdas Pophale) SiO2 
 PCOD9484296
Probable space group: C M M M
;
_chemical_formula_sum "Si O2"
_cell_formula_units_Z 104
_cell_length_a 8.714698
_cell_length_b 32.092726
_cell_length_c 22.599388
_cell_angle_alpha 90.000000
_cell_angle_beta 90.000000
_cell_angle_gamma 90.000000
_cell_volume 6320.561018
_symmetry_space_group_name_H-M "C M M M"
_symmetry_group_IT_number 65
_symmetry_cell_setting 'orthorhombic'
loop_
_space_group_symop_operation_xyz
x,y,z
-x,-y,z
x,-y,-z
-x,y,-z
-x,-y,-z
x,y,-z
-x,y,z
x,-y,z
1/2+x,1/2+y,z
1/2-x,1/2-y,z
1/2+x,1/2-y,-z
1/2-x,1/2+y,-z
1/2-x,1/2-y,-z
1/2+x,1/2+y,-z
1/2-x,1/2+y,z
1/2+x,1/2-y,z
loop_
_atom_site_type_symbol
_atom_site_label
_atom_site_fract_x
_atom_site_fract_y
_atom_site_fract_z
Si Si1 0.683485 0.796857 0.376320
Si Si2 0.183183 0.545974 0.291396
Si Si3 0.683309 0.365835 0.290721
Si Si4 0.182939 0.135085 0.849881
Si Si5 0.316015 0.544693 0.159437
Si Si6 0.817308 0.294678 0.067621
Si Si7 0.315980 0.296995 0.500000
O O1 0.500000 0.794003 0.380174
O O2 0.750000 0.750000 0.367157
O O3 0.735716 0.828423 0.325363
O O4 0.751555 0.814251 0.438368
O O5 0.229044 0.500000 0.315920
O O6 0.261213 0.588623 0.313235
O O7 0.230494 0.544428 0.222248
O O8 0.000000 0.549692 0.296969
O O9 0.500000 0.362829 0.297497
O O10 0.718405 0.362786 0.220340
O O11 0.224151 0.088187 0.870932
O O12 0.264934 0.169815 0.887874
O O13 0.000000 0.140542 0.855946
O O14 0.500000 0.546769 0.171611
O O15 0.285544 0.500000 0.129678
O O16 0.750000 0.250000 0.085331
O O17 0.000000 0.291894 0.067404
O O18 0.764768 0.303273 0.000000
O O19 0.500000 0.296814 0.500000
O O20 0.250000 0.250000 0.500000
#
# Coordination Sequence:
#
# PCOD9484296 Si02
#       7
#    16  16  16  16  16  16   8
#     4  11  21  34  51  72  99 131 166 202 241 284
#     4   9  16  26  42  66  95 126 160 197 237 281
#     4  10  20  33  48  71 101 131 163 197 240 288
#     4   9  18  31  49  72  97 124 154 192 236 281
#     4   8  14  26  44  66  93 124 155 186 224 274
#     4  10  21  36  53  70  88 115 154 197 238 283
#     4  10  18  32  52  72  95 126 165 204 240 280
#
# _framework density 16.454236000000002
#
# number of rings (size 3 to 8) (size 9 to 14) (size 15 to 20)
#    0.000    2.462    0.000    5.308    0.000    5.538 
#    0.000    0.000    0.000    0.462    0.000    3.769 
#    0.000    4.308    0.000    0.000    0.000    0.000 
#
# Total GULP energy -289574.052224 kJ/mol
# GULP energy per Si atom -5568.731774 kJ/mol
# Density = 1.641679 g / cm^3
# Si number density = 16.454236 Si / 1000 Ang^3
#
#
#
# Elastic Constant Matrix: (Units=GPa)
#
#
# Indices 1 2 3 4 5 6 
#
# 1 78.5327 60.3387 34.3031 0.0000 0.0000 0.0000
# 2 60.3387 143.2555 56.1601 0.0000 0.0000 0.0000
# 3 34.3031 56.1601 41.4364 0.0000 0.0000 0.0000
# 4 0.0000 0.0000 0.0000 -4.6186 0.0000 0.0000
# 5 0.0000 0.0000 0.0000 0.0000 21.3436 0.0000
# 6 0.0000 0.0000 0.0000 0.0000 0.0000 28.8249
#
#
#
# Elastic Compliance Matrix: (Units=1/GPa)
#
#
# Indices 1 2 3 4 5 6 
#
# 1 0.021151 -0.004362 -0.011598 0.000000 0.000000 0.000000
# 2 -0.004362 0.015794 -0.017795 0.000000 0.000000 0.000000
# 3 -0.011598 -0.017795 0.057853 0.000000 0.000000 0.000000
# 4 0.000000 0.000000 0.000000 -0.216515 0.000000 0.000000
# 5 0.000000 0.000000 0.000000 0.000000 0.046853 0.000000
# 6 0.000000 0.000000 0.000000 0.000000 0.000000 0.034692
#
#
# Mechanical properties :
#
#
# Convention : Reuss Voigt Hill
#
# Bulk Modulus (GPa) = 36.64612 62.75870 49.70241
# Shear Modulus (GPa) = 137.24104 16.60482 76.92293
#
# Velocity S-wave (km/s) = 9.14269 3.18016 6.84479
# Velocity P-wave (km/s) = 11.56597 7.19088 9.63017
#
# Compressibility (1/GPa) = 0.02728802
#
# Stress axis : x y z
#
# Youngs Moduli (GPa) = 47.27931 63.31563 17.28534
#
# Poissons Ratio (x) = 0.27619 0.20047
# Poissons Ratio (y) = 0.20623 0.30759
# Poissons Ratio (z) = 0.54833 1.12669
#
# Static dielectric constant tensor:
#      x y z
#    x 1.562990 0.000000 0.000000 
#    y 0.000000 1.597110 0.000000 
#    z 0.000000 0.000000 1.546890 
# 
# From -- ./inp_files/68467.got.cif
#   From: 2010.05.17/outbox.cif.g08.bks.cpg/sg65_35_cif.got.tgz:68467.got - 2010.06.03 17:01:31.
