data_PCOD9484002
_publ_section_title
;
Structure prediction by ZEFSAII (Michael W. Deem and Ramdas Pophale) SiO2 
 PCOD9484002
Probable space group: C M M M
;
_chemical_formula_sum "Si O2"
_cell_formula_units_Z 88
_cell_length_a 22.650079
_cell_length_b 24.224506
_cell_length_c 7.542715
_cell_angle_alpha 90.000000
_cell_angle_beta 90.000000
_cell_angle_gamma 90.000000
_cell_volume 4138.589474
_symmetry_space_group_name_H-M "C M M M"
_symmetry_group_IT_number 65
_symmetry_cell_setting 'orthorhombic'
loop_
_space_group_symop_operation_xyz
x,y,z
-x,-y,z
x,-y,-z
-x,y,-z
-x,-y,-z
x,y,-z
-x,y,z
x,-y,z
1/2+x,1/2+y,z
1/2-x,1/2-y,z
1/2+x,1/2-y,-z
1/2-x,1/2+y,-z
1/2-x,1/2-y,-z
1/2+x,1/2+y,-z
1/2-x,1/2+y,z
1/2+x,1/2-y,z
loop_
_atom_site_type_symbol
_atom_site_label
_atom_site_fract_x
_atom_site_fract_y
_atom_site_fract_z
Si Si1 0.500000 0.563361 0.208866
Si Si2 0.068337 0.560295 0.213977
Si Si3 0.741193 0.438788 0.282904
Si Si4 0.318005 0.264688 0.715413
Si Si5 0.125025 0.879971 0.287706
Si Si6 0.663262 0.852837 0.704092
O O1 0.500000 0.500000 0.285152
O O2 0.440666 0.598211 0.250392
O O3 0.500000 0.556923 0.000000
O O4 0.090612 0.500000 0.272027
O O5 0.106516 0.609116 0.288541
O O6 0.000000 0.564449 0.263560
O O7 0.071552 0.562067 0.000000
O O8 0.744192 0.438940 0.500000
O O9 0.758503 0.500000 0.223395
O O10 0.674518 0.424173 0.230613
O O11 0.784173 0.390108 0.217413
O O12 0.317946 0.270150 0.500000
O O13 0.250000 0.250000 0.765462
O O14 0.350703 0.320247 0.779401
O O15 0.349349 0.208051 0.774357
O O16 0.128447 0.876936 0.500000
O O17 0.681263 0.843802 0.500000
#
# Coordination Sequence:
#
# PCOD9484002 Si02
#       6
#     8  16  16  16  16  16
#     4  11  25  43  59  79 113 151 188 239 296 335
#     4   9  19  36  53  69  98 141 182 217 258 312
#     4   9  16  26  47  81 111 133 167 217 266 316
#     4   9  16  31  55  83 112 140 170 213 269 321
#     4  10  19  35  60  84 109 145 188 226 268 333
#     4  10  18  30  52  81 110 136 169 216 269 321
#
# _framework density 21.263283999999999
#
# number of rings (size 3 to 8) (size 9 to 14) (size 15 to 20)
#    0.000    2.455    1.818    1.909    0.000    2.909 
#    1.636    2.727    0.000    4.364    0.000    0.000 
#    0.000    0.000    0.000    0.000    0.000    0.000 
#
# Total GULP energy -245321.872180 kJ/mol
# GULP energy per Si atom -5575.497095 kJ/mol
# Density = 2.121489 g / cm^3
# Si number density = 21.263284 Si / 1000 Ang^3
#
#
#
# Elastic Constant Matrix: (Units=GPa)
#
#
# Indices 1 2 3 4 5 6 
#
# 1 107.6469 74.0536 0.1069 0.0000 0.0000 0.0000
# 2 74.0536 179.6528 8.4918 0.0000 0.0000 0.0000
# 3 0.1069 8.4918 47.5967 0.0000 0.0000 0.0000
# 4 0.0000 0.0000 0.0000 7.7039 0.0000 0.0000
# 5 0.0000 0.0000 0.0000 0.0000 45.0101 0.0000
# 6 0.0000 0.0000 0.0000 0.0000 0.0000 19.1270
#
#
#
# Elastic Compliance Matrix: (Units=1/GPa)
#
#
# Indices 1 2 3 4 5 6 
#
# 1 0.013008 -0.005406 0.000935 0.000000 0.000000 0.000000
# 2 -0.005406 0.007860 -0.001390 0.000000 0.000000 0.000000
# 3 0.000935 -0.001390 0.021256 0.000000 0.000000 0.000000
# 4 0.000000 0.000000 0.000000 0.129805 0.000000 0.000000
# 5 0.000000 0.000000 0.000000 0.000000 0.022217 0.000000
# 6 0.000000 0.000000 0.000000 0.000000 0.000000 0.052282
#
#
# Mechanical properties :
#
#
# Convention : Reuss Voigt Hill
#
# Bulk Modulus (GPa) = 32.89267 55.57788 44.23528
# Shear Modulus (GPa) = 18.63698 31.18446 24.91072
#
# Velocity S-wave (km/s) = 2.96376 3.83376 3.42649
# Velocity P-wave (km/s) = 5.21677 6.76695 6.04178
#
# Compressibility (1/GPa) = 0.03040191
#
# Stress axis : x y z
#
# Youngs Moduli (GPa) = 76.87768 127.22017 47.04597
#
# Poissons Ratio (x) = 0.68776 -0.04400
# Poissons Ratio (y) = 0.41560 0.06541
# Poissons Ratio (z) = -0.07190 0.17687
#
# Static dielectric constant tensor:
#      x y z
#    x 1.763740 0.000000 0.000000 
#    y 0.000000 1.812960 0.000000 
#    z 0.000000 0.000000 1.821910 
# 
# From -- ./inp_files/11730.got.cif
#   From: 2010.05.17/outbox.cif.g08.bks.cpg/sg65_6_cif.got.tgz:11730.got - 2010.06.03 17:01:31.
