data_PCOD9484588
_publ_section_title
;
Structure prediction by ZEFSAII (Michael W. Deem and Ramdas Pophale) SiO2 
 PCOD9484588
Probable space group: C M M M
;
_chemical_formula_sum "Si O2"
_cell_formula_units_Z 72
_cell_length_a 26.392806
_cell_length_b 10.292726
_cell_length_c 15.005697
_cell_angle_alpha 90.000000
_cell_angle_beta 90.000000
_cell_angle_gamma 90.000000
_cell_volume 4076.356420
_symmetry_space_group_name_H-M "C M M M"
_symmetry_group_IT_number 65
_symmetry_cell_setting 'orthorhombic'
loop_
_space_group_symop_operation_xyz
x,y,z
-x,-y,z
x,-y,-z
-x,y,-z
-x,-y,-z
x,y,-z
-x,y,z
x,-y,z
1/2+x,1/2+y,z
1/2-x,1/2-y,z
1/2+x,1/2-y,-z
1/2-x,1/2+y,-z
1/2-x,1/2-y,-z
1/2+x,1/2+y,-z
1/2-x,1/2+y,z
1/2+x,1/2-y,z
loop_
_atom_site_type_symbol
_atom_site_label
_atom_site_fract_x
_atom_site_fract_y
_atom_site_fract_z
Si Si1 0.906643 0.500000 0.893675
Si Si2 0.340470 0.258887 0.311554
Si Si3 0.057169 0.746700 0.787522
Si Si4 0.191413 0.000000 0.811049
Si Si5 0.411966 0.500000 0.102569
Si Si6 0.694931 0.000000 0.220448
Si Si7 0.200848 0.156430 0.500000
O O1 0.933823 0.374083 0.853320
O O2 0.850143 0.500000 0.851733
O O3 0.906035 0.500000 0.000000
O O4 0.399700 0.240117 0.288211
O O5 0.320536 0.373094 0.247580
O O6 0.329605 0.304370 0.411227
O O7 0.312049 0.126774 0.282615
O O8 0.000000 0.746191 0.753037
O O9 0.067484 0.875219 0.845299
O O10 0.149464 0.000000 0.888479
O O11 0.251072 0.000000 0.828439
O O12 0.427036 0.500000 0.000000
O O13 0.250000 0.250000 0.500000
O O14 0.211577 0.000000 0.500000
#
# Coordination Sequence:
#
# PCOD9484588 Si02
#       7
#     8  16  16   8   8   8   8
#     4  10  21  35  55  85 112 141 192 240 275 328
#     4  10  22  36  55  82 111 142 185 228 270 330
#     4  10  21  38  57  77 109 148 184 230 282 326
#     4  10  18  35  53  73 110 149 180 219 278 335
#     4  10  21  33  51  81 108 139 186 232 273 330
#     4  10  20  35  55  79 112 153 184 221 280 335
#     4  12  24  38  61  89 118 146 181 227 275 329
#
# _framework density 17.662831000000001
#
# number of rings (size 3 to 8) (size 9 to 14) (size 15 to 20)
#    0.000    1.778    1.111    3.333    1.556    3.111 
#    0.000    0.556    0.000    8.667    0.000    4.667 
#    0.000    0.000    0.000    0.000    0.000    0.000 
#
# Total GULP energy -200968.067266 kJ/mol
# GULP energy per Si atom -5582.446313 kJ/mol
# Density = 1.762263 g / cm^3
# Si number density = 17.662831 Si / 1000 Ang^3
#
#
#
# Elastic Constant Matrix: (Units=GPa)
#
#
# Indices 1 2 3 4 5 6 
#
# 1 127.9773 22.2884 16.1636 0.0000 0.0000 0.0000
# 2 22.2884 150.3438 26.9428 0.0000 0.0000 0.0000
# 3 16.1636 26.9428 81.1595 0.0000 0.0000 0.0000
# 4 0.0000 0.0000 0.0000 45.3588 0.0000 0.0000
# 5 0.0000 0.0000 0.0000 0.0000 8.4190 0.0000
# 6 0.0000 0.0000 0.0000 0.0000 0.0000 21.3196
#
#
#
# Elastic Compliance Matrix: (Units=1/GPa)
#
#
# Indices 1 2 3 4 5 6 
#
# 1 0.008148 -0.000975 -0.001299 0.000000 0.000000 0.000000
# 2 -0.000975 0.007189 -0.002192 0.000000 0.000000 0.000000
# 3 -0.001299 -0.002192 0.013308 0.000000 0.000000 0.000000
# 4 0.000000 0.000000 0.000000 0.022046 0.000000 0.000000
# 5 0.000000 0.000000 0.000000 0.000000 0.118778 0.000000
# 6 0.000000 0.000000 0.000000 0.000000 0.000000 0.046905
#
#
# Mechanical properties :
#
#
# Convention : Reuss Voigt Hill
#
# Bulk Modulus (GPa) = 50.73121 54.47446 52.60283
# Shear Modulus (GPa) = 21.56307 34.62522 28.09414
#
# Velocity S-wave (km/s) = 3.49781 4.43238 3.99253
# Velocity P-wave (km/s) = 6.71545 7.55665 7.14843
#
# Compressibility (1/GPa) = 0.01971173
#
# Stress axis : x y z
#
# Youngs Moduli (GPa) = 122.73296 139.10415 75.14327
#
# Poissons Ratio (x) = 0.13564 0.09761
# Poissons Ratio (y) = 0.11968 0.16474
# Poissons Ratio (z) = 0.15943 0.30496
#
# Static dielectric constant tensor:
#      x y z
#    x 1.624790 0.000000 0.000000 
#    y 0.000000 1.609050 0.000000 
#    z 0.000000 0.000000 1.555960 
# 
# From -- ./inp_files/46611.got.cif
#   From: 2010.05.17/outbox.cif.g08.bks.cpg/sg65_24_cif.got.tgz:46611.got - 2010.06.03 17:01:31.
