data_PCOD9484522
_publ_section_title
;
Structure prediction by ZEFSAII (Michael W. Deem and Ramdas Pophale) SiO2 
 PCOD9484522
Probable space group: C M M M
;
_chemical_formula_sum "Si O2"
_cell_formula_units_Z 72
_cell_length_a 27.912465
_cell_length_b 15.094955
_cell_length_c 8.485520
_cell_angle_alpha 90.000000
_cell_angle_beta 90.000000
_cell_angle_gamma 90.000000
_cell_volume 3575.266961
_symmetry_space_group_name_H-M "C M M M"
_symmetry_group_IT_number 65
_symmetry_cell_setting 'orthorhombic'
loop_
_space_group_symop_operation_xyz
x,y,z
-x,-y,z
x,-y,-z
-x,y,-z
-x,-y,-z
x,y,-z
-x,y,z
x,-y,z
1/2+x,1/2+y,z
1/2-x,1/2-y,z
1/2+x,1/2-y,-z
1/2-x,1/2+y,-z
1/2-x,1/2-y,-z
1/2+x,1/2+y,-z
1/2-x,1/2+y,z
1/2+x,1/2-y,z
loop_
_atom_site_type_symbol
_atom_site_label
_atom_site_fract_x
_atom_site_fract_y
_atom_site_fract_z
Si Si1 0.770255 0.150105 0.314020
Si Si2 0.587581 0.222502 0.689109
Si Si3 0.169456 0.405533 0.308296
Si Si4 0.625596 0.399166 0.187588
Si Si5 0.000000 0.603513 0.189064
O O1 0.778186 0.131994 0.500000
O O2 0.750000 0.250000 0.302409
O O3 0.724092 0.097190 0.253497
O O4 0.819876 0.128353 0.231003
O O5 0.586053 0.220956 0.500000
O O6 0.636921 0.175356 0.744098
O O7 0.590565 0.323913 0.743803
O O8 0.545436 0.160289 0.752259
O O9 0.171705 0.400309 0.500000
O O10 0.146970 0.500000 0.266060
O O11 0.617225 0.500000 0.244845
O O12 0.620687 0.398627 0.000000
O O13 0.000000 0.500000 0.244011
O O14 0.000000 0.601906 0.000000
#
# Coordination Sequence:
#
# PCOD9484522 Si02
#       5
#    16  16  16  16   8
#     4  10  18  33  56  84 118 159 207 254 299 351
#     4  11  22  40  65  91 119 155 206 259 303 357
#     4   9  17  30  52  83 117 152 194 246 299 349
#     4  11  24  40  58  85 124 168 209 253 310 370
#     4  11  25  45  68  97 132 163 189 232 304 375
#
# _framework density 20.138356999999999
#
# number of rings (size 3 to 8) (size 9 to 14) (size 15 to 20)
#    0.000    1.667    2.222    3.000    0.000    4.889 
#    0.000    0.556    0.000    7.333    0.000    0.000 
#    0.000    0.000    0.000    0.000    0.000    0.000 
#
# Total GULP energy -200885.830804 kJ/mol
# GULP energy per Si atom -5580.161967 kJ/mol
# Density = 2.009252 g / cm^3
# Si number density = 20.138357 Si / 1000 Ang^3
#
#
#
# Elastic Constant Matrix: (Units=GPa)
#
#
# Indices 1 2 3 4 5 6 
#
# 1 88.5563 71.0900 23.3477 0.0000 0.0000 0.0000
# 2 71.0900 175.2486 38.8628 0.0000 0.0000 0.0000
# 3 23.3477 38.8628 43.9652 0.0000 0.0000 0.0000
# 4 0.0000 0.0000 0.0000 22.9564 0.0000 0.0000
# 5 0.0000 0.0000 0.0000 0.0000 60.3530 0.0000
# 6 0.0000 0.0000 0.0000 0.0000 0.0000 28.9967
#
#
#
# Elastic Compliance Matrix: (Units=1/GPa)
#
#
# Indices 1 2 3 4 5 6 
#
# 1 0.017214 -0.006164 -0.003693 0.000000 0.000000 0.000000
# 2 -0.006164 0.009305 -0.004951 0.000000 0.000000 0.000000
# 3 -0.003693 -0.004951 0.029083 0.000000 0.000000 0.000000
# 4 0.000000 0.000000 0.000000 0.043561 0.000000 0.000000
# 5 0.000000 0.000000 0.000000 0.000000 0.016569 0.000000
# 6 0.000000 0.000000 0.000000 0.000000 0.000000 0.034487
#
#
# Mechanical properties :
#
#
# Convention : Reuss Voigt Hill
#
# Bulk Modulus (GPa) = 38.48334 63.81902 51.15118
# Shear Modulus (GPa) = 26.52562 34.09253 30.30908
#
# Velocity S-wave (km/s) = 3.63322 4.11897 3.88370
# Velocity P-wave (km/s) = 6.06229 7.37430 6.75025
#
# Compressibility (1/GPa) = 0.02598527
#
# Stress axis : x y z
#
# Youngs Moduli (GPa) = 58.09169 107.47328 34.38422
#
# Poissons Ratio (x) = 0.66247 0.12698
# Poissons Ratio (y) = 0.35808 0.17025
# Poissons Ratio (z) = 0.21453 0.53214
#
# Static dielectric constant tensor:
#      x y z
#    x 1.709700 0.000000 0.000000 
#    y 0.000000 1.795990 0.000000 
#    z 0.000000 0.000000 1.691910 
# 
# From -- ./inp_files/15777.got.cif
#   From: 2010.05.17/outbox.cif.g08.bks.cpg/sg65_8_cif.got.tgz:15777.got - 2010.06.03 17:01:31.
