data_PCOD9484702
_publ_section_title
;
Structure prediction by ZEFSAII (Michael W. Deem and Ramdas Pophale) SiO2 
 PCOD9484702
Probable space group: C M M M
;
_chemical_formula_sum "Si O2"
_cell_formula_units_Z 104
_cell_length_a 7.575090
_cell_length_b 28.340822
_cell_length_c 27.794258
_cell_angle_alpha 90.000000
_cell_angle_beta 90.000000
_cell_angle_gamma 90.000000
_cell_volume 5966.990192
_symmetry_space_group_name_H-M "C M M M"
_symmetry_group_IT_number 65
_symmetry_cell_setting 'orthorhombic'
loop_
_space_group_symop_operation_xyz
x,y,z
-x,-y,z
x,-y,-z
-x,y,-z
-x,-y,-z
x,y,-z
-x,y,z
x,-y,z
1/2+x,1/2+y,z
1/2-x,1/2-y,z
1/2+x,1/2-y,-z
1/2-x,1/2+y,-z
1/2-x,1/2-y,-z
1/2+x,1/2+y,-z
1/2-x,1/2+y,z
1/2+x,1/2-y,z
loop_
_atom_site_type_symbol
_atom_site_label
_atom_site_fract_x
_atom_site_fract_y
_atom_site_fract_z
Si Si1 0.789721 0.695743 0.759368
Si Si2 0.795246 0.557280 0.500000
Si Si3 0.787564 0.195200 0.054054
Si Si4 0.790848 0.391087 0.301535
Si Si5 0.783063 0.445166 0.605286
Si Si6 0.786111 0.946804 0.205719
Si Si7 0.707074 0.359047 0.854247
O O1 0.750000 0.750000 0.749223
O O2 0.720526 0.658339 0.719804
O O3 0.720615 0.679201 0.811387
O O4 0.000000 0.690082 0.761683
O O5 0.794172 0.500000 0.500000
O O6 0.721022 0.570636 0.447855
O O7 0.000000 0.572490 0.500000
O O8 0.750000 0.250000 0.064890
O O9 0.717401 0.162117 0.096616
O O10 0.000000 0.190509 0.053047
O O11 0.721394 0.185109 0.000000
O O12 0.720723 0.412365 0.351193
O O13 0.765016 0.428632 0.258625
O O14 0.000000 0.384774 0.308875
O O15 0.732756 0.500000 0.613157
O O16 0.000000 0.444889 0.604487
O O17 0.719473 0.907600 0.167926
O O18 0.000000 0.946549 0.204013
O O19 0.725208 0.000000 0.197023
O O20 0.500000 0.367610 0.862993
#
# Coordination Sequence:
#
# PCOD9484702 Si02
#       7
#    16   8  16  16  16  16  16
#     4  10  19  29  41  58  80 104 131 162 196 235
#     4   7  10  16  28  50  78 103 123 147 187 233
#     4   9  17  28  42  60  80 101 126 158 196 235
#     4   9  17  27  40  59  80 103 132 164 196 230
#     4   8  12  19  33  54  80 104 124 152 191 230
#     4   9  17  28  41  58  81 108 135 160 189 228
#     4   9  17  29  44  60  80 106 132 159 192 230
#
# _framework density 17.429221999999999
#
# number of rings (size 3 to 8) (size 9 to 14) (size 15 to 20)
#    0.000    3.154    0.000    2.308    0.000    3.385 
#    0.000    0.000    0.000    0.462    0.000    4.308 
#    0.000    3.077    0.000   11.538    0.000   12.000 
#
# Total GULP energy -289669.197161 kJ/mol
# GULP energy per Si atom -5570.561484 kJ/mol
# Density = 1.738955 g / cm^3
# Si number density = 17.429222 Si / 1000 Ang^3
#
#
#
# Elastic Constant Matrix: (Units=GPa)
#
#
# Indices 1 2 3 4 5 6 
#
# 1 34.7230 -4.9595 -2.8844 0.0000 0.0000 0.0000
# 2 -4.9595 118.1099 86.7402 0.0000 0.0000 0.0000
# 3 -2.8844 86.7402 167.4643 0.0000 0.0000 0.0000
# 4 0.0000 0.0000 0.0000 21.6422 0.0000 0.0000
# 5 0.0000 0.0000 0.0000 0.0000 9.3644 0.0000
# 6 0.0000 0.0000 0.0000 0.0000 0.0000 3.1820
#
#
#
# Elastic Compliance Matrix: (Units=1/GPa)
#
#
# Indices 1 2 3 4 5 6 
#
# 1 0.028978 0.001372 -0.000212 0.000000 0.000000 0.000000
# 2 0.001372 0.013730 -0.007088 0.000000 0.000000 0.000000
# 3 -0.000212 -0.007088 0.009639 0.000000 0.000000 0.000000
# 4 0.000000 0.000000 0.000000 0.046206 0.000000 0.000000
# 5 0.000000 0.000000 0.000000 0.000000 0.106787 0.000000
# 6 0.000000 0.000000 0.000000 0.000000 0.000000 0.314268
#
#
# Mechanical properties :
#
#
# Convention : Reuss Voigt Hill
#
# Bulk Modulus (GPa) = 24.69631 53.12112 38.90871
# Shear Modulus (GPa) = 9.17499 22.93111 16.05305
#
# Velocity S-wave (km/s) = 2.29686 3.63115 3.03816
# Velocity P-wave (km/s) = 4.60807 6.93720 5.88893
#
# Compressibility (1/GPa) = 0.04049188
#
# Stress axis : x y z
#
# Youngs Moduli (GPa) = 34.50926 72.83543 103.74551
#
# Poissons Ratio (x) = -0.09995 0.02196
# Poissons Ratio (y) = -0.04735 0.73532
# Poissons Ratio (z) = 0.00730 0.51624
#
# Static dielectric constant tensor:
#      x y z
#    x 1.681960 0.000000 0.000000 
#    y 0.000000 1.591700 0.000000 
#    z 0.000000 0.000000 1.613720 
# 
# From -- ./inp_files/77105.got.cif
#   From: 2010.05.17/outbox.cif.g08.bks.cpg/sg65_39_cif.got.tgz:77105.got - 2010.06.03 17:01:31.
