data_PCOD9484229
_publ_section_title
;
Structure prediction by ZEFSAII (Michael W. Deem and Ramdas Pophale) SiO2 
 PCOD9484229
Probable space group: C M M M
;
_chemical_formula_sum "Si O2"
_cell_formula_units_Z 72
_cell_length_a 22.836828
_cell_length_b 19.771579
_cell_length_c 7.700620
_cell_angle_alpha 90.000000
_cell_angle_beta 90.000000
_cell_angle_gamma 90.000000
_cell_volume 3476.985089
_symmetry_space_group_name_H-M "C M M M"
_symmetry_group_IT_number 65
_symmetry_cell_setting 'orthorhombic'
loop_
_space_group_symop_operation_xyz
x,y,z
-x,-y,z
x,-y,-z
-x,y,-z
-x,-y,-z
x,y,-z
-x,y,z
x,-y,z
1/2+x,1/2+y,z
1/2-x,1/2-y,z
1/2+x,1/2-y,-z
1/2-x,1/2+y,-z
1/2-x,1/2-y,-z
1/2+x,1/2+y,-z
1/2-x,1/2+y,z
1/2+x,1/2-y,z
loop_
_atom_site_type_symbol
_atom_site_label
_atom_site_fract_x
_atom_site_fract_y
_atom_site_fract_z
Si Si1 0.000000 0.578676 0.712793
Si Si2 0.065959 0.207228 0.204711
Si Si3 0.770245 0.578157 0.288446
Si Si4 0.362083 0.576722 0.290154
Si Si5 0.616542 0.845957 0.295689
O O1 0.941370 0.616559 0.774836
O O2 0.000000 0.500000 0.761241
O O3 0.000000 0.581608 0.500000
O O4 0.092664 0.133530 0.234449
O O5 0.106749 0.266213 0.278624
O O6 0.000000 0.212849 0.277315
O O7 0.063029 0.219139 0.000000
O O8 0.768498 0.581595 0.500000
O O9 0.783119 0.500000 0.243750
O O10 0.704123 0.593873 0.230225
O O11 0.822297 0.625936 0.224016
O O12 0.361547 0.576022 0.500000
O O13 0.375728 0.500000 0.232641
O O14 0.617756 0.862532 0.500000
#
# Coordination Sequence:
#
# PCOD9484229 Si02
#       5
#     8  16  16  16  16
#     4   9  16  26  47  81 110 135 174 219 255 292
#     4  11  24  39  53  72 106 146 180 220 267 314
#     4   8  15  30  54  84 113 137 167 215 269 315
#     4   9  19  37  60  83 105 132 171 219 270 323
#     4  10  18  31  54  81 109 141 177 216 257 309
#
# _framework density 20.707595000000001
#
# number of rings (size 3 to 8) (size 9 to 14) (size 15 to 20)
#    0.000    2.556    1.111    2.667    0.000    5.778 
#    0.000    7.778    0.000    4.667    0.000    0.000 
#    0.000    0.000    0.000    0.000    0.000    0.000 
#
# Total GULP energy -200923.901372 kJ/mol
# GULP energy per Si atom -5581.219483 kJ/mol
# Density = 2.066046 g / cm^3
# Si number density = 20.707595 Si / 1000 Ang^3
#
#
#
# Elastic Constant Matrix: (Units=GPa)
#
#
# Indices 1 2 3 4 5 6 
#
# 1 61.6082 31.6629 -3.8320 0.0000 0.0000 0.0000
# 2 31.6629 74.3593 -15.5864 0.0000 0.0000 0.0000
# 3 -3.8320 -15.5864 29.4133 0.0000 0.0000 0.0000
# 4 0.0000 0.0000 0.0000 -134.7267 0.0000 0.0000
# 5 0.0000 0.0000 0.0000 0.0000 317.9952 0.0000
# 6 0.0000 0.0000 0.0000 0.0000 0.0000 37.9317
#
#
#
# Elastic Compliance Matrix: (Units=1/GPa)
#
#
# Indices 1 2 3 4 5 6 
#
# 1 0.020910 -0.009374 -0.002243 0.000000 0.000000 0.000000
# 2 -0.009374 0.019331 0.009022 0.000000 0.000000 0.000000
# 3 -0.002243 0.009022 0.038487 0.000000 0.000000 0.000000
# 4 0.000000 0.000000 0.000000 -0.007422 0.000000 0.000000
# 5 0.000000 0.000000 0.000000 0.000000 0.003145 0.000000
# 6 0.000000 0.000000 0.000000 0.000000 0.000000 0.026363
#
#
# Mechanical properties :
#
#
# Convention : Reuss Voigt Hill
#
# Bulk Modulus (GPa) = 13.59829 21.09666 17.34748
# Shear Modulus (GPa) = 38.30987 54.44912 46.37949
#
# Velocity S-wave (km/s) = 4.30587 5.13336 4.73772
# Velocity P-wave (km/s) = 5.59480 6.73388 6.19060
#
# Compressibility (1/GPa) = 0.07353864
#
# Stress axis : x y z
#
# Youngs Moduli (GPa) = 47.82489 51.73087 25.98274
#
# Poissons Ratio (x) = 0.48491 0.05828
# Poissons Ratio (y) = 0.44830 -0.23443
# Poissons Ratio (z) = 0.10728 -0.46674
#
# Static dielectric constant tensor:
#      x y z
#    x 1.747300 0.000000 0.000000 
#    y 0.000000 1.702020 0.000000 
#    z 0.000000 0.000000 1.797460 
# 
# From -- ./inp_files/9222.got.cif
#   From: 2010.05.17/outbox.cif.g08.bks.cpg/sg65_5_cif.got.tgz:9222.got - 2010.06.03 17:01:31.
