data_PCOD9484627
_publ_section_title
;
Structure prediction by ZEFSAII (Michael W. Deem and Ramdas Pophale) SiO2 
 PCOD9484627
Probable space group: C M M M
;
_chemical_formula_sum "Si O2"
_cell_formula_units_Z 104
_cell_length_a 27.633046
_cell_length_b 8.824118
_cell_length_c 27.252864
_cell_angle_alpha 90.000000
_cell_angle_beta 90.000000
_cell_angle_gamma 90.000000
_cell_volume 6645.263647
_symmetry_space_group_name_H-M "C M M M"
_symmetry_group_IT_number 65
_symmetry_cell_setting 'orthorhombic'
loop_
_space_group_symop_operation_xyz
x,y,z
-x,-y,z
x,-y,-z
-x,y,-z
-x,-y,-z
x,y,-z
-x,y,z
x,-y,z
1/2+x,1/2+y,z
1/2-x,1/2-y,z
1/2+x,1/2-y,-z
1/2-x,1/2+y,-z
1/2-x,1/2-y,-z
1/2+x,1/2+y,-z
1/2-x,1/2+y,z
1/2+x,1/2-y,z
loop_
_atom_site_type_symbol
_atom_site_label
_atom_site_fract_x
_atom_site_fract_y
_atom_site_fract_z
Si Si1 0.850864 0.681298 0.402537
Si Si2 0.801200 0.181339 0.306752
Si Si3 0.056154 0.319445 0.155120
Si Si4 0.398859 0.319707 0.251234
Si Si5 0.444172 0.682390 0.355244
Si Si6 0.558309 0.679867 0.946410
Si Si7 0.304092 0.317960 0.500000
O O1 0.847887 0.500000 0.405669
O O2 0.818164 0.742233 0.357571
O O3 0.905269 0.734220 0.389212
O O4 0.831740 0.757460 0.452028
O O5 0.750000 0.250000 0.291893
O O6 0.843918 0.211703 0.267884
O O7 0.798181 0.000000 0.313642
O O8 0.056232 0.500000 0.153769
O O9 0.085037 0.261928 0.202105
O O10 0.075799 0.258300 0.103157
O O11 0.000000 0.267395 0.160215
O O12 0.404128 0.500000 0.244124
O O13 0.431390 0.277854 0.298703
O O14 0.500000 0.717092 0.365964
O O15 0.436966 0.500000 0.359713
O O16 0.500000 0.701396 0.946966
O O17 0.567053 0.500000 0.943301
O O18 0.576258 0.733778 0.000000
O O19 0.301985 0.500000 0.500000
O O20 0.250000 0.250000 0.500000
#
# Coordination Sequence:
#
# PCOD9484627 Si02
#       7
#    16  16  16  16  16  16   8
#     4  11  22  36  54  78 104 128 157 192 232 279
#     4  10  20  35  53  73  96 124 156 190 234 282
#     4  10  19  27  38  61  92 123 155 193 234 271
#     4   9  18  31  47  67  92 123 158 192 226 273
#     4   9  18  34  54  74  98 130 165 198 234 275
#     4   8  14  25  40  56  77 112 156 194 229 273
#     4  12  24  40  59  78 101 126 156 195 239 283
#
# _framework density 15.650244000000001
#
# number of rings (size 3 to 8) (size 9 to 14) (size 15 to 20)
#    0.000    2.308    0.000    5.308    0.000    5.231 
#    0.000    1.923    0.000    2.308    0.000    0.000 
#    0.000    0.615    0.000    2.000    0.000    2.462 
#
# Total GULP energy -290024.607970 kJ/mol
# GULP energy per Si atom -5577.396307 kJ/mol
# Density = 1.561462 g / cm^3
# Si number density = 15.650244 Si / 1000 Ang^3
#
#
#
# Elastic Constant Matrix: (Units=GPa)
#
#
# Indices 1 2 3 4 5 6 
#
# 1 84.0428 47.5474 53.8153 0.0000 0.0000 0.0000
# 2 47.5474 77.7649 65.1301 0.0000 0.0000 0.0000
# 3 53.8153 65.1301 145.9116 0.0000 0.0000 0.0000
# 4 0.0000 0.0000 0.0000 13.0867 0.0000 0.0000
# 5 0.0000 0.0000 0.0000 0.0000 13.1198 0.0000
# 6 0.0000 0.0000 0.0000 0.0000 0.0000 25.3228
#
#
#
# Elastic Compliance Matrix: (Units=1/GPa)
#
#
# Indices 1 2 3 4 5 6 
#
# 1 0.018929 -0.009146 -0.002899 0.000000 0.000000 0.000000
# 2 -0.009146 0.024956 -0.007766 0.000000 0.000000 0.000000
# 3 -0.002899 -0.007766 0.011389 0.000000 0.000000 0.000000
# 4 0.000000 0.000000 0.000000 0.076413 0.000000 0.000000
# 5 0.000000 0.000000 0.000000 0.000000 0.076221 0.000000
# 6 0.000000 0.000000 0.000000 0.000000 0.000000 0.039490
#
#
# Mechanical properties :
#
#
# Convention : Reuss Voigt Hill
#
# Bulk Modulus (GPa) = 63.88955 71.18943 67.53949
# Shear Modulus (GPa) = 17.10933 19.72096 18.41514
#
# Velocity S-wave (km/s) = 3.30999 3.55365 3.43398
# Velocity P-wave (km/s) = 7.45118 7.90091 7.67934
#
# Compressibility (1/GPa) = 0.01565201
#
# Stress axis : x y z
#
# Youngs Moduli (GPa) = 52.82796 40.07115 87.80148
#
# Poissons Ratio (x) = 0.36648 0.25455
# Poissons Ratio (y) = 0.48315 0.68189
# Poissons Ratio (z) = 0.15316 0.31120
#
# Static dielectric constant tensor:
#      x y z
#    x 1.513730 0.000000 0.000000 
#    y 0.000000 1.522830 0.000000 
#    z 0.000000 0.000000 1.519890 
# 
# From -- ./inp_files/71778.got.cif
#   From: 2010.05.17/outbox.cif.g08.bks.cpg/sg65_36_cif.got.tgz:71778.got - 2010.06.03 17:01:31.
