data_PCOD9484843
_publ_section_title
;
Structure prediction by ZEFSAII (Michael W. Deem and Ramdas Pophale) SiO2 
 PCOD9484843
Probable space group: C M M M
;
_chemical_formula_sum "Si O2"
_cell_formula_units_Z 64
_cell_length_a 7.902816
_cell_length_b 18.999716
_cell_length_c 21.341077
_cell_angle_alpha 90.000000
_cell_angle_beta 90.000000
_cell_angle_gamma 90.000000
_cell_volume 3204.389593
_symmetry_space_group_name_H-M "C M M M"
_symmetry_group_IT_number 65
_symmetry_cell_setting 'orthorhombic'
loop_
_space_group_symop_operation_xyz
x,y,z
-x,-y,z
x,-y,-z
-x,y,-z
-x,-y,-z
x,y,-z
-x,y,z
x,-y,z
1/2+x,1/2+y,z
1/2-x,1/2-y,z
1/2+x,1/2-y,-z
1/2-x,1/2+y,-z
1/2-x,1/2-y,-z
1/2+x,1/2+y,-z
1/2-x,1/2+y,z
1/2+x,1/2-y,z
loop_
_atom_site_type_symbol
_atom_site_label
_atom_site_fract_x
_atom_site_fract_y
_atom_site_fract_z
Si Si1 0.206400 0.418665 0.880740
Si Si2 0.706729 0.081509 0.259975
Si Si3 0.295869 0.168753 0.000000
Si Si4 0.799102 0.331241 0.621909
Si Si5 0.798700 0.920276 0.500000
O O1 0.254690 0.500000 0.891413
O O2 0.260941 0.398326 0.810437
O O3 0.266590 0.369915 0.937136
O O4 0.000000 0.416943 0.880744
O O5 0.500000 0.082658 0.260131
O O6 0.769887 0.132155 0.314876
O O7 0.755426 0.000000 0.271391
O O8 0.250000 0.250000 0.000000
O O9 0.500000 0.162530 0.000000
O O10 0.750000 0.250000 0.615321
O O11 0.751178 0.377044 0.561608
O O12 0.000000 0.333263 0.626714
O O13 0.000000 0.925324 0.500000
O O14 0.727843 0.000000 0.500000
#
# Coordination Sequence:
#
# PCOD9484843 Si02
#       5
#    16  16   8  16   8
#     4   8  14  27  48  72  96 126 170 216 250 288
#     4   8  15  29  50  75 100 128 167 214 257 297
#     4  10  19  29  45  71 101 132 164 204 254 302
#     4  11  22  36  55  79 108 140 173 209 253 305
#     4  11  24  41  60  81 105 133 168 213 260 305
#
# _framework density 19.972601999999998
#
# number of rings (size 3 to 8) (size 9 to 14) (size 15 to 20)
#    0.000    2.625    0.000    4.125    0.000    4.500 
#    0.000    0.000    0.000    3.000    0.000    7.000 
#    0.000    0.000    0.000    0.000    0.000    0.000 
#
# Total GULP energy -178596.237387 kJ/mol
# GULP energy per Si atom -5581.132418 kJ/mol
# Density = 1.992714 g / cm^3
# Si number density = 19.972602 Si / 1000 Ang^3
#
#
#
# Elastic Constant Matrix: (Units=GPa)
#
#
# Indices 1 2 3 4 5 6 
#
# 1 25.5269 10.2237 12.9539 0.0000 0.0000 0.0000
# 2 10.2237 175.4763 151.4715 0.0000 0.0000 0.0000
# 3 12.9539 151.4715 222.7042 0.0000 0.0000 0.0000
# 4 0.0000 0.0000 0.0000 0.4950 0.0000 0.0000
# 5 0.0000 0.0000 0.0000 0.0000 -7.6607 0.0000
# 6 0.0000 0.0000 0.0000 0.0000 0.0000 8.6525
#
#
#
# Elastic Compliance Matrix: (Units=1/GPa)
#
#
# Indices 1 2 3 4 5 6 
#
# 1 0.040411 -0.000788 -0.001814 0.000000 0.000000 0.000000
# 2 -0.000788 0.013817 -0.009352 0.000000 0.000000 0.000000
# 3 -0.001814 -0.009352 0.010956 0.000000 0.000000 0.000000
# 4 0.000000 0.000000 0.000000 2.020092 0.000000 0.000000
# 5 0.000000 0.000000 0.000000 0.000000 -0.130537 0.000000
# 6 0.000000 0.000000 0.000000 0.000000 0.000000 0.115574
#
#
# Mechanical properties :
#
#
# Convention : Reuss Voigt Hill
#
# Bulk Modulus (GPa) = 24.22751 85.88953 55.05852
# Shear Modulus (GPa) = 2.37194 16.90125 9.63659
#
# Velocity S-wave (km/s) = 1.09095 2.91214 2.19895
# Velocity P-wave (km/s) = 3.70724 7.37594 5.83730
#
# Compressibility (1/GPa) = 0.04127540
#
# Stress axis : x y z
#
# Youngs Moduli (GPa) = 24.74585 72.37298 91.27008
#
# Poissons Ratio (x) = 0.05704 0.16561
# Poissons Ratio (y) = 0.01950 0.85355
# Poissons Ratio (z) = 0.04490 0.67683
#
# Static dielectric constant tensor:
#      x y z
#    x 1.722530 0.000000 0.000000 
#    y 0.000000 1.709590 0.000000 
#    z 0.000000 0.000000 1.735510 
# 
# From -- ./inp_files/58904.got.cif
#   From: 2010.05.17/outbox.cif.g08.bks.cpg/sg65_30_cif.got.tgz:58904.got - 2010.06.03 17:01:31.
