data_PCOD9484649
_publ_section_title
;
Structure prediction by ZEFSAII (Michael W. Deem and Ramdas Pophale) SiO2 
 PCOD9484649
Probable space group: C M M M
;
_chemical_formula_sum "Si O2"
_cell_formula_units_Z 104
_cell_length_a 27.572887
_cell_length_b 9.156465
_cell_length_c 27.161422
_cell_angle_alpha 90.000000
_cell_angle_beta 90.000000
_cell_angle_gamma 90.000000
_cell_volume 6857.448959
_symmetry_space_group_name_H-M "C M M M"
_symmetry_group_IT_number 65
_symmetry_cell_setting 'orthorhombic'
loop_
_space_group_symop_operation_xyz
x,y,z
-x,-y,z
x,-y,-z
-x,y,-z
-x,-y,-z
x,y,-z
-x,y,z
x,-y,z
1/2+x,1/2+y,z
1/2-x,1/2-y,z
1/2+x,1/2-y,-z
1/2-x,1/2+y,-z
1/2-x,1/2-y,-z
1/2+x,1/2+y,-z
1/2-x,1/2+y,z
1/2+x,1/2-y,z
loop_
_atom_site_type_symbol
_atom_site_label
_atom_site_fract_x
_atom_site_fract_y
_atom_site_fract_z
Si Si1 0.200617 0.673599 0.302105
Si Si2 0.346755 0.324904 0.395324
Si Si3 0.554527 0.674396 0.656284
Si Si4 0.900448 0.326438 0.249716
Si Si5 0.058021 0.173156 0.845689
Si Si6 0.941176 0.329824 0.054666
Si Si7 0.802344 0.175701 0.500000
O O1 0.207256 0.500000 0.306936
O O2 0.250000 0.750000 0.285614
O O3 0.185054 0.742004 0.354588
O O4 0.155268 0.700514 0.265774
O O5 0.339877 0.500000 0.389377
O O6 0.402868 0.292046 0.382486
O O7 0.330937 0.284595 0.450234
O O8 0.500000 0.710140 0.639957
O O9 0.556620 0.500000 0.665800
O O10 0.567461 0.757339 0.706554
O O11 0.908183 0.500000 0.247500
O O12 0.914856 0.253034 0.198602
O O13 0.074137 0.234906 0.898749
O O14 0.000000 0.201111 0.840701
O O15 0.065330 0.000000 0.843087
O O16 0.927821 0.500000 0.061389
O O17 0.000000 0.324512 0.053936
O O18 0.924790 0.282261 0.000000
O O19 0.750000 0.250000 0.500000
O O20 0.796543 0.000000 0.500000
#
# Coordination Sequence:
#
# PCOD9484649 Si02
#       7
#    16  16  16  16  16  16   8
#     4  10  20  33  49  68  88 112 142 176 218 265
#     4   9  18  32  48  67  91 116 143 176 213 257
#     4   9  17  30  47  65  87 116 147 178 214 255
#     4  10  20  31  44  64  88 114 146 181 216 259
#     4  10  19  28  40  61  89 120 152 185 220 256
#     4   8  14  25  40  57  80 114 153 188 222 259
#     4  10  20  32  47  67  89 113 142 178 221 264
#
# _framework density 15.165989
#
# number of rings (size 3 to 8) (size 9 to 14) (size 15 to 20)
#    0.000    2.615    0.000    2.769    0.000    7.077 
#    0.000    1.923    0.000    2.308    0.000    0.000 
#    0.000    6.154    0.000    2.000    0.000    2.462 
#
# Total GULP energy -289846.506607 kJ/mol
# GULP energy per Si atom -5573.971281 kJ/mol
# Density = 1.513147 g / cm^3
# Si number density = 15.165989 Si / 1000 Ang^3
#
#
#
# Elastic Constant Matrix: (Units=GPa)
#
#
# Indices 1 2 3 4 5 6 
#
# 1 81.9150 44.1704 52.7467 0.0000 0.0000 0.0000
# 2 44.1704 49.4392 59.2171 0.0000 0.0000 0.0000
# 3 52.7467 59.2171 140.8226 0.0000 0.0000 0.0000
# 4 0.0000 0.0000 0.0000 23.6615 0.0000 0.0000
# 5 0.0000 0.0000 0.0000 0.0000 14.0231 0.0000
# 6 0.0000 0.0000 0.0000 0.0000 0.0000 21.1330
#
#
#
# Elastic Compliance Matrix: (Units=1/GPa)
#
#
# Indices 1 2 3 4 5 6 
#
# 1 0.023556 -0.021110 0.000054 0.000000 0.000000 0.000000
# 2 -0.021110 0.059672 -0.017185 0.000000 0.000000 0.000000
# 3 0.000054 -0.017185 0.014308 0.000000 0.000000 0.000000
# 4 0.000000 0.000000 0.000000 0.042263 0.000000 0.000000
# 5 0.000000 0.000000 0.000000 0.000000 0.071311 0.000000
# 6 0.000000 0.000000 0.000000 0.000000 0.000000 0.047319
#
#
# Mechanical properties :
#
#
# Convention : Reuss Voigt Hill
#
# Bulk Modulus (GPa) = 47.50196 64.93838 56.22017
# Shear Modulus (GPa) = 14.62291 19.49968 17.06130
#
# Velocity S-wave (km/s) = 3.10851 3.58963 3.35770
# Velocity P-wave (km/s) = 6.65381 7.75190 7.22375
#
# Compressibility (1/GPa) = 0.02105176
#
# Stress axis : x y z
#
# Youngs Moduli (GPa) = 42.45155 16.75842 69.89309
#
# Poissons Ratio (x) = 0.35377 -0.00376
# Poissons Ratio (y) = 0.89616 1.20113
# Poissons Ratio (z) = -0.00228 0.28800
#
# Static dielectric constant tensor:
#      x y z
#    x 1.498130 0.000000 0.000000 
#    y 0.000000 1.503880 0.000000 
#    z 0.000000 0.000000 1.490530 
# 
# From -- ./inp_files/76058.got.cif
#   From: 2010.05.17/outbox.cif.g08.bks.cpg/sg65_39_cif.got.tgz:76058.got - 2010.06.03 17:01:31.
