data_PCOD9484227
_publ_section_title
;
Structure prediction by ZEFSAII (Michael W. Deem and Ramdas Pophale) SiO2 
 PCOD9484227
Probable space group: C M M M
;
_chemical_formula_sum "Si O2"
_cell_formula_units_Z 96
_cell_length_a 20.427437
_cell_length_b 19.343236
_cell_length_c 14.055539
_cell_angle_alpha 90.000000
_cell_angle_beta 90.000000
_cell_angle_gamma 90.000000
_cell_volume 5553.803564
_symmetry_space_group_name_H-M "C M M M"
_symmetry_group_IT_number 65
_symmetry_cell_setting 'orthorhombic'
loop_
_space_group_symop_operation_xyz
x,y,z
-x,-y,z
x,-y,-z
-x,y,-z
-x,-y,-z
x,y,-z
-x,y,z
x,-y,z
1/2+x,1/2+y,z
1/2-x,1/2-y,z
1/2+x,1/2-y,-z
1/2-x,1/2+y,-z
1/2-x,1/2-y,-z
1/2+x,1/2+y,-z
1/2-x,1/2+y,z
1/2+x,1/2-y,z
loop_
_atom_site_type_symbol
_atom_site_label
_atom_site_fract_x
_atom_site_fract_y
_atom_site_fract_z
Si Si1 0.289101 0.181377 0.611159
Si Si2 0.427878 0.253820 0.104633
Si Si3 0.199710 0.918932 0.286365
Si Si4 0.075133 0.861206 0.387095
Si Si5 0.789137 0.178023 0.108245
Si Si6 0.427558 0.203023 0.310692
O O1 0.298122 0.192802 0.500000
O O2 0.250000 0.250000 0.648197
O O3 0.244551 0.115998 0.633323
O O4 0.360700 0.170031 0.654294
O O5 0.500000 0.288040 0.110215
O O6 0.366316 0.303987 0.110687
O O7 0.424671 0.205573 0.196289
O O8 0.423674 0.219918 0.000000
O O9 0.126118 0.902108 0.321922
O O10 0.219796 0.878088 0.190243
O O11 0.208710 0.000000 0.275985
O O12 0.092201 0.863413 0.500000
O O13 0.076657 0.781711 0.350986
O O14 0.000000 0.885358 0.377531
O O15 0.750000 0.250000 0.125856
O O16 0.772180 0.156203 0.000000
O O17 0.500000 0.176499 0.339174
#
# Coordination Sequence:
#
# PCOD9484227 Si02
#       6
#    16  16  16  16  16  16
#     4  11  21  35  55  77 104 140 183 231 274 318
#     4   9  16  27  48  77 106 134 166 210 261 314
#     4  12  24  36  53  78 111 148 181 218 271 327
#     4  10  20  34  52  76 107 144 185 225 265 314
#     4  10  20  36  58  80 104 138 180 223 267 316
#     4  10  18  31  54  81 107 134 175 231 281 321
#
# _framework density 17.285451999999999
#
# number of rings (size 3 to 8) (size 9 to 14) (size 15 to 20)
#    0.000    1.667    3.333    2.500    0.000    3.000 
#    0.000    0.833    0.000    0.500    0.000    4.667 
#    0.000    0.000    0.000   30.000    0.000    0.000 
#
# Total GULP energy -267456.063683 kJ/mol
# GULP energy per Si atom -5572.001327 kJ/mol
# Density = 1.724611 g / cm^3
# Si number density = 17.285452 Si / 1000 Ang^3
#
#
#
# Elastic Constant Matrix: (Units=GPa)
#
#
# Indices 1 2 3 4 5 6 
#
# 1 85.3542 20.3653 10.0976 0.0000 0.0000 0.0000
# 2 20.3653 55.8042 10.6812 0.0000 0.0000 0.0000
# 3 10.0976 10.6812 81.6068 0.0000 0.0000 0.0000
# 4 0.0000 0.0000 0.0000 5.6541 0.0000 0.0000
# 5 0.0000 0.0000 0.0000 0.0000 27.3760 0.0000
# 6 0.0000 0.0000 0.0000 0.0000 0.0000 11.6992
#
#
#
# Elastic Compliance Matrix: (Units=1/GPa)
#
#
# Indices 1 2 3 4 5 6 
#
# 1 0.012913 -0.004520 -0.001006 0.000000 0.000000 0.000000
# 2 -0.004520 0.019962 -0.002054 0.000000 0.000000 0.000000
# 3 -0.001006 -0.002054 0.012647 0.000000 0.000000 0.000000
# 4 0.000000 0.000000 0.000000 0.176862 0.000000 0.000000
# 5 0.000000 0.000000 0.000000 0.000000 0.036528 0.000000
# 6 0.000000 0.000000 0.000000 0.000000 0.000000 0.085476
#
#
# Mechanical properties :
#
#
# Convention : Reuss Voigt Hill
#
# Bulk Modulus (GPa) = 32.93439 33.89482 33.41460
# Shear Modulus (GPa) = 13.52557 21.05394 17.28975
#
# Velocity S-wave (km/s) = 2.80032 3.49379 3.16610
# Velocity P-wave (km/s) = 5.43602 5.99390 5.72177
#
# Compressibility (1/GPa) = 0.03036340
#
# Stress axis : x y z
#
# Youngs Moduli (GPa) = 77.43892 50.09415 79.06912
#
# Poissons Ratio (x) = 0.22643 0.07956
# Poissons Ratio (y) = 0.35003 0.16237
# Poissons Ratio (z) = 0.07792 0.10287
#
# Static dielectric constant tensor:
#      x y z
#    x 1.638960 0.000000 0.000000 
#    y 0.000000 1.549980 0.000000 
#    z 0.000000 0.000000 1.632450 
# 
# From -- ./inp_files/44102.got.cif
#   From: 2010.05.17/outbox.cif.g08.bks.cpg/sg65_23_cif.got.tgz:44102.got - 2010.06.03 17:01:31.
