data_PCOD9484554
_publ_section_title
;
Structure prediction by ZEFSAII (Michael W. Deem and Ramdas Pophale) SiO2 
 PCOD9484554
Probable space group: C M M M
;
_chemical_formula_sum "Si O2"
_cell_formula_units_Z 96
_cell_length_a 24.069014
_cell_length_b 9.271115
_cell_length_c 25.890531
_cell_angle_alpha 90.000000
_cell_angle_beta 90.000000
_cell_angle_gamma 90.000000
_cell_volume 5777.383880
_symmetry_space_group_name_H-M "C M M M"
_symmetry_group_IT_number 65
_symmetry_cell_setting 'orthorhombic'
loop_
_space_group_symop_operation_xyz
x,y,z
-x,-y,z
x,-y,-z
-x,y,-z
-x,-y,-z
x,y,-z
-x,y,z
x,-y,z
1/2+x,1/2+y,z
1/2-x,1/2-y,z
1/2+x,1/2-y,-z
1/2-x,1/2+y,-z
1/2-x,1/2-y,-z
1/2+x,1/2+y,-z
1/2-x,1/2+y,z
1/2+x,1/2-y,z
loop_
_atom_site_type_symbol
_atom_site_label
_atom_site_fract_x
_atom_site_fract_y
_atom_site_fract_z
Si Si1 0.000000 0.336230 0.282046
Si Si2 0.112876 0.673055 0.153767
Si Si3 0.690858 0.826135 0.252304
Si Si4 0.500000 0.328939 0.822439
Si Si5 0.191649 0.327636 0.941321
Si Si6 0.935327 0.826659 0.440678
Si Si7 0.886324 0.668364 0.653444
O O1 0.000000 0.219066 0.237452
O O2 0.055233 0.322431 0.315897
O O3 0.000000 0.500000 0.259467
O O4 0.103000 0.500000 0.154642
O O5 0.149668 0.707904 0.204576
O O6 0.147841 0.709958 0.102749
O O7 0.055399 0.757587 0.154774
O O8 0.750000 0.750000 0.246156
O O9 0.660840 0.783878 0.306045
O O10 0.697631 0.000000 0.252486
O O11 0.500000 0.500000 0.828155
O O12 0.200193 0.500000 0.938774
O O13 0.250000 0.250000 0.931637
O O14 0.173689 0.291974 0.000000
O O15 0.922577 0.786498 0.500000
O O16 0.895153 0.756753 0.398731
O O17 0.000000 0.784326 0.430729
O O18 0.933022 0.000000 0.436996
O O19 0.876844 0.500000 0.641385
#
# Coordination Sequence:
#
# PCOD9484554 Si02
#       7
#     8  16  16   8  16  16  16
#     4  10  18  34  53  72 105 141 170 204 258 315
#     4  10  20  37  56  74 107 145 172 209 261 315
#     4  10  21  35  52  75 102 135 171 210 258 306
#     4  12  24  34  51  80 107 135 178 218 256 311
#     4   9  18  33  56  83 107 138 180 221 263 309
#     4   9  18  31  47  72 106 137 165 204 256 304
#     4  10  19  32  52  75 101 134 171 207 249 307
#
# _framework density 16.616517999999999
#
# number of rings (size 3 to 8) (size 9 to 14) (size 15 to 20)
#    0.000    2.167    2.500    1.750    0.000    3.000 
#    0.000    1.250    0.000    3.000    0.000    0.000 
#    0.000    0.000    0.000    0.000    0.000    0.000 
#
# Total GULP energy -267757.712184 kJ/mol
# GULP energy per Si atom -5578.285671 kJ/mol
# Density = 1.657870 g / cm^3
# Si number density = 16.616518 Si / 1000 Ang^3
#
#
#
# Elastic Constant Matrix: (Units=GPa)
#
#
# Indices 1 2 3 4 5 6 
#
# 1 120.0952 53.6359 76.8458 0.0000 0.0000 0.0000
# 2 53.6359 43.2257 57.6005 0.0000 0.0000 0.0000
# 3 76.8458 57.6005 134.3370 0.0000 0.0000 0.0000
# 4 0.0000 0.0000 0.0000 21.2022 0.0000 0.0000
# 5 0.0000 0.0000 0.0000 0.0000 15.2598 0.0000
# 6 0.0000 0.0000 0.0000 0.0000 0.0000 29.4697
#
#
#
# Elastic Compliance Matrix: (Units=1/GPa)
#
#
# Indices 1 2 3 4 5 6 
#
# 1 0.018854 -0.021050 -0.001759 0.000000 0.000000 0.000000
# 2 -0.021050 0.077475 -0.021178 0.000000 0.000000 0.000000
# 3 -0.001759 -0.021178 0.017531 0.000000 0.000000 0.000000
# 4 0.000000 0.000000 0.000000 0.047165 0.000000 0.000000
# 5 0.000000 0.000000 0.000000 0.000000 0.065532 0.000000
# 6 0.000000 0.000000 0.000000 0.000000 0.000000 0.033933
#
#
# Mechanical properties :
#
#
# Convention : Reuss Voigt Hill
#
# Bulk Modulus (GPa) = 38.63255 74.86916 56.75085
# Shear Modulus (GPa) = 14.00202 20.49137 17.24670
#
# Velocity S-wave (km/s) = 2.90600 3.51549 3.22518
# Velocity P-wave (km/s) = 5.87876 7.85068 6.93516
#
# Compressibility (1/GPa) = 0.02588491
#
# Stress axis : x y z
#
# Youngs Moduli (GPa) = 53.04047 12.90747 57.04196
#
# Poissons Ratio (x) = 0.27170 0.10035
# Poissons Ratio (y) = 1.11649 1.20803
# Poissons Ratio (z) = 0.09331 0.27335
#
# Static dielectric constant tensor:
#      x y z
#    x 1.537610 0.000000 0.000000 
#    y 0.000000 1.555340 0.000000 
#    z 0.000000 0.000000 1.564760 
# 
# From -- ./inp_files/71472.got.cif
#   From: 2010.05.17/outbox.cif.g08.bks.cpg/sg65_36_cif.got.tgz:71472.got - 2010.06.03 17:01:31.
