data_PCOD9484388
_publ_section_title
;
Structure prediction by ZEFSAII (Michael W. Deem and Ramdas Pophale) SiO2 
 PCOD9484388
Probable space group: C M M M
;
_chemical_formula_sum "Si O2"
_cell_formula_units_Z 88
_cell_length_a 13.029160
_cell_length_b 26.159934
_cell_length_c 15.587522
_cell_angle_alpha 90.000000
_cell_angle_beta 90.000000
_cell_angle_gamma 90.000000
_cell_volume 5312.881638
_symmetry_space_group_name_H-M "C M M M"
_symmetry_group_IT_number 65
_symmetry_cell_setting 'orthorhombic'
loop_
_space_group_symop_operation_xyz
x,y,z
-x,-y,z
x,-y,-z
-x,y,-z
-x,-y,-z
x,y,-z
-x,y,z
x,-y,z
1/2+x,1/2+y,z
1/2-x,1/2-y,z
1/2+x,1/2-y,-z
1/2-x,1/2+y,-z
1/2-x,1/2-y,-z
1/2+x,1/2+y,-z
1/2-x,1/2+y,z
1/2+x,1/2-y,z
loop_
_atom_site_type_symbol
_atom_site_label
_atom_site_fract_x
_atom_site_fract_y
_atom_site_fract_z
Si Si1 0.115610 0.644979 0.398900
Si Si2 0.702132 0.303369 0.706109
Si Si3 0.682360 0.401032 0.184296
Si Si4 0.500000 0.440588 0.696885
Si Si5 0.500000 0.668858 0.603349
Si Si6 0.876888 0.940524 0.000000
Si Si7 0.613699 0.059886 0.733532
O O1 0.130579 0.644200 0.500000
O O2 0.205849 0.674831 0.352501
O O3 0.120632 0.588960 0.356920
O O4 0.000000 0.665161 0.381331
O O5 0.750000 0.250000 0.736525
O O6 0.678269 0.342489 0.783511
O O7 0.600230 0.304968 0.646645
O O8 0.599652 0.431339 0.243074
O O9 0.658471 0.412228 0.086027
O O10 0.795572 0.420390 0.207229
O O11 0.500000 0.500000 0.665518
O O12 0.500000 0.392170 0.630421
O O13 0.500000 0.673510 0.500000
O O14 0.000000 0.941365 0.000000
O O15 0.841644 0.000000 0.000000
O O16 0.500000 0.071211 0.769091
O O17 0.623591 0.000000 0.721395
#
# Coordination Sequence:
#
# PCOD9484388 Si02
#       7
#    16  16  16   8   8   8  16
#     4   9  18  31  48  73 101 132 178 225 260 304
#     4  10  22  38  54  73 102 144 179 222 275 314
#     4  10  20  35  53  80 109 135 174 218 260 326
#     4  10  18  32  54  78 113 149 172 210 277 337
#     4  10  22  35  51  81 110 138 189 234 266 319
#     4  11  20  32  58  91 115 133 161 208 267 324
#     4   9  17  30  48  70 102 143 176 207 253 309
#
# _framework density 16.563516
#
# number of rings (size 3 to 8) (size 9 to 14) (size 15 to 20)
#    0.000    2.273    0.909    2.182    1.273    2.000 
#    0.000    2.727    0.000    8.182    0.000    0.000 
#    0.000    0.000    0.000    0.000    0.000    0.000 
#
# Total GULP energy -245149.138151 kJ/mol
# GULP energy per Si atom -5571.571322 kJ/mol
# Density = 1.652582 g / cm^3
# Si number density = 16.563516 Si / 1000 Ang^3
#
#
#
# Elastic Constant Matrix: (Units=GPa)
#
#
# Indices 1 2 3 4 5 6 
#
# 1 87.5069 38.6308 35.2097 0.0000 0.0000 0.0000
# 2 38.6308 87.1097 28.0957 0.0000 0.0000 0.0000
# 3 35.2097 28.0957 68.9592 0.0000 0.0000 0.0000
# 4 0.0000 0.0000 0.0000 -0.8366 0.0000 0.0000
# 5 0.0000 0.0000 0.0000 0.0000 18.2873 0.0000
# 6 0.0000 0.0000 0.0000 0.0000 0.0000 24.2985
#
#
#
# Elastic Compliance Matrix: (Units=1/GPa)
#
#
# Indices 1 2 3 4 5 6 
#
# 1 0.016198 -0.005199 -0.006152 0.000000 0.000000 0.000000
# 2 -0.005199 0.014885 -0.003410 0.000000 0.000000 0.000000
# 3 -0.006152 -0.003410 0.019032 0.000000 0.000000 0.000000
# 4 0.000000 0.000000 0.000000 -1.195288 0.000000 0.000000
# 5 0.000000 0.000000 0.000000 0.000000 0.054683 0.000000
# 6 0.000000 0.000000 0.000000 0.000000 0.000000 0.041155
#
#
# Mechanical properties :
#
#
# Convention : Reuss Voigt Hill
#
# Bulk Modulus (GPa) = 48.56141 49.71646 49.13893
# Shear Modulus (GPa) = -4.93609 17.79245 6.42818
#
# Velocity S-wave (km/s) = -1.72817 3.28105 1.97214
# Velocity P-wave (km/s) = 5.03983 6.66592 5.90908
#
# Compressibility (1/GPa) = 0.02059248
#
# Stress axis : x y z
#
# Youngs Moduli (GPa) = 61.73430 67.18018 52.54304
#
# Poissons Ratio (x) = 0.34928 0.32327
# Poissons Ratio (y) = 0.32097 0.17917
# Poissons Ratio (z) = 0.37982 0.22909
#
# Static dielectric constant tensor:
#      x y z
#    x 1.570280 0.000000 0.000000 
#    y 0.000000 1.591350 0.000000 
#    z 0.000000 0.000000 1.511170 
# 
# From -- ./inp_files/38679.got.cif
#   From: 2010.05.17/outbox.cif.g08.bks.cpg/sg65_20_cif.got.tgz:38679.got - 2010.06.03 17:01:31.
