data_PCOD9484754
_publ_section_title
;
Structure prediction by ZEFSAII (Michael W. Deem and Ramdas Pophale) SiO2 
 PCOD9484754
Probable space group: C M M M
;
_chemical_formula_sum "Si O2"
_cell_formula_units_Z 80
_cell_length_a 7.316888
_cell_length_b 16.484032
_cell_length_c 29.622098
_cell_angle_alpha 90.000000
_cell_angle_beta 90.000000
_cell_angle_gamma 90.000000
_cell_volume 3572.775032
_symmetry_space_group_name_H-M "C M M M"
_symmetry_group_IT_number 65
_symmetry_cell_setting 'orthorhombic'
loop_
_space_group_symop_operation_xyz
x,y,z
-x,-y,z
x,-y,-z
-x,y,-z
-x,-y,-z
x,y,-z
-x,y,z
x,-y,z
1/2+x,1/2+y,z
1/2-x,1/2-y,z
1/2+x,1/2-y,-z
1/2-x,1/2+y,-z
1/2-x,1/2-y,-z
1/2+x,1/2+y,-z
1/2-x,1/2+y,z
1/2+x,1/2-y,z
loop_
_atom_site_type_symbol
_atom_site_label
_atom_site_fract_x
_atom_site_fract_y
_atom_site_fract_z
Si Si1 0.776746 0.000000 0.447925
Si Si2 0.717155 0.654471 0.288304
Si Si3 0.216690 0.155664 0.000000
Si Si4 0.221051 0.904554 0.096250
Si Si5 0.781307 0.153286 0.611413
Si Si6 0.213959 0.902677 0.192838
O O1 0.717882 0.083503 0.423037
O O2 0.720310 0.000000 0.500000
O O3 0.000000 0.000000 0.447142
O O4 0.500000 0.635668 0.288779
O O5 0.750000 0.750000 0.285929
O O6 0.787455 0.631617 0.338030
O O7 0.793014 0.620390 0.241375
O O8 0.250000 0.250000 0.000000
O O9 0.290005 0.126052 0.951814
O O10 0.000000 0.134970 0.000000
O O11 0.288055 0.870866 0.144692
O O12 0.000000 0.893568 0.096675
O O13 0.257457 0.000000 0.096408
O O14 0.750000 0.250000 0.601895
O O15 0.000000 0.146700 0.612713
O O16 0.000000 0.878070 0.194010
O O17 0.220107 0.000000 0.190299
#
# Coordination Sequence:
#
# PCOD9484754 Si02
#       6
#     8  16   8  16  16  16
#     4   9  18  32  51  75  99 127 165 204 242 284
#     4   9  17  28  44  66  91 118 147 180 222 269
#     4  10  19  29  43  63  85 108 138 174 216 260
#     4   8  14  26  43  62  82 107 142 181 215 250
#     4   9  18  32  50  72  99 129 162 199 241 287
#     4   8  14  24  41  65  87 107 140 184 220 251
#
# _framework density 22.391558
#
# number of rings (size 3 to 8) (size 9 to 14) (size 15 to 20)
#    0.000    3.300    0.000    1.500    1.400    2.400 
#    0.000    0.500    0.000    2.400    0.000    2.800 
#    0.000    0.000    0.000    0.000    0.000    0.000 
#
# Total GULP energy -222767.981403 kJ/mol
# GULP energy per Si atom -5569.199535 kJ/mol
# Density = 2.234059 g / cm^3
# Si number density = 22.391558 Si / 1000 Ang^3
#
#
#
# Elastic Constant Matrix: (Units=GPa)
#
#
# Indices 1 2 3 4 5 6 
#
# 1 91.9074 -0.0106 15.2930 0.0000 0.0000 0.0000
# 2 -0.0106 73.6919 115.7555 0.0000 0.0000 0.0000
# 3 15.2930 115.7555 292.1096 0.0000 0.0000 0.0000
# 4 0.0000 0.0000 0.0000 298.0597 0.0000 0.0000
# 5 0.0000 0.0000 0.0000 0.0000 -4.3366 0.0000
# 6 0.0000 0.0000 0.0000 0.0000 0.0000 13.3876
#
#
#
# Elastic Compliance Matrix: (Units=1/GPa)
#
#
# Indices 1 2 3 4 5 6 
#
# 1 0.011138 0.002430 -0.001546 0.000000 0.000000 0.000000
# 2 0.002430 0.036474 -0.014581 0.000000 0.000000 0.000000
# 3 -0.001546 -0.014581 0.009282 0.000000 0.000000 0.000000
# 4 0.000000 0.000000 0.000000 0.003355 0.000000 0.000000
# 5 0.000000 0.000000 0.000000 0.000000 -0.230594 0.000000
# 6 0.000000 0.000000 0.000000 0.000000 0.000000 0.074696
#
#
# Mechanical properties :
#
#
# Convention : Reuss Voigt Hill
#
# Bulk Modulus (GPa) = 33.89701 79.97611 56.93656
# Shear Modulus (GPa) = -85.58644 83.20021 -1.19311
#
# Velocity S-wave (km/s) = -6.18915 6.10226 -0.73075
# Velocity P-wave (km/s) = 5.99191 9.24363 4.97704
#
# Compressibility (1/GPa) = 0.02950112
#
# Stress axis : x y z
#
# Youngs Moduli (GPa) = 89.78208 27.41643 107.73012
#
# Poissons Ratio (x) = -0.06663 0.16658
# Poissons Ratio (y) = -0.21821 1.57083
# Poissons Ratio (z) = 0.13882 0.39976
#
# Static dielectric constant tensor:
#      x y z
#    x 1.857440 0.000000 0.000000 
#    y 0.000000 1.769490 0.000000 
#    z 0.000000 0.000000 1.940800 
# 
# From -- ./inp_files/74193.got.cif
#   From: 2010.05.17/outbox.cif.g08.bks.cpg/sg65_38_cif.got.tgz:74193.got - 2010.06.03 17:01:31.
