data_PCOD9484732
_publ_section_title
;
Structure prediction by ZEFSAII (Michael W. Deem and Ramdas Pophale) SiO2 
 PCOD9484732
Probable space group: C M M M
;
_chemical_formula_sum "Si O2"
_cell_formula_units_Z 72
_cell_length_a 29.328586
_cell_length_b 8.644961
_cell_length_c 18.950581
_cell_angle_alpha 90.000000
_cell_angle_beta 90.000000
_cell_angle_gamma 90.000000
_cell_volume 4804.815246
_symmetry_space_group_name_H-M "C M M M"
_symmetry_group_IT_number 65
_symmetry_cell_setting 'orthorhombic'
loop_
_space_group_symop_operation_xyz
x,y,z
-x,-y,z
x,-y,-z
-x,y,-z
-x,-y,-z
x,y,-z
-x,y,z
x,-y,z
1/2+x,1/2+y,z
1/2-x,1/2-y,z
1/2+x,1/2-y,-z
1/2-x,1/2+y,-z
1/2-x,1/2-y,-z
1/2+x,1/2+y,-z
1/2-x,1/2+y,z
1/2+x,1/2-y,z
loop_
_atom_site_type_symbol
_atom_site_label
_atom_site_fract_x
_atom_site_fract_y
_atom_site_fract_z
Si Si1 0.857147 0.313548 0.361483
Si Si2 0.448463 0.686438 0.418058
Si Si3 0.301054 0.187041 0.500000
Si Si4 0.698507 0.814321 0.223538
Si Si5 0.198325 0.814541 0.923018
O O1 0.858037 0.500000 0.362080
O O2 0.908228 0.253016 0.370959
O O3 0.828037 0.262324 0.429865
O O4 0.831916 0.264353 0.289945
O O5 0.440930 0.733959 0.500000
O O6 0.500000 0.733857 0.398415
O O7 0.446817 0.500000 0.416288
O O8 0.250000 0.250000 0.500000
O O9 0.299567 0.000000 0.500000
O O10 0.750000 0.750000 0.231400
O O11 0.678677 0.755193 0.148870
O O12 0.701069 0.000000 0.222042
O O13 0.250000 0.750000 0.924511
O O14 0.199809 0.000000 0.917371
O O15 0.177793 0.774488 0.000000
#
# Coordination Sequence:
#
# PCOD9484732 Si02
#       5
#    16  16   8  16  16
#     4  10  20  32  45  63  87 115 148 183 218 259
#     4   9  18  32  49  68  86 106 139 182 226 269
#     4  10  20  32  43  58  83 115 152 185 211 246
#     4  10  19  29  42  62  88 118 151 183 216 255
#     4   9  16  26  41  60  82 111 146 180 216 257
#
# _framework density 14.984966999999999
#
# number of rings (size 3 to 8) (size 9 to 14) (size 15 to 20)
#    0.000    2.444    1.111    4.000    0.000    4.444 
#    0.000    1.111    0.000    0.000    0.000    0.000 
#    0.000    0.889    0.000    9.778    0.000    7.111 
#
# Total GULP energy -200595.043091 kJ/mol
# GULP energy per Si atom -5572.084530 kJ/mol
# Density = 1.495086 g / cm^3
# Si number density = 14.984967 Si / 1000 Ang^3
#
#
#
# Elastic Constant Matrix: (Units=GPa)
#
#
# Indices 1 2 3 4 5 6 
#
# 1 89.7020 18.2033 63.6965 0.0000 0.0000 0.0000
# 2 18.2033 25.6218 33.3772 0.0000 0.0000 0.0000
# 3 63.6965 33.3772 155.2103 0.0000 0.0000 0.0000
# 4 0.0000 0.0000 0.0000 20.8889 0.0000 0.0000
# 5 0.0000 0.0000 0.0000 0.0000 5.7110 0.0000
# 6 0.0000 0.0000 0.0000 0.0000 0.0000 23.0000
#
#
#
# Elastic Compliance Matrix: (Units=1/GPa)
#
#
# Indices 1 2 3 4 5 6 
#
# 1 0.016010 -0.003911 -0.005729 0.000000 0.000000 0.000000
# 2 -0.003911 0.055173 -0.010260 0.000000 0.000000 0.000000
# 3 -0.005729 -0.010260 0.011000 0.000000 0.000000 0.000000
# 4 0.000000 0.000000 0.000000 0.047872 0.000000 0.000000
# 5 0.000000 0.000000 0.000000 0.000000 0.175100 0.000000
# 6 0.000000 0.000000 0.000000 0.000000 0.000000 0.043478
#
#
# Mechanical properties :
#
#
# Convention : Reuss Voigt Hill
#
# Bulk Modulus (GPa) = 23.59409 55.67645 39.63527
# Shear Modulus (GPa) = 12.42046 20.27046 16.34546
#
# Velocity S-wave (km/s) = 2.88212 3.68192 3.30629
# Velocity P-wave (km/s) = 5.18216 7.43713 6.40959
#
# Compressibility (1/GPa) = 0.04238350
#
# Stress axis : x y z
#
# Youngs Moduli (GPa) = 62.46097 18.12480 90.90597
#
# Poissons Ratio (x) = 0.07089 0.52082
# Poissons Ratio (y) = 0.24429 0.93266
# Poissons Ratio (z) = 0.35786 0.18595
#
# Static dielectric constant tensor:
#      x y z
#    x 1.466050 0.000000 0.000000 
#    y 0.000000 1.508820 0.000000 
#    z 0.000000 0.000000 1.533980 
# 
# From -- ./inp_files/57126.got.cif
#   From: 2010.05.17/outbox.cif.g08.bks.cpg/sg65_29_cif.got.tgz:57126.got - 2010.06.03 17:01:31.
