data_PCOD9484084
_publ_section_title
;
Structure prediction by ZEFSAII (Michael W. Deem and Ramdas Pophale) SiO2 
 PCOD9484084
Probable space group: C M M M
;
_chemical_formula_sum "Si O2"
_cell_formula_units_Z 88
_cell_length_a 26.850816
_cell_length_b 7.995269
_cell_length_c 23.171485
_cell_angle_alpha 90.000000
_cell_angle_beta 90.000000
_cell_angle_gamma 90.000000
_cell_volume 4974.442740
_symmetry_space_group_name_H-M "C M M M"
_symmetry_group_IT_number 65
_symmetry_cell_setting 'orthorhombic'
loop_
_space_group_symop_operation_xyz
x,y,z
-x,-y,z
x,-y,-z
-x,y,-z
-x,-y,-z
x,y,-z
-x,y,z
x,-y,z
1/2+x,1/2+y,z
1/2-x,1/2-y,z
1/2+x,1/2-y,-z
1/2-x,1/2+y,-z
1/2-x,1/2-y,-z
1/2+x,1/2+y,-z
1/2-x,1/2+y,z
1/2+x,1/2-y,z
loop_
_atom_site_type_symbol
_atom_site_label
_atom_site_fract_x
_atom_site_fract_y
_atom_site_fract_z
Si Si1 0.907810 0.804067 0.235200
Si Si2 0.695243 0.200838 0.185862
Si Si3 0.160307 0.301148 0.937656
Si Si4 0.439197 0.500000 0.433412
Si Si5 0.444549 0.297342 0.890702
Si Si6 0.060008 0.316524 0.641275
O O1 0.849457 0.778134 0.222609
O O2 0.934957 0.747531 0.176149
O O3 0.923876 0.711396 0.292788
O O4 0.919333 0.000000 0.242976
O O5 0.750000 0.250000 0.205620
O O6 0.687327 0.264069 0.119753
O O7 0.689557 0.000000 0.186473
O O8 0.168898 0.500000 0.938951
O O9 0.101481 0.271302 0.927187
O O10 0.175211 0.230170 0.000000
O O11 0.500000 0.500000 0.433045
O O12 0.423575 0.500000 0.500000
O O13 0.422517 0.664759 0.398893
O O14 0.500000 0.246138 0.908881
O O15 0.441919 0.500000 0.892905
O O16 0.076482 0.500000 0.621277
O O17 0.000000 0.312869 0.640207
#
# Coordination Sequence:
#
# PCOD9484084 Si02
#       6
#    16  16  16   8  16  16
#     4  10  18  31  50  70  96 128 160 203 251 301
#     4  10  20  34  50  69  92 119 152 197 255 309
#     4   9  19  34  48  63  86 117 155 196 240 296
#     4   9  18  32  48  70 106 148 183 215 247 281
#     4   9  18  30  45  66  91 120 154 194 241 290
#     4  10  19  30  48  75 105 141 180 214 249 291
#
# _framework density 17.690422999999999
#
# number of rings (size 3 to 8) (size 9 to 14) (size 15 to 20)
#    0.000    2.455    0.909    1.636    0.000    4.000 
#    0.000    3.636    0.000    0.000    0.000    0.000 
#    0.000    0.727    0.364    0.000    0.000    0.000 
#
# Total GULP energy -245471.959282 kJ/mol
# GULP energy per Si atom -5578.908166 kJ/mol
# Density = 1.765016 g / cm^3
# Si number density = 17.690423 Si / 1000 Ang^3
#
#
#
# Elastic Constant Matrix: (Units=GPa)
#
#
# Indices 1 2 3 4 5 6 
#
# 1 24.2455 -7.7611 -25.2654 0.0000 0.0000 0.0000
# 2 -7.7611 68.4749 33.4552 0.0000 0.0000 0.0000
# 3 -25.2654 33.4552 63.8463 0.0000 0.0000 0.0000
# 4 0.0000 0.0000 0.0000 12.3898 0.0000 0.0000
# 5 0.0000 0.0000 0.0000 0.0000 -0.8107 0.0000
# 6 0.0000 0.0000 0.0000 0.0000 0.0000 18.4337
#
#
#
# Elastic Compliance Matrix: (Units=1/GPa)
#
#
# Indices 1 2 3 4 5 6 
#
# 1 0.073215 -0.007873 0.033098 0.000000 0.000000 0.000000
# 2 -0.007873 0.020476 -0.013845 0.000000 0.000000 0.000000
# 3 0.033098 -0.013845 0.036015 0.000000 0.000000 0.000000
# 4 0.000000 0.000000 0.000000 0.080712 0.000000 0.000000
# 5 0.000000 0.000000 0.000000 0.000000 -1.233543 0.000000
# 6 0.000000 0.000000 0.000000 0.000000 0.000000 0.054248
#
#
# Mechanical properties :
#
#
# Convention : Reuss Voigt Hill
#
# Bulk Modulus (GPa) = 6.55880 17.49157 12.02518
# Shear Modulus (GPa) = -5.31453 16.41176 5.54862
#
# Velocity S-wave (km/s) = -1.73514 3.04915 1.77294
# Velocity P-wave (km/s) = 0.54652 4.72287 3.31714
#
# Compressibility (1/GPa) = 0.15246695
#
# Stress axis : x y z
#
# Youngs Moduli (GPa) = 13.65843 48.83833 27.76647
#
# Poissons Ratio (x) = 0.38448 -0.91901
# Poissons Ratio (y) = 0.10753 0.38441
# Poissons Ratio (z) = -0.45207 0.67614
#
# Static dielectric constant tensor:
#      x y z
#    x 1.584380 0.000000 0.000000 
#    y 0.000000 1.641720 0.000000 
#    z 0.000000 0.000000 1.596420 
# 
# From -- ./inp_files/65755.got.cif
#   From: 2010.05.17/outbox.cif.g08.bks.cpg/sg65_33_cif.got.tgz:65755.got - 2010.06.03 17:01:31.
