data_PCOD9484497
_publ_section_title
;
Structure prediction by ZEFSAII (Michael W. Deem and Ramdas Pophale) SiO2 
 PCOD9484497
Probable space group: C M M M
;
_chemical_formula_sum "Si O2"
_cell_formula_units_Z 88
_cell_length_a 7.715580
_cell_length_b 23.863089
_cell_length_c 25.990145
_cell_angle_alpha 90.000000
_cell_angle_beta 90.000000
_cell_angle_gamma 90.000000
_cell_volume 4785.242399
_symmetry_space_group_name_H-M "C M M M"
_symmetry_group_IT_number 65
_symmetry_cell_setting 'orthorhombic'
loop_
_space_group_symop_operation_xyz
x,y,z
-x,-y,z
x,-y,-z
-x,y,-z
-x,-y,-z
x,y,-z
-x,y,z
x,-y,z
1/2+x,1/2+y,z
1/2-x,1/2-y,z
1/2+x,1/2-y,-z
1/2-x,1/2+y,-z
1/2-x,1/2-y,-z
1/2+x,1/2+y,-z
1/2-x,1/2+y,z
1/2+x,1/2-y,z
loop_
_atom_site_type_symbol
_atom_site_label
_atom_site_fract_x
_atom_site_fract_y
_atom_site_fract_z
Si Si1 0.206103 0.432800 0.861056
Si Si2 0.500000 0.567638 0.058210
Si Si3 0.205075 0.125878 0.444704
Si Si4 0.206442 0.610025 0.247251
Si Si5 0.294436 0.685024 0.341304
Si Si6 0.291963 0.000000 0.422665
Si Si7 0.712128 0.000000 0.695624
O O1 0.227548 0.500000 0.849160
O O2 0.328463 0.418316 0.908978
O O3 0.264033 0.395951 0.811751
O O4 0.000000 0.424825 0.870890
O O5 0.500000 0.500000 0.054996
O O6 0.500000 0.589810 0.000000
O O7 0.276565 0.146693 0.500000
O O8 0.277771 0.151330 0.391274
O O9 0.227411 0.058877 0.444077
O O10 0.000000 0.138324 0.444744
O O11 0.237489 0.661225 0.285834
O O12 0.275955 0.555538 0.276763
O O13 0.000000 0.603660 0.243572
O O14 0.500000 0.678056 0.342067
O O15 0.250000 0.750000 0.346598
O O16 0.500000 0.000000 0.427130
O O17 0.237948 0.000000 0.363271
O O18 0.500000 0.000000 0.697087
#
# Coordination Sequence:
#
# PCOD9484497 Si02
#       7
#    16   8  16  16  16   8   8
#     4   9  17  29  48  75 107 147 188 224 267 316
#     4   9  18  30  44  70 112 156 193 227 259 304
#     4  10  22  39  55  73 101 134 169 212 263 321
#     4  10  18  33  54  77 106 137 170 216 268 319
#     4  11  24  39  55  74  97 133 173 217 272 325
#     4  11  20  32  53  82 106 128 165 208 261 315
#     4   9  16  28  50  77 104 131 162 206 264 320
#
# _framework density 18.389872
#
# number of rings (size 3 to 8) (size 9 to 14) (size 15 to 20)
#    0.000    2.091    2.727    1.091    1.273    2.909 
#    0.000    2.273    0.000    0.000    0.000    0.000 
#    0.000    0.727    0.364    0.000    0.000    0.000 
#
# Total GULP energy -245262.407163 kJ/mol
# GULP energy per Si atom -5574.145617 kJ/mol
# Density = 1.834802 g / cm^3
# Si number density = 18.389872 Si / 1000 Ang^3
#
#
#
# Elastic Constant Matrix: (Units=GPa)
#
#
# Indices 1 2 3 4 5 6 
#
# 1 49.5336 -3.2042 43.0962 0.0000 0.0000 0.0000
# 2 -3.2042 66.7815 44.0635 0.0000 0.0000 0.0000
# 3 43.0962 44.0635 186.7637 0.0000 0.0000 0.0000
# 4 0.0000 0.0000 0.0000 10.4963 0.0000 0.0000
# 5 0.0000 0.0000 0.0000 0.0000 4.6835 0.0000
# 6 0.0000 0.0000 0.0000 0.0000 0.0000 3.6904
#
#
#
# Elastic Compliance Matrix: (Units=1/GPa)
#
#
# Indices 1 2 3 4 5 6 
#
# 1 0.027459 0.006512 -0.007873 0.000000 0.000000 0.000000
# 2 0.006512 0.019279 -0.006051 0.000000 0.000000 0.000000
# 3 -0.007873 -0.006051 0.008599 0.000000 0.000000 0.000000
# 4 0.000000 0.000000 0.000000 0.095271 0.000000 0.000000
# 5 0.000000 0.000000 0.000000 0.000000 0.213514 0.000000
# 6 0.000000 0.000000 0.000000 0.000000 0.000000 0.270974
#
#
# Mechanical properties :
#
#
# Convention : Reuss Voigt Hill
#
# Bulk Modulus (GPa) = 24.68328 52.33218 38.50773
# Shear Modulus (GPa) = 7.53665 18.38227 12.95946
#
# Velocity S-wave (km/s) = 2.02661 3.16505 2.65751
# Velocity P-wave (km/s) = 4.35058 6.47114 5.51376
#
# Compressibility (1/GPa) = 0.04051326
#
# Stress axis : x y z
#
# Youngs Moduli (GPa) = 36.41788 51.86888 116.29697
#
# Poissons Ratio (x) = -0.33777 0.91556
# Poissons Ratio (y) = -0.23715 0.70374
# Poissons Ratio (z) = 0.28670 0.31387
#
# Static dielectric constant tensor:
#      x y z
#    x 1.665240 0.000000 0.000000 
#    y 0.000000 1.598590 0.000000 
#    z 0.000000 0.000000 1.677180 
# 
# From -- ./inp_files/67621.got.cif
#   From: 2010.05.17/outbox.cif.g08.bks.cpg/sg65_34_cif.got.tgz:67621.got - 2010.06.03 17:01:31.
