data_PCOD9484223
_publ_section_title
;
Structure prediction by ZEFSAII (Michael W. Deem and Ramdas Pophale) SiO2 
 PCOD9484223
Probable space group: C M M M
;
_chemical_formula_sum "Si O2"
_cell_formula_units_Z 80
_cell_length_a 8.623769
_cell_length_b 28.234898
_cell_length_c 17.388569
_cell_angle_alpha 90.000000
_cell_angle_beta 90.000000
_cell_angle_gamma 90.000000
_cell_volume 4233.964194
_symmetry_space_group_name_H-M "C M M M"
_symmetry_group_IT_number 65
_symmetry_cell_setting 'orthorhombic'
loop_
_space_group_symop_operation_xyz
x,y,z
-x,-y,z
x,-y,-z
-x,y,-z
-x,-y,-z
x,y,-z
-x,y,z
x,-y,z
1/2+x,1/2+y,z
1/2-x,1/2-y,z
1/2+x,1/2-y,-z
1/2-x,1/2+y,-z
1/2-x,1/2-y,-z
1/2+x,1/2+y,-z
1/2-x,1/2+y,z
1/2+x,1/2-y,z
loop_
_atom_site_type_symbol
_atom_site_label
_atom_site_fract_x
_atom_site_fract_y
_atom_site_fract_z
Si Si1 0.187366 0.303367 0.336225
Si Si2 0.676440 0.942585 0.500000
Si Si3 0.686479 0.446788 0.910869
Si Si4 0.675119 0.556669 0.660446
Si Si5 0.186095 0.803971 0.500000
Si Si6 0.679304 0.118473 0.216637
O O1 0.250000 0.250000 0.327718
O O2 0.250808 0.322777 0.418220
O O3 0.237457 0.335282 0.263274
O O4 0.000000 0.303316 0.340017
O O5 0.500000 0.924074 0.500000
O O6 0.771725 0.929970 0.575397
O O7 0.665739 0.000000 0.500000
O O8 0.500000 0.447536 0.908247
O O9 0.738438 0.500000 0.885010
O O10 0.741508 0.403590 0.858334
O O11 0.733725 0.441363 0.000000
O O12 0.500000 0.573421 0.677531
O O13 0.674187 0.500000 0.665478
O O14 0.795528 0.577787 0.719949
O O15 0.250000 0.750000 0.500000
O O16 0.000000 0.804739 0.500000
O O17 0.500000 0.126311 0.199255
#
# Coordination Sequence:
#
# PCOD9484223 Si02
#       6
#    16   8  16  16   8  16
#     4  10  21  37  55  77 107 142 181 226 273 319
#     4   9  17  30  47  66  94 134 175 216 261 304
#     4   9  19  37  60  85 113 144 177 214 259 316
#     4  10  20  33  49  70  99 136 176 214 253 305
#     4  10  18  31  54  79 103 137 180 225 274 322
#     4  11  23  35  52  80 109 137 172 218 269 317
#
# _framework density 18.894822000000001
#
# number of rings (size 3 to 8) (size 9 to 14) (size 15 to 20)
#    0.000    2.100    0.000    5.400    0.000    9.600 
#    0.000    2.000    0.000    0.600    0.000    0.000 
#    0.000    0.000    0.000    0.000    0.000    0.000 
#
# Total GULP energy -223172.919767 kJ/mol
# GULP energy per Si atom -5579.322994 kJ/mol
# Density = 1.885182 g / cm^3
# Si number density = 18.894822 Si / 1000 Ang^3
#
#
#
# Elastic Constant Matrix: (Units=GPa)
#
#
# Indices 1 2 3 4 5 6 
#
# 1 46.1862 25.3771 17.7305 0.0000 0.0000 0.0000
# 2 25.3771 105.7569 54.1531 0.0000 0.0000 0.0000
# 3 17.7305 54.1531 108.7032 0.0000 0.0000 0.0000
# 4 0.0000 0.0000 0.0000 41.7334 0.0000 0.0000
# 5 0.0000 0.0000 0.0000 0.0000 36.2065 0.0000
# 6 0.0000 0.0000 0.0000 0.0000 0.0000 21.1679
#
#
#
# Elastic Compliance Matrix: (Units=1/GPa)
#
#
# Indices 1 2 3 4 5 6 
#
# 1 0.025113 -0.005274 -0.001469 0.000000 0.000000 0.000000
# 2 -0.005274 0.013801 -0.006015 0.000000 0.000000 0.000000
# 3 -0.001469 -0.006015 0.012436 0.000000 0.000000 0.000000
# 4 0.000000 0.000000 0.000000 0.023962 0.000000 0.000000
# 5 0.000000 0.000000 0.000000 0.000000 0.027619 0.000000
# 6 0.000000 0.000000 0.000000 0.000000 0.000000 0.047241
#
#
# Mechanical properties :
#
#
# Convention : Reuss Voigt Hill
#
# Bulk Modulus (GPa) = 38.70871 50.57421 44.64146
# Shear Modulus (GPa) = 27.12973 30.71393 28.92183
#
# Velocity S-wave (km/s) = 3.79334 4.03615 3.91663
# Velocity P-wave (km/s) = 6.30213 6.96742 6.64311
#
# Compressibility (1/GPa) = 0.02583398
#
# Stress axis : x y z
#
# Youngs Moduli (GPa) = 39.81976 72.45700 80.41454
#
# Poissons Ratio (x) = 0.38214 0.11812
# Poissons Ratio (y) = 0.21001 0.48371
# Poissons Ratio (z) = 0.05849 0.43584
#
# Static dielectric constant tensor:
#      x y z
#    x 1.666370 0.000000 0.000000 
#    y 0.000000 1.705660 0.000000 
#    z 0.000000 0.000000 1.679860 
# 
# From -- ./inp_files/49976.got.cif
#   From: 2010.05.17/outbox.cif.g08.bks.cpg/sg65_25_cif.got.tgz:49976.got - 2010.06.03 17:01:31.
