data_PCOD9484051
_publ_section_title
;
Structure prediction by ZEFSAII (Michael W. Deem and Ramdas Pophale) SiO2 
 PCOD9484051
Probable space group: C M M M
;
_chemical_formula_sum "Si O2"
_cell_formula_units_Z 112
_cell_length_a 17.208889
_cell_length_b 24.559889
_cell_length_c 14.104350
_cell_angle_alpha 90.000000
_cell_angle_beta 90.000000
_cell_angle_gamma 90.000000
_cell_volume 5961.181012
_symmetry_space_group_name_H-M "C M M M"
_symmetry_group_IT_number 65
_symmetry_cell_setting 'orthorhombic'
loop_
_space_group_symop_operation_xyz
x,y,z
-x,-y,z
x,-y,-z
-x,y,-z
-x,-y,-z
x,y,-z
-x,y,z
x,-y,z
1/2+x,1/2+y,z
1/2-x,1/2-y,z
1/2+x,1/2-y,-z
1/2-x,1/2+y,-z
1/2-x,1/2-y,-z
1/2+x,1/2+y,-z
1/2-x,1/2+y,z
1/2+x,1/2-y,z
loop_
_atom_site_type_symbol
_atom_site_label
_atom_site_fract_x
_atom_site_fract_y
_atom_site_fract_z
Si Si1 0.908696 0.353287 0.604085
Si Si2 0.593400 0.435744 0.608074
Si Si3 0.676672 0.846591 0.205303
Si Si4 0.590532 0.256103 0.887841
Si Si5 0.640852 0.651584 0.758810
Si Si6 0.162016 0.764293 0.394958
Si Si7 0.087136 0.560503 0.887229
O O1 0.886060 0.375694 0.500000
O O2 0.858530 0.368143 0.694885
O O3 0.890268 0.288974 0.599879
O O4 0.000000 0.362878 0.617908
O O5 0.619670 0.418290 0.500000
O O6 0.500000 0.429701 0.607990
O O7 0.611675 0.500000 0.615530
O O8 0.622456 0.404392 0.702946
O O9 0.641891 0.788019 0.171420
O O10 0.768604 0.846006 0.214569
O O11 0.646650 0.892102 0.134013
O O12 0.500000 0.239976 0.877593
O O13 0.599787 0.317731 0.847163
O O14 0.610631 0.253837 0.000000
O O15 0.624306 0.693687 0.674314
O O16 0.171744 0.787370 0.500000
O O17 0.250000 0.750000 0.362680
O O18 0.108001 0.500000 0.850842
O O19 0.000000 0.574245 0.851347
O O20 0.081745 0.556630 0.000000
#
# Coordination Sequence:
#
# PCOD9484051 Si02
#       7
#    16  16  16  16  16  16  16
#     4  10  20  32  48  73 107 145 183 218 256 316
#     4   9  20  40  64  88 113 145 189 237 281 329
#     4  12  22  34  55  82 116 150 181 222 288 340
#     4  11  24  40  57  80 112 151 194 235 278 335
#     4  12  22  34  55  85 115 146 182 228 284 338
#     4  10  18  31  48  72 108 145 177 214 263 319
#     4   9  19  37  60  82 102 134 188 245 287 328
#
# _framework density 18.788222999999999
#
# number of rings (size 3 to 8) (size 9 to 14) (size 15 to 20)
#    0.000    1.571    2.857    3.857    0.000    4.571 
#    0.000    1.429    0.000    0.857    0.000    4.000 
#    0.000    0.000    0.000    0.000    0.000    0.000 
#
# Total GULP energy -311808.759235 kJ/mol
# GULP energy per Si atom -5568.013558 kJ/mol
# Density = 1.874546 g / cm^3
# Si number density = 18.788223 Si / 1000 Ang^3
#
#
#
# Elastic Constant Matrix: (Units=GPa)
#
#
# Indices 1 2 3 4 5 6 
#
# 1 57.2469 14.4906 25.8009 0.0000 0.0000 0.0000
# 2 14.4906 66.5129 25.0154 0.0000 0.0000 0.0000
# 3 25.8009 25.0154 84.8716 0.0000 0.0000 0.0000
# 4 0.0000 0.0000 0.0000 29.2562 0.0000 0.0000
# 5 0.0000 0.0000 0.0000 0.0000 22.6903 0.0000
# 6 0.0000 0.0000 0.0000 0.0000 0.0000 15.4999
#
#
#
# Elastic Compliance Matrix: (Units=1/GPa)
#
#
# Indices 1 2 3 4 5 6 
#
# 1 0.020575 -0.002396 -0.005549 0.000000 0.000000 0.000000
# 2 -0.002396 0.017188 -0.004338 0.000000 0.000000 0.000000
# 3 -0.005549 -0.004338 0.014748 0.000000 0.000000 0.000000
# 4 0.000000 0.000000 0.000000 0.034181 0.000000 0.000000
# 5 0.000000 0.000000 0.000000 0.000000 0.044072 0.000000
# 6 0.000000 0.000000 0.000000 0.000000 0.000000 0.064516
#
#
# Mechanical properties :
#
#
# Convention : Reuss Voigt Hill
#
# Bulk Modulus (GPa) = 35.78230 37.69391 36.73810
# Shear Modulus (GPa) = 21.81878 23.04425 22.43152
#
# Velocity S-wave (km/s) = 3.41148 3.50598 3.45905
# Velocity P-wave (km/s) = 5.88252 6.04113 5.96235
#
# Compressibility (1/GPa) = 0.02794678
#
# Stress axis : x y z
#
# Youngs Moduli (GPa) = 48.60161 58.17997 67.80637
#
# Poissons Ratio (x) = 0.13938 0.37624
# Poissons Ratio (y) = 0.11644 0.29413
# Poissons Ratio (z) = 0.26968 0.25237
#
# Static dielectric constant tensor:
#      x y z
#    x 1.665850 0.000000 0.000000 
#    y 0.000000 1.650780 0.000000 
#    z 0.000000 0.000000 1.730240 
# 
# From -- ./inp_files/40759.got.cif
#   From: 2010.05.17/outbox.cif.g08.bks.cpg/sg65_21_cif.got.tgz:40759.got - 2010.06.03 17:01:31.
