data_PCOD9484317
_publ_section_title
;
Structure prediction by ZEFSAII (Michael W. Deem and Ramdas Pophale) SiO2 
 PCOD9484317
Probable space group: C M M M
;
_chemical_formula_sum "Si O2"
_cell_formula_units_Z 104
_cell_length_a 8.612395
_cell_length_b 29.389478
_cell_length_c 24.016400
_cell_angle_alpha 90.000000
_cell_angle_beta 90.000000
_cell_angle_gamma 90.000000
_cell_volume 6078.882107
_symmetry_space_group_name_H-M "C M M M"
_symmetry_group_IT_number 65
_symmetry_cell_setting 'orthorhombic'
loop_
_space_group_symop_operation_xyz
x,y,z
-x,-y,z
x,-y,-z
-x,y,-z
-x,-y,-z
x,y,-z
-x,y,z
x,-y,z
1/2+x,1/2+y,z
1/2-x,1/2-y,z
1/2+x,1/2-y,-z
1/2-x,1/2+y,-z
1/2-x,1/2-y,-z
1/2+x,1/2+y,-z
1/2-x,1/2+y,z
1/2+x,1/2-y,z
loop_
_atom_site_type_symbol
_atom_site_label
_atom_site_fract_x
_atom_site_fract_y
_atom_site_fract_z
Si Si1 0.312974 0.856298 0.438695
Si Si2 0.815188 0.801365 0.883657
Si Si3 0.186928 0.948855 0.393899
Si Si4 0.813150 0.948467 0.262672
Si Si5 0.685285 0.198410 0.000000
Si Si6 0.685565 0.143714 0.779662
Si Si7 0.812380 0.699138 0.669076
O O1 0.259161 0.841415 0.500000
O O2 0.500000 0.854674 0.437971
O O3 0.261540 0.907950 0.427542
O O4 0.256686 0.825427 0.387437
O O5 0.750000 0.750000 0.875876
O O6 0.747938 0.820779 0.941799
O O7 0.763832 0.832091 0.832085
O O8 0.000000 0.798459 0.887593
O O9 0.226294 0.943198 0.328332
O O10 0.000000 0.946338 0.398550
O O11 0.234216 0.000000 0.410859
O O12 0.734459 0.908519 0.228239
O O13 0.000000 0.944646 0.258377
O O14 0.769578 0.000000 0.246351
O O15 0.750000 0.250000 0.000000
O O16 0.500000 0.198877 0.000000
O O17 0.500000 0.147377 0.784933
O O18 0.734240 0.170009 0.723126
O O19 0.750000 0.750000 0.673013
O O20 0.000000 0.700233 0.668093
#
# Coordination Sequence:
#
# PCOD9484317 Si02
#       7
#    16  16  16  16   8  16  16
#     4  10  21  37  53  71  97 129 167 211 260 315
#     4  11  21  34  52  78 112 149 186 222 263 308
#     4   9  18  33  53  76 101 128 161 203 254 312
#     4   9  18  33  53  77 104 134 167 208 261 316
#     4  10  18  32  52  76 109 148 187 224 262 304
#     4  11  21  34  53  79 107 137 176 216 262 313
#     4  10  22  37  52  72  97 129 167 213 261 309
#
# _framework density 17.108408000000001
#
# number of rings (size 3 to 8) (size 9 to 14) (size 15 to 20)
#    0.000    2.000    1.538    4.846    0.000    4.615 
#    0.000    3.077    0.000    0.000    0.000    0.538 
#    0.000    4.308    0.000    0.000    0.000    0.000 
#
# Total GULP energy -290247.651346 kJ/mol
# GULP energy per Si atom -5581.685603 kJ/mol
# Density = 1.706947 g / cm^3
# Si number density = 17.108408 Si / 1000 Ang^3
#
#
#
# Elastic Constant Matrix: (Units=GPa)
#
#
# Indices 1 2 3 4 5 6 
#
# 1 58.7072 26.3645 46.1854 0.0000 0.0000 0.0000
# 2 26.3645 96.8361 61.5710 0.0000 0.0000 0.0000
# 3 46.1854 61.5710 138.3066 0.0000 0.0000 0.0000
# 4 0.0000 0.0000 0.0000 20.9023 0.0000 0.0000
# 5 0.0000 0.0000 0.0000 0.0000 20.8461 0.0000
# 6 0.0000 0.0000 0.0000 0.0000 0.0000 29.7872
#
#
#
# Elastic Compliance Matrix: (Units=1/GPa)
#
#
# Indices 1 2 3 4 5 6 
#
# 1 0.023365 -0.001953 -0.006933 0.000000 0.000000 0.000000
# 2 -0.001953 0.014567 -0.005833 0.000000 0.000000 0.000000
# 3 -0.006933 -0.005833 0.012142 0.000000 0.000000 0.000000
# 4 0.000000 0.000000 0.000000 0.047842 0.000000 0.000000
# 5 0.000000 0.000000 0.000000 0.000000 0.047971 0.000000
# 6 0.000000 0.000000 0.000000 0.000000 0.000000 0.033571
#
#
# Mechanical properties :
#
#
# Convention : Reuss Voigt Hill
#
# Bulk Modulus (GPa) = 48.45775 62.45463 55.45619
# Shear Modulus (GPa) = 23.17237 24.95571 24.06404
#
# Velocity S-wave (km/s) = 3.68427 3.82341 3.75448
# Velocity P-wave (km/s) = 6.81791 7.48838 7.16099
#
# Compressibility (1/GPa) = 0.02063654
#
# Stress axis : x y z
#
# Youngs Moduli (GPa) = 42.79913 68.64777 82.35864
#
# Poissons Ratio (x) = 0.13409 0.57098
# Poissons Ratio (y) = 0.08360 0.48037
# Poissons Ratio (z) = 0.29672 0.40040
#
# Static dielectric constant tensor:
#      x y z
#    x 1.577300 0.000000 0.000000 
#    y 0.000000 1.546460 0.000000 
#    z 0.000000 0.000000 1.596950 
# 
# From -- ./inp_files/68167.got.cif
#   From: 2010.05.17/outbox.cif.g08.bks.cpg/sg65_35_cif.got.tgz:68167.got - 2010.06.03 17:01:31.
