data_PCOD9484909
_publ_section_title
;
Structure prediction by ZEFSAII (Michael W. Deem and Ramdas Pophale) SiO2 
 PCOD9484909
Probable space group: C M M M
;
_chemical_formula_sum "Si O2"
_cell_formula_units_Z 72
_cell_length_a 7.524762
_cell_length_b 40.948902
_cell_length_c 13.498245
_cell_angle_alpha 90.000000
_cell_angle_beta 90.000000
_cell_angle_gamma 90.000000
_cell_volume 4159.224244
_symmetry_space_group_name_H-M "C M M M"
_symmetry_group_IT_number 65
_symmetry_cell_setting 'orthorhombic'
loop_
_space_group_symop_operation_xyz
x,y,z
-x,-y,z
x,-y,-z
-x,y,-z
-x,-y,-z
x,y,-z
-x,y,z
x,-y,z
1/2+x,1/2+y,z
1/2-x,1/2-y,z
1/2+x,1/2-y,-z
1/2-x,1/2+y,-z
1/2-x,1/2-y,-z
1/2+x,1/2+y,-z
1/2-x,1/2+y,z
1/2+x,1/2-y,z
loop_
_atom_site_type_symbol
_atom_site_label
_atom_site_fract_x
_atom_site_fract_y
_atom_site_fract_z
Si Si1 0.288947 0.824389 0.303477
Si Si2 0.714423 0.606212 0.385715
Si Si3 0.786709 0.711936 0.889184
Si Si4 0.213299 0.711616 0.500000
Si Si5 0.787175 0.035127 0.380717
O O1 0.500000 0.818067 0.301884
O O2 0.263619 0.862761 0.320764
O O3 0.217211 0.810149 0.200539
O O4 0.216793 0.805639 0.400429
O O5 0.775687 0.611266 0.500000
O O6 0.500000 0.604644 0.389448
O O7 0.779158 0.570722 0.348016
O O8 0.750000 0.750000 0.867757
O O9 0.000000 0.708035 0.893248
O O10 0.717553 0.704748 0.000000
O O11 0.250000 0.750000 0.500000
O O12 0.000000 0.707179 0.500000
O O13 0.763354 0.035444 0.500000
O O14 0.000000 0.034649 0.363338
O O15 0.716437 0.000000 0.344331
#
# Coordination Sequence:
#
# PCOD9484909 Si02
#       5
#    16  16  16   8  16
#     4  10  19  30  42  58  83 110 132 160 202 246
#     4   9  16  25  39  60  83 109 140 167 193 231
#     4   9  18  32  48  63  78 100 133 171 209 245
#     4  10  20  30  40  56  77 104 133 159 192 235
#     4   7  10  18  33  53  77 104 134 166 194 222
#
# _framework density 17.310919999999999
#
# number of rings (size 3 to 8) (size 9 to 14) (size 15 to 20)
#    0.000    3.111    1.111    2.667    0.000    1.778 
#    0.000    0.000    0.000    0.667    0.000    3.111 
#    0.000    0.889    0.000   11.111    0.000    0.444 
#
# Total GULP energy -200488.999323 kJ/mol
# GULP energy per Si atom -5569.138870 kJ/mol
# Density = 1.727152 g / cm^3
# Si number density = 17.310920 Si / 1000 Ang^3
#
#
#
# Elastic Constant Matrix: (Units=GPa)
#
#
# Indices 1 2 3 4 5 6 
#
# 1 41.5100 -7.0759 10.5023 0.0000 0.0000 0.0000
# 2 -7.0759 172.0576 93.8309 0.0000 0.0000 0.0000
# 3 10.5023 93.8309 107.7809 0.0000 0.0000 0.0000
# 4 0.0000 0.0000 0.0000 -18.8803 0.0000 0.0000
# 5 0.0000 0.0000 0.0000 0.0000 20.9349 0.0000
# 6 0.0000 0.0000 0.0000 0.0000 0.0000 8.4886
#
#
#
# Elastic Compliance Matrix: (Units=1/GPa)
#
#
# Indices 1 2 3 4 5 6 
#
# 1 0.026613 0.004776 -0.006751 0.000000 0.000000 0.000000
# 2 0.004776 0.011923 -0.010845 0.000000 0.000000 0.000000
# 3 -0.006751 -0.010845 0.019377 0.000000 0.000000 0.000000
# 4 0.000000 0.000000 0.000000 -0.052965 0.000000 0.000000
# 5 0.000000 0.000000 0.000000 0.000000 0.047767 0.000000
# 6 0.000000 0.000000 0.000000 0.000000 0.000000 0.117806
#
#
# Mechanical properties :
#
#
# Convention : Reuss Voigt Hill
#
# Bulk Modulus (GPa) = 30.98581 57.31811 44.15196
# Shear Modulus (GPa) = 24.16421 17.04805 20.60613
#
# Velocity S-wave (km/s) = 3.74022 3.14158 3.45389
# Velocity P-wave (km/s) = 6.04903 6.80751 6.43945
#
# Compressibility (1/GPa) = 0.03227284
#
# Stress axis : x y z
#
# Youngs Moduli (GPa) = 37.57586 83.87399 51.60711
#
# Poissons Ratio (x) = -0.40060 0.34841
# Poissons Ratio (y) = -0.17947 0.55967
# Poissons Ratio (z) = 0.25368 0.90961
#
# Static dielectric constant tensor:
#      x y z
#    x 1.700410 0.000000 0.000000 
#    y 0.000000 1.622300 0.000000 
#    z 0.000000 0.000000 1.580300 
# 
# From -- ./inp_files/22704.got.cif
#   From: 2010.05.17/outbox.cif.g08.bks.cpg/sg65_12_cif.got.tgz:22704.got - 2010.06.03 17:01:31.
