data_PCOD9484654
_publ_section_title
;
Structure prediction by ZEFSAII (Michael W. Deem and Ramdas Pophale) SiO2 
 PCOD9484654
Probable space group: C M M M
;
_chemical_formula_sum "Si O2"
_cell_formula_units_Z 104
_cell_length_a 27.666435
_cell_length_b 9.016730
_cell_length_c 26.868010
_cell_angle_alpha 90.000000
_cell_angle_beta 90.000000
_cell_angle_gamma 90.000000
_cell_volume 6702.514583
_symmetry_space_group_name_H-M "C M M M"
_symmetry_group_IT_number 65
_symmetry_cell_setting 'orthorhombic'
loop_
_space_group_symop_operation_xyz
x,y,z
-x,-y,z
x,-y,-z
-x,y,-z
-x,-y,-z
x,y,-z
-x,y,z
x,-y,z
1/2+x,1/2+y,z
1/2-x,1/2-y,z
1/2+x,1/2-y,-z
1/2-x,1/2+y,-z
1/2-x,1/2-y,-z
1/2+x,1/2+y,-z
1/2-x,1/2+y,z
1/2+x,1/2-y,z
loop_
_atom_site_type_symbol
_atom_site_label
_atom_site_fract_x
_atom_site_fract_y
_atom_site_fract_z
Si Si1 0.057656 0.324230 0.156921
Si Si2 0.196894 0.177525 0.500000
Si Si3 0.558606 0.673538 0.055034
Si Si4 0.444023 0.322560 0.644003
Si Si5 0.893152 0.176779 0.748396
Si Si6 0.301903 0.175727 0.699660
Si Si7 0.645977 0.175533 0.405983
O O1 0.064744 0.500000 0.160449
O O2 0.074400 0.265483 0.102949
O O3 0.084463 0.242692 0.201675
O O4 0.000000 0.294232 0.160969
O O5 0.250000 0.250000 0.500000
O O6 0.168518 0.235109 0.548445
O O7 0.200703 0.000000 0.500000
O O8 0.500000 0.681265 0.054318
O O9 0.571206 0.500000 0.060911
O O10 0.575148 0.723608 0.000000
O O11 0.500000 0.283627 0.636450
O O12 0.438413 0.500000 0.636263
O O13 0.428033 0.291822 0.701014
O O14 0.406868 0.235696 0.608949
O O15 0.842057 0.250306 0.734789
O O16 0.888163 0.000000 0.752301
O O17 0.250000 0.250000 0.705706
O O18 0.321026 0.198171 0.643149
O O19 0.299393 0.000000 0.708553
O O20 0.644656 0.000000 0.416900
#
# Coordination Sequence:
#
# PCOD9484654 Si02
#       7
#    16   8  16  16  16  16  16
#     4  10  19  28  40  62  93 126 159 197 238 278
#     4  12  24  38  57  78 101 126 154 193 237 281
#     4   8  14  25  40  57  80 115 158 198 235 278
#     4   9  18  33  52  73  98 129 163 197 234 276
#     4  10  19  31  48  69  94 125 160 196 233 277
#     4  10  20  34  52  73  97 124 153 188 232 281
#     4  10  21  36  54  77 102 127 157 192 231 278
#
# _framework density 15.516564000000001
#
# number of rings (size 3 to 8) (size 9 to 14) (size 15 to 20)
#    0.000    2.308    0.000    3.923    0.000    5.846 
#    0.000    1.923    0.000    2.308    0.000    0.000 
#    0.000    0.615    0.000    2.308    0.000    3.538 
#
# Total GULP energy -290090.792484 kJ/mol
# GULP energy per Si atom -5578.669086 kJ/mol
# Density = 1.548125 g / cm^3
# Si number density = 15.516564 Si / 1000 Ang^3
#
#
#
# Elastic Constant Matrix: (Units=GPa)
#
#
# Indices 1 2 3 4 5 6 
#
# 1 106.4990 66.7917 60.4597 0.0000 0.0000 0.0000
# 2 66.7917 97.0897 82.1808 0.0000 0.0000 0.0000
# 3 60.4597 82.1808 123.7739 0.0000 0.0000 0.0000
# 4 0.0000 0.0000 0.0000 26.1315 0.0000 0.0000
# 5 0.0000 0.0000 0.0000 0.0000 14.3100 0.0000
# 6 0.0000 0.0000 0.0000 0.0000 0.0000 27.0472
#
#
#
# Elastic Compliance Matrix: (Units=1/GPa)
#
#
# Indices 1 2 3 4 5 6 
#
# 1 0.016593 -0.010398 -0.001201 0.000000 0.000000 0.000000
# 2 -0.010398 0.030032 -0.014861 0.000000 0.000000 0.000000
# 3 -0.001201 -0.014861 0.018533 0.000000 0.000000 0.000000
# 4 0.000000 0.000000 0.000000 0.038268 0.000000 0.000000
# 5 0.000000 0.000000 0.000000 0.000000 0.069881 0.000000
# 6 0.000000 0.000000 0.000000 0.000000 0.000000 0.036972
#
#
# Mechanical properties :
#
#
# Convention : Reuss Voigt Hill
#
# Bulk Modulus (GPa) = 81.71594 82.91410 82.31502
# Shear Modulus (GPa) = 18.70707 21.35976 20.03341
#
# Velocity S-wave (km/s) = 3.47597 3.71425 3.59708
# Velocity P-wave (km/s) = 8.29987 8.48210 8.39148
#
# Compressibility (1/GPa) = 0.01223751
#
# Stress axis : x y z
#
# Youngs Moduli (GPa) = 60.26645 33.29797 53.95814
#
# Poissons Ratio (x) = 0.34624 0.06481
# Poissons Ratio (y) = 0.62667 0.80186
# Poissons Ratio (z) = 0.07239 0.49483
#
# Static dielectric constant tensor:
#      x y z
#    x 1.488820 0.000000 0.000000 
#    y 0.000000 1.514700 0.000000 
#    z 0.000000 0.000000 1.509630 
# 
# From -- ./inp_files/71777.got.cif
#   From: 2010.05.17/outbox.cif.g08.bks.cpg/sg65_36_cif.got.tgz:71777.got - 2010.06.03 17:01:31.
