data_PCOD9484269
_publ_section_title
;
Structure prediction by ZEFSAII (Michael W. Deem and Ramdas Pophale) SiO2 
 PCOD9484269
Probable space group: C M M M
;
_chemical_formula_sum "Si O2"
_cell_formula_units_Z 96
_cell_length_a 22.516264
_cell_length_b 26.729938
_cell_length_c 9.166616
_cell_angle_alpha 90.000000
_cell_angle_beta 90.000000
_cell_angle_gamma 90.000000
_cell_volume 5517.004296
_symmetry_space_group_name_H-M "C M M M"
_symmetry_group_IT_number 65
_symmetry_cell_setting 'orthorhombic'
loop_
_space_group_symop_operation_xyz
x,y,z
-x,-y,z
x,-y,-z
-x,y,-z
-x,-y,-z
x,y,-z
-x,y,z
x,-y,z
1/2+x,1/2+y,z
1/2-x,1/2-y,z
1/2+x,1/2-y,-z
1/2-x,1/2+y,-z
1/2-x,1/2-y,-z
1/2+x,1/2+y,-z
1/2-x,1/2+y,z
1/2+x,1/2-y,z
loop_
_atom_site_type_symbol
_atom_site_label
_atom_site_fract_x
_atom_site_fract_y
_atom_site_fract_z
Si Si1 0.500000 0.940082 0.669179
Si Si2 0.250000 0.250000 0.741309
Si Si3 0.882976 0.600643 0.175075
Si Si4 0.625820 0.205312 0.665064
Si Si5 0.743112 0.944255 0.177676
Si Si6 0.684173 0.349506 0.169568
Si Si7 0.932367 0.203372 0.175997
O O1 0.500000 0.923894 0.500000
O O2 0.441892 0.920399 0.751206
O O3 0.500000 0.000000 0.673097
O O4 0.308405 0.229671 0.661091
O O5 0.275408 0.299353 0.822326
O O6 0.871833 0.655793 0.238036
O O7 0.825335 0.567550 0.213151
O O8 0.888794 0.602071 0.000000
O O9 0.606751 0.194336 0.500000
O O10 0.582844 0.244974 0.743373
O O11 0.782930 0.897943 0.233974
O O12 0.760227 0.000000 0.226862
O O13 0.746116 0.943875 0.000000
O O14 0.619036 0.334859 0.227200
O O15 0.675454 0.361022 0.000000
O O16 0.000000 0.187794 0.204347
O O17 0.925900 0.210337 0.000000
#
# Coordination Sequence:
#
# PCOD9484269 Si02
#       7
#     8   8  16  16  16  16  16
#     4  11  25  43  59  77 105 143 185 229 278 323
#     4  10  18  32  50  74 105 140 173 216 267 332
#     4  11  22  37  57  79 104 140 185 228 268 317
#     4  11  22  34  51  77 109 141 174 218 272 325
#     4   9  17  30  51  80 107 132 170 220 268 312
#     4   9  16  28  50  77 105 136 173 219 266 318
#     4   9  19  34  52  74 103 140 180 217 259 317
#
# _framework density 17.400746999999999
#
# number of rings (size 3 to 8) (size 9 to 14) (size 15 to 20)
#    0.000    2.083    1.667    2.250    1.167    3.000 
#    0.000    0.000    0.000    0.500    0.000    3.500 
#    0.000    0.000    0.000    4.333    0.000    4.167 
#
# Total GULP energy -267479.233852 kJ/mol
# GULP energy per Si atom -5572.484039 kJ/mol
# Density = 1.736114 g / cm^3
# Si number density = 17.400747 Si / 1000 Ang^3
#
#
#
# Elastic Constant Matrix: (Units=GPa)
#
#
# Indices 1 2 3 4 5 6 
#
# 1 121.9895 55.1162 25.9483 0.0000 0.0000 0.0000
# 2 55.1162 117.9238 20.0598 0.0000 0.0000 0.0000
# 3 25.9483 20.0598 51.3438 0.0000 0.0000 0.0000
# 4 0.0000 0.0000 0.0000 19.8156 0.0000 0.0000
# 5 0.0000 0.0000 0.0000 0.0000 11.5753 0.0000
# 6 0.0000 0.0000 0.0000 0.0000 0.0000 21.1529
#
#
#
# Elastic Compliance Matrix: (Units=1/GPa)
#
#
# Indices 1 2 3 4 5 6 
#
# 1 0.011050 -0.004515 -0.003821 0.000000 0.000000 0.000000
# 2 -0.004515 0.010928 -0.001988 0.000000 0.000000 0.000000
# 3 -0.003821 -0.001988 0.022184 0.000000 0.000000 0.000000
# 4 0.000000 0.000000 0.000000 0.050465 0.000000 0.000000
# 5 0.000000 0.000000 0.000000 0.000000 0.086391 0.000000
# 6 0.000000 0.000000 0.000000 0.000000 0.000000 0.047275
#
#
# Mechanical properties :
#
#
# Convention : Reuss Voigt Hill
#
# Bulk Modulus (GPa) = 42.52455 54.83396 48.67926
# Shear Modulus (GPa) = 19.47202 23.18428 21.32815
#
# Velocity S-wave (km/s) = 3.34883 3.65413 3.50480
# Velocity P-wave (km/s) = 6.28047 7.02740 6.66441
#
# Compressibility (1/GPa) = 0.02351583
#
# Stress axis : x y z
#
# Youngs Moduli (GPa) = 90.49882 91.50529 45.07735
#
# Poissons Ratio (x) = 0.41312 0.17222
# Poissons Ratio (y) = 0.40857 0.08961
# Poissons Ratio (z) = 0.34576 0.18191
#
# Static dielectric constant tensor:
#      x y z
#    x 1.601180 0.000000 0.000000 
#    y 0.000000 1.600200 0.000000 
#    z 0.000000 0.000000 1.587960 
# 
# From -- ./inp_files/14371.got.cif
#   From: 2010.05.17/outbox.cif.g08.bks.cpg/sg65_8_cif.got.tgz:14371.got - 2010.06.03 17:01:31.
