data_PCOD9484477
_publ_section_title
;
Structure prediction by ZEFSAII (Michael W. Deem and Ramdas Pophale) SiO2 
 PCOD9484477
Probable space group: C M M M
;
_chemical_formula_sum "Si O2"
_cell_formula_units_Z 88
_cell_length_a 27.982158
_cell_length_b 15.956606
_cell_length_c 11.897248
_cell_angle_alpha 90.000000
_cell_angle_beta 90.000000
_cell_angle_gamma 90.000000
_cell_volume 5312.124447
_symmetry_space_group_name_H-M "C M M M"
_symmetry_group_IT_number 65
_symmetry_cell_setting 'orthorhombic'
loop_
_space_group_symop_operation_xyz
x,y,z
-x,-y,z
x,-y,-z
-x,y,-z
-x,-y,-z
x,y,-z
-x,y,z
x,-y,z
1/2+x,1/2+y,z
1/2-x,1/2-y,z
1/2+x,1/2-y,-z
1/2-x,1/2+y,-z
1/2-x,1/2-y,-z
1/2+x,1/2+y,-z
1/2-x,1/2+y,z
1/2+x,1/2-y,z
loop_
_atom_site_type_symbol
_atom_site_label
_atom_site_fract_x
_atom_site_fract_y
_atom_site_fract_z
Si Si1 0.947064 0.825428 0.761312
Si Si2 0.360404 0.403859 0.365808
Si Si3 0.056355 0.500000 0.864990
Si Si4 0.570383 0.595490 0.000000
Si Si5 0.197708 0.782732 0.790713
Si Si6 0.314197 0.402076 0.000000
Si Si7 0.391789 0.175033 0.136235
O O1 0.911919 0.879476 0.684505
O O2 0.947353 0.864791 0.885589
O O3 0.925108 0.735139 0.789007
O O4 0.000000 0.821167 0.714474
O O5 0.360047 0.398971 0.500000
O O6 0.348776 0.500000 0.332145
O O7 0.325555 0.335818 0.310085
O O8 0.088481 0.582031 0.838271
O O9 0.000000 0.500000 0.823787
O O10 0.051914 0.500000 0.000000
O O11 0.628042 0.601057 0.000000
O O12 0.556508 0.500000 0.000000
O O13 0.250000 0.750000 0.763008
O O14 0.161416 0.708172 0.830446
O O15 0.201860 0.849597 0.892151
O O16 0.299946 0.500000 0.000000
O O17 0.396920 0.188280 0.000000
#
# Coordination Sequence:
#
# PCOD9484477 Si02
#       7
#    16  16   8   8  16   8  16
#     4  11  20  31  52  79 109 144 177 213 263 315
#     4  10  22  40  57  75 104 140 180 224 266 314
#     4   9  18  30  48  70 103 147 185 217 257 307
#     4  11  19  29  48  74 111 142 171 207 250 312
#     4  11  21  36  56  80 108 139 177 220 272 324
#     4  11  19  34  55  79 112 146 172 207 259 329
#     4  10  18  33  48  74 111 145 178 215 259 319
#
# _framework density 16.565877
#
# number of rings (size 3 to 8) (size 9 to 14) (size 15 to 20)
#    0.000    1.545    5.455    2.182    0.000    3.273 
#    3.273    0.909    0.000    0.000    0.000    5.727 
#    0.000   17.455    0.000    0.000    0.000    0.000 
#
# Total GULP energy -245193.462249 kJ/mol
# GULP energy per Si atom -5572.578687 kJ/mol
# Density = 1.652817 g / cm^3
# Si number density = 16.565877 Si / 1000 Ang^3
#
#
#
# Elastic Constant Matrix: (Units=GPa)
#
#
# Indices 1 2 3 4 5 6 
#
# 1 130.9715 54.9550 27.1337 0.0000 0.0000 0.0000
# 2 54.9550 125.5158 26.7337 0.0000 0.0000 0.0000
# 3 27.1337 26.7337 57.7941 0.0000 0.0000 0.0000
# 4 0.0000 0.0000 0.0000 140.1569 0.0000 0.0000
# 5 0.0000 0.0000 0.0000 0.0000 -0.4253 0.0000
# 6 0.0000 0.0000 0.0000 0.0000 0.0000 -33.9207
#
#
#
# Elastic Compliance Matrix: (Units=1/GPa)
#
#
# Indices 1 2 3 4 5 6 
#
# 1 0.009771 -0.003662 -0.002894 0.000000 0.000000 0.000000
# 2 -0.003662 0.010210 -0.003004 0.000000 0.000000 0.000000
# 3 -0.002894 -0.003004 0.020051 0.000000 0.000000 0.000000
# 4 0.000000 0.000000 0.000000 0.007135 0.000000 0.000000
# 5 0.000000 0.000000 0.000000 0.000000 -2.351403 0.000000
# 6 0.000000 0.000000 0.000000 0.000000 0.000000 -0.029481
#
#
# Mechanical properties :
#
#
# Convention : Reuss Voigt Hill
#
# Bulk Modulus (GPa) = 47.81534 59.10291 53.45913
# Shear Modulus (GPa) = -2.16673 34.85945 16.34636
#
# Velocity S-wave (km/s) = -1.14490 4.59223 3.14466
# Velocity P-wave (km/s) = 5.21332 7.99206 6.74729
#
# Compressibility (1/GPa) = 0.02091379
#
# Stress axis : x y z
#
# Youngs Moduli (GPa) = 102.34134 97.94158 49.87344
#
# Poissons Ratio (x) = 0.35865 0.14432
# Poissons Ratio (y) = 0.37476 0.14980
# Poissons Ratio (z) = 0.29614 0.29419
#
# Static dielectric constant tensor:
#      x y z
#    x 1.591850 0.000000 0.000000 
#    y 0.000000 1.578350 0.000000 
#    z 0.000000 0.000000 1.522470 
# 
# From -- ./inp_files/32288.got.cif
#   From: 2010.05.17/outbox.cif.g08.bks.cpg/sg65_17_cif.got.tgz:32288.got - 2010.06.03 17:01:31.
