data_PCOD9484249
_publ_section_title
;
Structure prediction by ZEFSAII (Michael W. Deem and Ramdas Pophale) SiO2 
 PCOD9484249
Probable space group: C M M M
;
_chemical_formula_sum "Si O2"
_cell_formula_units_Z 88
_cell_length_a 25.066004
_cell_length_b 20.491597
_cell_length_c 9.977500
_cell_angle_alpha 90.000000
_cell_angle_beta 90.000000
_cell_angle_gamma 90.000000
_cell_volume 5124.867569
_symmetry_space_group_name_H-M "C M M M"
_symmetry_group_IT_number 65
_symmetry_cell_setting 'orthorhombic'
loop_
_space_group_symop_operation_xyz
x,y,z
-x,-y,z
x,-y,-z
-x,y,-z
-x,-y,-z
x,y,-z
-x,y,z
x,-y,z
1/2+x,1/2+y,z
1/2-x,1/2-y,z
1/2+x,1/2-y,-z
1/2-x,1/2+y,-z
1/2-x,1/2-y,-z
1/2+x,1/2+y,-z
1/2-x,1/2+y,z
1/2+x,1/2-y,z
loop_
_atom_site_type_symbol
_atom_site_label
_atom_site_fract_x
_atom_site_fract_y
_atom_site_fract_z
Si Si1 0.816991 0.000000 0.339010
Si Si2 0.144801 0.370085 0.155697
Si Si3 0.063335 0.577251 0.352367
Si Si4 0.216271 0.500000 0.848769
Si Si5 0.384364 0.371778 0.661797
Si Si6 0.814205 0.744282 0.342311
Si Si7 0.500000 0.422317 0.663575
O O1 0.850449 0.064183 0.302312
O O2 0.809211 0.000000 0.500000
O O3 0.761556 0.000000 0.262247
O O4 0.089807 0.386582 0.229562
O O5 0.180247 0.435615 0.164312
O O6 0.170665 0.313670 0.243512
O O7 0.138930 0.352944 0.000000
O O8 0.083032 0.599232 0.500000
O O9 0.074691 0.500000 0.342470
O O10 0.000000 0.585064 0.350646
O O11 0.239261 0.500000 0.000000
O O12 0.387162 0.369830 0.500000
O O13 0.349739 0.307739 0.698647
O O14 0.445545 0.385155 0.707375
O O15 0.826195 0.731248 0.500000
O O16 0.750000 0.750000 0.333937
O O17 0.500000 0.500000 0.701748
O O18 0.500000 0.422562 0.500000
#
# Coordination Sequence:
#
# PCOD9484249 Si02
#       7
#     8  16  16   8  16  16   8
#     4  10  18  31  56  85 105 132 176 222 274 333
#     4  11  22  37  55  77 109 147 187 228 275 335
#     4   9  18  34  57  83 108 135 173 222 273 325
#     4  10  22  36  50  76 109 141 180 225 272 325
#     4   9  17  30  51  80 111 141 176 222 281 337
#     4  10  21  37  54  77 112 149 187 235 286 336
#     4   9  14  26  50  82 116 139 166 221 281 337
#
# _framework density 17.171175999999999
#
# number of rings (size 3 to 8) (size 9 to 14) (size 15 to 20)
#    0.000    2.273    1.818    2.182    0.000    3.636 
#    1.636    1.818    0.000    0.000    0.000    2.545 
#    0.000    0.000    0.000    0.000    0.000    0.000 
#
# Total GULP energy -245110.050956 kJ/mol
# GULP energy per Si atom -5570.682976 kJ/mol
# Density = 1.713209 g / cm^3
# Si number density = 17.171176 Si / 1000 Ang^3
#
#
#
# Elastic Constant Matrix: (Units=GPa)
#
#
# Indices 1 2 3 4 5 6 
#
# 1 80.4996 44.5054 48.5134 0.0000 0.0000 0.0000
# 2 44.5054 116.5251 58.4459 0.0000 0.0000 0.0000
# 3 48.5134 58.4459 94.6545 0.0000 0.0000 0.0000
# 4 0.0000 0.0000 0.0000 17.5812 0.0000 0.0000
# 5 0.0000 0.0000 0.0000 0.0000 -4.8347 0.0000
# 6 0.0000 0.0000 0.0000 0.0000 0.0000-4728.5752
#
#
#
# Elastic Compliance Matrix: (Units=1/GPa)
#
#
# Indices 1 2 3 4 5 6 
#
# 1 0.018867 -0.003413 -0.007563 0.000000 0.000000 0.000000
# 2 -0.003413 0.013049 -0.006308 0.000000 0.000000 0.000000
# 3 -0.007563 -0.006308 0.018336 0.000000 0.000000 0.000000
# 4 0.000000 0.000000 0.000000 0.056879 0.000000 0.000000
# 5 0.000000 0.000000 0.000000 0.000000 -0.206836 0.000000
# 6 0.000000 0.000000 0.000000 0.000000 0.000000 -0.000211
#
#
# Mechanical properties :
#
#
# Convention : Reuss Voigt Hill
#
# Bulk Modulus (GPa) = 63.75614 66.06761 64.91188
# Shear Modulus (GPa) = -83.16629 -933.81812 -508.49220
#
# Velocity S-wave (km/s) = -6.96698 -23.34544 -17.22713
# Velocity P-wave (km/s) = 5.24481 26.23204 18.91597
#
# Compressibility (1/GPa) = 0.01568476
#
# Stress axis : x y z
#
# Youngs Moduli (GPa) = 53.00302 76.63157 54.53746
#
# Poissons Ratio (x) = 0.26153 0.41244
# Poissons Ratio (y) = 0.18089 0.34405
# Poissons Ratio (z) = 0.40084 0.48342
#
# Static dielectric constant tensor:
#      x y z
#    x 1.589990 0.000000 0.000000 
#    y 0.000000 1.578270 0.000000 
#    z 0.000000 0.000000 1.559530 
# 
# From -- ./inp_files/14086.got.cif
#   From: 2010.05.17/outbox.cif.g08.bks.cpg/sg65_8_cif.got.tgz:14086.got - 2010.06.03 17:01:31.
