data_PCOD9484209
_publ_section_title
;
Structure prediction by ZEFSAII (Michael W. Deem and Ramdas Pophale) SiO2 
 PCOD9484209
Probable space group: C M M M
;
_chemical_formula_sum "Si O2"
_cell_formula_units_Z 72
_cell_length_a 14.354000
_cell_length_b 11.450994
_cell_length_c 21.391919
_cell_angle_alpha 90.000000
_cell_angle_beta 90.000000
_cell_angle_gamma 90.000000
_cell_volume 3516.137698
_symmetry_space_group_name_H-M "C M M M"
_symmetry_group_IT_number 65
_symmetry_cell_setting 'orthorhombic'
loop_
_space_group_symop_operation_xyz
x,y,z
-x,-y,z
x,-y,-z
-x,y,-z
-x,-y,-z
x,y,-z
-x,y,z
x,-y,z
1/2+x,1/2+y,z
1/2-x,1/2-y,z
1/2+x,1/2-y,-z
1/2-x,1/2+y,-z
1/2-x,1/2-y,-z
1/2+x,1/2+y,-z
1/2-x,1/2+y,z
1/2+x,1/2-y,z
loop_
_atom_site_type_symbol
_atom_site_label
_atom_site_fract_x
_atom_site_fract_y
_atom_site_fract_z
Si Si1 0.112959 0.285172 0.201895
Si Si2 0.750000 0.750000 0.399576
Si Si3 0.888248 0.500000 0.289093
Si Si4 0.678867 0.000000 0.567318
Si Si5 0.113223 0.362330 0.068521
Si Si6 0.111692 0.868253 0.690296
O O1 0.143787 0.388664 0.248519
O O2 0.146305 0.299197 0.131259
O O3 0.135434 0.167571 0.238895
O O4 0.000000 0.292975 0.199201
O O5 0.731625 0.874019 0.433133
O O6 0.838511 0.780021 0.356313
O O7 0.864050 0.500000 0.362476
O O8 0.000000 0.500000 0.286667
O O9 0.625346 0.000000 0.500000
O O10 0.135333 0.500000 0.074388
O O11 0.000000 0.354924 0.067930
O O12 0.145280 0.320996 0.000000
O O13 0.000000 0.860949 0.683207
O O14 0.142137 0.000000 0.676929
#
# Coordination Sequence:
#
# PCOD9484209 Si02
#       6
#    16   8   8   8  16  16
#     4   9  15  26  47  74 108 146 188 240 289 343
#     4  12  23  42  66  90 119 158 204 248 299 364
#     4  10  18  31  53  81 109 143 189 242 298 346
#     4  12  26  41  59  85 121 157 193 245 308 362
#     4   8  12  18  33  64 106 147 185 231 292 351
#     4  10  21  37  60  88 120 158 200 250 306 363
#
# _framework density 20.477014
#
# number of rings (size 3 to 8) (size 9 to 14) (size 15 to 20)
#    0.000    2.222    4.444    1.000    0.000    0.222 
#    0.000    0.000    0.000    3.333    0.000    5.444 
#    0.000    0.000    0.000    0.000    0.000    0.000 
#
# Total GULP energy -200506.787782 kJ/mol
# GULP energy per Si atom -5569.632994 kJ/mol
# Density = 2.043041 g / cm^3
# Si number density = 20.477014 Si / 1000 Ang^3
#
#
#
# Elastic Constant Matrix: (Units=GPa)
#
#
# Indices 1 2 3 4 5 6 
#
# 1 50.8625 27.6123 29.2295 0.0000 0.0000 0.0000
# 2 27.6123 114.9470 42.8190 0.0000 0.0000 0.0000
# 3 29.2295 42.8190 170.8904 0.0000 0.0000 0.0000
# 4 0.0000 0.0000 0.0000 48.4054 0.0000 0.0000
# 5 0.0000 0.0000 0.0000 0.0000 10.0225 0.0000
# 6 0.0000 0.0000 0.0000 0.0000 0.0000 21.1846
#
#
#
# Elastic Compliance Matrix: (Units=1/GPa)
#
#
# Indices 1 2 3 4 5 6 
#
# 1 0.023859 -0.004645 -0.002917 0.000000 0.000000 0.000000
# 2 -0.004645 0.010499 -0.001836 0.000000 0.000000 0.000000
# 3 -0.002917 -0.001836 0.006811 0.000000 0.000000 0.000000
# 4 0.000000 0.000000 0.000000 0.020659 0.000000 0.000000
# 5 0.000000 0.000000 0.000000 0.000000 0.099776 0.000000
# 6 0.000000 0.000000 0.000000 0.000000 0.000000 0.047204
#
#
# Mechanical properties :
#
#
# Convention : Reuss Voigt Hill
#
# Bulk Modulus (GPa) = 44.69715 59.55796 52.12755
# Shear Modulus (GPa) = 21.27102 31.72507 26.49805
#
# Velocity S-wave (km/s) = 3.22650 3.94039 3.60118
# Velocity P-wave (km/s) = 5.97961 7.06050 6.54241
#
# Compressibility (1/GPa) = 0.02237279
#
# Stress axis : x y z
#
# Youngs Moduli (GPa) = 41.91339 95.24302 146.82620
#
# Poissons Ratio (x) = 0.44237 0.42830
# Poissons Ratio (y) = 0.19467 0.26963
# Poissons Ratio (z) = 0.12226 0.17490
#
# Static dielectric constant tensor:
#      x y z
#    x 1.785030 0.000000 0.000000 
#    y 0.000000 1.740810 0.000000 
#    z 0.000000 0.000000 1.746250 
# 
# From -- ./inp_files/63490.got.cif
#   From: 2010.05.17/outbox.cif.g08.bks.cpg/sg65_32_cif.got.tgz:63490.got - 2010.06.03 17:01:31.
