data_PCOD9484054
_publ_section_title
;
Structure prediction by ZEFSAII (Michael W. Deem and Ramdas Pophale) SiO2 
 PCOD9484054
Probable space group: C M M M
;
_chemical_formula_sum "Si O2"
_cell_formula_units_Z 104
_cell_length_a 27.235383
_cell_length_b 25.718020
_cell_length_c 7.499091
_cell_angle_alpha 90.000000
_cell_angle_beta 90.000000
_cell_angle_gamma 90.000000
_cell_volume 5252.664235
_symmetry_space_group_name_H-M "C M M M"
_symmetry_group_IT_number 65
_symmetry_cell_setting 'orthorhombic'
loop_
_space_group_symop_operation_xyz
x,y,z
-x,-y,z
x,-y,-z
-x,y,-z
-x,-y,-z
x,y,-z
-x,y,z
x,-y,z
1/2+x,1/2+y,z
1/2-x,1/2-y,z
1/2+x,1/2-y,-z
1/2-x,1/2+y,-z
1/2-x,1/2-y,-z
1/2+x,1/2+y,-z
1/2-x,1/2+y,z
1/2+x,1/2-y,z
loop_
_atom_site_type_symbol
_atom_site_label
_atom_site_fract_x
_atom_site_fract_y
_atom_site_fract_z
Si Si1 0.000000 0.559646 0.786023
Si Si2 0.728493 0.377753 0.703015
Si Si3 0.685481 0.941135 0.280945
Si Si4 0.359806 0.692377 0.703725
Si Si5 0.904999 0.628233 0.709130
Si Si6 0.796504 0.712964 0.800986
Si Si7 0.943204 0.259843 0.280808
O O1 0.951824 0.590701 0.726209
O O2 0.000000 0.500000 0.722434
O O3 0.000000 0.559119 0.000000
O O4 0.715494 0.391081 0.500000
O O5 0.759614 0.425218 0.782308
O O6 0.680228 0.348591 0.781994
O O7 0.772559 0.335169 0.701211
O O8 0.686275 0.939625 0.500000
O O9 0.642692 0.901846 0.218647
O O10 0.673320 0.000000 0.229528
O O11 0.367564 0.675861 0.500000
O O12 0.333925 0.749271 0.703398
O O13 0.412042 0.709563 0.782292
O O14 0.894991 0.636421 0.500000
O O15 0.919941 0.685048 0.780503
O O16 0.750000 0.750000 0.822733
O O17 0.813724 0.698957 0.000000
O O18 0.941944 0.259646 0.500000
O O19 0.000000 0.258215 0.228478
#
# Coordination Sequence:
#
# PCOD9484054 Si02
#       7
#     8  16  16  16  16  16  16
#     4  11  23  35  45  59  81 107 139 183 224 247
#     4   9  16  27  43  62  83 107 136 168 205 251
#     4   9  17  28  44  66  87 106 136 180 218 246
#     4   9  16  26  43  63  82 107 137 167 204 251
#     4  10  18  31  49  63  75 103 144 177 209 249
#     4   9  16  25  38  58  83 108 133 162 199 244
#     4   9  16  27  44  65  85 104 133 176 214 242
#
# _framework density 19.799475000000001
#
# number of rings (size 3 to 8) (size 9 to 14) (size 15 to 20)
#    0.000    2.692    0.769    2.077    0.000    5.538 
#    0.000    3.077    0.000    1.385    0.000    0.000 
#    0.000    0.615    0.000    8.615    0.000    0.000 
#
# Total GULP energy -289530.099554 kJ/mol
# GULP energy per Si atom -5567.886530 kJ/mol
# Density = 1.975441 g / cm^3
# Si number density = 19.799475 Si / 1000 Ang^3
#
#
#
# Elastic Constant Matrix: (Units=GPa)
#
#
# Indices 1 2 3 4 5 6 
#
# 1 152.4913 76.9104 2.4449 0.0000 0.0000 0.0000
# 2 76.9104 49.9144 0.1630 0.0000 0.0000 0.0000
# 3 2.4449 0.1630 59.1305 0.0000 0.0000 0.0000
# 4 0.0000 0.0000 0.0000 -13.6191 0.0000 0.0000
# 5 0.0000 0.0000 0.0000 0.0000 -54.3026 0.0000
# 6 0.0000 0.0000 0.0000 0.0000 0.0000 30.7812
#
#
#
# Elastic Compliance Matrix: (Units=1/GPa)
#
#
# Indices 1 2 3 4 5 6 
#
# 1 0.029496 -0.045445 -0.001094 0.000000 0.000000 0.000000
# 2 -0.045445 0.090053 0.001631 0.000000 0.000000 0.000000
# 3 -0.001094 0.001631 0.016952 0.000000 0.000000 0.000000
# 4 0.000000 0.000000 0.000000 -0.073426 0.000000 0.000000
# 5 0.000000 0.000000 0.000000 0.000000 -0.018415 0.000000
# 6 0.000000 0.000000 0.000000 0.000000 0.000000 0.032487
#
#
# Mechanical properties :
#
#
# Convention : Reuss Voigt Hill
#
# Bulk Modulus (GPa) = 21.42058 46.73030 34.07544
# Shear Modulus (GPa) = 27.39346 4.70642 16.04994
#
# Velocity S-wave (km/s) = 3.72364 1.54344 2.85024
# Velocity P-wave (km/s) = 5.41568 5.17970 5.29900
#
# Compressibility (1/GPa) = 0.04668407
#
# Stress axis : x y z
#
# Youngs Moduli (GPa) = 33.90301 11.10461 58.98835
#
# Poissons Ratio (x) = 0.50465 0.06455
# Poissons Ratio (y) = 1.54072 -0.09620
# Poissons Ratio (z) = 0.03710 -0.01811
#
# Static dielectric constant tensor:
#      x y z
#    x 1.750210 0.000000 0.000000 
#    y 0.000000 1.713830 0.000000 
#    z 0.000000 0.000000 1.763520 
# 
# From -- ./inp_files/16978.got.cif
#   From: 2010.05.17/outbox.cif.g08.bks.cpg/sg65_9_cif.got.tgz:16978.got - 2010.06.03 17:01:31.
