data_PCOD9484972
_publ_section_title
;
Structure prediction by ZEFSAII (Michael W. Deem and Ramdas Pophale) SiO2 
 PCOD9484972
Probable space group: C M M M
;
_chemical_formula_sum "Si O2"
_cell_formula_units_Z 88
_cell_length_a 16.899421
_cell_length_b 15.840507
_cell_length_c 14.166091
_cell_angle_alpha 90.000000
_cell_angle_beta 90.000000
_cell_angle_gamma 90.000000
_cell_volume 3792.197349
_symmetry_space_group_name_H-M "C M M M"
_symmetry_group_IT_number 65
_symmetry_cell_setting 'orthorhombic'
loop_
_space_group_symop_operation_xyz
x,y,z
-x,-y,z
x,-y,-z
-x,y,-z
-x,-y,-z
x,y,-z
-x,y,z
x,-y,z
1/2+x,1/2+y,z
1/2-x,1/2-y,z
1/2+x,1/2-y,-z
1/2-x,1/2+y,-z
1/2-x,1/2-y,-z
1/2+x,1/2+y,-z
1/2-x,1/2+y,z
1/2+x,1/2-y,z
loop_
_atom_site_type_symbol
_atom_site_label
_atom_site_fract_x
_atom_site_fract_y
_atom_site_fract_z
Si Si1 0.414660 0.102230 0.388641
Si Si2 0.909431 0.155465 0.102293
Si Si3 0.913765 0.097303 0.689485
Si Si4 0.500000 0.905048 0.885270
Si Si5 0.830840 0.332861 0.108612
Si Si6 0.244843 0.602583 0.290494
O O1 0.412992 0.120047 0.500000
O O2 0.500000 0.132647 0.350405
O O3 0.333888 0.133503 0.342997
O O4 0.414183 0.000000 0.378763
O O5 0.908384 0.100170 0.196038
O O6 0.848621 0.233194 0.107586
O O7 0.000000 0.191479 0.100510
O O8 0.898287 0.112991 0.000000
O O9 0.827650 0.133963 0.664255
O O10 0.000000 0.135313 0.663439
O O11 0.915498 0.000000 0.657815
O O12 0.583996 0.867877 0.858344
O O13 0.500000 0.000000 0.850590
O O14 0.500000 0.902897 0.000000
O O15 0.769037 0.368185 0.183255
O O16 0.814871 0.358739 0.000000
O O17 0.247381 0.500000 0.292868
#
# Coordination Sequence:
#
# PCOD9484972 Si02
#       6
#    16  16  16   8  16  16
#     4   8  15  29  49  74 104 134 162 196 241 296
#     4   9  17  31  49  67  92 129 172 214 254 298
#     4   9  19  35  51  67  89 121 167 221 266 295
#     4   9  16  26  40  60  92 134 164 186 226 279
#     4  10  19  30  44  67 101 136 168 202 241 295
#     4  10  20  31  48  74 101 133 170 206 246 295
#
# _framework density 23.205542999999999
#
# number of rings (size 3 to 8) (size 9 to 14) (size 15 to 20)
#    0.000    2.818    0.909    1.091    1.273    2.909 
#    0.000    5.455    0.000    0.545    0.000    6.364 
#    0.000    1.455    0.000    0.000    0.000    0.000 
#
# Total GULP energy -245382.928021 kJ/mol
# GULP energy per Si atom -5576.884728 kJ/mol
# Density = 2.315273 g / cm^3
# Si number density = 23.205543 Si / 1000 Ang^3
#
#
#
# Elastic Constant Matrix: (Units=GPa)
#
#
# Indices 1 2 3 4 5 6 
#
# 1 230.8603 14.4224 42.2252 0.0000 0.0000 0.0000
# 2 14.4224 25.2042 -4.1517 0.0000 0.0000 0.0000
# 3 42.2252 -4.1517 26.7169 0.0000 0.0000 0.0000
# 4 0.0000 0.0000 0.0000 -13.1600 0.0000 0.0000
# 5 0.0000 0.0000 0.0000 0.0000 6.6589 0.0000
# 6 0.0000 0.0000 0.0000 0.0000 0.0000 25.1854
#
#
#
# Elastic Compliance Matrix: (Units=1/GPa)
#
#
# Indices 1 2 3 4 5 6 
#
# 1 0.006840 -0.005844 -0.011719 0.000000 0.000000 0.000000
# 2 -0.005844 0.045712 0.016340 0.000000 0.000000 0.000000
# 3 -0.011719 0.016340 0.058490 0.000000 0.000000 0.000000
# 4 0.000000 0.000000 0.000000 -0.075988 0.000000 0.000000
# 5 0.000000 0.000000 0.000000 0.000000 0.150174 0.000000
# 6 0.000000 0.000000 0.000000 0.000000 0.000000 0.039705
#
#
# Mechanical properties :
#
#
# Convention : Reuss Voigt Hill
#
# Bulk Modulus (GPa) = 9.20841 43.08591 26.14716
# Shear Modulus (GPa) = 18.96971 19.08924 19.02948
#
# Velocity S-wave (km/s) = 2.86224 2.87124 2.86674
# Velocity P-wave (km/s) = 3.86005 5.44053 4.71696
#
# Compressibility (1/GPa) = 0.10859639
#
# Stress axis : x y z
#
# Youngs Moduli (GPa) = 146.19535 21.87613 17.09693
#
# Poissons Ratio (x) = 0.12785 0.20036
# Poissons Ratio (y) = 0.85443 -0.27937
# Poissons Ratio (z) = 1.71324 -0.35747
#
# Static dielectric constant tensor:
#      x y z
#    x 2.177090 0.000000 0.000000 
#    y 0.000000 1.829780 0.000000 
#    z 0.000000 0.000000 1.864870 
# 
# From -- ./inp_files/42515.got.cif
#   From: 2010.05.17/outbox.cif.g08.bks.cpg/sg65_22_cif.got.tgz:42515.got - 2010.06.03 17:01:31.
