data_PCOD9484217
_publ_section_title
;
Structure prediction by ZEFSAII (Michael W. Deem and Ramdas Pophale) SiO2 
 PCOD9484217
Probable space group: C M M M
;
_chemical_formula_sum "Si O2"
_cell_formula_units_Z 104
_cell_length_a 23.217615
_cell_length_b 28.248239
_cell_length_c 7.449205
_cell_angle_alpha 90.000000
_cell_angle_beta 90.000000
_cell_angle_gamma 90.000000
_cell_volume 4885.611288
_symmetry_space_group_name_H-M "C M M M"
_symmetry_group_IT_number 65
_symmetry_cell_setting 'orthorhombic'
loop_
_space_group_symop_operation_xyz
x,y,z
-x,-y,z
x,-y,-z
-x,y,-z
-x,-y,-z
x,y,-z
-x,y,z
x,-y,z
1/2+x,1/2+y,z
1/2-x,1/2-y,z
1/2+x,1/2-y,-z
1/2-x,1/2+y,-z
1/2-x,1/2-y,-z
1/2+x,1/2+y,-z
1/2-x,1/2+y,z
1/2+x,1/2-y,z
loop_
_atom_site_type_symbol
_atom_site_label
_atom_site_fract_x
_atom_site_fract_y
_atom_site_fract_z
Si Si1 0.867449 0.594684 0.711053
Si Si2 0.838560 0.867869 0.295714
Si Si3 0.566122 0.705109 0.280962
Si Si4 0.101026 0.691334 0.298256
Si Si5 0.745169 0.444853 0.279818
Si Si6 0.935301 0.500000 0.785318
Si Si7 0.268137 0.195845 0.208703
O O1 0.860570 0.605274 0.500000
O O2 0.904053 0.639070 0.787125
O O3 0.803053 0.582960 0.780588
O O4 0.902081 0.546555 0.726974
O O5 0.856488 0.878530 0.500000
O O6 0.889167 0.835064 0.215734
O O7 0.811988 0.916550 0.219082
O O8 0.782126 0.834609 0.295542
O O9 0.572236 0.706537 0.500000
O O10 0.500000 0.693988 0.238302
O O11 0.580470 0.758736 0.217265
O O12 0.076070 0.690216 0.500000
O O13 0.170339 0.693579 0.300828
O O14 0.745667 0.443909 0.500000
O O15 0.747340 0.500000 0.226820
O O16 0.000000 0.500000 0.716141
O O17 0.936389 0.500000 0.000000
O O18 0.250000 0.250000 0.214261
O O19 0.274110 0.181937 0.000000
#
# Coordination Sequence:
#
# PCOD9484217 Si02
#       7
#    16  16  16  16  16   8  16
#     4  10  19  33  55  79  99 128 172 221 265 306
#     4  10  18  31  54  75  98 136 173 208 255 311
#     4   9  18  31  49  75 103 132 170 214 253 298
#     4  10  19  32  53  77 102 131 169 213 259 307
#     4   9  16  28  49  78 104 123 158 212 263 304
#     4  11  25  41  53  69 101 145 184 213 252 306
#     4  11  21  30  45  74 109 135 162 205 253 305
#
# _framework density 21.286997
#
# number of rings (size 3 to 8) (size 9 to 14) (size 15 to 20)
#    0.000    2.077    3.846    0.692    0.000    2.462 
#    0.000    1.538    0.000    2.308    0.000    3.231 
#    0.000    0.000    0.000    1.385    0.000    1.538 
#
# Total GULP energy -290037.612001 kJ/mol
# GULP energy per Si atom -5577.646385 kJ/mol
# Density = 2.123855 g / cm^3
# Si number density = 21.286997 Si / 1000 Ang^3
#
#
#
# Elastic Constant Matrix: (Units=GPa)
#
#
# Indices 1 2 3 4 5 6 
#
# 1 112.6489 51.4736 -6.1814 0.0000 0.0000 0.0000
# 2 51.4736 136.1290 7.9153 0.0000 0.0000 0.0000
# 3 -6.1814 7.9153 70.7573 0.0000 0.0000 0.0000
# 4 0.0000 0.0000 0.0000 8.5936 0.0000 0.0000
# 5 0.0000 0.0000 0.0000 0.0000 -34.1630 0.0000
# 6 0.0000 0.0000 0.0000 0.0000 0.0000 5.4647
#
#
#
# Elastic Compliance Matrix: (Units=1/GPa)
#
#
# Indices 1 2 3 4 5 6 
#
# 1 0.010871 -0.004193 0.001419 0.000000 0.000000 0.000000
# 2 -0.004193 0.009011 -0.001374 0.000000 0.000000 0.000000
# 3 0.001419 -0.001374 0.014411 0.000000 0.000000 0.000000
# 4 0.000000 0.000000 0.000000 0.116365 0.000000 0.000000
# 5 0.000000 0.000000 0.000000 0.000000 -0.029271 0.000000
# 6 0.000000 0.000000 0.000000 0.000000 0.000000 0.182992
#
#
# Mechanical properties :
#
#
# Convention : Reuss Voigt Hill
#
# Bulk Modulus (GPa) = 38.46819 47.32777 42.89798
# Shear Modulus (GPa) = 15.55977 13.73426 14.64701
#
# Velocity S-wave (km/s) = 2.70654 2.54282 2.62596
# Velocity P-wave (km/s) = 5.27993 5.55902 5.42127
#
# Compressibility (1/GPa) = 0.02599551
#
# Stress axis : x y z
#
# Youngs Moduli (GPa) = 91.98820 110.97084 69.39379
#
# Poissons Ratio (x) = 0.46531 -0.09845
# Poissons Ratio (y) = 0.38571 0.09537
# Poissons Ratio (z) = -0.13051 0.15251
#
# Static dielectric constant tensor:
#      x y z
#    x 1.742380 0.000000 0.000000 
#    y 0.000000 1.666250 0.000000 
#    z 0.000000 0.000000 1.837890 
# 
# From -- ./inp_files/14715.got.cif
#   From: 2010.05.17/outbox.cif.g08.bks.cpg/sg65_8_cif.got.tgz:14715.got - 2010.06.03 17:01:31.
