data_PCOD9484520
_publ_section_title
;
Structure prediction by ZEFSAII (Michael W. Deem and Ramdas Pophale) SiO2 
 PCOD9484520
Probable space group: C M M M
;
_chemical_formula_sum "Si O2"
_cell_formula_units_Z 64
_cell_length_a 14.628356
_cell_length_b 8.560345
_cell_length_c 27.199891
_cell_angle_alpha 90.000000
_cell_angle_beta 90.000000
_cell_angle_gamma 90.000000
_cell_volume 3406.073007
_symmetry_space_group_name_H-M "C M M M"
_symmetry_group_IT_number 65
_symmetry_cell_setting 'orthorhombic'
loop_
_space_group_symop_operation_xyz
x,y,z
-x,-y,z
x,-y,-z
-x,y,-z
-x,-y,-z
x,y,-z
-x,y,z
x,-y,z
1/2+x,1/2+y,z
1/2-x,1/2-y,z
1/2+x,1/2-y,-z
1/2-x,1/2+y,-z
1/2-x,1/2-y,-z
1/2+x,1/2+y,-z
1/2-x,1/2+y,z
1/2+x,1/2-y,z
loop_
_atom_site_type_symbol
_atom_site_label
_atom_site_fract_x
_atom_site_fract_y
_atom_site_fract_z
Si Si1 0.853213 0.686782 0.603386
Si Si2 0.000000 0.313290 0.211525
Si Si3 0.852818 0.187939 0.135974
Si Si4 0.645728 0.686942 0.500000
Si Si5 0.500000 0.310164 0.055865
Si Si6 0.500000 0.686671 0.321923
O O1 0.852651 0.500000 0.602326
O O2 0.750000 0.750000 0.607923
O O3 0.892195 0.749478 0.551345
O O4 0.913184 0.749272 0.648076
O O5 0.911613 0.252398 0.181625
O O6 0.000000 0.248002 0.266484
O O7 0.000000 0.500000 0.212082
O O8 0.750000 0.250000 0.135267
O O9 0.910924 0.235688 0.087501
O O10 0.852352 0.000000 0.138386
O O11 0.644100 0.500000 0.500000
O O12 0.750000 0.750000 0.500000
O O13 0.500000 0.500000 0.054384
O O14 0.500000 0.252493 0.000000
O O15 0.500000 0.500000 0.322480
#
# Coordination Sequence:
#
# PCOD9484520 Si02
#       6
#    16   8  16   8   8   8
#     4  11  22  39  60  86 116 150 188 231 282 340
#     4  11  23  41  61  83 111 145 188 240 292 342
#     4  10  20  36  59  86 116 154 197 239 285 338
#     4  10  18  33  56  83 113 150 188 229 279 335
#     4   8  16  32  54  83 122 161 196 238 285 332
#     4  12  25  42  61  86 115 146 186 235 289 346
#
# _framework density 18.789967000000001
#
# number of rings (size 3 to 8) (size 9 to 14) (size 15 to 20)
#    0.000    1.625    0.000    8.625    0.000    2.000 
#    0.000    7.500    0.000   12.750    0.000    0.000 
#    0.000    0.000    0.000    0.000    0.000    0.000 
#
# Total GULP energy -178816.919693 kJ/mol
# GULP energy per Si atom -5588.028740 kJ/mol
# Density = 1.874720 g / cm^3
# Si number density = 18.789967 Si / 1000 Ang^3
#
#
#
# Elastic Constant Matrix: (Units=GPa)
#
#
# Indices 1 2 3 4 5 6 
#
# 1 166.6185 61.2416 99.5400 0.0000 0.0000 0.0000
# 2 61.2416 175.4413 77.4613 0.0000 0.0000 0.0000
# 3 99.5400 77.4613 215.8428 0.0000 0.0000 0.0000
# 4 0.0000 0.0000 0.0000 24.3899 0.0000 0.0000
# 5 0.0000 0.0000 0.0000 0.0000 11.3045 0.0000
# 6 0.0000 0.0000 0.0000 0.0000 0.0000 26.9936
#
#
#
# Elastic Compliance Matrix: (Units=1/GPa)
#
#
# Indices 1 2 3 4 5 6 
#
# 1 0.008598 -0.001486 -0.003432 0.000000 0.000000 0.000000
# 2 -0.001486 0.007030 -0.001838 0.000000 0.000000 0.000000
# 3 -0.003432 -0.001838 0.006875 0.000000 0.000000 0.000000
# 4 0.000000 0.000000 0.000000 0.041001 0.000000 0.000000
# 5 0.000000 0.000000 0.000000 0.000000 0.088461 0.000000
# 6 0.000000 0.000000 0.000000 0.000000 0.000000 0.037046
#
#
# Mechanical properties :
#
#
# Convention : Reuss Voigt Hill
#
# Bulk Modulus (GPa) = 111.20750 114.93205 113.06977
# Shear Modulus (GPa) = 24.32865 33.84823 29.08844
#
# Velocity S-wave (km/s) = 3.60219 4.24889 3.93884
# Velocity P-wave (km/s) = 8.75295 9.23960 8.99957
#
# Compressibility (1/GPa) = 0.00899220
#
# Stress axis : x y z
#
# Youngs Moduli (GPa) = 116.30295 142.24742 145.45148
#
# Poissons Ratio (x) = 0.21140 0.49917
# Poissons Ratio (y) = 0.17284 0.26727
# Poissons Ratio (z) = 0.39914 0.26139
#
# Static dielectric constant tensor:
#      x y z
#    x 1.639330 0.000000 0.000000 
#    y 0.000000 1.622910 0.000000 
#    z 0.000000 0.000000 1.641820 
# 
# From -- ./inp_files/69604.got.cif
#   From: 2010.05.17/outbox.cif.g08.bks.cpg/sg65_35_cif.got.tgz:69604.got - 2010.06.03 17:01:31.
