data_PCOD9484747
_publ_section_title
;
Structure prediction by ZEFSAII (Michael W. Deem and Ramdas Pophale) SiO2 
 PCOD9484747
Probable space group: C M M M
;
_chemical_formula_sum "Si O2"
_cell_formula_units_Z 96
_cell_length_a 26.831934
_cell_length_b 9.117465
_cell_length_c 23.198641
_cell_angle_alpha 90.000000
_cell_angle_beta 90.000000
_cell_angle_gamma 90.000000
_cell_volume 5675.297419
_symmetry_space_group_name_H-M "C M M M"
_symmetry_group_IT_number 65
_symmetry_cell_setting 'orthorhombic'
loop_
_space_group_symop_operation_xyz
x,y,z
-x,-y,z
x,-y,-z
-x,y,-z
-x,-y,-z
x,y,-z
-x,y,z
x,-y,z
1/2+x,1/2+y,z
1/2-x,1/2-y,z
1/2+x,1/2-y,-z
1/2-x,1/2+y,-z
1/2-x,1/2-y,-z
1/2+x,1/2+y,-z
1/2-x,1/2+y,z
1/2+x,1/2-y,z
loop_
_atom_site_type_symbol
_atom_site_label
_atom_site_fract_x
_atom_site_fract_y
_atom_site_fract_z
Si Si1 0.057663 0.824356 0.758255
Si Si2 0.705181 0.163817 0.243912
Si Si3 0.641472 0.675166 0.334867
Si Si4 0.196867 0.672969 0.568615
Si Si5 0.620047 0.834471 0.148263
Si Si6 0.302773 0.329746 0.069212
O O1 0.092522 0.784378 0.703159
O O2 0.076287 0.748657 0.817353
O O3 0.000000 0.789500 0.747299
O O4 0.063052 0.000000 0.765265
O O5 0.750000 0.250000 0.215360
O O6 0.686598 0.263666 0.296046
O O7 0.661301 0.153691 0.198394
O O8 0.718768 0.000000 0.262623
O O9 0.642792 0.500000 0.340674
O O10 0.652210 0.752458 0.395579
O O11 0.189129 0.689111 0.500000
O O12 0.199873 0.500000 0.582173
O O13 0.250000 0.750000 0.582138
O O14 0.649640 0.747063 0.098835
O O15 0.606173 0.000000 0.130207
O O16 0.299713 0.500000 0.087675
O O17 0.250000 0.250000 0.081880
O O18 0.308658 0.325029 0.000000
#
# Coordination Sequence:
#
# PCOD9484747 Si02
#       6
#    16  16  16  16  16  16
#     4   9  19  36  56  76  98 126 161 204 255 305
#     4  10  19  29  42  64  95 127 158 192 234 285
#     4  10  19  31  49  71  95 124 159 199 242 289
#     4  10  20  33  49  70  99 134 168 200 236 282
#     4  10  20  32  49  73  99 129 164 203 247 295
#     4  10  20  33  50  73 103 139 174 206 242 287
#
# _framework density 16.915413000000001
#
# number of rings (size 3 to 8) (size 9 to 14) (size 15 to 20)
#    0.000    2.167    0.000    3.500    0.000    6.333 
#    0.000    0.000    0.000    1.000    0.000    7.000 
#    0.000    0.000    0.000    0.000    0.000    0.000 
#
# Total GULP energy -267500.321966 kJ/mol
# GULP energy per Si atom -5572.923374 kJ/mol
# Density = 1.687691 g / cm^3
# Si number density = 16.915413 Si / 1000 Ang^3
#
#
#
# Elastic Constant Matrix: (Units=GPa)
#
#
# Indices 1 2 3 4 5 6 
#
# 1 86.6434 55.5761 36.6100 0.0000 0.0000 0.0000
# 2 55.5761 106.5405 46.6486 0.0000 0.0000 0.0000
# 3 36.6100 46.6486 72.1507 0.0000 0.0000 0.0000
# 4 0.0000 0.0000 0.0000 37.2525 0.0000 0.0000
# 5 0.0000 0.0000 0.0000 0.0000 23.5357 0.0000
# 6 0.0000 0.0000 0.0000 0.0000 0.0000 21.2152
#
#
#
# Elastic Compliance Matrix: (Units=1/GPa)
#
#
# Indices 1 2 3 4 5 6 
#
# 1 0.018268 -0.007631 -0.004336 0.000000 0.000000 0.000000
# 2 -0.007631 0.016280 -0.006654 0.000000 0.000000 0.000000
# 3 -0.004336 -0.006654 0.020362 0.000000 0.000000 0.000000
# 4 0.000000 0.000000 0.000000 0.026844 0.000000 0.000000
# 5 0.000000 0.000000 0.000000 0.000000 0.042489 0.000000
# 6 0.000000 0.000000 0.000000 0.000000 0.000000 0.047136
#
#
# Mechanical properties :
#
#
# Convention : Reuss Voigt Hill
#
# Bulk Modulus (GPa) = 56.59569 60.33379 58.46474
# Shear Modulus (GPa) = 23.30895 24.83400 24.07148
#
# Velocity S-wave (km/s) = 3.71613 3.83577 3.77643
# Velocity P-wave (km/s) = 7.20719 7.44063 7.32484
#
# Compressibility (1/GPa) = 0.01766919
#
# Stress axis : x y z
#
# Youngs Moduli (GPa) = 54.73908 61.42432 49.11166
#
# Poissons Ratio (x) = 0.46874 0.21293
# Poissons Ratio (y) = 0.41773 0.32677
# Poissons Ratio (z) = 0.23733 0.40870
#
# Static dielectric constant tensor:
#      x y z
#    x 1.587410 0.000000 0.000000 
#    y 0.000000 1.608020 0.000000 
#    z 0.000000 0.000000 1.591800 
# 
# From -- ./inp_files/68001.got.cif
#   From: 2010.05.17/outbox.cif.g08.bks.cpg/sg65_35_cif.got.tgz:68001.got - 2010.06.03 17:01:31.
