data_PCOD9484301
_publ_section_title
;
Structure prediction by ZEFSAII (Michael W. Deem and Ramdas Pophale) SiO2 
 PCOD9484301
Probable space group: C M M M
;
_chemical_formula_sum "Si O2"
_cell_formula_units_Z 104
_cell_length_a 24.305206
_cell_length_b 8.788311
_cell_length_c 28.662689
_cell_angle_alpha 90.000000
_cell_angle_beta 90.000000
_cell_angle_gamma 90.000000
_cell_volume 6122.399362
_symmetry_space_group_name_H-M "C M M M"
_symmetry_group_IT_number 65
_symmetry_cell_setting 'orthorhombic'
loop_
_space_group_symop_operation_xyz
x,y,z
-x,-y,z
x,-y,-z
-x,y,-z
-x,-y,-z
x,y,-z
-x,y,z
x,-y,z
1/2+x,1/2+y,z
1/2-x,1/2-y,z
1/2+x,1/2-y,-z
1/2-x,1/2+y,-z
1/2-x,1/2-y,-z
1/2+x,1/2+y,-z
1/2-x,1/2+y,z
1/2+x,1/2-y,z
loop_
_atom_site_type_symbol
_atom_site_label
_atom_site_fract_x
_atom_site_fract_y
_atom_site_fract_z
Si Si1 0.311095 0.818377 0.946759
Si Si2 0.188641 0.316058 0.226488
Si Si3 0.500000 0.320424 0.845138
Si Si4 0.500000 0.176207 0.253254
Si Si5 0.066721 0.674598 0.500000
Si Si6 0.121770 0.183803 0.138436
Si Si7 0.564040 0.318584 0.598127
Si Si8 0.111750 0.679548 0.311323
O O1 0.250000 0.750000 0.942913
O O2 0.347767 0.739565 0.907775
O O3 0.309186 0.000000 0.939236
O O4 0.330255 0.790578 0.000000
O O5 0.189512 0.500000 0.223768
O O6 0.250000 0.250000 0.223278
O O7 0.152127 0.252434 0.183798
O O8 0.159618 0.272083 0.275556
O O9 0.500000 0.500000 0.854152
O O10 0.500000 0.287522 0.790189
O O11 0.558397 0.261376 0.863261
O O12 0.554503 0.199123 0.283441
O O13 0.500000 0.000000 0.236650
O O14 0.084707 0.500000 0.500000
O O15 0.082841 0.755236 0.548080
O O16 0.000000 0.677784 0.500000
O O17 0.123301 0.000000 0.141810
O O18 0.500000 0.266446 0.606186
O O19 0.563077 0.500000 0.596543
O O20 0.602711 0.263705 0.640001
O O21 0.118702 0.500000 0.320583
#
# Coordination Sequence:
#
# PCOD9484301 Si02
#       8
#    16  16   8   8   8  16  16  16
#     4  10  21  38  60  84 108 137 176 221 267 313
#     4  11  23  38  55  77 106 140 178 220 264 311
#     4  10  22  36  53  79 109 142 178 214 257 310
#     4  10  18  32  52  74 102 136 176 219 256 306
#     4   9  17  29  45  65  96 137 176 213 255 306
#     4  11  22  37  57  81 110 142 176 215 261 314
#     4  10  19  29  45  71 103 136 171 213 260 308
#     4  10  20  33  51  74 102 137 175 212 258 312
#
# _framework density 16.986805
#
# number of rings (size 3 to 8) (size 9 to 14) (size 15 to 20)
#    0.000    1.769    2.308    2.538    0.000    4.923 
#    0.000    0.385    0.000    2.308    0.000    0.538 
#    0.000    0.000    0.000    0.000    0.000    0.000 
#
# Total GULP energy -290172.332109 kJ/mol
# GULP energy per Si atom -5580.237156 kJ/mol
# Density = 1.694814 g / cm^3
# Si number density = 16.986805 Si / 1000 Ang^3
#
#
#
# Elastic Constant Matrix: (Units=GPa)
#
#
# Indices 1 2 3 4 5 6 
#
# 1 105.4622 36.6224 66.5909 0.0000 0.0000 0.0000
# 2 36.6224 52.2433 53.6307 0.0000 0.0000 0.0000
# 3 66.5909 53.6307 136.8878 0.0000 0.0000 0.0000
# 4 0.0000 0.0000 0.0000 28.3905 0.0000 0.0000
# 5 0.0000 0.0000 0.0000 0.0000 8.1431 0.0000
# 6 0.0000 0.0000 0.0000 0.0000 0.0000 14.6822
#
#
#
# Elastic Compliance Matrix: (Units=1/GPa)
#
#
# Indices 1 2 3 4 5 6 
#
# 1 0.014385 -0.004852 -0.005097 0.000000 0.000000 0.000000
# 2 -0.004852 0.033655 -0.010826 0.000000 0.000000 0.000000
# 3 -0.005097 -0.010826 0.014026 0.000000 0.000000 0.000000
# 4 0.000000 0.000000 0.000000 0.035223 0.000000 0.000000
# 5 0.000000 0.000000 0.000000 0.000000 0.122803 0.000000
# 6 0.000000 0.000000 0.000000 0.000000 0.000000 0.068110
#
#
# Mechanical properties :
#
#
# Convention : Reuss Voigt Hill
#
# Bulk Modulus (GPa) = 48.73737 67.58681 58.16209
# Shear Modulus (GPa) = 14.85488 19.42645 17.14066
#
# Velocity S-wave (km/s) = 2.96039 3.38541 3.18001
# Velocity P-wave (km/s) = 6.35915 7.42668 6.91355
#
# Compressibility (1/GPa) = 0.02051813
#
# Stress axis : x y z
#
# Youngs Moduli (GPa) = 69.51581 29.71315 71.29571
#
# Poissons Ratio (x) = 0.14415 0.36340
# Poissons Ratio (y) = 0.33726 0.77181
# Poissons Ratio (z) = 0.35433 0.32166
#
# Static dielectric constant tensor:
#      x y z
#    x 1.570610 0.000000 0.000000 
#    y 0.000000 1.574590 0.000000 
#    z 0.000000 0.000000 1.558600 
# 
# From -- ./inp_files/75829.got.cif
#   From: 2010.05.17/outbox.cif.g08.bks.cpg/sg65_38_cif.got.tgz:75829.got - 2010.06.03 17:01:31.
