data_PCOD9484316
_publ_section_title
;
Structure prediction by ZEFSAII (Michael W. Deem and Ramdas Pophale) SiO2 
 PCOD9484316
Probable space group: C M M M
;
_chemical_formula_sum "Si O2"
_cell_formula_units_Z 104
_cell_length_a 8.481024
_cell_length_b 29.625968
_cell_length_c 24.070056
_cell_angle_alpha 90.000000
_cell_angle_beta 90.000000
_cell_angle_gamma 90.000000
_cell_volume 6047.807264
_symmetry_space_group_name_H-M "C M M M"
_symmetry_group_IT_number 65
_symmetry_cell_setting 'orthorhombic'
loop_
_space_group_symop_operation_xyz
x,y,z
-x,-y,z
x,-y,-z
-x,y,-z
-x,-y,-z
x,y,-z
-x,y,z
x,-y,z
1/2+x,1/2+y,z
1/2-x,1/2-y,z
1/2+x,1/2-y,-z
1/2-x,1/2+y,-z
1/2-x,1/2-y,-z
1/2+x,1/2+y,-z
1/2-x,1/2+y,z
1/2+x,1/2-y,z
loop_
_atom_site_type_symbol
_atom_site_label
_atom_site_fract_x
_atom_site_fract_y
_atom_site_fract_z
Si Si1 0.190011 0.301003 0.329231
Si Si2 0.309820 0.049881 0.605676
Si Si3 0.189133 0.144592 0.222306
Si Si4 0.687386 0.698548 0.000000
Si Si5 0.692342 0.145259 0.561078
Si Si6 0.312925 0.801283 0.883050
Si Si7 0.190277 0.949708 0.268484
O O1 0.250000 0.250000 0.326498
O O2 0.256448 0.328919 0.277336
O O3 0.242055 0.324255 0.387028
O O4 0.000000 0.301875 0.326734
O O5 0.500000 0.049517 0.603075
O O6 0.256074 0.093581 0.571854
O O7 0.259932 0.056033 0.669752
O O8 0.254025 0.000000 0.587468
O O9 0.260336 0.168512 0.168555
O O10 0.238490 0.092423 0.230718
O O11 0.000000 0.146624 0.218500
O O12 0.750000 0.750000 0.000000
O O13 0.748610 0.679596 0.941611
O O14 0.500000 0.698749 0.000000
O O15 0.744148 0.160623 0.500000
O O16 0.500000 0.145420 0.561404
O O17 0.500000 0.798684 0.886133
O O18 0.250000 0.750000 0.875629
O O19 0.000000 0.948397 0.273254
O O20 0.235322 0.000000 0.248764
#
# Coordination Sequence:
#
# PCOD9484316 Si02
#       7
#    16  16  16   8  16  16  16
#     4  11  22  36  52  70  95 127 165 210 259 305
#     4   9  16  28  49  74  97 122 155 196 246 305
#     4  11  21  34  53  77 104 133 169 209 253 302
#     4  10  18  32  52  76 109 146 183 216 252 293
#     4   9  18  32  49  70  96 125 160 203 251 305
#     4  11  21  34  52  77 110 145 181 215 253 295
#     4   9  18  32  51  74 101 131 161 199 250 305
#
# _framework density 17.196315999999999
#
# number of rings (size 3 to 8) (size 9 to 14) (size 15 to 20)
#    0.000    2.000    1.538    4.385    0.000    1.231 
#    0.000    1.538    0.000    3.692    0.000    2.692 
#    0.000    4.308    0.000    0.000    0.000    0.000 
#
# Total GULP energy -290133.687945 kJ/mol
# GULP energy per Si atom -5579.493999 kJ/mol
# Density = 1.715718 g / cm^3
# Si number density = 17.196316 Si / 1000 Ang^3
#
#
#
# Elastic Constant Matrix: (Units=GPa)
#
#
# Indices 1 2 3 4 5 6 
#
# 1 61.4080 24.6788 32.7177 0.0000 0.0000 0.0000
# 2 24.6788 103.9631 62.2407 0.0000 0.0000 0.0000
# 3 32.7177 62.2407 139.6556 0.0000 0.0000 0.0000
# 4 0.0000 0.0000 0.0000 18.7651 0.0000 0.0000
# 5 0.0000 0.0000 0.0000 0.0000 14.9713 0.0000
# 6 0.0000 0.0000 0.0000 0.0000 0.0000 9.9303
#
#
#
# Elastic Compliance Matrix: (Units=1/GPa)
#
#
# Indices 1 2 3 4 5 6 
#
# 1 0.019082 -0.002528 -0.003344 0.000000 0.000000 0.000000
# 2 -0.002528 0.013454 -0.005404 0.000000 0.000000 0.000000
# 3 -0.003344 -0.005404 0.010352 0.000000 0.000000 0.000000
# 4 0.000000 0.000000 0.000000 0.053290 0.000000 0.000000
# 5 0.000000 0.000000 0.000000 0.000000 0.066794 0.000000
# 6 0.000000 0.000000 0.000000 0.000000 0.000000 0.100702
#
#
# Mechanical properties :
#
#
# Convention : Reuss Voigt Hill
#
# Bulk Modulus (GPa) = 49.17105 60.47790 54.82447
# Shear Modulus (GPa) = 17.06454 21.09264 19.07859
#
# Velocity S-wave (km/s) = 3.15356 3.50605 3.33447
# Velocity P-wave (km/s) = 6.47425 7.18577 6.83927
#
# Compressibility (1/GPa) = 0.02033717
#
# Stress axis : x y z
#
# Youngs Moduli (GPa) = 52.40546 74.32692 96.59752
#
# Poissons Ratio (x) = 0.18788 0.32301
# Poissons Ratio (y) = 0.13247 0.52201
# Poissons Ratio (z) = 0.17524 0.40166
#
# Static dielectric constant tensor:
#      x y z
#    x 1.573420 0.000000 0.000000 
#    y 0.000000 1.609520 0.000000 
#    z 0.000000 0.000000 1.577650 
# 
# From -- ./inp_files/60886.got.cif
#   From: 2010.05.17/outbox.cif.g08.bks.cpg/sg65_31_cif.got.tgz:60886.got - 2010.06.03 17:01:31.
