data_PCOD9484235
_publ_section_title
;
Structure prediction by ZEFSAII (Michael W. Deem and Ramdas Pophale) SiO2 
 PCOD9484235
Probable space group: C M M M
;
_chemical_formula_sum "Si O2"
_cell_formula_units_Z 56
_cell_length_a 15.129861
_cell_length_b 8.747490
_cell_length_c 22.353264
_cell_angle_alpha 90.000000
_cell_angle_beta 90.000000
_cell_angle_gamma 90.000000
_cell_volume 2958.416664
_symmetry_space_group_name_H-M "C M M M"
_symmetry_group_IT_number 65
_symmetry_cell_setting 'orthorhombic'
loop_
_space_group_symop_operation_xyz
x,y,z
-x,-y,z
x,-y,-z
-x,y,-z
-x,-y,-z
x,y,-z
-x,y,z
x,-y,z
1/2+x,1/2+y,z
1/2-x,1/2-y,z
1/2+x,1/2-y,-z
1/2-x,1/2+y,-z
1/2-x,1/2-y,-z
1/2+x,1/2+y,-z
1/2-x,1/2+y,z
1/2+x,1/2-y,z
loop_
_atom_site_type_symbol
_atom_site_label
_atom_site_fract_x
_atom_site_fract_y
_atom_site_fract_z
Si Si1 0.000000 0.318450 0.650082
Si Si2 0.652376 0.317056 0.568616
Si Si3 0.151406 0.816551 0.123946
Si Si4 0.650120 0.816870 0.000000
Si Si5 0.500000 0.316878 0.781816
O O1 0.915281 0.252388 0.615523
O O2 0.000000 0.500000 0.646373
O O3 0.000000 0.265654 0.718611
O O4 0.625262 0.280479 0.500000
O O5 0.654317 0.500000 0.574317
O O6 0.750000 0.250000 0.577438
O O7 0.250000 0.750000 0.133162
O O8 0.086189 0.779887 0.178408
O O9 0.157095 0.000000 0.117474
O O10 0.113135 0.746697 0.062256
O O11 0.750000 0.750000 0.000000
O O12 0.650592 0.000000 0.000000
O O13 0.500000 0.500000 0.771989
#
# Coordination Sequence:
#
# PCOD9484235 Si02
#       5
#     8  16  16   8   8
#     4  12  25  39  59  86 120 159 197 239 286 343
#     4  10  21  39  64  92 121 153 192 239 289 341
#     4  10  20  37  59  82 109 144 185 233 285 338
#     4  10  18  31  54  83 112 142 178 227 283 339
#     4  10  24  42  58  78 111 154 196 235 282 342
#
# _framework density 18.929044999999999
#
# number of rings (size 3 to 8) (size 9 to 14) (size 15 to 20)
#    0.000    1.714    0.000    6.429    0.000    7.429 
#    0.000    5.714    0.000    0.000    0.000    0.000 
#    0.000    0.000    0.000    0.000    0.000    0.000 
#
# Total GULP energy -156479.765735 kJ/mol
# GULP energy per Si atom -5588.563062 kJ/mol
# Density = 1.888596 g / cm^3
# Si number density = 18.929045 Si / 1000 Ang^3
#
#
#
# Elastic Constant Matrix: (Units=GPa)
#
#
# Indices 1 2 3 4 5 6 
#
# 1 108.5294 61.9457 95.7890 0.0000 0.0000 0.0000
# 2 61.9457 116.7712 101.4849 0.0000 0.0000 0.0000
# 3 95.7890 101.4849 188.1608 0.0000 0.0000 0.0000
# 4 0.0000 0.0000 0.0000 32.8207 0.0000 0.0000
# 5 0.0000 0.0000 0.0000 0.0000 82.5018 0.0000
# 6 0.0000 0.0000 0.0000 0.0000 0.0000 28.2126
#
#
#
# Elastic Compliance Matrix: (Units=1/GPa)
#
#
# Indices 1 2 3 4 5 6 
#
# 1 0.017223 -0.002855 -0.007228 0.000000 0.000000 0.000000
# 2 -0.002855 0.016593 -0.007496 0.000000 0.000000 0.000000
# 3 -0.007228 -0.007496 0.013038 0.000000 0.000000 0.000000
# 4 0.000000 0.000000 0.000000 0.030469 0.000000 0.000000
# 5 0.000000 0.000000 0.000000 0.000000 0.012121 0.000000
# 6 0.000000 0.000000 0.000000 0.000000 0.000000 0.035445
#
#
# Mechanical properties :
#
#
# Convention : Reuss Voigt Hill
#
# Bulk Modulus (GPa) = 85.50409 103.54451 94.52430
# Shear Modulus (GPa) = 30.49793 38.98980 34.74387
#
# Velocity S-wave (km/s) = 4.01829 4.54341 4.28890
# Velocity P-wave (km/s) = 8.17299 9.07434 8.63543
#
# Compressibility (1/GPa) = 0.01169535
#
# Stress axis : x y z
#
# Youngs Moduli (GPa) = 58.06094 60.26637 76.70141
#
# Poissons Ratio (x) = 0.17204 0.55443
# Poissons Ratio (y) = 0.16574 0.57497
# Poissons Ratio (z) = 0.41969 0.45177
#
# Static dielectric constant tensor:
#      x y z
#    x 1.673430 0.000000 0.000000 
#    y 0.000000 1.629460 0.000000 
#    z 0.000000 0.000000 1.651850 
# 
# From -- ./inp_files/53953.got.cif
#   From: 2010.05.17/outbox.cif.g08.bks.cpg/sg65_27_cif.got.tgz:53953.got - 2010.06.03 17:01:31.
