data_PCOD9484402
_publ_section_title
;
Structure prediction by ZEFSAII (Michael W. Deem and Ramdas Pophale) SiO2 
 PCOD9484402
Probable space group: C M M M
;
_chemical_formula_sum "Si O2"
_cell_formula_units_Z 96
_cell_length_a 8.573283
_cell_length_b 24.186835
_cell_length_c 26.082772
_cell_angle_alpha 90.000000
_cell_angle_beta 90.000000
_cell_angle_gamma 90.000000
_cell_volume 5408.538765
_symmetry_space_group_name_H-M "C M M M"
_symmetry_group_IT_number 65
_symmetry_cell_setting 'orthorhombic'
loop_
_space_group_symop_operation_xyz
x,y,z
-x,-y,z
x,-y,-z
-x,y,-z
-x,-y,-z
x,y,-z
-x,y,z
x,-y,z
1/2+x,1/2+y,z
1/2-x,1/2-y,z
1/2+x,1/2-y,-z
1/2-x,1/2+y,-z
1/2-x,1/2-y,-z
1/2+x,1/2+y,-z
1/2-x,1/2+y,z
1/2+x,1/2-y,z
loop_
_atom_site_type_symbol
_atom_site_label
_atom_site_fract_x
_atom_site_fract_y
_atom_site_fract_z
Si Si1 0.188709 0.122546 0.794714
Si Si2 0.314706 0.564078 0.500000
Si Si3 0.182093 0.000000 0.219482
Si Si4 0.313402 0.686921 0.000000
Si Si5 0.680146 0.000000 0.671993
Si Si6 0.811649 0.312322 0.304815
Si Si7 0.686642 0.187356 0.107131
Si Si8 0.183982 0.390275 0.604469
O O1 0.250094 0.151248 0.742771
O O2 0.249905 0.155169 0.843864
O O3 0.000000 0.123426 0.793372
O O4 0.246278 0.059033 0.798245
O O5 0.251993 0.500000 0.500000
O O6 0.500000 0.559959 0.500000
O O7 0.262996 0.597083 0.449487
O O8 0.204714 0.000000 0.280560
O O9 0.000000 0.000000 0.205977
O O10 0.250000 0.750000 0.000000
O O11 0.249694 0.662862 0.946687
O O12 0.500000 0.687385 0.000000
O O13 0.702376 0.945865 0.637952
O O14 0.500000 0.000000 0.690884
O O15 0.750000 0.250000 0.300459
O O16 0.761020 0.340706 0.358556
O O17 0.000000 0.312807 0.303165
O O18 0.500000 0.188385 0.106451
O O19 0.750000 0.250000 0.110766
O O20 0.000000 0.382135 0.595078
#
# Coordination Sequence:
#
# PCOD9484402 Si02
#       8
#    16   8   8   8   8  16  16  16
#     4  11  22  37  56  82 114 148 184 227 276 329
#     4  11  23  35  54  85 114 139 174 222 273 322
#     4  10  22  36  55  82 113 146 181 225 277 327
#     4  10  18  32  54  81 112 147 186 232 280 328
#     4  10  18  33  57  82 108 139 178 225 272 327
#     4  11  23  39  58  82 110 146 185 225 273 328
#     4  11  21  35  55  82 114 150 189 232 277 326
#     4  10  21  37  58  81 109 143 179 220 271 328
#
# _framework density 17.749711000000001
#
# number of rings (size 3 to 8) (size 9 to 14) (size 15 to 20)
#    0.000    1.417    2.500    5.000    0.000    3.000 
#    0.000    0.417    0.000    0.500    0.000    3.500 
#    0.000    0.000    0.000    0.000    0.000    0.000 
#
# Total GULP energy -267948.459249 kJ/mol
# GULP energy per Si atom -5582.259568 kJ/mol
# Density = 1.770931 g / cm^3
# Si number density = 17.749711 Si / 1000 Ang^3
#
#
#
# Elastic Constant Matrix: (Units=GPa)
#
#
# Indices 1 2 3 4 5 6 
#
# 1 76.9906 35.4763 44.3167 0.0000 0.0000 0.0000
# 2 35.4763 119.7817 63.8104 0.0000 0.0000 0.0000
# 3 44.3167 63.8104 148.6281 0.0000 0.0000 0.0000
# 4 0.0000 0.0000 0.0000 4.1548 0.0000 0.0000
# 5 0.0000 0.0000 0.0000 0.0000 30.7090 0.0000
# 6 0.0000 0.0000 0.0000 0.0000 0.0000 13.6997
#
#
#
# Elastic Compliance Matrix: (Units=1/GPa)
#
#
# Indices 1 2 3 4 5 6 
#
# 1 0.016434 -0.002926 -0.003644 0.000000 0.000000 0.000000
# 2 -0.002926 0.011345 -0.003998 0.000000 0.000000 0.000000
# 3 -0.003644 -0.003998 0.009531 0.000000 0.000000 0.000000
# 4 0.000000 0.000000 0.000000 0.240686 0.000000 0.000000
# 5 0.000000 0.000000 0.000000 0.000000 0.032564 0.000000
# 6 0.000000 0.000000 0.000000 0.000000 0.000000 0.072994
#
#
# Mechanical properties :
#
#
# Convention : Reuss Voigt Hill
#
# Bulk Modulus (GPa) = 61.82783 70.28969 66.05876
# Shear Modulus (GPa) = 12.19264 23.16583 17.67924
#
# Velocity S-wave (km/s) = 2.62376 3.61659 3.15942
# Velocity P-wave (km/s) = 6.63985 7.55818 7.11385
#
# Compressibility (1/GPa) = 0.01617395
#
# Stress axis : x y z
#
# Youngs Moduli (GPa) = 60.84768 88.14311 104.91734
#
# Poissons Ratio (x) = 0.25793 0.38232
# Poissons Ratio (y) = 0.17806 0.41949
# Poissons Ratio (z) = 0.22173 0.35242
#
# Static dielectric constant tensor:
#      x y z
#    x 1.605660 0.000000 0.000000 
#    y 0.000000 1.611440 0.000000 
#    z 0.000000 0.000000 1.597620 
# 
# From -- ./inp_files/67946.got.cif
#   From: 2010.05.17/outbox.cif.g08.bks.cpg/sg65_34_cif.got.tgz:67946.got - 2010.06.03 17:01:31.
