data_PCOD9484540
_publ_section_title
;
Structure prediction by ZEFSAII (Michael W. Deem and Ramdas Pophale) SiO2 
 PCOD9484540
Probable space group: C M M M
;
_chemical_formula_sum "Si O2"
_cell_formula_units_Z 64
_cell_length_a 14.926584
_cell_length_b 8.569680
_cell_length_c 25.512922
_cell_angle_alpha 90.000000
_cell_angle_beta 90.000000
_cell_angle_gamma 90.000000
_cell_volume 3263.512165
_symmetry_space_group_name_H-M "C M M M"
_symmetry_group_IT_number 65
_symmetry_cell_setting 'orthorhombic'
loop_
_space_group_symop_operation_xyz
x,y,z
-x,-y,z
x,-y,-z
-x,y,-z
-x,-y,-z
x,y,-z
-x,y,z
x,-y,z
1/2+x,1/2+y,z
1/2-x,1/2-y,z
1/2+x,1/2-y,-z
1/2-x,1/2+y,-z
1/2-x,1/2-y,-z
1/2+x,1/2+y,-z
1/2-x,1/2+y,z
1/2+x,1/2-y,z
loop_
_atom_site_type_symbol
_atom_site_label
_atom_site_fract_x
_atom_site_fract_y
_atom_site_fract_z
Si Si1 0.352130 0.813272 0.500000
Si Si2 0.500000 0.187842 0.312929
Si Si3 0.148683 0.187663 0.114839
Si Si4 0.148666 0.813500 0.389726
Si Si5 0.851599 0.811878 0.000000
Si Si6 0.500000 0.813340 0.191479
O O1 0.250000 0.750000 0.500000
O O2 0.389302 0.749698 0.445271
O O3 0.353495 0.000000 0.500000
O O4 0.586336 0.253174 0.343227
O O5 0.500000 0.235591 0.252136
O O6 0.500000 0.000000 0.315947
O O7 0.250000 0.250000 0.119530
O O8 0.086104 0.251423 0.160324
O O9 0.149731 0.000000 0.116691
O O10 0.111914 0.236291 0.056887
O O11 0.250000 0.750000 0.383914
O O12 0.150710 0.000000 0.391346
O O13 0.750000 0.750000 0.000000
O O14 0.852007 0.000000 0.000000
O O15 0.500000 0.000000 0.190004
#
# Coordination Sequence:
#
# PCOD9484540 Si02
#       6
#     8   8  16  16   8   8
#     4  10  18  33  58  89 123 156 190 231 283 343
#     4  11  25  44  61  82 113 152 200 249 290 339
#     4  10  20  37  61  87 118 152 190 235 289 345
#     4  11  22  39  63  91 121 154 192 237 290 346
#     4   8  16  31  54  85 116 148 184 229 282 343
#     4  11  25  42  59  82 114 152 199 245 288 341
#
# _framework density 19.610773999999999
#
# number of rings (size 3 to 8) (size 9 to 14) (size 15 to 20)
#    0.000    1.750    0.000    6.375    0.000    5.000 
#    0.000    5.000    0.000    0.000    0.000    0.000 
#    0.000    0.000    0.000    0.000    0.000    0.000 
#
# Total GULP energy -178739.918906 kJ/mol
# GULP energy per Si atom -5585.622466 kJ/mol
# Density = 1.956614 g / cm^3
# Si number density = 19.610774 Si / 1000 Ang^3
#
#
#
# Elastic Constant Matrix: (Units=GPa)
#
#
# Indices 1 2 3 4 5 6 
#
# 1 114.6552 38.8357 92.1172 0.0000 0.0000 0.0000
# 2 38.8357 117.6541 76.9055 0.0000 0.0000 0.0000
# 3 92.1172 76.9055 236.0363 0.0000 0.0000 0.0000
# 4 0.0000 0.0000 0.0000 31.8410 0.0000 0.0000
# 5 0.0000 0.0000 0.0000 0.0000 36.8984 0.0000
# 6 0.0000 0.0000 0.0000 0.0000 0.0000 28.5405
#
#
#
# Elastic Compliance Matrix: (Units=1/GPa)
#
#
# Indices 1 2 3 4 5 6 
#
# 1 0.012843 -0.001224 -0.004613 0.000000 0.000000 0.000000
# 2 -0.001224 0.010916 -0.003079 0.000000 0.000000 0.000000
# 3 -0.004613 -0.003079 0.007040 0.000000 0.000000 0.000000
# 4 0.000000 0.000000 0.000000 0.031406 0.000000 0.000000
# 5 0.000000 0.000000 0.000000 0.000000 0.027101 0.000000
# 6 0.000000 0.000000 0.000000 0.000000 0.000000 0.035038
#
#
# Mechanical properties :
#
#
# Convention : Reuss Voigt Hill
#
# Bulk Modulus (GPa) = 77.11956 98.22914 87.67435
# Shear Modulus (GPa) = 34.12983 36.82180 35.47582
#
# Velocity S-wave (km/s) = 4.17629 4.33787 4.25784
# Velocity P-wave (km/s) = 7.91616 8.67684 8.30522
#
# Compressibility (1/GPa) = 0.01296688
#
# Stress axis : x y z
#
# Youngs Moduli (GPa) = 77.86436 91.60781 142.03792
#
# Poissons Ratio (x) = 0.11209 0.65529
# Poissons Ratio (y) = 0.09527 0.43736
# Poissons Ratio (z) = 0.35922 0.28208
#
# Static dielectric constant tensor:
#      x y z
#    x 1.673380 0.000000 0.000000 
#    y 0.000000 1.656870 0.000000 
#    z 0.000000 0.000000 1.705770 
# 
# From -- ./inp_files/69562.got.cif
#   From: 2010.05.17/outbox.cif.g08.bks.cpg/sg65_35_cif.got.tgz:69562.got - 2010.06.03 17:01:31.
