data_PCOD9484324
_publ_section_title
;
Structure prediction by ZEFSAII (Michael W. Deem and Ramdas Pophale) SiO2 
 PCOD9484324
Probable space group: C M M M
;
_chemical_formula_sum "Si O2"
_cell_formula_units_Z 88
_cell_length_a 19.084109
_cell_length_b 29.079545
_cell_length_c 7.456960
_cell_angle_alpha 90.000000
_cell_angle_beta 90.000000
_cell_angle_gamma 90.000000
_cell_volume 4138.293690
_symmetry_space_group_name_H-M "C M M M"
_symmetry_group_IT_number 65
_symmetry_cell_setting 'orthorhombic'
loop_
_space_group_symop_operation_xyz
x,y,z
-x,-y,z
x,-y,-z
-x,y,-z
-x,-y,-z
x,y,-z
-x,y,z
x,-y,z
1/2+x,1/2+y,z
1/2-x,1/2-y,z
1/2+x,1/2-y,-z
1/2-x,1/2+y,-z
1/2-x,1/2-y,-z
1/2+x,1/2+y,-z
1/2-x,1/2+y,z
1/2+x,1/2-y,z
loop_
_atom_site_type_symbol
_atom_site_label
_atom_site_fract_x
_atom_site_fract_y
_atom_site_fract_z
Si Si1 0.138940 0.394562 0.294230
Si Si2 0.922432 0.053123 0.718426
Si Si3 0.315067 0.280033 0.715188
Si Si4 0.000000 0.446185 0.280716
Si Si5 0.206175 0.115660 0.720440
Si Si6 0.079400 0.702197 0.788090
O O1 0.143359 0.410553 0.500000
O O2 0.216777 0.400203 0.217059
O O3 0.122834 0.340002 0.293238
O O4 0.070784 0.420426 0.217165
O O5 0.921962 0.053944 0.500000
O O6 0.857287 0.083338 0.778328
O O7 0.000000 0.069438 0.774351
O O8 0.914940 0.000000 0.772174
O O9 0.309598 0.281871 0.500000
O O10 0.250000 0.250000 0.784072
O O11 0.309448 0.332173 0.778714
O O12 0.384281 0.251076 0.757240
O O13 0.000000 0.500000 0.233503
O O14 0.000000 0.442979 0.500000
O O15 0.208016 0.115568 0.500000
O O16 0.000000 0.701098 0.719561
O O17 0.078176 0.693651 0.000000
#
# Coordination Sequence:
#
# PCOD9484324 Si02
#       6
#    16  16  16   8  16  16
#     4  10  18  32  53  73 101 137 173 216 261 310
#     4   8  14  25  41  64  98 134 162 195 247 305
#     4  10  19  33  52  75 103 133 172 213 256 308
#     4   9  18  30  49  79 107 133 171 221 274 319
#     4   9  17  28  46  72  98 129 171 212 249 305
#     4  11  23  36  51  73 102 136 179 217 253 310
#
# _framework density 21.264803000000001
#
# number of rings (size 3 to 8) (size 9 to 14) (size 15 to 20)
#    0.000    2.455    2.727    1.091    0.000    2.909 
#    0.000    5.455    0.000    1.091    0.000    0.000 
#    0.000    0.727    0.000   10.000    0.000    8.727 
#
# Total GULP energy -245652.670491 kJ/mol
# GULP energy per Si atom -5583.015238 kJ/mol
# Density = 2.121640 g / cm^3
# Si number density = 21.264803 Si / 1000 Ang^3
#
#
#
# Elastic Constant Matrix: (Units=GPa)
#
#
# Indices 1 2 3 4 5 6 
#
# 1 226.7949 101.0577 4.2539 0.0000 0.0000 0.0000
# 2 101.0577 115.1648 1.6831 0.0000 0.0000 0.0000
# 3 4.2539 1.6831 64.9656 0.0000 0.0000 0.0000
# 4 0.0000 0.0000 0.0000 64.3124 0.0000 0.0000
# 5 0.0000 0.0000 0.0000 0.0000 181.8167 0.0000
# 6 0.0000 0.0000 0.0000 0.0000 0.0000 39.9073
#
#
#
# Elastic Compliance Matrix: (Units=1/GPa)
#
#
# Indices 1 2 3 4 5 6 
#
# 1 0.007247 -0.006354 -0.000310 0.000000 0.000000 0.000000
# 2 -0.006354 0.014258 0.000047 0.000000 0.000000 0.000000
# 3 -0.000310 0.000047 0.015412 0.000000 0.000000 0.000000
# 4 0.000000 0.000000 0.000000 0.015549 0.000000 0.000000
# 5 0.000000 0.000000 0.000000 0.000000 0.005500 0.000000
# 6 0.000000 0.000000 0.000000 0.000000 0.000000 0.025058
#
#
# Mechanical properties :
#
#
# Convention : Reuss Voigt Hill
#
# Bulk Modulus (GPa) = 42.22653 68.99051 55.60852
# Shear Modulus (GPa) = 48.00632 77.20267 62.60449
#
# Velocity S-wave (km/s) = 4.75652 6.03193 5.43179
# Velocity P-wave (km/s) = 7.07577 9.00146 8.09607
#
# Compressibility (1/GPa) = 0.02368180
#
# Stress axis : x y z
#
# Youngs Moduli (GPa) = 137.99763 70.13381 64.88517
#
# Poissons Ratio (x) = 0.44565 0.02011
# Poissons Ratio (y) = 0.87688 -0.00303
# Poissons Ratio (z) = 0.04276 -0.00327
#
# Static dielectric constant tensor:
#      x y z
#    x 1.766020 0.000000 0.000000 
#    y 0.000000 1.715070 0.000000 
#    z 0.000000 0.000000 1.794270 
# 
# From -- ./inp_files/10089.got.cif
#   From: 2010.05.17/outbox.cif.g08.bks.cpg/sg65_6_cif.got.tgz:10089.got - 2010.06.03 17:01:31.
