data_PCOD9484980
_publ_section_title
;
Structure prediction by ZEFSAII (Michael W. Deem and Ramdas Pophale) SiO2 
 PCOD9484980
Probable space group: C M M M
;
_chemical_formula_sum "Si O2"
_cell_formula_units_Z 80
_cell_length_a 18.616290
_cell_length_b 7.335321
_cell_length_c 27.459156
_cell_angle_alpha 90.000000
_cell_angle_beta 90.000000
_cell_angle_gamma 90.000000
_cell_volume 3749.725220
_symmetry_space_group_name_H-M "C M M M"
_symmetry_group_IT_number 65
_symmetry_cell_setting 'orthorhombic'
loop_
_space_group_symop_operation_xyz
x,y,z
-x,-y,z
x,-y,-z
-x,y,-z
-x,-y,-z
x,y,-z
-x,y,z
x,-y,z
1/2+x,1/2+y,z
1/2-x,1/2-y,z
1/2+x,1/2-y,-z
1/2-x,1/2+y,-z
1/2-x,1/2-y,-z
1/2+x,1/2+y,-z
1/2-x,1/2+y,z
1/2+x,1/2-y,z
loop_
_atom_site_type_symbol
_atom_site_label
_atom_site_fract_x
_atom_site_fract_y
_atom_site_fract_z
Si Si1 0.085870 0.219663 0.947675
Si Si2 0.834542 0.782448 0.554150
Si Si3 0.582892 0.722936 0.649585
Si Si4 0.165426 0.782711 0.254250
Si Si5 0.916073 0.777497 0.158459
O O1 0.111951 0.283387 0.894787
O O2 0.000000 0.255526 0.947426
O O3 0.093803 0.000000 0.948138
O O4 0.114435 0.286880 0.000000
O O5 0.852441 0.711541 0.500000
O O6 0.750000 0.750000 0.562603
O O7 0.880467 0.714068 0.599499
O O8 0.845040 0.000000 0.552561
O O9 0.500000 0.776356 0.652628
O O10 0.584941 0.500000 0.649272
O O11 0.626746 0.785134 0.696925
O O12 0.250000 0.750000 0.255637
O O13 0.129502 0.713706 0.204474
O O14 0.154151 0.000000 0.253907
O O15 0.000000 0.726414 0.163748
O O16 0.914812 0.000000 0.157863
#
# Coordination Sequence:
#
# PCOD9484980 Si02
#       5
#    16  16  16  16  16
#     4   7   9  14  27  50  78 102 125 161 207 244
#     4   9  17  29  46  67  90 116 143 171 205 246
#     4   9  17  29  46  67  87 108 140 180 214 243
#     4  10  19  30  45  63  84 111 140 171 208 250
#     4   8  13  22  38  59  80 104 137 173 206 242
#
# _framework density 21.334897999999999
#
# number of rings (size 3 to 8) (size 9 to 14) (size 15 to 20)
#    0.000    3.400    0.000    3.000    0.000    2.800 
#    0.000    2.000    0.000    4.800    0.000    2.800 
#    0.000    0.000    0.000    5.000    0.000    4.000 
#
# Total GULP energy -223075.158684 kJ/mol
# GULP energy per Si atom -5576.878967 kJ/mol
# Density = 2.128634 g / cm^3
# Si number density = 21.334898 Si / 1000 Ang^3
#
#
#
# Elastic Constant Matrix: (Units=GPa)
#
#
# Indices 1 2 3 4 5 6 
#
# 1 113.7556 -2.6101 134.5625 0.0000 0.0000 0.0000
# 2 -2.6101 81.9429 12.3861 0.0000 0.0000 0.0000
# 3 134.5625 12.3861 289.8427 0.0000 0.0000 0.0000
# 4 0.0000 0.0000 0.0000 -58.1002 0.0000 0.0000
# 5 0.0000 0.0000 0.0000 0.0000 -2.1331 0.0000
# 6 0.0000 0.0000 0.0000 0.0000 0.0000 7.6218
#
#
#
# Elastic Compliance Matrix: (Units=1/GPa)
#
#
# Indices 1 2 3 4 5 6 
#
# 1 0.019831 0.002037 -0.009294 0.000000 0.000000 0.000000
# 2 0.002037 0.012492 -0.001479 0.000000 0.000000 0.000000
# 3 -0.009294 -0.001479 0.007828 0.000000 0.000000 0.000000
# 4 0.000000 0.000000 0.000000 -0.017212 0.000000 0.000000
# 5 0.000000 0.000000 0.000000 0.000000 -0.468796 0.000000
# 6 0.000000 0.000000 0.000000 0.000000 0.000000 0.131202
#
#
# Mechanical properties :
#
#
# Convention : Reuss Voigt Hill
#
# Bulk Modulus (GPa) = 44.09522 86.02425 65.05973
# Shear Modulus (GPa) = -17.26391 12.22455 -2.51968
#
# Velocity S-wave (km/s) = -2.84771 2.39630 -1.08792
# Velocity P-wave (km/s) = 3.14649 6.93288 5.38355
#
# Compressibility (1/GPa) = 0.02267820
#
# Stress axis : x y z
#
# Youngs Moduli (GPa) = 50.42493 80.05063 127.74326
#
# Poissons Ratio (x) = -0.16303 1.18725
# Poissons Ratio (y) = -0.10269 0.18897
# Poissons Ratio (z) = 0.46865 0.11842
#
# Static dielectric constant tensor:
#      x y z
#    x 1.694710 0.000000 0.000000 
#    y 0.000000 1.826110 0.000000 
#    z 0.000000 0.000000 1.805120 
# 
# From -- ./inp_files/68820.got.cif
#   From: 2010.05.17/outbox.cif.g08.bks.cpg/sg65_35_cif.got.tgz:68820.got - 2010.06.03 17:01:31.
