data_PCOD9484907
_publ_section_title
;
Structure prediction by ZEFSAII (Michael W. Deem and Ramdas Pophale) SiO2 
 PCOD9484907
Probable space group: C M M M
;
_chemical_formula_sum "Si O2"
_cell_formula_units_Z 80
_cell_length_a 7.512209
_cell_length_b 28.887770
_cell_length_c 22.324866
_cell_angle_alpha 90.000000
_cell_angle_beta 90.000000
_cell_angle_gamma 90.000000
_cell_volume 4844.740732
_symmetry_space_group_name_H-M "C M M M"
_symmetry_group_IT_number 65
_symmetry_cell_setting 'orthorhombic'
loop_
_space_group_symop_operation_xyz
x,y,z
-x,-y,z
x,-y,-z
-x,y,-z
-x,-y,-z
x,y,-z
-x,y,z
x,-y,z
1/2+x,1/2+y,z
1/2-x,1/2-y,z
1/2+x,1/2-y,-z
1/2-x,1/2+y,-z
1/2-x,1/2-y,-z
1/2+x,1/2+y,-z
1/2-x,1/2+y,z
1/2+x,1/2-y,z
loop_
_atom_site_type_symbol
_atom_site_label
_atom_site_fract_x
_atom_site_fract_y
_atom_site_fract_z
Si Si1 0.786400 0.695601 0.000000
Si Si2 0.286630 0.805103 0.628965
Si Si3 0.709607 0.148057 0.879252
Si Si4 0.713720 0.805250 0.500000
Si Si5 0.285338 0.447907 0.931447
Si Si6 0.213970 0.695196 0.240572
O O1 0.750000 0.750000 0.000000
O O2 0.715360 0.672187 0.060780
O O3 0.000000 0.688616 0.000000
O O4 0.500000 0.811573 0.628622
O O5 0.250000 0.750000 0.628930
O O6 0.218555 0.823110 0.564521
O O7 0.218311 0.821024 0.693950
O O8 0.500000 0.159374 0.878298
O O9 0.727712 0.093277 0.888560
O O10 0.783821 0.167879 0.817183
O O11 0.500000 0.811158 0.500000
O O12 0.750000 0.750000 0.500000
O O13 0.500000 0.448113 0.932314
O O14 0.226597 0.500000 0.915779
O O15 0.225419 0.438141 0.000000
O O16 0.250000 0.750000 0.233620
O O17 0.000000 0.689823 0.242445
#
# Coordination Sequence:
#
# PCOD9484907 Si02
#       6
#     8  16  16   8  16  16
#     4  10  20  30  39  54  75  99 130 161 185 212
#     4   8  13  21  32  47  67  93 124 157 187 215
#     4  10  19  30  42  58  78 100 127 158 190 225
#     4   8  12  18  30  46  64  88 121 156 187 215
#     4   9  18  32  48  64  78  92 116 152 193 236
#     4   9  17  27  38  53  76 104 133 161 188 220
#
# _framework density 16.512751000000002
#
# number of rings (size 3 to 8) (size 9 to 14) (size 15 to 20)
#    0.000    3.000    1.000    1.200    0.000    2.000 
#    0.000    1.000    0.000    0.000    0.000    0.000 
#    0.000    0.000    0.000    0.900    0.000   22.100 
#
# Total GULP energy -222673.158318 kJ/mol
# GULP energy per Si atom -5566.828958 kJ/mol
# Density = 1.647517 g / cm^3
# Si number density = 16.512751 Si / 1000 Ang^3
#
#
#
# Elastic Constant Matrix: (Units=GPa)
#
#
# Indices 1 2 3 4 5 6 
#
# 1 44.6161 -8.6149 11.0289 0.0000 0.0000 0.0000
# 2 -8.6149 61.2891 64.3662 0.0000 0.0000 0.0000
# 3 11.0289 64.3662 205.2557 0.0000 0.0000 0.0000
# 4 0.0000 0.0000 0.0000 3.6031 0.0000 0.0000
# 5 0.0000 0.0000 0.0000 0.0000 14.5217 0.0000
# 6 0.0000 0.0000 0.0000 0.0000 0.0000 15.0753
#
#
#
# Elastic Compliance Matrix: (Units=1/GPa)
#
#
# Indices 1 2 3 4 5 6 
#
# 1 0.024705 0.007257 -0.003603 0.000000 0.000000 0.000000
# 2 0.007257 0.026460 -0.008687 0.000000 0.000000 0.000000
# 3 -0.003603 -0.008687 0.007790 0.000000 0.000000 0.000000
# 4 0.000000 0.000000 0.000000 0.277542 0.000000 0.000000
# 5 0.000000 0.000000 0.000000 0.000000 0.068862 0.000000
# 6 0.000000 0.000000 0.000000 0.000000 0.000000 0.066334
#
#
# Mechanical properties :
#
#
# Convention : Reuss Voigt Hill
#
# Bulk Modulus (GPa) = 20.45533 49.41346 34.93440
# Shear Modulus (GPa) = 10.03903 22.93205 16.48554
#
# Velocity S-wave (km/s) = 2.46835 3.73063 3.16310
# Velocity P-wave (km/s) = 4.53191 6.96751 5.87726
#
# Compressibility (1/GPa) = 0.04888701
#
# Stress axis : x y z
#
# Youngs Moduli (GPa) = 40.47721 37.79334 128.37200
#
# Poissons Ratio (x) = -0.27425 0.46253
# Poissons Ratio (y) = -0.29373 1.11522
# Poissons Ratio (z) = 0.14584 0.32833
#
# Static dielectric constant tensor:
#      x y z
#    x 1.588570 0.000000 0.000000 
#    y 0.000000 1.512590 0.000000 
#    z 0.000000 0.000000 1.640200 
# 
# From -- ./inp_files/60583.got.cif
#   From: 2010.05.17/outbox.cif.g08.bks.cpg/sg65_31_cif.got.tgz:60583.got - 2010.06.03 17:01:31.
