data_PCOD9484991
_publ_section_title
;
Structure prediction by ZEFSAII (Michael W. Deem and Ramdas Pophale) SiO2 
 PCOD9484991
Probable space group: C M M M
;
_chemical_formula_sum "Si O2"
_cell_formula_units_Z 112
_cell_length_a 31.199638
_cell_length_b 14.096552
_cell_length_c 15.954918
_cell_angle_alpha 90.000000
_cell_angle_beta 90.000000
_cell_angle_gamma 90.000000
_cell_volume 7017.089718
_symmetry_space_group_name_H-M "C M M M"
_symmetry_group_IT_number 65
_symmetry_cell_setting 'orthorhombic'
loop_
_space_group_symop_operation_xyz
x,y,z
-x,-y,z
x,-y,-z
-x,y,-z
-x,-y,-z
x,y,-z
-x,y,z
x,-y,z
1/2+x,1/2+y,z
1/2-x,1/2-y,z
1/2+x,1/2-y,-z
1/2-x,1/2+y,-z
1/2-x,1/2-y,-z
1/2+x,1/2+y,-z
1/2-x,1/2+y,z
1/2+x,1/2-y,z
loop_
_atom_site_type_symbol
_atom_site_label
_atom_site_fract_x
_atom_site_fract_y
_atom_site_fract_z
Si Si1 0.726383 0.109758 0.747310
Si Si2 0.909570 0.394299 0.399734
Si Si3 0.700625 0.214251 0.908112
Si Si4 0.635244 0.607432 0.646926
Si Si5 0.177589 0.893864 0.179130
Si Si6 0.817942 0.295516 0.595431
Si Si7 0.547845 0.297786 0.398562
O O1 0.699653 0.144741 0.828519
O O2 0.776094 0.117402 0.774721
O O3 0.714674 0.172651 0.667148
O O4 0.717684 0.000000 0.728519
O O5 0.916685 0.399366 0.500000
O O6 0.916354 0.500000 0.365204
O O7 0.860579 0.359594 0.389882
O O8 0.939399 0.308496 0.368843
O O9 0.750000 0.250000 0.912000
O O10 0.674132 0.308631 0.885867
O O11 0.689922 0.174861 0.000000
O O12 0.645474 0.500000 0.620030
O O13 0.643669 0.613344 0.746285
O O14 0.665237 0.687802 0.605739
O O15 0.586278 0.633613 0.627728
O O16 0.176875 0.000000 0.142447
O O17 0.802838 0.310347 0.500000
O O18 0.548256 0.296249 0.500000
O O19 0.500000 0.323857 0.371204
#
# Coordination Sequence:
#
# PCOD9484991 Si02
#       7
#    16  16  16  16  16  16  16
#     4  10  19  31  47  67  95 125 157 196 230 266
#     4   8  14  25  41  61  85 113 147 183 220 264
#     4   9  17  30  49  70  93 120 151 188 233 280
#     4  10  19  32  48  63  85 118 155 195 237 278
#     4   9  18  32  49  67  91 121 154 192 233 276
#     4  10  19  30  45  64  89 125 163 193 225 266
#     4   9  18  30  43  62  86 114 152 194 235 279
#
# _framework density 15.961034
#
# number of rings (size 3 to 8) (size 9 to 14) (size 15 to 20)
#    0.000    2.714    1.429    1.714    0.000    3.143 
#    0.000    7.143    0.000    5.143    0.000    0.000 
#    0.000    0.571    0.000    3.143    0.000    8.286 
#
# Total GULP energy -311942.640291 kJ/mol
# GULP energy per Si atom -5570.404291 kJ/mol
# Density = 1.592471 g / cm^3
# Si number density = 15.961034 Si / 1000 Ang^3
#
#
#
# Elastic Constant Matrix: (Units=GPa)
#
#
# Indices 1 2 3 4 5 6 
#
# 1 32.7036 21.2272 17.4536 0.0000 0.0000 0.0000
# 2 21.2272 84.9999 30.9013 0.0000 0.0000 0.0000
# 3 17.4536 30.9013 66.2292 0.0000 0.0000 0.0000
# 4 0.0000 0.0000 0.0000 10.4220 0.0000 0.0000
# 5 0.0000 0.0000 0.0000 0.0000 5.5425 0.0000
# 6 0.0000 0.0000 0.0000 0.0000 0.0000 7.8176
#
#
#
# Elastic Compliance Matrix: (Units=1/GPa)
#
#
# Indices 1 2 3 4 5 6 
#
# 1 0.038943 -0.007219 -0.006895 0.000000 0.000000 0.000000
# 2 -0.007219 0.015506 -0.005332 0.000000 0.000000 0.000000
# 3 -0.006895 -0.005332 0.019404 0.000000 0.000000 0.000000
# 4 0.000000 0.000000 0.000000 0.095951 0.000000 0.000000
# 5 0.000000 0.000000 0.000000 0.000000 0.180423 0.000000
# 6 0.000000 0.000000 0.000000 0.000000 0.000000 0.127916
#
#
# Mechanical properties :
#
#
# Convention : Reuss Voigt Hill
#
# Bulk Modulus (GPa) = 28.60305 35.89967 32.25136
# Shear Modulus (GPa) = 9.45737 12.37980 10.91859
#
# Velocity S-wave (km/s) = 2.43683 2.78803 2.61833
# Velocity P-wave (km/s) = 5.08694 5.73629 5.42135
#
# Compressibility (1/GPa) = 0.03496131
#
# Stress axis : x y z
#
# Youngs Moduli (GPa) = 25.67868 64.49091 51.53566
#
# Poissons Ratio (x) = 0.46555 0.35532
# Poissons Ratio (y) = 0.18537 0.27481
# Poissons Ratio (z) = 0.17704 0.34389
#
# Static dielectric constant tensor:
#      x y z
#    x 1.541550 0.000000 0.000000 
#    y 0.000000 1.578990 0.000000 
#    z 0.000000 0.000000 1.539650 
# 
# From -- ./inp_files/41330.got.cif
#   From: 2010.05.17/outbox.cif.g08.bks.cpg/sg65_21_cif.got.tgz:41330.got - 2010.06.03 17:01:31.
