data_PCOD9484072
_publ_section_title
;
Structure prediction by ZEFSAII (Michael W. Deem and Ramdas Pophale) SiO2 
 PCOD9484072
Probable space group: C M M M
;
_chemical_formula_sum "Si O2"
_cell_formula_units_Z 88
_cell_length_a 16.360356
_cell_length_b 16.998108
_cell_length_c 18.529567
_cell_angle_alpha 90.000000
_cell_angle_beta 90.000000
_cell_angle_gamma 90.000000
_cell_volume 5152.981755
_symmetry_space_group_name_H-M "C M M M"
_symmetry_group_IT_number 65
_symmetry_cell_setting 'orthorhombic'
loop_
_space_group_symop_operation_xyz
x,y,z
-x,-y,z
x,-y,-z
-x,y,-z
-x,-y,-z
x,y,-z
-x,y,z
x,-y,z
1/2+x,1/2+y,z
1/2-x,1/2-y,z
1/2+x,1/2-y,-z
1/2-x,1/2+y,-z
1/2-x,1/2-y,-z
1/2+x,1/2+y,-z
1/2-x,1/2+y,z
1/2+x,1/2-y,z
loop_
_atom_site_type_symbol
_atom_site_label
_atom_site_fract_x
_atom_site_fract_y
_atom_site_fract_z
Si Si1 0.672558 0.407055 0.760851
Si Si2 0.500000 0.204493 0.079881
Si Si3 0.400467 0.408909 0.500000
Si Si4 0.834944 0.776365 0.869596
Si Si5 0.404541 0.689327 0.359730
Si Si6 0.658975 0.169664 0.724142
Si Si7 0.000000 0.591694 0.219249
O O1 0.665972 0.500000 0.765051
O O2 0.668583 0.364720 0.838787
O O3 0.604950 0.368165 0.709152
O O4 0.758519 0.380402 0.724510
O O5 0.582078 0.256083 0.089454
O O6 0.500000 0.141276 0.144706
O O7 0.500000 0.168619 0.000000
O O8 0.372316 0.500000 0.500000
O O9 0.500000 0.411760 0.500000
O O10 0.376285 0.359834 0.570858
O O11 0.750000 0.750000 0.906453
O O12 0.837049 0.723541 0.796312
O O13 0.500000 0.710270 0.368461
O O14 0.354836 0.768389 0.340299
O O15 0.579826 0.116156 0.735649
O O16 0.000000 0.500000 0.203308
#
# Coordination Sequence:
#
# PCOD9484072 Si02
#       7
#    16   8   8  16  16  16   8
#     4  10  19  30  49  75 101 126 164 215 258 294
#     4  10  20  33  51  74 101 135 173 205 243 307
#     4   9  18  30  45  70 104 137 172 214 254 294
#     4   8  17  32  49  69  98 132 167 208 253 302
#     4  10  18  31  49  71  99 133 167 203 252 308
#     4   9  17  32  49  73  99 126 165 205 252 306
#     4  10  18  31  54  76 100 127 157 207 257 295
#
# _framework density 17.077490999999998
#
# number of rings (size 3 to 8) (size 9 to 14) (size 15 to 20)
#    0.000    2.636    0.909    2.727    3.818    1.636 
#    0.000    1.818    0.000    1.091    0.000    2.545 
#    0.000    0.000    0.000    0.000    0.000    0.000 
#
# Total GULP energy -245101.058985 kJ/mol
# GULP energy per Si atom -5570.478613 kJ/mol
# Density = 1.703862 g / cm^3
# Si number density = 17.077491 Si / 1000 Ang^3
#
#
#
# Elastic Constant Matrix: (Units=GPa)
#
#
# Indices 1 2 3 4 5 6 
#
# 1 81.9289 18.5579 10.8576 0.0000 0.0000 0.0000
# 2 18.5579 108.0468 22.0244 0.0000 0.0000 0.0000
# 3 10.8576 22.0244 57.7925 0.0000 0.0000 0.0000
# 4 0.0000 0.0000 0.0000 11.9148 0.0000 0.0000
# 5 0.0000 0.0000 0.0000 0.0000 -4.9055 0.0000
# 6 0.0000 0.0000 0.0000 0.0000 0.0000 19.6827
#
#
#
# Elastic Compliance Matrix: (Units=1/GPa)
#
#
# Indices 1 2 3 4 5 6 
#
# 1 0.012853 -0.001860 -0.001706 0.000000 0.000000 0.000000
# 2 -0.001860 0.010304 -0.003577 0.000000 0.000000 0.000000
# 3 -0.001706 -0.003577 0.018987 0.000000 0.000000 0.000000
# 4 0.000000 0.000000 0.000000 0.083929 0.000000 0.000000
# 5 0.000000 0.000000 0.000000 0.000000 -0.203851 0.000000
# 6 0.000000 0.000000 0.000000 0.000000 0.000000 0.050806
#
#
# Mechanical properties :
#
#
# Convention : Reuss Voigt Hill
#
# Bulk Modulus (GPa) = 35.89665 38.96088 37.42877
# Shear Modulus (GPa) = -1470.88534 18.42694 -726.22920
#
# Velocity S-wave (km/s) = -29.37976 3.28841 -20.64409
# Velocity P-wave (km/s) = 33.61292 6.10589 23.37249
#
# Compressibility (1/GPa) = 0.02785775
#
# Stress axis : x y z
#
# Youngs Moduli (GPa) = 77.80244 97.05056 52.66738
#
# Poissons Ratio (x) = 0.18050 0.08985
# Poissons Ratio (y) = 0.14470 0.18841
# Poissons Ratio (z) = 0.13273 0.34718
#
# Static dielectric constant tensor:
#      x y z
#    x 1.622560 0.000000 0.000000 
#    y 0.000000 1.569180 0.000000 
#    z 0.000000 0.000000 1.577040 
# 
# From -- ./inp_files/54379.got.cif
#   From: 2010.05.17/outbox.cif.g08.bks.cpg/sg65_28_cif.got.tgz:54379.got - 2010.06.03 17:01:31.
