data_PCOD9484445
_publ_section_title
;
Structure prediction by ZEFSAII (Michael W. Deem and Ramdas Pophale) SiO2 
 PCOD9484445
Probable space group: C M M M
;
_chemical_formula_sum "Si O2"
_cell_formula_units_Z 68
_cell_length_a 16.487363
_cell_length_b 17.820985
_cell_length_c 12.189180
_cell_angle_alpha 90.000000
_cell_angle_beta 90.000000
_cell_angle_gamma 90.000000
_cell_volume 3581.437651
_symmetry_space_group_name_H-M "C M M M"
_symmetry_group_IT_number 65
_symmetry_cell_setting 'orthorhombic'
loop_
_space_group_symop_operation_xyz
x,y,z
-x,-y,z
x,-y,-z
-x,y,-z
-x,-y,-z
x,y,-z
-x,y,z
x,-y,z
1/2+x,1/2+y,z
1/2-x,1/2-y,z
1/2+x,1/2-y,-z
1/2-x,1/2+y,-z
1/2-x,1/2-y,-z
1/2+x,1/2+y,-z
1/2-x,1/2+y,z
1/2+x,1/2-y,z
loop_
_atom_site_type_symbol
_atom_site_label
_atom_site_fract_x
_atom_site_fract_y
_atom_site_fract_z
Si Si1 0.593740 0.839420 0.500000
Si Si2 0.371040 0.000000 0.500000
Si Si3 0.906450 0.500000 0.755763
Si Si4 0.597727 0.583107 0.629366
Si Si5 0.597828 0.150332 0.128512
Si Si6 0.343774 0.740480 0.697672
O O1 0.500000 0.868008 0.500000
O O2 0.606820 0.787624 0.393918
O O3 0.654743 0.911030 0.500000
O O4 0.405658 0.000000 0.375625
O O5 0.871919 0.576471 0.806164
O O6 0.000000 0.500000 0.792351
O O7 0.617216 0.591364 0.500000
O O8 0.500000 0.584921 0.638027
O O9 0.625942 0.500000 0.664098
O O10 0.633275 0.653598 0.691931
O O11 0.500000 0.155840 0.141244
O O12 0.636486 0.222091 0.186307
O O13 0.615519 0.143723 0.000000
O O14 0.250000 0.750000 0.670064
#
# Coordination Sequence:
#
# PCOD9484445 Si02
#       6
#     8   4   8  16  16  16
#     4  12  22  37  58  84 121 160 196 233 281 354
#     4  12  21  32  58  94 124 148 179 224 293 350
#     4  10  18  32  55  89 120 146 187 233 278 342
#     4   9  18  35  59  82 107 148 198 241 282 340
#     4  10  21  38  61  84 110 154 205 245 281 336
#     4  12  24  37  54  87 121 152 191 239 308 358
#
# _framework density 18.986788000000001
#
# number of rings (size 3 to 8) (size 9 to 14) (size 15 to 20)
#    0.000    1.412    3.529    4.588    0.000    1.882 
#    4.235    0.000    0.000    0.706    0.000    3.294 
#    0.000    0.000    0.000    0.000    0.000    0.000 
#
# Total GULP energy -189633.463627 kJ/mol
# GULP energy per Si atom -5577.454813 kJ/mol
# Density = 1.894357 g / cm^3
# Si number density = 18.986788 Si / 1000 Ang^3
#
#
#
# Elastic Constant Matrix: (Units=GPa)
#
#
# Indices 1 2 3 4 5 6 
#
# 1 28.0087 26.5748 22.8901 0.0000 0.0000 0.0000
# 2 26.5748 190.0007 54.1785 0.0000 0.0000 0.0000
# 3 22.8901 54.1785 82.5640 0.0000 0.0000 0.0000
# 4 0.0000 0.0000 0.0000 17.5961 0.0000 0.0000
# 5 0.0000 0.0000 0.0000 0.0000 19.1848 0.0000
# 6 0.0000 0.0000 0.0000 0.0000 0.0000 -127.1339
#
#
#
# Elastic Compliance Matrix: (Units=1/GPa)
#
#
# Indices 1 2 3 4 5 6 
#
# 1 0.048081 -0.003597 -0.010970 0.000000 0.000000 0.000000
# 2 -0.003597 0.006744 -0.003428 0.000000 0.000000 0.000000
# 3 -0.010970 -0.003428 0.017403 0.000000 0.000000 0.000000
# 4 0.000000 0.000000 0.000000 0.056831 0.000000 0.000000
# 5 0.000000 0.000000 0.000000 0.000000 0.052125 0.000000
# 6 0.000000 0.000000 0.000000 0.000000 0.000000 -0.007866
#
#
# Mechanical properties :
#
#
# Convention : Reuss Voigt Hill
#
# Bulk Modulus (GPa) = 27.59536 56.42891 42.01214
# Shear Modulus (GPa) = 22.58501 -4.94194 8.82153
#
# Velocity S-wave (km/s) = 3.45267 -1.61508 2.15783
# Velocity P-wave (km/s) = 5.51907 5.12900 5.32761
#
# Compressibility (1/GPa) = 0.03623797
#
# Stress axis : x y z
#
# Youngs Moduli (GPa) = 20.79819 148.28607 57.46288
#
# Poissons Ratio (x) = 0.53338 0.63035
# Poissons Ratio (y) = 0.07481 0.19698
# Poissons Ratio (z) = 0.22815 0.50833
#
# Static dielectric constant tensor:
#      x y z
#    x 1.660740 0.000000 0.000000 
#    y 0.000000 1.693710 0.000000 
#    z 0.000000 0.000000 1.619540 
# 
# From -- ./inp_files/26365.got.cif
#   From: 2010.05.17/outbox.cif.g08.bks.cpg/sg65_14_cif.got.tgz:26365.got - 2010.06.03 17:01:31.
