data_PCOD9484385
_publ_section_title
;
Structure prediction by ZEFSAII (Michael W. Deem and Ramdas Pophale) SiO2 
 PCOD9484385
Probable space group: C M M M
;
_chemical_formula_sum "Si O2"
_cell_formula_units_Z 64
_cell_length_a 29.104048
_cell_length_b 8.042832
_cell_length_c 13.583489
_cell_angle_alpha 90.000000
_cell_angle_beta 90.000000
_cell_angle_gamma 90.000000
_cell_volume 3179.609095
_symmetry_space_group_name_H-M "C M M M"
_symmetry_group_IT_number 65
_symmetry_cell_setting 'orthorhombic'
loop_
_space_group_symop_operation_xyz
x,y,z
-x,-y,z
x,-y,-z
-x,y,-z
-x,-y,-z
x,y,-z
-x,y,z
x,-y,z
1/2+x,1/2+y,z
1/2-x,1/2-y,z
1/2+x,1/2-y,-z
1/2-x,1/2+y,-z
1/2-x,1/2-y,-z
1/2+x,1/2+y,-z
1/2-x,1/2+y,z
1/2+x,1/2-y,z
loop_
_atom_site_type_symbol
_atom_site_label
_atom_site_fract_x
_atom_site_fract_y
_atom_site_fract_z
Si Si1 0.803693 0.804087 0.500000
Si Si2 0.054686 0.308039 0.748690
Si Si3 0.803127 0.697577 0.287686
Si Si4 0.134437 0.299234 0.890008
Si Si5 0.944121 0.000000 0.388928
O O1 0.750000 0.750000 0.500000
O O2 0.822628 0.744544 0.395179
O O3 0.804967 0.000000 0.500000
O O4 0.065229 0.500000 0.718247
O O5 0.083462 0.273349 0.847205
O O6 0.068090 0.167750 0.669703
O O7 0.000000 0.297571 0.764274
O O8 0.804659 0.500000 0.282642
O O9 0.750000 0.750000 0.282309
O O10 0.831359 0.765660 0.194666
O O11 0.140726 0.500000 0.894916
O O12 0.141244 0.233059 0.000000
O O13 0.925875 0.000000 0.500000
O O14 0.000000 0.000000 0.393951
#
# Coordination Sequence:
#
# PCOD9484385 Si02
#       5
#     8  16  16  16   8
#     4  10  18  32  54  78 105 136 175 221 267 324
#     4   9  18  35  58  82 111 147 187 229 277 332
#     4  10  19  34  55  78 108 141 177 221 270 326
#     4   9  19  36  56  79 108 143 183 227 274 325
#     4   9  18  34  55  81 115 151 186 229 277 329
#
# _framework density 20.128260999999998
#
# number of rings (size 3 to 8) (size 9 to 14) (size 15 to 20)
#    0.000    2.625    0.000    3.375    0.000    1.500 
#    6.750    5.625    0.000    2.250    0.000    0.000 
#    0.000    0.000    0.000    0.000    0.000    0.000 
#
# Total GULP energy -178464.281243 kJ/mol
# GULP energy per Si atom -5577.008789 kJ/mol
# Density = 2.008245 g / cm^3
# Si number density = 20.128261 Si / 1000 Ang^3
#
#
#
# Elastic Constant Matrix: (Units=GPa)
#
#
# Indices 1 2 3 4 5 6 
#
# 1 69.2860 23.8976 62.9588 0.0000 0.0000 0.0000
# 2 23.8976 78.8364 59.2439 0.0000 0.0000 0.0000
# 3 62.9588 59.2439 221.6080 0.0000 0.0000 0.0000
# 4 0.0000 0.0000 0.0000 18.8866 0.0000 0.0000
# 5 0.0000 0.0000 0.0000 0.0000 27.6264 0.0000
# 6 0.0000 0.0000 0.0000 0.0000 0.0000 9.2427
#
#
#
# Elastic Compliance Matrix: (Units=1/GPa)
#
#
# Indices 1 2 3 4 5 6 
#
# 1 0.019760 -0.002216 -0.005021 0.000000 0.000000 0.000000
# 2 -0.002216 0.016122 -0.003680 0.000000 0.000000 0.000000
# 3 -0.005021 -0.003680 0.006923 0.000000 0.000000 0.000000
# 4 0.000000 0.000000 0.000000 0.052948 0.000000 0.000000
# 5 0.000000 0.000000 0.000000 0.000000 0.036197 0.000000
# 6 0.000000 0.000000 0.000000 0.000000 0.000000 0.108194
#
#
# Mechanical properties :
#
#
# Convention : Reuss Voigt Hill
#
# Bulk Modulus (GPa) = 47.68958 73.54787 60.61873
# Shear Modulus (GPa) = 18.58948 26.05983 22.32465
#
# Velocity S-wave (km/s) = 3.04230 3.60208 3.33396
# Velocity P-wave (km/s) = 6.00708 7.34295 6.70835
#
# Compressibility (1/GPa) = 0.02096894
#
# Stress axis : x y z
#
# Youngs Moduli (GPa) = 50.60684 62.02692 144.44791
#
# Poissons Ratio (x) = 0.13748 0.72532
# Poissons Ratio (y) = 0.11217 0.53161
# Poissons Ratio (z) = 0.25411 0.22828
#
# Static dielectric constant tensor:
#      x y z
#    x 1.734030 0.000000 0.000000 
#    y 0.000000 1.653360 0.000000 
#    z 0.000000 0.000000 1.744170 
# 
# From -- ./inp_files/21000.got.cif
#   From: 2010.05.17/outbox.cif.g08.bks.cpg/sg65_11_cif.got.tgz:21000.got - 2010.06.03 17:01:31.
