data_PCOD9484513
_publ_section_title
;
Structure prediction by ZEFSAII (Michael W. Deem and Ramdas Pophale) SiO2 
 PCOD9484513
Probable space group: C M M M
;
_chemical_formula_sum "Si O2"
_cell_formula_units_Z 88
_cell_length_a 28.817391
_cell_length_b 7.936059
_cell_length_c 19.894778
_cell_angle_alpha 90.000000
_cell_angle_beta 90.000000
_cell_angle_gamma 90.000000
_cell_volume 4549.866399
_symmetry_space_group_name_H-M "C M M M"
_symmetry_group_IT_number 65
_symmetry_cell_setting 'orthorhombic'
loop_
_space_group_symop_operation_xyz
x,y,z
-x,-y,z
x,-y,-z
-x,y,-z
-x,-y,-z
x,y,-z
-x,y,z
x,-y,z
1/2+x,1/2+y,z
1/2-x,1/2-y,z
1/2+x,1/2-y,-z
1/2-x,1/2+y,-z
1/2-x,1/2-y,-z
1/2+x,1/2+y,-z
1/2-x,1/2+y,z
1/2+x,1/2-y,z
loop_
_atom_site_type_symbol
_atom_site_label
_atom_site_fract_x
_atom_site_fract_y
_atom_site_fract_z
Si Si1 0.950293 0.000000 0.870673
Si Si2 0.400852 0.300754 0.638747
Si Si3 0.928943 0.683484 0.782150
Si Si4 0.799647 0.298939 0.319170
Si Si5 0.053729 0.794045 0.500000
Si Si6 0.677922 0.192097 0.828905
Si Si7 0.156625 0.000000 0.920930
O O1 0.950155 0.162862 0.822629
O O2 0.899883 0.000000 0.907682
O O3 0.000000 0.000000 0.909010
O O4 0.409796 0.500000 0.644243
O O5 0.425604 0.216142 0.702615
O O6 0.345574 0.272773 0.645941
O O7 0.420526 0.238828 0.567853
O O8 0.949124 0.500000 0.795704
O O9 0.875931 0.679129 0.807880
O O10 0.804509 0.500000 0.318365
O O11 0.750000 0.250000 0.349343
O O12 0.799869 0.243528 0.240815
O O13 0.000000 0.742833 0.500000
O O14 0.054849 0.000000 0.500000
O O15 0.678747 0.333956 0.886021
O O16 0.693783 0.000000 0.845621
O O17 0.164360 0.000000 0.000000
#
# Coordination Sequence:
#
# PCOD9484513 Si02
#       7
#     8  16  16  16   8  16   8
#     4  10  20  33  50  75 106 138 175 233 296 332
#     4  10  18  33  55  81 113 148 186 232 280 337
#     4   9  17  32  52  75 102 135 178 229 283 332
#     4  10  20  33  56  88 113 141 180 229 284 336
#     4   9  20  36  54  77 108 154 200 233 277 335
#     4   8  17  32  51  77 106 135 176 224 266 320
#     4  10  20  33  54  76 101 147 188 218 267 336
#
# _framework density 19.341227
#
# number of rings (size 3 to 8) (size 9 to 14) (size 15 to 20)
#    0.000    2.636    0.909    2.182    5.091    1.636 
#    0.000    2.273    0.000    4.364    0.000    5.091 
#    0.000    0.000    0.000    0.000    0.000    0.000 
#
# Total GULP energy -245268.228914 kJ/mol
# GULP energy per Si atom -5574.277930 kJ/mol
# Density = 1.929721 g / cm^3
# Si number density = 19.341227 Si / 1000 Ang^3
#
#
#
# Elastic Constant Matrix: (Units=GPa)
#
#
# Indices 1 2 3 4 5 6 
#
# 1 77.3062 2.8584 16.4951 0.0000 0.0000 0.0000
# 2 2.8584 91.0086 44.3637 0.0000 0.0000 0.0000
# 3 16.4951 44.3637 114.4792 0.0000 0.0000 0.0000
# 4 0.0000 0.0000 0.0000 11.9206 0.0000 0.0000
# 5 0.0000 0.0000 0.0000 0.0000 10.6681 0.0000
# 6 0.0000 0.0000 0.0000 0.0000 0.0000 44.7067
#
#
#
# Elastic Compliance Matrix: (Units=1/GPa)
#
#
# Indices 1 2 3 4 5 6 
#
# 1 0.013376 0.000640 -0.002176 0.000000 0.000000 0.000000
# 2 0.000640 0.013578 -0.005354 0.000000 0.000000 0.000000
# 3 -0.002176 -0.005354 0.011123 0.000000 0.000000 0.000000
# 4 0.000000 0.000000 0.000000 0.083888 0.000000 0.000000
# 5 0.000000 0.000000 0.000000 0.000000 0.093738 0.000000
# 6 0.000000 0.000000 0.000000 0.000000 0.000000 0.022368
#
#
# Mechanical properties :
#
#
# Convention : Reuss Voigt Hill
#
# Bulk Modulus (GPa) = 41.15384 45.58093 43.36739
# Shear Modulus (GPa) = 19.23452 28.06419 23.64935
#
# Velocity S-wave (km/s) = 3.15696 3.81334 3.50057
# Velocity P-wave (km/s) = 5.88324 6.55794 6.22973
#
# Compressibility (1/GPa) = 0.02429907
#
# Stress axis : x y z
#
# Youngs Moduli (GPa) = 74.76026 73.64986 89.89978
#
# Poissons Ratio (x) = -0.04716 0.19558
# Poissons Ratio (y) = -0.04787 0.48132
# Poissons Ratio (z) = 0.16264 0.39432
#
# Static dielectric constant tensor:
#      x y z
#    x 1.734270 0.000000 0.000000 
#    y 0.000000 1.696370 0.000000 
#    z 0.000000 0.000000 1.639470 
# 
# From -- ./inp_files/58091.got.cif
#   From: 2010.05.17/outbox.cif.g08.bks.cpg/sg65_30_cif.got.tgz:58091.got - 2010.06.03 17:01:31.
