data_PCOD9484855
_publ_section_title
;
Structure prediction by ZEFSAII (Michael W. Deem and Ramdas Pophale) SiO2 
 PCOD9484855
Probable space group: C M M M
;
_chemical_formula_sum "Si O2"
_cell_formula_units_Z 112
_cell_length_a 14.223787
_cell_length_b 13.888422
_cell_length_c 30.619484
_cell_angle_alpha 90.000000
_cell_angle_beta 90.000000
_cell_angle_gamma 90.000000
_cell_volume 6048.755248
_symmetry_space_group_name_H-M "C M M M"
_symmetry_group_IT_number 65
_symmetry_cell_setting 'orthorhombic'
loop_
_space_group_symop_operation_xyz
x,y,z
-x,-y,z
x,-y,-z
-x,y,-z
-x,-y,-z
x,y,-z
-x,y,z
x,-y,z
1/2+x,1/2+y,z
1/2-x,1/2-y,z
1/2+x,1/2-y,-z
1/2-x,1/2+y,-z
1/2-x,1/2-y,-z
1/2+x,1/2+y,-z
1/2-x,1/2+y,z
1/2+x,1/2-y,z
loop_
_atom_site_type_symbol
_atom_site_label
_atom_site_fract_x
_atom_site_fract_y
_atom_site_fract_z
Si Si1 0.893148 0.109284 0.228309
Si Si2 0.612238 0.197671 0.085402
Si Si3 0.614070 0.114326 0.452970
Si Si4 0.609412 0.198021 0.185243
Si Si5 0.207958 0.385799 0.270638
Si Si6 0.297607 0.390149 0.948514
Si Si7 0.110112 0.382343 0.358145
O O1 0.879697 0.187015 0.190539
O O2 0.818967 0.130347 0.266180
O O3 0.000000 0.118107 0.243825
O O4 0.877475 0.000000 0.213247
O O5 0.500000 0.184431 0.077629
O O6 0.633614 0.171656 0.135984
O O7 0.641990 0.308472 0.076094
O O8 0.687136 0.135972 0.057870
O O9 0.646036 0.154980 0.500000
O O10 0.500000 0.121123 0.452169
O O11 0.645722 0.152385 0.405693
O O12 0.635605 0.000000 0.453631
O O13 0.500000 0.173778 0.191904
O O14 0.665186 0.153830 0.225629
O O15 0.190458 0.500000 0.270370
O O16 0.164395 0.347760 0.315330
O O17 0.315218 0.500000 0.934298
O O18 0.319369 0.382469 0.000000
O O19 0.115390 0.500000 0.359227
O O20 0.000000 0.358267 0.353463
#
# Coordination Sequence:
#
# PCOD9484855 Si02
#       7
#    16  16  16  16  16  16  16
#     4   9  19  34  49  66  90 123 165 208 244 280
#     4  10  22  39  60  85 113 145 179 218 263 315
#     4   7   9  14  26  45  73 113 156 194 233 280
#     4  10  21  35  51  74 102 130 163 201 241 292
#     4  10  19  29  46  69  97 134 165 196 241 292
#     4  10  23  41  61  87 115 142 177 222 267 314
#     4   8  13  21  33  54  87 123 159 196 236 290
#
# _framework density 18.516206
#
# number of rings (size 3 to 8) (size 9 to 14) (size 15 to 20)
#    0.000    2.857    0.000    3.000    4.000    3.714 
#    0.000    4.286    0.000    0.000    0.000    0.000 
#    0.000    2.857    0.000   12.000    0.000   13.714 
#
# Total GULP energy -311799.834337 kJ/mol
# GULP energy per Si atom -5567.854185 kJ/mol
# Density = 1.847406 g / cm^3
# Si number density = 18.516206 Si / 1000 Ang^3
#
#
#
# Elastic Constant Matrix: (Units=GPa)
#
#
# Indices 1 2 3 4 5 6 
#
# 1 13.4725 -11.7288 6.3338 0.0000 0.0000 0.0000
# 2 -11.7288 24.7930 1.9275 0.0000 0.0000 0.0000
# 3 6.3338 1.9275 83.8096 0.0000 0.0000 0.0000
# 4 0.0000 0.0000 0.0000 9.6360 0.0000 0.0000
# 5 0.0000 0.0000 0.0000 0.0000 10.9152 0.0000
# 6 0.0000 0.0000 0.0000 0.0000 0.0000 12.4422
#
#
#
# Elastic Compliance Matrix: (Units=1/GPa)
#
#
# Indices 1 2 3 4 5 6 
#
# 1 0.137053 0.065758 -0.011870 0.000000 0.000000 0.000000
# 2 0.065758 0.071957 -0.006624 0.000000 0.000000 0.000000
# 3 -0.011870 -0.006624 0.012981 0.000000 0.000000 0.000000
# 4 0.000000 0.000000 0.000000 0.103778 0.000000 0.000000
# 5 0.000000 0.000000 0.000000 0.000000 0.091615 0.000000
# 6 0.000000 0.000000 0.000000 0.000000 0.000000 0.080372
#
#
# Mechanical properties :
#
#
# Convention : Reuss Voigt Hill
#
# Bulk Modulus (GPa) = 3.15937 12.79335 7.97636
# Shear Modulus (GPa) = 9.82831 14.96819 12.39825
#
# Velocity S-wave (km/s) = 2.30640 2.84629 2.59045
# Velocity P-wave (km/s) = 2.96692 4.21024 3.64203
#
# Compressibility (1/GPa) = 0.31651876
#
# Stress axis : x y z
#
# Youngs Moduli (GPa) = 7.29646 13.89717 77.03448
#
# Poissons Ratio (x) = -0.91385 0.91439
# Poissons Ratio (y) = -0.47980 0.51031
# Poissons Ratio (z) = 0.08661 0.09206
#
# Static dielectric constant tensor:
#      x y z
#    x 1.651100 0.000000 0.000000 
#    y 0.000000 1.660680 0.000000 
#    z 0.000000 0.000000 1.670290 
# 
# From -- ./inp_files/77732.got.cif
#   From: 2010.05.17/outbox.cif.g08.bks.cpg/sg65_39_cif.got.tgz:77732.got - 2010.06.03 17:01:31.
