data_PCOD9484944
_publ_section_title
;
Structure prediction by ZEFSAII (Michael W. Deem and Ramdas Pophale) SiO2 
 PCOD9484944
Probable space group: C M M M
;
_chemical_formula_sum "Si O2"
_cell_formula_units_Z 112
_cell_length_a 34.456210
_cell_length_b 14.520551
_cell_length_c 14.298044
_cell_angle_alpha 90.000000
_cell_angle_beta 90.000000
_cell_angle_gamma 90.000000
_cell_volume 7153.642478
_symmetry_space_group_name_H-M "C M M M"
_symmetry_group_IT_number 65
_symmetry_cell_setting 'orthorhombic'
loop_
_space_group_symop_operation_xyz
x,y,z
-x,-y,z
x,-y,-z
-x,y,-z
-x,-y,-z
x,y,-z
-x,y,z
x,-y,z
1/2+x,1/2+y,z
1/2-x,1/2-y,z
1/2+x,1/2-y,-z
1/2-x,1/2+y,-z
1/2-x,1/2-y,-z
1/2+x,1/2+y,-z
1/2-x,1/2+y,z
1/2+x,1/2-y,z
loop_
_atom_site_type_symbol
_atom_site_label
_atom_site_fract_x
_atom_site_fract_y
_atom_site_fract_z
Si Si1 0.880463 0.718449 0.887486
Si Si2 0.849018 0.888846 0.798629
Si Si3 0.456425 0.105694 0.113321
Si Si4 0.677138 0.395234 0.603343
Si Si5 0.233030 0.111508 0.105646
Si Si6 0.235821 0.355076 0.606602
Si Si7 0.189496 0.610000 0.211272
O O1 0.877824 0.825058 0.856987
O O2 0.921601 0.673107 0.861117
O O3 0.846916 0.664114 0.830813
O O4 0.874577 0.709274 0.000000
O O5 0.846183 0.856125 0.690725
O O6 0.806405 0.868511 0.840414
O O7 0.855318 0.000000 0.803915
O O8 0.500000 0.131291 0.144775
O O9 0.448603 0.000000 0.142888
O O10 0.457213 0.104793 0.000000
O O11 0.674483 0.351018 0.500000
O O12 0.663291 0.500000 0.595333
O O13 0.722839 0.402240 0.628708
O O14 0.272105 0.142990 0.155507
O O15 0.235600 0.000000 0.103248
O O16 0.230469 0.145560 0.000000
O O17 0.224823 0.378795 0.500000
O O18 0.250000 0.250000 0.609675
O O19 0.202305 0.374112 0.681050
O O20 0.184091 0.500000 0.197329
#
# Coordination Sequence:
#
# PCOD9484944 Si02
#       7
#    16  16  16  16  16  16  16
#     4  11  22  32  47  70  95 124 155 191 234 280
#     4  10  19  32  46  64  93 127 164 199 229 271
#     4   8  15  31  54  75  94 117 147 185 230 280
#     4   9  16  28  46  62  78 111 161 207 241 271
#     4   9  17  28  40  55  82 125 165 191 220 263
#     4  10  19  30  44  61  83 116 160 205 246 285
#     4  11  21  31  44  65  92 120 156 203 245 279
#
# _framework density 15.656359999999999
#
# number of rings (size 3 to 8) (size 9 to 14) (size 15 to 20)
#    0.000    2.286    1.429    3.000    0.000    3.143 
#    0.000    1.429    0.000    0.429    0.000    2.000 
#    0.000    2.286    0.000   11.429    0.000    0.571 
#
# Total GULP energy -312019.006408 kJ/mol
# GULP energy per Si atom -5571.767972 kJ/mol
# Density = 1.562073 g / cm^3
# Si number density = 15.656360 Si / 1000 Ang^3
#
#
#
# Elastic Constant Matrix: (Units=GPa)
#
#
# Indices 1 2 3 4 5 6 
#
# 1 85.9223 39.8635 31.4090 0.0000 0.0000 0.0000
# 2 39.8635 70.9617 19.6993 0.0000 0.0000 0.0000
# 3 31.4090 19.6993 89.7885 0.0000 0.0000 0.0000
# 4 0.0000 0.0000 0.0000 14.9032 0.0000 0.0000
# 5 0.0000 0.0000 0.0000 0.0000 4.6470 0.0000
# 6 0.0000 0.0000 0.0000 0.0000 0.0000 19.7492
#
#
#
# Elastic Compliance Matrix: (Units=1/GPa)
#
#
# Indices 1 2 3 4 5 6 
#
# 1 0.017059 -0.008440 -0.004116 0.000000 0.000000 0.000000
# 2 -0.008440 0.019182 -0.001256 0.000000 0.000000 0.000000
# 3 -0.004116 -0.001256 0.012852 0.000000 0.000000 0.000000
# 4 0.000000 0.000000 0.000000 0.067100 0.000000 0.000000
# 5 0.000000 0.000000 0.000000 0.000000 0.215192 0.000000
# 6 0.000000 0.000000 0.000000 0.000000 0.000000 0.050635
#
#
# Mechanical properties :
#
#
# Convention : Reuss Voigt Hill
#
# Bulk Modulus (GPa) = 46.57738 47.62400 47.10069
# Shear Modulus (GPa) = 11.99615 18.23994 15.11805
#
# Velocity S-wave (km/s) = 2.77106 3.41694 3.11081
# Velocity P-wave (km/s) = 6.32873 6.78614 6.56142
#
# Compressibility (1/GPa) = 0.02146965
#
# Stress axis : x y z
#
# Youngs Moduli (GPa) = 58.62075 52.13140 77.80592
#
# Poissons Ratio (x) = 0.44001 0.32021
# Poissons Ratio (y) = 0.49479 0.09772
# Poissons Ratio (z) = 0.24126 0.06547
#
# Static dielectric constant tensor:
#      x y z
#    x 1.490430 0.000000 0.000000 
#    y 0.000000 1.472880 0.000000 
#    z 0.000000 0.000000 1.572510 
# 
# From -- ./inp_files/41370.got.cif
#   From: 2010.05.17/outbox.cif.g08.bks.cpg/sg65_21_cif.got.tgz:41370.got - 2010.06.03 17:01:31.
