data_PCOD9484326
_publ_section_title
;
Structure prediction by ZEFSAII (Michael W. Deem and Ramdas Pophale) SiO2 
 PCOD9484326
Probable space group: C M M M
;
_chemical_formula_sum "Si O2"
_cell_formula_units_Z 64
_cell_length_a 15.278230
_cell_length_b 8.620828
_cell_length_c 22.419250
_cell_angle_alpha 90.000000
_cell_angle_beta 90.000000
_cell_angle_gamma 90.000000
_cell_volume 2952.861679
_symmetry_space_group_name_H-M "C M M M"
_symmetry_group_IT_number 65
_symmetry_cell_setting 'orthorhombic'
loop_
_space_group_symop_operation_xyz
x,y,z
-x,-y,z
x,-y,-z
-x,y,-z
-x,-y,-z
x,y,-z
-x,y,z
x,-y,z
1/2+x,1/2+y,z
1/2-x,1/2-y,z
1/2+x,1/2-y,-z
1/2-x,1/2+y,-z
1/2-x,1/2-y,-z
1/2+x,1/2+y,-z
1/2-x,1/2+y,z
1/2+x,1/2-y,z
loop_
_atom_site_type_symbol
_atom_site_label
_atom_site_fract_x
_atom_site_fract_y
_atom_site_fract_z
Si Si1 0.103365 0.689193 0.872109
Si Si2 0.106287 0.314211 0.000000
Si Si3 0.604023 0.175353 0.255609
Si Si4 0.350013 0.184044 0.500000
Si Si5 0.152405 0.182541 0.379161
O O1 0.108417 0.500000 0.871056
O O2 0.139272 0.740303 0.807612
O O3 0.000000 0.729196 0.873829
O O4 0.139767 0.745857 0.935924
O O5 0.120954 0.500000 0.000000
O O6 0.000000 0.295098 0.000000
O O7 0.500000 0.161141 0.246581
O O8 0.615424 0.274320 0.314760
O O9 0.639099 0.000000 0.265949
O O10 0.250000 0.250000 0.500000
O O11 0.390779 0.242232 0.437924
O O12 0.346504 0.000000 0.500000
O O13 0.250000 0.250000 0.377064
O O14 0.153638 0.000000 0.387897
#
# Coordination Sequence:
#
# PCOD9484326 Si02
#       5
#    16   8  16   8  16
#     4   7  10  17  32  56  87 120 151 185 225 269
#     4   7   8  12  26  52  84 115 148 185 223 263
#     4   9  17  30  47  69  99 131 159 190 233 281
#     4  10  18  32  53  74  95 118 149 189 233 277
#     4  11  21  34  52  73  96 122 156 194 232 275
#
# _framework density 21.67389
#
# number of rings (size 3 to 8) (size 9 to 14) (size 15 to 20)
#    0.000    3.125    0.000    7.875    0.000    0.500 
#    0.000    0.625    0.000    3.750    0.000    1.750 
#    0.000    5.000    0.000    0.000    0.000    0.000 
#
# Total GULP energy -178159.442437 kJ/mol
# GULP energy per Si atom -5567.482576 kJ/mol
# Density = 2.162456 g / cm^3
# Si number density = 21.673890 Si / 1000 Ang^3
#
#
#
# Elastic Constant Matrix: (Units=GPa)
#
#
# Indices 1 2 3 4 5 6 
#
# 1 30.5355 -0.9775 14.7756 0.0000 0.0000 0.0000
# 2 -0.9775 99.8234 65.8981 0.0000 0.0000 0.0000
# 3 14.7756 65.8981 262.4408 0.0000 0.0000 0.0000
# 4 0.0000 0.0000 0.0000 -11.4192 0.0000 0.0000
# 5 0.0000 0.0000 0.0000 0.0000 18.8027 0.0000
# 6 0.0000 0.0000 0.0000 0.0000 0.0000 8.1266
#
#
#
# Elastic Compliance Matrix: (Units=1/GPa)
#
#
# Indices 1 2 3 4 5 6 
#
# 1 0.033968 0.001912 -0.002393 0.000000 0.000000 0.000000
# 2 0.001912 0.012116 -0.003150 0.000000 0.000000 0.000000
# 3 -0.002393 -0.003150 0.004736 0.000000 0.000000 0.000000
# 4 0.000000 0.000000 0.000000 -0.087572 0.000000 0.000000
# 5 0.000000 0.000000 0.000000 0.000000 0.053184 0.000000
# 6 0.000000 0.000000 0.000000 0.000000 0.000000 0.123053
#
#
# Mechanical properties :
#
#
# Convention : Reuss Voigt Hill
#
# Bulk Modulus (GPa) = 22.95752 61.35468 42.15610
# Shear Modulus (GPa) = 31.00500 23.97559 27.49030
#
# Velocity S-wave (km/s) = 3.78633 3.32956 3.56527
# Velocity P-wave (km/s) = 5.45255 6.56893 6.03660
#
# Compressibility (1/GPa) = 0.04355871
#
# Stress axis : x y z
#
# Youngs Moduli (GPa) = 29.43977 82.53679 211.14811
#
# Poissons Ratio (x) = -0.15781 0.50517
# Poissons Ratio (y) = -0.05629 0.66509
# Poissons Ratio (z) = 0.07043 0.25998
#
# Static dielectric constant tensor:
#      x y z
#    x 1.856020 0.000000 0.000000 
#    y 0.000000 1.732670 0.000000 
#    z 0.000000 0.000000 1.937520 
# 
# From -- ./inp_files/64237.got.cif
#   From: 2010.05.17/outbox.cif.g08.bks.cpg/sg65_33_cif.got.tgz:64237.got - 2010.06.03 17:01:31.
