data_PCOD9484040
_publ_section_title
;
Structure prediction by ZEFSAII (Michael W. Deem and Ramdas Pophale) SiO2 
 PCOD9484040
Probable space group: C M M M
;
_chemical_formula_sum "Si O2"
_cell_formula_units_Z 80
_cell_length_a 29.832266
_cell_length_b 7.675326
_cell_length_c 23.357452
_cell_angle_alpha 90.000000
_cell_angle_beta 90.000000
_cell_angle_gamma 90.000000
_cell_volume 5348.211068
_symmetry_space_group_name_H-M "C M M M"
_symmetry_group_IT_number 65
_symmetry_cell_setting 'orthorhombic'
loop_
_space_group_symop_operation_xyz
x,y,z
-x,-y,z
x,-y,-z
-x,y,-z
-x,-y,-z
x,y,-z
-x,y,z
x,-y,z
1/2+x,1/2+y,z
1/2-x,1/2-y,z
1/2+x,1/2-y,-z
1/2-x,1/2+y,-z
1/2-x,1/2-y,-z
1/2+x,1/2+y,-z
1/2-x,1/2+y,z
1/2+x,1/2-y,z
loop_
_atom_site_type_symbol
_atom_site_label
_atom_site_fract_x
_atom_site_fract_y
_atom_site_fract_z
Si Si1 0.700434 0.709344 0.934289
Si Si2 0.448440 0.713081 0.779295
Si Si3 0.945318 0.500000 0.434278
Si Si4 0.948610 0.291246 0.000000
Si Si5 0.554540 0.699501 0.348665
Si Si6 0.607851 0.707532 0.886750
O O1 0.696594 0.500000 0.936915
O O2 0.750000 0.750000 0.911785
O O3 0.657698 0.776571 0.899449
O O4 0.697856 0.775213 0.000000
O O5 0.500000 0.769419 0.787928
O O6 0.449108 0.500000 0.779723
O O7 0.433019 0.761206 0.715333
O O8 0.417383 0.776687 0.830770
O O9 0.930378 0.500000 0.500000
O O10 0.931168 0.669489 0.398250
O O11 0.000000 0.500000 0.434909
O O12 0.922150 0.234004 0.056677
O O13 0.949656 0.500000 0.000000
O O14 0.000000 0.226727 0.000000
O O15 0.500000 0.697250 0.348257
O O16 0.569334 0.500000 0.357439
O O17 0.611889 0.500000 0.878101
#
# Coordination Sequence:
#
# PCOD9484040 Si02
#       6
#    16  16   8   8  16  16
#     4   9  17  29  44  61  77  96 125 164 209 253
#     4   8  14  25  42  60  76  99 132 169 204 239
#     4   9  16  24  36  56  78 103 139 175 203 232
#     4  11  23  33  38  55  86 107 124 163 218 259
#     4   8  14  25  38  53  76 104 134 169 205 239
#     4  10  18  31  48  62  74  98 139 174 203 250
#
# _framework density 14.958273
#
# number of rings (size 3 to 8) (size 9 to 14) (size 15 to 20)
#    0.000    3.000    1.000    2.100    0.000    2.800 
#    1.800    2.000    0.000    0.000    0.000    0.000 
#    0.000    0.000    0.000    0.000    0.000    1.000 
#
# Total GULP energy -222838.755450 kJ/mol
# GULP energy per Si atom -5570.968886 kJ/mol
# Density = 1.492423 g / cm^3
# Si number density = 14.958273 Si / 1000 Ang^3
#
#
#
# Elastic Constant Matrix: (Units=GPa)
#
#
# Indices 1 2 3 4 5 6 
#
# 1 88.3488 13.8748 55.3443 0.0000 0.0000 0.0000
# 2 13.8748 42.1787 34.0359 0.0000 0.0000 0.0000
# 3 55.3443 34.0359 139.8908 0.0000 0.0000 0.0000
# 4 0.0000 0.0000 0.0000 30.9937 0.0000 0.0000
# 5 0.0000 0.0000 0.0000 0.0000 3.9859 0.0000
# 6 0.0000 0.0000 0.0000 0.0000 0.0000 9.3926
#
#
#
# Elastic Compliance Matrix: (Units=1/GPa)
#
#
# Indices 1 2 3 4 5 6 
#
# 1 0.015049 -0.000182 -0.005910 0.000000 0.000000 0.000000
# 2 -0.000182 0.029503 -0.007106 0.000000 0.000000 0.000000
# 3 -0.005910 -0.007106 0.011215 0.000000 0.000000 0.000000
# 4 0.000000 0.000000 0.000000 0.032265 0.000000 0.000000
# 5 0.000000 0.000000 0.000000 0.000000 0.250882 0.000000
# 6 0.000000 0.000000 0.000000 0.000000 0.000000 0.106467
#
#
# Mechanical properties :
#
#
# Convention : Reuss Voigt Hill
#
# Bulk Modulus (GPa) = 34.04574 52.99203 43.51889
# Shear Modulus (GPa) = 10.38279 20.01867 15.20073
#
# Velocity S-wave (km/s) = 2.63747 3.66225 3.19126
# Velocity P-wave (km/s) = 5.66435 7.30659 6.53724
#
# Compressibility (1/GPa) = 0.02937225
#
# Stress axis : x y z
#
# Youngs Moduli (GPa) = 66.44824 33.89510 89.16295
#
# Poissons Ratio (x) = 0.00616 0.52692
# Poissons Ratio (y) = 0.01208 0.63361
# Poissons Ratio (z) = 0.39269 0.24087
#
# Static dielectric constant tensor:
#      x y z
#    x 1.486180 0.000000 0.000000 
#    y 0.000000 1.546730 0.000000 
#    z 0.000000 0.000000 1.496230 
# 
# From -- ./inp_files/66163.got.cif
#   From: 2010.05.17/outbox.cif.g08.bks.cpg/sg65_34_cif.got.tgz:66163.got - 2010.06.03 17:01:31.
