data_PCOD9484977
_publ_section_title
;
Structure prediction by ZEFSAII (Michael W. Deem and Ramdas Pophale) SiO2 
 PCOD9484977
Probable space group: C M M M
;
_chemical_formula_sum "Si O2"
_cell_formula_units_Z 104
_cell_length_a 31.394744
_cell_length_b 7.563540
_cell_length_c 24.012757
_cell_angle_alpha 90.000000
_cell_angle_beta 90.000000
_cell_angle_gamma 90.000000
_cell_volume 5701.958867
_symmetry_space_group_name_H-M "C M M M"
_symmetry_group_IT_number 65
_symmetry_cell_setting 'orthorhombic'
loop_
_space_group_symop_operation_xyz
x,y,z
-x,-y,z
x,-y,-z
-x,y,-z
-x,-y,-z
x,y,-z
-x,y,z
x,-y,z
1/2+x,1/2+y,z
1/2-x,1/2-y,z
1/2+x,1/2-y,-z
1/2-x,1/2+y,-z
1/2-x,1/2-y,-z
1/2+x,1/2+y,-z
1/2-x,1/2+y,z
1/2+x,1/2-y,z
loop_
_atom_site_type_symbol
_atom_site_label
_atom_site_fract_x
_atom_site_fract_y
_atom_site_fract_z
Si Si1 0.950260 0.212874 0.940152
Si Si2 0.385570 0.786065 0.724621
Si Si3 0.203144 0.711704 0.317073
Si Si4 0.317171 0.204897 0.560551
Si Si5 0.451118 0.790981 0.816923
Si Si6 0.000000 0.797333 0.433974
Si Si7 0.909190 0.791347 0.401426
O O1 0.934032 0.270407 0.880014
O O2 0.000000 0.267910 0.940193
O O3 0.949251 0.000000 0.940281
O O4 0.931850 0.272786 0.000000
O O5 0.336273 0.725186 0.720712
O O6 0.417135 0.718730 0.772594
O O7 0.403253 0.735074 0.664205
O O8 0.384973 0.000000 0.728907
O O9 0.198158 0.500000 0.321677
O O10 0.250000 0.750000 0.295270
O O11 0.199346 0.783639 0.380865
O O12 0.305774 0.283308 0.500000
O O13 0.368395 0.210478 0.567978
O O14 0.303631 0.000000 0.559334
O O15 0.500000 0.718699 0.813363
O O16 0.454772 0.000000 0.806311
O O17 0.955240 0.715897 0.416546
O O18 0.000000 0.806946 0.500000
O O19 0.000000 0.000000 0.411084
O O20 0.908557 0.000000 0.415521
#
# Coordination Sequence:
#
# PCOD9484977 Si02
#       7
#    16  16  16  16  16   8  16
#     4   8  14  25  40  60  90 126 157 185 218 250
#     4   9  19  34  47  63  90 118 143 181 225 259
#     4   9  18  32  48  65  86 111 139 175 221 269
#     4   9  18  33  49  64  85 109 132 167 219 272
#     4   9  17  28  44  66  90 121 157 187 214 248
#     4   9  18  30  41  57  83 109 136 177 222 255
#     4  10  19  30  45  63  82 110 145 180 217 258
#
# _framework density 18.239346999999999
#
# number of rings (size 3 to 8) (size 9 to 14) (size 15 to 20)
#    0.000    3.000    0.000    2.308    1.077    4.615 
#    0.000    2.692    0.000    2.769    0.000    0.000 
#    0.000    0.615    0.000    1.385    0.000    2.462 
#
# Total GULP energy -289601.188085 kJ/mol
# GULP energy per Si atom -5569.253617 kJ/mol
# Density = 1.819783 g / cm^3
# Si number density = 18.239347 Si / 1000 Ang^3
#
#
#
# Elastic Constant Matrix: (Units=GPa)
#
#
# Indices 1 2 3 4 5 6 
#
# 1 103.5098 2.2759 38.8814 0.0000 0.0000 0.0000
# 2 2.2759 42.6198 2.4292 0.0000 0.0000 0.0000
# 3 38.8814 2.4292 103.6534 0.0000 0.0000 0.0000
# 4 0.0000 0.0000 0.0000 10.2356 0.0000 0.0000
# 5 0.0000 0.0000 0.0000 0.0000 -10.2413 0.0000
# 6 0.0000 0.0000 0.0000 0.0000 0.0000 15.8956
#
#
#
# Elastic Compliance Matrix: (Units=1/GPa)
#
#
# Indices 1 2 3 4 5 6 
#
# 1 0.011251 -0.000361 -0.004212 0.000000 0.000000 0.000000
# 2 -0.000361 0.023506 -0.000416 0.000000 0.000000 0.000000
# 3 -0.004212 -0.000416 0.011237 0.000000 0.000000 0.000000
# 4 0.000000 0.000000 0.000000 0.097698 0.000000 0.000000
# 5 0.000000 0.000000 0.000000 0.000000 -0.097643 0.000000
# 6 0.000000 0.000000 0.000000 0.000000 0.000000 0.062910
#
#
# Mechanical properties :
#
#
# Convention : Reuss Voigt Hill
#
# Bulk Modulus (GPa) = 27.76390 37.43955 32.60173
# Shear Modulus (GPa) = 38.18498 16.92442 27.55470
#
# Velocity S-wave (km/s) = 4.58050 3.04946 3.89103
# Velocity P-wave (km/s) = 6.57492 5.74198 6.17252
#
# Compressibility (1/GPa) = 0.03601800
#
# Stress axis : x y z
#
# Youngs Moduli (GPa) = 88.88120 42.54191 88.99014
#
# Poissons Ratio (x) = 0.01535 0.37482
# Poissons Ratio (y) = 0.03206 0.03698
# Poissons Ratio (z) = 0.37436 0.01768
#
# Static dielectric constant tensor:
#      x y z
#    x 1.654750 0.000000 0.000000 
#    y 0.000000 1.694160 0.000000 
#    z 0.000000 0.000000 1.639260 
# 
# From -- ./inp_files/72157.got.cif
#   From: 2010.05.17/outbox.cif.g08.bks.cpg/sg65_37_cif.got.tgz:72157.got - 2010.06.03 17:01:31.
