data_PCOD9484713
_publ_section_title
;
Structure prediction by ZEFSAII (Michael W. Deem and Ramdas Pophale) SiO2 
 PCOD9484713
Probable space group: C M M M
;
_chemical_formula_sum "Si O2"
_cell_formula_units_Z 80
_cell_length_a 18.761038
_cell_length_b 7.725550
_cell_length_c 27.295584
_cell_angle_alpha 90.000000
_cell_angle_beta 90.000000
_cell_angle_gamma 90.000000
_cell_volume 3956.203851
_symmetry_space_group_name_H-M "C M M M"
_symmetry_group_IT_number 65
_symmetry_cell_setting 'orthorhombic'
loop_
_space_group_symop_operation_xyz
x,y,z
-x,-y,z
x,-y,-z
-x,y,-z
-x,-y,-z
x,y,-z
-x,y,z
x,-y,z
1/2+x,1/2+y,z
1/2-x,1/2-y,z
1/2+x,1/2-y,-z
1/2-x,1/2+y,-z
1/2-x,1/2-y,-z
1/2+x,1/2+y,-z
1/2-x,1/2+y,z
1/2+x,1/2-y,z
loop_
_atom_site_type_symbol
_atom_site_label
_atom_site_fract_x
_atom_site_fract_y
_atom_site_fract_z
Si Si1 0.082999 0.712603 0.808793
Si Si2 0.917084 0.712235 0.404638
Si Si3 0.080043 0.205117 0.000000
Si Si4 0.586723 0.201833 0.298079
Si Si5 0.167403 0.704251 0.902828
Si Si6 0.167173 0.291993 0.500000
O O1 0.084243 0.500000 0.807351
O O2 0.107706 0.774736 0.754902
O O3 0.130505 0.777009 0.853750
O O4 0.000000 0.760276 0.816179
O O5 0.915457 0.500000 0.403231
O O6 0.891628 0.774895 0.350949
O O7 0.870980 0.771847 0.450562
O O8 0.000000 0.760111 0.411292
O O9 0.123407 0.251652 0.048636
O O10 0.000000 0.280945 0.000000
O O11 0.073714 0.000000 0.000000
O O12 0.500000 0.205383 0.298256
O O13 0.608258 0.000000 0.298029
O O14 0.163640 0.500000 0.897455
O O15 0.250000 0.750000 0.907737
O O16 0.158807 0.500000 0.500000
O O17 0.250000 0.250000 0.500000
#
# Coordination Sequence:
#
# PCOD9484713 Si02
#       6
#    16  16   8  16  16   8
#     4   8  14  26  46  71  96 123 157 197 240 286
#     4   8  13  23  42  65  86 113 154 201 239 272
#     4  11  24  41  60  81 103 127 160 203 248 293
#     4   7  10  19  38  65  92 114 145 195 245 279
#     4  11  22  36  54  76 105 137 168 201 239 285
#     4  10  19  29  41  61  91 122 152 188 234 286
#
# _framework density 20.221402999999999
#
# number of rings (size 3 to 8) (size 9 to 14) (size 15 to 20)
#    0.000    3.100    0.000    4.500    0.000    2.800 
#    0.000    1.000    0.000    1.200    0.000    1.400 
#    0.000    9.600    0.000    0.000    0.000    0.000 
#
# Total GULP energy -222947.419566 kJ/mol
# GULP energy per Si atom -5573.685489 kJ/mol
# Density = 2.017538 g / cm^3
# Si number density = 20.221403 Si / 1000 Ang^3
#
#
#
# Elastic Constant Matrix: (Units=GPa)
#
#
# Indices 1 2 3 4 5 6 
#
# 1 119.5457 4.5161 119.4139 0.0000 0.0000 0.0000
# 2 4.5161 33.5826 11.3467 0.0000 0.0000 0.0000
# 3 119.4139 11.3467 262.0318 0.0000 0.0000 0.0000
# 4 0.0000 0.0000 0.0000 -14.2484 0.0000 0.0000
# 5 0.0000 0.0000 0.0000 0.0000 -6.2632 0.0000
# 6 0.0000 0.0000 0.0000 0.0000 0.0000 -1.7478
#
#
#
# Elastic Compliance Matrix: (Units=1/GPa)
#
#
# Indices 1 2 3 4 5 6 
#
# 1 0.015358 0.000304 -0.007012 0.000000 0.000000 0.000000
# 2 0.000304 0.030225 -0.001447 0.000000 0.000000 0.000000
# 3 -0.007012 -0.001447 0.007075 0.000000 0.000000 0.000000
# 4 0.000000 0.000000 0.000000 -0.070183 0.000000 0.000000
# 5 0.000000 0.000000 0.000000 0.000000 -0.159663 0.000000
# 6 0.000000 0.000000 0.000000 0.000000 0.000000 -0.572153
#
#
# Mechanical properties :
#
#
# Convention : Reuss Voigt Hill
#
# Bulk Modulus (GPa) = 27.51270 76.19040 51.85155
# Shear Modulus (GPa) = -6.93563 14.20702 3.63570
#
# Velocity S-wave (km/s) = -1.85399 2.65349 1.34233
# Velocity P-wave (km/s) = 3.00869 6.86643 5.30095
#
# Compressibility (1/GPa) = 0.03634686
#
# Stress axis : x y z
#
# Youngs Moduli (GPa) = 65.11313 33.08470 141.35119
#
# Poissons Ratio (x) = -0.01006 0.99117
# Poissons Ratio (y) = -0.01979 0.20459
# Poissons Ratio (z) = 0.45658 0.04789
#
# Static dielectric constant tensor:
#      x y z
#    x 1.570780 0.000000 0.000000 
#    y 0.000000 1.744040 0.000000 
#    z 0.000000 0.000000 1.938040 
# 
# From -- ./inp_files/75101.got.cif
#   From: 2010.05.17/outbox.cif.g08.bks.cpg/sg65_38_cif.got.tgz:75101.got - 2010.06.03 17:01:31.
