data_PCOD9484245
_publ_section_title
;
Structure prediction by ZEFSAII (Michael W. Deem and Ramdas Pophale) SiO2 
 PCOD9484245
Probable space group: C M M M
;
_chemical_formula_sum "Si O2"
_cell_formula_units_Z 80
_cell_length_a 8.814159
_cell_length_b 25.445670
_cell_length_c 20.614237
_cell_angle_alpha 90.000000
_cell_angle_beta 90.000000
_cell_angle_gamma 90.000000
_cell_volume 4623.406039
_symmetry_space_group_name_H-M "C M M M"
_symmetry_group_IT_number 65
_symmetry_cell_setting 'orthorhombic'
loop_
_space_group_symop_operation_xyz
x,y,z
-x,-y,z
x,-y,-z
-x,y,-z
-x,-y,-z
x,y,-z
-x,y,z
x,-y,z
1/2+x,1/2+y,z
1/2-x,1/2-y,z
1/2+x,1/2-y,-z
1/2-x,1/2+y,-z
1/2-x,1/2-y,-z
1/2+x,1/2+y,-z
1/2-x,1/2+y,z
1/2+x,1/2-y,z
loop_
_atom_site_type_symbol
_atom_site_label
_atom_site_fract_x
_atom_site_fract_y
_atom_site_fract_z
Si Si1 0.682826 0.191346 0.500000
Si Si2 0.679044 0.500000 0.239915
Si Si3 0.181818 0.888632 0.101279
Si Si4 0.178336 0.115654 0.255086
Si Si5 0.180745 0.691853 0.641547
Si Si6 0.681774 0.808505 0.000000
Si Si7 0.821452 0.500000 0.100303
O O1 0.500000 0.193694 0.500000
O O2 0.750000 0.250000 0.500000
O O3 0.728370 0.169119 0.570433
O O4 0.500000 0.500000 0.217249
O O5 0.702659 0.554885 0.275573
O O6 0.786639 0.500000 0.177447
O O7 0.214689 0.882181 0.178223
O O8 0.258062 0.841953 0.061272
O O9 0.245643 0.945296 0.078470
O O10 0.000000 0.888009 0.092847
O O11 0.268009 0.155135 0.300036
O O12 0.000000 0.127448 0.261253
O O13 0.250000 0.750000 0.648226
O O14 0.000000 0.696701 0.642028
O O15 0.750000 0.750000 0.000000
O O16 0.500000 0.806234 0.000000
O O17 0.000000 0.500000 0.086488
#
# Coordination Sequence:
#
# PCOD9484245 Si02
#       7
#     8   8  16  16  16   8   8
#     4   8  16  30  46  67  96 131 167 206 252 302
#     4   8  16  32  51  72 103 140 170 204 254 308
#     4  10  21  39  59  79 106 140 174 213 260 308
#     4   9  18  33  54  78 103 132 169 209 251 299
#     4  10  19  31  49  73 102 133 168 209 255 303
#     4  12  26  43  60  79 104 138 178 216 258 312
#     4  10  18  31  55  86 111 131 166 216 262 307
#
# _framework density 17.303260000000002
#
# number of rings (size 3 to 8) (size 9 to 14) (size 15 to 20)
#    0.000    2.400    0.000    4.200    0.000    6.000 
#    0.000    2.000    0.000    0.600    0.000    4.200 
#    0.000    0.000    0.000    0.000    0.000    0.000 
#
# Total GULP energy -222945.024025 kJ/mol
# GULP energy per Si atom -5573.625601 kJ/mol
# Density = 1.726388 g / cm^3
# Si number density = 17.303260 Si / 1000 Ang^3
#
#
#
# Elastic Constant Matrix: (Units=GPa)
#
#
# Indices 1 2 3 4 5 6 
#
# 1 83.2870 68.3228 56.6831 0.0000 0.0000 0.0000
# 2 68.3228 137.9725 70.1651 0.0000 0.0000 0.0000
# 3 56.6831 70.1651 101.3908 0.0000 0.0000 0.0000
# 4 0.0000 0.0000 0.0000 -94.7576 0.0000 0.0000
# 5 0.0000 0.0000 0.0000 0.0000 20.5309 0.0000
# 6 0.0000 0.0000 0.0000 0.0000 0.0000 31.5482
#
#
#
# Elastic Compliance Matrix: (Units=1/GPa)
#
#
# Indices 1 2 3 4 5 6 
#
# 1 0.023736 -0.007724 -0.007925 0.000000 0.000000 0.000000
# 2 -0.007724 0.013697 -0.005161 0.000000 0.000000 0.000000
# 3 -0.007925 -0.005161 0.017864 0.000000 0.000000 0.000000
# 4 0.000000 0.000000 0.000000 -0.010553 0.000000 0.000000
# 5 0.000000 0.000000 0.000000 0.000000 0.048707 0.000000
# 6 0.000000 0.000000 0.000000 0.000000 0.000000 0.031698
#
#
# Mechanical properties :
#
#
# Convention : Reuss Voigt Hill
#
# Bulk Modulus (GPa) = 73.10351 79.22137 76.16244
# Shear Modulus (GPa) = 29.18390 -0.03709 14.57341
#
# Velocity S-wave (km/s) = 4.11129 -0.14656 2.90528
# Velocity P-wave (km/s) = 8.05463 6.77162 7.44083
#
# Compressibility (1/GPa) = 0.01367923
#
# Stress axis : x y z
#
# Youngs Moduli (GPa) = 42.12977 73.00859 55.97701
#
# Poissons Ratio (x) = 0.56391 0.44360
# Poissons Ratio (y) = 0.32541 0.28888
# Poissons Ratio (z) = 0.33387 0.37677
#
# Static dielectric constant tensor:
#      x y z
#    x 1.585040 0.000000 0.000000 
#    y 0.000000 1.570480 0.000000 
#    z 0.000000 0.000000 1.616450 
# 
# From -- ./inp_files/59716.got.cif
#   From: 2010.05.17/outbox.cif.g08.bks.cpg/sg65_30_cif.got.tgz:59716.got - 2010.06.03 17:01:31.
