data_PCOD9484846
_publ_section_title
;
Structure prediction by ZEFSAII (Michael W. Deem and Ramdas Pophale) SiO2 
 PCOD9484846
Probable space group: C M M M
;
_chemical_formula_sum "Si O2"
_cell_formula_units_Z 88
_cell_length_a 7.645132
_cell_length_b 19.153156
_cell_length_c 29.222702
_cell_angle_alpha 90.000000
_cell_angle_beta 90.000000
_cell_angle_gamma 90.000000
_cell_volume 4279.033668
_symmetry_space_group_name_H-M "C M M M"
_symmetry_group_IT_number 65
_symmetry_cell_setting 'orthorhombic'
loop_
_space_group_symop_operation_xyz
x,y,z
-x,-y,z
x,-y,-z
-x,y,-z
-x,-y,-z
x,y,-z
-x,y,z
x,-y,z
1/2+x,1/2+y,z
1/2-x,1/2-y,z
1/2+x,1/2-y,-z
1/2-x,1/2+y,-z
1/2-x,1/2-y,-z
1/2+x,1/2+y,-z
1/2-x,1/2+y,z
1/2+x,1/2-y,z
loop_
_atom_site_type_symbol
_atom_site_label
_atom_site_fract_x
_atom_site_fract_y
_atom_site_fract_z
Si Si1 0.291294 0.078654 0.635717
Si Si2 0.713542 0.419346 0.189307
Si Si3 0.289814 0.331394 0.000000
Si Si4 0.786609 0.080557 0.913704
Si Si5 0.289529 0.830520 0.551602
Si Si6 0.292380 0.331531 0.724880
O O1 0.500000 0.073313 0.629633
O O2 0.221285 0.118113 0.590741
O O3 0.263917 0.125782 0.680275
O O4 0.221794 0.000000 0.641394
O O5 0.500000 0.418133 0.189194
O O6 0.764024 0.500000 0.198216
O O7 0.769752 0.400233 0.137779
O O8 0.777812 0.368386 0.229081
O O9 0.250000 0.250000 0.000000
O O10 0.224324 0.369635 0.954165
O O11 0.500000 0.339469 0.000000
O O12 0.000000 0.082115 0.913611
O O13 0.736641 0.000000 0.922262
O O14 0.223675 0.844136 0.500000
O O15 0.500000 0.837069 0.550267
O O16 0.250000 0.750000 0.563159
O O17 0.500000 0.337471 0.726913
O O18 0.250000 0.250000 0.721962
#
# Coordination Sequence:
#
# PCOD9484846 Si02
#       6
#    16  16   8  16  16  16
#     4  10  21  36  54  77 104 133 167 209 253 295
#     4   8  15  29  49  72  96 123 159 204 249 291
#     4  10  19  29  45  71  99 126 156 196 244 288
#     4   8  14  27  48  71  93 121 162 205 239 280
#     4   9  18  33  53  76 102 133 167 202 243 293
#     4  11  22  35  52  74 101 134 170 206 248 298
#
# _framework density 20.565391999999999
#
# number of rings (size 3 to 8) (size 9 to 14) (size 15 to 20)
#    0.000    2.727    0.000    3.000    0.000    5.455 
#    0.000    1.818    0.000    2.182    0.000    8.909 
#    0.000    0.000    0.000    0.000    0.000    0.000 
#
# Total GULP energy -245596.772809 kJ/mol
# GULP energy per Si atom -5581.744837 kJ/mol
# Density = 2.051858 g / cm^3
# Si number density = 20.565392 Si / 1000 Ang^3
#
#
#
# Elastic Constant Matrix: (Units=GPa)
#
#
# Indices 1 2 3 4 5 6 
#
# 1 40.0438 1.5167 5.5041 0.0000 0.0000 0.0000
# 2 1.5167 182.4387 154.0511 0.0000 0.0000 0.0000
# 3 5.5041 154.0511 200.6324 0.0000 0.0000 0.0000
# 4 0.0000 0.0000 0.0000 14.9660 0.0000 0.0000
# 5 0.0000 0.0000 0.0000 0.0000 34.5089 0.0000
# 6 0.0000 0.0000 0.0000 0.0000 0.0000 12.4284
#
#
#
# Elastic Compliance Matrix: (Units=1/GPa)
#
#
# Indices 1 2 3 4 5 6 
#
# 1 0.025139 0.001062 -0.001505 0.000000 0.000000 0.000000
# 2 0.001062 0.015632 -0.012032 0.000000 0.000000 0.000000
# 3 -0.001505 -0.012032 0.014264 0.000000 0.000000 0.000000
# 4 0.000000 0.000000 0.000000 0.066818 0.000000 0.000000
# 5 0.000000 0.000000 0.000000 0.000000 0.028978 0.000000
# 6 0.000000 0.000000 0.000000 0.000000 0.000000 0.080461
#
#
# Mechanical properties :
#
#
# Convention : Reuss Voigt Hill
#
# Bulk Modulus (GPa) = 33.23888 82.80651 58.02270
# Shear Modulus (GPa) = 18.77783 29.85020 24.31402
#
# Velocity S-wave (km/s) = 3.02500 3.81396 3.44216
# Velocity P-wave (km/s) = 5.32902 7.72965 6.63875
#
# Compressibility (1/GPa) = 0.03008525
#
# Stress axis : x y z
#
# Youngs Moduli (GPa) = 39.77839 63.97007 70.10629
#
# Poissons Ratio (x) = -0.06792 0.10550
# Poissons Ratio (y) = -0.04223 0.84352
# Poissons Ratio (z) = 0.05986 0.76969
#
# Static dielectric constant tensor:
#      x y z
#    x 1.757440 0.000000 0.000000 
#    y 0.000000 1.684560 0.000000 
#    z 0.000000 0.000000 1.737390 
# 
# From -- ./inp_files/76518.got.cif
#   From: 2010.05.17/outbox.cif.g08.bks.cpg/sg65_39_cif.got.tgz:76518.got - 2010.06.03 17:01:31.
