data_PCOD9484163
_publ_section_title
;
Structure prediction by ZEFSAII (Michael W. Deem and Ramdas Pophale) SiO2 
 PCOD9484163
Probable space group: C M M M
;
_chemical_formula_sum "Si O2"
_cell_formula_units_Z 104
_cell_length_a 18.149143
_cell_length_b 28.095039
_cell_length_c 12.567555
_cell_angle_alpha 90.000000
_cell_angle_beta 90.000000
_cell_angle_gamma 90.000000
_cell_volume 6408.207359
_symmetry_space_group_name_H-M "C M M M"
_symmetry_group_IT_number 65
_symmetry_cell_setting 'orthorhombic'
loop_
_space_group_symop_operation_xyz
x,y,z
-x,-y,z
x,-y,-z
-x,y,-z
-x,-y,-z
x,y,-z
-x,y,z
x,-y,z
1/2+x,1/2+y,z
1/2-x,1/2-y,z
1/2+x,1/2-y,-z
1/2-x,1/2+y,-z
1/2-x,1/2-y,-z
1/2+x,1/2+y,-z
1/2-x,1/2+y,z
1/2+x,1/2-y,z
loop_
_atom_site_type_symbol
_atom_site_label
_atom_site_fract_x
_atom_site_fract_y
_atom_site_fract_z
Si Si1 0.918008 0.275249 0.873282
Si Si2 0.581953 0.650681 0.627808
Si Si3 0.182857 0.444099 0.705053
Si Si4 0.687164 0.861293 0.127619
Si Si5 0.148366 0.947664 0.371685
Si Si6 0.585515 0.942209 0.500000
Si Si7 0.196062 0.792247 0.760905
O O1 0.881928 0.326465 0.850294
O O2 0.862703 0.234795 0.834439
O O3 0.000000 0.270775 0.828095
O O4 0.921908 0.271765 0.000000
O O5 0.582397 0.651728 0.500000
O O6 0.500000 0.665129 0.663969
O O7 0.599125 0.596574 0.663164
O O8 0.648044 0.682553 0.671038
O O9 0.167482 0.500000 0.728288
O O10 0.176983 0.409739 0.806478
O O11 0.267360 0.441239 0.664936
O O12 0.129946 0.428444 0.607103
O O13 0.756402 0.831262 0.174547
O O14 0.694363 0.867908 0.000000
O O15 0.148460 0.947661 0.500000
O O16 0.122855 0.000000 0.335901
O O17 0.500000 0.926626 0.500000
O O18 0.585965 0.000000 0.500000
O O19 0.250000 0.750000 0.721770
#
# Coordination Sequence:
#
# PCOD9484163 Si02
#       7
#    16  16  16  16  16   8  16
#     4   9  18  33  53  73  95 126 166 214 260 301
#     4  10  20  32  49  75 105 134 166 210 262 312
#     4  10  18  31  52  76 104 139 172 206 250 305
#     4  10  20  33  51  77 105 133 169 213 257 304
#     4   9  16  29  50  74  99 130 168 204 242 294
#     4   9  18  32  52  78 104 133 175 223 258 288
#     4  10  19  33  52  73  96 132 171 215 252 304
#
# _framework density 16.229188000000001
#
# number of rings (size 3 to 8) (size 9 to 14) (size 15 to 20)
#    0.000    2.385    2.308    0.923    0.000    3.385 
#    0.000    1.538    1.692    0.000    0.000    4.308 
#    0.000    2.462    0.000    0.000    0.000    0.000 
#
# Total GULP energy -289587.310167 kJ/mol
# GULP energy per Si atom -5568.986734 kJ/mol
# Density = 1.619225 g / cm^3
# Si number density = 16.229188 Si / 1000 Ang^3
#
#
#
# Elastic Constant Matrix: (Units=GPa)
#
#
# Indices 1 2 3 4 5 6 
#
# 1 108.4869 48.2794 38.5960 0.0000 0.0000 0.0000
# 2 48.2794 96.5203 48.7075 0.0000 0.0000 0.0000
# 3 38.5960 48.7075 58.7340 0.0000 0.0000 0.0000
# 4 0.0000 0.0000 0.0000 26.4827 0.0000 0.0000
# 5 0.0000 0.0000 0.0000 0.0000 19.8886 0.0000
# 6 0.0000 0.0000 0.0000 0.0000 0.0000 7.0795
#
#
#
# Elastic Compliance Matrix: (Units=1/GPa)
#
#
# Indices 1 2 3 4 5 6 
#
# 1 0.012754 -0.003698 -0.005315 0.000000 0.000000 0.000000
# 2 -0.003698 0.018888 -0.013234 0.000000 0.000000 0.000000
# 3 -0.005315 -0.013234 0.031493 0.000000 0.000000 0.000000
# 4 0.000000 0.000000 0.000000 0.037760 0.000000 0.000000
# 5 0.000000 0.000000 0.000000 0.000000 0.050280 0.000000
# 6 0.000000 0.000000 0.000000 0.000000 0.000000 0.141253
#
#
# Mechanical properties :
#
#
# Convention : Reuss Voigt Hill
#
# Bulk Modulus (GPa) = 53.63986 59.43412 56.53699
# Shear Modulus (GPa) = 14.57146 19.23406 16.90276
#
# Velocity S-wave (km/s) = 2.99967 3.44634 3.23073
# Velocity P-wave (km/s) = 6.71719 7.24828 6.98778
#
# Compressibility (1/GPa) = 0.01864285
#
# Stress axis : x y z
#
# Youngs Moduli (GPa) = 78.40677 52.94239 31.75269
#
# Poissons Ratio (x) = 0.19576 0.16876
# Poissons Ratio (y) = 0.28991 0.42022
# Poissons Ratio (z) = 0.41671 0.70065
#
# Static dielectric constant tensor:
#      x y z
#    x 1.554260 0.000000 0.000000 
#    y 0.000000 1.559550 0.000000 
#    z 0.000000 0.000000 1.517700 
# 
# From -- ./inp_files/27490.got.cif
#   From: 2010.05.17/outbox.cif.g08.bks.cpg/sg65_14_cif.got.tgz:27490.got - 2010.06.03 17:01:31.
