data_PCOD9484886
_publ_section_title
;
Structure prediction by ZEFSAII (Michael W. Deem and Ramdas Pophale) SiO2 
 PCOD9484886
Probable space group: C M M M
;
_chemical_formula_sum "Si O2"
_cell_formula_units_Z 72
_cell_length_a 7.754990
_cell_length_b 30.033526
_cell_length_c 16.048039
_cell_angle_alpha 90.000000
_cell_angle_beta 90.000000
_cell_angle_gamma 90.000000
_cell_volume 3737.743849
_symmetry_space_group_name_H-M "C M M M"
_symmetry_group_IT_number 65
_symmetry_cell_setting 'orthorhombic'
loop_
_space_group_symop_operation_xyz
x,y,z
-x,-y,z
x,-y,-z
-x,y,-z
-x,-y,-z
x,y,-z
-x,y,z
x,-y,z
1/2+x,1/2+y,z
1/2-x,1/2-y,z
1/2+x,1/2-y,-z
1/2-x,1/2+y,-z
1/2-x,1/2-y,-z
1/2+x,1/2+y,-z
1/2-x,1/2+y,z
1/2+x,1/2-y,z
loop_
_atom_site_type_symbol
_atom_site_label
_atom_site_fract_x
_atom_site_fract_y
_atom_site_fract_z
Si Si1 0.207775 0.802110 0.407182
Si Si2 0.704788 0.800659 0.906578
Si Si3 0.205934 0.859169 0.749475
Si Si4 0.788179 0.050493 0.682900
Si Si5 0.194852 0.945953 0.500000
O O1 0.270050 0.815530 0.500000
O O2 0.250000 0.750000 0.395453
O O3 0.274124 0.830880 0.329509
O O4 0.000000 0.806030 0.408198
O O5 0.500000 0.803358 0.911501
O O6 0.750000 0.750000 0.882710
O O7 0.760888 0.834500 0.835660
O O8 0.776400 0.808712 0.000000
O O9 0.266609 0.910224 0.744020
O O10 0.000000 0.860795 0.739120
O O11 0.728296 0.064495 0.589745
O O12 0.000000 0.048923 0.679511
O O13 0.731807 0.000000 0.701080
O O14 0.000000 0.927029 0.500000
O O15 0.182791 0.000000 0.500000
#
# Coordination Sequence:
#
# PCOD9484886 Si02
#       5
#    16  16  16  16   8
#     4   9  18  30  42  61  93 129 161 192 229 278
#     4  10  21  37  56  76  98 123 154 197 248 300
#     4  10  19  29  48  75 100 129 163 202 243 286
#     4   8  14  24  40  66  99 132 166 204 243 281
#     4   7  10  18  34  58  90 127 164 201 238 273
#
# _framework density 19.262958000000001
#
# number of rings (size 3 to 8) (size 9 to 14) (size 15 to 20)
#    0.000    3.000    0.000    2.667    1.556    4.000 
#    0.000    0.000    0.000    1.333    0.000    4.667 
#    0.000    2.667    0.000    0.000    0.000    0.000 
#
# Total GULP energy -200673.475613 kJ/mol
# GULP energy per Si atom -5574.263211 kJ/mol
# Density = 1.921911 g / cm^3
# Si number density = 19.262958 Si / 1000 Ang^3
#
#
#
# Elastic Constant Matrix: (Units=GPa)
#
#
# Indices 1 2 3 4 5 6 
#
# 1 25.1471 5.7397 4.2204 0.0000 0.0000 0.0000
# 2 5.7397 146.0737 108.0045 0.0000 0.0000 0.0000
# 3 4.2204 108.0045 118.3435 0.0000 0.0000 0.0000
# 4 0.0000 0.0000 0.0000 28.1736 0.0000 0.0000
# 5 0.0000 0.0000 0.0000 0.0000 -6.7440 0.0000
# 6 0.0000 0.0000 0.0000 0.0000 0.0000 9.0774
#
#
#
# Elastic Compliance Matrix: (Units=1/GPa)
#
#
# Indices 1 2 3 4 5 6 
#
# 1 0.040126 -0.001595 0.000024 0.000000 0.000000 0.000000
# 2 -0.001595 0.021114 -0.019212 0.000000 0.000000 0.000000
# 3 0.000024 -0.019212 0.025983 0.000000 0.000000 0.000000
# 4 0.000000 0.000000 0.000000 0.035494 0.000000 0.000000
# 5 0.000000 0.000000 0.000000 0.000000 -0.148280 0.000000
# 6 0.000000 0.000000 0.000000 0.000000 0.000000 0.110163
#
#
# Mechanical properties :
#
#
# Convention : Reuss Voigt Hill
#
# Bulk Modulus (GPa) = 21.90225 58.38818 40.14521
# Shear Modulus (GPa) = 35.36450 17.54138 26.45294
#
# Velocity S-wave (km/s) = 4.28937 3.02093 3.70976
# Velocity P-wave (km/s) = 5.99386 6.52265 6.26384
#
# Compressibility (1/GPa) = 0.04565741
#
# Stress axis : x y z
#
# Youngs Moduli (GPa) = 24.92154 47.36222 38.48663
#
# Poissons Ratio (x) = 0.07553 -0.00094
# Poissons Ratio (y) = 0.03974 0.73942
# Poissons Ratio (z) = -0.00061 0.90994
#
# Static dielectric constant tensor:
#      x y z
#    x 1.750990 0.000000 0.000000 
#    y 0.000000 1.655190 0.000000 
#    z 0.000000 0.000000 1.696110 
# 
# From -- ./inp_files/36936.got.cif
#   From: 2010.05.17/outbox.cif.g08.bks.cpg/sg65_19_cif.got.tgz:36936.got - 2010.06.03 17:01:31.
