data_PCOD9484608
_publ_section_title
;
Structure prediction by ZEFSAII (Michael W. Deem and Ramdas Pophale) SiO2 
 PCOD9484608
Probable space group: C M M M
;
_chemical_formula_sum "Si O2"
_cell_formula_units_Z 104
_cell_length_a 29.439209
_cell_length_b 17.698701
_cell_length_c 13.573738
_cell_angle_alpha 90.000000
_cell_angle_beta 90.000000
_cell_angle_gamma 90.000000
_cell_volume 7072.402865
_symmetry_space_group_name_H-M "C M M M"
_symmetry_group_IT_number 65
_symmetry_cell_setting 'orthorhombic'
loop_
_space_group_symop_operation_xyz
x,y,z
-x,-y,z
x,-y,-z
-x,y,-z
-x,-y,-z
x,y,-z
-x,y,z
x,-y,z
1/2+x,1/2+y,z
1/2-x,1/2-y,z
1/2+x,1/2-y,-z
1/2-x,1/2+y,-z
1/2-x,1/2-y,-z
1/2+x,1/2+y,-z
1/2-x,1/2+y,z
1/2+x,1/2-y,z
loop_
_atom_site_type_symbol
_atom_site_label
_atom_site_fract_x
_atom_site_fract_y
_atom_site_fract_z
Si Si1 0.231743 0.662960 0.000000
Si Si2 0.702829 0.800272 0.790813
Si Si3 0.636575 0.664153 0.198373
Si Si4 0.445374 0.410182 0.279616
Si Si5 0.051870 0.908906 0.500000
Si Si6 0.172795 0.911610 0.000000
Si Si7 0.786330 0.412173 0.388212
Si Si8 0.323328 0.412211 0.607565
O O1 0.250000 0.750000 0.000000
O O2 0.206919 0.656575 0.895315
O O3 0.273893 0.606665 0.000000
O O4 0.750000 0.750000 0.780077
O O5 0.658883 0.746675 0.798899
O O6 0.698917 0.855581 0.697648
O O7 0.583364 0.645076 0.210405
O O8 0.658739 0.624975 0.294037
O O9 0.653003 0.625953 0.097925
O O10 0.500000 0.402371 0.272658
O O11 0.435479 0.500000 0.262103
O O12 0.430264 0.390057 0.391925
O O13 0.000000 0.880888 0.500000
O O14 0.050305 0.000000 0.500000
O O15 0.163781 0.000000 0.000000
O O16 0.801097 0.391533 0.500000
O O17 0.799151 0.500000 0.370420
O O18 0.731370 0.409667 0.388740
O O19 0.336965 0.380140 0.500000
O O20 0.337031 0.500000 0.607919
#
# Coordination Sequence:
#
# PCOD9484608 Si02
#       8
#     8  16  16  16   8   8  16  16
#     4  10  18  36  46  60  90 124 157 207 248 271
#     4  11  19  32  48  65  93 123 156 202 245 281
#     4  12  21  31  46  67  92 121 159 203 240 283
#     4   9  18  32  47  65  92 124 159 199 241 282
#     4   7  12  26  46  62  81 114 149 189 242 281
#     4  12  22  32  49  69  92 128 170 201 236 285
#     4   9  18  32  46  63  93 128 156 185 230 292
#     4   9  17  27  40  61  87 114 149 190 225 268
#
# _framework density 14.705045
#
# number of rings (size 3 to 8) (size 9 to 14) (size 15 to 20)
#    0.000    2.077    4.615    3.231    1.077    2.769 
#    0.000    0.385    0.000    1.385    0.000    0.000 
#    0.000    0.615    0.000    1.692    0.000    5.231 
#
# Total GULP energy -289542.389877 kJ/mol
# GULP energy per Si atom -5568.122882 kJ/mol
# Density = 1.467158 g / cm^3
# Si number density = 14.705045 Si / 1000 Ang^3
#
#
#
# Elastic Constant Matrix: (Units=GPa)
#
#
# Indices 1 2 3 4 5 6 
#
# 1 62.2257 29.0832 33.9487 0.0000 0.0000 0.0000
# 2 29.0832 49.2009 53.7525 0.0000 0.0000 0.0000
# 3 33.9487 53.7525 141.8948 0.0000 0.0000 0.0000
# 4 0.0000 0.0000 0.0000 20.2515 0.0000 0.0000
# 5 0.0000 0.0000 0.0000 0.0000 -352.5316 0.0000
# 6 0.0000 0.0000 0.0000 0.0000 0.0000 18.1326
#
#
#
# Elastic Compliance Matrix: (Units=1/GPa)
#
#
# Indices 1 2 3 4 5 6 
#
# 1 0.022233 -0.012507 -0.000581 0.000000 0.000000 0.000000
# 2 -0.012507 0.041712 -0.012809 0.000000 0.000000 0.000000
# 3 -0.000581 -0.012809 0.012039 0.000000 0.000000 0.000000
# 4 0.000000 0.000000 0.000000 0.049379 0.000000 0.000000
# 5 0.000000 0.000000 0.000000 0.000000 -0.002837 0.000000
# 6 0.000000 0.000000 0.000000 0.000000 0.000000 0.055149
#
#
# Mechanical properties :
#
#
# Convention : Reuss Voigt Hill
#
# Bulk Modulus (GPa) = 41.34103 54.09891 47.71997
# Shear Modulus (GPa) = 21.04965 -53.72704 -16.33870
#
# Velocity S-wave (km/s) = 3.78757 -6.05110 -3.33692
# Velocity P-wave (km/s) = 6.87765 3.45714 4.20418
#
# Compressibility (1/GPa) = 0.02418904
#
# Stress axis : x y z
#
# Youngs Moduli (GPa) = 44.97747 23.97409 83.06457
#
# Poissons Ratio (x) = 0.29985 0.04830
# Poissons Ratio (y) = 0.56254 1.06396
# Poissons Ratio (z) = 0.02615 0.30708
#
# Static dielectric constant tensor:
#      x y z
#    x 1.522710 0.000000 0.000000 
#    y 0.000000 1.484370 0.000000 
#    z 0.000000 0.000000 1.519950 
# 
# From -- ./inp_files/34190.got.cif
#   From: 2010.05.17/outbox.cif.g08.bks.cpg/sg65_18_cif.got.tgz:34190.got - 2010.06.03 17:01:31.
