data_PCOD9484796
_publ_section_title
;
Structure prediction by ZEFSAII (Michael W. Deem and Ramdas Pophale) SiO2 
 PCOD9484796
Probable space group: C M M M
;
_chemical_formula_sum "Si O2"
_cell_formula_units_Z 120
_cell_length_a 14.615480
_cell_length_b 34.135658
_cell_length_c 14.404458
_cell_angle_alpha 90.000000
_cell_angle_beta 90.000000
_cell_angle_gamma 90.000000
_cell_volume 7186.514122
_symmetry_space_group_name_H-M "C M M M"
_symmetry_group_IT_number 65
_symmetry_cell_setting 'orthorhombic'
loop_
_space_group_symop_operation_xyz
x,y,z
-x,-y,z
x,-y,-z
-x,y,-z
-x,-y,-z
x,y,-z
-x,y,z
x,-y,z
1/2+x,1/2+y,z
1/2-x,1/2-y,z
1/2+x,1/2-y,-z
1/2-x,1/2+y,-z
1/2-x,1/2-y,-z
1/2+x,1/2+y,-z
1/2-x,1/2+y,z
1/2+x,1/2-y,z
loop_
_atom_site_type_symbol
_atom_site_label
_atom_site_fract_x
_atom_site_fract_y
_atom_site_fract_z
Si Si1 0.107026 0.651161 0.110963
Si Si2 0.610689 0.424418 0.271278
Si Si3 0.390087 0.649193 0.604905
Si Si4 0.110724 0.000000 0.606357
Si Si5 0.644128 0.260777 0.395180
Si Si6 0.393513 0.310176 0.110103
Si Si7 0.214030 0.108319 0.890945
Si Si8 0.604602 0.768390 0.200974
O O1 0.179622 0.616967 0.131349
O O2 0.139771 0.690454 0.163428
O O3 0.000000 0.643166 0.133621
O O4 0.112240 0.658590 0.000000
O O5 0.500000 0.424282 0.257449
O O6 0.638413 0.384826 0.325933
O O7 0.634910 0.461276 0.335770
O O8 0.664474 0.422715 0.174809
O O9 0.355716 0.642184 0.500000
O O10 0.500000 0.647506 0.601928
O O11 0.365849 0.693522 0.630887
O O12 0.144755 0.000000 0.500000
O O13 0.000000 0.000000 0.600754
O O14 0.606388 0.255994 0.500000
O O15 0.750000 0.250000 0.398943
O O16 0.604264 0.235218 0.311934
O O17 0.500000 0.316536 0.139864
O O18 0.338688 0.350204 0.123951
O O19 0.354070 0.271916 0.161440
O O20 0.393281 0.301894 0.000000
O O21 0.206037 0.098761 0.000000
O O22 0.500000 0.767477 0.165656
#
# Coordination Sequence:
#
# PCOD9484796 Si02
#       8
#    16  16  16   8  16  16  16  16
#     4   9  19  34  48  65  90 121 163 212 256 294
#     4  10  19  31  51  78 105 132 160 192 232 284
#     4   9  17  30  47  65  87 121 164 204 241 281
#     4   9  18  34  55  81 112 139 161 189 231 282
#     4  10  21  31  39  57  86 120 159 204 247 285
#     4   9  17  28  42  65  95 123 157 201 245 291
#     4  10  20  31  46  68  95 131 165 195 237 288
#     4  10  19  29  44  61  80 117 162 207 256 297
#
# _framework density 16.697942000000001
#
# number of rings (size 3 to 8) (size 9 to 14) (size 15 to 20)
#    0.000    2.467    0.000    2.400    3.733    6.933 
#    0.000    2.333    0.000    1.200    0.000    0.467 
#    0.000    2.667    0.000    0.000    0.000    0.000 
#
# Total GULP energy -334490.792397 kJ/mol
# GULP energy per Si atom -5574.846540 kJ/mol
# Density = 1.665994 g / cm^3
# Si number density = 16.697942 Si / 1000 Ang^3
#
#
#
# Elastic Constant Matrix: (Units=GPa)
#
#
# Indices 1 2 3 4 5 6 
#
# 1 54.7980 15.4828 26.6998 0.0000 0.0000 0.0000
# 2 15.4828 42.2756 50.2718 0.0000 0.0000 0.0000
# 3 26.6998 50.2718 87.5659 0.0000 0.0000 0.0000
# 4 0.0000 0.0000 0.0000 26.1857 0.0000 0.0000
# 5 0.0000 0.0000 0.0000 0.0000 16.4939 0.0000
# 6 0.0000 0.0000 0.0000 0.0000 0.0000 6.8522
#
#
#
# Elastic Compliance Matrix: (Units=1/GPa)
#
#
# Indices 1 2 3 4 5 6 
#
# 1 0.021434 -0.000247 -0.006394 0.000000 0.000000 0.000000
# 2 -0.000247 0.074549 -0.042724 0.000000 0.000000 0.000000
# 3 -0.006394 -0.042724 0.037897 0.000000 0.000000 0.000000
# 4 0.000000 0.000000 0.000000 0.038189 0.000000 0.000000
# 5 0.000000 0.000000 0.000000 0.000000 0.060628 0.000000
# 6 0.000000 0.000000 0.000000 0.000000 0.000000 0.145939
#
#
# Mechanical properties :
#
#
# Convention : Reuss Voigt Hill
#
# Bulk Modulus (GPa) = 28.44780 41.06092 34.75436
# Shear Modulus (GPa) = 10.22323 16.05204 13.13763
#
# Velocity S-wave (km/s) = 2.47704 3.10388 2.80801
# Velocity P-wave (km/s) = 5.02540 6.12284 5.60107
#
# Compressibility (1/GPa) = 0.03515210
#
# Stress axis : x y z
#
# Youngs Moduli (GPa) = 46.65521 13.41392 26.38706
#
# Poissons Ratio (x) = 0.00331 0.16871
# Poissons Ratio (y) = 0.01151 1.12736
# Poissons Ratio (z) = 0.29830 0.57309
#
# Static dielectric constant tensor:
#      x y z
#    x 4.287650 0.000000 0.000000 
#    y 0.000000 1.561090 0.000000 
#    z 0.000000 0.000000 1.602310 
# 
# From -- ./inp_files/41462.got.cif
#   From: 2010.05.17/outbox.cif.g08.bks.cpg/sg65_21_cif.got.tgz:41462.got - 2010.06.03 17:01:31.
