data_PCOD9484967
_publ_section_title
;
Structure prediction by ZEFSAII (Michael W. Deem and Ramdas Pophale) SiO2 
 PCOD9484967
Probable space group: C M M M
;
_chemical_formula_sum "Si O2"
_cell_formula_units_Z 96
_cell_length_a 19.494870
_cell_length_b 33.628844
_cell_length_c 8.136607
_cell_angle_alpha 90.000000
_cell_angle_beta 90.000000
_cell_angle_gamma 90.000000
_cell_volume 5334.277711
_symmetry_space_group_name_H-M "C M M M"
_symmetry_group_IT_number 65
_symmetry_cell_setting 'orthorhombic'
loop_
_space_group_symop_operation_xyz
x,y,z
-x,-y,z
x,-y,-z
-x,y,-z
-x,-y,-z
x,y,-z
-x,y,z
x,-y,z
1/2+x,1/2+y,z
1/2-x,1/2-y,z
1/2+x,1/2-y,-z
1/2-x,1/2+y,-z
1/2-x,1/2-y,-z
1/2+x,1/2+y,-z
1/2-x,1/2+y,z
1/2+x,1/2-y,z
loop_
_atom_site_type_symbol
_atom_site_label
_atom_site_fract_x
_atom_site_fract_y
_atom_site_fract_z
Si Si1 0.159912 0.666488 0.304752
Si Si2 0.576962 0.089341 0.299526
Si Si3 0.577694 0.332979 0.200957
Si Si4 0.288840 0.044162 0.302573
Si Si5 0.791294 0.120846 0.194033
Si Si6 0.921814 0.258199 0.801698
O O1 0.168042 0.662901 0.500000
O O2 0.103832 0.633242 0.252894
O O3 0.231688 0.653220 0.227006
O O4 0.131767 0.709651 0.261425
O O5 0.575483 0.087979 0.500000
O O6 0.500000 0.081596 0.240877
O O7 0.636138 0.059033 0.244051
O O8 0.500000 0.342964 0.251926
O O9 0.636901 0.362369 0.260531
O O10 0.592257 0.287250 0.249718
O O11 0.578423 0.333352 0.000000
O O12 0.292593 0.042360 0.500000
O O13 0.235462 0.078951 0.262028
O O14 0.272427 0.000000 0.240400
O O15 0.798408 0.115953 0.000000
O O16 0.000000 0.268167 0.748796
O O17 0.920771 0.259101 0.000000
#
# Coordination Sequence:
#
# PCOD9484967 Si02
#       6
#    16  16  16  16  16  16
#     4  10  19  30  44  66 100 135 164 194 231 275
#     4   8  14  25  42  64  89 120 158 192 219 254
#     4   8  16  32  52  72  93 119 153 196 246 293
#     4   9  18  32  49  70  97 125 150 185 239 295
#     4  10  19  32  52  73  92 119 158 199 237 282
#     4   9  17  30  48  69  94 125 162 202 241 279
#
# _framework density 17.996814000000001
#
# number of rings (size 3 to 8) (size 9 to 14) (size 15 to 20)
#    0.000    3.000    0.000    3.500    0.000    2.333 
#    0.000    6.667    0.000    9.000    0.000    8.167 
#    0.000    0.000    0.000    0.000    0.000    0.000 
#
# Total GULP energy -267529.647181 kJ/mol
# GULP energy per Si atom -5573.534316 kJ/mol
# Density = 1.795585 g / cm^3
# Si number density = 17.996814 Si / 1000 Ang^3
#
#
#
# Elastic Constant Matrix: (Units=GPa)
#
#
# Indices 1 2 3 4 5 6 
#
# 1 123.1136 99.5616 2.6217 0.0000 0.0000 0.0000
# 2 99.5616 118.8925 6.0395 0.0000 0.0000 0.0000
# 3 2.6217 6.0395 8.0118 0.0000 0.0000 0.0000
# 4 0.0000 0.0000 0.0000 21.4335 0.0000 0.0000
# 5 0.0000 0.0000 0.0000 0.0000 10.7336 0.0000
# 6 0.0000 0.0000 0.0000 0.0000 0.0000 9.3621
#
#
#
# Elastic Compliance Matrix: (Units=1/GPa)
#
#
# Indices 1 2 3 4 5 6 
#
# 1 0.025661 -0.021901 0.008113 0.000000 0.000000 0.000000
# 2 -0.021901 0.027437 -0.013517 0.000000 0.000000 0.000000
# 3 0.008113 -0.013517 0.132351 0.000000 0.000000 0.000000
# 4 0.000000 0.000000 0.000000 0.046656 0.000000 0.000000
# 5 0.000000 0.000000 0.000000 0.000000 0.093165 0.000000
# 6 0.000000 0.000000 0.000000 0.000000 0.000000 0.106813
#
#
# Mechanical properties :
#
#
# Convention : Reuss Voigt Hill
#
# Bulk Modulus (GPa) = 7.64296 51.82927 29.73612
# Shear Modulus (GPa) = 9.42851 17.75885 13.59368
#
# Velocity S-wave (km/s) = 2.29137 3.14471 2.75132
# Velocity P-wave (km/s) = 3.35508 6.48439 5.16255
#
# Compressibility (1/GPa) = 0.13083934
#
# Stress axis : x y z
#
# Youngs Moduli (GPa) = 38.96982 36.44654 7.55568
#
# Poissons Ratio (x) = 0.79821 -0.06130
# Poissons Ratio (y) = 0.85347 0.10213
# Poissons Ratio (z) = -0.31614 0.49264
#
# Static dielectric constant tensor:
#      x y z
#    x 1.616960 0.000000 0.000000 
#    y 0.000000 1.612980 0.000000 
#    z 0.000000 0.000000 1.644180 
# 
# From -- ./inp_files/12276.got.cif
#   From: 2010.05.17/outbox.cif.g08.bks.cpg/sg65_7_cif.got.tgz:12276.got - 2010.06.03 17:01:31.
