data_PCOD9484519
_publ_section_title
;
Structure prediction by ZEFSAII (Michael W. Deem and Ramdas Pophale) SiO2 
 PCOD9484519
Probable space group: C M M M
;
_chemical_formula_sum "Si O2"
_cell_formula_units_Z 58
_cell_length_a 24.901877
_cell_length_b 7.869807
_cell_length_c 14.525838
_cell_angle_alpha 90.000000
_cell_angle_beta 90.000000
_cell_angle_gamma 90.000000
_cell_volume 2846.671555
_symmetry_space_group_name_H-M "C M M M"
_symmetry_group_IT_number 65
_symmetry_cell_setting 'orthorhombic'
loop_
_space_group_symop_operation_xyz
x,y,z
-x,-y,z
x,-y,-z
-x,y,-z
-x,-y,-z
x,y,-z
-x,y,z
x,-y,z
1/2+x,1/2+y,z
1/2-x,1/2-y,z
1/2+x,1/2-y,-z
1/2-x,1/2+y,-z
1/2-x,1/2-y,-z
1/2+x,1/2+y,-z
1/2-x,1/2+y,z
1/2+x,1/2-y,z
loop_
_atom_site_type_symbol
_atom_site_label
_atom_site_fract_x
_atom_site_fract_y
_atom_site_fract_z
Si Si1 0.500000 0.000000 0.000000
Si Si2 0.935750 0.302717 0.500000
Si Si3 0.500000 0.306942 0.154799
Si Si4 0.412559 0.196111 0.700211
Si Si5 0.312439 0.302945 0.200368
Si Si6 0.687064 0.797781 0.000000
O O1 0.500000 0.846815 0.080836
O O2 0.916631 0.500000 0.500000
O O3 0.918035 0.228315 0.402105
O O4 0.000000 0.302201 0.500000
O O5 0.500000 0.500000 0.116731
O O6 0.551161 0.285820 0.222981
O O7 0.351168 0.202495 0.732487
O O8 0.431247 0.000000 0.696394
O O9 0.315948 0.500000 0.222205
O O10 0.250000 0.250000 0.203187
O O11 0.333718 0.273236 0.096029
O O12 0.750000 0.750000 0.000000
O O13 0.680764 0.000000 0.000000
#
# Coordination Sequence:
#
# PCOD9484519 Si02
#       6
#     2   8   8  16  16   8
#     4  12  26  48  64  96 140 184 214 276 344 390
#     4   9  18  36  69  98 123 164 217 267 328 402
#     4  12  25  44  68  99 134 177 225 271 328 402
#     4  11  21  41  67  97 131 170 215 272 336 388
#     4  11  22  38  59  89 125 168 217 270 325 389
#     4  10  18  33  56  83 112 157 208 256 306 371
#
# _framework density 20.374673999999999
#
# number of rings (size 3 to 8) (size 9 to 14) (size 15 to 20)
#    0.000    1.241    2.759    6.414    0.000    1.103 
#    2.483    6.897    0.000    0.000    0.000    0.000 
#    0.000    0.000    0.000    0.000    0.000    0.000 
#
# Total GULP energy -161666.585649 kJ/mol
# GULP energy per Si atom -5574.709850 kJ/mol
# Density = 2.032830 g / cm^3
# Si number density = 20.374674 Si / 1000 Ang^3
#
#
#
# Elastic Constant Matrix: (Units=GPa)
#
#
# Indices 1 2 3 4 5 6 
#
# 1 75.5599 4.8007 50.8906 0.0000 0.0000 0.0000
# 2 4.8007 118.9548 26.0719 0.0000 0.0000 0.0000
# 3 50.8906 26.0719 170.2153 0.0000 0.0000 0.0000
# 4 0.0000 0.0000 0.0000 6.8890 0.0000 0.0000
# 5 0.0000 0.0000 0.0000 0.0000 1.8661 0.0000
# 6 0.0000 0.0000 0.0000 0.0000 0.0000 24.1452
#
#
#
# Elastic Compliance Matrix: (Units=1/GPa)
#
#
# Indices 1 2 3 4 5 6 
#
# 1 0.016593 0.000432 -0.005027 0.000000 0.000000 0.000000
# 2 0.000432 0.008710 -0.001463 0.000000 0.000000 0.000000
# 3 -0.005027 -0.001463 0.007602 0.000000 0.000000 0.000000
# 4 0.000000 0.000000 0.000000 0.145159 0.000000 0.000000
# 5 0.000000 0.000000 0.000000 0.000000 0.535874 0.000000
# 6 0.000000 0.000000 0.000000 0.000000 0.000000 0.041416
#
#
# Mechanical properties :
#
#
# Convention : Reuss Voigt Hill
#
# Bulk Modulus (GPa) = 48.10398 58.69517 53.39957
# Shear Modulus (GPa) = 6.45662 25.44453 15.95057
#
# Velocity S-wave (km/s) = 1.78208 3.53771 2.80100
# Velocity P-wave (km/s) = 5.28161 6.74964 6.06024
#
# Compressibility (1/GPa) = 0.02078830
#
# Stress axis : x y z
#
# Youngs Moduli (GPa) = 60.26675 114.81283 131.54367
#
# Poissons Ratio (x) = -0.04962 0.66128
# Poissons Ratio (y) = -0.02605 0.19249
# Poissons Ratio (z) = 0.30297 0.16801
#
# Static dielectric constant tensor:
#      x y z
#    x 1.733710 0.000000 0.000000 
#    y 0.000000 1.741980 0.000000 
#    z 0.000000 0.000000 1.742360 
# 
# From -- ./inp_files/31835.got.cif
#   From: 2010.05.17/outbox.cif.g08.bks.cpg/sg65_16_cif.got.tgz:31835.got - 2010.06.03 17:01:31.
