data_PCOD9484471
_publ_section_title
;
Structure prediction by ZEFSAII (Michael W. Deem and Ramdas Pophale) SiO2 
 PCOD9484471
Probable space group: C M M M
;
_chemical_formula_sum "Si O2"
_cell_formula_units_Z 112
_cell_length_a 28.772796
_cell_length_b 13.209794
_cell_length_c 14.861324
_cell_angle_alpha 90.000000
_cell_angle_beta 90.000000
_cell_angle_gamma 90.000000
_cell_volume 5648.532270
_symmetry_space_group_name_H-M "C M M M"
_symmetry_group_IT_number 65
_symmetry_cell_setting 'orthorhombic'
loop_
_space_group_symop_operation_xyz
x,y,z
-x,-y,z
x,-y,-z
-x,y,-z
-x,-y,-z
x,y,-z
-x,y,z
x,-y,z
1/2+x,1/2+y,z
1/2-x,1/2-y,z
1/2+x,1/2-y,-z
1/2-x,1/2+y,-z
1/2-x,1/2-y,-z
1/2+x,1/2+y,-z
1/2-x,1/2+y,z
1/2+x,1/2-y,z
loop_
_atom_site_type_symbol
_atom_site_label
_atom_site_fract_x
_atom_site_fract_y
_atom_site_fract_z
Si Si1 0.700717 0.216157 0.319154
Si Si2 0.722941 0.882535 0.864001
Si Si3 0.108710 0.619952 0.394403
Si Si4 0.052583 0.707769 0.763016
Si Si5 0.822614 0.120877 0.170874
Si Si6 0.121877 0.620272 0.905444
Si Si7 0.073846 0.118393 0.896231
O O1 0.750000 0.250000 0.362530
O O2 0.716428 0.135941 0.242574
O O3 0.660355 0.164898 0.376614
O O4 0.678966 0.310093 0.261088
O O5 0.775443 0.848349 0.882201
O O6 0.674550 0.840629 0.900914
O O7 0.722929 0.000000 0.888450
O O8 0.098234 0.625134 0.500000
O O9 0.106836 0.500000 0.367442
O O10 0.073347 0.688665 0.335970
O O11 0.089862 0.649786 0.824025
O O12 0.052942 0.815955 0.814575
O O13 0.000000 0.668669 0.766738
O O14 0.870390 0.132578 0.116815
O O15 0.818619 0.000000 0.191740
O O16 0.125172 0.500000 0.904125
O O17 0.100313 0.652014 0.000000
O O18 0.063534 0.000000 0.883888
O O19 0.060551 0.143122 0.000000
#
# Coordination Sequence:
#
# PCOD9484471 Si02
#       7
#    16  16  16  16  16  16  16
#     4  10  18  32  58  88 122 161 196 237 288 360
#     4   9  16  28  50  80 117 159 198 234 283 350
#     4  11  24  43  68  95 122 154 198 253 311 371
#     4  12  25  42  63  83 113 156 201 258 321 370
#     4   9  17  30  53  86 121 159 201 240 283 342
#     4  10  20  33  52  82 120 159 199 241 292 362
#     4  10  21  38  62  93 127 163 207 253 296 354
#
# _framework density 19.828158999999999
#
# number of rings (size 3 to 8) (size 9 to 14) (size 15 to 20)
#    0.000    1.857    2.857    1.286    0.000    4.286 
#    0.000    5.000    0.000    6.000    0.000    1.000 
#    0.000    0.000    0.000    0.000    0.000    0.000 
#
# Total GULP energy -312072.314659 kJ/mol
# GULP energy per Si atom -5572.719905 kJ/mol
# Density = 1.978303 g / cm^3
# Si number density = 19.828159 Si / 1000 Ang^3
#
#
#
# Elastic Constant Matrix: (Units=GPa)
#
#
# Indices 1 2 3 4 5 6 
#
# 1 115.6865 23.0526 37.6941 0.0000 0.0000 0.0000
# 2 23.0526 103.4166 31.9466 0.0000 0.0000 0.0000
# 3 37.6941 31.9466 94.6363 0.0000 0.0000 0.0000
# 4 0.0000 0.0000 0.0000 28.9152 0.0000 0.0000
# 5 0.0000 0.0000 0.0000 0.0000 -39.2802 0.0000
# 6 0.0000 0.0000 0.0000 0.0000 0.0000 11.6965
#
#
#
# Elastic Compliance Matrix: (Units=1/GPa)
#
#
# Indices 1 2 3 4 5 6 
#
# 1 0.010048 -0.001120 -0.003624 0.000000 0.000000 0.000000
# 2 -0.001120 0.010920 -0.003240 0.000000 0.000000 0.000000
# 3 -0.003624 -0.003240 0.013104 0.000000 0.000000 0.000000
# 4 0.000000 0.000000 0.000000 0.034584 0.000000 0.000000
# 5 0.000000 0.000000 0.000000 0.000000 -0.025458 0.000000
# 6 0.000000 0.000000 0.000000 0.000000 0.000000 0.085496
#
#
# Mechanical properties :
#
#
# Convention : Reuss Voigt Hill
#
# Bulk Modulus (GPa) = 55.23819 55.45844 55.34831
# Shear Modulus (GPa) = 33.17908 15.00271 24.09090
#
# Velocity S-wave (km/s) = 4.09508 2.75369 3.48944
# Velocity P-wave (km/s) = 7.09073 6.17581 6.64903
#
# Compressibility (1/GPa) = 0.01810342
#
# Stress axis : x y z
#
# Youngs Moduli (GPa) = 99.52118 91.57278 76.31241
#
# Poissons Ratio (x) = 0.10259 0.27656
# Poissons Ratio (y) = 0.11150 0.24726
# Poissons Ratio (z) = 0.36067 0.29671
#
# Static dielectric constant tensor:
#      x y z
#    x 1.723280 0.000000 0.000000 
#    y 0.000000 1.791310 0.000000 
#    z 0.000000 0.000000 1.689770 
# 
# From -- ./inp_files/47968.got.cif
#   From: 2010.05.17/outbox.cif.g08.bks.cpg/sg65_24_cif.got.tgz:47968.got - 2010.06.03 17:01:31.
