data_PCOD9484651
_publ_section_title
;
Structure prediction by ZEFSAII (Michael W. Deem and Ramdas Pophale) SiO2 
 PCOD9484651
Probable space group: C M M M
;
_chemical_formula_sum "Si O2"
_cell_formula_units_Z 104
_cell_length_a 27.096070
_cell_length_b 9.266168
_cell_length_c 26.687348
_cell_angle_alpha 90.000000
_cell_angle_beta 90.000000
_cell_angle_gamma 90.000000
_cell_volume 6700.572249
_symmetry_space_group_name_H-M "C M M M"
_symmetry_group_IT_number 65
_symmetry_cell_setting 'orthorhombic'
loop_
_space_group_symop_operation_xyz
x,y,z
-x,-y,z
x,-y,-z
-x,y,-z
-x,-y,-z
x,y,-z
-x,y,z
x,-y,z
1/2+x,1/2+y,z
1/2-x,1/2-y,z
1/2+x,1/2-y,-z
1/2-x,1/2+y,-z
1/2-x,1/2-y,-z
1/2+x,1/2+y,-z
1/2-x,1/2+y,z
1/2+x,1/2-y,z
loop_
_atom_site_type_symbol
_atom_site_label
_atom_site_fract_x
_atom_site_fract_y
_atom_site_fract_z
Si Si1 0.597525 0.831674 0.702801
Si Si2 0.298690 0.829446 0.649376
Si Si3 0.347769 0.328940 0.442616
Si Si4 0.943393 0.671558 0.406667
Si Si5 0.940609 0.168820 0.799136
Si Si6 0.060094 0.666356 0.100111
Si Si7 0.439833 0.333396 0.000000
O O1 0.654039 0.811548 0.685397
O O2 0.565516 0.802480 0.652690
O O3 0.582796 0.734051 0.749178
O O4 0.589950 0.000000 0.715972
O O5 0.250000 0.750000 0.668374
O O6 0.314211 0.756227 0.596869
O O7 0.290415 0.000000 0.642582
O O8 0.332250 0.307047 0.500000
O O9 0.347247 0.500000 0.431766
O O10 0.402899 0.265467 0.435219
O O11 0.933844 0.500000 0.414943
O O12 0.000000 0.701904 0.420090
O O13 0.924620 0.254649 0.848852
O O14 0.000000 0.183801 0.795018
O O15 0.929380 0.000000 0.804521
O O16 0.075842 0.500000 0.099058
O O17 0.000000 0.667479 0.099740
O O18 0.076024 0.751212 0.050329
O O19 0.424322 0.500000 0.000000
O O20 0.500000 0.332562 0.000000
#
# Coordination Sequence:
#
# PCOD9484651 Si02
#       7
#    16  16  16  16  16  16   8
#     4   9  18  32  48  66  88 114 144 178 217 263
#     4  10  21  37  56  74  91 113 142 177 220 270
#     4  10  21  35  50  70  95 120 147 180 217 259
#     4   9  18  32  49  68  91 121 154 185 219 260
#     4  10  19  28  40  62  90 119 152 188 224 259
#     4   9  16  25  37  53  76 111 153 191 226 264
#     4   9  15  23  35  51  75 107 146 193 234 265
#
# _framework density 15.521063
#
# number of rings (size 3 to 8) (size 9 to 14) (size 15 to 20)
#    0.000    2.538    0.000    3.462    0.000    9.538 
#    0.000    1.538    0.000    0.000    0.000    0.000 
#    0.000    0.000    0.000    0.692    0.000    9.462 
#
# Total GULP energy -290009.575623 kJ/mol
# GULP energy per Si atom -5577.107224 kJ/mol
# Density = 1.548574 g / cm^3
# Si number density = 15.521063 Si / 1000 Ang^3
#
#
#
# Elastic Constant Matrix: (Units=GPa)
#
#
# Indices 1 2 3 4 5 6 
#
# 1 23.7729 17.3667 -4.4882 0.0000 0.0000 0.0000
# 2 17.3667 111.4384 61.3511 0.0000 0.0000 0.0000
# 3 -4.4882 61.3511 75.2427 0.0000 0.0000 0.0000
# 4 0.0000 0.0000 0.0000 29.3332 0.0000 0.0000
# 5 0.0000 0.0000 0.0000 0.0000 5.0889 0.0000
# 6 0.0000 0.0000 0.0000 0.0000 0.0000 22.1433
#
#
#
# Elastic Compliance Matrix: (Units=1/GPa)
#
#
# Indices 1 2 3 4 5 6 
#
# 1 0.061326 -0.020996 0.020778 0.000000 0.000000 0.000000
# 2 -0.020996 0.023471 -0.020390 0.000000 0.000000 0.000000
# 3 0.020778 -0.020390 0.031156 0.000000 0.000000 0.000000
# 4 0.000000 0.000000 0.000000 0.034091 0.000000 0.000000
# 5 0.000000 0.000000 0.000000 0.000000 0.196504 0.000000
# 6 0.000000 0.000000 0.000000 0.000000 0.000000 0.045160
#
#
# Mechanical properties :
#
#
# Convention : Reuss Voigt Hill
#
# Bulk Modulus (GPa) = 13.38059 39.87927 26.62993
# Shear Modulus (GPa) = 10.92091 20.39471 15.65781
#
# Velocity S-wave (km/s) = 2.65546 3.62885 3.17962
# Velocity P-wave (km/s) = 4.24754 6.58084 5.53846
#
# Compressibility (1/GPa) = 0.07473511
#
# Stress axis : x y z
#
# Youngs Moduli (GPa) = 16.30641 42.60524 32.09705
#
# Poissons Ratio (x) = 0.89454 -0.66690
# Poissons Ratio (y) = 0.34237 0.65447
# Poissons Ratio (z) = -0.33881 0.86874
#
# Static dielectric constant tensor:
#      x y z
#    x 1.503250 0.000000 0.000000 
#    y 0.000000 1.517730 0.000000 
#    z 0.000000 0.000000 1.503620 
# 
# From -- ./inp_files/68153.got.cif
#   From: 2010.05.17/outbox.cif.g08.bks.cpg/sg65_35_cif.got.tgz:68153.got - 2010.06.03 17:01:31.
