data_PCOD9484306
_publ_section_title
;
Structure prediction by ZEFSAII (Michael W. Deem and Ramdas Pophale) SiO2 
 PCOD9484306
Probable space group: C M M M
;
_chemical_formula_sum "Si O2"
_cell_formula_units_Z 104
_cell_length_a 8.610325
_cell_length_b 29.616357
_cell_length_c 23.970141
_cell_angle_alpha 90.000000
_cell_angle_beta 90.000000
_cell_angle_gamma 90.000000
_cell_volume 6112.540780
_symmetry_space_group_name_H-M "C M M M"
_symmetry_group_IT_number 65
_symmetry_cell_setting 'orthorhombic'
loop_
_space_group_symop_operation_xyz
x,y,z
-x,-y,z
x,-y,-z
-x,y,-z
-x,-y,-z
x,y,-z
-x,y,z
x,-y,z
1/2+x,1/2+y,z
1/2-x,1/2-y,z
1/2+x,1/2-y,-z
1/2-x,1/2+y,-z
1/2-x,1/2-y,-z
1/2+x,1/2+y,-z
1/2-x,1/2+y,z
1/2+x,1/2-y,z
loop_
_atom_site_type_symbol
_atom_site_label
_atom_site_fract_x
_atom_site_fract_y
_atom_site_fract_z
Si Si1 0.687953 0.145601 0.938089
Si Si2 0.185266 0.198801 0.500000
Si Si3 0.187302 0.549904 0.106634
Si Si4 0.814190 0.199599 0.832540
Si Si5 0.687198 0.550354 0.232077
Si Si6 0.315264 0.800955 0.616485
Si Si7 0.187584 0.144633 0.279109
O O1 0.500000 0.146909 0.935759
O O2 0.737780 0.093601 0.927828
O O3 0.752288 0.175726 0.888205
O O4 0.736351 0.160404 0.000000
O O5 0.250000 0.250000 0.500000
O O6 0.247629 0.179705 0.441668
O O7 0.000000 0.199298 0.500000
O O8 0.240712 0.500000 0.087626
O O9 0.242311 0.555898 0.170368
O O10 0.000000 0.549526 0.105618
O O11 0.750000 0.250000 0.827866
O O12 0.769310 0.170798 0.777868
O O13 0.000000 0.200799 0.834680
O O14 0.500000 0.552210 0.226427
O O15 0.729479 0.500000 0.252209
O O16 0.733335 0.592385 0.270387
O O17 0.500000 0.798002 0.612346
O O18 0.250000 0.750000 0.624216
O O19 0.264147 0.831220 0.668414
O O20 0.000000 0.147125 0.284984
#
# Coordination Sequence:
#
# PCOD9484306 Si02
#       7
#    16   8  16  16  16  16  16
#     4  10  21  36  53  73  98 129 166 207 253 308
#     4  10  18  32  52  74 107 146 181 218 254 295
#     4   9  17  30  50  75 101 128 159 198 248 306
#     4  11  23  38  55  74  97 129 166 212 259 307
#     4   9  17  31  52  76 103 133 164 202 250 304
#     4  11  21  33  51  77 109 145 181 216 254 298
#     4  10  20  34  52  78 106 134 170 209 254 303
#
# _framework density 17.014201
#
# number of rings (size 3 to 8) (size 9 to 14) (size 15 to 20)
#    0.000    2.000    1.538    3.923    0.000    4.000 
#    0.000    1.538    0.000    0.000    0.000    3.769 
#    0.000    4.308    0.000    0.000    0.000    0.000 
#
# Total GULP energy -290152.931658 kJ/mol
# GULP energy per Si atom -5579.864070 kJ/mol
# Density = 1.697548 g / cm^3
# Si number density = 17.014201 Si / 1000 Ang^3
#
#
#
# Elastic Constant Matrix: (Units=GPa)
#
#
# Indices 1 2 3 4 5 6 
#
# 1 52.3446 34.0324 45.2545 0.0000 0.0000 0.0000
# 2 34.0324 108.0107 64.3751 0.0000 0.0000 0.0000
# 3 45.2545 64.3751 136.7822 0.0000 0.0000 0.0000
# 4 0.0000 0.0000 0.0000 19.4503 0.0000 0.0000
# 5 0.0000 0.0000 0.0000 0.0000 25.7819 0.0000
# 6 0.0000 0.0000 0.0000 0.0000 0.0000 11.2648
#
#
#
# Elastic Compliance Matrix: (Units=1/GPa)
#
#
# Indices 1 2 3 4 5 6 
#
# 1 0.028340 -0.004644 -0.007191 0.000000 0.000000 0.000000
# 2 -0.004644 0.013629 -0.004878 0.000000 0.000000 0.000000
# 3 -0.007191 -0.004878 0.011986 0.000000 0.000000 0.000000
# 4 0.000000 0.000000 0.000000 0.051413 0.000000 0.000000
# 5 0.000000 0.000000 0.000000 0.000000 0.038787 0.000000
# 6 0.000000 0.000000 0.000000 0.000000 0.000000 0.088772
#
#
# Mechanical properties :
#
#
# Convention : Reuss Voigt Hill
#
# Bulk Modulus (GPa) = 48.70971 64.94017 56.82494
# Shear Modulus (GPa) = 18.30197 21.53111 19.91654
#
# Velocity S-wave (km/s) = 3.28333 3.56122 3.42509
# Velocity P-wave (km/s) = 6.56237 7.42703 7.00805
#
# Compressibility (1/GPa) = 0.02052979
#
# Stress axis : x y z
#
# Youngs Moduli (GPa) = 35.28555 73.37443 83.43279
#
# Poissons Ratio (x) = 0.34073 0.59995
# Poissons Ratio (y) = 0.16386 0.40697
# Poissons Ratio (z) = 0.25373 0.35791
#
# Static dielectric constant tensor:
#      x y z
#    x 1.505480 0.000000 0.000000 
#    y 0.000000 1.578660 0.000000 
#    z 0.000000 0.000000 1.566190 
# 
# From -- ./inp_files/60788.got.cif
#   From: 2010.05.17/outbox.cif.g08.bks.cpg/sg65_31_cif.got.tgz:60788.got - 2010.06.03 17:01:31.
