data_PCOD9484382
_publ_section_title
;
Structure prediction by ZEFSAII (Michael W. Deem and Ramdas Pophale) SiO2 
 PCOD9484382
Probable space group: C M M M
;
_chemical_formula_sum "Si O2"
_cell_formula_units_Z 104
_cell_length_a 27.102307
_cell_length_b 22.570553
_cell_length_c 7.389022
_cell_angle_alpha 90.000000
_cell_angle_beta 90.000000
_cell_angle_gamma 90.000000
_cell_volume 4519.968622
_symmetry_space_group_name_H-M "C M M M"
_symmetry_group_IT_number 65
_symmetry_cell_setting 'orthorhombic'
loop_
_space_group_symop_operation_xyz
x,y,z
-x,-y,z
x,-y,-z
-x,y,-z
-x,-y,-z
x,y,-z
-x,y,z
x,-y,z
1/2+x,1/2+y,z
1/2-x,1/2-y,z
1/2+x,1/2-y,-z
1/2-x,1/2+y,-z
1/2-x,1/2-y,-z
1/2+x,1/2+y,-z
1/2-x,1/2+y,z
1/2+x,1/2-y,z
loop_
_atom_site_type_symbol
_atom_site_label
_atom_site_fract_x
_atom_site_fract_y
_atom_site_fract_z
Si Si1 0.873448 0.101397 0.786803
Si Si2 0.721659 0.192263 0.790483
Si Si3 0.944522 0.000000 0.221827
Si Si4 0.554305 0.704432 0.283038
Si Si5 0.263748 0.567983 0.778800
Si Si6 0.609299 0.182267 0.281031
Si Si7 0.443127 0.933774 0.720436
O O1 0.898344 0.164927 0.764781
O O2 0.819260 0.085878 0.718453
O O3 0.914333 0.056572 0.715324
O O4 0.869252 0.090295 0.000000
O O5 0.750000 0.250000 0.712068
O O6 0.732283 0.125584 0.718423
O O7 0.663250 0.201381 0.781370
O O8 0.738172 0.189487 0.000000
O O9 0.000000 0.000000 0.285080
O O10 0.945809 0.000000 0.000000
O O11 0.551660 0.703468 0.500000
O O12 0.500000 0.684906 0.214996
O O13 0.567738 0.770732 0.225323
O O14 0.252111 0.500000 0.720217
O O15 0.261657 0.565965 0.000000
O O16 0.610656 0.182157 0.500000
O O17 0.593443 0.117315 0.218198
O O18 0.442753 0.933365 0.500000
O O19 0.500000 0.922239 0.773257
O O20 0.429567 0.000000 0.778646
#
# Coordination Sequence:
#
# PCOD9484382 Si02
#       7
#    16  16   8  16  16  16  16
#     4  10  18  32  54  77 100 129 171 215 250 289
#     4  10  21  36  53  75 102 132 171 216 259 304
#     4   9  16  26  45  75 103 123 155 207 254 285
#     4  10  21  35  50  72 105 141 171 202 250 310
#     4   9  17  32  54  77 101 134 172 209 254 308
#     4  10  20  34  53  76 102 132 168 211 256 303
#     4   8  14  27  50  78 104 131 165 204 247 300
#
# _framework density 23.009008999999999
#
# number of rings (size 3 to 8) (size 9 to 14) (size 15 to 20)
#    0.000    2.538    0.769    2.308    0.000    5.538 
#    0.000    1.154    0.000    3.692    0.000    1.077 
#    0.000    0.000    0.000    0.000    0.000    0.000 
#
# Total GULP energy -290200.937848 kJ/mol
# GULP energy per Si atom -5580.787266 kJ/mol
# Density = 2.295664 g / cm^3
# Si number density = 23.009009 Si / 1000 Ang^3
#
#
#
# Elastic Constant Matrix: (Units=GPa)
#
#
# Indices 1 2 3 4 5 6 
#
# 1 50.1437 21.7103 -7.2248 0.0000 0.0000 0.0000
# 2 21.7103 137.2047 -1.3425 0.0000 0.0000 0.0000
# 3 -7.2248 -1.3425 74.5222 0.0000 0.0000 0.0000
# 4 0.0000 0.0000 0.0000 13.1305 0.0000 0.0000
# 5 0.0000 0.0000 0.0000 0.0000 1.0702 0.0000
# 6 0.0000 0.0000 0.0000 0.0000 0.0000 47.4482
#
#
#
# Elastic Compliance Matrix: (Units=1/GPa)
#
#
# Indices 1 2 3 4 5 6 
#
# 1 0.021716 -0.003416 0.002044 0.000000 0.000000 0.000000
# 2 -0.003416 0.007827 -0.000190 0.000000 0.000000 0.000000
# 3 0.002044 -0.000190 0.013614 0.000000 0.000000 0.000000
# 4 0.000000 0.000000 0.000000 0.076158 0.000000 0.000000
# 5 0.000000 0.000000 0.000000 0.000000 0.934408 0.000000
# 6 0.000000 0.000000 0.000000 0.000000 0.000000 0.021076
#
#
# Mechanical properties :
#
#
# Convention : Reuss Voigt Hill
#
# Bulk Modulus (GPa) = 24.98024 32.01740 28.49882
# Shear Modulus (GPa) = 4.58183 28.91163 16.74673
#
# Velocity S-wave (km/s) = 1.41267 3.54861 2.70077
# Velocity P-wave (km/s) = 3.67983 5.54396 4.70514
#
# Compressibility (1/GPa) = 0.04003164
#
# Stress axis : x y z
#
# Youngs Moduli (GPa) = 46.04849 127.76162 73.45632
#
# Poissons Ratio (x) = 0.43646 -0.15013
# Poissons Ratio (y) = 0.15731 0.01397
# Poissons Ratio (z) = -0.09411 0.02430
#
# Static dielectric constant tensor:
#      x y z
#    x 1.823350 0.000000 0.000000 
#    y 0.000000 1.901670 0.000000 
#    z 0.000000 0.000000 1.943540 
# 
# From -- ./inp_files/16521.got.cif
#   From: 2010.05.17/outbox.cif.g08.bks.cpg/sg65_9_cif.got.tgz:16521.got - 2010.06.03 17:01:31.
