data_PCOD9484645
_publ_section_title
;
Structure prediction by ZEFSAII (Michael W. Deem and Ramdas Pophale) SiO2 
 PCOD9484645
Probable space group: C M M M
;
_chemical_formula_sum "Si O2"
_cell_formula_units_Z 104
_cell_length_a 17.183035
_cell_length_b 27.292130
_cell_length_c 16.812315
_cell_angle_alpha 90.000000
_cell_angle_beta 90.000000
_cell_angle_gamma 90.000000
_cell_volume 7884.330563
_symmetry_space_group_name_H-M "C M M M"
_symmetry_group_IT_number 65
_symmetry_cell_setting 'orthorhombic'
loop_
_space_group_symop_operation_xyz
x,y,z
-x,-y,z
x,-y,-z
-x,y,-z
-x,-y,-z
x,y,-z
-x,y,z
x,-y,z
1/2+x,1/2+y,z
1/2-x,1/2-y,z
1/2+x,1/2-y,-z
1/2-x,1/2+y,-z
1/2-x,1/2-y,-z
1/2+x,1/2+y,-z
1/2-x,1/2+y,z
1/2+x,1/2-y,z
loop_
_atom_site_type_symbol
_atom_site_label
_atom_site_fract_x
_atom_site_fract_y
_atom_site_fract_z
Si Si1 0.091776 0.440281 0.823885
Si Si2 0.821880 0.590478 0.669174
Si Si3 0.830630 0.774787 0.596007
Si Si4 0.000000 0.943922 0.403831
Si Si5 0.412207 0.000000 0.405567
Si Si6 0.159568 0.888486 0.403018
Si Si7 0.588259 0.178567 0.595203
Si Si8 0.094101 0.444118 0.000000
O O1 0.096329 0.500000 0.821312
O O2 0.150321 0.418220 0.759320
O O3 0.113487 0.423162 0.913393
O O4 0.000000 0.428202 0.808357
O O5 0.867656 0.548066 0.622361
O O6 0.731832 0.588151 0.644310
O O7 0.852961 0.642695 0.638768
O O8 0.826694 0.776461 0.500000
O O9 0.750000 0.750000 0.623747
O O10 0.843291 0.830839 0.619451
O O11 0.896507 0.735175 0.616383
O O12 0.078729 0.915083 0.382769
O O13 0.000000 0.945830 0.500000
O O14 0.000000 0.000000 0.374560
O O15 0.500000 0.000000 0.372352
O O16 0.416325 0.000000 0.500000
O O17 0.171942 0.892131 0.500000
O O18 0.600645 0.173706 0.500000
O O19 0.500000 0.163982 0.612848
O O20 0.123750 0.500000 0.000000
O O21 0.000000 0.446706 0.000000
#
# Coordination Sequence:
#
# PCOD9484645 Si02
#       8
#    16  16  16   8   8  16  16   8
#     4   9  16  27  41  59  83 111 141 169 198 241
#     4  12  20  28  41  59  84 113 142 172 205 250
#     4   9  16  29  43  56  74 101 142 184 217 250
#     4   9  20  34  46  58  74 101 147 198 230 259
#     4  11  22  30  36  50  82 122 152 167 184 228
#     4  10  20  32  45  59  78 108 146 186 227 255
#     4  10  19  28  40  58  82 110 141 175 212 248
#     4   7  12  24  42  58  76 106 139 169 201 235
#
# _framework density 13.190720000000001
#
# number of rings (size 3 to 8) (size 9 to 14) (size 15 to 20)
#    0.000    2.231    2.308    3.692    2.154    1.231 
#    0.000    0.000    0.000    0.000    0.000    0.000 
#    0.000    3.077    0.000    3.538    0.000    0.000 
#
# Total GULP energy -289524.454872 kJ/mol
# GULP energy per Si atom -5567.777978 kJ/mol
# Density = 1.316070 g / cm^3
# Si number density = 13.190720 Si / 1000 Ang^3
#
#
#
# Elastic Constant Matrix: (Units=GPa)
#
#
# Indices 1 2 3 4 5 6 
#
# 1 100.8274 43.7467 37.0499 0.0000 0.0000 0.0000
# 2 43.7467 76.1691 15.1361 0.0000 0.0000 0.0000
# 3 37.0499 15.1361 62.0255 0.0000 0.0000 0.0000
# 4 0.0000 0.0000 0.0000 169.3961 0.0000 0.0000
# 5 0.0000 0.0000 0.0000 0.0000 12.5528 0.0000
# 6 0.0000 0.0000 0.0000 0.0000 0.0000 20.9155
#
#
#
# Elastic Compliance Matrix: (Units=1/GPa)
#
#
# Indices 1 2 3 4 5 6 
#
# 1 0.016109 -0.007714 -0.007740 0.000000 0.000000 0.000000
# 2 -0.007714 0.017492 0.000339 0.000000 0.000000 0.000000
# 3 -0.007740 0.000339 0.020663 0.000000 0.000000 0.000000
# 4 0.000000 0.000000 0.000000 0.005903 0.000000 0.000000
# 5 0.000000 0.000000 0.000000 0.000000 0.079663 0.000000
# 6 0.000000 0.000000 0.000000 0.000000 0.000000 0.047812
#
#
# Mechanical properties :
#
#
# Convention : Reuss Voigt Hill
#
# Bulk Modulus (GPa) = 41.60714 47.87638 44.74176
# Shear Modulus (GPa) = 22.13541 50.11216 36.12379
#
# Velocity S-wave (km/s) = 4.10091 6.17033 5.23882
# Velocity P-wave (km/s) = 7.35082 9.33479 8.40157
#
# Compressibility (1/GPa) = 0.02403434
#
# Stress axis : x y z
#
# Youngs Moduli (GPa) = 62.07728 57.17015 48.39581
#
# Poissons Ratio (x) = 0.44101 0.37458
# Poissons Ratio (y) = 0.47886 -0.01642
# Poissons Ratio (z) = 0.48048 -0.01940
#
# Static dielectric constant tensor:
#      x y z
#    x 1.446890 0.000000 0.000000 
#    y 0.000000 1.447570 0.000000 
#    z 0.000000 0.000000 1.428920 
# 
# From -- ./inp_files/43137.got.cif
#   From: 2010.05.17/outbox.cif.g08.bks.cpg/sg65_22_cif.got.tgz:43137.got - 2010.06.03 17:01:31.
