data_PCOD9484696
_publ_section_title
;
Structure prediction by ZEFSAII (Michael W. Deem and Ramdas Pophale) SiO2 
 PCOD9484696
Probable space group: C M M M
;
_chemical_formula_sum "Si O2"
_cell_formula_units_Z 88
_cell_length_a 28.003327
_cell_length_b 14.429193
_cell_length_c 10.213215
_cell_angle_alpha 90.000000
_cell_angle_beta 90.000000
_cell_angle_gamma 90.000000
_cell_volume 4126.806906
_symmetry_space_group_name_H-M "C M M M"
_symmetry_group_IT_number 65
_symmetry_cell_setting 'orthorhombic'
loop_
_space_group_symop_operation_xyz
x,y,z
-x,-y,z
x,-y,-z
-x,y,-z
-x,-y,-z
x,y,-z
-x,y,z
x,-y,z
1/2+x,1/2+y,z
1/2-x,1/2-y,z
1/2+x,1/2-y,-z
1/2-x,1/2+y,-z
1/2-x,1/2-y,-z
1/2+x,1/2+y,-z
1/2-x,1/2+y,z
1/2+x,1/2-y,z
loop_
_atom_site_type_symbol
_atom_site_label
_atom_site_fract_x
_atom_site_fract_y
_atom_site_fract_z
Si Si1 0.658161 0.150573 0.651519
Si Si2 0.051223 0.693194 0.651097
Si Si3 0.922020 0.103575 0.288638
Si Si4 0.260047 0.138269 0.849210
Si Si5 0.184102 0.132559 0.641250
Si Si6 0.554027 0.610641 0.000000
O O1 0.660750 0.114429 0.500000
O O2 0.602687 0.155399 0.697719
O O3 0.693268 0.112684 0.763341
O O4 0.676656 0.256652 0.641643
O O5 0.049971 0.663781 0.500000
O O6 0.053764 0.805749 0.651612
O O7 0.000000 0.666515 0.713082
O O8 0.869429 0.097197 0.345883
O O9 0.944008 0.000000 0.300993
O O10 0.919823 0.131032 0.134888
O O11 0.250000 0.250000 0.852889
O O12 0.215746 0.103340 0.763009
O O13 0.262390 0.108296 0.000000
O O14 0.205543 0.107661 0.500000
O O15 0.549414 0.500000 0.000000
O O16 0.500000 0.649797 0.000000
#
# Coordination Sequence:
#
# PCOD9484696 Si02
#       6
#    16  16  16  16  16   8
#     4   8  14  26  40  54  75 100 123 154 198 243
#     4   9  17  28  41  57  76 101 135 172 208 242
#     4  10  19  29  41  54  75 104 138 175 206 237
#     4   9  16  25  40  59  76  93 118 155 196 243
#     4   9  17  27  40  58  77  98 124 157 201 245
#     4   9  18  30  40  50  67  98 138 174 210 245
#
# _framework density 21.323992000000001
#
# number of rings (size 3 to 8) (size 9 to 14) (size 15 to 20)
#    0.000    3.000    0.000    2.727    1.273    4.727 
#    4.909    0.909    0.000    0.000    0.000    0.000 
#    0.000    0.000    0.000    0.000    0.000    0.909 
#
# Total GULP energy -244946.208531 kJ/mol
# GULP energy per Si atom -5566.959285 kJ/mol
# Density = 2.127546 g / cm^3
# Si number density = 21.323992 Si / 1000 Ang^3
#
#
#
# Elastic Constant Matrix: (Units=GPa)
#
#
# Indices 1 2 3 4 5 6 
#
# 1 152.3699 -2.4294 63.7846 0.0000 0.0000 0.0000
# 2 -2.4294 37.1394 3.1098 0.0000 0.0000 0.0000
# 3 63.7846 3.1098 147.3639 0.0000 0.0000 0.0000
# 4 0.0000 0.0000 0.0000 -31.8773 0.0000 0.0000
# 5 0.0000 0.0000 0.0000 0.0000 -3.8369 0.0000
# 6 0.0000 0.0000 0.0000 0.0000 0.0000 8.1516
#
#
#
# Elastic Compliance Matrix: (Units=1/GPa)
#
#
# Indices 1 2 3 4 5 6 
#
# 1 0.008040 0.000819 -0.003497 0.000000 0.000000 0.000000
# 2 0.000819 0.027057 -0.000925 0.000000 0.000000 0.000000
# 3 -0.003497 -0.000925 0.008319 0.000000 0.000000 0.000000
# 4 0.000000 0.000000 0.000000 -0.031370 0.000000 0.000000
# 5 0.000000 0.000000 0.000000 0.000000 -0.260624 0.000000
# 6 0.000000 0.000000 0.000000 0.000000 0.000000 0.122676
#
#
# Mechanical properties :
#
#
# Convention : Reuss Voigt Hill
#
# Bulk Modulus (GPa) = 27.61815 51.75591 39.68703
# Shear Modulus (GPa) = -46.89319 12.64801 -17.12259
#
# Velocity S-wave (km/s) = -4.69452 2.43808 -2.83675
# Velocity P-wave (km/s) = 4.05030 5.67887 2.81466
#
# Compressibility (1/GPa) = 0.03620807
#
# Stress axis : x y z
#
# Youngs Moduli (GPa) = 124.37714 36.95952 120.20362
#
# Poissons Ratio (x) = -0.03026 0.42039
# Poissons Ratio (y) = -0.10184 0.11123
# Poissons Ratio (z) = 0.43499 0.03420
#
# Static dielectric constant tensor:
#      x y z
#    x 1.796560 0.000000 0.000000 
#    y 0.000000 1.809360 0.000000 
#    z 0.000000 0.000000 1.793400 
# 
# From -- ./inp_files/18497.got.cif
#   From: 2010.05.17/outbox.cif.g08.bks.cpg/sg65_10_cif.got.tgz:18497.got - 2010.06.03 17:01:31.
