data_PCOD9484941
_publ_section_title
;
Structure prediction by ZEFSAII (Michael W. Deem and Ramdas Pophale) SiO2 
 PCOD9484941
Probable space group: C M M M
;
_chemical_formula_sum "Si O2"
_cell_formula_units_Z 104
_cell_length_a 7.632375
_cell_length_b 28.092600
_cell_length_c 27.954521
_cell_angle_alpha 90.000000
_cell_angle_beta 90.000000
_cell_angle_gamma 90.000000
_cell_volume 5993.819921
_symmetry_space_group_name_H-M "C M M M"
_symmetry_group_IT_number 65
_symmetry_cell_setting 'orthorhombic'
loop_
_space_group_symop_operation_xyz
x,y,z
-x,-y,z
x,-y,-z
-x,y,-z
-x,-y,-z
x,y,-z
-x,y,z
x,-y,z
1/2+x,1/2+y,z
1/2-x,1/2-y,z
1/2+x,1/2-y,-z
1/2-x,1/2+y,-z
1/2-x,1/2-y,-z
1/2+x,1/2+y,-z
1/2-x,1/2+y,z
1/2+x,1/2-y,z
loop_
_atom_site_type_symbol
_atom_site_label
_atom_site_fract_x
_atom_site_fract_y
_atom_site_fract_z
Si Si1 0.209142 0.604045 0.097278
Si Si2 0.208435 0.695866 0.151916
Si Si3 0.207354 0.854589 0.751159
Si Si4 0.211670 0.946956 0.804896
Si Si5 0.284842 0.944684 0.000000
Si Si6 0.789536 0.193515 0.448564
Si Si7 0.288707 0.693873 0.344384
O O1 0.277511 0.655402 0.115484
O O2 0.242676 0.568229 0.141131
O O3 0.275764 0.582572 0.047701
O O4 0.000000 0.608811 0.091584
O O5 0.250000 0.750000 0.139213
O O6 0.272682 0.682382 0.205068
O O7 0.000000 0.690929 0.153405
O O8 0.279033 0.904837 0.770564
O O9 0.280401 0.834217 0.701683
O O10 0.000000 0.861276 0.743872
O O11 0.000000 0.947109 0.801758
O O12 0.275130 0.000000 0.794098
O O13 0.500000 0.944760 0.000000
O O14 0.231406 0.000000 0.000000
O O15 0.723120 0.174662 0.500000
O O16 0.750000 0.250000 0.448591
O O17 0.723931 0.176626 0.396674
O O18 0.000000 0.187674 0.448728
O O19 0.500000 0.689662 0.344852
O O20 0.250000 0.750000 0.339336
#
# Coordination Sequence:
#
# PCOD9484941 Si02
#       7
#    16  16  16  16   8  16  16
#     4   9  18  31  47  66  84 104 132 162 191 229
#     4  10  19  30  44  61  82 108 136 163 192 227
#     4   9  17  28  41  58  80 104 132 164 195 231
#     4   9  17  29  44  61  82 106 129 157 196 237
#     4   9  16  28  48  69  85 101 125 161 200 233
#     4   8  13  21  32  46  66  93 124 155 187 223
#     4   9  16  24  35  52  74 100 128 158 190 224
#
# _framework density 17.351205
#
# number of rings (size 3 to 8) (size 9 to 14) (size 15 to 20)
#    0.000    3.000    0.000    1.385    0.000    3.385 
#    0.000    0.769    0.000    1.385    0.000    0.000 
#    0.000    0.615    0.000    8.615    0.000    0.000 
#
# Total GULP energy -289618.947101 kJ/mol
# GULP energy per Si atom -5569.595137 kJ/mol
# Density = 1.731171 g / cm^3
# Si number density = 17.351205 Si / 1000 Ang^3
#
#
#
# Elastic Constant Matrix: (Units=GPa)
#
#
# Indices 1 2 3 4 5 6 
#
# 1 31.2145 0.3682 8.7495 0.0000 0.0000 0.0000
# 2 0.3682 104.9681 77.3886 0.0000 0.0000 0.0000
# 3 8.7495 77.3886 187.8774 0.0000 0.0000 0.0000
# 4 0.0000 0.0000 0.0000 16.9893 0.0000 0.0000
# 5 0.0000 0.0000 0.0000 0.0000 -103.8276 0.0000
# 6 0.0000 0.0000 0.0000 0.0000 0.0000 7.6050
#
#
#
# Elastic Compliance Matrix: (Units=1/GPa)
#
#
# Indices 1 2 3 4 5 6 
#
# 1 0.032612 0.001444 -0.002113 0.000000 0.000000 0.000000
# 2 0.001444 0.013745 -0.005729 0.000000 0.000000 0.000000
# 3 -0.002113 -0.005729 0.007781 0.000000 0.000000 0.000000
# 4 0.000000 0.000000 0.000000 0.058861 0.000000 0.000000
# 5 0.000000 0.000000 0.000000 0.000000 -0.009631 0.000000
# 6 0.000000 0.000000 0.000000 0.000000 0.000000 0.131493
#
#
# Mechanical properties :
#
#
# Convention : Reuss Voigt Hill
#
# Bulk Modulus (GPa) = 24.18932 55.23027 39.70980
# Shear Modulus (GPa) = 19.12498 -0.00976 9.55761
#
# Velocity S-wave (km/s) = 3.32358 -0.07506 2.34953
# Velocity P-wave (km/s) = 5.35720 5.64733 5.50418
#
# Compressibility (1/GPa) = 0.04134056
#
# Stress axis : x y z
#
# Youngs Moduli (GPa) = 30.66377 72.75112 128.51927
#
# Poissons Ratio (x) = -0.10503 0.27162
# Poissons Ratio (y) = -0.04427 0.73631
# Poissons Ratio (z) = 0.06481 0.41680
#
# Static dielectric constant tensor:
#      x y z
#    x 1.650570 0.000000 0.000000 
#    y 0.000000 1.574990 0.000000 
#    z 0.000000 0.000000 1.625530 
# 
# From -- ./inp_files/73761.got.cif
#   From: 2010.05.17/outbox.cif.g08.bks.cpg/sg65_37_cif.got.tgz:73761.got - 2010.06.03 17:01:31.
