data_PCOD9484659
_publ_section_title
;
Structure prediction by ZEFSAII (Michael W. Deem and Ramdas Pophale) SiO2 
 PCOD9484659
Probable space group: C M M M
;
_chemical_formula_sum "Si O2"
_cell_formula_units_Z 88
_cell_length_a 7.394114
_cell_length_b 28.238586
_cell_length_c 20.896500
_cell_angle_alpha 90.000000
_cell_angle_beta 90.000000
_cell_angle_gamma 90.000000
_cell_volume 4363.175076
_symmetry_space_group_name_H-M "C M M M"
_symmetry_group_IT_number 65
_symmetry_cell_setting 'orthorhombic'
loop_
_space_group_symop_operation_xyz
x,y,z
-x,-y,z
x,-y,-z
-x,y,-z
-x,-y,-z
x,y,-z
-x,y,z
x,-y,z
1/2+x,1/2+y,z
1/2-x,1/2-y,z
1/2+x,1/2-y,-z
1/2-x,1/2+y,-z
1/2-x,1/2-y,-z
1/2+x,1/2+y,-z
1/2-x,1/2+y,z
1/2+x,1/2-y,z
loop_
_atom_site_type_symbol
_atom_site_label
_atom_site_fract_x
_atom_site_fract_y
_atom_site_fract_z
Si Si1 0.215422 0.805694 0.136580
Si Si2 0.297683 0.127395 0.246734
Si Si3 0.282268 0.193380 0.641338
Si Si4 0.284442 0.693601 0.000000
Si Si5 0.285043 0.194008 0.500000
Si Si6 0.210813 0.557554 0.000000
Si Si7 0.278890 0.944756 0.858490
O O1 0.250000 0.750000 0.139619
O O2 0.308195 0.831188 0.194463
O O3 0.000000 0.813604 0.140588
O O4 0.285331 0.823642 0.067787
O O5 0.500000 0.111373 0.265654
O O6 0.213403 0.155211 0.306924
O O7 0.215564 0.085633 0.202668
O O8 0.500000 0.189775 0.642288
O O9 0.250000 0.250000 0.653741
O O10 0.216278 0.179512 0.570018
O O11 0.250000 0.750000 0.000000
O O12 0.500000 0.686597 0.000000
O O13 0.500000 0.184993 0.500000
O O14 0.250000 0.250000 0.500000
O O15 0.286176 0.570978 0.929776
O O16 0.215857 0.500000 0.000000
O O17 0.000000 0.571578 0.000000
O O18 0.500000 0.941265 0.859890
O O19 0.233572 0.000000 0.850959
#
# Coordination Sequence:
#
# PCOD9484659 Si02
#       7
#    16  16  16   8   8   8  16
#     4  10  19  31  44  58  80 110 141 172 205 242
#     4  10  19  28  41  64  87 107 135 170 212 256
#     4   9  17  28  42  61  85 111 138 167 199 241
#     4   8  16  29  42  54  72 104 143 174 198 232
#     4   8  14  26  42  58  79 109 139 165 196 234
#     4   7  10  19  36  56  77 101 130 168 212 250
#     4   8  14  25  40  58  81 107 136 172 211 250
#
# _framework density 20.168797999999999
#
# number of rings (size 3 to 8) (size 9 to 14) (size 15 to 20)
#    0.000    3.182    0.000    2.182    0.000    3.636 
#    0.000    0.909    0.000    0.545    0.000    0.636 
#    0.000    9.455    0.000    0.000    0.000   34.545 
#
# Total GULP energy -245010.817900 kJ/mol
# GULP energy per Si atom -5568.427680 kJ/mol
# Density = 2.012289 g / cm^3
# Si number density = 20.168798 Si / 1000 Ang^3
#
#
#
# Elastic Constant Matrix: (Units=GPa)
#
#
# Indices 1 2 3 4 5 6 
#
# 1 80.6805 -2.8982 8.2023 0.0000 0.0000 0.0000
# 2 -2.8982 106.2773 65.5292 0.0000 0.0000 0.0000
# 3 8.2023 65.5292 200.1283 0.0000 0.0000 0.0000
# 4 0.0000 0.0000 0.0000 45.0926 0.0000 0.0000
# 5 0.0000 0.0000 0.0000 0.0000 0.6383 0.0000
# 6 0.0000 0.0000 0.0000 0.0000 0.0000 2.2138
#
#
#
# Elastic Compliance Matrix: (Units=1/GPa)
#
#
# Indices 1 2 3 4 5 6 
#
# 1 0.012504 0.000823 -0.000782 0.000000 0.000000 0.000000
# 2 0.000823 0.011844 -0.003912 0.000000 0.000000 0.000000
# 3 -0.000782 -0.003912 0.006310 0.000000 0.000000 0.000000
# 4 0.000000 0.000000 0.000000 0.022177 0.000000 0.000000
# 5 0.000000 0.000000 0.000000 0.000000 1.566761 0.000000
# 6 0.000000 0.000000 0.000000 0.000000 0.000000 0.451705
#
#
# Mechanical properties :
#
#
# Convention : Reuss Voigt Hill
#
# Bulk Modulus (GPa) = 43.63805 58.75031 51.19418
# Shear Modulus (GPa) = 2.39615 30.67245 16.53430
#
# Velocity S-wave (km/s) = 1.09116 3.90396 2.86631
# Velocity P-wave (km/s) = 4.82399 7.03660 6.03260
#
# Compressibility (1/GPa) = 0.02291578
#
# Stress axis : x y z
#
# Youngs Moduli (GPa) = 79.97676 84.43264 158.48585
#
# Poissons Ratio (x) = -0.06950 0.12393
# Poissons Ratio (y) = -0.06583 0.61997
# Poissons Ratio (z) = 0.06254 0.33028
#
# Static dielectric constant tensor:
#      x y z
#    x 1.642240 0.000000 0.000000 
#    y 0.000000 1.719920 0.000000 
#    z 0.000000 0.000000 1.781760 
# 
# From -- ./inp_files/60732.got.cif
#   From: 2010.05.17/outbox.cif.g08.bks.cpg/sg65_31_cif.got.tgz:60732.got - 2010.06.03 17:01:31.
