data_PCOD9484795
_publ_section_title
;
Structure prediction by ZEFSAII (Michael W. Deem and Ramdas Pophale) SiO2 
 PCOD9484795
Probable space group: C M M M
;
_chemical_formula_sum "Si O2"
_cell_formula_units_Z 96
_cell_length_a 30.371445
_cell_length_b 14.177894
_cell_length_c 13.014441
_cell_angle_alpha 90.000000
_cell_angle_beta 90.000000
_cell_angle_gamma 90.000000
_cell_volume 5604.059002
_symmetry_space_group_name_H-M "C M M M"
_symmetry_group_IT_number 65
_symmetry_cell_setting 'orthorhombic'
loop_
_space_group_symop_operation_xyz
x,y,z
-x,-y,z
x,-y,-z
-x,y,-z
-x,-y,-z
x,y,-z
-x,y,z
x,-y,z
1/2+x,1/2+y,z
1/2-x,1/2-y,z
1/2+x,1/2-y,-z
1/2-x,1/2+y,-z
1/2-x,1/2-y,-z
1/2+x,1/2+y,-z
1/2-x,1/2+y,z
1/2+x,1/2-y,z
loop_
_atom_site_type_symbol
_atom_site_label
_atom_site_fract_x
_atom_site_fract_y
_atom_site_fract_z
Si Si1 0.050931 0.107635 0.123679
Si Si2 0.128525 0.386764 0.385096
Si Si3 0.291682 0.179095 0.884821
Si Si4 0.322606 0.386759 0.618293
Si Si5 0.876538 0.237378 0.223628
Si Si6 0.725488 0.892554 0.665868
O O1 0.083879 0.184319 0.168471
O O2 0.000000 0.123556 0.153765
O O3 0.062975 0.000000 0.154693
O O4 0.052843 0.110661 0.000000
O O5 0.111417 0.368011 0.500000
O O6 0.126824 0.500000 0.367605
O O7 0.108323 0.326910 0.292324
O O8 0.180152 0.355809 0.381460
O O9 0.250000 0.250000 0.885362
O O10 0.337477 0.230226 0.853787
O O11 0.281544 0.111700 0.788623
O O12 0.295096 0.138669 0.000000
O O13 0.334445 0.369723 0.500000
O O14 0.323248 0.500000 0.635857
O O15 0.354465 0.335608 0.696898
O O16 0.272647 0.350623 0.637963
O O17 0.728061 0.000000 0.629439
#
# Coordination Sequence:
#
# PCOD9484795 Si02
#       6
#    16  16  16  16  16  16
#     4   9  19  37  60  84 107 130 161 205 256 309
#     4   9  18  31  48  71 100 136 178 217 252 294
#     4  10  19  30  41  62  97 131 164 203 245 296
#     4  10  19  29  43  67  98 129 167 213 255 299
#     4  11  19  31  52  75  98 135 170 210 255 310
#     4   9  17  30  44  61  90 132 176 214 251 293
#
# _framework density 17.130441000000001
#
# number of rings (size 3 to 8) (size 9 to 14) (size 15 to 20)
#    0.000    2.333    1.667    2.500    0.000    2.333 
#    0.000    2.500    0.000    4.000    0.000    8.167 
#    0.000    0.000    0.000    0.000    0.000    0.000 
#
# Total GULP energy -267523.259865 kJ/mol
# GULP energy per Si atom -5573.401247 kJ/mol
# Density = 1.709145 g / cm^3
# Si number density = 17.130441 Si / 1000 Ang^3
#
#
#
# Elastic Constant Matrix: (Units=GPa)
#
#
# Indices 1 2 3 4 5 6 
#
# 1 58.7700 31.7427 13.7991 0.0000 0.0000 0.0000
# 2 31.7427 62.3785 17.5034 0.0000 0.0000 0.0000
# 3 13.7991 17.5034 78.0948 0.0000 0.0000 0.0000
# 4 0.0000 0.0000 0.0000 26.0396 0.0000 0.0000
# 5 0.0000 0.0000 0.0000 0.0000 8.3521 0.0000
# 6 0.0000 0.0000 0.0000 0.0000 0.0000 22.7095
#
#
#
# Elastic Compliance Matrix: (Units=1/GPa)
#
#
# Indices 1 2 3 4 5 6 
#
# 1 0.023646 -0.011589 -0.001581 0.000000 0.000000 0.000000
# 2 -0.011589 0.022787 -0.003059 0.000000 0.000000 0.000000
# 3 -0.001581 -0.003059 0.013770 0.000000 0.000000 0.000000
# 4 0.000000 0.000000 0.000000 0.038403 0.000000 0.000000
# 5 0.000000 0.000000 0.000000 0.000000 0.119730 0.000000
# 6 0.000000 0.000000 0.000000 0.000000 0.000000 0.044034
#
#
# Mechanical properties :
#
#
# Convention : Reuss Voigt Hill
#
# Bulk Modulus (GPa) = 36.04346 36.14819 36.09582
# Shear Modulus (GPa) = 16.44313 20.50012 18.47162
#
# Velocity S-wave (km/s) = 3.10155 3.46310 3.28730
# Velocity P-wave (km/s) = 5.82344 6.09412 5.96031
#
# Compressibility (1/GPa) = 0.02774428
#
# Stress axis : x y z
#
# Youngs Moduli (GPa) = 42.29006 43.88435 72.62181
#
# Poissons Ratio (x) = 0.50859 0.11479
# Poissons Ratio (y) = 0.49011 0.22219
# Poissons Ratio (z) = 0.06685 0.13426
#
# Static dielectric constant tensor:
#      x y z
#    x 1.559530 0.000000 0.000000 
#    y 0.000000 1.614910 0.000000 
#    z 0.000000 0.000000 1.592690 
# 
# From -- ./inp_files/27134.got.cif
#   From: 2010.05.17/outbox.cif.g08.bks.cpg/sg65_14_cif.got.tgz:27134.got - 2010.06.03 17:01:31.
