data_PCOD9484887
_publ_section_title
;
Structure prediction by ZEFSAII (Michael W. Deem and Ramdas Pophale) SiO2 
 PCOD9484887
Probable space group: C M M M
;
_chemical_formula_sum "Si O2"
_cell_formula_units_Z 72
_cell_length_a 32.236472
_cell_length_b 7.473527
_cell_length_c 14.869917
_cell_angle_alpha 90.000000
_cell_angle_beta 90.000000
_cell_angle_gamma 90.000000
_cell_volume 3582.462543
_symmetry_space_group_name_H-M "C M M M"
_symmetry_group_IT_number 65
_symmetry_cell_setting 'orthorhombic'
loop_
_space_group_symop_operation_xyz
x,y,z
-x,-y,z
x,-y,-z
-x,y,-z
-x,-y,-z
x,y,-z
-x,y,z
x,-y,z
1/2+x,1/2+y,z
1/2-x,1/2-y,z
1/2+x,1/2-y,-z
1/2-x,1/2+y,-z
1/2-x,1/2-y,-z
1/2+x,1/2+y,-z
1/2-x,1/2+y,z
1/2+x,1/2-y,z
loop_
_atom_site_type_symbol
_atom_site_label
_atom_site_fract_x
_atom_site_fract_y
_atom_site_fract_z
Si Si1 0.796432 0.714469 0.602284
Si Si2 0.453601 0.715822 0.395485
Si Si3 0.128059 0.289559 0.719447
Si Si4 0.590462 0.779906 0.102696
Si Si5 0.000000 0.703203 0.109262
O O1 0.799125 0.784356 0.500000
O O2 0.801139 0.500000 0.597076
O O3 0.750000 0.750000 0.636447
O O4 0.833663 0.786393 0.663067
O O5 0.447981 0.771796 0.500000
O O6 0.500000 0.774646 0.366080
O O7 0.453754 0.500000 0.394647
O O8 0.415027 0.774176 0.335282
O O9 0.136419 0.500000 0.730216
O O10 0.121360 0.218756 0.820007
O O11 0.544352 0.715898 0.131465
O O12 0.588798 0.000000 0.102175
O O13 0.598968 0.726014 0.000000
O O14 0.000000 0.500000 0.144260
O O15 0.000000 0.694213 0.000000
#
# Coordination Sequence:
#
# PCOD9484887 Si02
#       5
#    16  16  16  16   8
#     4   9  18  32  48  68  93 117 146 189 238 286
#     4   9  19  34  47  62  92 132 164 186 219 279
#     4  10  19  29  48  75  96 116 152 202 242 269
#     4   8  14  24  39  63  95 125 151 185 230 275
#     4   7  10  18  32  52  82 117 148 176 209 255
#
# _framework density 20.097908
#
# number of rings (size 3 to 8) (size 9 to 14) (size 15 to 20)
#    0.000    3.222    0.000    2.667    1.556    2.667 
#    0.000    3.333    0.000    1.333    0.000    1.556 
#    0.000    0.000    0.000    0.000    0.000    0.000 
#
# Total GULP energy -200745.243426 kJ/mol
# GULP energy per Si atom -5576.256762 kJ/mol
# Density = 2.005216 g / cm^3
# Si number density = 20.097908 Si / 1000 Ang^3
#
#
#
# Elastic Constant Matrix: (Units=GPa)
#
#
# Indices 1 2 3 4 5 6 
#
# 1 151.3395 -2.1715 98.4924 0.0000 0.0000 0.0000
# 2 -2.1715 58.3963 1.4378 0.0000 0.0000 0.0000
# 3 98.4924 1.4378 116.7343 0.0000 0.0000 0.0000
# 4 0.0000 0.0000 0.0000 -50.1155 0.0000 0.0000
# 5 0.0000 0.0000 0.0000 0.0000 26.6659 0.0000
# 6 0.0000 0.0000 0.0000 0.0000 0.0000 11.2993
#
#
#
# Elastic Compliance Matrix: (Units=1/GPa)
#
#
# Indices 1 2 3 4 5 6 
#
# 1 0.014697 0.000852 -0.012411 0.000000 0.000000 0.000000
# 2 0.000852 0.017179 -0.000931 0.000000 0.000000 0.000000
# 3 -0.012411 -0.000931 0.019049 0.000000 0.000000 0.000000
# 4 0.000000 0.000000 0.000000 -0.019954 0.000000 0.000000
# 5 0.000000 0.000000 0.000000 0.000000 0.037501 0.000000
# 6 0.000000 0.000000 0.000000 0.000000 0.000000 0.088501
#
#
# Mechanical properties :
#
#
# Convention : Reuss Voigt Hill
#
# Bulk Modulus (GPa) = 38.54045 57.99862 48.26954
# Shear Modulus (GPa) = 26.23287 12.81736 19.52511
#
# Velocity S-wave (km/s) = 3.61675 2.52810 3.12027
# Velocity P-wave (km/s) = 6.05468 6.11902 6.08694
#
# Compressibility (1/GPa) = 0.02594677
#
# Stress axis : x y z
#
# Youngs Moduli (GPa) = 68.04212 58.21074 52.49574
#
# Poissons Ratio (x) = -0.04960 0.65151
# Poissons Ratio (y) = -0.05798 0.04885
# Poissons Ratio (z) = 0.84445 0.05417
#
# Static dielectric constant tensor:
#      x y z
#    x 1.707270 0.000000 0.000000 
#    y 0.000000 1.771770 0.000000 
#    z 0.000000 0.000000 1.726500 
# 
# From -- ./inp_files/36981.got.cif
#   From: 2010.05.17/outbox.cif.g08.bks.cpg/sg65_19_cif.got.tgz:36981.got - 2010.06.03 17:01:31.
