data_PCOD9484792
_publ_section_title
;
Structure prediction by ZEFSAII (Michael W. Deem and Ramdas Pophale) SiO2 
 PCOD9484792
Probable space group: C M M M
;
_chemical_formula_sum "Si O2"
_cell_formula_units_Z 80
_cell_length_a 7.569545
_cell_length_b 19.140642
_cell_length_c 26.976715
_cell_angle_alpha 90.000000
_cell_angle_beta 90.000000
_cell_angle_gamma 90.000000
_cell_volume 3908.547006
_symmetry_space_group_name_H-M "C M M M"
_symmetry_group_IT_number 65
_symmetry_cell_setting 'orthorhombic'
loop_
_space_group_symop_operation_xyz
x,y,z
-x,-y,z
x,-y,-z
-x,y,-z
-x,-y,-z
x,y,-z
-x,y,z
x,-y,z
1/2+x,1/2+y,z
1/2-x,1/2-y,z
1/2+x,1/2-y,-z
1/2-x,1/2+y,-z
1/2-x,1/2-y,-z
1/2+x,1/2+y,-z
1/2-x,1/2+y,z
1/2+x,1/2-y,z
loop_
_atom_site_type_symbol
_atom_site_label
_atom_site_fract_x
_atom_site_fract_y
_atom_site_fract_z
Si Si1 0.215483 0.080726 0.205069
Si Si2 0.209699 0.579481 0.500000
Si Si3 0.784508 0.080690 0.906337
Si Si4 0.711977 0.331649 0.000000
Si Si5 0.287760 0.668224 0.298856
Si Si6 0.789727 0.920109 0.391912
O O1 0.272423 0.100313 0.149363
O O2 0.277872 0.131047 0.248706
O O3 0.000000 0.081910 0.204986
O O4 0.266260 0.000000 0.214358
O O5 0.284878 0.500000 0.500000
O O6 0.261305 0.610427 0.553005
O O7 0.000000 0.575335 0.500000
O O8 0.000000 0.082220 0.906200
O O9 0.734130 0.000000 0.915364
O O10 0.721648 0.130291 0.950311
O O11 0.750000 0.250000 0.000000
O O12 0.500000 0.340371 0.000000
O O13 0.500000 0.660700 0.298595
O O14 0.250000 0.750000 0.300266
O O15 0.220112 0.627491 0.347468
O O16 0.000000 0.925336 0.385309
O O17 0.718638 0.000000 0.390407
#
# Coordination Sequence:
#
# PCOD9484792 Si02
#       6
#    16   8  16   8  16  16
#     4   8  14  27  48  71  91 115 154 200 237 269
#     4   9  17  29  48  75 100 119 145 187 236 277
#     4   8  14  26  46  69  90 116 156 202 236 265
#     4  10  19  29  43  67  97 126 156 190 232 280
#     4  10  20  32  47  69  96 124 153 187 230 278
#     4   9  17  31  51  71  91 119 156 193 225 264
#
# _framework density 20.467963000000001
#
# number of rings (size 3 to 8) (size 9 to 14) (size 15 to 20)
#    0.000    3.100    0.000    2.400    0.000    6.400 
#    0.000    0.500    0.000    3.000    0.000    2.800 
#    0.000    0.000    0.000    0.000    0.000    0.000 
#
# Total GULP energy -223086.491083 kJ/mol
# GULP energy per Si atom -5577.162277 kJ/mol
# Density = 2.042138 g / cm^3
# Si number density = 20.467963 Si / 1000 Ang^3
#
#
#
# Elastic Constant Matrix: (Units=GPa)
#
#
# Indices 1 2 3 4 5 6 
#
# 1 47.3776 1.3070 6.6075 0.0000 0.0000 0.0000
# 2 1.3070 122.2160 138.3584 0.0000 0.0000 0.0000
# 3 6.6075 138.3584 245.4893 0.0000 0.0000 0.0000
# 4 0.0000 0.0000 0.0000 15.6039 0.0000 0.0000
# 5 0.0000 0.0000 0.0000 0.0000 -9.0495 0.0000
# 6 0.0000 0.0000 0.0000 0.0000 0.0000 19.3402
#
#
#
# Elastic Compliance Matrix: (Units=1/GPa)
#
#
# Indices 1 2 3 4 5 6 
#
# 1 0.021246 0.001161 -0.001226 0.000000 0.000000 0.000000
# 2 0.001161 0.022669 -0.012808 0.000000 0.000000 0.000000
# 3 -0.001226 -0.012808 0.011325 0.000000 0.000000 0.000000
# 4 0.000000 0.000000 0.000000 0.064087 0.000000 0.000000
# 5 0.000000 0.000000 0.000000 0.000000 -0.110504 0.000000
# 6 0.000000 0.000000 0.000000 0.000000 0.000000 0.051706
#
#
# Mechanical properties :
#
#
# Convention : Reuss Voigt Hill
#
# Bulk Modulus (GPa) = 33.90495 78.62543 56.26519
# Shear Modulus (GPa) = 52.02608 23.09958 37.56283
#
# Velocity S-wave (km/s) = 5.04713 3.36307 4.28857
# Velocity P-wave (km/s) = 7.11094 7.31967 7.21606
#
# Compressibility (1/GPa) = 0.02949422
#
# Stress axis : x y z
#
# Youngs Moduli (GPa) = 47.06770 44.11304 88.30114
#
# Poissons Ratio (x) = -0.05121 0.10827
# Poissons Ratio (y) = -0.05464 1.13092
# Poissons Ratio (z) = 0.05771 0.56498
#
# Static dielectric constant tensor:
#      x y z
#    x 1.783880 0.000000 0.000000 
#    y 0.000000 1.680510 0.000000 
#    z 0.000000 0.000000 1.746680 
# 
# From -- ./inp_files/70816.got.cif
#   From: 2010.05.17/outbox.cif.g08.bks.cpg/sg65_36_cif.got.tgz:70816.got - 2010.06.03 17:01:31.
