data_PCOD9484543
_publ_section_title
;
Structure prediction by ZEFSAII (Michael W. Deem and Ramdas Pophale) SiO2 
 PCOD9484543
Probable space group: C M M M
;
_chemical_formula_sum "Si O2"
_cell_formula_units_Z 64
_cell_length_a 8.625869
_cell_length_b 15.479860
_cell_length_c 24.674981
_cell_angle_alpha 90.000000
_cell_angle_beta 90.000000
_cell_angle_gamma 90.000000
_cell_volume 3294.782221
_symmetry_space_group_name_H-M "C M M M"
_symmetry_group_IT_number 65
_symmetry_cell_setting 'orthorhombic'
loop_
_space_group_symop_operation_xyz
x,y,z
-x,-y,z
x,-y,-z
-x,y,-z
-x,-y,-z
x,y,-z
-x,y,z
x,-y,z
1/2+x,1/2+y,z
1/2-x,1/2-y,z
1/2+x,1/2-y,-z
1/2-x,1/2+y,-z
1/2-x,1/2-y,-z
1/2+x,1/2+y,-z
1/2-x,1/2+y,z
1/2+x,1/2-y,z
loop_
_atom_site_type_symbol
_atom_site_label
_atom_site_fract_x
_atom_site_fract_y
_atom_site_fract_z
Si Si1 0.815665 0.897803 0.000000
Si Si2 0.687554 0.000000 0.191295
Si Si3 0.814059 0.348184 0.614386
Si Si4 0.186073 0.848091 0.500000
Si Si5 0.315072 0.840651 0.885021
Si Si6 0.184968 0.000000 0.688043
O O1 0.747419 0.858324 0.054710
O O2 0.000000 0.885678 0.000000
O O3 0.780882 0.000000 0.000000
O O4 0.730942 0.917109 0.155372
O O5 0.767951 0.000000 0.249166
O O6 0.500000 0.000000 0.198446
O O7 0.750000 0.250000 0.621973
O O8 0.750983 0.383384 0.556502
O O9 0.755367 0.414666 0.659579
O O10 0.000000 0.344455 0.613109
O O11 0.250000 0.750000 0.500000
O O12 0.000000 0.849604 0.500000
O O13 0.500000 0.838153 0.887592
O O14 0.250000 0.750000 0.865275
O O15 0.000000 0.000000 0.681413
#
# Coordination Sequence:
#
# PCOD9484543 Si02
#       6
#     8   8  16   8  16   8
#     4  11  22  37  62  94 128 162 200 247 301 361
#     4  10  24  45  64  85 119 162 205 256 308 362
#     4  11  22  40  64  92 126 164 206 254 309 370
#     4  10  18  33  58  91 127 162 202 249 307 371
#     4  11  23  41  65  92 124 161 203 248 302 362
#     4  12  26  43  64  91 122 162 209 260 311 368
#
# _framework density 19.424651999999998
#
# number of rings (size 3 to 8) (size 9 to 14) (size 15 to 20)
#    0.000    1.125    1.250    7.500    0.000    4.000 
#    0.000    5.000    0.000    0.000    0.000    0.000 
#    0.000    0.000    0.000    0.000    0.000    0.000 
#
# Total GULP energy -178967.807204 kJ/mol
# GULP energy per Si atom -5592.743975 kJ/mol
# Density = 1.938044 g / cm^3
# Si number density = 19.424652 Si / 1000 Ang^3
#
#
#
# Elastic Constant Matrix: (Units=GPa)
#
#
# Indices 1 2 3 4 5 6 
#
# 1 112.6050 68.0019 38.9494 0.0000 0.0000 0.0000
# 2 68.0019 153.1989 84.4071 0.0000 0.0000 0.0000
# 3 38.9494 84.4071 131.1530 0.0000 0.0000 0.0000
# 4 0.0000 0.0000 0.0000 -25.9426 0.0000 0.0000
# 5 0.0000 0.0000 0.0000 0.0000 33.2064 0.0000
# 6 0.0000 0.0000 0.0000 0.0000 0.0000 30.8521
#
#
#
# Elastic Compliance Matrix: (Units=1/GPa)
#
#
# Indices 1 2 3 4 5 6 
#
# 1 0.012137 -0.005270 -0.000213 0.000000 0.000000 0.000000
# 2 -0.005270 0.012402 -0.006417 0.000000 0.000000 0.000000
# 3 -0.000213 -0.006417 0.011817 0.000000 0.000000 0.000000
# 4 0.000000 0.000000 0.000000 -0.038547 0.000000 0.000000
# 5 0.000000 0.000000 0.000000 0.000000 0.030115 0.000000
# 6 0.000000 0.000000 0.000000 0.000000 0.000000 0.032413
#
#
# Mechanical properties :
#
#
# Convention : Reuss Voigt Hill
#
# Bulk Modulus (GPa) = 79.63310 86.63041 83.13175
# Shear Modulus (GPa) = 56.61139 21.32975 38.97057
#
# Velocity S-wave (km/s) = 5.40438 3.31732 4.48397
# Velocity P-wave (km/s) = 8.94584 7.70505 8.34853
#
# Compressibility (1/GPa) = 0.01255759
#
# Stress axis : x y z
#
# Youngs Moduli (GPa) = 82.39438 80.63162 84.62098
#
# Poissons Ratio (x) = 0.42494 0.01799
# Poissons Ratio (y) = 0.43423 0.54298
# Poissons Ratio (z) = 0.01752 0.51738
#
# Static dielectric constant tensor:
#      x y z
#    x 1.650110 0.000000 0.000000 
#    y 0.000000 1.659360 0.000000 
#    z 0.000000 0.000000 1.661670 
# 
# From -- ./inp_files/66909.got.cif
#   From: 2010.05.17/outbox.cif.g08.bks.cpg/sg65_34_cif.got.tgz:66909.got - 2010.06.03 17:01:31.
