data_PCOD9484992
_publ_section_title
;
Structure prediction by ZEFSAII (Michael W. Deem and Ramdas Pophale) SiO2 
 PCOD9484992
Probable space group: C M M M
;
_chemical_formula_sum "Si O2"
_cell_formula_units_Z 88
_cell_length_a 17.616930
_cell_length_b 17.801147
_cell_length_c 19.732364
_cell_angle_alpha 90.000000
_cell_angle_beta 90.000000
_cell_angle_gamma 90.000000
_cell_volume 6188.100145
_symmetry_space_group_name_H-M "C M M M"
_symmetry_group_IT_number 65
_symmetry_cell_setting 'orthorhombic'
loop_
_space_group_symop_operation_xyz
x,y,z
-x,-y,z
x,-y,-z
-x,y,-z
-x,-y,-z
x,y,-z
-x,y,z
x,-y,z
1/2+x,1/2+y,z
1/2-x,1/2-y,z
1/2+x,1/2-y,-z
1/2-x,1/2+y,-z
1/2-x,1/2-y,-z
1/2+x,1/2+y,-z
1/2-x,1/2+y,z
1/2+x,1/2-y,z
loop_
_atom_site_type_symbol
_atom_site_label
_atom_site_fract_x
_atom_site_fract_y
_atom_site_fract_z
Si Si1 0.209298 0.586309 0.500000
Si Si2 0.910967 0.717611 0.500000
Si Si3 0.713261 0.587729 0.645121
Si Si4 0.086569 0.590756 0.000000
Si Si5 0.313845 0.190433 0.256492
Si Si6 0.092216 0.589953 0.848883
Si Si7 0.089544 0.794883 0.355802
O O1 0.182033 0.500000 0.500000
O O2 0.140915 0.644524 0.500000
O O3 0.257904 0.597366 0.431998
O O4 0.895771 0.764336 0.568208
O O5 0.000000 0.697621 0.500000
O O6 0.713055 0.500000 0.661240
O O7 0.769280 0.633156 0.694335
O O8 0.631396 0.625868 0.651525
O O9 0.117773 0.610178 0.074017
O O10 0.083490 0.500000 0.000000
O O11 0.000000 0.618777 0.000000
O O12 0.250000 0.250000 0.229979
O O13 0.361128 0.142256 0.202195
O O14 0.371472 0.238134 0.303022
O O15 0.105352 0.500000 0.837905
O O16 0.000000 0.600323 0.843648
O O17 0.000000 0.799035 0.345259
#
# Coordination Sequence:
#
# PCOD9484992 Si02
#       7
#     8   8  16   8  16  16  16
#     4  10  19  32  48  64  86 115 146 181 222 264
#     4  10  19  32  48  64  86 115 146 181 222 264
#     4  10  20  32  47  65  85 113 147 182 220 261
#     4   7  12  24  43  66  88 114 143 169 208 254
#     4  10  19  30  45  64  90 119 145 173 214 262
#     4   9  16  28  47  68  90 114 143 179 212 248
#     4  10  20  32  47  65  85 113 147 182 220 261
#
# _framework density 14.220843
#
# number of rings (size 3 to 8) (size 9 to 14) (size 15 to 20)
#    0.000    2.455    1.818    2.727    0.000    1.273 
#    0.000    0.455    0.000    3.273    0.000    0.000 
#    0.000    0.000    0.000    0.000    0.000  109.091 
#
# Total GULP energy -245019.904758 kJ/mol
# GULP energy per Si atom -5568.634199 kJ/mol
# Density = 1.418848 g / cm^3
# Si number density = 14.220843 Si / 1000 Ang^3
#
#
#
# Elastic Constant Matrix: (Units=GPa)
#
#
# Indices 1 2 3 4 5 6 
#
# 1 53.8665 49.2301 30.4395 0.0000 0.0000 0.0000
# 2 49.2301 93.2791 42.2679 0.0000 0.0000 0.0000
# 3 30.4395 42.2679 89.6895 0.0000 0.0000 0.0000
# 4 0.0000 0.0000 0.0000 7.9996 0.0000 0.0000
# 5 0.0000 0.0000 0.0000 0.0000 10.0839 0.0000
# 6 0.0000 0.0000 0.0000 0.0000 0.0000 17.6638
#
#
#
# Elastic Compliance Matrix: (Units=1/GPa)
#
#
# Indices 1 2 3 4 5 6 
#
# 1 0.037110 -0.017647 -0.004278 0.000000 0.000000 0.000000
# 2 -0.017647 0.022023 -0.004390 0.000000 0.000000 0.000000
# 3 -0.004278 -0.004390 0.014670 0.000000 0.000000 0.000000
# 4 0.000000 0.000000 0.000000 0.125007 0.000000 0.000000
# 5 0.000000 0.000000 0.000000 0.000000 0.099168 0.000000
# 6 0.000000 0.000000 0.000000 0.000000 0.000000 0.056613
#
#
# Mechanical properties :
#
#
# Convention : Reuss Voigt Hill
#
# Bulk Modulus (GPa) = 47.22828 53.41223 50.32025
# Shear Modulus (GPa) = 12.06915 14.80929 13.43922
#
# Velocity S-wave (km/s) = 2.91640 3.23054 3.07748
# Velocity P-wave (km/s) = 6.68006 7.18024 6.93466
#
# Compressibility (1/GPa) = 0.02117375
#
# Stress axis : x y z
#
# Youngs Moduli (GPa) = 26.94670 45.40636 68.16512
#
# Poissons Ratio (x) = 0.80130 0.29162
# Poissons Ratio (y) = 0.47553 0.29922
# Poissons Ratio (z) = 0.11528 0.19932
#
# Static dielectric constant tensor:
#      x y z
#    x 1.452960 0.000000 0.000000 
#    y 0.000000 1.451370 0.000000 
#    z 0.000000 0.000000 1.472370 
# 
# From -- ./inp_files/53081.got.cif
#   From: 2010.05.17/outbox.cif.g08.bks.cpg/sg65_27_cif.got.tgz:53081.got - 2010.06.03 17:01:31.
