data_PCOD9484951
_publ_section_title
;
Structure prediction by ZEFSAII (Michael W. Deem and Ramdas Pophale) SiO2 
 PCOD9484951
Probable space group: C M M M
;
_chemical_formula_sum "Si O2"
_cell_formula_units_Z 80
_cell_length_a 24.434135
_cell_length_b 7.338910
_cell_length_c 21.337901
_cell_angle_alpha 90.000000
_cell_angle_beta 90.000000
_cell_angle_gamma 90.000000
_cell_volume 3826.310651
_symmetry_space_group_name_H-M "C M M M"
_symmetry_group_IT_number 65
_symmetry_cell_setting 'orthorhombic'
loop_
_space_group_symop_operation_xyz
x,y,z
-x,-y,z
x,-y,-z
-x,y,-z
-x,-y,-z
x,y,-z
-x,y,z
x,-y,z
1/2+x,1/2+y,z
1/2-x,1/2-y,z
1/2+x,1/2-y,-z
1/2-x,1/2+y,-z
1/2-x,1/2-y,-z
1/2+x,1/2+y,-z
1/2-x,1/2+y,z
1/2+x,1/2-y,z
loop_
_atom_site_type_symbol
_atom_site_label
_atom_site_fract_x
_atom_site_fract_y
_atom_site_fract_z
Si Si1 0.382475 0.777522 0.570140
Si Si2 0.314405 0.217033 0.689151
Si Si3 0.000000 0.721804 0.767407
Si Si4 0.118621 0.723045 0.810850
Si Si5 0.313539 0.782508 0.929447
Si Si6 0.500000 0.778321 0.378105
O O1 0.368053 0.718595 0.500000
O O2 0.341917 0.715093 0.625014
O O3 0.444215 0.722031 0.588119
O O4 0.381875 0.000000 0.570021
O O5 0.250000 0.250000 0.692102
O O6 0.345884 0.283741 0.750896
O O7 0.322726 0.000000 0.688941
O O8 0.055983 0.779007 0.800596
O O9 0.000000 0.500000 0.766753
O O10 0.000000 0.778439 0.694571
O O11 0.119439 0.500000 0.811300
O O12 0.146771 0.785513 0.875012
O O13 0.250000 0.750000 0.912893
O O14 0.320788 0.000000 0.932212
O O15 0.322720 0.711159 0.000000
O O16 0.500000 0.000000 0.378206
#
# Coordination Sequence:
#
# PCOD9484951 Si02
#       6
#    16  16   8  16  16   8
#     4   9  16  25  39  61  87 111 139 179 220 255
#     4  10  19  30  44  63  87 115 145 176 213 256
#     4   9  14  23  41  63  87 113 139 173 220 263
#     4   9  16  27  43  64  89 114 142 178 217 257
#     4   9  17  29  45  66  91 118 147 178 211 248
#     4   9  13  22  39  61  86 110 138 176 220 259
#
# _framework density 20.907869999999999
#
# number of rings (size 3 to 8) (size 9 to 14) (size 15 to 20)
#    0.000    2.800    2.000    0.900    0.000    1.600 
#    0.000    0.500    0.000    3.000    0.000    4.900 
#    0.000    4.800    0.000    0.000    0.000    0.000 
#
# Total GULP energy -223398.400919 kJ/mol
# GULP energy per Si atom -5584.960023 kJ/mol
# Density = 2.086028 g / cm^3
# Si number density = 20.907870 Si / 1000 Ang^3
#
#
#
# Elastic Constant Matrix: (Units=GPa)
#
#
# Indices 1 2 3 4 5 6 
#
# 1 185.7112 -1.6006 124.2458 0.0000 0.0000 0.0000
# 2 -1.6006 80.3993 8.9891 0.0000 0.0000 0.0000
# 3 124.2458 8.9891 193.0535 0.0000 0.0000 0.0000
# 4 0.0000 0.0000 0.0000 -12.0807 0.0000 0.0000
# 5 0.0000 0.0000 0.0000 0.0000 43.6594 0.0000
# 6 0.0000 0.0000 0.0000 0.0000 0.0000 9.8877
#
#
#
# Elastic Compliance Matrix: (Units=1/GPa)
#
#
# Indices 1 2 3 4 5 6 
#
# 1 0.009518 0.000879 -0.006166 0.000000 0.000000 0.000000
# 2 0.000879 0.012584 -0.001152 0.000000 0.000000 0.000000
# 3 -0.006166 -0.001152 0.009202 0.000000 0.000000 0.000000
# 4 0.000000 0.000000 0.000000 -0.082777 0.000000 0.000000
# 5 0.000000 0.000000 0.000000 0.000000 0.022905 0.000000
# 6 0.000000 0.000000 0.000000 0.000000 0.000000 0.101136
#
#
# Mechanical properties :
#
#
# Convention : Reuss Voigt Hill
#
# Bulk Modulus (GPa) = 54.27149 80.27030 67.27089
# Shear Modulus (GPa) = 54.59233 30.12858 42.36046
#
# Velocity S-wave (km/s) = 5.11543 3.80019 4.50605
# Velocity P-wave (km/s) = 7.80410 7.59809 7.70178
#
# Compressibility (1/GPa) = 0.01842588
#
# Stress axis : x y z
#
# Youngs Moduli (GPa) = 105.06680 79.46490 108.67079
#
# Poissons Ratio (x) = -0.06984 0.67011
# Poissons Ratio (y) = -0.09234 0.12515
# Poissons Ratio (z) = 0.64788 0.09151
#
# Static dielectric constant tensor:
#      x y z
#    x 1.698160 0.000000 0.000000 
#    y 0.000000 1.940390 0.000000 
#    z 0.000000 0.000000 1.729430 
# 
# From -- ./inp_files/51355.got.cif
#   From: 2010.05.17/outbox.cif.g08.bks.cpg/sg65_26_cif.got.tgz:51355.got - 2010.06.03 17:01:31.
