data_PCOD9484630
_publ_section_title
;
Structure prediction by ZEFSAII (Michael W. Deem and Ramdas Pophale) SiO2 
 PCOD9484630
Probable space group: C M M M
;
_chemical_formula_sum "Si O2"
_cell_formula_units_Z 80
_cell_length_a 17.281927
_cell_length_b 27.761691
_cell_length_c 11.939771
_cell_angle_alpha 90.000000
_cell_angle_beta 90.000000
_cell_angle_gamma 90.000000
_cell_volume 5728.409807
_symmetry_space_group_name_H-M "C M M M"
_symmetry_group_IT_number 65
_symmetry_cell_setting 'orthorhombic'
loop_
_space_group_symop_operation_xyz
x,y,z
-x,-y,z
x,-y,-z
-x,y,-z
-x,-y,-z
x,y,-z
-x,y,z
x,-y,z
1/2+x,1/2+y,z
1/2-x,1/2-y,z
1/2+x,1/2-y,-z
1/2-x,1/2+y,-z
1/2-x,1/2-y,-z
1/2+x,1/2+y,-z
1/2-x,1/2+y,z
1/2+x,1/2-y,z
loop_
_atom_site_type_symbol
_atom_site_label
_atom_site_fract_x
_atom_site_fract_y
_atom_site_fract_z
Si Si1 0.411683 0.801899 0.000000
Si Si2 0.911972 0.186330 0.000000
Si Si3 0.589604 0.731023 0.632959
Si Si4 0.305340 0.794133 0.205577
Si Si5 0.907695 0.056466 0.132229
Si Si6 0.658870 0.352178 0.769819
O O1 0.361971 0.813469 0.109847
O O2 0.500000 0.820120 0.000000
O O3 0.415798 0.743785 0.000000
O O4 0.869561 0.169475 0.888734
O O5 0.000000 0.167658 0.000000
O O6 0.599441 0.734335 0.500000
O O7 0.500000 0.740322 0.662147
O O8 0.644428 0.768681 0.697584
O O9 0.611848 0.677771 0.676944
O O10 0.250000 0.750000 0.162676
O O11 0.247564 0.836097 0.244560
O O12 0.861351 0.092014 0.213963
O O13 0.000000 0.064439 0.146480
O O14 0.892466 0.000000 0.151941
O O15 0.890100 0.066107 0.000000
#
# Coordination Sequence:
#
# PCOD9484630 Si02
#       6
#     8   8  16  16  16  16
#     4  11  18  26  38  56  85 114 140 171 208 248
#     4  11  17  23  40  60  81 111 143 169 202 246
#     4  10  20  32  44  59  83 117 150 174 204 249
#     4  10  19  27  39  60  85 111 141 176 209 248
#     4   9  17  28  43  64  88 113 141 175 212 249
#     4  11  19  27  44  62  86 112 141 178 214 249
#
# _framework density 13.965482
#
# number of rings (size 3 to 8) (size 9 to 14) (size 15 to 20)
#    0.000    1.800    5.000    3.900    0.000    3.600 
#    0.000    0.000    0.000    0.600    0.000    2.800 
#    0.000    4.000    0.000    2.200    0.000    0.000 
#
# Total GULP energy -222916.795995 kJ/mol
# GULP energy per Si atom -5572.919900 kJ/mol
# Density = 1.393370 g / cm^3
# Si number density = 13.965482 Si / 1000 Ang^3
#
#
#
# Elastic Constant Matrix: (Units=GPa)
#
#
# Indices 1 2 3 4 5 6 
#
# 1 98.1817 38.0569 39.1497 0.0000 0.0000 0.0000
# 2 38.0569 79.5102 18.3910 0.0000 0.0000 0.0000
# 3 39.1497 18.3910 48.0283 0.0000 0.0000 0.0000
# 4 0.0000 0.0000 0.0000 9.2454 0.0000 0.0000
# 5 0.0000 0.0000 0.0000 0.0000 51.0880 0.0000
# 6 0.0000 0.0000 0.0000 0.0000 0.0000 12.2760
#
#
#
# Elastic Compliance Matrix: (Units=1/GPa)
#
#
# Indices 1 2 3 4 5 6 
#
# 1 0.016970 -0.005401 -0.011765 0.000000 0.000000 0.000000
# 2 -0.005401 0.015518 -0.001539 0.000000 0.000000 0.000000
# 3 -0.011765 -0.001539 0.031000 0.000000 0.000000 0.000000
# 4 0.000000 0.000000 0.000000 0.108162 0.000000 0.000000
# 5 0.000000 0.000000 0.000000 0.000000 0.019574 0.000000
# 6 0.000000 0.000000 0.000000 0.000000 0.000000 0.081460
#
#
# Mechanical properties :
#
#
# Convention : Reuss Voigt Hill
#
# Bulk Modulus (GPa) = 38.34662 46.32393 42.33527
# Shear Modulus (GPa) = 15.68440 23.19671 19.44056
#
# Velocity S-wave (km/s) = 3.35488 4.07996 3.73506
# Velocity P-wave (km/s) = 6.52110 7.44561 6.99864
#
# Compressibility (1/GPa) = 0.02607792
#
# Stress axis : x y z
#
# Youngs Moduli (GPa) = 58.92764 64.43962 32.25769
#
# Poissons Ratio (x) = 0.34806 0.37950
# Poissons Ratio (y) = 0.31829 0.04966
# Poissons Ratio (z) = 0.69326 0.09920
#
# Static dielectric constant tensor:
#      x y z
#    x 1.486360 0.000000 0.000000 
#    y 0.000000 1.469060 0.000000 
#    z 0.000000 0.000000 1.459750 
# 
# From -- ./inp_files/27301.got.cif
#   From: 2010.05.17/outbox.cif.g08.bks.cpg/sg65_14_cif.got.tgz:27301.got - 2010.06.03 17:01:31.
