data_PCOD9484801
_publ_section_title
;
Structure prediction by ZEFSAII (Michael W. Deem and Ramdas Pophale) SiO2 
 PCOD9484801
Probable space group: C M M M
;
_chemical_formula_sum "Si O2"
_cell_formula_units_Z 88
_cell_length_a 28.519245
_cell_length_b 7.714206
_cell_length_c 22.275049
_cell_angle_alpha 90.000000
_cell_angle_beta 90.000000
_cell_angle_gamma 90.000000
_cell_volume 4900.584976
_symmetry_space_group_name_H-M "C M M M"
_symmetry_group_IT_number 65
_symmetry_cell_setting 'orthorhombic'
loop_
_space_group_symop_operation_xyz
x,y,z
-x,-y,z
x,-y,-z
-x,y,-z
-x,-y,-z
x,y,-z
-x,y,z
x,-y,z
1/2+x,1/2+y,z
1/2-x,1/2-y,z
1/2+x,1/2-y,-z
1/2-x,1/2+y,-z
1/2-x,1/2-y,-z
1/2+x,1/2+y,-z
1/2-x,1/2+y,z
1/2+x,1/2-y,z
loop_
_atom_site_type_symbol
_atom_site_label
_atom_site_fract_x
_atom_site_fract_y
_atom_site_fract_z
Si Si1 0.446364 0.707641 0.694958
Si Si2 0.805514 0.708028 0.000000
Si Si3 0.604198 0.704958 0.813503
Si Si4 0.195438 0.293512 0.130386
Si Si5 0.555429 0.710755 0.934196
Si Si6 0.445521 0.208323 0.564618
O O1 0.500000 0.775563 0.696799
O O2 0.449018 0.500000 0.700177
O O3 0.417576 0.775340 0.752007
O O4 0.425136 0.742088 0.629078
O O5 0.750000 0.750000 0.000000
O O6 0.821375 0.776925 0.064745
O O7 0.811587 0.500000 0.000000
O O8 0.593934 0.500000 0.814094
O O9 0.659721 0.727823 0.819971
O O10 0.581102 0.777743 0.874707
O O11 0.191998 0.500000 0.128375
O O12 0.250000 0.250000 0.139010
O O13 0.500000 0.750692 0.930134
O O14 0.559134 0.500000 0.934779
O O15 0.572708 0.772284 0.000000
O O16 0.425601 0.267814 0.500000
O O17 0.500000 0.268323 0.565991
O O18 0.446076 0.000000 0.563304
#
# Coordination Sequence:
#
# PCOD9484801 Si02
#       6
#    16   8  16  16  16  16
#     4   9  17  28  42  63  93 125 154 185 219 257
#     4   8  16  30  46  62  79 100 129 171 222 273
#     4  10  19  29  44  66  90 116 148 186 225 266
#     4  10  20  34  49  65  85 110 141 182 231 281
#     4   8  14  25  41  61  84 112 149 188 220 253
#     4   8  14  25  41  61  86 117 152 187 220 256
#
# _framework density 17.957039999999999
#
# number of rings (size 3 to 8) (size 9 to 14) (size 15 to 20)
#    0.000    3.091    0.000    2.182    1.273    4.000 
#    0.000    1.818    0.000    1.636    0.000    1.273 
#    0.000    0.727    0.000    2.364    0.000    3.455 
#
# Total GULP energy -245065.151491 kJ/mol
# GULP energy per Si atom -5569.662534 kJ/mol
# Density = 1.791617 g / cm^3
# Si number density = 17.957040 Si / 1000 Ang^3
#
#
#
# Elastic Constant Matrix: (Units=GPa)
#
#
# Indices 1 2 3 4 5 6 
#
# 1 51.5008 -3.7486 67.3454 0.0000 0.0000 0.0000
# 2 -3.7486 32.0579 10.7195 0.0000 0.0000 0.0000
# 3 67.3454 10.7195 187.6140 0.0000 0.0000 0.0000
# 4 0.0000 0.0000 0.0000 0.0265 0.0000 0.0000
# 5 0.0000 0.0000 0.0000 0.0000 11.3486 0.0000
# 6 0.0000 0.0000 0.0000 0.0000 0.0000 8.3461
#
#
#
# Elastic Compliance Matrix: (Units=1/GPa)
#
#
# Indices 1 2 3 4 5 6 
#
# 1 0.039229 0.009477 -0.014623 0.000000 0.000000 0.000000
# 2 0.009477 0.034091 -0.005350 0.000000 0.000000 0.000000
# 3 -0.014623 -0.005350 0.010885 0.000000 0.000000 0.000000
# 4 0.000000 0.000000 0.000000 37.783859 0.000000 0.000000
# 5 0.000000 0.000000 0.000000 0.000000 0.088117 0.000000
# 6 0.000000 0.000000 0.000000 0.000000 0.000000 0.119816
#
#
# Mechanical properties :
#
#
# Convention : Reuss Voigt Hill
#
# Bulk Modulus (GPa) = 15.81963 46.64502 31.23233
# Shear Modulus (GPa) = 0.13117 17.06799 8.59958
#
# Velocity S-wave (km/s) = 0.27057 3.08635 2.19075
# Velocity P-wave (km/s) = 2.98772 6.22358 4.88157
#
# Compressibility (1/GPa) = 0.06321259
#
# Stress axis : x y z
#
# Youngs Moduli (GPa) = 25.49157 29.33366 91.87179
#
# Poissons Ratio (x) = -0.27799 1.34343
# Poissons Ratio (y) = -0.24158 0.49147
# Poissons Ratio (z) = 0.37276 0.15692
#
# Static dielectric constant tensor:
#      x y z
#    x 1.601600 0.000000 0.000000 
#    y 0.000000 1.662370 0.000000 
#    z 0.000000 0.000000 1.679580 
# 
# From -- ./inp_files/66211.got.cif
#   From: 2010.05.17/outbox.cif.g08.bks.cpg/sg65_34_cif.got.tgz:66211.got - 2010.06.03 17:01:31.
