data_PCOD9484868
_publ_section_title
;
Structure prediction by ZEFSAII (Michael W. Deem and Ramdas Pophale) SiO2 
 PCOD9484868
Probable space group: C M M M
;
_chemical_formula_sum "Si O2"
_cell_formula_units_Z 104
_cell_length_a 17.641923
_cell_length_b 25.886838
_cell_length_c 13.688488
_cell_angle_alpha 90.000000
_cell_angle_beta 90.000000
_cell_angle_gamma 90.000000
_cell_volume 6251.444900
_symmetry_space_group_name_H-M "C M M M"
_symmetry_group_IT_number 65
_symmetry_cell_setting 'orthorhombic'
loop_
_space_group_symop_operation_xyz
x,y,z
-x,-y,z
x,-y,-z
-x,y,-z
-x,-y,-z
x,y,-z
-x,y,z
x,-y,z
1/2+x,1/2+y,z
1/2-x,1/2-y,z
1/2+x,1/2-y,-z
1/2-x,1/2+y,-z
1/2-x,1/2-y,-z
1/2+x,1/2+y,-z
1/2-x,1/2+y,z
1/2+x,1/2-y,z
loop_
_atom_site_type_symbol
_atom_site_label
_atom_site_fract_x
_atom_site_fract_y
_atom_site_fract_z
Si Si1 0.867040 0.441070 0.116462
Si Si2 0.912405 0.344468 0.755527
Si Si3 0.811007 0.400913 0.615992
Si Si4 0.706789 0.560205 0.223761
Si Si5 0.407857 0.250899 0.110762
Si Si6 0.589633 0.631955 0.883263
Si Si7 0.585188 0.000000 0.382664
O O1 0.892786 0.500000 0.140535
O O2 0.907457 0.394547 0.173295
O O3 0.779360 0.437615 0.150792
O O4 0.874036 0.434620 0.000000
O O5 0.856824 0.354218 0.664885
O O6 0.886413 0.294637 0.816622
O O7 0.000000 0.338415 0.724961
O O8 0.801260 0.397086 0.500000
O O9 0.735295 0.413003 0.676366
O O10 0.865737 0.449820 0.640102
O O11 0.689510 0.500000 0.240605
O O12 0.638519 0.591029 0.175470
O O13 0.500000 0.251005 0.107663
O O14 0.385563 0.309043 0.139352
O O15 0.381310 0.240625 0.000000
O O16 0.500000 0.627267 0.862718
O O17 0.599409 0.625029 0.000000
O O18 0.500000 0.000000 0.342408
O O19 0.578323 0.000000 0.500000
#
# Coordination Sequence:
#
# PCOD9484868 Si02
#       7
#    16  16  16  16  16  16   8
#     4   9  18  30  41  60  96 135 164 193 237 295
#     4  10  19  29  47  71  95 128 171 212 249 290
#     4  10  20  34  49  70  98 131 170 210 254 295
#     4  10  19  32  51  73 100 133 164 197 250 311
#     4   8  15  30  50  72 100 132 164 200 246 300
#     4   9  18  33  55  81 104 126 157 201 251 303
#     4   9  16  28  48  70  92 121 162 210 250 283
#
# _framework density 16.636154000000001
#
# number of rings (size 3 to 8) (size 9 to 14) (size 15 to 20)
#    0.000    2.692    0.769    2.308    1.077    3.385 
#    0.000    4.615    0.000   10.615    0.000    3.231 
#    0.000    0.000    0.000    0.000    0.000    0.000 
#
# Total GULP energy -289899.946336 kJ/mol
# GULP energy per Si atom -5574.998968 kJ/mol
# Density = 1.659829 g / cm^3
# Si number density = 16.636154 Si / 1000 Ang^3
#
#
#
# Elastic Constant Matrix: (Units=GPa)
#
#
# Indices 1 2 3 4 5 6 
#
# 1 56.4757 47.9339 38.5862 0.0000 0.0000 0.0000
# 2 47.9339 85.3640 53.7681 0.0000 0.0000 0.0000
# 3 38.5862 53.7681 90.9084 0.0000 0.0000 0.0000
# 4 0.0000 0.0000 0.0000 19.8790 0.0000 0.0000
# 5 0.0000 0.0000 0.0000 0.0000 22.2366 0.0000
# 6 0.0000 0.0000 0.0000 0.0000 0.0000 47.8882
#
#
#
# Elastic Compliance Matrix: (Units=1/GPa)
#
#
# Indices 1 2 3 4 5 6 
#
# 1 0.035305 -0.016552 -0.005195 0.000000 0.000000 0.000000
# 2 -0.016552 0.026430 -0.008606 0.000000 0.000000 0.000000
# 3 -0.005195 -0.008606 0.018296 0.000000 0.000000 0.000000
# 4 0.000000 0.000000 0.000000 0.050304 0.000000 0.000000
# 5 0.000000 0.000000 0.000000 0.000000 0.044971 0.000000
# 6 0.000000 0.000000 0.000000 0.000000 0.000000 0.020882
#
#
# Mechanical properties :
#
#
# Convention : Reuss Voigt Hill
#
# Bulk Modulus (GPa) = 51.75325 57.03604 54.39465
# Shear Modulus (GPa) = 18.98705 24.16475 21.57590
#
# Velocity S-wave (km/s) = 3.38200 3.81536 3.60520
# Velocity P-wave (km/s) = 6.81373 7.33267 7.07796
#
# Compressibility (1/GPa) = 0.01932246
#
# Stress axis : x y z
#
# Youngs Moduli (GPa) = 28.32435 37.83576 54.65793
#
# Poissons Ratio (x) = 0.62627 0.28397
# Poissons Ratio (y) = 0.46883 0.47041
# Poissons Ratio (z) = 0.14716 0.32563
#
# Static dielectric constant tensor:
#      x y z
#    x 1.557910 0.000000 0.000000 
#    y 0.000000 1.574410 0.000000 
#    z 0.000000 0.000000 1.559580 
# 
# From -- ./inp_files/43065.got.cif
#   From: 2010.05.17/outbox.cif.g08.bks.cpg/sg65_22_cif.got.tgz:43065.got - 2010.06.03 17:01:31.
