data_PCOD9484929
_publ_section_title
;
Structure prediction by ZEFSAII (Michael W. Deem and Ramdas Pophale) SiO2 
 PCOD9484929
Probable space group: C M M M
;
_chemical_formula_sum "Si O2"
_cell_formula_units_Z 116
_cell_length_a 7.522731
_cell_length_b 35.769825
_cell_length_c 21.080452
_cell_angle_alpha 90.000000
_cell_angle_beta 90.000000
_cell_angle_gamma 90.000000
_cell_volume 5672.470768
_symmetry_space_group_name_H-M "C M M M"
_symmetry_group_IT_number 65
_symmetry_cell_setting 'orthorhombic'
loop_
_space_group_symop_operation_xyz
x,y,z
-x,-y,z
x,-y,-z
-x,y,-z
-x,-y,-z
x,y,-z
-x,y,z
x,-y,z
1/2+x,1/2+y,z
1/2-x,1/2-y,z
1/2+x,1/2-y,-z
1/2-x,1/2+y,-z
1/2-x,1/2-y,-z
1/2+x,1/2+y,-z
1/2-x,1/2+y,z
1/2+x,1/2-y,z
loop_
_atom_site_type_symbol
_atom_site_label
_atom_site_fract_x
_atom_site_fract_y
_atom_site_fract_z
Si Si1 0.211878 0.290434 0.604596
Si Si2 0.785432 0.886532 0.707877
Si Si3 0.293093 0.626880 0.568198
Si Si4 0.794569 0.696444 0.256425
Si Si5 0.000000 0.500000 0.153784
Si Si6 0.716562 0.566787 0.172338
Si Si7 0.209112 0.128093 0.930860
Si Si8 0.710869 0.209447 0.117725
O O1 0.250000 0.250000 0.575681
O O2 0.284618 0.327947 0.573242
O O3 0.285109 0.290092 0.676982
O O4 0.000000 0.295588 0.606373
O O5 0.719599 0.888273 0.635128
O O6 0.713370 0.848365 0.738404
O O7 0.746935 0.920264 0.755199
O O8 0.000000 0.882256 0.706007
O O9 0.213730 0.615923 0.500000
O O10 0.500000 0.615977 0.567125
O O11 0.713136 0.708567 0.189733
O O12 0.000000 0.708636 0.256444
O O13 0.157939 0.467472 0.155172
O O14 0.500000 0.560254 0.167033
O O15 0.768394 0.601598 0.126429
O O16 0.228404 0.172091 0.917040
O O17 0.000000 0.120753 0.934478
O O18 0.288400 0.119349 0.000000
O O19 0.500000 0.205761 0.122234
O O20 0.750000 0.250000 0.088809
#
# Coordination Sequence:
#
# PCOD9484929 Si02
#       8
#    16  16  16  16   4  16  16  16
#     4  10  19  30  43  63  95 139 186 239 300 355
#     4   9  17  31  56  82 110 149 188 236 292 356
#     4   9  18  32  49  73 103 139 189 241 288 347
#     4   9  18  30  48  74 104 140 191 246 296 355
#     4  12  26  40  73 104 133 162 196 258 306 368
#     4  10  22  42  66  98 131 162 201 244 303 372
#     4  10  22  41  63  85 118 163 204 249 305 360
#     4  11  22  34  53  81 115 154 205 260 308 359
#
# _framework density 20.449642999999998
#
# number of rings (size 3 to 8) (size 9 to 14) (size 15 to 20)
#    0.000    2.207    1.379    1.448    1.931    2.207 
#    0.000    0.690    0.000    1.655    0.000    0.966 
#    0.000    3.310    0.000    0.000    0.000    0.000 
#
# Total GULP energy -322985.081337 kJ/mol
# GULP energy per Si atom -5568.708299 kJ/mol
# Density = 2.040310 g / cm^3
# Si number density = 20.449643 Si / 1000 Ang^3
#
#
#
# Elastic Constant Matrix: (Units=GPa)
#
#
# Indices 1 2 3 4 5 6 
#
# 1 68.9957 12.9485 16.0221 0.0000 0.0000 0.0000
# 2 12.9485 97.0049 40.5736 0.0000 0.0000 0.0000
# 3 16.0221 40.5736 122.2043 0.0000 0.0000 0.0000
# 4 0.0000 0.0000 0.0000 -3.2320 0.0000 0.0000
# 5 0.0000 0.0000 0.0000 0.0000 7.6056 0.0000
# 6 0.0000 0.0000 0.0000 0.0000 0.0000 32.9926
#
#
#
# Elastic Compliance Matrix: (Units=1/GPa)
#
#
# Indices 1 2 3 4 5 6 
#
# 1 0.015106 -0.001380 -0.001523 0.000000 0.000000 0.000000
# 2 -0.001380 0.012097 -0.003836 0.000000 0.000000 0.000000
# 3 -0.001523 -0.003836 0.009656 0.000000 0.000000 0.000000
# 4 0.000000 0.000000 0.000000 -0.309404 0.000000 0.000000
# 5 0.000000 0.000000 0.000000 0.000000 0.131483 0.000000
# 6 0.000000 0.000000 0.000000 0.000000 0.000000 0.030310
#
#
# Mechanical properties :
#
#
# Convention : Reuss Voigt Hill
#
# Bulk Modulus (GPa) = 42.76415 47.47702 45.12058
# Shear Modulus (GPa) = -55.87726 22.05062 -16.91332
#
# Velocity S-wave (km/s) = -5.23294 3.28729 -2.87901
# Velocity P-wave (km/s) = 3.94388 6.13802 3.32574
#
# Compressibility (1/GPa) = 0.02338408
#
# Stress axis : x y z
#
# Youngs Moduli (GPa) = 66.19835 82.66388 103.56155
#
# Poissons Ratio (x) = 0.11404 0.15767
# Poissons Ratio (y) = 0.09133 0.39722
# Poissons Ratio (z) = 0.10079 0.31706
#
# Static dielectric constant tensor:
#      x y z
#    x 1.804620 0.000000 0.000000 
#    y 0.000000 1.706990 0.000000 
#    z 0.000000 0.000000 1.804800 
# 
# From -- ./inp_files/68618.got.cif
#   From: 2010.05.17/outbox.cif.g08.bks.cpg/sg65_35_cif.got.tgz:68618.got - 2010.06.03 17:01:31.
