data_PCOD9484398
_publ_section_title
;
Structure prediction by ZEFSAII (Michael W. Deem and Ramdas Pophale) SiO2 
 PCOD9484398
Probable space group: C M M M
;
_chemical_formula_sum "Si O2"
_cell_formula_units_Z 64
_cell_length_a 8.408022
_cell_length_b 28.625274
_cell_length_c 13.546472
_cell_angle_alpha 90.000000
_cell_angle_beta 90.000000
_cell_angle_gamma 90.000000
_cell_volume 3260.391074
_symmetry_space_group_name_H-M "C M M M"
_symmetry_group_IT_number 65
_symmetry_cell_setting 'orthorhombic'
loop_
_space_group_symop_operation_xyz
x,y,z
-x,-y,z
x,-y,-z
-x,y,-z
-x,-y,-z
x,y,-z
-x,y,z
x,-y,z
1/2+x,1/2+y,z
1/2-x,1/2-y,z
1/2+x,1/2-y,-z
1/2-x,1/2+y,-z
1/2-x,1/2-y,-z
1/2+x,1/2+y,-z
1/2-x,1/2+y,z
1/2+x,1/2-y,z
loop_
_atom_site_type_symbol
_atom_site_label
_atom_site_fract_x
_atom_site_fract_y
_atom_site_fract_z
Si Si1 0.192511 0.391409 0.303784
Si Si2 0.806673 0.445001 0.108552
Si Si3 0.305623 0.946025 0.500000
Si Si4 0.811497 0.802889 0.789102
Si Si5 0.310829 0.803494 0.000000
O O1 0.250073 0.418390 0.205483
O O2 0.244523 0.418568 0.401711
O O3 0.251202 0.338481 0.293545
O O4 0.000000 0.391327 0.302865
O O5 0.768825 0.500000 0.116274
O O6 0.000000 0.441458 0.108269
O O7 0.752167 0.428263 0.000000
O O8 0.500000 0.946645 0.500000
O O9 0.253751 0.000000 0.500000
O O10 0.750000 0.750000 0.776230
O O11 0.748979 0.821946 0.895170
O O12 0.000000 0.801525 0.792632
O O13 0.250000 0.750000 0.000000
O O14 0.500000 0.805317 0.000000
#
# Coordination Sequence:
#
# PCOD9484398 Si02
#       5
#    16  16   8  16   8
#     4  10  19  32  54  82 111 147 191 236 285 336
#     4   8  14  25  44  74 108 139 176 223 273 330
#     4   9  18  34  58  87 116 147 190 243 286 333
#     4  11  22  37  55  80 114 151 191 235 283 338
#     4  10  18  32  54  80 111 148 187 226 274 329
#
# _framework density 19.629548
#
# number of rings (size 3 to 8) (size 9 to 14) (size 15 to 20)
#    0.000    2.375    0.000    6.375    1.750    3.000 
#    0.000    1.250    0.000    3.750    0.000    1.750 
#    0.000    0.000    0.000    0.000    0.000    0.000 
#
# Total GULP energy -178603.921819 kJ/mol
# GULP energy per Si atom -5581.372557 kJ/mol
# Density = 1.958487 g / cm^3
# Si number density = 19.629548 Si / 1000 Ang^3
#
#
#
# Elastic Constant Matrix: (Units=GPa)
#
#
# Indices 1 2 3 4 5 6 
#
# 1 53.4742 21.2939 32.9286 0.0000 0.0000 0.0000
# 2 21.2939 131.4322 103.2013 0.0000 0.0000 0.0000
# 3 32.9286 103.2013 163.4004 0.0000 0.0000 0.0000
# 4 0.0000 0.0000 0.0000 37.6200 0.0000 0.0000
# 5 0.0000 0.0000 0.0000 0.0000 12.3743 0.0000
# 6 0.0000 0.0000 0.0000 0.0000 0.0000 16.0927
#
#
#
# Elastic Compliance Matrix: (Units=1/GPa)
#
#
# Indices 1 2 3 4 5 6 
#
# 1 0.021352 -0.000160 -0.004202 0.000000 0.000000 0.000000
# 2 -0.000160 0.015095 -0.009502 0.000000 0.000000 0.000000
# 3 -0.004202 -0.009502 0.012968 0.000000 0.000000 0.000000
# 4 0.000000 0.000000 0.000000 0.026582 0.000000 0.000000
# 5 0.000000 0.000000 0.000000 0.000000 0.080813 0.000000
# 6 0.000000 0.000000 0.000000 0.000000 0.000000 0.062140
#
#
# Mechanical properties :
#
#
# Convention : Reuss Voigt Hill
#
# Bulk Modulus (GPa) = 46.10886 73.68382 59.89634
# Shear Modulus (GPa) = 19.69238 25.94291 22.81765
#
# Velocity S-wave (km/s) = 3.17077 3.63936 3.41312
# Velocity P-wave (km/s) = 6.07829 7.43496 6.79059
#
# Compressibility (1/GPa) = 0.02168781
#
# Stress axis : x y z
#
# Youngs Moduli (GPa) = 46.83465 66.24646 77.11434
#
# Poissons Ratio (x) = 0.01060 0.32401
# Poissons Ratio (y) = 0.00750 0.73271
# Poissons Ratio (z) = 0.19679 0.62945
#
# Static dielectric constant tensor:
#      x y z
#    x 1.661930 0.000000 0.000000 
#    y 0.000000 1.700110 0.000000 
#    z 0.000000 0.000000 1.698820 
# 
# From -- ./inp_files/21018.got.cif
#   From: 2010.05.17/outbox.cif.g08.bks.cpg/sg65_11_cif.got.tgz:21018.got - 2010.06.03 17:01:31.
