data_PCOD9484676
_publ_section_title
;
Structure prediction by ZEFSAII (Michael W. Deem and Ramdas Pophale) SiO2 
 PCOD9484676
Probable space group: C M M M
;
_chemical_formula_sum "Si O2"
_cell_formula_units_Z 92
_cell_length_a 7.568426
_cell_length_b 23.696553
_cell_length_c 29.122521
_cell_angle_alpha 90.000000
_cell_angle_beta 90.000000
_cell_angle_gamma 90.000000
_cell_volume 5222.996230
_symmetry_space_group_name_H-M "C M M M"
_symmetry_group_IT_number 65
_symmetry_cell_setting 'orthorhombic'
loop_
_space_group_symop_operation_xyz
x,y,z
-x,-y,z
x,-y,-z
-x,y,-z
-x,-y,-z
x,y,-z
-x,y,z
x,-y,z
1/2+x,1/2+y,z
1/2-x,1/2-y,z
1/2+x,1/2-y,-z
1/2-x,1/2+y,-z
1/2-x,1/2-y,-z
1/2+x,1/2+y,-z
1/2-x,1/2+y,z
1/2+x,1/2-y,z
loop_
_atom_site_type_symbol
_atom_site_label
_atom_site_fract_x
_atom_site_fract_y
_atom_site_fract_z
Si Si1 0.211334 0.683573 0.384217
Si Si2 0.500000 0.376174 0.554054
Si Si3 0.500000 0.500000 0.593723
Si Si4 0.215327 0.500000 0.673372
Si Si5 0.709408 0.121046 0.291985
Si Si6 0.708599 0.316239 0.198266
Si Si7 0.787805 0.817116 0.901166
Si Si8 0.787602 0.182731 0.000000
O O1 0.250000 0.750000 0.386191
O O2 0.328393 0.651549 0.421869
O O3 0.271881 0.659472 0.334492
O O4 0.000000 0.674368 0.389802
O O5 0.500000 0.365521 0.500000
O O6 0.500000 0.442756 0.564749
O O7 0.326340 0.500000 0.626401
O O8 0.268359 0.443207 0.700354
O O9 0.000000 0.500000 0.666278
O O10 0.500000 0.119697 0.296876
O O11 0.744245 0.147781 0.242644
O O12 0.500000 0.319581 0.193832
O O13 0.750000 0.250000 0.205382
O O14 0.782527 0.336250 0.148627
O O15 0.750000 0.750000 0.901079
O O16 0.000000 0.824989 0.901841
O O17 0.720328 0.839187 0.950562
O O18 0.750000 0.250000 0.000000
O O19 0.000000 0.175898 0.000000
#
# Coordination Sequence:
#
# PCOD9484676 Si02
#       8
#    16   8   4   8  16  16  16   8
#     4  11  23  41  63  90 121 154 190 229 275 337
#     4  12  27  44  66  94 122 153 190 231 279 328
#     4  12  23  44  72  88 116 152 192 229 280 318
#     4  10  22  39  61  85 110 139 183 229 267 323
#     4  10  21  36  56  78 104 138 174 216 270 320
#     4  10  19  28  43  69 102 134 170 212 261 316
#     4   8  14  23  34  54  83 121 164 207 250 301
#     4   8  12  20  34  48  74 117 164 205 247 295
#
# _framework density 17.614411
#
# number of rings (size 3 to 8) (size 9 to 14) (size 15 to 20)
#    0.000    2.087    2.609    1.174    2.435    2.783 
#    0.000    0.000    0.000    1.565    0.000    0.000 
#    0.000    0.696    0.000    8.696    0.000    1.565 
#
# Total GULP energy -256241.162487 kJ/mol
# GULP energy per Si atom -5570.460054 kJ/mol
# Density = 1.757432 g / cm^3
# Si number density = 17.614411 Si / 1000 Ang^3
#
#
#
# Elastic Constant Matrix: (Units=GPa)
#
#
# Indices 1 2 3 4 5 6 
#
# 1 69.6903 21.8089 33.7616 0.0000 0.0000 0.0000
# 2 21.8089 97.8017 65.4674 0.0000 0.0000 0.0000
# 3 33.7616 65.4674 199.7240 0.0000 0.0000 0.0000
# 4 0.0000 0.0000 0.0000 4.2410 0.0000 0.0000
# 5 0.0000 0.0000 0.0000 0.0000 88.2964 0.0000
# 6 0.0000 0.0000 0.0000 0.0000 0.0000 -1.0487
#
#
#
# Elastic Compliance Matrix: (Units=1/GPa)
#
#
# Indices 1 2 3 4 5 6 
#
# 1 0.016007 -0.002252 -0.001968 0.000000 0.000000 0.000000
# 2 -0.002252 0.013416 -0.004017 0.000000 0.000000 0.000000
# 3 -0.001968 -0.004017 0.006656 0.000000 0.000000 0.000000
# 4 0.000000 0.000000 0.000000 0.235792 0.000000 0.000000
# 5 0.000000 0.000000 0.000000 0.000000 0.011325 0.000000
# 6 0.000000 0.000000 0.000000 0.000000 0.000000 -0.953571
#
#
# Mechanical properties :
#
#
# Convention : Reuss Voigt Hill
#
# Bulk Modulus (GPa) = 51.00558 67.69908 59.35233
# Shear Modulus (GPa) = -7.72362 34.70961 13.49300
#
# Velocity S-wave (km/s) = -2.09627 4.44387 2.77071
# Velocity P-wave (km/s) = 4.81253 8.05283 6.63357
#
# Compressibility (1/GPa) = 0.01960570
#
# Stress axis : x y z
#
# Youngs Moduli (GPa) = 62.47162 74.53867 150.23632
#
# Poissons Ratio (x) = 0.16789 0.29560
# Poissons Ratio (y) = 0.14071 0.60347
# Poissons Ratio (z) = 0.12292 0.29941
#
# Static dielectric constant tensor:
#      x y z
#    x 1.650130 0.000000 0.000000 
#    y 0.000000 1.559020 0.000000 
#    z 0.000000 0.000000 1.684640 
# 
# From -- ./inp_files/73266.got.cif
#   From: 2010.05.17/outbox.cif.g08.bks.cpg/sg65_37_cif.got.tgz:73266.got - 2010.06.03 17:01:31.
