data_PCOD9484517
_publ_section_title
;
Structure prediction by ZEFSAII (Michael W. Deem and Ramdas Pophale) SiO2 
 PCOD9484517
Probable space group: C M M M
;
_chemical_formula_sum "Si O2"
_cell_formula_units_Z 64
_cell_length_a 8.509434
_cell_length_b 14.737398
_cell_length_c 27.420316
_cell_angle_alpha 90.000000
_cell_angle_beta 90.000000
_cell_angle_gamma 90.000000
_cell_volume 3438.697255
_symmetry_space_group_name_H-M "C M M M"
_symmetry_group_IT_number 65
_symmetry_cell_setting 'orthorhombic'
loop_
_space_group_symop_operation_xyz
x,y,z
-x,-y,z
x,-y,-z
-x,y,-z
-x,-y,-z
x,y,-z
-x,y,z
x,-y,z
1/2+x,1/2+y,z
1/2-x,1/2-y,z
1/2+x,1/2-y,-z
1/2-x,1/2+y,-z
1/2-x,1/2-y,-z
1/2+x,1/2+y,-z
1/2-x,1/2+y,z
1/2+x,1/2-y,z
loop_
_atom_site_type_symbol
_atom_site_label
_atom_site_fract_x
_atom_site_fract_y
_atom_site_fract_z
Si Si1 0.691652 0.000000 0.055620
Si Si2 0.308608 0.000000 0.211720
Si Si3 0.687423 0.352670 0.602792
Si Si4 0.687635 0.146301 0.500000
Si Si5 0.189607 0.647953 0.866219
Si Si6 0.310976 0.000000 0.676339
O O1 0.739261 0.911406 0.086670
O O2 0.500000 0.000000 0.054943
O O3 0.746998 0.000000 0.000000
O O4 0.259914 0.911370 0.180828
O O5 0.256767 0.000000 0.267542
O O6 0.500000 0.000000 0.211815
O O7 0.500000 0.351743 0.601560
O O8 0.750000 0.250000 0.607523
O O9 0.749538 0.391343 0.551049
O O10 0.748947 0.413293 0.646895
O O11 0.500000 0.144651 0.500000
O O12 0.750000 0.250000 0.500000
O O13 0.250000 0.750000 0.866257
O O14 0.000000 0.650014 0.866125
O O15 0.500000 0.000000 0.675479
#
# Coordination Sequence:
#
# PCOD9484517 Si02
#       6
#     8   8  16   8  16   8
#     4   8  15  29  49  73 106 145 178 208 251 311
#     4   8  18  36  54  71  99 136 172 213 262 317
#     4  11  22  38  57  81 110 141 175 215 264 319
#     4  10  18  33  56  81 107 140 176 213 259 313
#     4   9  17  32  53  76 101 135 177 216 258 308
#     4  11  22  38  57  79 105 136 176 223 272 320
#
# _framework density 18.611699999999999
#
# number of rings (size 3 to 8) (size 9 to 14) (size 15 to 20)
#    0.000    2.375    0.000    6.750    0.000    2.000 
#    0.000   10.000    0.000    0.750    0.000    0.000 
#    0.000    0.000    0.000    0.000    0.000    0.000 
#
# Total GULP energy -178577.514360 kJ/mol
# GULP energy per Si atom -5580.547324 kJ/mol
# Density = 1.856934 g / cm^3
# Si number density = 18.611700 Si / 1000 Ang^3
#
#
#
# Elastic Constant Matrix: (Units=GPa)
#
#
# Indices 1 2 3 4 5 6 
#
# 1 88.6910 32.5402 46.7465 0.0000 0.0000 0.0000
# 2 32.5402 166.4454 104.8763 0.0000 0.0000 0.0000
# 3 46.7465 104.8763 219.5419 0.0000 0.0000 0.0000
# 4 0.0000 0.0000 0.0000 13.7577 0.0000 0.0000
# 5 0.0000 0.0000 0.0000 0.0000 15.6486 0.0000
# 6 0.0000 0.0000 0.0000 0.0000 0.0000 31.5658
#
#
#
# Elastic Compliance Matrix: (Units=1/GPa)
#
#
# Indices 1 2 3 4 5 6 
#
# 1 0.012847 -0.001127 -0.002197 0.000000 0.000000 0.000000
# 2 -0.001127 0.008694 -0.003913 0.000000 0.000000 0.000000
# 3 -0.002197 -0.003913 0.006892 0.000000 0.000000 0.000000
# 4 0.000000 0.000000 0.000000 0.072687 0.000000 0.000000
# 5 0.000000 0.000000 0.000000 0.000000 0.063903 0.000000
# 6 0.000000 0.000000 0.000000 0.000000 0.000000 0.031680
#
#
# Mechanical properties :
#
#
# Convention : Reuss Voigt Hill
#
# Bulk Modulus (GPa) = 71.64325 93.66713 82.65519
# Shear Modulus (GPa) = 23.16637 31.56210 27.36423
#
# Velocity S-wave (km/s) = 3.53189 4.12250 3.83857
# Velocity P-wave (km/s) = 7.43031 8.54964 8.00955
#
# Compressibility (1/GPa) = 0.01395805
#
# Stress axis : x y z
#
# Youngs Moduli (GPa) = 77.84153 115.02168 145.09480
#
# Poissons Ratio (x) = 0.12966 0.31876
# Poissons Ratio (y) = 0.08775 0.56778
# Poissons Ratio (z) = 0.17101 0.45010
#
# Static dielectric constant tensor:
#      x y z
#    x 1.628610 0.000000 0.000000 
#    y 0.000000 1.632150 0.000000 
#    z 0.000000 0.000000 1.648020 
# 
# From -- ./inp_files/66906.got.cif
#   From: 2010.05.17/outbox.cif.g08.bks.cpg/sg65_34_cif.got.tgz:66906.got - 2010.06.03 17:01:31.
