data_PCOD9484767
_publ_section_title
;
Structure prediction by ZEFSAII (Michael W. Deem and Ramdas Pophale) SiO2 
 PCOD9484767
Probable space group: C M M M
;
_chemical_formula_sum "Si O2"
_cell_formula_units_Z 88
_cell_length_a 7.342541
_cell_length_b 18.887161
_cell_length_c 29.639719
_cell_angle_alpha 90.000000
_cell_angle_beta 90.000000
_cell_angle_gamma 90.000000
_cell_volume 4110.428940
_symmetry_space_group_name_H-M "C M M M"
_symmetry_group_IT_number 65
_symmetry_cell_setting 'orthorhombic'
loop_
_space_group_symop_operation_xyz
x,y,z
-x,-y,z
x,-y,-z
-x,y,-z
-x,-y,-z
x,y,-z
-x,y,z
x,-y,z
1/2+x,1/2+y,z
1/2-x,1/2-y,z
1/2+x,1/2-y,-z
1/2-x,1/2+y,-z
1/2-x,1/2-y,-z
1/2+x,1/2+y,-z
1/2-x,1/2+y,z
1/2+x,1/2-y,z
loop_
_atom_site_type_symbol
_atom_site_label
_atom_site_fract_x
_atom_site_fract_y
_atom_site_fract_z
Si Si1 0.717273 0.666850 0.137158
Si Si2 0.278195 0.582069 0.324903
Si Si3 0.278293 0.418051 0.223848
Si Si4 0.717287 0.666492 0.588318
Si Si5 0.722770 0.417899 0.500000
Si Si6 0.278246 0.582125 0.050303
O O1 0.500000 0.655493 0.137187
O O2 0.750000 0.750000 0.136937
O O3 0.786486 0.630304 0.182900
O O4 0.786521 0.629693 0.091627
O O5 0.500000 0.583301 0.324742
O O6 0.226421 0.500000 0.332784
O O7 0.219692 0.602866 0.274356
O O8 0.214138 0.632349 0.365069
O O9 0.500000 0.416147 0.224114
O O10 0.227110 0.500000 0.216442
O O11 0.500000 0.656685 0.588742
O O12 0.750000 0.750000 0.585009
O O13 0.784068 0.623736 0.544645
O O14 0.777797 0.500000 0.500000
O O15 0.500000 0.417362 0.500000
O O16 0.500000 0.583859 0.050168
O O17 0.226840 0.500000 0.056932
O O18 0.219869 0.604464 0.000000
#
# Coordination Sequence:
#
# PCOD9484767 Si02
#       6
#    16  16  16  16   8  16
#     4  10  19  29  43  65  91 116 141 173 216 261
#     4   8  14  26  45  67  87 110 146 187 218 246
#     4   8  14  26  45  66  85 109 147 189 217 242
#     4  10  19  30  46  68  93 118 143 176 219 263
#     4   9  17  30  49  69  86 111 152 192 216 243
#     4   8  14  26  45  66  84 106 143 186 217 244
#
# _framework density 21.408957000000001
#
# number of rings (size 3 to 8) (size 9 to 14) (size 15 to 20)
#    0.000    3.182    0.000    3.000    0.000    5.455 
#    0.000    0.000    0.000    4.909    0.000    3.818 
#    0.000    0.000    0.000    0.000    0.000    0.000 
#
# Total GULP energy -245657.166756 kJ/mol
# GULP energy per Si atom -5583.117426 kJ/mol
# Density = 2.136023 g / cm^3
# Si number density = 21.408957 Si / 1000 Ang^3
#
#
#
# Elastic Constant Matrix: (Units=GPa)
#
#
# Indices 1 2 3 4 5 6 
#
# 1 81.0896 -1.4714 10.2691 0.0000 0.0000 0.0000
# 2 -1.4714 164.9373 166.9849 0.0000 0.0000 0.0000
# 3 10.2691 166.9849 268.8713 0.0000 0.0000 0.0000
# 4 0.0000 0.0000 0.0000 1.7341 0.0000 0.0000
# 5 0.0000 0.0000 0.0000 0.0000 -9.6801 0.0000
# 6 0.0000 0.0000 0.0000 0.0000 0.0000 18.0124
#
#
#
# Elastic Compliance Matrix: (Units=1/GPa)
#
#
# Indices 1 2 3 4 5 6 
#
# 1 0.012548 0.001609 -0.001478 0.000000 0.000000 0.000000
# 2 0.001609 0.016538 -0.010333 0.000000 0.000000 0.000000
# 3 -0.001478 -0.010333 0.010193 0.000000 0.000000 0.000000
# 4 0.000000 0.000000 0.000000 0.576683 0.000000 0.000000
# 5 0.000000 0.000000 0.000000 0.000000 -0.103305 0.000000
# 6 0.000000 0.000000 0.000000 0.000000 0.000000 0.055517
#
#
# Mechanical properties :
#
#
# Convention : Reuss Voigt Hill
#
# Bulk Modulus (GPa) = 52.98061 96.27372 74.62717
# Shear Modulus (GPa) = 8.40519 24.62098 16.51308
#
# Velocity S-wave (km/s) = 1.98357 3.39489 2.78027
# Velocity P-wave (km/s) = 5.48149 7.77390 6.72608
#
# Compressibility (1/GPa) = 0.01887483
#
# Stress axis : x y z
#
# Youngs Moduli (GPa) = 79.69122 60.46637 98.10794
#
# Poissons Ratio (x) = -0.09727 0.14503
# Poissons Ratio (y) = -0.12819 1.01371
# Poissons Ratio (z) = 0.11781 0.62477
#
# Static dielectric constant tensor:
#      x y z
#    x 1.857420 0.000000 0.000000 
#    y 0.000000 1.703890 0.000000 
#    z 0.000000 0.000000 1.768150 
# 
# From -- ./inp_files/74266.got.cif
#   From: 2010.05.17/outbox.cif.g08.bks.cpg/sg65_38_cif.got.tgz:74266.got - 2010.06.03 17:01:31.
