data_PCOD9484996
_publ_section_title
;
Structure prediction by ZEFSAII (Michael W. Deem and Ramdas Pophale) SiO2 
 PCOD9484996
Probable space group: C M M M
;
_chemical_formula_sum "Si O2"
_cell_formula_units_Z 88
_cell_length_a 7.704645
_cell_length_b 28.165941
_cell_length_c 22.150622
_cell_angle_alpha 90.000000
_cell_angle_beta 90.000000
_cell_angle_gamma 90.000000
_cell_volume 4806.874949
_symmetry_space_group_name_H-M "C M M M"
_symmetry_group_IT_number 65
_symmetry_cell_setting 'orthorhombic'
loop_
_space_group_symop_operation_xyz
x,y,z
-x,-y,z
x,-y,-z
-x,y,-z
-x,-y,-z
x,y,-z
-x,y,z
x,-y,z
1/2+x,1/2+y,z
1/2-x,1/2-y,z
1/2+x,1/2-y,-z
1/2-x,1/2+y,-z
1/2-x,1/2-y,-z
1/2+x,1/2+y,-z
1/2-x,1/2+y,z
1/2+x,1/2-y,z
loop_
_atom_site_type_symbol
_atom_site_label
_atom_site_fract_x
_atom_site_fract_y
_atom_site_fract_z
Si Si1 0.706284 0.644957 0.186515
Si Si2 0.293317 0.804005 0.308433
Si Si3 0.713119 0.055236 0.500000
Si Si4 0.709766 0.447088 0.745677
Si Si5 0.290801 0.694596 0.067110
Si Si6 0.207619 0.604149 0.377260
O O1 0.500000 0.639068 0.178460
O O2 0.730296 0.681944 0.241438
O O3 0.776331 0.594656 0.210613
O O4 0.777717 0.664538 0.123567
O O5 0.500000 0.808406 0.307009
O O6 0.250000 0.750000 0.323918
O O7 0.225470 0.844421 0.354575
O O8 0.500000 0.055132 0.500000
O O9 0.772953 0.082650 0.439916
O O10 0.766132 0.000000 0.500000
O O11 0.500000 0.447288 0.749446
O O12 0.772765 0.500000 0.759094
O O13 0.756240 0.431558 0.677846
O O14 0.500000 0.690244 0.066410
O O15 0.250000 0.750000 0.076604
O O16 0.226830 0.681245 0.000000
O O17 0.000000 0.608463 0.383775
#
# Coordination Sequence:
#
# PCOD9484996 Si02
#       6
#    16  16   8  16  16  16
#     4   9  17  29  45  64  87 115 145 177 213 254
#     4  10  19  30  45  65  89 115 144 178 214 253
#     4   9  16  28  48  69  87 109 139 177 218 255
#     4   9  17  29  45  65  89 115 142 175 216 257
#     4   9  17  28  42  61  85 112 141 174 212 253
#     4   9  18  31  47  67  88 112 144 179 213 253
#
# _framework density 18.307113000000001
#
# number of rings (size 3 to 8) (size 9 to 14) (size 15 to 20)
#    0.000    2.818    0.000    1.636    0.000    4.000 
#    0.000    0.909    0.000    2.182    0.000    3.818 
#    0.000    0.000    0.000   13.636    0.000   14.182 
#
# Total GULP energy -245300.644567 kJ/mol
# GULP energy per Si atom -5575.014649 kJ/mol
# Density = 1.826545 g / cm^3
# Si number density = 18.307113 Si / 1000 Ang^3
#
#
#
# Elastic Constant Matrix: (Units=GPa)
#
#
# Indices 1 2 3 4 5 6 
#
# 1 25.0809 1.8323 8.5260 0.0000 0.0000 0.0000
# 2 1.8323 142.4750 97.9974 0.0000 0.0000 0.0000
# 3 8.5260 97.9974 180.3057 0.0000 0.0000 0.0000
# 4 0.0000 0.0000 0.0000 19.4327 0.0000 0.0000
# 5 0.0000 0.0000 0.0000 0.0000 14.4798 0.0000
# 6 0.0000 0.0000 0.0000 0.0000 0.0000 7.9282
#
#
#
# Elastic Compliance Matrix: (Units=1/GPa)
#
#
# Indices 1 2 3 4 5 6 
#
# 1 0.040667 0.001277 -0.002617 0.000000 0.000000 0.000000
# 2 0.001277 0.011249 -0.006174 0.000000 0.000000 0.000000
# 3 -0.002617 -0.006174 0.009026 0.000000 0.000000 0.000000
# 4 0.000000 0.000000 0.000000 0.051460 0.000000 0.000000
# 5 0.000000 0.000000 0.000000 0.000000 0.069062 0.000000
# 6 0.000000 0.000000 0.000000 0.000000 0.000000 0.126133
#
#
# Mechanical properties :
#
#
# Convention : Reuss Voigt Hill
#
# Bulk Modulus (GPa) = 21.78013 62.73034 42.25523
# Shear Modulus (GPa) = 14.79597 24.33518 19.56557
#
# Velocity S-wave (km/s) = 2.84599 3.64988 3.27271
# Velocity P-wave (km/s) = 4.76680 7.21818 6.11656
#
# Compressibility (1/GPa) = 0.04591342
#
# Stress axis : x y z
#
# Youngs Moduli (GPa) = 24.58976 88.89468 110.79422
#
# Poissons Ratio (x) = -0.11353 0.28996
# Poissons Ratio (y) = -0.03140 0.68409
# Poissons Ratio (z) = 0.06435 0.54888
#
# Static dielectric constant tensor:
#      x y z
#    x 1.682080 0.000000 0.000000 
#    y 0.000000 1.606900 0.000000 
#    z 0.000000 0.000000 1.626170 
# 
# From -- ./inp_files/60721.got.cif
#   From: 2010.05.17/outbox.cif.g08.bks.cpg/sg65_31_cif.got.tgz:60721.got - 2010.06.03 17:01:31.
