data_PCOD9484904
_publ_section_title
;
Structure prediction by ZEFSAII (Michael W. Deem and Ramdas Pophale) SiO2 
 PCOD9484904
Probable space group: C M M M
;
_chemical_formula_sum "Si O2"
_cell_formula_units_Z 112
_cell_length_a 29.674798
_cell_length_b 7.317007
_cell_length_c 27.436331
_cell_angle_alpha 90.000000
_cell_angle_beta 90.000000
_cell_angle_gamma 90.000000
_cell_volume 5957.269884
_symmetry_space_group_name_H-M "C M M M"
_symmetry_group_IT_number 65
_symmetry_cell_setting 'orthorhombic'
loop_
_space_group_symop_operation_xyz
x,y,z
-x,-y,z
x,-y,-z
-x,y,-z
-x,-y,-z
x,y,-z
-x,y,z
x,-y,z
1/2+x,1/2+y,z
1/2-x,1/2-y,z
1/2+x,1/2-y,-z
1/2-x,1/2+y,-z
1/2-x,1/2-y,-z
1/2+x,1/2+y,-z
1/2-x,1/2+y,z
1/2+x,1/2-y,z
loop_
_atom_site_type_symbol
_atom_site_label
_atom_site_fract_x
_atom_site_fract_y
_atom_site_fract_z
Si Si1 0.696432 0.718450 0.158926
Si Si2 0.145140 0.776860 0.553534
Si Si3 0.049912 0.777930 0.407132
Si Si4 0.696949 0.717486 0.649195
Si Si5 0.855549 0.776291 0.254464
Si Si6 0.950020 0.777992 0.293532
Si Si7 0.196119 0.217991 0.947547
O O1 0.690784 0.500000 0.157642
O O2 0.750000 0.750000 0.165403
O O3 0.668318 0.786456 0.205010
O O4 0.681480 0.788581 0.105487
O O5 0.160623 0.718679 0.500000
O O6 0.093388 0.720352 0.562788
O O7 0.174921 0.713615 0.599103
O O8 0.145808 0.000000 0.553889
O O9 0.056166 0.725955 0.350332
O O10 0.000000 0.718158 0.423093
O O11 0.049584 0.000000 0.408313
O O12 0.689489 0.500000 0.648981
O O13 0.750000 0.750000 0.651070
O O14 0.672301 0.784519 0.697927
O O15 0.907281 0.719516 0.262141
O O16 0.854737 0.000000 0.253987
O O17 0.000000 0.718600 0.277981
O O18 0.950035 0.000000 0.293184
O O19 0.250000 0.250000 0.947762
O O20 0.188661 0.000000 0.947675
O O21 0.178904 0.288510 0.000000
#
# Coordination Sequence:
#
# PCOD9484904 Si02
#       7
#    16  16  16  16  16  16  16
#     4   9  16  24  35  52  74  99 126 153 180 211
#     4   9  16  25  36  51  72  96 120 146 178 216
#     4   8  12  19  32  50  72  95 115 137 174 223
#     4  10  19  30  42  55  73  98 125 151 179 210
#     4   9  15  24  37  53  74  97 120 148 182 216
#     4   8  12  19  33  51  71  94 116 140 176 220
#     4   8  13  21  32  46  66  93 123 152 180 209
#
# _framework density 18.800559
#
# number of rings (size 3 to 8) (size 9 to 14) (size 15 to 20)
#    0.000    3.286    1.429    1.286    0.000    0.571 
#    0.000    1.429    0.000    0.000    0.000    0.000 
#    0.000    4.571    0.000    9.286    0.000    1.429 
#
# Total GULP energy -312178.952831 kJ/mol
# GULP energy per Si atom -5574.624158 kJ/mol
# Density = 1.875777 g / cm^3
# Si number density = 18.800559 Si / 1000 Ang^3
#
#
#
# Elastic Constant Matrix: (Units=GPa)
#
#
# Indices 1 2 3 4 5 6 
#
# 1 109.9330 -1.3100 85.7071 0.0000 0.0000 0.0000
# 2 -1.3100 76.3700 10.3107 0.0000 0.0000 0.0000
# 3 85.7071 10.3107 190.4678 0.0000 0.0000 0.0000
# 4 0.0000 0.0000 0.0000 -9.7725 0.0000 0.0000
# 5 0.0000 0.0000 0.0000 0.0000 10.5699 0.0000
# 6 0.0000 0.0000 0.0000 0.0000 0.0000 2.0029
#
#
#
# Elastic Compliance Matrix: (Units=1/GPa)
#
#
# Indices 1 2 3 4 5 6 
#
# 1 0.014104 0.001107 -0.006407 0.000000 0.000000 0.000000
# 2 0.001107 0.013277 -0.001217 0.000000 0.000000 0.000000
# 3 -0.006407 -0.001217 0.008199 0.000000 0.000000 0.000000
# 4 0.000000 0.000000 0.000000 -0.102328 0.000000 0.000000
# 5 0.000000 0.000000 0.000000 0.000000 0.094608 0.000000
# 6 0.000000 0.000000 0.000000 0.000000 0.000000 0.499267
#
#
# Mechanical properties :
#
#
# Convention : Reuss Voigt Hill
#
# Bulk Modulus (GPa) = 44.35051 62.90961 53.63006
# Shear Modulus (GPa) = 9.12947 19.36427 14.24687
#
# Velocity S-wave (km/s) = 2.20601 3.21282 2.75578
# Velocity P-wave (km/s) = 5.48907 6.87729 6.22202
#
# Compressibility (1/GPa) = 0.02254765
#
# Stress axis : x y z
#
# Youngs Moduli (GPa) = 70.89937 75.31583 121.96608
#
# Poissons Ratio (x) = -0.08337 0.78140
# Poissons Ratio (y) = -0.07848 0.14841
# Poissons Ratio (z) = 0.45423 0.09165
#
# Static dielectric constant tensor:
#      x y z
#    x 1.630440 0.000000 0.000000 
#    y 0.000000 1.762340 0.000000 
#    z 0.000000 0.000000 1.674800 
# 
# From -- ./inp_files/69336.got.cif
#   From: 2010.05.17/outbox.cif.g08.bks.cpg/sg65_35_cif.got.tgz:69336.got - 2010.06.03 17:01:31.
