data_PCOD9484159
_publ_section_title
;
Structure prediction by ZEFSAII (Michael W. Deem and Ramdas Pophale) SiO2 
 PCOD9484159
Probable space group: C M M M
;
_chemical_formula_sum "Si O2"
_cell_formula_units_Z 72
_cell_length_a 7.659676
_cell_length_b 26.031946
_cell_length_c 17.399798
_cell_angle_alpha 90.000000
_cell_angle_beta 90.000000
_cell_angle_gamma 90.000000
_cell_volume 3469.454855
_symmetry_space_group_name_H-M "C M M M"
_symmetry_group_IT_number 65
_symmetry_cell_setting 'orthorhombic'
loop_
_space_group_symop_operation_xyz
x,y,z
-x,-y,z
x,-y,-z
-x,y,-z
-x,-y,-z
x,y,-z
-x,y,z
x,-y,z
1/2+x,1/2+y,z
1/2-x,1/2-y,z
1/2+x,1/2-y,-z
1/2-x,1/2+y,-z
1/2-x,1/2-y,-z
1/2+x,1/2+y,-z
1/2-x,1/2+y,z
1/2+x,1/2-y,z
loop_
_atom_site_type_symbol
_atom_site_label
_atom_site_fract_x
_atom_site_fract_y
_atom_site_fract_z
Si Si1 0.786817 0.500000 0.087345
Si Si2 0.713881 0.331995 0.417730
Si Si3 0.297895 0.444569 0.380707
Si Si4 0.795853 0.417834 0.789844
Si Si5 0.792614 0.194229 0.248819
O O1 0.733840 0.549889 0.136941
O O2 0.000000 0.500000 0.084114
O O3 0.723583 0.500000 0.000000
O O4 0.770676 0.310144 0.500000
O O5 0.500000 0.331127 0.416479
O O6 0.773528 0.391506 0.413575
O O7 0.774723 0.307752 0.337500
O O8 0.500000 0.446107 0.404828
O O9 0.218549 0.500000 0.399778
O O10 0.293377 0.436727 0.288571
O O11 0.775302 0.356421 0.793879
O O12 0.000000 0.429500 0.779546
O O13 0.750000 0.250000 0.215784
O O14 0.000000 0.188556 0.251688
#
# Coordination Sequence:
#
# PCOD9484159 Si02
#       5
#     8  16  16  16  16
#     4   9  18  32  53  83 112 135 160 192 239 295
#     4   8  15  27  42  64  94 127 165 209 256 300
#     4   9  16  26  43  66  95 131 168 207 247 291
#     4  10  18  31  52  76 102 133 165 202 243 293
#     4  10  20  34  52  74  98 130 171 215 254 296
#
# _framework density 20.752538000000001
#
# number of rings (size 3 to 8) (size 9 to 14) (size 15 to 20)
#    0.000    2.778    1.111    2.667    0.000    0.889 
#    0.000    2.222    0.000   22.000    0.000    6.222 
#    0.000    0.000    0.000    0.000    0.000    0.000 
#
# Total GULP energy -200794.846592 kJ/mol
# GULP energy per Si atom -5577.634628 kJ/mol
# Density = 2.070530 g / cm^3
# Si number density = 20.752538 Si / 1000 Ang^3
#
#
#
# Elastic Constant Matrix: (Units=GPa)
#
#
# Indices 1 2 3 4 5 6 
#
# 1 48.5800 -6.6890 2.0988 0.0000 0.0000 0.0000
# 2 -6.6890 157.5714 44.3290 0.0000 0.0000 0.0000
# 3 2.0988 44.3290 123.4241 0.0000 0.0000 0.0000
# 4 0.0000 0.0000 0.0000 27.1356 0.0000 0.0000
# 5 0.0000 0.0000 0.0000 0.0000 9.3018 0.0000
# 6 0.0000 0.0000 0.0000 0.0000 0.0000 13.6569
#
#
#
# Elastic Compliance Matrix: (Units=1/GPa)
#
#
# Indices 1 2 3 4 5 6 
#
# 1 0.020767 0.001091 -0.000745 0.000000 0.000000 0.000000
# 2 0.001091 0.007117 -0.002575 0.000000 0.000000 0.000000
# 3 -0.000745 -0.002575 0.009040 0.000000 0.000000 0.000000
# 4 0.000000 0.000000 0.000000 0.036852 0.000000 0.000000
# 5 0.000000 0.000000 0.000000 0.000000 0.107506 0.000000
# 6 0.000000 0.000000 0.000000 0.000000 0.000000 0.073223
#
#
# Mechanical properties :
#
#
# Convention : Reuss Voigt Hill
#
# Bulk Modulus (GPa) = 30.80102 45.45033 38.12568
# Shear Modulus (GPa) = 18.53336 29.34131 23.93733
#
# Velocity S-wave (km/s) = 2.99166 3.76422 3.39996
# Velocity P-wave (km/s) = 5.17761 6.39071 5.81587
#
# Compressibility (1/GPa) = 0.03246645
#
# Stress axis : x y z
#
# Youngs Moduli (GPa) = 48.15320 140.50915 110.62511
#
# Poissons Ratio (x) = -0.15332 0.08242
# Poissons Ratio (y) = -0.05254 0.28482
# Poissons Ratio (z) = 0.03588 0.36177
#
# Static dielectric constant tensor:
#      x y z
#    x 1.779250 0.000000 0.000000 
#    y 0.000000 1.786210 0.000000 
#    z 0.000000 0.000000 1.723410 
# 
# From -- ./inp_files/49737.got.cif
#   From: 2010.05.17/outbox.cif.g08.bks.cpg/sg65_25_cif.got.tgz:49737.got - 2010.06.03 17:01:31.
