data_PCOD9484037
_publ_section_title
;
Structure prediction by ZEFSAII (Michael W. Deem and Ramdas Pophale) SiO2 
 PCOD9484037
Probable space group: C M M M
;
_chemical_formula_sum "Si O2"
_cell_formula_units_Z 116
_cell_length_a 29.298857
_cell_length_b 31.044288
_cell_length_c 7.824786
_cell_angle_alpha 90.000000
_cell_angle_beta 90.000000
_cell_angle_gamma 90.000000
_cell_volume 7117.129215
_symmetry_space_group_name_H-M "C M M M"
_symmetry_group_IT_number 65
_symmetry_cell_setting 'orthorhombic'
loop_
_space_group_symop_operation_xyz
x,y,z
-x,-y,z
x,-y,-z
-x,y,-z
-x,-y,-z
x,y,-z
-x,y,z
x,-y,z
1/2+x,1/2+y,z
1/2-x,1/2-y,z
1/2+x,1/2-y,-z
1/2-x,1/2+y,-z
1/2-x,1/2-y,-z
1/2+x,1/2+y,-z
1/2-x,1/2+y,z
1/2+x,1/2-y,z
loop_
_atom_site_type_symbol
_atom_site_label
_atom_site_fract_x
_atom_site_fract_y
_atom_site_fract_z
Si Si1 0.853789 0.383392 0.200506
Si Si2 0.051616 0.746427 0.708878
Si Si3 0.307300 0.792184 0.204979
Si Si4 0.448723 0.852874 0.293881
Si Si5 0.222420 0.844751 0.199018
Si Si6 0.267426 0.068266 0.689655
Si Si7 0.255876 0.000000 0.000000
Si Si8 0.359576 0.707855 0.696648
O O1 0.836482 0.335117 0.242390
O O2 0.907521 0.383094 0.236506
O O3 0.820283 0.416151 0.294651
O O4 0.846021 0.390049 0.000000
O O5 0.053623 0.746139 0.500000
O O6 0.059415 0.696761 0.763777
O O7 0.091354 0.778087 0.770318
O O8 0.000000 0.758358 0.757549
O O9 0.256164 0.805928 0.255730
O O10 0.329981 0.751632 0.292864
O O11 0.307971 0.783743 0.000000
O O12 0.448496 0.852155 0.500000
O O13 0.500000 0.865065 0.238284
O O14 0.237148 0.888228 0.291826
O O15 0.170847 0.828961 0.218179
O O16 0.233240 0.851599 0.000000
O O17 0.259935 0.050371 0.500000
O O18 0.257052 0.037282 0.847582
O O19 0.365771 0.695377 0.500000
#
# Coordination Sequence:
#
# PCOD9484037 Si02
#       8
#    16  16  16  16  16  16   4  16
#     4  10  18  31  47  70 104 131 167 216 258 297
#     4   8  15  27  40  59  91 131 179 228 260 290
#     4   9  18  29  41  58  90 135 169 205 251 289
#     4   9  16  27  44  65  92 130 176 221 263 301
#     4  10  20  35  47  66 102 132 165 209 249 293
#     4  11  22  38  61  82 104 132 161 200 247 306
#     4  12  22  44  60  86 107 126 155 196 248 322
#     4  11  19  26  43  67  90 131 182 215 249 296
#
# _framework density 16.298705999999999
#
# number of rings (size 3 to 8) (size 9 to 14) (size 15 to 20)
#    0.000    2.207    2.759    3.517    0.000    4.690 
#    0.000    0.000    0.000    1.655    0.000    0.966 
#    0.000    2.207    0.000    1.241    0.000   10.552 
#
# Total GULP energy -322887.640603 kJ/mol
# GULP energy per Si atom -5567.028286 kJ/mol
# Density = 1.626161 g / cm^3
# Si number density = 16.298706 Si / 1000 Ang^3
#
#
#
# Elastic Constant Matrix: (Units=GPa)
#
#
# Indices 1 2 3 4 5 6 
#
# 1 76.1778 28.8163 8.5729 0.0000 0.0000 0.0000
# 2 28.8163 47.6300 22.8681 0.0000 0.0000 0.0000
# 3 8.5729 22.8681 65.5352 0.0000 0.0000 0.0000
# 4 0.0000 0.0000 0.0000 40.6701 0.0000 0.0000
# 5 0.0000 0.0000 0.0000 0.0000 10.8227 0.0000
# 6 0.0000 0.0000 0.0000 0.0000 0.0000 -4.1317
#
#
#
# Elastic Compliance Matrix: (Units=1/GPa)
#
#
# Indices 1 2 3 4 5 6 
#
# 1 0.017171 -0.011184 0.001656 0.000000 0.000000 0.000000
# 2 -0.011184 0.032505 -0.009879 0.000000 0.000000 0.000000
# 3 0.001656 -0.009879 0.018490 0.000000 0.000000 0.000000
# 4 0.000000 0.000000 0.000000 0.024588 0.000000 0.000000
# 5 0.000000 0.000000 0.000000 0.000000 0.092398 0.000000
# 6 0.000000 0.000000 0.000000 0.000000 0.000000 -0.242030
#
#
# Mechanical properties :
#
#
# Convention : Reuss Voigt Hill
#
# Bulk Modulus (GPa) = 34.06939 34.42862 34.24900
# Shear Modulus (GPa) = -603.85128 18.07794 -292.88667
#
# Velocity S-wave (km/s) = -19.26901 3.33403 -13.41974
# Velocity P-wave (km/s) = 21.77409 5.99920 14.80069
#
# Compressibility (1/GPa) = 0.02935186
#
# Stress axis : x y z
#
# Youngs Moduli (GPa) = 58.23632 30.76477 54.08436
#
# Poissons Ratio (x) = 0.34407 -0.08958
# Poissons Ratio (y) = 0.65131 0.53432
# Poissons Ratio (z) = -0.09646 0.30393
#
# Static dielectric constant tensor:
#      x y z
#    x 1.586050 0.000000 0.000000 
#    y 0.000000 1.520090 0.000000 
#    z 0.000000 0.000000 1.588980 
# 
# From -- ./inp_files/17344.got.cif
#   From: 2010.05.17/outbox.cif.g08.bks.cpg/sg65_9_cif.got.tgz:17344.got - 2010.06.03 17:01:31.
