data_PCOD9484595
_publ_section_title
;
Structure prediction by ZEFSAII (Michael W. Deem and Ramdas Pophale) SiO2 
 PCOD9484595
Probable space group: C M M M
;
_chemical_formula_sum "Si O2"
_cell_formula_units_Z 88
_cell_length_a 20.784944
_cell_length_b 15.976114
_cell_length_c 15.441984
_cell_angle_alpha 90.000000
_cell_angle_beta 90.000000
_cell_angle_gamma 90.000000
_cell_volume 5127.705894
_symmetry_space_group_name_H-M "C M M M"
_symmetry_group_IT_number 65
_symmetry_cell_setting 'orthorhombic'
loop_
_space_group_symop_operation_xyz
x,y,z
-x,-y,z
x,-y,-z
-x,y,-z
-x,-y,-z
x,y,-z
-x,y,z
x,-y,z
1/2+x,1/2+y,z
1/2-x,1/2-y,z
1/2+x,1/2-y,-z
1/2-x,1/2+y,-z
1/2-x,1/2-y,-z
1/2+x,1/2+y,-z
1/2-x,1/2+y,z
1/2+x,1/2-y,z
loop_
_atom_site_type_symbol
_atom_site_label
_atom_site_fract_x
_atom_site_fract_y
_atom_site_fract_z
Si Si1 0.887281 0.844545 0.690390
Si Si2 0.392485 0.832560 0.228533
Si Si3 0.071536 0.500000 0.670068
Si Si4 0.244392 0.343871 0.290073
Si Si5 0.000000 0.730906 0.897811
Si Si6 0.423178 0.399532 0.500000
Si Si7 0.500000 0.407952 0.193343
Si Si8 0.704205 0.000000 0.595340
O O1 0.902001 0.746390 0.706868
O O2 0.817931 0.862430 0.733563
O O3 0.891580 0.865559 0.588744
O O4 0.939541 0.896760 0.742870
O O5 0.417367 0.917891 0.271043
O O6 0.314396 0.840294 0.220949
O O7 0.436426 0.809882 0.146368
O O8 0.127086 0.500000 0.599118
O O9 0.000000 0.500000 0.634794
O O10 0.250000 0.250000 0.328730
O O11 0.225209 0.416455 0.355608
O O12 0.000000 0.829137 0.871375
O O13 0.000000 0.720024 0.000000
O O14 0.417683 0.500000 0.500000
O O15 0.500000 0.378757 0.500000
O O16 0.500000 0.500000 0.153061
O O17 0.731143 0.000000 0.500000
#
# Coordination Sequence:
#
# PCOD9484595 Si02
#       8
#    16  16   8  16   8   8   8   8
#     4  10  20  34  53  76 110 152 192 225 273 311
#     4   9  19  38  55  78 109 137 178 221 276 332
#     4  10  18  35  58  68  99 145 174 222 267 319
#     4   9  20  36  53  72 103 148 185 227 276 311
#     4  10  20  36  65  91 109 133 168 220 277 340
#     4  11  22  32  47  77 115 148 193 249 271 296
#     4  10  20  34  55  81 118 148 181 213 263 341
#     4  10  22  33  46  75 104 138 190 233 270 309
#
# _framework density 17.161670999999998
#
# number of rings (size 3 to 8) (size 9 to 14) (size 15 to 20)
#    0.000    2.273    1.818    0.545    3.818    0.727 
#   13.091    0.909    0.000   13.636    0.000    0.000 
#    0.000    0.000    0.000    0.000    0.000    0.000 
#
# Total GULP energy -245004.122688 kJ/mol
# GULP energy per Si atom -5568.275516 kJ/mol
# Density = 1.712261 g / cm^3
# Si number density = 17.161671 Si / 1000 Ang^3
#
#
#
# Elastic Constant Matrix: (Units=GPa)
#
#
# Indices 1 2 3 4 5 6 
#
# 1 134.9662 39.4136 34.0972 0.0000 0.0000 0.0000
# 2 39.4136 94.8504 29.1216 0.0000 0.0000 0.0000
# 3 34.0972 29.1216 91.6254 0.0000 0.0000 0.0000
# 4 0.0000 0.0000 0.0000 2.1933 0.0000 0.0000
# 5 0.0000 0.0000 0.0000 0.0000 11.0632 0.0000
# 6 0.0000 0.0000 0.0000 0.0000 0.0000 19.3705
#
#
#
# Elastic Compliance Matrix: (Units=1/GPa)
#
#
# Indices 1 2 3 4 5 6 
#
# 1 0.008870 -0.002961 -0.002360 0.000000 0.000000 0.000000
# 2 -0.002961 0.012672 -0.002925 0.000000 0.000000 0.000000
# 3 -0.002360 -0.002925 0.012722 0.000000 0.000000 0.000000
# 4 0.000000 0.000000 0.000000 0.455941 0.000000 0.000000
# 5 0.000000 0.000000 0.000000 0.000000 0.090390 0.000000
# 6 0.000000 0.000000 0.000000 0.000000 0.000000 0.051625
#
#
# Mechanical properties :
#
#
# Convention : Reuss Voigt Hill
#
# Bulk Modulus (GPa) = 56.27224 58.52300 57.39762
# Shear Modulus (GPa) = 7.63783 21.11270 14.37527
#
# Velocity S-wave (km/s) = 2.11191 3.51126 2.89734
# Velocity P-wave (km/s) = 6.22957 7.11432 6.68660
#
# Compressibility (1/GPa) = 0.01777075
#
# Stress axis : x y z
#
# Youngs Moduli (GPa) = 112.73698 78.91623 78.60438
#
# Poissons Ratio (x) = 0.23370 0.18548
# Poissons Ratio (y) = 0.33386 0.22995
# Poissons Ratio (z) = 0.26603 0.23086
#
# Static dielectric constant tensor:
#      x y z
#    x 1.651060 0.000000 0.000000 
#    y 0.000000 1.610100 0.000000 
#    z 0.000000 0.000000 1.517170 
# 
# From -- ./inp_files/44076.got.cif
#   From: 2010.05.17/outbox.cif.g08.bks.cpg/sg65_23_cif.got.tgz:44076.got - 2010.06.03 17:01:31.
