data_PCOD9484432
_publ_section_title
;
Structure prediction by ZEFSAII (Michael W. Deem and Ramdas Pophale) SiO2 
 PCOD9484432
Probable space group: C M M M
;
_chemical_formula_sum "Si O2"
_cell_formula_units_Z 72
_cell_length_a 18.773802
_cell_length_b 8.502381
_cell_length_c 24.084461
_cell_angle_alpha 90.000000
_cell_angle_beta 90.000000
_cell_angle_gamma 90.000000
_cell_volume 3844.410253
_symmetry_space_group_name_H-M "C M M M"
_symmetry_group_IT_number 65
_symmetry_cell_setting 'orthorhombic'
loop_
_space_group_symop_operation_xyz
x,y,z
-x,-y,z
x,-y,-z
-x,y,-z
-x,-y,-z
x,y,-z
-x,y,z
x,-y,z
1/2+x,1/2+y,z
1/2-x,1/2-y,z
1/2+x,1/2-y,-z
1/2-x,1/2+y,-z
1/2-x,1/2-y,-z
1/2+x,1/2+y,-z
1/2-x,1/2+y,z
1/2+x,1/2-y,z
loop_
_atom_site_type_symbol
_atom_site_label
_atom_site_fract_x
_atom_site_fract_y
_atom_site_fract_z
Si Si1 0.582594 0.190346 0.721822
Si Si2 0.917555 0.691649 0.062283
Si Si3 0.330099 0.190277 0.831027
Si Si4 0.168707 0.312776 0.500000
Si Si5 0.330961 0.312962 0.616611
O O1 0.500000 0.237800 0.723538
O O2 0.623525 0.239483 0.777783
O O3 0.622429 0.257300 0.668285
O O4 0.585139 0.000000 0.719199
O O5 0.916440 0.500000 0.062537
O O6 0.867258 0.745618 0.111977
O O7 0.000000 0.737221 0.071765
O O8 0.896629 0.742257 0.000000
O O9 0.250000 0.250000 0.826396
O O10 0.329523 0.000000 0.831763
O O11 0.169029 0.500000 0.500000
O O12 0.250000 0.250000 0.500000
O O13 0.138374 0.250988 0.558136
O O14 0.327744 0.500000 0.613987
O O15 0.250000 0.250000 0.623088
#
# Coordination Sequence:
#
# PCOD9484432 Si02
#       5
#    16  16  16   8  16
#     4  10  21  37  55  75 102 137 177 221 270 321
#     4   8  14  27  49  75 101 132 173 217 258 305
#     4  10  20  33  51  76 104 135 172 216 264 314
#     4  10  18  32  55  82 111 142 177 215 259 309
#     4  11  21  35  56  82 111 141 177 218 261 311
#
# _framework density 18.728491000000002
#
# number of rings (size 3 to 8) (size 9 to 14) (size 15 to 20)
#    0.000    2.222    0.000    6.333    0.000    6.222 
#    0.000    0.556    0.000    5.333    0.000    1.556 
#    0.000    0.000    0.000    0.000    0.000    0.000 
#
# Total GULP energy -200946.366674 kJ/mol
# GULP energy per Si atom -5581.843519 kJ/mol
# Density = 1.868586 g / cm^3
# Si number density = 18.728491 Si / 1000 Ang^3
#
#
#
# Elastic Constant Matrix: (Units=GPa)
#
#
# Indices 1 2 3 4 5 6 
#
# 1 130.7488 36.0081 117.1031 0.0000 0.0000 0.0000
# 2 36.0081 48.5964 48.5736 0.0000 0.0000 0.0000
# 3 117.1031 48.5736 218.8070 0.0000 0.0000 0.0000
# 4 0.0000 0.0000 0.0000 -0.2181 0.0000 0.0000
# 5 0.0000 0.0000 0.0000 0.0000 618.4841 0.0000
# 6 0.0000 0.0000 0.0000 0.0000 0.0000 24.0420
#
#
#
# Elastic Compliance Matrix: (Units=1/GPa)
#
#
# Indices 1 2 3 4 5 6 
#
# 1 0.015285 -0.004047 -0.007282 0.000000 0.000000 0.000000
# 2 -0.004047 0.027517 -0.003943 0.000000 0.000000 0.000000
# 3 -0.007282 -0.003943 0.009343 0.000000 0.000000 0.000000
# 4 0.000000 0.000000 0.000000 -4.585831 0.000000 0.000000
# 5 0.000000 0.000000 0.000000 0.000000 0.001617 0.000000
# 6 0.000000 0.000000 0.000000 0.000000 0.000000 0.041594
#
#
# Mechanical properties :
#
#
# Convention : Reuss Voigt Hill
#
# Bulk Modulus (GPa) = 46.29313 89.05799 67.67556
# Shear Modulus (GPa) = -1.12291 141.55943 70.21826
#
# Velocity S-wave (km/s) = -0.77516 8.70340 6.12978
# Velocity P-wave (km/s) = 4.89597 12.19239 9.29045
#
# Compressibility (1/GPa) = 0.02160148
#
# Stress axis : x y z
#
# Youngs Moduli (GPa) = 65.42563 36.34096 107.03668
#
# Poissons Ratio (x) = 0.14707 0.77941
# Poissons Ratio (y) = 0.26477 0.42202
# Poissons Ratio (z) = 0.47641 0.14328
#
# Static dielectric constant tensor:
#      x y z
#    x 1.612500 0.000000 0.000000 
#    y 0.000000 1.641400 0.000000 
#    z 0.000000 0.000000 1.660710 
# 
# From -- ./inp_files/64297.got.cif
#   From: 2010.05.17/outbox.cif.g08.bks.cpg/sg65_33_cif.got.tgz:64297.got - 2010.06.03 17:01:31.
