data_PCOD9484219
_publ_section_title
;
Structure prediction by ZEFSAII (Michael W. Deem and Ramdas Pophale) SiO2 
 PCOD9484219
Probable space group: C M M M
;
_chemical_formula_sum "Si O2"
_cell_formula_units_Z 96
_cell_length_a 24.467482
_cell_length_b 26.118183
_cell_length_c 8.291794
_cell_angle_alpha 90.000000
_cell_angle_beta 90.000000
_cell_angle_gamma 90.000000
_cell_volume 5298.839218
_symmetry_space_group_name_H-M "C M M M"
_symmetry_group_IT_number 65
_symmetry_cell_setting 'orthorhombic'
loop_
_space_group_symop_operation_xyz
x,y,z
-x,-y,z
x,-y,-z
-x,y,-z
-x,-y,-z
x,y,-z
-x,y,z
x,-y,z
1/2+x,1/2+y,z
1/2-x,1/2-y,z
1/2+x,1/2-y,-z
1/2-x,1/2+y,-z
1/2-x,1/2-y,-z
1/2+x,1/2+y,-z
1/2-x,1/2+y,z
1/2+x,1/2-y,z
loop_
_atom_site_type_symbol
_atom_site_label
_atom_site_fract_x
_atom_site_fract_y
_atom_site_fract_z
Si Si1 0.062056 0.691930 0.694494
Si Si2 0.367179 0.901933 0.194507
Si Si3 0.562201 0.691042 0.694626
Si Si4 0.867783 0.903184 0.192613
Si Si5 0.749904 0.559783 0.802962
Si Si6 0.062401 0.000000 0.306918
Si Si7 0.937296 0.500000 0.197089
O O1 0.061884 0.691682 0.500000
O O2 0.105542 0.650895 0.753289
O O3 0.073292 0.750445 0.746465
O O4 0.000000 0.678526 0.748066
O O5 0.305320 0.912327 0.250578
O O6 0.405058 0.949304 0.249356
O O7 0.366454 0.903246 0.000000
O O8 0.562325 0.690348 0.500000
O O9 0.500000 0.677687 0.746527
O O10 0.605461 0.649909 0.753965
O O11 0.806034 0.913540 0.251797
O O12 0.905626 0.949761 0.250653
O O13 0.866340 0.904580 0.000000
O O14 0.750498 0.500000 0.754608
O O15 0.750008 0.559995 0.000000
O O16 0.061057 0.000000 0.500000
O O17 0.000000 0.000000 0.246639
O O18 0.000000 0.500000 0.250769
O O19 0.937316 0.500000 0.000000
#
# Coordination Sequence:
#
# PCOD9484219 Si02
#       7
#    16  16  16  16  16   8   8
#     4   9  19  36  55  75 105 142 173 210 266 320
#     4  10  18  31  54  78 102 136 177 216 255 306
#     4   9  19  37  57  75 102 141 176 210 264 326
#     4  11  21  34  55  80 105 135 176 223 264 305
#     4   9  17  33  53  74 104 142 174 208 260 312
#     4  11  23  36  51  75 109 143 172 209 262 323
#     4   9  16  25  43  75 105 125 156 207 258 298
#
# _framework density 18.117175
#
# number of rings (size 3 to 8) (size 9 to 14) (size 15 to 20)
#    0.000    2.333    1.667    2.750    0.000    4.667 
#    0.000    4.583    0.000    6.500    0.000    0.000 
#    0.000    0.000    0.000    0.000    0.000    0.000 
#
# Total GULP energy -267854.904117 kJ/mol
# GULP energy per Si atom -5580.310502 kJ/mol
# Density = 1.807594 g / cm^3
# Si number density = 18.117175 Si / 1000 Ang^3
#
#
#
# Elastic Constant Matrix: (Units=GPa)
#
#
# Indices 1 2 3 4 5 6 
#
# 1 208.1939 120.6618 22.2333 0.0000 0.0000 0.0000
# 2 120.6618 144.4836 17.3406 0.0000 0.0000 0.0000
# 3 22.2333 17.3406 11.8016 0.0000 0.0000 0.0000
# 4 0.0000 0.0000 0.0000 30.9527 0.0000 0.0000
# 5 0.0000 0.0000 0.0000 0.0000 -57.8682 0.0000
# 6 0.0000 0.0000 0.0000 0.0000 0.0000 20.5288
#
#
#
# Elastic Compliance Matrix: (Units=1/GPa)
#
#
# Indices 1 2 3 4 5 6 
#
# 1 0.009877 -0.007303 -0.007877 0.000000 0.000000 0.000000
# 2 -0.007303 0.013803 -0.006523 0.000000 0.000000 0.000000
# 3 -0.007877 -0.006523 0.109158 0.000000 0.000000 0.000000
# 4 0.000000 0.000000 0.000000 0.032307 0.000000 0.000000
# 5 0.000000 0.000000 0.000000 0.000000 -0.017281 0.000000
# 6 0.000000 0.000000 0.000000 0.000000 0.000000 0.048712
#
#
# Mechanical properties :
#
#
# Convention : Reuss Voigt Hill
#
# Bulk Modulus (GPa) = 11.18164 76.10562 43.64363
# Shear Modulus (GPa) = 18.53273 12.33889 15.43581
#
# Velocity S-wave (km/s) = 3.20181 2.61254 2.92207
# Velocity P-wave (km/s) = 4.45578 7.15536 5.96042
#
# Compressibility (1/GPa) = 0.08943229
#
# Stress axis : x y z
#
# Youngs Moduli (GPa) = 101.24461 72.44705 9.16107
#
# Poissons Ratio (x) = 0.52910 0.07216
# Poissons Ratio (y) = 0.73941 0.05976
# Poissons Ratio (z) = 0.79746 0.47257
#
# Static dielectric constant tensor:
#      x y z
#    x 1.621280 0.000000 0.000000 
#    y 0.000000 1.589810 0.000000 
#    z 0.000000 0.000000 1.637470 
# 
# From -- ./inp_files/14375.got.cif
#   From: 2010.05.17/outbox.cif.g08.bks.cpg/sg65_8_cif.got.tgz:14375.got - 2010.06.03 17:01:31.
