data_PCOD9484268
_publ_section_title
;
Structure prediction by ZEFSAII (Michael W. Deem and Ramdas Pophale) SiO2 
 PCOD9484268
Probable space group: C M M M
;
_chemical_formula_sum "Si O2"
_cell_formula_units_Z 116
_cell_length_a 30.402206
_cell_length_b 22.007844
_cell_length_c 7.566333
_cell_angle_alpha 90.000000
_cell_angle_beta 90.000000
_cell_angle_gamma 90.000000
_cell_volume 5062.535100
_symmetry_space_group_name_H-M "C M M M"
_symmetry_group_IT_number 65
_symmetry_cell_setting 'orthorhombic'
loop_
_space_group_symop_operation_xyz
x,y,z
-x,-y,z
x,-y,-z
-x,y,-z
-x,-y,-z
x,y,-z
-x,y,z
x,-y,z
1/2+x,1/2+y,z
1/2-x,1/2-y,z
1/2+x,1/2-y,-z
1/2-x,1/2+y,-z
1/2-x,1/2-y,-z
1/2+x,1/2+y,-z
1/2-x,1/2+y,z
1/2+x,1/2-y,z
loop_
_atom_site_type_symbol
_atom_site_label
_atom_site_fract_x
_atom_site_fract_y
_atom_site_fract_z
Si Si1 0.638662 0.601496 0.213266
Si Si2 0.101834 0.431027 0.286645
Si Si3 0.548545 0.183944 0.287045
Si Si4 0.046400 0.109137 0.696232
Si Si5 0.000000 0.829680 0.000000
Si Si6 0.734860 0.566438 0.216143
Si Si7 0.865111 0.760166 0.790354
Si Si8 0.687727 0.147772 0.789602
O O1 0.591799 0.575093 0.271910
O O2 0.684441 0.573292 0.273310
O O3 0.637599 0.671537 0.276978
O O4 0.638797 0.599094 0.000000
O O5 0.100236 0.432626 0.500000
O O6 0.097531 0.500000 0.221717
O O7 0.064143 0.383449 0.229132
O O8 0.148258 0.400550 0.236261
O O9 0.546387 0.183958 0.500000
O O10 0.500000 0.200327 0.216781
O O11 0.587960 0.228232 0.236343
O O12 0.047834 0.135700 0.500000
O O13 0.000000 0.072969 0.710340
O O14 0.037973 0.159470 0.845647
O O15 0.751931 0.500000 0.267540
O O16 0.767297 0.619070 0.279869
O O17 0.734811 0.568591 0.000000
O O18 0.829559 0.711966 0.717158
O O19 0.857448 0.764818 0.000000
O O20 0.693363 0.155628 0.000000
#
# Coordination Sequence:
#
# PCOD9484268 Si02
#       8
#    16  16  16  16   4  16  16  16
#     4  10  18  32  50  73 107 139 174 220 267 318
#     4   9  17  29  47  69  94 129 168 206 253 304
#     4   9  18  32  47  67  97 128 164 210 252 299
#     4   9  17  30  52  80 109 146 184 219 265 320
#     4   8  14  32  52  78 113 144 182 226 257 314
#     4   9  18  31  52  78 101 131 171 217 268 320
#     4   9  19  31  48  71  98 135 169 209 263 315
#     4   9  17  32  50  72  99 129 173 215 256 316
#
# _framework density 22.913422000000001
#
# number of rings (size 3 to 8) (size 9 to 14) (size 15 to 20)
#    0.414    2.483    0.690    0.414    0.000    3.034 
#    0.000    7.586    0.000    1.655    0.000   12.069 
#    0.000    0.000    0.000    0.000    0.000    0.000 
#
# Total GULP energy -323059.324146 kJ/mol
# GULP energy per Si atom -5569.988347 kJ/mol
# Density = 2.286127 g / cm^3
# Si number density = 22.913422 Si / 1000 Ang^3
#
#
#
# Elastic Constant Matrix: (Units=GPa)
#
#
# Indices 1 2 3 4 5 6 
#
# 1 141.0532 22.8440 2.3849 0.0000 0.0000 0.0000
# 2 22.8440 81.3964 4.2825 0.0000 0.0000 0.0000
# 3 2.3849 4.2825 78.7080 0.0000 0.0000 0.0000
# 4 0.0000 0.0000 0.0000 -14.0905 0.0000 0.0000
# 5 0.0000 0.0000 0.0000 0.0000 -213.1039 0.0000
# 6 0.0000 0.0000 0.0000 0.0000 0.0000 19.4433
#
#
#
# Elastic Compliance Matrix: (Units=1/GPa)
#
#
# Indices 1 2 3 4 5 6 
#
# 1 0.007428 -0.002079 -0.000112 0.000000 0.000000 0.000000
# 2 -0.002079 0.012903 -0.000639 0.000000 0.000000 0.000000
# 3 -0.000112 -0.000639 0.012743 0.000000 0.000000 0.000000
# 4 0.000000 0.000000 0.000000 -0.070970 0.000000 0.000000
# 5 0.000000 0.000000 0.000000 0.000000 -0.004693 0.000000
# 6 0.000000 0.000000 0.000000 0.000000 0.000000 0.051432
#
#
# Mechanical properties :
#
#
# Convention : Reuss Voigt Hill
#
# Bulk Modulus (GPa) = 36.47720 40.02006 38.24863
# Shear Modulus (GPa) = 211.49448 -23.44047 94.02700
#
# Velocity S-wave (km/s) = 9.61779 -3.20191 6.41287
# Velocity P-wave (km/s) = 11.80212 1.95807 8.45944
#
# Compressibility (1/GPa) = 0.02741438
#
# Stress axis : x y z
#
# Youngs Moduli (GPa) = 134.62421 77.50379 78.47232
#
# Poissons Ratio (x) = 0.16112 0.00879
# Poissons Ratio (y) = 0.27986 0.05015
# Poissons Ratio (z) = 0.01507 0.04953
#
# Static dielectric constant tensor:
#      x y z
#    x 1.874230 0.000000 0.000000 
#    y 0.000000 1.864430 0.000000 
#    z 0.000000 0.000000 1.861260 
# 
# From -- ./inp_files/18970.got.cif
#   From: 2010.05.17/outbox.cif.g08.bks.cpg/sg65_10_cif.got.tgz:18970.got - 2010.06.03 17:01:31.
