data_PCOD9484413
_publ_section_title
;
Structure prediction by ZEFSAII (Michael W. Deem and Ramdas Pophale) SiO2 
 PCOD9484413
Probable space group: C M M M
;
_chemical_formula_sum "Si O2"
_cell_formula_units_Z 96
_cell_length_a 29.914440
_cell_length_b 7.704843
_cell_length_c 21.068750
_cell_angle_alpha 90.000000
_cell_angle_beta 90.000000
_cell_angle_gamma 90.000000
_cell_volume 4856.053253
_symmetry_space_group_name_H-M "C M M M"
_symmetry_group_IT_number 65
_symmetry_cell_setting 'orthorhombic'
loop_
_space_group_symop_operation_xyz
x,y,z
-x,-y,z
x,-y,-z
-x,y,-z
-x,-y,-z
x,y,-z
-x,y,z
x,-y,z
1/2+x,1/2+y,z
1/2-x,1/2-y,z
1/2+x,1/2-y,-z
1/2-x,1/2+y,-z
1/2-x,1/2-y,-z
1/2+x,1/2+y,-z
1/2-x,1/2+y,z
1/2+x,1/2-y,z
loop_
_atom_site_type_symbol
_atom_site_label
_atom_site_fract_x
_atom_site_fract_y
_atom_site_fract_z
Si Si1 0.549143 0.711280 0.107746
Si Si2 0.646726 0.710297 0.069135
Si Si3 0.301952 0.200719 0.802483
Si Si4 0.860779 0.201402 0.685195
Si Si5 0.549116 0.711895 0.743599
Si Si6 0.698840 0.709214 0.428200
O O1 0.500000 0.769724 0.084710
O O2 0.548694 0.500000 0.103664
O O3 0.595002 0.768699 0.075513
O O4 0.552997 0.758536 0.182119
O O5 0.646624 0.500000 0.071093
O O6 0.675180 0.769355 0.129314
O O7 0.664232 0.764810 0.000000
O O8 0.250000 0.250000 0.804394
O O9 0.329303 0.295931 0.747261
O O10 0.305381 0.000000 0.786039
O O11 0.908501 0.278565 0.704953
O O12 0.834574 0.278132 0.625339
O O13 0.869352 0.000000 0.669347
O O14 0.500000 0.766081 0.720867
O O15 0.550215 0.500000 0.742829
O O16 0.690725 0.773370 0.500000
O O17 0.695354 0.500000 0.429510
O O18 0.750000 0.750000 0.410947
#
# Coordination Sequence:
#
# PCOD9484413 Si02
#       6
#    16  16  16  16  16  16
#     4   8  13  24  46  76 105 129 160 203 246 292
#     4  10  20  35  55  77 102 132 168 209 253 301
#     4  12  25  39  55  74  99 129 167 213 257 306
#     4  10  18  32  55  78 104 134 169 211 249 293
#     4   8  13  23  45  75 102 130 165 204 245 290
#     4   9  18  31  48  73 104 137 169 205 252 302
#
# _framework density 19.769141999999999
#
# number of rings (size 3 to 8) (size 9 to 14) (size 15 to 20)
#    0.000    2.500    1.667    3.000    0.000    3.000 
#    0.000    1.667    0.000    2.500    0.000    4.667 
#    0.000    0.000    0.000    5.667    0.000    6.000 
#
# Total GULP energy -267797.174840 kJ/mol
# GULP energy per Si atom -5579.107809 kJ/mol
# Density = 1.972415 g / cm^3
# Si number density = 19.769142 Si / 1000 Ang^3
#
#
#
# Elastic Constant Matrix: (Units=GPa)
#
#
# Indices 1 2 3 4 5 6 
#
# 1 139.2644 -6.5974 64.8273 0.0000 0.0000 0.0000
# 2 -6.5974 37.0483 -7.3408 0.0000 0.0000 0.0000
# 3 64.8273 -7.3408 93.2304 0.0000 0.0000 0.0000
# 4 0.0000 0.0000 0.0000 -42.9161 0.0000 0.0000
# 5 0.0000 0.0000 0.0000 0.0000 18.3724 0.0000
# 6 0.0000 0.0000 0.0000 0.0000 0.0000 8.5627
#
#
#
# Elastic Compliance Matrix: (Units=1/GPa)
#
#
# Indices 1 2 3 4 5 6 
#
# 1 0.010624 0.000435 -0.007353 0.000000 0.000000 0.000000
# 2 0.000435 0.027437 0.001858 0.000000 0.000000 0.000000
# 3 -0.007353 0.001858 0.015985 0.000000 0.000000 0.000000
# 4 0.000000 0.000000 0.000000 -0.023301 0.000000 0.000000
# 5 0.000000 0.000000 0.000000 0.000000 0.054430 0.000000
# 6 0.000000 0.000000 0.000000 0.000000 0.000000 0.116785
#
#
# Mechanical properties :
#
#
# Convention : Reuss Voigt Hill
#
# Bulk Modulus (GPa) = 22.76542 41.25794 32.01168
# Shear Modulus (GPa) = 22.05335 11.38073 16.71704
#
# Velocity S-wave (km/s) = 3.34360 2.40194 2.91110
# Velocity P-wave (km/s) = 5.14265 5.34861 5.24664
#
# Compressibility (1/GPa) = 0.04392628
#
# Stress axis : x y z
#
# Youngs Moduli (GPa) = 94.12593 36.44660 62.55715
#
# Poissons Ratio (x) = -0.01585 0.45999
# Poissons Ratio (y) = -0.04094 -0.11623
# Poissons Ratio (z) = 0.69212 -0.06772
#
# Static dielectric constant tensor:
#      x y z
#    x 1.785190 0.000000 0.000000 
#    y 0.000000 1.765240 0.000000 
#    z 0.000000 0.000000 1.686500 
# 
# From -- ./inp_files/60175.got.cif
#   From: 2010.05.17/outbox.cif.g08.bks.cpg/sg65_31_cif.got.tgz:60175.got - 2010.06.03 17:01:31.
