data_PCOD9484898
_publ_section_title
;
Structure prediction by ZEFSAII (Michael W. Deem and Ramdas Pophale) SiO2 
 PCOD9484898
Probable space group: C M M M
;
_chemical_formula_sum "Si O2"
_cell_formula_units_Z 116
_cell_length_a 30.653992
_cell_length_b 24.861216
_cell_length_c 7.476801
_cell_angle_alpha 90.000000
_cell_angle_beta 90.000000
_cell_angle_gamma 90.000000
_cell_volume 5698.036519
_symmetry_space_group_name_H-M "C M M M"
_symmetry_group_IT_number 65
_symmetry_cell_setting 'orthorhombic'
loop_
_space_group_symop_operation_xyz
x,y,z
-x,-y,z
x,-y,-z
-x,y,-z
-x,-y,-z
x,y,-z
-x,y,z
x,-y,z
1/2+x,1/2+y,z
1/2-x,1/2-y,z
1/2+x,1/2-y,-z
1/2-x,1/2+y,-z
1/2-x,1/2-y,-z
1/2+x,1/2+y,-z
1/2-x,1/2+y,z
1/2+x,1/2-y,z
loop_
_atom_site_type_symbol
_atom_site_label
_atom_site_fract_x
_atom_site_fract_y
_atom_site_fract_z
Si Si1 0.951660 0.747316 0.286686
Si Si2 0.070817 0.623979 0.716915
Si Si3 0.656308 0.560213 0.218068
Si Si4 0.332539 0.856511 0.295018
Si Si5 0.500000 0.087642 0.000000
Si Si6 0.874446 0.828986 0.785983
Si Si7 0.256700 0.061261 0.784154
Si Si8 0.702389 0.256591 0.203456
O O1 0.954150 0.745403 0.500000
O O2 0.938219 0.686877 0.234151
O O3 0.916519 0.792584 0.244708
O O4 0.000000 0.758804 0.214728
O O5 0.063915 0.617040 0.500000
O O6 0.122014 0.616054 0.759754
O O7 0.038202 0.590847 0.841328
O O8 0.645061 0.500000 0.279427
O O9 0.626381 0.609596 0.278165
O O10 0.706633 0.572149 0.269109
O O11 0.655647 0.558503 0.000000
O O12 0.339538 0.839683 0.500000
O O13 0.292057 0.896769 0.282804
O O14 0.320555 0.801430 0.197194
O O15 0.831930 0.797758 0.713819
O O16 0.869609 0.831136 0.000000
O O17 0.267054 0.000000 0.729797
O O18 0.257783 0.063493 0.000000
O O19 0.750000 0.250000 0.288631
O O20 0.710622 0.276120 0.000000
#
# Coordination Sequence:
#
# PCOD9484898 Si02
#       8
#    16  16  16  16   4  16  16  16
#     4  10  20  35  50  67 103 140 172 222 274 323
#     4  10  22  36  51  81 113 143 184 227 277 335
#     4   8  15  31  53  77 104 135 173 226 278 315
#     4  11  22  34  50  75 113 146 173 221 274 330
#     4  12  22  32  64  78 103 154 179 232 276 332
#     4  10  19  29  50  78 101 131 178 221 265 330
#     4   9  18  34  57  79 103 139 185 226 261 314
#     4  10  20  32  48  72 106 143 181 221 263 327
#
# _framework density 20.357889
#
# number of rings (size 3 to 8) (size 9 to 14) (size 15 to 20)
#    0.000    2.207    2.069    2.276    2.897    3.034 
#    0.000    2.069    0.000    1.655    0.000    3.862 
#    0.000    2.207    0.000    0.000    0.000    0.000 
#
# Total GULP energy -323121.385253 kJ/mol
# GULP energy per Si atom -5571.058366 kJ/mol
# Density = 2.031155 g / cm^3
# Si number density = 20.357889 Si / 1000 Ang^3
#
#
#
# Elastic Constant Matrix: (Units=GPa)
#
#
# Indices 1 2 3 4 5 6 
#
# 1 41.1715 -10.5876 -2.2549 0.0000 0.0000 0.0000
# 2 -10.5876 36.3816 -9.7267 0.0000 0.0000 0.0000
# 3 -2.2549 -9.7267 68.5650 0.0000 0.0000 0.0000
# 4 0.0000 0.0000 0.0000 20.8370 0.0000 0.0000
# 5 0.0000 0.0000 0.0000 0.0000 15.8015 0.0000
# 6 0.0000 0.0000 0.0000 0.0000 0.0000 0.9223
#
#
#
# Elastic Compliance Matrix: (Units=1/GPa)
#
#
# Indices 1 2 3 4 5 6 
#
# 1 0.026526 0.008266 0.002045 0.000000 0.000000 0.000000
# 2 0.008266 0.031146 0.004690 0.000000 0.000000 0.000000
# 3 0.002045 0.004690 0.015317 0.000000 0.000000 0.000000
# 4 0.000000 0.000000 0.000000 0.047991 0.000000 0.000000
# 5 0.000000 0.000000 0.000000 0.000000 0.063285 0.000000
# 6 0.000000 0.000000 0.000000 0.000000 0.000000 1.084209
#
#
# Mechanical properties :
#
#
# Convention : Reuss Voigt Hill
#
# Bulk Modulus (GPa) = 9.70941 11.21998 10.46470
# Shear Modulus (GPa) = 3.92834 18.75800 11.34317
#
# Velocity S-wave (km/s) = 1.39062 3.03877 2.36304
# Velocity P-wave (km/s) = 2.71259 4.22321 3.54920
#
# Compressibility (1/GPa) = 0.10299287
#
# Stress axis : x y z
#
# Youngs Moduli (GPa) = 37.69829 32.10689 65.28558
#
# Poissons Ratio (x) = -0.26541 -0.13351
# Poissons Ratio (y) = -0.31163 -0.30620
# Poissons Ratio (z) = -0.07709 -0.15059
#
# Static dielectric constant tensor:
#      x y z
#    x 1.752870 0.000000 0.000000 
#    y 0.000000 1.724870 0.000000 
#    z 0.000000 0.000000 1.793560 
# 
# From -- ./inp_files/17091.got.cif
#   From: 2010.05.17/outbox.cif.g08.bks.cpg/sg65_9_cif.got.tgz:17091.got - 2010.06.03 17:01:31.
