data_PCOD9484735
_publ_section_title
;
Structure prediction by ZEFSAII (Michael W. Deem and Ramdas Pophale) SiO2 
 PCOD9484735
Probable space group: C M M M
;
_chemical_formula_sum "Si O2"
_cell_formula_units_Z 104
_cell_length_a 9.096754
_cell_length_b 28.622699
_cell_length_c 20.848607
_cell_angle_alpha 90.000000
_cell_angle_beta 90.000000
_cell_angle_gamma 90.000000
_cell_volume 5428.427936
_symmetry_space_group_name_H-M "C M M M"
_symmetry_group_IT_number 65
_symmetry_cell_setting 'orthorhombic'
loop_
_space_group_symop_operation_xyz
x,y,z
-x,-y,z
x,-y,-z
-x,y,-z
-x,-y,-z
x,y,-z
-x,y,z
x,-y,z
1/2+x,1/2+y,z
1/2-x,1/2-y,z
1/2+x,1/2-y,-z
1/2-x,1/2+y,-z
1/2-x,1/2-y,-z
1/2+x,1/2+y,-z
1/2-x,1/2+y,z
1/2+x,1/2-y,z
loop_
_atom_site_type_symbol
_atom_site_label
_atom_site_fract_x
_atom_site_fract_y
_atom_site_fract_z
Si Si1 0.676239 0.598228 0.072250
Si Si2 0.333369 0.071462 0.197012
Si Si3 0.322975 0.800560 0.500000
Si Si4 0.333437 0.819187 0.234618
Si Si5 0.173522 0.795951 0.891646
Si Si6 0.322759 0.853648 0.369814
Si Si7 0.175350 0.051306 0.326793
O O1 0.500000 0.708876 0.102135
O O2 0.758788 0.569901 0.127539
O O3 0.715385 0.653550 0.079184
O O4 0.710260 0.583018 0.000000
O O5 0.500000 0.053565 0.197177
O O6 0.341871 0.126316 0.215146
O O7 0.235677 0.051095 0.253988
O O8 0.500000 0.795481 0.500000
O O9 0.250000 0.750000 0.500000
O O10 0.282179 0.829232 0.436168
O O11 0.500000 0.799786 0.228757
O O12 0.222670 0.798578 0.182887
O O13 0.284376 0.820897 0.308564
O O14 0.250000 0.750000 0.919743
O O15 0.000000 0.904826 0.917770
O O16 0.500000 0.859488 0.366907
O O17 0.249665 0.904316 0.360805
O O18 0.000000 0.057366 0.326319
O O19 0.209711 0.000000 0.355160
#
# Coordination Sequence:
#
# PCOD9484735 Si02
#       7
#    16  16   8  16  16  16  16
#     4   9  18  32  48  66  92 130 173 214 262 321
#     4   9  17  30  50  75 101 130 166 209 257 310
#     4  10  22  40  59  82 113 151 194 233 271 318
#     4   8  15  29  47  67  91 121 160 207 257 306
#     4  10  19  29  42  62  89 122 162 211 265 318
#     4   9  19  36  57  81 111 145 183 226 269 318
#     4  10  20  34  56  86 115 143 177 218 269 327
#
# _framework density 19.158401999999999
#
# number of rings (size 3 to 8) (size 9 to 14) (size 15 to 20)
#    0.000    2.769    0.000    2.308    0.000    7.385 
#    0.000    1.923    0.000    2.769    0.000    3.231 
#    0.000    0.000    0.000    0.000    0.000    0.000 
#
# Total GULP energy -289947.607182 kJ/mol
# GULP energy per Si atom -5575.915523 kJ/mol
# Density = 1.911480 g / cm^3
# Si number density = 19.158402 Si / 1000 Ang^3
#
#
#
# Elastic Constant Matrix: (Units=GPa)
#
#
# Indices 1 2 3 4 5 6 
#
# 1 37.3650 24.7610 24.3967 0.0000 0.0000 0.0000
# 2 24.7610 76.8365 26.7704 0.0000 0.0000 0.0000
# 3 24.3967 26.7704 129.4447 0.0000 0.0000 0.0000
# 4 0.0000 0.0000 0.0000 8.6638 0.0000 0.0000
# 5 0.0000 0.0000 0.0000 0.0000 22.5737 0.0000
# 6 0.0000 0.0000 0.0000 0.0000 0.0000 14.5163
#
#
#
# Elastic Compliance Matrix: (Units=1/GPa)
#
#
# Indices 1 2 3 4 5 6 
#
# 1 0.036610 -0.010123 -0.004806 0.000000 0.000000 0.000000
# 2 -0.010123 0.016824 -0.001572 0.000000 0.000000 0.000000
# 3 -0.004806 -0.001572 0.008956 0.000000 0.000000 0.000000
# 4 0.000000 0.000000 0.000000 0.115423 0.000000 0.000000
# 5 0.000000 0.000000 0.000000 0.000000 0.044299 0.000000
# 6 0.000000 0.000000 0.000000 0.000000 0.000000 0.068888
#
#
# Mechanical properties :
#
#
# Convention : Reuss Voigt Hill
#
# Bulk Modulus (GPa) = 34.02723 43.94473 38.98598
# Shear Modulus (GPa) = 14.97909 20.33196 17.65553
#
# Velocity S-wave (km/s) = 2.79920 3.26123 3.03901
# Velocity P-wave (km/s) = 5.31478 6.09657 5.71905
#
# Compressibility (1/GPa) = 0.02938822
#
# Stress axis : x y z
#
# Youngs Moduli (GPa) = 27.31528 59.43750 111.65486
#
# Poissons Ratio (x) = 0.60169 0.53665
# Poissons Ratio (y) = 0.27651 0.17547
# Poissons Ratio (z) = 0.13129 0.09341
#
# Static dielectric constant tensor:
#      x y z
#    x 1.648750 0.000000 0.000000 
#    y 0.000000 1.700210 0.000000 
#    z 0.000000 0.000000 1.669600 
# 
# From -- ./inp_files/60834.got.cif
#   From: 2010.05.17/outbox.cif.g08.bks.cpg/sg65_31_cif.got.tgz:60834.got - 2010.06.03 17:01:31.
