data_PCOD9484766
_publ_section_title
;
Structure prediction by ZEFSAII (Michael W. Deem and Ramdas Pophale) SiO2 
 PCOD9484766
Probable space group: C M M M
;
_chemical_formula_sum "Si O2"
_cell_formula_units_Z 88
_cell_length_a 7.348145
_cell_length_b 19.291657
_cell_length_c 29.876404
_cell_angle_alpha 90.000000
_cell_angle_beta 90.000000
_cell_angle_gamma 90.000000
_cell_volume 4235.216079
_symmetry_space_group_name_H-M "C M M M"
_symmetry_group_IT_number 65
_symmetry_cell_setting 'orthorhombic'
loop_
_space_group_symop_operation_xyz
x,y,z
-x,-y,z
x,-y,-z
-x,y,-z
-x,-y,-z
x,y,-z
-x,y,z
x,-y,z
1/2+x,1/2+y,z
1/2-x,1/2-y,z
1/2+x,1/2-y,-z
1/2-x,1/2+y,-z
1/2-x,1/2-y,-z
1/2+x,1/2+y,-z
1/2-x,1/2+y,z
1/2+x,1/2-y,z
loop_
_atom_site_type_symbol
_atom_site_label
_atom_site_fract_x
_atom_site_fract_y
_atom_site_fract_z
Si Si1 0.217003 0.332817 0.000000
Si Si2 0.221739 0.580270 0.281508
Si Si3 0.221598 0.580236 0.818688
Si Si4 0.778351 0.579885 0.449522
Si Si5 0.782333 0.667843 0.097318
Si Si6 0.217258 0.331634 0.634294
O O1 0.250000 0.250000 0.000000
O O2 0.287193 0.356829 0.048461
O O3 0.000000 0.344622 0.000000
O O4 0.274349 0.500000 0.289103
O O5 0.279413 0.601305 0.231394
O O6 0.285605 0.629861 0.321134
O O7 0.000000 0.581126 0.281498
O O8 0.272621 0.500000 0.825229
O O9 0.287066 0.627216 0.859482
O O10 0.000000 0.582622 0.818680
O O11 0.720222 0.598216 0.500000
O O12 0.726190 0.500000 0.440473
O O13 0.714426 0.630869 0.410651
O O14 0.000000 0.581079 0.449732
O O15 0.750000 0.750000 0.101501
O O16 0.000000 0.658096 0.096364
O O17 0.250000 0.250000 0.634644
O O18 0.000000 0.341623 0.634261
#
# Coordination Sequence:
#
# PCOD9484766 Si02
#       6
#     8  16  16  16  16  16
#     4   8  14  24  37  55  79 105 133 162 194 236
#     4   8  14  26  44  62  79 105 142 175 199 233
#     4   8  14  25  41  61  83 105 132 169 209 243
#     4   8  14  26  45  66  84 106 142 181 206 230
#     4   9  16  26  41  60  81 106 135 166 200 239
#     4  10  19  29  43  65  90 112 135 168 209 247
#
# _framework density 20.77816
#
# number of rings (size 3 to 8) (size 9 to 14) (size 15 to 20)
#    0.000    3.455    0.000    2.182    0.000    3.273 
#    0.000    0.455    0.000    5.455    0.000    3.818 
#    0.000    7.273    0.000    0.000    0.000    0.000 
#
# Total GULP energy -245350.695379 kJ/mol
# GULP energy per Si atom -5576.152168 kJ/mol
# Density = 2.073087 g / cm^3
# Si number density = 20.778160 Si / 1000 Ang^3
#
#
#
# Elastic Constant Matrix: (Units=GPa)
#
#
# Indices 1 2 3 4 5 6 
#
# 1 79.1860 0.0153 10.7057 0.0000 0.0000 0.0000
# 2 0.0153 109.4396 144.5350 0.0000 0.0000 0.0000
# 3 10.7057 144.5350 272.1042 0.0000 0.0000 0.0000
# 4 0.0000 0.0000 0.0000 34.8048 0.0000 0.0000
# 5 0.0000 0.0000 0.0000 0.0000 -6.8157 0.0000
# 6 0.0000 0.0000 0.0000 0.0000 0.0000 13.4407
#
#
#
# Elastic Compliance Matrix: (Units=1/GPa)
#
#
# Indices 1 2 3 4 5 6 
#
# 1 0.012857 0.002232 -0.001691 0.000000 0.000000 0.000000
# 2 0.002232 0.031000 -0.016554 0.000000 0.000000 0.000000
# 3 -0.001691 -0.016554 0.012535 0.000000 0.000000 0.000000
# 4 0.000000 0.000000 0.000000 0.028732 0.000000 0.000000
# 5 0.000000 0.000000 0.000000 0.000000 -0.146720 0.000000
# 6 0.000000 0.000000 0.000000 0.000000 0.000000 0.074401
#
#
# Mechanical properties :
#
#
# Convention : Reuss Voigt Hill
#
# Bulk Modulus (GPa) = 41.04351 85.69353 63.36852
# Shear Modulus (GPa) = 94.42251 28.65088 61.53670
#
# Velocity S-wave (km/s) = 6.74847 3.71737 5.44797
# Velocity P-wave (km/s) = 8.97321 7.73025 8.37482
#
# Compressibility (1/GPa) = 0.02436439
#
# Stress axis : x y z
#
# Youngs Moduli (GPa) = 77.78017 32.25782 79.77733
#
# Poissons Ratio (x) = -0.07200 0.13494
# Poissons Ratio (y) = -0.17361 1.32066
# Poissons Ratio (z) = 0.13156 0.53401
#
# Static dielectric constant tensor:
#      x y z
#    x 1.823690 0.000000 0.000000 
#    y 0.000000 1.680190 0.000000 
#    z 0.000000 0.000000 1.766740 
# 
# From -- ./inp_files/73187.got.cif
#   From: 2010.05.17/outbox.cif.g08.bks.cpg/sg65_37_cif.got.tgz:73187.got - 2010.06.03 17:01:31.
