data_PCOD9484699
_publ_section_title
;
Structure prediction by ZEFSAII (Michael W. Deem and Ramdas Pophale) SiO2 
 PCOD9484699
Probable space group: C M M M
;
_chemical_formula_sum "Si O2"
_cell_formula_units_Z 88
_cell_length_a 7.257136
_cell_length_b 18.082140
_cell_length_c 31.011804
_cell_angle_alpha 90.000000
_cell_angle_beta 90.000000
_cell_angle_gamma 90.000000
_cell_volume 4069.509998
_symmetry_space_group_name_H-M "C M M M"
_symmetry_group_IT_number 65
_symmetry_cell_setting 'orthorhombic'
loop_
_space_group_symop_operation_xyz
x,y,z
-x,-y,z
x,-y,-z
-x,y,-z
-x,-y,-z
x,y,-z
-x,y,z
x,-y,z
1/2+x,1/2+y,z
1/2-x,1/2-y,z
1/2+x,1/2-y,-z
1/2-x,1/2+y,-z
1/2-x,1/2-y,-z
1/2+x,1/2+y,-z
1/2-x,1/2+y,z
1/2+x,1/2-y,z
loop_
_atom_site_type_symbol
_atom_site_label
_atom_site_fract_x
_atom_site_fract_y
_atom_site_fract_z
Si Si1 0.222251 0.588256 0.092779
Si Si2 0.222277 0.411716 0.546361
Si Si3 0.276955 0.911848 0.000000
Si Si4 0.775684 0.413537 0.186303
Si Si5 0.724318 0.913538 0.639891
Si Si6 0.281087 0.163212 0.726794
O O1 0.261835 0.500000 0.093067
O O2 0.287674 0.618193 0.046404
O O3 0.285695 0.616607 0.139437
O O4 0.000000 0.594856 0.092410
O O5 0.288443 0.381961 0.500000
O O6 0.261488 0.500000 0.546634
O O7 0.285736 0.383405 0.593026
O O8 0.000000 0.404982 0.546004
O O9 0.500000 0.906434 0.000000
O O10 0.235362 0.000000 0.000000
O O11 0.726071 0.500000 0.189404
O O12 0.710189 0.371767 0.228767
O O13 0.000000 0.410714 0.185852
O O14 0.500000 0.910717 0.639439
O O15 0.789806 0.871765 0.682354
O O16 0.773940 0.000000 0.642993
O O17 0.500000 0.148679 0.726794
O O18 0.250000 0.250000 0.726795
#
# Coordination Sequence:
#
# PCOD9484699 Si02
#       6
#    16  16   8  16  16  16
#     4   7   9  13  23  42  67  91 114 143 181 222
#     4   7   9  14  27  50  77  97 114 146 191 226
#     4   7   8  10  18  36  65  94 111 131 176 229
#     4   8  13  22  37  55  72  93 126 163 191 218
#     4   8  13  22  38  58  76  97 128 161 189 220
#     4  10  19  29  41  57  78 103 129 158 192 228
#
# _framework density 21.624226
#
# number of rings (size 3 to 8) (size 9 to 14) (size 15 to 20)
#    0.000    4.091    0.000    4.364    0.000    2.182 
#    0.000    0.000    0.000    2.727    0.000    0.636 
#    0.000    0.000    0.000    4.545    0.000   14.182 
#
# Total GULP energy -244947.574648 kJ/mol
# GULP energy per Si atom -5566.990333 kJ/mol
# Density = 2.157501 g / cm^3
# Si number density = 21.624226 Si / 1000 Ang^3
#
#
#
# Elastic Constant Matrix: (Units=GPa)
#
#
# Indices 1 2 3 4 5 6 
#
# 1 95.0601 -3.5510 13.2925 0.0000 0.0000 0.0000
# 2 -3.5510 34.3516 73.3925 0.0000 0.0000 0.0000
# 3 13.2925 73.3925 340.8812 0.0000 0.0000 0.0000
# 4 0.0000 0.0000 0.0000 -7.7766 0.0000 0.0000
# 5 0.0000 0.0000 0.0000 0.0000 -26.2669 0.0000
# 6 0.0000 0.0000 0.0000 0.0000 0.0000 -12.1394
#
#
#
# Elastic Compliance Matrix: (Units=1/GPa)
#
#
# Indices 1 2 3 4 5 6 
#
# 1 0.010831 0.003744 -0.001229 0.000000 0.000000 0.000000
# 2 0.003744 0.055203 -0.012031 0.000000 0.000000 0.000000
# 3 -0.001229 -0.012031 0.005572 0.000000 0.000000 0.000000
# 4 0.000000 0.000000 0.000000 -0.128591 0.000000 0.000000
# 5 0.000000 0.000000 0.000000 0.000000 -0.038071 0.000000
# 6 0.000000 0.000000 0.000000 0.000000 0.000000 -0.082376
#
#
# Mechanical properties :
#
#
# Convention : Reuss Voigt Hill
#
# Bulk Modulus (GPa) = 19.02038 70.72898 44.87468
# Shear Modulus (GPa) = -35.49210 16.57402 -9.45904
#
# Velocity S-wave (km/s) = -4.05571 2.77150 -2.09375
# Velocity P-wave (km/s) = 3.62170 6.55903 3.86679
#
# Compressibility (1/GPa) = 0.05257519
#
# Stress axis : x y z
#
# Youngs Moduli (GPa) = 92.32480 18.11505 179.47380
#
# Poissons Ratio (x) = -0.06783 0.22049
# Poissons Ratio (y) = -0.34571 2.15930
# Poissons Ratio (z) = 0.11343 0.21795
#
# Static dielectric constant tensor:
#      x y z
#    x 1.842290 0.000000 0.000000 
#    y 0.000000 1.686420 0.000000 
#    z 0.000000 0.000000 1.875150 
# 
# From -- ./inp_files/77477.got.cif
#   From: 2010.05.17/outbox.cif.g08.bks.cpg/sg65_39_cif.got.tgz:77477.got - 2010.06.03 17:01:31.
