data_PCOD9484761
_publ_section_title
;
Structure prediction by ZEFSAII (Michael W. Deem and Ramdas Pophale) SiO2 
 PCOD9484761
Probable space group: C M M M
;
_chemical_formula_sum "Si O2"
_cell_formula_units_Z 116
_cell_length_a 7.470443
_cell_length_b 31.136090
_cell_length_c 23.033326
_cell_angle_alpha 90.000000
_cell_angle_beta 90.000000
_cell_angle_gamma 90.000000
_cell_volume 5357.560509
_symmetry_space_group_name_H-M "C M M M"
_symmetry_group_IT_number 65
_symmetry_cell_setting 'orthorhombic'
loop_
_space_group_symop_operation_xyz
x,y,z
-x,-y,z
x,-y,-z
-x,y,-z
-x,-y,-z
x,y,-z
-x,y,z
x,-y,z
1/2+x,1/2+y,z
1/2-x,1/2-y,z
1/2+x,1/2-y,-z
1/2-x,1/2+y,-z
1/2-x,1/2-y,-z
1/2+x,1/2+y,-z
1/2-x,1/2+y,z
1/2+x,1/2-y,z
loop_
_atom_site_type_symbol
_atom_site_label
_atom_site_fract_x
_atom_site_fract_y
_atom_site_fract_z
Si Si1 0.707787 0.811780 0.223390
Si Si2 0.207278 0.613333 0.596363
Si Si3 0.713536 0.202837 0.351224
Si Si4 0.786879 0.703579 0.903436
Si Si5 0.217110 0.908019 0.810293
Si Si6 0.500000 0.591606 0.500000
Si Si7 0.216799 0.952379 0.696560
Si Si8 0.291733 0.391782 0.062526
O O1 0.500000 0.798339 0.223907
O O2 0.787771 0.798838 0.285246
O O3 0.787393 0.795385 0.162754
O O4 0.719239 0.862981 0.216622
O O5 0.272871 0.661626 0.612309
O O6 0.342568 0.593452 0.550425
O O7 0.212853 0.584567 0.654495
O O8 0.000000 0.615431 0.576528
O O9 0.500000 0.197452 0.346613
O O10 0.750000 0.250000 0.376101
O O11 0.750000 0.750000 0.930427
O O12 0.715158 0.660181 0.931893
O O13 0.000000 0.697611 0.901370
O O14 0.268340 0.943559 0.763405
O O15 0.283146 0.909897 0.876739
O O16 0.000000 0.906339 0.812638
O O17 0.000000 0.950450 0.694015
O O18 0.272970 0.000000 0.678082
O O19 0.500000 0.404361 0.061299
O O20 0.211809 0.403746 0.000000
#
# Coordination Sequence:
#
# PCOD9484761 Si02
#       8
#    16  16  16  16  16   4  16  16
#     4   9  17  30  47  75 109 144 185 243 300 365
#     4  11  24  44  69  99 130 170 221 259 308 375
#     4  10  21  34  57  87 121 158 207 258 310 367
#     4  10  19  29  43  64  97 136 185 238 302 359
#     4   9  17  30  53  81 111 152 193 245 306 365
#     4  12  26  48  75  92 134 186 204 260 317 356
#     4  10  20  37  64  98 130 161 200 252 316 382
#     4   9  18  32  48  68  99 145 200 248 297 360
#
# _framework density 21.651647000000001
#
# number of rings (size 3 to 8) (size 9 to 14) (size 15 to 20)
#    0.000    2.207    2.069    1.034    0.966    1.931 
#    0.000    1.034    0.000    1.241    0.000    2.897 
#    0.000    0.000    0.000    8.138    0.000    8.552 
#
# Total GULP energy -323149.210935 kJ/mol
# GULP energy per Si atom -5571.538120 kJ/mol
# Density = 2.160237 g / cm^3
# Si number density = 21.651647 Si / 1000 Ang^3
#
#
#
# Elastic Constant Matrix: (Units=GPa)
#
#
# Indices 1 2 3 4 5 6 
#
# 1 90.5184 -4.2779 20.2099 0.0000 0.0000 0.0000
# 2 -4.2779 62.1669 7.9184 0.0000 0.0000 0.0000
# 3 20.2099 7.9184 101.6181 0.0000 0.0000 0.0000
# 4 0.0000 0.0000 0.0000 -7.4899 0.0000 0.0000
# 5 0.0000 0.0000 0.0000 0.0000 9.1433 0.0000
# 6 0.0000 0.0000 0.0000 0.0000 0.0000 8.0987
#
#
#
# Elastic Compliance Matrix: (Units=1/GPa)
#
#
# Indices 1 2 3 4 5 6 
#
# 1 0.011636 0.001106 -0.002400 0.000000 0.000000 0.000000
# 2 0.001106 0.016352 -0.001494 0.000000 0.000000 0.000000
# 3 -0.002400 -0.001494 0.010435 0.000000 0.000000 0.000000
# 4 0.000000 0.000000 0.000000 -0.133514 0.000000 0.000000
# 5 0.000000 0.000000 0.000000 0.000000 0.109370 0.000000
# 6 0.000000 0.000000 0.000000 0.000000 0.000000 0.123477
#
#
# Mechanical properties :
#
#
# Convention : Reuss Voigt Hill
#
# Bulk Modulus (GPa) = 30.44498 33.55602 32.00050
# Shear Modulus (GPa) = 32.40853 17.31396 24.86124
#
# Velocity S-wave (km/s) = 3.87307 2.83089 3.39224
# Velocity P-wave (km/s) = 5.83889 5.12026 5.49134
#
# Compressibility (1/GPa) = 0.03284614
#
# Stress axis : x y z
#
# Youngs Moduli (GPa) = 85.94252 61.15387 95.83516
#
# Poissons Ratio (x) = -0.06766 0.23004
# Poissons Ratio (y) = -0.09509 0.14320
# Poissons Ratio (z) = 0.20629 0.09138
#
# Static dielectric constant tensor:
#      x y z
#    x 1.819990 0.000000 0.000000 
#    y 0.000000 1.776510 0.000000 
#    z 0.000000 0.000000 1.813290 
# 
# From -- ./inp_files/68379.got.cif
#   From: 2010.05.17/outbox.cif.g08.bks.cpg/sg65_35_cif.got.tgz:68379.got - 2010.06.03 17:01:31.
