data_PCOD9484628
_publ_section_title
;
Structure prediction by ZEFSAII (Michael W. Deem and Ramdas Pophale) SiO2 
 PCOD9484628
Probable space group: C M M M
;
_chemical_formula_sum "Si O2"
_cell_formula_units_Z 112
_cell_length_a 34.884715
_cell_length_b 14.124405
_cell_length_c 13.892167
_cell_angle_alpha 90.000000
_cell_angle_beta 90.000000
_cell_angle_gamma 90.000000
_cell_volume 6845.029696
_symmetry_space_group_name_H-M "C M M M"
_symmetry_group_IT_number 65
_symmetry_cell_setting 'orthorhombic'
loop_
_space_group_symop_operation_xyz
x,y,z
-x,-y,z
x,-y,-z
-x,y,-z
-x,-y,-z
x,y,-z
-x,y,z
x,-y,z
1/2+x,1/2+y,z
1/2-x,1/2-y,z
1/2+x,1/2-y,-z
1/2-x,1/2+y,-z
1/2-x,1/2-y,-z
1/2+x,1/2+y,-z
1/2-x,1/2+y,z
1/2+x,1/2-y,z
loop_
_atom_site_type_symbol
_atom_site_label
_atom_site_fract_x
_atom_site_fract_y
_atom_site_fract_z
Si Si1 0.773204 0.612359 0.892083
Si Si2 0.041891 0.387354 0.290944
Si Si3 0.544440 0.605356 0.883550
Si Si4 0.318331 0.611151 0.888651
Si Si5 0.418896 0.803094 0.113814
Si Si6 0.159238 0.709261 0.213296
Si Si7 0.379186 0.113301 0.386982
O O1 0.780245 0.500000 0.887261
O O2 0.727663 0.624994 0.880366
O O3 0.800599 0.664470 0.818562
O O4 0.783040 0.645994 0.000000
O O5 0.039986 0.500000 0.301517
O O6 0.053081 0.363357 0.181275
O O7 0.077548 0.357285 0.357038
O O8 0.000000 0.347330 0.314867
O O9 0.500000 0.621811 0.854052
O O10 0.556231 0.500000 0.850287
O O11 0.571047 0.693949 0.859008
O O12 0.544259 0.602468 0.000000
O O13 0.326473 0.500000 0.875252
O O14 0.337689 0.680010 0.812224
O O15 0.329335 0.635081 0.000000
O O16 0.375681 0.827015 0.145696
O O17 0.424375 0.815748 0.000000
O O18 0.148284 0.675235 0.319448
O O19 0.372926 0.126060 0.500000
O O20 0.374834 0.000000 0.365339
#
# Coordination Sequence:
#
# PCOD9484628 Si02
#       7
#    16  16  16  16  16  16  16
#     4   9  17  29  46  69  97 129 162 191 220 263
#     4   9  18  31  46  65  88 117 154 189 222 269
#     4   8  14  25  39  53  74 111 155 188 212 246
#     4   9  18  31  47  70 100 133 165 191 216 256
#     4  10  19  27  38  62  95 125 149 180 227 280
#     4  11  19  29  47  69  93 122 157 195 238 284
#     4   9  19  35  52  70  91 115 150 200 252 293
#
# _framework density 16.362238000000001
#
# number of rings (size 3 to 8) (size 9 to 14) (size 15 to 20)
#    0.000    2.714    0.000    3.857    0.000    3.714 
#    0.000    3.571    0.000    2.143    0.000    2.000 
#    0.000    0.000    0.000   15.143    0.000    0.857 
#
# Total GULP energy -311968.649263 kJ/mol
# GULP energy per Si atom -5570.868737 kJ/mol
# Density = 1.632500 g / cm^3
# Si number density = 16.362238 Si / 1000 Ang^3
#
#
#
# Elastic Constant Matrix: (Units=GPa)
#
#
# Indices 1 2 3 4 5 6 
#
# 1 27.0812 21.5405 30.2766 0.0000 0.0000 0.0000
# 2 21.5405 41.4356 37.2980 0.0000 0.0000 0.0000
# 3 30.2766 37.2980 88.8711 0.0000 0.0000 0.0000
# 4 0.0000 0.0000 0.0000 18.5687 0.0000 0.0000
# 5 0.0000 0.0000 0.0000 0.0000 10.7594 0.0000
# 6 0.0000 0.0000 0.0000 0.0000 0.0000 23.5929
#
#
#
# Elastic Compliance Matrix: (Units=1/GPa)
#
#
# Indices 1 2 3 4 5 6 
#
# 1 0.072781 -0.024937 -0.014329 0.000000 0.000000 0.000000
# 2 -0.024937 0.047331 -0.011368 0.000000 0.000000 0.000000
# 3 -0.014329 -0.011368 0.020905 0.000000 0.000000 0.000000
# 4 0.000000 0.000000 0.000000 0.053854 0.000000 0.000000
# 5 0.000000 0.000000 0.000000 0.000000 0.092942 0.000000
# 6 0.000000 0.000000 0.000000 0.000000 0.000000 0.042386
#
#
# Mechanical properties :
#
#
# Convention : Reuss Voigt Hill
#
# Bulk Modulus (GPa) = 25.15902 37.29090 31.22496
# Shear Modulus (GPa) = 11.24309 15.13574 13.18942
#
# Velocity S-wave (km/s) = 2.62417 3.04475 2.84225
# Velocity P-wave (km/s) = 4.95897 5.93304 5.46774
#
# Compressibility (1/GPa) = 0.03974718
#
# Stress axis : x y z
#
# Youngs Moduli (GPa) = 13.73980 21.12789 47.83512
#
# Poissons Ratio (x) = 0.52687 0.68544
# Poissons Ratio (y) = 0.34263 0.54381
# Poissons Ratio (z) = 0.19688 0.24019
#
# Static dielectric constant tensor:
#      x y z
#    x 1.586800 0.000000 0.000000 
#    y 0.000000 1.587620 0.000000 
#    z 0.000000 0.000000 1.515350 
# 
# From -- ./inp_files/47979.got.cif
#   From: 2010.05.17/outbox.cif.g08.bks.cpg/sg65_24_cif.got.tgz:47979.got - 2010.06.03 17:01:31.
