data_PCOD9484081
_publ_section_title
;
Structure prediction by ZEFSAII (Michael W. Deem and Ramdas Pophale) SiO2 
 PCOD9484081
Probable space group: C M M M
;
_chemical_formula_sum "Si O2"
_cell_formula_units_Z 104
_cell_length_a 25.478730
_cell_length_b 23.720971
_cell_length_c 7.722511
_cell_angle_alpha 90.000000
_cell_angle_beta 90.000000
_cell_angle_gamma 90.000000
_cell_volume 4667.332862
_symmetry_space_group_name_H-M "C M M M"
_symmetry_group_IT_number 65
_symmetry_cell_setting 'orthorhombic'
loop_
_space_group_symop_operation_xyz
x,y,z
-x,-y,z
x,-y,-z
-x,y,-z
-x,-y,-z
x,y,-z
-x,y,z
x,-y,z
1/2+x,1/2+y,z
1/2-x,1/2-y,z
1/2+x,1/2-y,-z
1/2-x,1/2+y,-z
1/2-x,1/2-y,-z
1/2+x,1/2+y,-z
1/2-x,1/2+y,z
1/2+x,1/2-y,z
loop_
_atom_site_type_symbol
_atom_site_label
_atom_site_fract_x
_atom_site_fract_y
_atom_site_fract_z
Si Si1 0.334035 0.901890 0.304756
Si Si2 0.776435 0.936493 0.710055
Si Si3 0.700614 0.783460 0.798516
Si Si4 0.439516 0.500000 0.287902
Si Si5 0.087319 0.766256 0.804014
Si Si6 0.057202 0.641623 0.295457
Si Si7 0.381991 0.613111 0.292804
O O1 0.341344 0.924692 0.500000
O O2 0.283347 0.931680 0.222011
O O3 0.312662 0.838084 0.309947
O O4 0.391815 0.891676 0.222776
O O5 0.771748 0.930304 0.500000
O O6 0.821177 0.892647 0.771145
O O7 0.795804 0.000000 0.742938
O O8 0.750000 0.750000 0.731539
O O9 0.649634 0.744770 0.797539
O O10 0.710158 0.800088 0.000000
O O11 0.500000 0.500000 0.237143
O O12 0.437252 0.500000 0.500000
O O13 0.411597 0.557312 0.229463
O O14 0.064280 0.709657 0.718432
O O15 0.084659 0.830443 0.742108
O O16 0.068241 0.764068 0.000000
O O17 0.057140 0.629276 0.500000
O O18 0.000000 0.626738 0.222641
O O19 0.377930 0.609598 0.500000
#
# Coordination Sequence:
#
# PCOD9484081 Si02
#       7
#    16  16  16   8  16  16  16
#     4   9  17  28  46  70  91 117 156 198 237 279
#     4   9  16  28  48  73  98 124 158 202 245 282
#     4   9  17  29  43  62  93 127 151 179 229 287
#     4   9  18  32  49  67  87 117 160 200 230 267
#     4  10  20  31  46  70  97 123 154 193 236 283
#     4   9  18  33  50  68  93 125 160 196 236 287
#     4  10  18  31  50  70  93 125 162 198 236 277
#
# _framework density 22.282533000000001
#
# number of rings (size 3 to 8) (size 9 to 14) (size 15 to 20)
#    0.000    2.692    0.769    1.385    0.000    1.846 
#    0.000    1.923    0.000    2.308    0.000    3.231 
#    0.000    0.000    0.000    7.692    0.000    8.000 
#
# Total GULP energy -289633.864063 kJ/mol
# GULP energy per Si atom -5569.882001 kJ/mol
# Density = 2.223182 g / cm^3
# Si number density = 22.282533 Si / 1000 Ang^3
#
#
#
# Elastic Constant Matrix: (Units=GPa)
#
#
# Indices 1 2 3 4 5 6 
#
# 1 123.0449 -5.8006 2.3174 0.0000 0.0000 0.0000
# 2 -5.8006 39.3760 -2.1472 0.0000 0.0000 0.0000
# 3 2.3174 -2.1472 36.5123 0.0000 0.0000 0.0000
# 4 0.0000 0.0000 0.0000 18.1682 0.0000 0.0000
# 5 0.0000 0.0000 0.0000 0.0000 1.3773 0.0000
# 6 0.0000 0.0000 0.0000 0.0000 0.0000 20.1890
#
#
#
# Elastic Compliance Matrix: (Units=1/GPa)
#
#
# Indices 1 2 3 4 5 6 
#
# 1 0.008191 0.001182 -0.000450 0.000000 0.000000 0.000000
# 2 0.001182 0.025648 0.001433 0.000000 0.000000 0.000000
# 3 -0.000450 0.001433 0.027501 0.000000 0.000000 0.000000
# 4 0.000000 0.000000 0.000000 0.055041 0.000000 0.000000
# 5 0.000000 0.000000 0.000000 0.000000 0.726040 0.000000
# 6 0.000000 0.000000 0.000000 0.000000 0.000000 0.049532
#
#
# Mechanical properties :
#
#
# Convention : Reuss Voigt Hill
#
# Bulk Modulus (GPa) = 15.22746 20.85249 18.03998
# Shear Modulus (GPa) = 5.49744 21.58448 13.54096
#
# Velocity S-wave (km/s) = 1.57242 3.11573 2.46782
# Velocity P-wave (km/s) = 3.18517 4.72464 4.02912
#
# Compressibility (1/GPa) = 0.06567083
#
# Stress axis : x y z
#
# Youngs Moduli (GPa) = 122.08041 38.98868 36.36243
#
# Poissons Ratio (x) = -0.04609 0.01638
# Poissons Ratio (y) = -0.14432 -0.05212
# Poissons Ratio (z) = 0.05498 -0.05588
#
# Static dielectric constant tensor:
#      x y z
#    x 1.885240 0.000000 0.000000 
#    y 0.000000 1.835500 0.000000 
#    z 0.000000 0.000000 1.840120 
# 
# From -- ./inp_files/16773.got.cif
#   From: 2010.05.17/outbox.cif.g08.bks.cpg/sg65_9_cif.got.tgz:16773.got - 2010.06.03 17:01:31.
