data_PCOD9484121
_publ_section_title
;
Structure prediction by ZEFSAII (Michael W. Deem and Ramdas Pophale) SiO2 
 PCOD9484121
Probable space group: C M M M
;
_chemical_formula_sum "Si O2"
_cell_formula_units_Z 88
_cell_length_a 22.885184
_cell_length_b 7.673217
_cell_length_c 24.725364
_cell_angle_alpha 90.000000
_cell_angle_beta 90.000000
_cell_angle_gamma 90.000000
_cell_volume 4341.847672
_symmetry_space_group_name_H-M "C M M M"
_symmetry_group_IT_number 65
_symmetry_cell_setting 'orthorhombic'
loop_
_space_group_symop_operation_xyz
x,y,z
-x,-y,z
x,-y,-z
-x,y,-z
-x,-y,-z
x,y,-z
-x,y,z
x,-y,z
1/2+x,1/2+y,z
1/2-x,1/2-y,z
1/2+x,1/2-y,-z
1/2-x,1/2+y,-z
1/2-x,1/2-y,-z
1/2+x,1/2+y,-z
1/2-x,1/2+y,z
1/2+x,1/2-y,z
loop_
_atom_site_type_symbol
_atom_site_label
_atom_site_fract_x
_atom_site_fract_y
_atom_site_fract_z
Si Si1 0.430743 0.797680 0.758113
Si Si2 0.098322 0.299069 0.356189
Si Si3 0.066493 0.797752 0.880306
Si Si4 0.682276 0.707215 0.442197
Si Si5 0.500000 0.786006 0.561990
Si Si6 0.684671 0.709784 0.062278
O O1 0.500000 0.792362 0.746457
O O2 0.401807 0.722078 0.703814
O O3 0.422418 0.709467 0.815873
O O4 0.413216 0.000000 0.765831
O O5 0.080048 0.500000 0.347598
O O6 0.158111 0.291571 0.388186
O O7 0.054338 0.226334 0.401394
O O8 0.125150 0.724400 0.908684
O O9 0.000000 0.723124 0.889445
O O10 0.062722 0.000000 0.896958
O O11 0.655604 0.769905 0.500000
O O12 0.673876 0.500000 0.439362
O O13 0.750000 0.750000 0.444954
O O14 0.500000 0.725286 0.500000
O O15 0.500000 0.000000 0.559625
O O16 0.681072 0.500000 0.062390
O O17 0.750000 0.750000 0.084754
O O18 0.683989 0.771927 0.000000
#
# Coordination Sequence:
#
# PCOD9484121 Si02
#       6
#    16  16  16  16   8  16
#     4   9  17  31  50  73 102 134 168 205 246 294
#     4  10  18  31  51  74  98 127 163 201 243 295
#     4   9  18  32  51  76 104 136 176 217 258 305
#     4  10  21  36  52  70  93 123 160 203 252 304
#     4   9  16  26  45  73  99 123 154 193 238 292
#     4   9  18  33  53  77 106 139 173 212 259 311
#
# _framework density 20.267869000000001
#
# number of rings (size 3 to 8) (size 9 to 14) (size 15 to 20)
#    0.000    2.636    0.909    1.091    0.000    3.636 
#    0.000    3.182    0.000    3.818    0.000    5.091 
#    0.000    0.000    0.000    0.000    0.000    0.000 
#
# Total GULP energy -244949.514675 kJ/mol
# GULP energy per Si atom -5567.034424 kJ/mol
# Density = 2.022174 g / cm^3
# Si number density = 20.267869 Si / 1000 Ang^3
#
#
#
# Elastic Constant Matrix: (Units=GPa)
#
#
# Indices 1 2 3 4 5 6 
#
# 1 128.3024 0.7555 73.7318 0.0000 0.0000 0.0000
# 2 0.7555 42.0492 1.2095 0.0000 0.0000 0.0000
# 3 73.7318 1.2095 98.1411 0.0000 0.0000 0.0000
# 4 0.0000 0.0000 0.0000 14.8545 0.0000 0.0000
# 5 0.0000 0.0000 0.0000 0.0000 28.5669 0.0000
# 6 0.0000 0.0000 0.0000 0.0000 0.0000 11.8465
#
#
#
# Elastic Compliance Matrix: (Units=1/GPa)
#
#
# Indices 1 2 3 4 5 6 
#
# 1 0.013716 0.000050 -0.010305 0.000000 0.000000 0.000000
# 2 0.000050 0.023790 -0.000331 0.000000 0.000000 0.000000
# 3 -0.010305 -0.000331 0.017936 0.000000 0.000000 0.000000
# 4 0.000000 0.000000 0.000000 0.067320 0.000000 0.000000
# 5 0.000000 0.000000 0.000000 0.000000 0.035006 0.000000
# 6 0.000000 0.000000 0.000000 0.000000 0.000000 0.084413
#
#
# Mechanical properties :
#
#
# Convention : Reuss Voigt Hill
#
# Bulk Modulus (GPa) = 29.18010 46.65403 37.91707
# Shear Modulus (GPa) = 18.19669 23.90664 21.05167
#
# Velocity S-wave (km/s) = 2.99960 3.43816 3.22634
# Velocity P-wave (km/s) = 5.14055 6.23137 5.71206
#
# Compressibility (1/GPa) = 0.03426993
#
# Stress axis : x y z
#
# Youngs Moduli (GPa) = 72.90837 42.03401 55.75522
#
# Poissons Ratio (x) = -0.00210 0.57456
# Poissons Ratio (y) = -0.00364 0.01844
# Poissons Ratio (z) = 0.75133 0.01390
#
# Static dielectric constant tensor:
#      x y z
#    x 1.796930 0.000000 0.000000 
#    y 0.000000 1.791750 0.000000 
#    z 0.000000 0.000000 1.726990 
# 
# From -- ./inp_files/71014.got.cif
#   From: 2010.05.17/outbox.cif.g08.bks.cpg/sg65_36_cif.got.tgz:71014.got - 2010.06.03 17:01:31.
