data_PCOD9484489
_publ_section_title
;
Structure prediction by ZEFSAII (Michael W. Deem and Ramdas Pophale) SiO2 
 PCOD9484489
Probable space group: C M M M
;
_chemical_formula_sum "Si O2"
_cell_formula_units_Z 72
_cell_length_a 16.537569
_cell_length_b 26.180819
_cell_length_c 10.122955
_cell_angle_alpha 90.000000
_cell_angle_beta 90.000000
_cell_angle_gamma 90.000000
_cell_volume 4382.906477
_symmetry_space_group_name_H-M "C M M M"
_symmetry_group_IT_number 65
_symmetry_cell_setting 'orthorhombic'
loop_
_space_group_symop_operation_xyz
x,y,z
-x,-y,z
x,-y,-z
-x,y,-z
-x,-y,-z
x,y,-z
-x,y,z
x,-y,z
1/2+x,1/2+y,z
1/2-x,1/2-y,z
1/2+x,1/2-y,-z
1/2-x,1/2+y,-z
1/2-x,1/2-y,-z
1/2+x,1/2+y,-z
1/2-x,1/2+y,z
1/2+x,1/2-y,z
loop_
_atom_site_type_symbol
_atom_site_label
_atom_site_fract_x
_atom_site_fract_y
_atom_site_fract_z
Si Si1 0.186414 0.942125 0.237987
Si Si2 0.408002 0.419538 0.500000
Si Si3 0.754760 0.190018 0.000000
Si Si4 0.289073 0.152886 0.284214
Si Si5 0.595808 0.194195 0.500000
Si Si6 0.597939 0.383986 0.000000
Si Si7 0.837664 0.809864 0.500000
O O1 0.135447 0.940611 0.371491
O O2 0.263251 0.906262 0.270456
O O3 0.130998 0.915229 0.126602
O O4 0.206551 0.000000 0.200166
O O5 0.500000 0.434113 0.500000
O O6 0.398876 0.357586 0.500000
O O7 0.750000 0.250000 0.000000
O O8 0.712146 0.171976 0.134572
O O9 0.846720 0.167383 0.000000
O O10 0.367061 0.166121 0.371094
O O11 0.218228 0.180664 0.370645
O O12 0.500000 0.193215 0.500000
O O13 0.626062 0.253341 0.500000
O O14 0.500000 0.377877 0.000000
#
# Coordination Sequence:
#
# PCOD9484489 Si02
#       7
#    16   8   8  16   8   8   8
#     4  10  20  33  50  69  96 136 168 198 244 297
#     4  10  19  28  41  68 100 126 161 202 235 279
#     4  10  18  33  53  72 101 141 172 200 245 297
#     4   9  19  34  51  72  99 129 169 207 243 305
#     4  11  20  33  54  75  97 127 166 216 265 304
#     4  10  21  34  50  77 108 134 168 208 243 289
#     4   9  17  32  50  69  97 134 164 193 246 311
#
# _framework density 16.427455999999999
#
# number of rings (size 3 to 8) (size 9 to 14) (size 15 to 20)
#    0.000    2.222    0.000    5.000    0.000    2.667 
#    0.000    9.444    0.000    1.333    0.000    0.000 
#    0.000    5.333    0.000    0.000    0.000    0.000 
#
# Total GULP energy -200637.525803 kJ/mol
# GULP energy per Si atom -5573.264606 kJ/mol
# Density = 1.639007 g / cm^3
# Si number density = 16.427456 Si / 1000 Ang^3
#
#
#
# Elastic Constant Matrix: (Units=GPa)
#
#
# Indices 1 2 3 4 5 6 
#
# 1 92.8313 58.0818 34.7559 0.0000 0.0000 0.0000
# 2 58.0818 135.7835 35.7133 0.0000 0.0000 0.0000
# 3 34.7559 35.7133 129.5264 0.0000 0.0000 0.0000
# 4 0.0000 0.0000 0.0000 -1.5336 0.0000 0.0000
# 5 0.0000 0.0000 0.0000 0.0000 -60.2658 0.0000
# 6 0.0000 0.0000 0.0000 0.0000 0.0000 2.7671
#
#
#
# Elastic Compliance Matrix: (Units=1/GPa)
#
#
# Indices 1 2 3 4 5 6 
#
# 1 0.015425 -0.005940 -0.002501 0.000000 0.000000 0.000000
# 2 -0.005940 0.010228 -0.001226 0.000000 0.000000 0.000000
# 3 -0.002501 -0.001226 0.008730 0.000000 0.000000 0.000000
# 4 0.000000 0.000000 0.000000 -0.652056 0.000000 0.000000
# 5 0.000000 0.000000 0.000000 0.000000 -0.016593 0.000000
# 6 0.000000 0.000000 0.000000 0.000000 0.000000 0.361386
#
#
# Mechanical properties :
#
#
# Convention : Reuss Voigt Hill
#
# Bulk Modulus (GPa) = 66.45519 68.36037 67.40778
# Shear Modulus (GPa) = -20.11837 3.49955 -8.30941
#
# Velocity S-wave (km/s) = -3.50334 1.46114 -2.25149
# Velocity P-wave (km/s) = 4.91702 6.67461 5.86206
#
# Compressibility (1/GPa) = 0.01504773
#
# Stress axis : x y z
#
# Youngs Moduli (GPa) = 64.82808 97.76900 114.55196
#
# Poissons Ratio (x) = 0.58079 0.28652
# Poissons Ratio (y) = 0.38511 0.14046
# Poissons Ratio (z) = 0.16215 0.11988
#
# Static dielectric constant tensor:
#      x y z
#    x 1.528840 0.000000 0.000000 
#    y 0.000000 1.582270 0.000000 
#    z 0.000000 0.000000 1.578000 
# 
# From -- ./inp_files/7484.got.cif
#   From: 2010.05.17/outbox.cif.g08.bks.cpg/sg65_4_cif.got.tgz:7484.got - 2010.06.03 17:01:31.
