data_PCOD9484491
_publ_section_title
;
Structure prediction by ZEFSAII (Michael W. Deem and Ramdas Pophale) SiO2 
 PCOD9484491
Probable space group: C M M M
;
_chemical_formula_sum "Si O2"
_cell_formula_units_Z 80
_cell_length_a 15.522066
_cell_length_b 20.586726
_cell_length_c 13.003434
_cell_angle_alpha 90.000000
_cell_angle_beta 90.000000
_cell_angle_gamma 90.000000
_cell_volume 4155.228086
_symmetry_space_group_name_H-M "C M M M"
_symmetry_group_IT_number 65
_symmetry_cell_setting 'orthorhombic'
loop_
_space_group_symop_operation_xyz
x,y,z
-x,-y,z
x,-y,-z
-x,y,-z
-x,-y,-z
x,y,-z
-x,y,z
x,-y,z
1/2+x,1/2+y,z
1/2-x,1/2-y,z
1/2+x,1/2-y,-z
1/2-x,1/2+y,-z
1/2-x,1/2-y,-z
1/2+x,1/2+y,-z
1/2-x,1/2+y,z
1/2+x,1/2-y,z
loop_
_atom_site_type_symbol
_atom_site_label
_atom_site_fract_x
_atom_site_fract_y
_atom_site_fract_z
Si Si1 0.897637 0.072766 0.000000
Si Si2 0.604815 0.716917 0.616817
Si Si3 0.661950 0.327830 0.167807
Si Si4 0.903217 0.638636 0.671555
Si Si5 0.598722 0.000000 0.378058
Si Si6 0.136005 0.685289 0.884924
O O1 0.870927 0.111869 0.897774
O O2 0.000000 0.069300 0.000000
O O3 0.861045 0.000000 0.000000
O O4 0.625079 0.696708 0.500000
O O5 0.500000 0.716075 0.628833
O O6 0.645240 0.675233 0.709746
O O7 0.633736 0.792606 0.631692
O O8 0.762395 0.321602 0.139636
O O9 0.616764 0.261868 0.126815
O O10 0.859948 0.569271 0.650899
O O11 0.908317 0.647348 0.793605
O O12 0.000000 0.634883 0.626363
O O13 0.500000 0.000000 0.334361
O O14 0.592910 0.000000 0.500000
O O15 0.117207 0.663868 0.000000
#
# Coordination Sequence:
#
# PCOD9484491 Si02
#       6
#     8  16  16  16   8  16
#     4  11  22  35  54  80 103 129 172 215 251 309
#     4   9  17  30  51  78 103 127 163 212 259 300
#     4  10  18  35  53  75 101 133 165 208 258 306
#     4   9  18  30  46  73 101 132 174 208 241 295
#     4   9  16  30  49  65  95 137 168 203 244 285
#     4  10  18  33  53  74 101 132 168 208 259 309
#
# _framework density 19.252855
#
# number of rings (size 3 to 8) (size 9 to 14) (size 15 to 20)
#    0.000    2.400    2.000    1.800    0.000    3.600 
#    1.800    9.500    0.000    2.400    0.000    2.800 
#    0.000    0.000    0.000    0.000    0.000    0.000 
#
# Total GULP energy -222903.642035 kJ/mol
# GULP energy per Si atom -5572.591051 kJ/mol
# Density = 1.920903 g / cm^3
# Si number density = 19.252855 Si / 1000 Ang^3
#
#
#
# Elastic Constant Matrix: (Units=GPa)
#
#
# Indices 1 2 3 4 5 6 
#
# 1 23.9200 14.8927 11.3763 0.0000 0.0000 0.0000
# 2 14.8927 125.4109 57.9335 0.0000 0.0000 0.0000
# 3 11.3763 57.9335 173.8496 0.0000 0.0000 0.0000
# 4 0.0000 0.0000 0.0000 23.2395 0.0000 0.0000
# 5 0.0000 0.0000 0.0000 0.0000 21.9332 0.0000
# 6 0.0000 0.0000 0.0000 0.0000 0.0000 10.6023
#
#
#
# Elastic Compliance Matrix: (Units=1/GPa)
#
#
# Indices 1 2 3 4 5 6 
#
# 1 0.045426 -0.004753 -0.001389 0.000000 0.000000 0.000000
# 2 -0.004753 0.009922 -0.002995 0.000000 0.000000 0.000000
# 3 -0.001389 -0.002995 0.006841 0.000000 0.000000 0.000000
# 4 0.000000 0.000000 0.000000 0.043030 0.000000 0.000000
# 5 0.000000 0.000000 0.000000 0.000000 0.045593 0.000000
# 6 0.000000 0.000000 0.000000 0.000000 0.000000 0.094319
#
#
# Mechanical properties :
#
#
# Convention : Reuss Voigt Hill
#
# Bulk Modulus (GPa) = 22.77134 54.62059 38.69596
# Shear Modulus (GPa) = 17.98284 27.08687 22.53486
#
# Velocity S-wave (km/s) = 3.05951 3.75494 3.42492
# Velocity P-wave (km/s) = 4.93295 6.87249 5.98185
#
# Compressibility (1/GPa) = 0.04391486
#
# Stress axis : x y z
#
# Youngs Moduli (GPa) = 22.01402 100.78722 146.17445
#
# Poissons Ratio (x) = 0.47902 0.20299
# Poissons Ratio (y) = 0.10463 0.43784
# Poissons Ratio (z) = 0.03057 0.30189
#
# Static dielectric constant tensor:
#      x y z
#    x 1.720650 0.000000 0.000000 
#    y 0.000000 1.694950 0.000000 
#    z 0.000000 0.000000 1.679820 
# 
# From -- ./inp_files/28570.got.cif
#   From: 2010.05.17/outbox.cif.g08.bks.cpg/sg65_15_cif.got.tgz:28570.got - 2010.06.03 17:01:31.
