data_PCOD9484794
_publ_section_title
;
Structure prediction by ZEFSAII (Michael W. Deem and Ramdas Pophale) SiO2 
 PCOD9484794
Probable space group: C M M M
;
_chemical_formula_sum "Si O2"
_cell_formula_units_Z 96
_cell_length_a 9.073649
_cell_length_b 27.620318
_cell_length_c 24.291286
_cell_angle_alpha 90.000000
_cell_angle_beta 90.000000
_cell_angle_gamma 90.000000
_cell_volume 6087.810943
_symmetry_space_group_name_H-M "C M M M"
_symmetry_group_IT_number 65
_symmetry_cell_setting 'orthorhombic'
loop_
_space_group_symop_operation_xyz
x,y,z
-x,-y,z
x,-y,-z
-x,y,-z
-x,-y,-z
x,y,-z
-x,y,z
x,-y,z
1/2+x,1/2+y,z
1/2-x,1/2-y,z
1/2+x,1/2-y,-z
1/2-x,1/2+y,-z
1/2-x,1/2-y,-z
1/2+x,1/2+y,-z
1/2-x,1/2+y,z
1/2+x,1/2-y,z
loop_
_atom_site_type_symbol
_atom_site_label
_atom_site_fract_x
_atom_site_fract_y
_atom_site_fract_z
Si Si1 0.175305 0.557249 0.387046
Si Si2 0.176900 0.351838 0.115347
Si Si3 0.176680 0.944122 0.163920
Si Si4 0.174393 0.898697 0.718633
Si Si5 0.175666 0.800193 0.218768
Si Si6 0.330055 0.558834 0.500000
Si Si7 0.823286 0.302526 0.000000
O O1 0.210272 0.500000 0.379834
O O2 0.236287 0.585376 0.334447
O O3 0.249688 0.574049 0.443967
O O4 0.000000 0.561866 0.391360
O O5 0.238064 0.405616 0.126617
O O6 0.251745 0.318260 0.161771
O O7 0.000000 0.350877 0.121670
O O8 0.215930 0.331810 0.055182
O O9 0.211438 0.930981 0.227562
O O10 0.000000 0.936809 0.157696
O O11 0.211082 0.000000 0.152541
O O12 0.200435 0.843544 0.737837
O O13 0.000000 0.904870 0.707888
O O14 0.250000 0.750000 0.235329
O O15 0.000000 0.794755 0.211469
O O16 0.325649 0.500000 0.500000
O O17 0.500000 0.573922 0.500000
O O18 0.750000 0.250000 0.000000
O O19 0.000000 0.296377 0.000000
#
# Coordination Sequence:
#
# PCOD9484794 Si02
#       7
#    16  16  16  16  16   8   8
#     4  10  19  29  43  67  98 127 158 197 234 270
#     4  10  20  34  51  72  97 124 157 194 236 287
#     4   9  18  33  51  71  97 128 161 197 235 277
#     4   9  18  31  47  68  94 124 157 191 230 279
#     4  10  20  34  51  72  97 124 155 194 240 286
#     4   9  17  29  45  63  88 127 166 195 231 277
#     4  10  22  36  51  72  95 121 154 195 241 288
#
# _framework density 15.769214
#
# number of rings (size 3 to 8) (size 9 to 14) (size 15 to 20)
#    0.000    2.417    0.000    3.750    0.000    9.000 
#    0.000    0.417    0.000    2.500    0.000    0.583 
#    0.000    0.000    0.000    0.000    0.000    0.000 
#
# Total GULP energy -267767.435966 kJ/mol
# GULP energy per Si atom -5578.488249 kJ/mol
# Density = 1.573332 g / cm^3
# Si number density = 15.769214 Si / 1000 Ang^3
#
#
#
# Elastic Constant Matrix: (Units=GPa)
#
#
# Indices 1 2 3 4 5 6 
#
# 1 69.8648 56.3116 69.9390 0.0000 0.0000 0.0000
# 2 56.3116 95.6473 59.5420 0.0000 0.0000 0.0000
# 3 69.9390 59.5420 133.2308 0.0000 0.0000 0.0000
# 4 0.0000 0.0000 0.0000 13.5907 0.0000 0.0000
# 5 0.0000 0.0000 0.0000 0.0000 28.7672 0.0000
# 6 0.0000 0.0000 0.0000 0.0000 0.0000 29.2576
#
#
#
# Elastic Compliance Matrix: (Units=1/GPa)
#
#
# Indices 1 2 3 4 5 6 
#
# 1 0.041567 -0.015086 -0.015079 0.000000 0.000000 0.000000
# 2 -0.015086 0.019960 -0.001001 0.000000 0.000000 0.000000
# 3 -0.015079 -0.001001 0.015869 0.000000 0.000000 0.000000
# 4 0.000000 0.000000 0.000000 0.073580 0.000000 0.000000
# 5 0.000000 0.000000 0.000000 0.000000 0.034762 0.000000
# 6 0.000000 0.000000 0.000000 0.000000 0.000000 0.034179
#
#
# Mechanical properties :
#
#
# Convention : Reuss Voigt Hill
#
# Bulk Modulus (GPa) = 66.37928 74.48090 70.43009
# Shear Modulus (GPa) = 17.40530 21.85311 19.62920
#
# Velocity S-wave (km/s) = 3.32588 3.72668 3.53197
# Velocity P-wave (km/s) = 7.54548 8.11492 7.83537
#
# Compressibility (1/GPa) = 0.01506494
#
# Stress axis : x y z
#
# Youngs Moduli (GPa) = 24.05738 50.10064 63.01736
#
# Poissons Ratio (x) = 0.75580 0.95022
# Poissons Ratio (y) = 0.36292 0.06308
# Poissons Ratio (z) = 0.36275 0.05015
#
# Static dielectric constant tensor:
#      x y z
#    x 1.526410 0.000000 0.000000 
#    y 0.000000 1.517280 0.000000 
#    z 0.000000 0.000000 1.503770 
# 
# From -- ./inp_files/68122.got.cif
#   From: 2010.05.17/outbox.cif.g08.bks.cpg/sg65_35_cif.got.tgz:68122.got - 2010.06.03 17:01:31.
