data_PCOD9484536
_publ_section_title
;
Structure prediction by ZEFSAII (Michael W. Deem and Ramdas Pophale) SiO2 
 PCOD9484536
Probable space group: C M M M
;
_chemical_formula_sum "Si O2"
_cell_formula_units_Z 120
_cell_length_a 14.293801
_cell_length_b 22.329612
_cell_length_c 15.511288
_cell_angle_alpha 90.000000
_cell_angle_beta 90.000000
_cell_angle_gamma 90.000000
_cell_volume 4950.815818
_symmetry_space_group_name_H-M "C M M M"
_symmetry_group_IT_number 65
_symmetry_cell_setting 'orthorhombic'
loop_
_space_group_symop_operation_xyz
x,y,z
-x,-y,z
x,-y,-z
-x,y,-z
-x,-y,-z
x,y,-z
-x,y,z
x,-y,z
1/2+x,1/2+y,z
1/2-x,1/2-y,z
1/2+x,1/2-y,-z
1/2-x,1/2+y,-z
1/2-x,1/2-y,-z
1/2+x,1/2+y,-z
1/2-x,1/2+y,z
1/2+x,1/2-y,z
loop_
_atom_site_type_symbol
_atom_site_label
_atom_site_fract_x
_atom_site_fract_y
_atom_site_fract_z
Si Si1 0.113620 0.218308 0.154298
Si Si2 0.114347 0.345770 0.093009
Si Si3 0.367800 0.132573 0.597060
Si Si4 0.892908 0.435757 0.233455
Si Si5 0.386053 0.587523 0.903406
Si Si6 0.354314 0.605333 0.403210
Si Si7 0.354626 0.735672 0.354416
Si Si8 0.144376 0.000000 0.742486
O O1 0.143943 0.277613 0.104527
O O2 0.141490 0.156642 0.110596
O O3 0.147343 0.225491 0.252060
O O4 0.000000 0.218054 0.157744
O O5 0.149450 0.386323 0.171192
O O6 0.000000 0.344277 0.096534
O O7 0.140682 0.370554 0.000000
O O8 0.397699 0.120358 0.500000
O O9 0.399542 0.087265 0.670187
O O10 0.256278 0.121278 0.599719
O O11 0.398209 0.199729 0.623762
O O12 0.842001 0.500000 0.232025
O O13 0.000000 0.442881 0.203329
O O14 0.500000 0.583446 0.901788
O O15 0.353886 0.551056 0.820414
O O16 0.356987 0.568560 0.000000
O O17 0.378262 0.584945 0.500000
O O18 0.394421 0.672870 0.388933
O O19 0.370029 0.554127 0.331801
O O20 0.250000 0.750000 0.387848
#
# Coordination Sequence:
#
# PCOD9484536 Si02
#       8
#    16  16  16  16  16  16  16   8
#     4  10  18  33  58  86 115 147 188 238 286 332
#     4   9  17  31  54  80 105 139 183 226 271 328
#     4  10  21  37  60  82 105 143 189 237 285 337
#     4  10  21  35  52  79 113 145 180 229 283 337
#     4  10  21  37  60  89 118 151 193 234 276 334
#     4  10  22  38  57  83 110 145 194 235 277 338
#     4  10  19  36  60  85 110 144 185 239 289 336
#     4  12  21  35  58  83 113 149 184 233 280 321
#
# _framework density 24.238430000000001
#
# number of rings (size 3 to 8) (size 9 to 14) (size 15 to 20)
#    0.000    2.000    2.667    1.400    0.933    4.533 
#    0.000    2.000    0.000   10.800    0.000    0.000 
#    0.000    0.000    0.000    0.000    0.000    0.000 
#
# Total GULP energy -334252.100077 kJ/mol
# GULP energy per Si atom -5570.868335 kJ/mol
# Density = 2.418326 g / cm^3
# Si number density = 24.238430 Si / 1000 Ang^3
#
#
#
# Elastic Constant Matrix: (Units=GPa)
#
#
# Indices 1 2 3 4 5 6 
#
# 1 74.9924 12.3195 -4.7430 0.0000 0.0000 0.0000
# 2 12.3195 219.1653 106.0771 0.0000 0.0000 0.0000
# 3 -4.7430 106.0771 216.6546 0.0000 0.0000 0.0000
# 4 0.0000 0.0000 0.0000 -8.5950 0.0000 0.0000
# 5 0.0000 0.0000 0.0000 0.0000 14.1561 0.0000
# 6 0.0000 0.0000 0.0000 0.0000 0.0000 -0.8863
#
#
#
# Elastic Compliance Matrix: (Units=1/GPa)
#
#
# Indices 1 2 3 4 5 6 
#
# 1 0.013586 -0.001190 0.000880 0.000000 0.000000 0.000000
# 2 -0.001190 0.006084 -0.003005 0.000000 0.000000 0.000000
# 3 0.000880 -0.003005 0.006106 0.000000 0.000000 0.000000
# 4 0.000000 0.000000 0.000000 -0.116347 0.000000 0.000000
# 5 0.000000 0.000000 0.000000 0.000000 0.070641 0.000000
# 6 0.000000 0.000000 0.000000 0.000000 0.000000 -1.128300
#
#
# Mechanical properties :
#
#
# Convention : Reuss Voigt Hill
#
# Bulk Modulus (GPa) = 52.22810 82.01327 67.12069
# Shear Modulus (GPa) = -4.40444 27.41222 11.50389
#
# Velocity S-wave (km/s) = -1.34947 3.36659 2.18093
# Velocity P-wave (km/s) = 4.37794 7.00153 5.83900
#
# Compressibility (1/GPa) = 0.01914678
#
# Stress axis : x y z
#
# Youngs Moduli (GPa) = 73.60658 164.36582 163.77025
#
# Poissons Ratio (x) = 0.19551 -0.14409
# Poissons Ratio (y) = 0.08756 0.49210
# Poissons Ratio (z) = -0.06476 0.49389
#
# Static dielectric constant tensor:
#      x y z
#    x 2.606420 0.000000 0.000000 
#    y 0.000000 1.934630 0.000000 
#    z 0.000000 0.000000 1.859140 
# 
# From -- ./inp_files/44720.got.cif
#   From: 2010.05.17/outbox.cif.g08.bks.cpg/sg65_23_cif.got.tgz:44720.got - 2010.06.03 17:01:31.
