data_PCOD9484087
_publ_section_title
;
Structure prediction by ZEFSAII (Michael W. Deem and Ramdas Pophale) SiO2 
 PCOD9484087
Probable space group: C M M M
;
_chemical_formula_sum "Si O2"
_cell_formula_units_Z 104
_cell_length_a 19.156476
_cell_length_b 14.424656
_cell_length_c 15.350664
_cell_angle_alpha 90.000000
_cell_angle_beta 90.000000
_cell_angle_gamma 90.000000
_cell_volume 4241.781079
_symmetry_space_group_name_H-M "C M M M"
_symmetry_group_IT_number 65
_symmetry_cell_setting 'orthorhombic'
loop_
_space_group_symop_operation_xyz
x,y,z
-x,-y,z
x,-y,-z
-x,y,-z
-x,-y,-z
x,y,-z
-x,y,z
x,-y,z
1/2+x,1/2+y,z
1/2-x,1/2-y,z
1/2+x,1/2-y,-z
1/2-x,1/2+y,-z
1/2-x,1/2-y,-z
1/2+x,1/2+y,-z
1/2-x,1/2+y,z
1/2+x,1/2-y,z
loop_
_atom_site_type_symbol
_atom_site_label
_atom_site_fract_x
_atom_site_fract_y
_atom_site_fract_z
Si Si1 0.418126 0.000000 0.101751
Si Si2 0.728337 0.857154 0.663686
Si Si3 0.106882 0.699463 0.100720
Si Si4 0.420781 0.802499 0.605847
Si Si5 0.737802 0.102498 0.135097
Si Si6 0.099429 0.899123 0.898566
Si Si7 0.624092 0.401267 0.398636
O O1 0.408766 0.101552 0.146102
O O2 0.500000 0.000000 0.091622
O O3 0.393896 0.000000 0.000000
O O4 0.750000 0.750000 0.664523
O O5 0.647346 0.861277 0.635407
O O6 0.738066 0.892796 0.761029
O O7 0.791355 0.898918 0.607243
O O8 0.190473 0.685782 0.100865
O O9 0.081911 0.797250 0.138928
O O10 0.083032 0.696517 0.000000
O O11 0.418549 0.802627 0.500000
O O12 0.500000 0.830058 0.631547
O O13 0.406038 0.695789 0.636493
O O14 0.816555 0.102799 0.103057
O O15 0.707939 0.000000 0.111645
O O16 0.078574 0.000000 0.861681
O O17 0.078102 0.898540 0.000000
O O18 0.603992 0.402255 0.500000
O O19 0.601211 0.500000 0.358739
#
# Coordination Sequence:
#
# PCOD9484087 Si02
#       7
#     8  16  16  16  16  16  16
#     4   9  18  32  50  70  92 128 177 221 260 303
#     4  10  19  31  48  71 103 138 174 213 260 323
#     4  10  18  31  50  71 100 134 172 219 265 314
#     4   9  18  33  53  75 100 134 173 213 261 317
#     4  11  20  30  47  72 102 134 171 215 264 319
#     4   9  18  30  47  74 106 137 168 208 267 329
#     4   9  17  30  50  76 103 131 167 213 263 313
#
# _framework density 24.518001999999999
#
# number of rings (size 3 to 8) (size 9 to 14) (size 15 to 20)
#    0.000    2.385    0.769    2.769    0.000    4.000 
#    0.000    2.308    0.000    1.846    0.000    8.615 
#    0.000    1.231    0.000    0.000    0.000    0.000 
#
# Total GULP energy -289733.321808 kJ/mol
# GULP energy per Si atom -5571.794650 kJ/mol
# Density = 2.446220 g / cm^3
# Si number density = 24.518002 Si / 1000 Ang^3
#
#
#
# Elastic Constant Matrix: (Units=GPa)
#
#
# Indices 1 2 3 4 5 6 
#
# 1 110.9611 3.8687 12.1746 0.0000 0.0000 0.0000
# 2 3.8687 176.1107 -10.1665 0.0000 0.0000 0.0000
# 3 12.1746 -10.1665 54.1299 0.0000 0.0000 0.0000
# 4 0.0000 0.0000 0.0000 3.9366 0.0000 0.0000
# 5 0.0000 0.0000 0.0000 0.0000 -50.0656 0.0000
# 6 0.0000 0.0000 0.0000 0.0000 0.0000 -2.4338
#
#
#
# Elastic Compliance Matrix: (Units=1/GPa)
#
#
# Indices 1 2 3 4 5 6 
#
# 1 0.009259 -0.000327 -0.002144 0.000000 0.000000 0.000000
# 2 -0.000327 0.005752 0.001154 0.000000 0.000000 0.000000
# 3 -0.002144 0.001154 0.019173 0.000000 0.000000 0.000000
# 4 0.000000 0.000000 0.000000 0.254027 0.000000 0.000000
# 5 0.000000 0.000000 0.000000 0.000000 -0.019974 0.000000
# 6 0.000000 0.000000 0.000000 0.000000 0.000000 -0.410885
#
#
# Mechanical properties :
#
#
# Convention : Reuss Voigt Hill
#
# Bulk Modulus (GPa) = 31.69612 39.21724 35.45668
# Shear Modulus (GPa) = -38.61087 12.64245 -12.98421
#
# Velocity S-wave (km/s) = -3.97268 2.27323 -2.30375
# Velocity P-wave (km/s) = 2.84379 4.78750 2.72333
#
# Compressibility (1/GPa) = 0.03154960
#
# Stress axis : x y z
#
# Youngs Moduli (GPa) = 108.00543 173.85112 52.15672
#
# Poissons Ratio (x) = 0.05688 0.11182
# Poissons Ratio (y) = 0.03533 -0.06018
# Poissons Ratio (z) = 0.23155 -0.20061
#
# Static dielectric constant tensor:
#      x y z
#    x 2.139210 0.000000 0.000000 
#    y 0.000000 2.055290 0.000000 
#    z 0.000000 0.000000 1.894530 
# 
# From -- ./inp_files/55858.got.cif
#   From: 2010.05.17/outbox.cif.g08.bks.cpg/sg65_28_cif.got.tgz:55858.got - 2010.06.03 17:01:31.
