data_PCOD9484495
_publ_section_title
;
Structure prediction by ZEFSAII (Michael W. Deem and Ramdas Pophale) SiO2 
 PCOD9484495
Probable space group: C M M M
;
_chemical_formula_sum "Si O2"
_cell_formula_units_Z 88
_cell_length_a 7.627884
_cell_length_b 24.391803
_cell_length_c 23.457258
_cell_angle_alpha 90.000000
_cell_angle_beta 90.000000
_cell_angle_gamma 90.000000
_cell_volume 4364.406846
_symmetry_space_group_name_H-M "C M M M"
_symmetry_group_IT_number 65
_symmetry_cell_setting 'orthorhombic'
loop_
_space_group_symop_operation_xyz
x,y,z
-x,-y,z
x,-y,-z
-x,y,-z
-x,-y,-z
x,y,-z
-x,y,z
x,-y,z
1/2+x,1/2+y,z
1/2-x,1/2-y,z
1/2+x,1/2-y,-z
1/2-x,1/2+y,-z
1/2-x,1/2-y,-z
1/2+x,1/2+y,-z
1/2-x,1/2+y,z
1/2+x,1/2-y,z
loop_
_atom_site_type_symbol
_atom_site_label
_atom_site_fract_x
_atom_site_fract_y
_atom_site_fract_z
Si Si1 0.707080 0.814105 0.500000
Si Si2 0.791444 0.889741 0.180116
Si Si3 0.714119 0.563717 0.936180
Si Si4 0.299209 0.500000 0.380484
Si Si5 0.211131 0.813958 0.721325
Si Si6 0.293132 0.380658 0.611979
Si Si7 0.791035 0.500000 0.750509
O O1 0.500000 0.820507 0.500000
O O2 0.750000 0.750000 0.500000
O O3 0.776418 0.843340 0.556598
O O4 0.721842 0.899761 0.116410
O O5 0.721908 0.841100 0.220050
O O6 0.000000 0.881249 0.174339
O O7 0.763235 0.946068 0.214809
O O8 0.500000 0.564326 0.935596
O O9 0.764853 0.500000 0.926916
O O10 0.769403 0.579846 0.000000
O O11 0.500000 0.500000 0.402381
O O12 0.217747 0.558409 0.397465
O O13 0.295607 0.500000 0.311619
O O14 0.250000 0.750000 0.715711
O O15 0.278816 0.848999 0.667331
O O16 0.000000 0.819178 0.721319
O O17 0.500000 0.389007 0.623437
O O18 0.000000 0.500000 0.743039
#
# Coordination Sequence:
#
# PCOD9484495 Si02
#       7
#     8  16  16   8  16  16   8
#     4  12  26  43  62  83 113 150 190 230 269 312
#     4  10  18  33  54  74 104 145 181 217 266 325
#     4   8  13  22  44  77 103 127 170 225 267 307
#     4  10  20  39  63  85 114 146 177 213 263 332
#     4  10  21  35  55  79 104 138 180 225 270 313
#     4  10  21  39  63  87 110 141 181 221 270 324
#     4  12  22  30  48  82 116 143 174 216 269 322
#
# _framework density 20.163107
#
# number of rings (size 3 to 8) (size 9 to 14) (size 15 to 20)
#    0.000    2.000    2.727    2.727    0.000    4.000 
#    0.000    1.818    0.000    1.636    0.000    0.000 
#    0.000    0.000    0.000    0.000    0.000    0.000 
#
# Total GULP energy -245627.407467 kJ/mol
# GULP energy per Si atom -5582.441079 kJ/mol
# Density = 2.011721 g / cm^3
# Si number density = 20.163107 Si / 1000 Ang^3
#
#
#
# Elastic Constant Matrix: (Units=GPa)
#
#
# Indices 1 2 3 4 5 6 
#
# 1 42.4504 -3.7541 -0.9537 0.0000 0.0000 0.0000
# 2 -3.7541 166.5099 77.0983 0.0000 0.0000 0.0000
# 3 -0.9537 77.0983 132.2690 0.0000 0.0000 0.0000
# 4 0.0000 0.0000 0.0000 34.7188 0.0000 0.0000
# 5 0.0000 0.0000 0.0000 0.0000 -11.9039 0.0000
# 6 0.0000 0.0000 0.0000 0.0000 0.0000 16.8790
#
#
#
# Elastic Compliance Matrix: (Units=1/GPa)
#
#
# Indices 1 2 3 4 5 6 
#
# 1 0.023608 0.000621 -0.000192 0.000000 0.000000 0.000000
# 2 0.000621 0.008242 -0.004800 0.000000 0.000000 0.000000
# 3 -0.000192 -0.004800 0.010357 0.000000 0.000000 0.000000
# 4 0.000000 0.000000 0.000000 0.028803 0.000000 0.000000
# 5 0.000000 0.000000 0.000000 0.000000 -0.084006 0.000000
# 6 0.000000 0.000000 0.000000 0.000000 0.000000 0.059245
#
#
# Mechanical properties :
#
#
# Convention : Reuss Voigt Hill
#
# Bulk Modulus (GPa) = 29.88170 54.00115 41.94142
# Shear Modulus (GPa) = 75.59229 25.86137 50.72683
#
# Velocity S-wave (km/s) = 6.12958 3.58524 5.02124
# Velocity P-wave (km/s) = 8.05902 6.63166 7.37993
#
# Compressibility (1/GPa) = 0.03346530
#
# Stress axis : x y z
#
# Youngs Moduli (GPa) = 42.35940 121.32908 96.55597
#
# Poissons Ratio (x) = -0.07535 0.01852
# Poissons Ratio (y) = -0.02631 0.46344
# Poissons Ratio (z) = 0.00812 0.58235
#
# Static dielectric constant tensor:
#      x y z
#    x 1.775730 0.000000 0.000000 
#    y 0.000000 1.632580 0.000000 
#    z 0.000000 0.000000 1.733000 
# 
# From -- ./inp_files/67667.got.cif
#   From: 2010.05.17/outbox.cif.g08.bks.cpg/sg65_34_cif.got.tgz:67667.got - 2010.06.03 17:01:31.
