data_PCOD9484691
_publ_section_title
;
Structure prediction by ZEFSAII (Michael W. Deem and Ramdas Pophale) SiO2 
 PCOD9484691
Probable space group: C M M M
;
_chemical_formula_sum "Si O2"
_cell_formula_units_Z 88
_cell_length_a 27.810064
_cell_length_b 26.502302
_cell_length_c 9.183918
_cell_angle_alpha 90.000000
_cell_angle_beta 90.000000
_cell_angle_gamma 90.000000
_cell_volume 6768.829648
_symmetry_space_group_name_H-M "C M M M"
_symmetry_group_IT_number 65
_symmetry_cell_setting 'orthorhombic'
loop_
_space_group_symop_operation_xyz
x,y,z
-x,-y,z
x,-y,-z
-x,y,-z
-x,-y,-z
x,y,-z
-x,y,z
x,-y,z
1/2+x,1/2+y,z
1/2-x,1/2-y,z
1/2+x,1/2-y,-z
1/2-x,1/2+y,-z
1/2-x,1/2-y,-z
1/2+x,1/2+y,-z
1/2-x,1/2+y,z
1/2+x,1/2-y,z
loop_
_atom_site_type_symbol
_atom_site_label
_atom_site_fract_x
_atom_site_fract_y
_atom_site_fract_z
Si Si1 0.862462 0.744957 0.667415
Si Si2 0.902272 0.900075 0.324224
Si Si3 0.804347 0.851520 0.333676
Si Si4 0.221364 0.696293 0.832986
Si Si5 0.556460 0.699465 0.827865
Si Si6 0.442230 0.500000 0.827782
O O1 0.873632 0.733030 0.500000
O O2 0.832833 0.797957 0.667614
O O3 0.826490 0.704829 0.739051
O O4 0.909778 0.757297 0.760176
O O5 0.907842 0.900080 0.500000
O O6 0.845558 0.891292 0.292038
O O7 0.930104 0.852291 0.255549
O O8 0.921710 0.950622 0.251581
O O9 0.789094 0.860646 0.500000
O O10 0.758335 0.844183 0.232714
O O11 0.250000 0.750000 0.829247
O O12 0.209653 0.685640 0.000000
O O13 0.500000 0.709767 0.810288
O O14 0.566838 0.693453 0.000000
O O15 0.500000 0.500000 0.815260
O O16 0.430359 0.500000 0.000000
#
# Coordination Sequence:
#
# PCOD9484691 Si02
#       6
#    16  16  16  16  16   8
#     4   9  16  25  37  52  71  94 118 144 173 209
#     4  10  20  32  45  58  71  90 118 152 189 230
#     4   8  15  26  38  53  71  89 110 139 176 216
#     4   9  15  22  35  54  73  92 112 136 170 211
#     4  10  19  29  40  54  73  95 120 153 189 222
#     4  11  23  35  45  57  73  93 119 155 196 233
#
# _framework density 13.000769999999999
#
# number of rings (size 3 to 8) (size 9 to 14) (size 15 to 20)
#    0.000    2.636    0.000    4.091    0.000   11.636 
#    0.000    0.000    0.000    0.000    0.000    0.000 
#    0.000    0.000    0.000    0.000    0.000    0.000 
#
# Total GULP energy -245081.244363 kJ/mol
# GULP energy per Si atom -5570.028281 kJ/mol
# Density = 1.297118 g / cm^3
# Si number density = 13.000770 Si / 1000 Ang^3
#
#
#
# Elastic Constant Matrix: (Units=GPa)
#
#
# Indices 1 2 3 4 5 6 
#
# 1 84.5635 37.1369 68.2445 0.0000 0.0000 0.0000
# 2 37.1369 27.0342 33.4435 0.0000 0.0000 0.0000
# 3 68.2445 33.4435 107.3094 0.0000 0.0000 0.0000
# 4 0.0000 0.0000 0.0000 13.5450 0.0000 0.0000
# 5 0.0000 0.0000 0.0000 0.0000 23.3833 0.0000
# 6 0.0000 0.0000 0.0000 0.0000 0.0000 22.0743
#
#
#
# Elastic Compliance Matrix: (Units=1/GPa)
#
#
# Indices 1 2 3 4 5 6 
#
# 1 0.038455 -0.036734 -0.013007 0.000000 0.000000 0.000000
# 2 -0.036734 0.095290 -0.006336 0.000000 0.000000 0.000000
# 3 -0.013007 -0.006336 0.019566 0.000000 0.000000 0.000000
# 4 0.000000 0.000000 0.000000 0.073828 0.000000 0.000000
# 5 0.000000 0.000000 0.000000 0.000000 0.042766 0.000000
# 6 0.000000 0.000000 0.000000 0.000000 0.000000 0.045302
#
#
# Mechanical properties :
#
#
# Convention : Reuss Voigt Hill
#
# Bulk Modulus (GPa) = 24.29823 55.17300 39.73561
# Shear Modulus (GPa) = 11.33583 17.13933 14.23758
#
# Velocity S-wave (km/s) = 2.95606 3.63482 3.31287
# Velocity P-wave (km/s) = 5.51194 7.75540 6.72784
#
# Compressibility (1/GPa) = 0.04115527
#
# Stress axis : x y z
#
# Youngs Moduli (GPa) = 26.00460 10.49427 51.10987
#
# Poissons Ratio (x) = 0.38550 0.66480
# Poissons Ratio (y) = 0.95526 0.32384
# Poissons Ratio (z) = 0.33825 0.06649
#
# Static dielectric constant tensor:
#      x y z
#    x 1.426760 0.000000 0.000000 
#    y 0.000000 1.399390 0.000000 
#    z 0.000000 0.000000 1.438600 
# 
# From -- ./inp_files/12603.got.cif
#   From: 2010.05.17/outbox.cif.g08.bks.cpg/sg65_7_cif.got.tgz:12603.got - 2010.06.03 17:01:31.
