data_PCOD9484354
_publ_section_title
;
Structure prediction by ZEFSAII (Michael W. Deem and Ramdas Pophale) SiO2 
 PCOD9484354
Probable space group: C M M M
;
_chemical_formula_sum "Si O2"
_cell_formula_units_Z 58
_cell_length_a 16.934911
_cell_length_b 20.151760
_cell_length_c 7.352771
_cell_angle_alpha 90.000000
_cell_angle_beta 90.000000
_cell_angle_gamma 90.000000
_cell_volume 2509.267381
_symmetry_space_group_name_H-M "C M M M"
_symmetry_group_IT_number 65
_symmetry_cell_setting 'orthorhombic'
loop_
_space_group_symop_operation_xyz
x,y,z
-x,-y,z
x,-y,-z
-x,y,-z
-x,-y,-z
x,y,-z
-x,y,z
x,-y,z
1/2+x,1/2+y,z
1/2-x,1/2-y,z
1/2+x,1/2-y,-z
1/2-x,1/2+y,-z
1/2-x,1/2-y,-z
1/2+x,1/2+y,-z
1/2-x,1/2+y,z
1/2+x,1/2-y,z
loop_
_atom_site_type_symbol
_atom_site_label
_atom_site_fract_x
_atom_site_fract_y
_atom_site_fract_z
Si Si1 0.000000 0.635198 0.700891
Si Si2 0.789469 0.924206 0.221586
Si Si3 0.909115 0.183488 0.221385
Si Si4 0.167239 0.315127 0.794329
Si Si5 0.500000 0.000000 0.500000
O O1 0.079027 0.656216 0.798011
O O2 0.000000 0.558120 0.655607
O O3 0.000000 0.668230 0.500000
O O4 0.871231 0.887322 0.268382
O O5 0.721691 0.873021 0.286798
O O6 0.781712 0.000000 0.285407
O O7 0.784882 0.926949 0.000000
O O8 0.848945 0.241743 0.284413
O O9 0.000000 0.191541 0.279986
O O10 0.909881 0.188454 0.000000
O O11 0.196583 0.306416 0.000000
#
# Coordination Sequence:
#
# PCOD9484354 Si02
#       5
#     8  16  16  16   2
#     4  10  21  35  51  73 104 137 167 202 257 307
#     4   9  18  28  43  72 107 138 166 206 255 301
#     4   9  16  28  47  72 101 134 171 209 252 296
#     4  10  18  32  53  77 101 130 172 212 250 296
#     4   8  24  36  46  72 108 144 158 200 264 312
#
# _framework density 23.114317
#
# number of rings (size 3 to 8) (size 9 to 14) (size 15 to 20)
#    0.414    2.207    1.379    1.241    1.931    3.862 
#    0.000    3.448    0.000    3.310    0.000    0.000 
#    0.000    1.103    0.000    0.000    0.000    0.000 
#
# Total GULP energy -161489.413571 kJ/mol
# GULP energy per Si atom -5568.600468 kJ/mol
# Density = 2.306171 g / cm^3
# Si number density = 23.114317 Si / 1000 Ang^3
#
#
#
# Elastic Constant Matrix: (Units=GPa)
#
#
# Indices 1 2 3 4 5 6 
#
# 1 120.3845 93.6450 4.9520 0.0000 0.0000 0.0000
# 2 93.6450 225.7455 12.4707 0.0000 0.0000 0.0000
# 3 4.9520 12.4707 88.4487 0.0000 0.0000 0.0000
# 4 0.0000 0.0000 0.0000 -5.7236 0.0000 0.0000
# 5 0.0000 0.0000 0.0000 0.0000 -125.4781 0.0000
# 6 0.0000 0.0000 0.0000 0.0000 0.0000 7.2250
#
#
#
# Elastic Compliance Matrix: (Units=1/GPa)
#
#
# Indices 1 2 3 4 5 6 
#
# 1 0.012264 -0.005089 0.000031 0.000000 0.000000 0.000000
# 2 -0.005089 0.006576 -0.000642 0.000000 0.000000 0.000000
# 3 0.000031 -0.000642 0.011395 0.000000 0.000000 0.000000
# 4 0.000000 0.000000 0.000000 -0.174715 0.000000 0.000000
# 5 0.000000 0.000000 0.000000 0.000000 -0.007970 0.000000
# 6 0.000000 0.000000 0.000000 0.000000 0.000000 0.138408
#
#
# Mechanical properties :
#
#
# Convention : Reuss Voigt Hill
#
# Bulk Modulus (GPa) = 53.09484 72.96824 63.03154
# Shear Modulus (GPa) = 1374.47033 -3.22793 685.62120
#
# Velocity S-wave (km/s) = 24.41170 -1.18302 17.24140
# Velocity P-wave (km/s) = 28.59362 5.45627 20.58356
#
# Compressibility (1/GPa) = 0.01883422
#
# Stress axis : x y z
#
# Youngs Moduli (GPa) = 81.53762 152.05893 87.75918
#
# Poissons Ratio (x) = 0.77386 -0.00271
# Poissons Ratio (y) = 0.41496 0.05637
# Poissons Ratio (z) = -0.00252 0.09767
#
# Static dielectric constant tensor:
#      x y z
#    x 1.850110 0.000000 0.000000 
#    y 0.000000 1.851910 0.000000 
#    z 0.000000 0.000000 1.915260 
# 
# From -- ./inp_files/8562.got.cif
#   From: 2010.05.17/outbox.cif.g08.bks.cpg/sg65_5_cif.got.tgz:8562.got - 2010.06.03 17:01:31.
