data_PCOD9484534
_publ_section_title
;
Structure prediction by ZEFSAII (Michael W. Deem and Ramdas Pophale) SiO2 
 PCOD9484534
Probable space group: C M M M
;
_chemical_formula_sum "Si O2"
_cell_formula_units_Z 88
_cell_length_a 28.475183
_cell_length_b 7.604420
_cell_length_c 19.475793
_cell_angle_alpha 90.000000
_cell_angle_beta 90.000000
_cell_angle_gamma 90.000000
_cell_volume 4217.234679
_symmetry_space_group_name_H-M "C M M M"
_symmetry_group_IT_number 65
_symmetry_cell_setting 'orthorhombic'
loop_
_space_group_symop_operation_xyz
x,y,z
-x,-y,z
x,-y,-z
-x,y,-z
-x,-y,-z
x,y,-z
-x,y,z
x,-y,z
1/2+x,1/2+y,z
1/2-x,1/2-y,z
1/2+x,1/2-y,-z
1/2-x,1/2+y,-z
1/2-x,1/2-y,-z
1/2+x,1/2+y,-z
1/2-x,1/2+y,z
1/2+x,1/2-y,z
loop_
_atom_site_type_symbol
_atom_site_label
_atom_site_fract_x
_atom_site_fract_y
_atom_site_fract_z
Si Si1 0.000000 0.208302 0.423251
Si Si2 0.403894 0.210736 0.342482
Si Si3 0.113126 0.284806 0.078106
Si Si4 0.301823 0.789808 0.172765
Si Si5 0.552677 0.785471 0.797627
Si Si6 0.197772 0.288909 0.669349
O O1 0.951090 0.252565 0.385295
O O2 0.000000 0.285351 0.500000
O O3 0.000000 0.000000 0.428168
O O4 0.414155 0.272464 0.264596
O O5 0.351596 0.273029 0.364353
O O6 0.401131 0.000000 0.340496
O O7 0.113749 0.500000 0.075894
O O8 0.158987 0.225710 0.120235
O O9 0.070488 0.232399 0.127674
O O10 0.111010 0.223293 0.000000
O O11 0.250000 0.750000 0.146250
O O12 0.303798 0.722681 0.251327
O O13 0.308315 0.000000 0.177786
O O14 0.500000 0.726813 0.783524
O O15 0.553057 0.000000 0.796446
O O16 0.195986 0.500000 0.670976
O O17 0.250000 0.250000 0.641051
#
# Coordination Sequence:
#
# PCOD9484534 Si02
#       6
#     8  16  16  16  16  16
#     4  11  25  41  57  85 120 143 162 202 261 313
#     4  10  18  33  58  82 106 142 183 218 255 306
#     4   9  16  25  38  60  93 130 166 210 264 312
#     4   9  16  27  42  62  92 127 165 211 260 304
#     4   9  15  25  44  68  94 125 166 215 260 301
#     4   9  17  29  49  77 107 139 177 223 267 307
#
# _framework density 20.866754
#
# number of rings (size 3 to 8) (size 9 to 14) (size 15 to 20)
#    0.000    2.636    2.727    0.273    0.000    2.182 
#    0.000    1.818    0.000    0.545    0.000    0.000 
#    0.000    0.727    0.000    0.000    0.000    0.000 
#
# Total GULP energy -245175.655599 kJ/mol
# GULP energy per Si atom -5572.173991 kJ/mol
# Density = 2.081926 g / cm^3
# Si number density = 20.866754 Si / 1000 Ang^3
#
#
#
# Elastic Constant Matrix: (Units=GPa)
#
#
# Indices 1 2 3 4 5 6 
#
# 1 196.4646 8.8652 41.8950 0.0000 0.0000 0.0000
# 2 8.8652 44.1217 1.1108 0.0000 0.0000 0.0000
# 3 41.8950 1.1108 60.3393 0.0000 0.0000 0.0000
# 4 0.0000 0.0000 0.0000 8.2702 0.0000 0.0000
# 5 0.0000 0.0000 0.0000 0.0000 9.1182 0.0000
# 6 0.0000 0.0000 0.0000 0.0000 0.0000 18.4196
#
#
#
# Elastic Compliance Matrix: (Units=1/GPa)
#
#
# Indices 1 2 3 4 5 6 
#
# 1 0.006028 -0.001106 -0.004165 0.000000 0.000000 0.000000
# 2 -0.001106 0.022878 0.000347 0.000000 0.000000 0.000000
# 3 -0.004165 0.000347 0.019458 0.000000 0.000000 0.000000
# 4 0.000000 0.000000 0.000000 0.120917 0.000000 0.000000
# 5 0.000000 0.000000 0.000000 0.000000 0.109670 0.000000
# 6 0.000000 0.000000 0.000000 0.000000 0.000000 0.054290
#
#
# Mechanical properties :
#
#
# Convention : Reuss Voigt Hill
#
# Bulk Modulus (GPa) = 25.96331 44.96305 35.46318
# Shear Modulus (GPa) = 14.04774 23.76524 18.90649
#
# Velocity S-wave (km/s) = 2.59745 3.37843 3.01335
# Velocity P-wave (km/s) = 4.63304 6.06736 5.39805
#
# Compressibility (1/GPa) = 0.03851589
#
# Stress axis : x y z
#
# Youngs Moduli (GPa) = 165.89033 43.70981 51.39151
#
# Poissons Ratio (x) = 0.04836 0.21405
# Poissons Ratio (y) = 0.18353 -0.01783
# Poissons Ratio (z) = 0.69095 -0.01517
#
# Static dielectric constant tensor:
#      x y z
#    x 1.813520 0.000000 0.000000 
#    y 0.000000 1.800530 0.000000 
#    z 0.000000 0.000000 1.725480 
# 
# From -- ./inp_files/58009.got.cif
#   From: 2010.05.17/outbox.cif.g08.bks.cpg/sg65_30_cif.got.tgz:58009.got - 2010.06.03 17:01:31.
