data_PCOD9484695
_publ_section_title
;
Structure prediction by ZEFSAII (Michael W. Deem and Ramdas Pophale) SiO2 
 PCOD9484695
Probable space group: C M M M
;
_chemical_formula_sum "Si O2"
_cell_formula_units_Z 80
_cell_length_a 25.886082
_cell_length_b 22.772164
_cell_length_c 10.229351
_cell_angle_alpha 90.000000
_cell_angle_beta 90.000000
_cell_angle_gamma 90.000000
_cell_volume 6030.019356
_symmetry_space_group_name_H-M "C M M M"
_symmetry_group_IT_number 65
_symmetry_cell_setting 'orthorhombic'
loop_
_space_group_symop_operation_xyz
x,y,z
-x,-y,z
x,-y,-z
-x,y,-z
-x,-y,-z
x,y,-z
-x,y,z
x,-y,z
1/2+x,1/2+y,z
1/2-x,1/2-y,z
1/2+x,1/2-y,-z
1/2-x,1/2+y,-z
1/2-x,1/2-y,-z
1/2+x,1/2+y,-z
1/2-x,1/2+y,z
1/2+x,1/2-y,z
loop_
_atom_site_type_symbol
_atom_site_label
_atom_site_fract_x
_atom_site_fract_y
_atom_site_fract_z
Si Si1 0.939061 0.929338 0.500000
Si Si2 0.618048 0.618218 0.756550
Si Si3 0.729053 0.569688 0.845417
Si Si4 0.723251 0.157133 0.651547
Si Si5 0.438759 0.567374 0.000000
Si Si6 0.667299 0.726969 0.349240
O O1 0.908544 0.905614 0.625642
O O2 0.000000 0.912391 0.500000
O O3 0.937316 0.000000 0.500000
O O4 0.672568 0.586565 0.788797
O O5 0.581195 0.601322 0.874353
O O6 0.630181 0.687218 0.738266
O O7 0.736574 0.500000 0.834825
O O8 0.769440 0.605731 0.756312
O O9 0.730968 0.585724 0.000000
O O10 0.715384 0.138064 0.500000
O O11 0.680324 0.206039 0.686744
O O12 0.777797 0.192480 0.652318
O O13 0.418240 0.500000 0.000000
O O14 0.500000 0.564209 0.000000
O O15 0.649343 0.726247 0.500000
#
# Coordination Sequence:
#
# PCOD9484695 Si02
#       6
#     8  16  16  16   8  16
#     4  11  22  32  44  61  78 100 139 184 217 249
#     4  11  19  32  45  60  77 106 141 176 213 247
#     4  10  19  29  40  59  86 111 137 168 201 239
#     4   8  15  27  43  60  79 103 130 164 205 241
#     4  11  22  34  44  55  80 112 139 176 223 255
#     4   8  14  28  44  60  79  98 128 172 210 240
#
# _framework density 13.266956
#
# number of rings (size 3 to 8) (size 9 to 14) (size 15 to 20)
#    0.000    2.400    2.000    3.600    1.400    2.000 
#    1.800    2.000    0.000    0.000    0.000    0.000 
#    0.000    0.000    0.000    0.000    0.000    6.000 
#
# Total GULP energy -222697.382194 kJ/mol
# GULP energy per Si atom -5567.434555 kJ/mol
# Density = 1.323676 g / cm^3
# Si number density = 13.266956 Si / 1000 Ang^3
#
#
#
# Elastic Constant Matrix: (Units=GPa)
#
#
# Indices 1 2 3 4 5 6 
#
# 1 39.5777 39.3500 39.8188 0.0000 0.0000 0.0000
# 2 39.3500 82.0544 63.0529 0.0000 0.0000 0.0000
# 3 39.8188 63.0529 119.0779 0.0000 0.0000 0.0000
# 4 0.0000 0.0000 0.0000 22.6656 0.0000 0.0000
# 5 0.0000 0.0000 0.0000 0.0000 18.6181 0.0000
# 6 0.0000 0.0000 0.0000 0.0000 0.0000 21.3310
#
#
#
# Elastic Compliance Matrix: (Units=1/GPa)
#
#
# Indices 1 2 3 4 5 6 
#
# 1 0.051527 -0.019339 -0.006990 0.000000 0.000000 0.000000
# 2 -0.019339 0.027806 -0.008257 0.000000 0.000000 0.000000
# 3 -0.006990 -0.008257 0.015107 0.000000 0.000000 0.000000
# 4 0.000000 0.000000 0.000000 0.044120 0.000000 0.000000
# 5 0.000000 0.000000 0.000000 0.000000 0.053711 0.000000
# 6 0.000000 0.000000 0.000000 0.000000 0.000000 0.046880
#
#
# Mechanical properties :
#
#
# Convention : Reuss Voigt Hill
#
# Bulk Modulus (GPa) = 39.57448 58.35038 48.96243
# Shear Modulus (GPa) = 15.78553 19.08883 17.43718
#
# Velocity S-wave (km/s) = 3.45315 3.79730 3.62930
# Velocity P-wave (km/s) = 6.76706 7.95633 7.38567
#
# Compressibility (1/GPa) = 0.02526881
#
# Stress axis : x y z
#
# Youngs Moduli (GPa) = 19.40725 35.96366 66.19305
#
# Poissons Ratio (x) = 0.69550 0.46270
# Poissons Ratio (y) = 0.37531 0.54653
# Poissons Ratio (z) = 0.13566 0.29694
#
# Static dielectric constant tensor:
#      x y z
#    x 1.419840 0.000000 0.000000 
#    y 0.000000 1.440040 0.000000 
#    z 0.000000 0.000000 1.435560 
# 
# From -- ./inp_files/12090.got.cif
#   From: 2010.05.17/outbox.cif.g08.bks.cpg/sg65_7_cif.got.tgz:12090.got - 2010.06.03 17:01:31.
