data_PCOD9484221
_publ_section_title
;
Structure prediction by ZEFSAII (Michael W. Deem and Ramdas Pophale) SiO2 
 PCOD9484221
Probable space group: C M M M
;
_chemical_formula_sum "Si O2"
_cell_formula_units_Z 64
_cell_length_a 31.012938
_cell_length_b 11.121545
_cell_length_c 10.906423
_cell_angle_alpha 90.000000
_cell_angle_beta 90.000000
_cell_angle_gamma 90.000000
_cell_volume 3761.753831
_symmetry_space_group_name_H-M "C M M M"
_symmetry_group_IT_number 65
_symmetry_cell_setting 'orthorhombic'
loop_
_space_group_symop_operation_xyz
x,y,z
-x,-y,z
x,-y,-z
-x,y,-z
-x,-y,-z
x,y,-z
-x,y,z
x,-y,z
1/2+x,1/2+y,z
1/2-x,1/2-y,z
1/2+x,1/2-y,-z
1/2-x,1/2+y,-z
1/2-x,1/2-y,-z
1/2+x,1/2+y,-z
1/2-x,1/2+y,z
1/2+x,1/2-y,z
loop_
_atom_site_type_symbol
_atom_site_label
_atom_site_fract_x
_atom_site_fract_y
_atom_site_fract_z
Si Si1 0.172505 0.137922 0.353054
Si Si2 0.909633 0.262583 0.641842
Si Si3 0.286045 0.000000 0.866265
Si Si4 0.149451 0.500000 0.363554
Si Si5 0.500000 0.141008 0.650601
Si Si6 0.750000 0.250000 0.787756
O O1 0.172444 0.156427 0.500000
O O2 0.124277 0.166888 0.305743
O O3 0.207966 0.223344 0.294042
O O4 0.183994 0.000000 0.329233
O O5 0.917376 0.227372 0.500000
O O6 0.881757 0.384977 0.642297
O O7 0.956528 0.292809 0.693947
O O8 0.259238 0.875233 0.857569
O O9 0.317726 0.000000 0.749103
O O10 0.308219 0.000000 0.000000
O O11 0.170587 0.500000 0.500000
O O12 0.500000 0.140819 0.500000
O O13 0.500000 0.000000 0.685473
#
# Coordination Sequence:
#
# PCOD9484221 Si02
#       6
#    16  16   8   8   8   8
#     4  10  20  32  49  77 109 140 180 229 274 321
#     4   9  16  27  45  73 105 136 172 219 266 316
#     4  12  26  40  55  79 113 145 181 226 273 327
#     4  10  18  31  54  78 104 136 177 219 262 313
#     4   9  14  22  41  71 105 137 173 216 267 320
#     4  12  22  38  56  74 103 144 185 220 275 326
#
# _framework density 17.013339999999999
#
# number of rings (size 3 to 8) (size 9 to 14) (size 15 to 20)
#    0.000    1.875    5.000    0.750    0.000    1.000 
#    0.000    0.625    0.000    3.750    0.000    1.750 
#    0.000    0.000    0.000    3.375    0.000    1.125 
#
# Total GULP energy -178140.211106 kJ/mol
# GULP energy per Si atom -5566.881597 kJ/mol
# Density = 1.697462 g / cm^3
# Si number density = 17.013340 Si / 1000 Ang^3
#
#
#
# Elastic Constant Matrix: (Units=GPa)
#
#
# Indices 1 2 3 4 5 6 
#
# 1 115.6763 28.0172 33.4822 0.0000 0.0000 0.0000
# 2 28.0172 85.1267 17.9644 0.0000 0.0000 0.0000
# 3 33.4822 17.9644 57.1950 0.0000 0.0000 0.0000
# 4 0.0000 0.0000 0.0000 -0.3139 0.0000 0.0000
# 5 0.0000 0.0000 0.0000 0.0000 -1.1549 0.0000
# 6 0.0000 0.0000 0.0000 0.0000 0.0000 25.5621
#
#
#
# Elastic Compliance Matrix: (Units=1/GPa)
#
#
# Indices 1 2 3 4 5 6 
#
# 1 0.010843 -0.002387 -0.005598 0.000000 0.000000 0.000000
# 2 -0.002387 0.013107 -0.002719 0.000000 0.000000 0.000000
# 3 -0.005598 -0.002719 0.021615 0.000000 0.000000 0.000000
# 4 0.000000 0.000000 0.000000 -3.185317 0.000000 0.000000
# 5 0.000000 0.000000 0.000000 0.000000 -0.865839 0.000000
# 6 0.000000 0.000000 0.000000 0.000000 0.000000 0.039120
#
#
# Mechanical properties :
#
#
# Convention : Reuss Voigt Hill
#
# Bulk Modulus (GPa) = 41.39690 46.32509 43.86099
# Shear Modulus (GPa) = -1.27000 16.72092 7.72546
#
# Velocity S-wave (km/s) = -0.86492 3.13838 2.13323
# Velocity P-wave (km/s) = 4.83605 6.35770 5.64835
#
# Compressibility (1/GPa) = 0.02415640
#
# Stress axis : x y z
#
# Youngs Moduli (GPa) = 92.22237 76.29637 46.26391
#
# Poissons Ratio (x) = 0.18216 0.25898
# Poissons Ratio (y) = 0.22018 0.12580
# Poissons Ratio (z) = 0.51625 0.20746
#
# Static dielectric constant tensor:
#      x y z
#    x 1.598380 0.000000 0.000000 
#    y 0.000000 1.619770 0.000000 
#    z 0.000000 0.000000 1.562950 
# 
# From -- ./inp_files/17863.got.cif
#   From: 2010.05.17/outbox.cif.g08.bks.cpg/sg65_9_cif.got.tgz:17863.got - 2010.06.03 17:01:31.
