data_PCOD9484607
_publ_section_title
;
Structure prediction by ZEFSAII (Michael W. Deem and Ramdas Pophale) SiO2 
 PCOD9484607
Probable space group: C M M M
;
_chemical_formula_sum "Si O2"
_cell_formula_units_Z 104
_cell_length_a 24.440232
_cell_length_b 22.145306
_cell_length_c 8.256435
_cell_angle_alpha 90.000000
_cell_angle_beta 90.000000
_cell_angle_gamma 90.000000
_cell_volume 4468.683291
_symmetry_space_group_name_H-M "C M M M"
_symmetry_group_IT_number 65
_symmetry_cell_setting 'orthorhombic'
loop_
_space_group_symop_operation_xyz
x,y,z
-x,-y,z
x,-y,-z
-x,y,-z
-x,-y,-z
x,y,-z
-x,y,z
x,-y,z
1/2+x,1/2+y,z
1/2-x,1/2-y,z
1/2+x,1/2-y,-z
1/2-x,1/2+y,-z
1/2-x,1/2-y,-z
1/2+x,1/2+y,-z
1/2-x,1/2+y,z
1/2+x,1/2-y,z
loop_
_atom_site_type_symbol
_atom_site_label
_atom_site_fract_x
_atom_site_fract_y
_atom_site_fract_z
Si Si1 0.922171 0.241203 0.809912
Si Si2 0.215584 0.630187 0.191681
Si Si3 0.583152 0.000000 0.311964
Si Si4 0.389579 0.430590 0.804333
Si Si5 0.821248 0.182780 0.312915
Si Si6 0.500000 0.365797 0.278136
Si Si7 0.215284 0.500000 0.308625
Si Si8 0.590247 0.871724 0.805368
O O1 0.857456 0.229249 0.790748
O O2 0.953199 0.188423 0.717319
O O3 0.936129 0.308548 0.754665
O O4 0.936615 0.233558 0.000000
O O5 0.257731 0.675990 0.271687
O O6 0.234940 0.561582 0.227492
O O7 0.153262 0.631736 0.254311
O O8 0.215505 0.640111 0.000000
O O9 0.649108 0.000000 0.287221
O O10 0.564903 0.064257 0.241934
O O11 0.570967 0.000000 0.500000
O O12 0.375413 0.500000 0.769572
O O13 0.348196 0.382512 0.727323
O O14 0.450773 0.415336 0.743723
O O15 0.389612 0.421440 0.000000
O O16 0.828833 0.197490 0.500000
O O17 0.227084 0.500000 0.500000
O O18 0.591880 0.870201 0.000000
#
# Coordination Sequence:
#
# PCOD9484607 Si02
#       8
#    16  16   8  16  16   8   8  16
#     4  10  20  37  59  82 107 139 181 227 280 337
#     4  10  19  33  51  73 105 146 186 224 270 325
#     4   9  17  31  53  80 110 139 171 213 260 316
#     4  10  20  35  57  83 110 144 188 234 283 333
#     4  11  23  36  50  74 110 148 186 230 276 325
#     4  10  18  35  63  88 109 137 182 239 288 338
#     4   9  17  29  47  73 102 135 176 220 266 314
#     4   9  19  34  56  83 110 142 181 225 271 328
#
# _framework density 23.273074000000001
#
# number of rings (size 3 to 8) (size 9 to 14) (size 15 to 20)
#    0.000    2.154    0.000    4.846    1.077    4.615 
#    0.000    9.231    0.000    4.154    0.000    2.692 
#    0.000    0.000    0.000    0.000    0.000    0.000 
#
# Total GULP energy -289605.985722 kJ/mol
# GULP energy per Si atom -5569.345879 kJ/mol
# Density = 2.322010 g / cm^3
# Si number density = 23.273074 Si / 1000 Ang^3
#
#
#
# Elastic Constant Matrix: (Units=GPa)
#
#
# Indices 1 2 3 4 5 6 
#
# 1 93.9072 5.2289 6.7882 0.0000 0.0000 0.0000
# 2 5.2289 137.3692 7.1634 0.0000 0.0000 0.0000
# 3 6.7882 7.1634 27.8062 0.0000 0.0000 0.0000
# 4 0.0000 0.0000 0.0000 23.4752 0.0000 0.0000
# 5 0.0000 0.0000 0.0000 0.0000 296.4411 0.0000
# 6 0.0000 0.0000 0.0000 0.0000 0.0000 11.2523
#
#
#
# Elastic Compliance Matrix: (Units=1/GPa)
#
#
# Indices 1 2 3 4 5 6 
#
# 1 0.010851 -0.000279 -0.002577 0.000000 0.000000 0.000000
# 2 -0.000279 0.007386 -0.001835 0.000000 0.000000 0.000000
# 3 -0.002577 -0.001835 0.037065 0.000000 0.000000 0.000000
# 4 0.000000 0.000000 0.000000 0.042598 0.000000 0.000000
# 5 0.000000 0.000000 0.000000 0.000000 0.003373 0.000000
# 6 0.000000 0.000000 0.000000 0.000000 0.000000 0.088871
#
#
# Mechanical properties :
#
#
# Convention : Reuss Voigt Hill
#
# Bulk Modulus (GPa) = 21.77674 33.04927 27.41300
# Shear Modulus (GPa) = 23.27404 82.22721 52.75062
#
# Velocity S-wave (km/s) = 3.16577 5.95048 4.76604
# Velocity P-wave (km/s) = 4.76867 7.83852 6.48778
#
# Compressibility (1/GPa) = 0.04592056
#
# Stress axis : x y z
#
# Youngs Moduli (GPa) = 92.16065 135.39247 26.97966
#
# Poissons Ratio (x) = 0.03773 0.06953
# Poissons Ratio (y) = 0.02568 0.04950
# Poissons Ratio (z) = 0.23751 0.24841
#
# Static dielectric constant tensor:
#      x y z
#    x 2.137750 0.000000 0.000000 
#    y 0.000000 1.900960 0.000000 
#    z 0.000000 0.000000 1.851000 
# 
# From -- ./inp_files/18712.got.cif
#   From: 2010.05.17/outbox.cif.g08.bks.cpg/sg65_10_cif.got.tgz:18712.got - 2010.06.03 17:01:31.
