data_PCOD9484200
_publ_section_title
;
Structure prediction by ZEFSAII (Michael W. Deem and Ramdas Pophale) SiO2 
 PCOD9484200
Probable space group: C M M M
;
_chemical_formula_sum "Si O2"
_cell_formula_units_Z 80
_cell_length_a 20.853983
_cell_length_b 25.752387
_cell_length_c 8.715801
_cell_angle_alpha 90.000000
_cell_angle_beta 90.000000
_cell_angle_gamma 90.000000
_cell_volume 4680.732381
_symmetry_space_group_name_H-M "C M M M"
_symmetry_group_IT_number 65
_symmetry_cell_setting 'orthorhombic'
loop_
_space_group_symop_operation_xyz
x,y,z
-x,-y,z
x,-y,-z
-x,y,-z
-x,-y,-z
x,y,-z
-x,y,z
x,-y,z
1/2+x,1/2+y,z
1/2-x,1/2-y,z
1/2+x,1/2-y,-z
1/2-x,1/2+y,-z
1/2-x,1/2-y,-z
1/2+x,1/2+y,-z
1/2-x,1/2+y,z
1/2+x,1/2-y,z
loop_
_atom_site_type_symbol
_atom_site_label
_atom_site_fract_x
_atom_site_fract_y
_atom_site_fract_z
Si Si1 0.313263 0.783817 0.183321
Si Si2 0.238143 0.612213 0.685505
Si Si3 0.927679 0.783950 0.317656
Si Si4 0.617753 0.609731 0.816771
Si Si5 0.768780 0.500000 0.322540
Si Si6 0.112479 0.000000 0.322608
O O1 0.250000 0.750000 0.221636
O O2 0.303956 0.839583 0.261252
O O3 0.374867 0.752844 0.241847
O O4 0.315558 0.789575 0.000000
O O5 0.243762 0.611167 0.500000
O O6 0.309444 0.617423 0.755368
O O7 0.212116 0.556032 0.741447
O O8 0.916311 0.786486 0.500000
O O9 0.920703 0.841666 0.249368
O O10 0.000000 0.765069 0.290571
O O11 0.593413 0.553748 0.757773
O O12 0.617874 0.610583 0.000000
O O13 0.789108 0.500000 0.500000
O O14 0.690768 0.500000 0.319226
O O15 0.092642 0.000000 0.500000
#
# Coordination Sequence:
#
# PCOD9484200 Si02
#       6
#    16  16  16  16   8   8
#     4  11  22  35  54  82 111 140 179 224 271 323
#     4  10  18  31  53  78 108 143 179 219 264 316
#     4  11  24  40  57  77 103 141 185 225 270 326
#     4  11  20  32  51  77 107 139 177 223 274 320
#     4   7  14  27  45  74 105 134 169 212 260 306
#     4   9  17  31  50  72 101 140 182 223 264 311
#
# _framework density 17.091341
#
# number of rings (size 3 to 8) (size 9 to 14) (size 15 to 20)
#    0.000    1.800    2.000    5.100    0.000    2.400 
#    0.000    2.000    0.000    3.000    0.000    0.700 
#    0.000    5.600    0.000    0.000    0.000    0.000 
#
# Total GULP energy -223255.133416 kJ/mol
# GULP energy per Si atom -5581.378335 kJ/mol
# Density = 1.705244 g / cm^3
# Si number density = 17.091341 Si / 1000 Ang^3
#
#
#
# Elastic Constant Matrix: (Units=GPa)
#
#
# Indices 1 2 3 4 5 6 
#
# 1 57.6442 39.4828 32.1209 0.0000 0.0000 0.0000
# 2 39.4828 129.4028 36.1859 0.0000 0.0000 0.0000
# 3 32.1209 36.1859 70.0201 0.0000 0.0000 0.0000
# 4 0.0000 0.0000 0.0000 23.9324 0.0000 0.0000
# 5 0.0000 0.0000 0.0000 0.0000 7.3428 0.0000
# 6 0.0000 0.0000 0.0000 0.0000 0.0000 13.9722
#
#
#
# Elastic Compliance Matrix: (Units=1/GPa)
#
#
# Indices 1 2 3 4 5 6 
#
# 1 0.026192 -0.005414 -0.009217 0.000000 0.000000 0.000000
# 2 -0.005414 0.010152 -0.002763 0.000000 0.000000 0.000000
# 3 -0.009217 -0.002763 0.019938 0.000000 0.000000 0.000000
# 4 0.000000 0.000000 0.000000 0.041784 0.000000 0.000000
# 5 0.000000 0.000000 0.000000 0.000000 0.136188 0.000000
# 6 0.000000 0.000000 0.000000 0.000000 0.000000 0.071571
#
#
# Mechanical properties :
#
#
# Convention : Reuss Voigt Hill
#
# Bulk Modulus (GPa) = 46.52577 52.51625 49.52101
# Shear Modulus (GPa) = 14.37695 19.00133 16.68914
#
# Velocity S-wave (km/s) = 2.90346 3.33791 3.12824
# Velocity P-wave (km/s) = 6.20653 6.75641 6.48730
#
# Compressibility (1/GPa) = 0.02149346
#
# Stress axis : x y z
#
# Youngs Moduli (GPa) = 38.17906 98.49899 50.15574
#
# Poissons Ratio (x) = 0.53329 0.46231
# Poissons Ratio (y) = 0.20671 0.13858
# Poissons Ratio (z) = 0.35191 0.27215
#
# Static dielectric constant tensor:
#      x y z
#    x 1.561850 0.000000 0.000000 
#    y 0.000000 1.604070 0.000000 
#    z 0.000000 0.000000 1.572990 
# 
# From -- ./inp_files/11594.got.cif
#   From: 2010.05.17/outbox.cif.g08.bks.cpg/sg65_6_cif.got.tgz:11594.got - 2010.06.03 17:01:31.
