data_PCOD9484942
_publ_section_title
;
Structure prediction by ZEFSAII (Michael W. Deem and Ramdas Pophale) SiO2 
 PCOD9484942
Probable space group: C M M M
;
_chemical_formula_sum "Si O2"
_cell_formula_units_Z 104
_cell_length_a 31.150258
_cell_length_b 7.270764
_cell_length_c 21.166421
_cell_angle_alpha 90.000000
_cell_angle_beta 90.000000
_cell_angle_gamma 90.000000
_cell_volume 4793.901719
_symmetry_space_group_name_H-M "C M M M"
_symmetry_group_IT_number 65
_symmetry_cell_setting 'orthorhombic'
loop_
_space_group_symop_operation_xyz
x,y,z
-x,-y,z
x,-y,-z
-x,y,-z
-x,-y,-z
x,y,-z
-x,y,z
x,-y,z
1/2+x,1/2+y,z
1/2-x,1/2-y,z
1/2+x,1/2-y,-z
1/2-x,1/2+y,-z
1/2-x,1/2-y,-z
1/2+x,1/2+y,-z
1/2-x,1/2+y,z
1/2+x,1/2-y,z
loop_
_atom_site_type_symbol
_atom_site_label
_atom_site_fract_x
_atom_site_fract_y
_atom_site_fract_z
Si Si1 0.702541 0.718104 0.705615
Si Si2 0.049853 0.776741 0.776808
Si Si3 0.000000 0.776031 0.570438
Si Si4 0.200514 0.219021 0.071412
Si Si5 0.327150 0.723721 0.427410
Si Si6 0.139395 0.775132 0.183239
Si Si7 0.584529 0.276880 0.360165
O O1 0.695730 0.500000 0.701463
O O2 0.750000 0.750000 0.732473
O O3 0.701314 0.785999 0.632767
O O4 0.665020 0.784688 0.752795
O O5 0.089155 0.723147 0.822795
O O6 0.072076 0.721446 0.710586
O O7 0.000000 0.714106 0.783567
O O8 0.047115 0.000000 0.777051
O O9 0.956947 0.716787 0.602506
O O10 0.000000 0.716078 0.500000
O O11 0.000000 0.000000 0.573159
O O12 0.250000 0.250000 0.089963
O O13 0.167690 0.287074 0.124016
O O14 0.194465 0.000000 0.068635
O O15 0.194712 0.290729 0.000000
O O16 0.319239 0.786236 0.500000
O O17 0.325213 0.500000 0.430660
O O18 0.373826 0.778044 0.399754
O O19 0.139968 0.000000 0.185491
O O20 0.587451 0.500000 0.357659
#
# Coordination Sequence:
#
# PCOD9484942 Si02
#       7
#    16  16   8  16  16  16  16
#     4  10  19  30  44  61  82 109 142 176 211 253
#     4   9  14  21  35  54  78 109 143 173 203 247
#     4   9  14  16  22  40  66  96 128 164 206 249
#     4   9  17  29  46  68  93 119 146 176 211 251
#     4   9  16  25  36  50  72 104 138 171 210 253
#     4   9  16  27  42  60  85 115 143 173 211 252
#     4   9  13  19  29  44  68  99 134 168 204 248
#
# _framework density 21.694229
#
# number of rings (size 3 to 8) (size 9 to 14) (size 15 to 20)
#    0.000    2.846    2.308    0.923    0.000    2.154 
#    0.000    0.000    0.000    0.462    0.000    3.231 
#    0.000    2.462    0.000    3.846    0.000   10.308 
#
# Total GULP energy -289770.864255 kJ/mol
# GULP energy per Si atom -5572.516620 kJ/mol
# Density = 2.164485 g / cm^3
# Si number density = 21.694229 Si / 1000 Ang^3
#
#
#
# Elastic Constant Matrix: (Units=GPa)
#
#
# Indices 1 2 3 4 5 6 
#
# 1 173.6149 -3.3110 75.2725 0.0000 0.0000 0.0000
# 2 -3.3110 94.2971 5.4636 0.0000 0.0000 0.0000
# 3 75.2725 5.4636 119.1251 0.0000 0.0000 0.0000
# 4 0.0000 0.0000 0.0000 -26.2847 0.0000 0.0000
# 5 0.0000 0.0000 0.0000 0.0000 113.2332 0.0000
# 6 0.0000 0.0000 0.0000 0.0000 0.0000 1.1285
#
#
#
# Elastic Compliance Matrix: (Units=1/GPa)
#
#
# Indices 1 2 3 4 5 6 
#
# 1 0.007964 0.000573 -0.005059 0.000000 0.000000 0.000000
# 2 0.000573 0.010674 -0.000851 0.000000 0.000000 0.000000
# 3 -0.005059 -0.000851 0.011630 0.000000 0.000000 0.000000
# 4 0.000000 0.000000 0.000000 -0.038045 0.000000 0.000000
# 5 0.000000 0.000000 0.000000 0.000000 0.008831 0.000000
# 6 0.000000 0.000000 0.000000 0.000000 0.000000 0.886095
#
#
# Mechanical properties :
#
#
# Convention : Reuss Voigt Hill
#
# Bulk Modulus (GPa) = 51.03700 60.20973 55.62336
# Shear Modulus (GPa) = 5.52880 38.25621 21.89250
#
# Velocity S-wave (km/s) = 1.59814 4.20387 3.18014
# Velocity P-wave (km/s) = 5.19443 7.16781 6.25937
#
# Compressibility (1/GPa) = 0.01959363
#
# Stress axis : x y z
#
# Youngs Moduli (GPa) = 125.56549 93.68360 85.98485
#
# Poissons Ratio (x) = -0.05366 0.43496
# Poissons Ratio (y) = -0.07191 0.07321
# Poissons Ratio (z) = 0.63518 0.07977
#
# Static dielectric constant tensor:
#      x y z
#    x 1.789990 0.000000 0.000000 
#    y 0.000000 1.471430 0.000000 
#    z 0.000000 0.000000 1.799950 
# 
# From -- ./inp_files/66492.got.cif
#   From: 2010.05.17/outbox.cif.g08.bks.cpg/sg65_34_cif.got.tgz:66492.got - 2010.06.03 17:01:31.
