data_PCOD9484506
_publ_section_title
;
Structure prediction by ZEFSAII (Michael W. Deem and Ramdas Pophale) SiO2 
 PCOD9484506
Probable space group: C M M M
;
_chemical_formula_sum "Si O2"
_cell_formula_units_Z 72
_cell_length_a 21.725688
_cell_length_b 21.250407
_cell_length_c 7.916242
_cell_angle_alpha 90.000000
_cell_angle_beta 90.000000
_cell_angle_gamma 90.000000
_cell_volume 3654.768329
_symmetry_space_group_name_H-M "C M M M"
_symmetry_group_IT_number 65
_symmetry_cell_setting 'orthorhombic'
loop_
_space_group_symop_operation_xyz
x,y,z
-x,-y,z
x,-y,-z
-x,y,-z
-x,-y,-z
x,y,-z
-x,y,z
x,-y,z
1/2+x,1/2+y,z
1/2-x,1/2-y,z
1/2+x,1/2-y,-z
1/2-x,1/2+y,-z
1/2-x,1/2-y,-z
1/2+x,1/2+y,-z
1/2-x,1/2+y,z
1/2+x,1/2-y,z
loop_
_atom_site_type_symbol
_atom_site_label
_atom_site_fract_x
_atom_site_fract_y
_atom_site_fract_z
Si Si1 0.930411 0.616805 0.701366
Si Si2 0.500000 0.574764 0.695472
Si Si3 0.369464 0.620690 0.804937
Si Si4 0.205910 0.000000 0.208521
Si Si5 0.929126 0.241680 0.797436
Si Si6 0.346392 0.000000 0.200255
O O1 0.933479 0.618974 0.500000
O O2 0.912285 0.686272 0.762429
O O3 0.884167 0.561798 0.749238
O O4 0.000000 0.603853 0.766458
O O5 0.500000 0.500000 0.689493
O O6 0.500000 0.597439 0.500000
O O7 0.439195 0.595898 0.791598
O O8 0.327823 0.564282 0.732574
O O9 0.379761 0.690768 0.730430
O O10 0.349818 0.627790 0.000000
O O11 0.276518 0.000000 0.264841
O O12 0.202158 0.000000 0.000000
O O13 0.000000 0.232107 0.733916
O O14 0.931586 0.233153 0.000000
O O15 0.341541 0.000000 0.000000
#
# Coordination Sequence:
#
# PCOD9484506 Si02
#       6
#    16   8  16   8  16   8
#     4  10  21  37  58  83 108 137 170 212 271 334
#     4  11  21  29  43  75 113 144 181 226 269 311
#     4  10  18  33  55  77 106 145 185 224 264 311
#     4   9  20  35  55  79 105 142 189 228 265 307
#     4   9  17  30  52  84 111 135 172 219 268 314
#     4  11  22  38  58  81 106 136 177 228 271 316
#
# _framework density 19.700292000000001
#
# number of rings (size 3 to 8) (size 9 to 14) (size 15 to 20)
#    0.000    2.111    2.222    1.667    0.000    4.000 
#    0.000    3.333    0.000    6.667    0.000    0.000 
#    0.000    0.000    0.000    0.000    0.000    0.000 
#
# Total GULP energy -200697.405446 kJ/mol
# GULP energy per Si atom -5574.927929 kJ/mol
# Density = 1.965545 g / cm^3
# Si number density = 19.700292 Si / 1000 Ang^3
#
#
#
# Elastic Constant Matrix: (Units=GPa)
#
#
# Indices 1 2 3 4 5 6 
#
# 1 113.0933 99.6310 -1.6113 0.0000 0.0000 0.0000
# 2 99.6310 198.8766 6.5041 0.0000 0.0000 0.0000
# 3 -1.6113 6.5041 26.9647 0.0000 0.0000 0.0000
# 4 0.0000 0.0000 0.0000 -8.8884 0.0000 0.0000
# 5 0.0000 0.0000 0.0000 0.0000 4.8986 0.0000
# 6 0.0000 0.0000 0.0000 0.0000 0.0000 -15.1899
#
#
#
# Elastic Compliance Matrix: (Units=1/GPa)
#
#
# Indices 1 2 3 4 5 6 
#
# 1 0.016053 -0.008137 0.002922 0.000000 0.000000 0.000000
# 2 -0.008137 0.009193 -0.002704 0.000000 0.000000 0.000000
# 3 0.002922 -0.002704 0.037912 0.000000 0.000000 0.000000
# 4 0.000000 0.000000 0.000000 -0.112506 0.000000 0.000000
# 5 0.000000 0.000000 0.000000 0.000000 0.204140 0.000000
# 6 0.000000 0.000000 0.000000 0.000000 0.000000 -0.065833
#
#
# Mechanical properties :
#
#
# Convention : Reuss Voigt Hill
#
# Bulk Modulus (GPa) = 21.13276 60.88692 41.00984
# Shear Modulus (GPa) = 41.46975 11.79146 26.63060
#
# Velocity S-wave (km/s) = 4.59304 2.44917 3.68065
# Velocity P-wave (km/s) = 6.23526 6.24272 6.23899
#
# Compressibility (1/GPa) = 0.04731990
#
# Stress axis : x y z
#
# Youngs Moduli (GPa) = 62.29491 108.77516 26.37669
#
# Poissons Ratio (x) = 0.88515 -0.07707
# Poissons Ratio (y) = 0.50692 0.07132
# Poissons Ratio (z) = -0.18203 0.29410
#
# Static dielectric constant tensor:
#      x y z
#    x 1.680060 0.000000 0.000000 
#    y 0.000000 1.657150 0.000000 
#    z 0.000000 0.000000 1.717030 
# 
# From -- ./inp_files/9326.got.cif
#   From: 2010.05.17/outbox.cif.g08.bks.cpg/sg65_5_cif.got.tgz:9326.got - 2010.06.03 17:01:31.
