data_PCOD9484575
_publ_section_title
;
Structure prediction by ZEFSAII (Michael W. Deem and Ramdas Pophale) SiO2 
 PCOD9484575
Probable space group: C M M M
;
_chemical_formula_sum "Si O2"
_cell_formula_units_Z 72
_cell_length_a 14.125227
_cell_length_b 29.775574
_cell_length_c 7.966313
_cell_angle_alpha 90.000000
_cell_angle_beta 90.000000
_cell_angle_gamma 90.000000
_cell_volume 3350.525629
_symmetry_space_group_name_H-M "C M M M"
_symmetry_group_IT_number 65
_symmetry_cell_setting 'orthorhombic'
loop_
_space_group_symop_operation_xyz
x,y,z
-x,-y,z
x,-y,-z
-x,y,-z
-x,-y,-z
x,y,-z
-x,y,z
x,-y,z
1/2+x,1/2+y,z
1/2-x,1/2-y,z
1/2+x,1/2-y,-z
1/2-x,1/2+y,-z
1/2-x,1/2-y,-z
1/2+x,1/2+y,-z
1/2-x,1/2+y,z
1/2+x,1/2-y,z
loop_
_atom_site_type_symbol
_atom_site_label
_atom_site_fract_x
_atom_site_fract_y
_atom_site_fract_z
Si Si1 0.835171 0.380674 0.813993
Si Si2 0.500000 0.052054 0.302436
Si Si3 0.000000 0.079678 0.693504
Si Si4 0.787393 0.200482 0.794852
Si Si5 0.704845 0.451028 0.302419
Si Si6 0.500000 0.678319 0.192335
O O1 0.911698 0.415328 0.740032
O O2 0.791389 0.335654 0.732587
O O3 0.743900 0.412405 0.813026
O O4 0.869490 0.368848 0.000000
O O5 0.500000 0.046129 0.500000
O O6 0.500000 0.000000 0.231113
O O7 0.907113 0.050579 0.715292
O O8 0.000000 0.124388 0.802435
O O9 0.000000 0.096212 0.500000
O O10 0.750000 0.250000 0.755913
O O11 0.896382 0.192695 0.735848
O O12 0.789374 0.195257 0.000000
O O13 0.726911 0.442115 0.500000
O O14 0.743859 0.500000 0.260871
O O15 0.500000 0.695021 0.000000
#
# Coordination Sequence:
#
# PCOD9484575 Si02
#       6
#    16   8   8  16  16   8
#     4  11  22  37  60  88 115 146 194 250 299 346
#     4  11  25  44  63  83 115 161 204 244 303 373
#     4  10  19  32  53  79 111 150 189 223 265 325
#     4   9  19  35  58  88 118 154 196 240 293 352
#     4  10  20  34  53  79 114 156 194 227 275 342
#     4  10  18  34  58  82 115 150 185 232 285 338
#
# _framework density 21.489163999999999
#
# number of rings (size 3 to 8) (size 9 to 14) (size 15 to 20)
#    0.000    1.889    2.222    2.000    0.000    6.222 
#    0.000    3.333    0.000    9.333    0.000    0.000 
#    0.000    0.000    0.000    0.000    0.000    0.000 
#
# Total GULP energy -200491.037710 kJ/mol
# GULP energy per Si atom -5569.195492 kJ/mol
# Density = 2.144025 g / cm^3
# Si number density = 21.489164 Si / 1000 Ang^3
#
#
#
# Elastic Constant Matrix: (Units=GPa)
#
#
# Indices 1 2 3 4 5 6 
#
# 1 118.5513 63.7978 14.2365 0.0000 0.0000 0.0000
# 2 63.7978 169.9456 19.0287 0.0000 0.0000 0.0000
# 3 14.2365 19.0287 15.2785 0.0000 0.0000 0.0000
# 4 0.0000 0.0000 0.0000 15.1163 0.0000 0.0000
# 5 0.0000 0.0000 0.0000 0.0000 16.1723 0.0000
# 6 0.0000 0.0000 0.0000 0.0000 0.0000 0.2623
#
#
#
# Elastic Compliance Matrix: (Units=1/GPa)
#
#
# Indices 1 2 3 4 5 6 
#
# 1 0.011016 -0.003470 -0.005943 0.000000 0.000000 0.000000
# 2 -0.003470 0.007931 -0.006644 0.000000 0.000000 0.000000
# 3 -0.005943 -0.006644 0.079264 0.000000 0.000000 0.000000
# 4 0.000000 0.000000 0.000000 0.066154 0.000000 0.000000
# 5 0.000000 0.000000 0.000000 0.000000 0.061834 0.000000
# 6 0.000000 0.000000 0.000000 0.000000 0.000000 3.812274
#
#
# Mechanical properties :
#
#
# Convention : Reuss Voigt Hill
#
# Bulk Modulus (GPa) = 15.12933 55.32239 35.22586
# Shear Modulus (GPa) = 1.22171 20.09100 10.65635
#
# Velocity S-wave (km/s) = 0.75482 3.06099 2.22928
# Velocity P-wave (km/s) = 2.79561 6.18814 4.80148
#
# Compressibility (1/GPa) = 0.06609679
#
# Stress axis : x y z
#
# Youngs Moduli (GPa) = 90.77489 126.09011 12.61600
#
# Poissons Ratio (x) = 0.43754 0.07498
# Poissons Ratio (y) = 0.31499 0.08382
# Poissons Ratio (z) = 0.53949 0.83776
#
# Static dielectric constant tensor:
#      x y z
#    x 1.866710 0.000000 0.000000 
#    y 0.000000 1.759300 0.000000 
#    z 0.000000 0.000000 1.852920 
# 
# From -- ./inp_files/7424.got.cif
#   From: 2010.05.17/outbox.cif.g08.bks.cpg/sg65_4_cif.got.tgz:7424.got - 2010.06.03 17:01:31.
