data_PCOD9484982
_publ_section_title
;
Structure prediction by ZEFSAII (Michael W. Deem and Ramdas Pophale) SiO2 
 PCOD9484982
Probable space group: C M M M
;
_chemical_formula_sum "Si O2"
_cell_formula_units_Z 64
_cell_length_a 7.284548
_cell_length_b 18.201305
_cell_length_c 22.318840
_cell_angle_alpha 90.000000
_cell_angle_beta 90.000000
_cell_angle_gamma 90.000000
_cell_volume 2959.216606
_symmetry_space_group_name_H-M "C M M M"
_symmetry_group_IT_number 65
_symmetry_cell_setting 'orthorhombic'
loop_
_space_group_symop_operation_xyz
x,y,z
-x,-y,z
x,-y,-z
-x,y,-z
-x,-y,-z
x,y,-z
-x,y,z
x,-y,z
1/2+x,1/2+y,z
1/2-x,1/2-y,z
1/2+x,1/2-y,-z
1/2-x,1/2+y,-z
1/2-x,1/2-y,-z
1/2+x,1/2+y,-z
1/2-x,1/2+y,z
1/2+x,1/2-y,z
loop_
_atom_site_type_symbol
_atom_site_label
_atom_site_fract_x
_atom_site_fract_y
_atom_site_fract_z
Si Si1 0.224167 0.584924 0.500000
Si Si2 0.277640 0.087564 0.000000
Si Si3 0.276279 0.085913 0.259137
Si Si4 0.781634 0.663588 0.379297
Si Si5 0.221245 0.412249 0.871106
O O1 0.276909 0.500000 0.500000
O O2 0.287527 0.624733 0.560503
O O3 0.000000 0.587598 0.500000
O O4 0.212963 0.117371 0.064470
O O5 0.500000 0.092952 0.000000
O O6 0.236281 0.000000 0.000000
O O7 0.500000 0.087929 0.258382
O O8 0.211479 0.129900 0.317038
O O9 0.215010 0.115199 0.193831
O O10 0.225914 0.000000 0.264613
O O11 0.750000 0.750000 0.382110
O O12 0.000000 0.650685 0.378650
O O13 0.259305 0.500000 0.870751
O O14 0.000000 0.405003 0.871636
#
# Coordination Sequence:
#
# PCOD9484982 Si02
#       5
#     8   8  16  16  16
#     4   9  17  30  49  69  84 103 136 172 200 231
#     4   7   8  10  18  36  65  96 119 147 196 245
#     4   8  13  22  37  56  76 101 136 172 200 231
#     4  10  19  30  45  64  86 110 135 165 200 238
#     4   7   9  13  23  42  68  95 123 157 197 237
#
# _framework density 21.627345999999999
#
# number of rings (size 3 to 8) (size 9 to 14) (size 15 to 20)
#    0.000    3.750    0.000    4.125    0.000    3.000 
#    0.000    0.000    0.000    3.750    0.000    0.875 
#    0.000    0.000    0.000    0.000    0.000   14.500 
#
# Total GULP energy -178308.127852 kJ/mol
# GULP energy per Si atom -5572.128995 kJ/mol
# Density = 2.157812 g / cm^3
# Si number density = 21.627346 Si / 1000 Ang^3
#
#
#
# Elastic Constant Matrix: (Units=GPa)
#
#
# Indices 1 2 3 4 5 6 
#
# 1 90.6220 -4.0930 13.3791 0.0000 0.0000 0.0000
# 2 -4.0930 77.5576 100.6508 0.0000 0.0000 0.0000
# 3 13.3791 100.6508 326.3685 0.0000 0.0000 0.0000
# 4 0.0000 0.0000 0.0000 -5.3592 0.0000 0.0000
# 5 0.0000 0.0000 0.0000 0.0000 4.1097 0.0000
# 6 0.0000 0.0000 0.0000 0.0000 0.0000 22.1453
#
#
#
# Elastic Compliance Matrix: (Units=1/GPa)
#
#
# Indices 1 2 3 4 5 6 
#
# 1 0.011284 0.001994 -0.001077 0.000000 0.000000 0.000000
# 2 0.001994 0.021850 -0.006820 0.000000 0.000000 0.000000
# 3 -0.001077 -0.006820 0.005211 0.000000 0.000000 0.000000
# 4 0.000000 0.000000 0.000000 -0.186597 0.000000 0.000000
# 5 0.000000 0.000000 0.000000 0.000000 0.243328 0.000000
# 6 0.000000 0.000000 0.000000 0.000000 0.000000 0.045156
#
#
# Mechanical properties :
#
#
# Convention : Reuss Voigt Hill
#
# Bulk Modulus (GPa) = 37.68247 79.38021 58.53134
# Shear Modulus (GPa) = 31.07788 29.81992 30.44890
#
# Velocity S-wave (km/s) = 3.79485 3.71726 3.75626
# Velocity P-wave (km/s) = 6.05496 7.43016 6.77753
#
# Compressibility (1/GPa) = 0.02653754
#
# Stress axis : x y z
#
# Youngs Moduli (GPa) = 88.62134 45.76734 191.88433
#
# Poissons Ratio (x) = -0.09125 0.20674
# Poissons Ratio (y) = -0.17669 1.30867
# Poissons Ratio (z) = 0.09548 0.31214
#
# Static dielectric constant tensor:
#      x y z
#    x 1.840190 0.000000 0.000000 
#    y 0.000000 1.695250 0.000000 
#    z 0.000000 0.000000 1.848240 
# 
# From -- ./inp_files/61276.got.cif
#   From: 2010.05.17/outbox.cif.g08.bks.cpg/sg65_31_cif.got.tgz:61276.got - 2010.06.03 17:01:31.
