data_PCOD9484837
_publ_section_title
;
Structure prediction by ZEFSAII (Michael W. Deem and Ramdas Pophale) SiO2 
 PCOD9484837
Probable space group: C M M M
;
_chemical_formula_sum "Si O2"
_cell_formula_units_Z 96
_cell_length_a 21.493919
_cell_length_b 27.648186
_cell_length_c 7.280885
_cell_angle_alpha 90.000000
_cell_angle_beta 90.000000
_cell_angle_gamma 90.000000
_cell_volume 4326.796023
_symmetry_space_group_name_H-M "C M M M"
_symmetry_group_IT_number 65
_symmetry_cell_setting 'orthorhombic'
loop_
_space_group_symop_operation_xyz
x,y,z
-x,-y,z
x,-y,-z
-x,y,-z
-x,-y,-z
x,y,-z
-x,y,z
x,-y,z
1/2+x,1/2+y,z
1/2-x,1/2-y,z
1/2+x,1/2-y,-z
1/2-x,1/2+y,-z
1/2-x,1/2-y,-z
1/2+x,1/2+y,-z
1/2-x,1/2+y,z
1/2+x,1/2-y,z
loop_
_atom_site_type_symbol
_atom_site_label
_atom_site_fract_x
_atom_site_fract_y
_atom_site_fract_z
Si Si1 0.927504 0.000000 0.776223
Si Si2 0.930267 0.796276 0.776396
Si Si3 0.500000 0.942535 0.721750
Si Si4 0.371460 0.397026 0.224131
Si Si5 0.366478 0.943879 0.721664
Si Si6 0.264888 0.130532 0.791830
Si Si7 0.182542 0.271911 0.778095
O O1 0.894623 0.050022 0.716547
O O2 0.000000 0.000000 0.722479
O O3 0.926111 0.000000 0.000000
O O4 0.914700 0.851658 0.724260
O O5 0.875360 0.760253 0.712516
O O6 0.000000 0.782705 0.718468
O O7 0.929456 0.795449 0.000000
O O8 0.500000 0.939451 0.500000
O O9 0.433445 0.922985 0.783912
O O10 0.500000 0.000000 0.764309
O O11 0.302027 0.382692 0.288374
O O12 0.370618 0.398984 0.000000
O O13 0.364610 0.941387 0.500000
O O14 0.307523 0.916222 0.794529
O O15 0.364406 0.000000 0.772626
O O16 0.308484 0.172978 0.713519
O O17 0.250135 0.146839 0.000000
O O18 0.250000 0.250000 0.732865
O O19 0.176005 0.271457 0.000000
#
# Coordination Sequence:
#
# PCOD9484837 Si02
#       7
#     8  16   8  16  16  16  16
#     4   9  16  24  34  54  89 124 153 192 236 273
#     4   9  15  24  40  59  82 119 165 200 227 274
#     4   7  12  28  51  67  81 113 157 191 219 260
#     4   9  16  25  38  59  88 124 157 187 232 281
#     4   9  18  33  52  70  90 120 159 195 228 274
#     4  10  19  29  45  70  98 125 151 188 238 287
#     4   9  15  27  42  59  87 123 158 189 230 282
#
# _framework density 22.18732
#
# number of rings (size 3 to 8) (size 9 to 14) (size 15 to 20)
#    0.000    3.000    1.667    1.500    1.167    2.333 
#    1.500    0.417    0.000    2.000    0.000    0.000 
#    0.000    4.667    0.000    0.000    0.000    0.000 
#
# Total GULP energy -267707.668845 kJ/mol
# GULP energy per Si atom -5577.243101 kJ/mol
# Density = 2.213682 g / cm^3
# Si number density = 22.187320 Si / 1000 Ang^3
#
#
#
# Elastic Constant Matrix: (Units=GPa)
#
#
# Indices 1 2 3 4 5 6 
#
# 1 189.6439 90.0691 4.6881 0.0000 0.0000 0.0000
# 2 90.0691 138.3913 6.4550 0.0000 0.0000 0.0000
# 3 4.6881 6.4550 90.7421 0.0000 0.0000 0.0000
# 4 0.0000 0.0000 0.0000 -5.7203 0.0000 0.0000
# 5 0.0000 0.0000 0.0000 0.0000 -9.2719 0.0000
# 6 0.0000 0.0000 0.0000 0.0000 0.0000 40.3478
#
#
#
# Elastic Compliance Matrix: (Units=1/GPa)
#
#
# Indices 1 2 3 4 5 6 
#
# 1 0.007632 -0.004965 -0.000041 0.000000 0.000000 0.000000
# 2 -0.004965 0.010480 -0.000489 0.000000 0.000000 0.000000
# 3 -0.000041 -0.000489 0.011057 0.000000 0.000000 0.000000
# 4 0.000000 0.000000 0.000000 -0.174817 0.000000 0.000000
# 5 0.000000 0.000000 0.000000 0.000000 -0.107852 0.000000
# 6 0.000000 0.000000 0.000000 0.000000 0.000000 0.024784
#
#
# Mechanical properties :
#
#
# Convention : Reuss Voigt Hill
#
# Bulk Modulus (GPa) = 55.00918 69.02240 62.01579
# Shear Modulus (GPa) = -23.62232 26.24214 1.30991
#
# Velocity S-wave (km/s) = -3.26648 3.44285 0.76920
# Velocity P-wave (km/s) = 3.25889 6.85425 5.36662
#
# Compressibility (1/GPa) = 0.01817879
#
# Stress axis : x y z
#
# Youngs Moduli (GPa) = 131.02170 95.41677 90.43925
#
# Poissons Ratio (x) = 0.47378 0.00372
# Poissons Ratio (y) = 0.65058 0.04422
# Poissons Ratio (z) = 0.00538 0.04666
#
# Static dielectric constant tensor:
#      x y z
#    x 1.798040 0.000000 0.000000 
#    y 0.000000 1.819940 0.000000 
#    z 0.000000 0.000000 1.879510 
# 
# From -- ./inp_files/27399.got.cif
#   From: 2010.05.17/outbox.cif.g08.bks.cpg/sg65_14_cif.got.tgz:27399.got - 2010.06.03 17:01:31.
