data_PCOD9484456
_publ_section_title
;
Structure prediction by ZEFSAII (Michael W. Deem and Ramdas Pophale) SiO2 
 PCOD9484456
Probable space group: C M M M
;
_chemical_formula_sum "Si O2"
_cell_formula_units_Z 104
_cell_length_a 23.314455
_cell_length_b 24.822923
_cell_length_c 10.006491
_cell_angle_alpha 90.000000
_cell_angle_beta 90.000000
_cell_angle_gamma 90.000000
_cell_volume 5791.085768
_symmetry_space_group_name_H-M "C M M M"
_symmetry_group_IT_number 65
_symmetry_cell_setting 'orthorhombic'
loop_
_space_group_symop_operation_xyz
x,y,z
-x,-y,z
x,-y,-z
-x,y,-z
-x,-y,-z
x,y,-z
-x,y,z
x,-y,z
1/2+x,1/2+y,z
1/2-x,1/2-y,z
1/2+x,1/2-y,-z
1/2-x,1/2+y,-z
1/2-x,1/2-y,-z
1/2+x,1/2+y,-z
1/2-x,1/2+y,z
1/2+x,1/2-y,z
loop_
_atom_site_type_symbol
_atom_site_label
_atom_site_fract_x
_atom_site_fract_y
_atom_site_fract_z
Si Si1 0.250000 0.250000 0.764768
Si Si2 0.668247 0.064013 0.160549
Si Si3 0.565507 0.141110 0.838593
Si Si4 0.251194 0.133202 0.349528
Si Si5 0.878272 0.756235 0.847873
Si Si6 0.931473 0.061007 0.145551
Si Si7 0.384831 0.645070 0.654273
O O1 0.261381 0.196478 0.678641
O O2 0.191172 0.243643 0.846184
O O3 0.607955 0.092456 0.199684
O O4 0.716895 0.096138 0.241924
O O5 0.668691 0.000000 0.186937
O O6 0.675996 0.071607 0.000000
O O7 0.500000 0.138132 0.787857
O O8 0.596183 0.198101 0.807731
O O9 0.562347 0.139328 0.000000
O O10 0.269676 0.119203 0.500000
O O11 0.182487 0.129753 0.340900
O O12 0.895260 0.801209 0.740692
O O13 0.897713 0.767958 0.000000
O O14 0.915791 0.097459 0.268908
O O15 0.000000 0.058649 0.138880
O O16 0.909726 0.000000 0.160488
O O17 0.910660 0.081943 0.000000
O O18 0.401231 0.651904 0.500000
#
# Coordination Sequence:
#
# PCOD9484456 Si02
#       7
#     8  16  16  16  16  16  16
#     4  10  18  32  56  84 108 138 182 230 272 326
#     4  10  21  37  57  83 112 144 188 237 281 330
#     4   9  18  34  55  81 111 143 183 231 284 336
#     4  10  21  36  55  80 113 149 183 224 278 335
#     4  10  19  32  54  82 110 145 182 226 278 331
#     4   9  19  37  59  80 104 140 187 234 278 327
#     4  10  22  36  52  81 116 149 185 226 277 338
#
# _framework density 17.958635999999998
#
# number of rings (size 3 to 8) (size 9 to 14) (size 15 to 20)
#    0.000    2.308    1.538    1.385    0.000    6.154 
#    0.000    6.923    0.000    1.385    0.000    1.077 
#    0.000    0.000    0.000    0.000    0.000    0.000 
#
# Total GULP energy -289777.504485 kJ/mol
# GULP energy per Si atom -5572.644317 kJ/mol
# Density = 1.791776 g / cm^3
# Si number density = 17.958636 Si / 1000 Ang^3
#
#
#
# Elastic Constant Matrix: (Units=GPa)
#
#
# Indices 1 2 3 4 5 6 
#
# 1 25.5291 40.9216 33.0007 0.0000 0.0000 0.0000
# 2 40.9216 131.8043 72.0076 0.0000 0.0000 0.0000
# 3 33.0007 72.0076 108.1652 0.0000 0.0000 0.0000
# 4 0.0000 0.0000 0.0000 5.8242 0.0000 0.0000
# 5 0.0000 0.0000 0.0000 0.0000 1.6161 0.0000
# 6 0.0000 0.0000 0.0000 0.0000 0.0000 26.6977
#
#
#
# Elastic Compliance Matrix: (Units=1/GPa)
#
#
# Indices 1 2 3 4 5 6 
#
# 1 0.089462 -0.020217 -0.013836 0.000000 0.000000 0.000000
# 2 -0.020217 0.016492 -0.004811 0.000000 0.000000 0.000000
# 3 -0.013836 -0.004811 0.016669 0.000000 0.000000 0.000000
# 4 0.000000 0.000000 0.000000 0.171697 0.000000 0.000000
# 5 0.000000 0.000000 0.000000 0.000000 0.618767 0.000000
# 6 0.000000 0.000000 0.000000 0.000000 0.000000 0.037456
#
#
# Mechanical properties :
#
#
# Convention : Reuss Voigt Hill
#
# Bulk Modulus (GPa) = 22.27360 61.92872 42.10116
# Shear Modulus (GPa) = 4.79278 14.79886 9.79582
#
# Velocity S-wave (km/s) = 1.63541 2.87375 2.33805
# Velocity P-wave (km/s) = 3.99947 6.75057 5.54824
#
# Compressibility (1/GPa) = 0.04489621
#
# Stress axis : x y z
#
# Youngs Moduli (GPa) = 11.17790 60.63501 59.99071
#
# Poissons Ratio (x) = 1.22584 0.83003
# Poissons Ratio (y) = 0.22598 0.28862
# Poissons Ratio (z) = 0.15466 0.29172
#
# Static dielectric constant tensor:
#      x y z
#    x 1.628260 0.000000 0.000000 
#    y 0.000000 1.612240 0.000000 
#    z 0.000000 0.000000 1.606900 
# 
# From -- ./inp_files/14721.got.cif
#   From: 2010.05.17/outbox.cif.g08.bks.cpg/sg65_8_cif.got.tgz:14721.got - 2010.06.03 17:01:31.
