data_PCOD9484953
_publ_section_title
;
Structure prediction by ZEFSAII (Michael W. Deem and Ramdas Pophale) SiO2 
 PCOD9484953
Probable space group: C M M M
;
_chemical_formula_sum "Si O2"
_cell_formula_units_Z 96
_cell_length_a 8.541564
_cell_length_b 28.349947
_cell_length_c 24.639880
_cell_angle_alpha 90.000000
_cell_angle_beta 90.000000
_cell_angle_gamma 90.000000
_cell_volume 5966.618070
_symmetry_space_group_name_H-M "C M M M"
_symmetry_group_IT_number 65
_symmetry_cell_setting 'orthorhombic'
loop_
_space_group_symop_operation_xyz
x,y,z
-x,-y,z
x,-y,-z
-x,y,-z
-x,-y,-z
x,y,-z
-x,y,z
x,-y,z
1/2+x,1/2+y,z
1/2-x,1/2-y,z
1/2+x,1/2-y,-z
1/2-x,1/2+y,-z
1/2-x,1/2-y,-z
1/2+x,1/2+y,-z
1/2-x,1/2+y,z
1/2+x,1/2-y,z
loop_
_atom_site_type_symbol
_atom_site_label
_atom_site_fract_x
_atom_site_fract_y
_atom_site_fract_z
Si Si1 0.689249 0.105264 0.668722
Si Si2 0.687622 0.801700 0.269678
Si Si3 0.687414 0.802444 0.061978
Si Si4 0.189098 0.053099 0.773569
Si Si5 0.690765 0.945394 0.439002
Si Si6 0.812404 0.145844 0.835277
O O1 0.500000 0.104113 0.669015
O O2 0.737599 0.157639 0.687715
O O3 0.748693 0.069869 0.715198
O O4 0.744195 0.087957 0.609823
O O5 0.500000 0.800734 0.267853
O O6 0.750000 0.750000 0.282706
O O7 0.749729 0.818852 0.211153
O O8 0.500000 0.801461 0.064113
O O9 0.750000 0.750000 0.074553
O O10 0.750446 0.838292 0.106614
O O11 0.735897 0.813687 0.000000
O O12 0.237776 0.093456 0.816277
O O13 0.000000 0.053438 0.771750
O O14 0.241336 0.000000 0.786143
O O15 0.741862 0.932351 0.500000
O O16 0.500000 0.944458 0.439112
O O17 0.735710 0.000000 0.428909
O O18 0.000000 0.147868 0.835155
#
# Coordination Sequence:
#
# PCOD9484953 Si02
#       6
#    16  16  16  16  16  16
#     4   9  17  28  44  66  88 113 147 184 220 259
#     4  10  19  30  44  63  88 116 147 182 220 263
#     4  10  20  33  49  69  93 119 147 180 218 260
#     4   9  18  31  46  66  92 120 147 177 217 262
#     4   8  13  22  39  64  90 112 137 175 221 263
#     4  10  19  31  48  68  91 118 147 180 217 258
#
# _framework density 16.089517000000001
#
# number of rings (size 3 to 8) (size 9 to 14) (size 15 to 20)
#    0.000    2.667    0.000    3.000    0.000    3.333 
#    0.000    0.000    0.000    1.500    0.000    5.833 
#    0.000    0.000    0.000    0.000    0.000    0.500 
#
# Total GULP energy -267571.950645 kJ/mol
# GULP energy per Si atom -5574.415638 kJ/mol
# Density = 1.605290 g / cm^3
# Si number density = 16.089517 Si / 1000 Ang^3
#
#
#
# Elastic Constant Matrix: (Units=GPa)
#
#
# Indices 1 2 3 4 5 6 
#
# 1 19.8090 22.5022 22.2464 0.0000 0.0000 0.0000
# 2 22.5022 126.4881 85.9140 0.0000 0.0000 0.0000
# 3 22.2464 85.9140 135.5691 0.0000 0.0000 0.0000
# 4 0.0000 0.0000 0.0000 21.2431 0.0000 0.0000
# 5 0.0000 0.0000 0.0000 0.0000 11.1387 0.0000
# 6 0.0000 0.0000 0.0000 0.0000 0.0000 12.7728
#
#
#
# Elastic Compliance Matrix: (Units=1/GPa)
#
#
# Indices 1 2 3 4 5 6 
#
# 1 0.065885 -0.007686 -0.005941 0.000000 0.000000 0.000000
# 2 -0.007686 0.014777 -0.008104 0.000000 0.000000 0.000000
# 3 -0.005941 -0.008104 0.013487 0.000000 0.000000 0.000000
# 4 0.000000 0.000000 0.000000 0.047074 0.000000 0.000000
# 5 0.000000 0.000000 0.000000 0.000000 0.089777 0.000000
# 6 0.000000 0.000000 0.000000 0.000000 0.000000 0.078291
#
#
# Mechanical properties :
#
#
# Convention : Reuss Voigt Hill
#
# Bulk Modulus (GPa) = 19.72837 60.35459 40.04148
# Shear Modulus (GPa) = 13.52640 19.11116 16.31878
#
# Velocity S-wave (km/s) = 2.90262 3.45019 3.18818
# Velocity P-wave (km/s) = 4.84993 7.31197 6.20430
#
# Compressibility (1/GPa) = 0.05068843
#
# Stress axis : x y z
#
# Youngs Moduli (GPa) = 15.17804 67.67101 74.14730
#
# Poissons Ratio (x) = 0.52010 0.44049
# Poissons Ratio (y) = 0.11665 0.60086
# Poissons Ratio (z) = 0.09017 0.54838
#
# Static dielectric constant tensor:
#      x y z
#    x 1.543280 0.000000 0.000000 
#    y 0.000000 1.537590 0.000000 
#    z 0.000000 0.000000 1.531450 
# 
# From -- ./inp_files/67858.got.cif
#   From: 2010.05.17/outbox.cif.g08.bks.cpg/sg65_34_cif.got.tgz:67858.got - 2010.06.03 17:01:31.
