data_PCOD9484141
_publ_section_title
;
Structure prediction by ZEFSAII (Michael W. Deem and Ramdas Pophale) SiO2 
 PCOD9484141
Probable space group: C M M M
;
_chemical_formula_sum "Si O2"
_cell_formula_units_Z 72
_cell_length_a 15.476638
_cell_length_b 30.905548
_cell_length_c 7.623544
_cell_angle_alpha 90.000000
_cell_angle_beta 90.000000
_cell_angle_gamma 90.000000
_cell_volume 3646.447662
_symmetry_space_group_name_H-M "C M M M"
_symmetry_group_IT_number 65
_symmetry_cell_setting 'orthorhombic'
loop_
_space_group_symop_operation_xyz
x,y,z
-x,-y,z
x,-y,-z
-x,y,-z
-x,-y,-z
x,y,-z
-x,y,z
x,-y,z
1/2+x,1/2+y,z
1/2-x,1/2-y,z
1/2+x,1/2-y,-z
1/2-x,1/2+y,-z
1/2-x,1/2-y,-z
1/2+x,1/2+y,-z
1/2-x,1/2+y,z
1/2+x,1/2-y,z
loop_
_atom_site_type_symbol
_atom_site_label
_atom_site_fract_x
_atom_site_fract_y
_atom_site_fract_z
Si Si1 0.000000 0.274038 0.213864
Si Si2 0.500000 0.326334 0.786065
Si Si3 0.096003 0.552450 0.000000
Si Si4 0.193946 0.292475 0.214137
Si Si5 0.678436 0.631529 0.787449
Si Si6 0.774105 0.549699 0.699130
O O1 0.906397 0.292148 0.271445
O O2 0.000000 0.223631 0.265170
O O3 0.000000 0.276523 0.000000
O O4 0.413079 0.349810 0.728580
O O5 0.500000 0.326492 0.000000
O O6 0.150939 0.564506 0.830497
O O7 0.090267 0.500000 0.000000
O O8 0.000000 0.570598 0.000000
O O9 0.250000 0.250000 0.267442
O O10 0.246457 0.335116 0.267977
O O11 0.193035 0.291448 0.000000
O O12 0.697591 0.583628 0.721211
O O13 0.678692 0.630504 0.000000
O O14 0.805125 0.550136 0.500000
O O15 0.750355 0.500000 0.743528
#
# Coordination Sequence:
#
# PCOD9484141 Si02
#       6
#     8   8   8  16  16  16
#     4   9  14  24  40  70 107 144 185 234 282 343
#     4   9  16  26  48  76 109 144 196 244 286 342
#     4   9  18  36  62  87 110 143 191 239 283 339
#     4   9  15  24  42  70 106 141 183 232 287 345
#     4  10  18  31  51  80 109 149 194 242 291 345
#     4  10  21  38  59  83 116 155 191 236 293 343
#
# _framework density 19.745244
#
# number of rings (size 3 to 8) (size 9 to 14) (size 15 to 20)
#    0.000    2.556    3.333    0.000    0.000    0.444 
#    2.000    3.333    0.000    4.000    0.000    0.000 
#    0.000    0.000    0.000    0.000    0.000    0.000 
#
# Total GULP energy -200860.381601 kJ/mol
# GULP energy per Si atom -5579.455044 kJ/mol
# Density = 1.970030 g / cm^3
# Si number density = 19.745244 Si / 1000 Ang^3
#
#
#
# Elastic Constant Matrix: (Units=GPa)
#
#
# Indices 1 2 3 4 5 6 
#
# 1 182.3382 71.9241 25.2747 0.0000 0.0000 0.0000
# 2 71.9241 100.0103 18.1955 0.0000 0.0000 0.0000
# 3 25.2747 18.1955 53.0904 0.0000 0.0000 0.0000
# 4 0.0000 0.0000 0.0000 -11.8658 0.0000 0.0000
# 5 0.0000 0.0000 0.0000 0.0000 -40.5997 0.0000
# 6 0.0000 0.0000 0.0000 0.0000 0.0000 18.4736
#
#
#
# Elastic Compliance Matrix: (Units=1/GPa)
#
#
# Indices 1 2 3 4 5 6 
#
# 1 0.007835 -0.005286 -0.001919 0.000000 0.000000 0.000000
# 2 -0.005286 0.014230 -0.002361 0.000000 0.000000 0.000000
# 3 -0.001919 -0.002361 0.020558 0.000000 0.000000 0.000000
# 4 0.000000 0.000000 0.000000 -0.084276 0.000000 0.000000
# 5 0.000000 0.000000 0.000000 0.000000 -0.024631 0.000000
# 6 0.000000 0.000000 0.000000 0.000000 0.000000 0.054131
#
#
# Mechanical properties :
#
#
# Convention : Reuss Voigt Hill
#
# Bulk Modulus (GPa) = 42.56494 62.91416 52.73955
# Shear Modulus (GPa) = 337.62823 7.87124 172.74974
#
# Velocity S-wave (km/s) = 13.09058 1.99876 9.36372
# Velocity P-wave (km/s) = 15.81418 6.10400 11.98639
#
# Compressibility (1/GPa) = 0.02349351
#
# Stress axis : x y z
#
# Youngs Moduli (GPa) = 127.62813 70.27499 48.64241
#
# Poissons Ratio (x) = 0.37146 0.09332
# Poissons Ratio (y) = 0.67462 0.11482
# Poissons Ratio (z) = 0.24486 0.16589
#
# Static dielectric constant tensor:
#      x y z
#    x 1.694420 0.000000 0.000000 
#    y 0.000000 1.677280 0.000000 
#    z 0.000000 0.000000 1.748940 
# 
# From -- ./inp_files/7425.got.cif
#   From: 2010.05.17/outbox.cif.g08.bks.cpg/sg65_4_cif.got.tgz:7425.got - 2010.06.03 17:01:31.
