data_PCOD9484863
_publ_section_title
;
Structure prediction by ZEFSAII (Michael W. Deem and Ramdas Pophale) SiO2 
 PCOD9484863
Probable space group: C M M M
;
_chemical_formula_sum "Si O2"
_cell_formula_units_Z 88
_cell_length_a 24.892704
_cell_length_b 21.400904
_cell_length_c 8.436086
_cell_angle_alpha 90.000000
_cell_angle_beta 90.000000
_cell_angle_gamma 90.000000
_cell_volume 4494.125460
_symmetry_space_group_name_H-M "C M M M"
_symmetry_group_IT_number 65
_symmetry_cell_setting 'orthorhombic'
loop_
_space_group_symop_operation_xyz
x,y,z
-x,-y,z
x,-y,-z
-x,y,-z
-x,-y,-z
x,y,-z
-x,y,z
x,-y,z
1/2+x,1/2+y,z
1/2-x,1/2-y,z
1/2+x,1/2-y,-z
1/2-x,1/2+y,-z
1/2-x,1/2-y,-z
1/2+x,1/2+y,-z
1/2-x,1/2+y,z
1/2+x,1/2-y,z
loop_
_atom_site_type_symbol
_atom_site_label
_atom_site_fract_x
_atom_site_fract_y
_atom_site_fract_z
Si Si1 0.292706 0.799184 0.187259
Si Si2 0.937369 0.870192 0.673783
Si Si3 0.936307 0.925670 0.000000
Si Si4 0.941634 0.598081 0.189899
Si Si5 0.675682 0.932316 0.311657
Si Si6 0.915492 0.259374 0.815066
O O1 0.250000 0.750000 0.255956
O O2 0.295416 0.869677 0.251489
O O3 0.351852 0.769640 0.205120
O O4 0.282120 0.805229 0.000000
O O5 0.914006 0.885391 0.500000
O O6 0.934959 0.796055 0.704455
O O7 0.000000 0.889712 0.668946
O O8 0.913099 0.899881 0.834113
O O9 0.000000 0.907789 0.000000
O O10 0.932982 0.000000 0.000000
O O11 0.887456 0.572662 0.266435
O O12 0.940303 0.672854 0.215639
O O13 0.000000 0.574328 0.243351
O O14 0.937582 0.587926 0.000000
O O15 0.679956 0.932103 0.500000
O O16 0.695463 0.000000 0.250755
O O17 0.926661 0.243187 0.000000
#
# Coordination Sequence:
#
# PCOD9484863 Si02
#       6
#    16  16   8  16  16  16
#     4   9  19  36  58  82 103 129 174 226 273 322
#     4  10  19  29  46  73 101 133 171 208 254 314
#     4   9  18  32  48  66  93 130 167 209 256 301
#     4   9  18  31  49  74 105 144 185 223 260 303
#     4  10  21  35  51  75 109 147 183 220 269 326
#     4   9  16  29  49  72 102 133 163 212 270 316
#
# _framework density 19.581118
#
# number of rings (size 3 to 8) (size 9 to 14) (size 15 to 20)
#    0.000    2.636    0.909    2.182    0.000    6.545 
#    0.000    3.636    0.000    1.091    0.000    0.000 
#    0.000    0.000    0.000    0.000    0.000    0.000 
#
# Total GULP energy -245229.171267 kJ/mol
# GULP energy per Si atom -5573.390256 kJ/mol
# Density = 1.953655 g / cm^3
# Si number density = 19.581118 Si / 1000 Ang^3
#
#
#
# Elastic Constant Matrix: (Units=GPa)
#
#
# Indices 1 2 3 4 5 6 
#
# 1 50.5844 46.7995 13.9767 0.0000 0.0000 0.0000
# 2 46.7995 87.1883 39.9766 0.0000 0.0000 0.0000
# 3 13.9767 39.9766 90.6124 0.0000 0.0000 0.0000
# 4 0.0000 0.0000 0.0000 21.6028 0.0000 0.0000
# 5 0.0000 0.0000 0.0000 0.0000 6.8719 0.0000
# 6 0.0000 0.0000 0.0000 0.0000 0.0000 -7.2371
#
#
#
# Elastic Compliance Matrix: (Units=1/GPa)
#
#
# Indices 1 2 3 4 5 6 
#
# 1 0.040502 -0.023662 0.004192 0.000000 0.000000 0.000000
# 2 -0.023662 0.028202 -0.008792 0.000000 0.000000 0.000000
# 3 0.004192 -0.008792 0.014268 0.000000 0.000000 0.000000
# 4 0.000000 0.000000 0.000000 0.046290 0.000000 0.000000
# 5 0.000000 0.000000 0.000000 0.000000 0.145520 0.000000
# 6 0.000000 0.000000 0.000000 0.000000 0.000000 -0.138176
#
#
# Mechanical properties :
#
#
# Convention : Reuss Voigt Hill
#
# Bulk Modulus (GPa) = 37.81077 47.76564 42.78821
# Shear Modulus (GPa) = 24.75882 12.75633 18.75757
#
# Velocity S-wave (km/s) = 3.55973 2.55514 3.09842
# Velocity P-wave (km/s) = 6.02057 5.75775 5.89063
#
# Compressibility (1/GPa) = 0.02644749
#
# Stress axis : x y z
#
# Youngs Moduli (GPa) = 24.68983 35.45863 70.08483
#
# Poissons Ratio (x) = 0.83903 -0.29380
# Poissons Ratio (y) = 0.58422 0.61621
# Poissons Ratio (z) = -0.10350 0.31176
#
# Static dielectric constant tensor:
#      x y z
#    x 1.689490 0.000000 0.000000 
#    y 0.000000 1.717950 0.000000 
#    z 0.000000 0.000000 1.711300 
# 
# From -- ./inp_files/18492.got.cif
#   From: 2010.05.17/outbox.cif.g08.bks.cpg/sg65_10_cif.got.tgz:18492.got - 2010.06.03 17:01:31.
