data_PCOD9484335
_publ_section_title
;
Structure prediction by ZEFSAII (Michael W. Deem and Ramdas Pophale) SiO2 
 PCOD9484335
Probable space group: C M M M
;
_chemical_formula_sum "Si O2"
_cell_formula_units_Z 88
_cell_length_a 17.482734
_cell_length_b 30.769397
_cell_length_c 7.450158
_cell_angle_alpha 90.000000
_cell_angle_beta 90.000000
_cell_angle_gamma 90.000000
_cell_volume 4007.687207
_symmetry_space_group_name_H-M "C M M M"
_symmetry_group_IT_number 65
_symmetry_cell_setting 'orthorhombic'
loop_
_space_group_symop_operation_xyz
x,y,z
-x,-y,z
x,-y,-z
-x,y,-z
-x,-y,-z
x,y,-z
-x,y,z
x,-y,z
1/2+x,1/2+y,z
1/2-x,1/2-y,z
1/2+x,1/2-y,-z
1/2-x,1/2+y,-z
1/2-x,1/2-y,-z
1/2+x,1/2+y,-z
1/2-x,1/2+y,z
1/2+x,1/2-y,z
loop_
_atom_site_type_symbol
_atom_site_label
_atom_site_fract_x
_atom_site_fract_y
_atom_site_fract_z
Si Si1 0.169603 0.548291 0.216850
Si Si2 0.689820 0.316895 0.719851
Si Si3 0.090165 0.000000 0.280826
Si Si4 0.848218 0.276919 0.289281
Si Si5 0.500000 0.171683 0.787431
Si Si6 0.673397 0.412119 0.292318
Si Si7 0.500000 0.926451 0.780578
O O1 0.194423 0.500000 0.270284
O O2 0.234830 0.580471 0.284403
O O3 0.081835 0.554448 0.275937
O O4 0.169781 0.551262 0.000000
O O5 0.688390 0.319982 0.500000
O O6 0.776471 0.305013 0.779388
O O7 0.646664 0.272760 0.777178
O O8 0.660787 0.363756 0.785001
O O9 0.132012 0.955427 0.217140
O O10 0.095490 0.000000 0.500000
O O11 0.000000 0.000000 0.234548
O O12 0.832747 0.272381 0.500000
O O13 0.925276 0.302544 0.265288
O O14 0.500000 0.123019 0.717287
O O15 0.500000 0.167376 0.000000
O O16 0.649209 0.410593 0.500000
O O17 0.500000 0.929556 0.000000
#
# Coordination Sequence:
#
# PCOD9484335 Si02
#       7
#    16  16   8  16   8  16   8
#     4  10  19  32  51  73 100 135 174 207 242 289
#     4   8  16  31  53  76  95 123 165 208 245 293
#     4   9  18  32  49  72 101 126 154 197 249 299
#     4   9  17  33  52  71  98 129 164 204 247 292
#     4  11  21  32  47  72 104 133 165 204 247 293
#     4  10  18  32  53  76 100 127 163 207 253 298
#     4   9  19  33  48  70 102 140 175 205 236 288
#
# _framework density 21.957801
#
# number of rings (size 3 to 8) (size 9 to 14) (size 15 to 20)
#    0.000    2.636    0.909    2.727    0.000    1.091 
#    1.636    4.091    0.000    2.182    0.000    0.000 
#    0.000    0.000    0.000    0.000    0.000    0.000 
#
# Total GULP energy -245408.963564 kJ/mol
# GULP energy per Si atom -5577.476445 kJ/mol
# Density = 2.190782 g / cm^3
# Si number density = 21.957801 Si / 1000 Ang^3
#
#
#
# Elastic Constant Matrix: (Units=GPa)
#
#
# Indices 1 2 3 4 5 6 
#
# 1 53.3614 27.2338 -5.7323 0.0000 0.0000 0.0000
# 2 27.2338 178.5195 7.2689 0.0000 0.0000 0.0000
# 3 -5.7323 7.2689 63.3308 0.0000 0.0000 0.0000
# 4 0.0000 0.0000 0.0000 2.7349 0.0000 0.0000
# 5 0.0000 0.0000 0.0000 0.0000 22.5051 0.0000
# 6 0.0000 0.0000 0.0000 0.0000 0.0000 22.8337
#
#
#
# Elastic Compliance Matrix: (Units=1/GPa)
#
#
# Indices 1 2 3 4 5 6 
#
# 1 0.020634 -0.003239 0.002239 0.000000 0.000000 0.000000
# 2 -0.003239 0.006136 -0.000997 0.000000 0.000000 0.000000
# 3 0.002239 -0.000997 0.016107 0.000000 0.000000 0.000000
# 4 0.000000 0.000000 0.000000 0.365645 0.000000 0.000000
# 5 0.000000 0.000000 0.000000 0.000000 0.044434 0.000000
# 6 0.000000 0.000000 0.000000 0.000000 0.000000 0.043795
#
#
# Mechanical properties :
#
#
# Convention : Reuss Voigt Hill
#
# Bulk Modulus (GPa) = 25.71798 39.19474 32.45636
# Shear Modulus (GPa) = 9.73317 27.37750 18.55534
#
# Velocity S-wave (km/s) = 2.10768 3.53487 2.91012
# Velocity P-wave (km/s) = 4.20249 5.87786 5.10931
#
# Compressibility (1/GPa) = 0.03888331
#
# Stress axis : x y z
#
# Youngs Moduli (GPa) = 48.46434 162.96314 62.08370
#
# Poissons Ratio (x) = 0.52783 -0.13903
# Poissons Ratio (y) = 0.15697 0.06193
# Poissons Ratio (z) = -0.10853 0.16255
#
# Static dielectric constant tensor:
#      x y z
#    x 1.739600 0.000000 0.000000 
#    y 0.000000 1.831350 0.000000 
#    z 0.000000 0.000000 1.838460 
# 
# From -- ./inp_files/10228.got.cif
#   From: 2010.05.17/outbox.cif.g08.bks.cpg/sg65_6_cif.got.tgz:10228.got - 2010.06.03 17:01:31.
