data_PCOD9484981
_publ_section_title
;
Structure prediction by ZEFSAII (Michael W. Deem and Ramdas Pophale) SiO2 
 PCOD9484981
Probable space group: C M M M
;
_chemical_formula_sum "Si O2"
_cell_formula_units_Z 72
_cell_length_a 7.270941
_cell_length_b 18.066497
_cell_length_c 25.249717
_cell_angle_alpha 90.000000
_cell_angle_beta 90.000000
_cell_angle_gamma 90.000000
_cell_volume 3316.813778
_symmetry_space_group_name_H-M "C M M M"
_symmetry_group_IT_number 65
_symmetry_cell_setting 'orthorhombic'
loop_
_space_group_symop_operation_xyz
x,y,z
-x,-y,z
x,-y,-z
-x,y,-z
-x,-y,-z
x,y,-z
-x,y,z
x,-y,z
1/2+x,1/2+y,z
1/2-x,1/2-y,z
1/2+x,1/2-y,-z
1/2-x,1/2+y,-z
1/2-x,1/2-y,-z
1/2+x,1/2+y,-z
1/2-x,1/2+y,z
1/2+x,1/2-y,z
loop_
_atom_site_type_symbol
_atom_site_label
_atom_site_fract_x
_atom_site_fract_y
_atom_site_fract_z
Si Si1 0.224014 0.586576 0.285935
Si Si2 0.277361 0.088207 0.057009
Si Si3 0.218613 0.336991 0.392768
Si Si4 0.275547 0.914470 0.500000
Si Si5 0.278281 0.911610 0.829063
O O1 0.273962 0.500000 0.290344
O O2 0.289209 0.629714 0.337588
O O3 0.285421 0.616358 0.228289
O O4 0.000000 0.588973 0.285280
O O5 0.500000 0.093535 0.057019
O O6 0.212614 0.118274 0.113985
O O7 0.235596 0.000000 0.057012
O O8 0.213547 0.118450 0.000000
O O9 0.250000 0.250000 0.395111
O O10 0.288293 0.375134 0.446289
O O11 0.000000 0.350602 0.392194
O O12 0.500000 0.911197 0.500000
O O13 0.223540 0.000000 0.500000
O O14 0.500000 0.904581 0.829529
O O15 0.239641 0.000000 0.828722
#
# Coordination Sequence:
#
# PCOD9484981 Si02
#       5
#    16  16  16   8  16
#     4   8  13  22  37  55  73  97 132 168 196 225
#     4   7   8   9  14  27  51  83 113 140 178 228
#     4  10  19  30  45  64  86 109 132 162 198 234
#     4   9  17  30  49  69  84 103 136 170 194 223
#     4   7   9  13  22  38  60  85 116 154 189 221
#
# _framework density 21.707578999999999
#
# number of rings (size 3 to 8) (size 9 to 14) (size 15 to 20)
#    0.000    3.889    0.000    4.333    0.000    2.667 
#    0.000    0.000    0.000    3.333    0.000    0.000 
#    0.000    0.889    0.000    0.667    0.000    3.333 
#
# Total GULP energy -200516.337828 kJ/mol
# GULP energy per Si atom -5569.898273 kJ/mol
# Density = 2.165817 g / cm^3
# Si number density = 21.707579 Si / 1000 Ang^3
#
#
#
# Elastic Constant Matrix: (Units=GPa)
#
#
# Indices 1 2 3 4 5 6 
#
# 1 93.3079 -4.1977 13.5126 0.0000 0.0000 0.0000
# 2 -4.1977 60.3455 88.8185 0.0000 0.0000 0.0000
# 3 13.5126 88.8185 334.9252 0.0000 0.0000 0.0000
# 4 0.0000 0.0000 0.0000 -9.0176 0.0000 0.0000
# 5 0.0000 0.0000 0.0000 0.0000 -4.7815 0.0000
# 6 0.0000 0.0000 0.0000 0.0000 0.0000 14.7707
#
#
#
# Elastic Compliance Matrix: (Units=1/GPa)
#
#
# Indices 1 2 3 4 5 6 
#
# 1 0.010975 0.002321 -0.001058 0.000000 0.000000 0.000000
# 2 0.002321 0.027671 -0.007432 0.000000 0.000000 0.000000
# 3 -0.001058 -0.007432 0.004999 0.000000 0.000000 0.000000
# 4 0.000000 0.000000 0.000000 -0.110894 0.000000 0.000000
# 5 0.000000 0.000000 0.000000 0.000000 -0.209138 0.000000
# 6 0.000000 0.000000 0.000000 0.000000 0.000000 0.067702
#
#
# Mechanical properties :
#
#
# Convention : Reuss Voigt Hill
#
# Bulk Modulus (GPa) = 31.94154 76.09394 54.01774
# Shear Modulus (GPa) = -26.89448 26.22398 -0.33525
#
# Velocity S-wave (km/s) = -3.52368 3.47948 -0.39341
# Velocity P-wave (km/s) = 1.34488 7.16049 4.97312
#
# Compressibility (1/GPa) = 0.03130719
#
# Stress axis : x y z
#
# Youngs Moduli (GPa) = 91.11708 36.13912 200.03077
#
# Poissons Ratio (x) = -0.08388 0.21169
# Poissons Ratio (y) = -0.21149 1.48656
# Poissons Ratio (z) = 0.09643 0.26857
#
# Static dielectric constant tensor:
#      x y z
#    x 1.843100 0.000000 0.000000 
#    y 0.000000 1.684720 0.000000 
#    z 0.000000 0.000000 1.865560 
# 
# From -- ./inp_files/68769.got.cif
#   From: 2010.05.17/outbox.cif.g08.bks.cpg/sg65_35_cif.got.tgz:68769.got - 2010.06.03 17:01:31.
