data_PCOD9484321
_publ_section_title
;
Structure prediction by ZEFSAII (Michael W. Deem and Ramdas Pophale) SiO2 
 PCOD9484321
Probable space group: C M M M
;
_chemical_formula_sum "Si O2"
_cell_formula_units_Z 116
_cell_length_a 29.315583
_cell_length_b 27.968534
_cell_length_c 7.694583
_cell_angle_alpha 90.000000
_cell_angle_beta 90.000000
_cell_angle_gamma 90.000000
_cell_volume 6308.895401
_symmetry_space_group_name_H-M "C M M M"
_symmetry_group_IT_number 65
_symmetry_cell_setting 'orthorhombic'
loop_
_space_group_symop_operation_xyz
x,y,z
-x,-y,z
x,-y,-z
-x,y,-z
-x,-y,-z
x,y,-z
-x,y,z
x,-y,z
1/2+x,1/2+y,z
1/2-x,1/2-y,z
1/2+x,1/2-y,-z
1/2-x,1/2+y,-z
1/2-x,1/2-y,-z
1/2+x,1/2+y,-z
1/2-x,1/2+y,z
1/2+x,1/2-y,z
loop_
_atom_site_type_symbol
_atom_site_label
_atom_site_fract_x
_atom_site_fract_y
_atom_site_fract_z
Si Si1 0.449213 0.303857 0.795233
Si Si2 0.802364 0.053854 0.207982
Si Si3 0.857252 0.146514 0.705169
Si Si4 0.669014 0.000000 0.500000
Si Si5 0.449661 0.805045 0.703300
Si Si6 0.197505 0.573414 0.796711
Si Si7 0.199554 0.236167 0.711977
Si Si8 0.146550 0.668663 0.288646
O O1 0.500000 0.319958 0.737801
O O2 0.408088 0.340270 0.764678
O O3 0.440268 0.251967 0.711898
O O4 0.451078 0.294909 0.000000
O O5 0.838779 0.093749 0.258991
O O6 0.751007 0.069917 0.255474
O O7 0.810100 0.000000 0.276495
O O8 0.803252 0.051370 0.000000
O O9 0.857943 0.153036 0.500000
O O10 0.821641 0.186280 0.776044
O O11 0.671791 0.958788 0.344759
O O12 0.452175 0.817568 0.500000
O O13 0.500000 0.813197 0.780875
O O14 0.405805 0.832536 0.774469
O O15 0.177903 0.626652 0.782204
O O16 0.193963 0.558031 0.000000
O O17 0.201639 0.233822 0.500000
O O18 0.250000 0.250000 0.772863
O O19 0.166617 0.279742 0.759022
O O20 0.147162 0.665931 0.500000
#
# Coordination Sequence:
#
# PCOD9484321 Si02
#       8
#    16  16  16   4  16  16  16  16
#     4  10  20  34  52  75 108 149 188 230 283 340
#     4  10  22  39  56  79 113 144 185 237 280 332
#     4  11  21  33  55  81 106 146 189 231 281 333
#     4  12  22  40  64  82 115 154 191 248 278 344
#     4   9  17  31  53  79 110 146 188 234 280 335
#     4  11  23  38  59  87 115 150 193 240 289 337
#     4   9  17  29  45  73 112 148 181 216 265 336
#     4  10  18  32  52  78 115 153 186 226 286 342
#
# _framework density 18.386735999999999
#
# number of rings (size 3 to 8) (size 9 to 14) (size 15 to 20)
#    0.000    1.931    2.759    1.862    0.966    2.759 
#    0.000    0.000    0.000    3.310    0.000    3.862 
#    0.000    1.103    0.000    0.000    0.000    0.000 
#
# Total GULP energy -323010.526809 kJ/mol
# GULP energy per Si atom -5569.147014 kJ/mol
# Density = 1.834489 g / cm^3
# Si number density = 18.386736 Si / 1000 Ang^3
#
#
#
# Elastic Constant Matrix: (Units=GPa)
#
#
# Indices 1 2 3 4 5 6 
#
# 1 108.6508 47.6479 2.3324 0.0000 0.0000 0.0000
# 2 47.6479 85.0589 1.3656 0.0000 0.0000 0.0000
# 3 2.3324 1.3656 53.4136 0.0000 0.0000 0.0000
# 4 0.0000 0.0000 0.0000 1.4958 0.0000 0.0000
# 5 0.0000 0.0000 0.0000 0.0000 13.1004 0.0000
# 6 0.0000 0.0000 0.0000 0.0000 0.0000 10.6598
#
#
#
# Elastic Compliance Matrix: (Units=1/GPa)
#
#
# Indices 1 2 3 4 5 6 
#
# 1 0.012208 -0.006833 -0.000358 0.000000 0.000000 0.000000
# 2 -0.006833 0.015586 -0.000100 0.000000 0.000000 0.000000
# 3 -0.000358 -0.000100 0.018740 0.000000 0.000000 0.000000
# 4 0.000000 0.000000 0.000000 0.668547 0.000000 0.000000
# 5 0.000000 0.000000 0.000000 0.000000 0.076334 0.000000
# 6 0.000000 0.000000 0.000000 0.000000 0.000000 0.093810
#
#
# Mechanical properties :
#
#
# Convention : Reuss Voigt Hill
#
# Bulk Modulus (GPa) = 31.29785 38.86833 35.08309
# Shear Modulus (GPa) = 5.49175 18.10303 11.79739
#
# Velocity S-wave (km/s) = 1.73011 3.14119 2.53578
# Velocity P-wave (km/s) = 4.58802 5.86015 5.26267
#
# Compressibility (1/GPa) = 0.03195107
#
# Stress axis : x y z
#
# Youngs Moduli (GPa) = 81.91359 64.16110 53.36173
#
# Poissons Ratio (x) = 0.43840 0.01912
# Poissons Ratio (y) = 0.55970 0.00534
# Poissons Ratio (z) = 0.02936 0.00642
#
# Static dielectric constant tensor:
#      x y z
#    x 1.668330 0.000000 0.000000 
#    y 0.000000 1.634640 0.000000 
#    z 0.000000 0.000000 1.672770 
# 
# From -- ./inp_files/17066.got.cif
#   From: 2010.05.17/outbox.cif.g08.bks.cpg/sg65_9_cif.got.tgz:17066.got - 2010.06.03 17:01:31.
