data_PCOD9484288
_publ_section_title
;
Structure prediction by ZEFSAII (Michael W. Deem and Ramdas Pophale) SiO2 
 PCOD9484288
Probable space group: C M M M
;
_chemical_formula_sum "Si O2"
_cell_formula_units_Z 104
_cell_length_a 8.820887
_cell_length_b 28.503015
_cell_length_c 27.229412
_cell_angle_alpha 90.000000
_cell_angle_beta 90.000000
_cell_angle_gamma 90.000000
_cell_volume 6846.069806
_symmetry_space_group_name_H-M "C M M M"
_symmetry_group_IT_number 65
_symmetry_cell_setting 'orthorhombic'
loop_
_space_group_symop_operation_xyz
x,y,z
-x,-y,z
x,-y,-z
-x,y,-z
-x,-y,-z
x,y,-z
-x,y,z
x,-y,z
1/2+x,1/2+y,z
1/2-x,1/2-y,z
1/2+x,1/2-y,-z
1/2-x,1/2+y,-z
1/2-x,1/2-y,-z
1/2+x,1/2+y,-z
1/2-x,1/2+y,z
1/2+x,1/2-y,z
loop_
_atom_site_type_symbol
_atom_site_label
_atom_site_fract_x
_atom_site_fract_y
_atom_site_fract_z
Si Si1 0.676736 0.056818 0.154817
Si Si2 0.820285 0.943335 0.053628
Si Si3 0.682554 0.302858 0.500000
Si Si4 0.182268 0.945892 0.256886
Si Si5 0.181532 0.111499 0.353521
Si Si6 0.679269 0.056516 0.555632
Si Si7 0.319125 0.801896 0.398421
O O1 0.500000 0.067240 0.157494
O O2 0.743119 0.074594 0.103191
O O3 0.757368 0.072512 0.204789
O O4 0.695630 0.000000 0.154082
O O5 0.000000 0.934667 0.056443
O O6 0.800757 0.000000 0.053261
O O7 0.764735 0.926408 0.000000
O O8 0.500000 0.302871 0.500000
O O9 0.750000 0.250000 0.500000
O O10 0.749424 0.322132 0.449450
O O11 0.226766 0.915555 0.303941
O O12 0.000000 0.946529 0.254866
O O13 0.234193 0.000000 0.263264
O O14 0.230374 0.080603 0.400534
O O15 0.264784 0.161331 0.358004
O O16 0.000000 0.117977 0.353991
O O17 0.728207 0.069532 0.500000
O O18 0.500000 0.068310 0.560191
O O19 0.692332 0.000000 0.559383
O O20 0.500000 0.798753 0.402411
O O21 0.250000 0.750000 0.391039
#
# Coordination Sequence:
#
# PCOD9484288 Si02
#       7
#    16  16   8  16  16  16  16
#     4   9  16  24  36  55  78 105 139 181 224 259
#     4   8  13  21  33  49  71 102 139 176 215 259
#     4  10  18  32  52  72  91 110 133 162 200 248
#     4   9  18  32  47  62  84 115 150 186 221 259
#     4  11  22  34  50  71  91 114 147 184 221 264
#     4   9  19  35  51  67  90 118 146 178 218 263
#     4  11  22  37  54  72  94 117 140 172 214 263
#
# _framework density 15.191198
#
# number of rings (size 3 to 8) (size 9 to 14) (size 15 to 20)
#    0.000    2.462    0.000    5.308    1.077    4.615 
#    0.000    3.846    0.000    0.000    0.000    0.000 
#    0.000    0.000    0.000    0.000    0.000    0.769 
#
# Total GULP energy -289843.140452 kJ/mol
# GULP energy per Si atom -5573.906547 kJ/mol
# Density = 1.515662 g / cm^3
# Si number density = 15.191198 Si / 1000 Ang^3
#
#
#
# Elastic Constant Matrix: (Units=GPa)
#
#
# Indices 1 2 3 4 5 6 
#
# 1 62.2216 23.3510 53.4833 0.0000 0.0000 0.0000
# 2 23.3510 43.1145 46.2173 0.0000 0.0000 0.0000
# 3 53.4833 46.2173 144.2818 0.0000 0.0000 0.0000
# 4 0.0000 0.0000 0.0000 6.8179 0.0000 0.0000
# 5 0.0000 0.0000 0.0000 0.0000 12.3109 0.0000
# 6 0.0000 0.0000 0.0000 0.0000 0.0000 16.4269
#
#
#
# Elastic Compliance Matrix: (Units=1/GPa)
#
#
# Indices 1 2 3 4 5 6 
#
# 1 0.024372 -0.005354 -0.007320 0.000000 0.000000 0.000000
# 2 -0.005354 0.036500 -0.009707 0.000000 0.000000 0.000000
# 3 -0.007320 -0.009707 0.012754 0.000000 0.000000 0.000000
# 4 0.000000 0.000000 0.000000 0.146672 0.000000 0.000000
# 5 0.000000 0.000000 0.000000 0.000000 0.081229 0.000000
# 6 0.000000 0.000000 0.000000 0.000000 0.000000 0.060876
#
#
# Mechanical properties :
#
#
# Convention : Reuss Voigt Hill
#
# Bulk Modulus (GPa) = 34.64482 55.08013 44.86247
# Shear Modulus (GPa) = 11.99661 15.54891 13.77276
#
# Velocity S-wave (km/s) = 2.81322 3.20276 3.01429
# Velocity P-wave (km/s) = 5.77994 7.07203 6.45838
#
# Compressibility (1/GPa) = 0.02886434
#
# Stress axis : x y z
#
# Youngs Moduli (GPa) = 41.02994 27.39763 78.40937
#
# Poissons Ratio (x) = 0.14669 0.57392
# Poissons Ratio (y) = 0.21967 0.76113
# Poissons Ratio (z) = 0.30032 0.26595
#
# Static dielectric constant tensor:
#      x y z
#    x 1.509070 0.000000 0.000000 
#    y 0.000000 1.519270 0.000000 
#    z 0.000000 0.000000 1.529870 
# 
# From -- ./inp_files/73755.got.cif
#   From: 2010.05.17/outbox.cif.g08.bks.cpg/sg65_37_cif.got.tgz:73755.got - 2010.06.03 17:01:31.
