data_PCOD9484875
_publ_section_title
;
Structure prediction by ZEFSAII (Michael W. Deem and Ramdas Pophale) SiO2 
 PCOD9484875
Probable space group: C M M M
;
_chemical_formula_sum "Si O2"
_cell_formula_units_Z 88
_cell_length_a 9.445237
_cell_length_b 27.968941
_cell_length_c 18.124524
_cell_angle_alpha 90.000000
_cell_angle_beta 90.000000
_cell_angle_gamma 90.000000
_cell_volume 4788.014888
_symmetry_space_group_name_H-M "C M M M"
_symmetry_group_IT_number 65
_symmetry_cell_setting 'orthorhombic'
loop_
_space_group_symop_operation_xyz
x,y,z
-x,-y,z
x,-y,-z
-x,y,-z
-x,-y,-z
x,y,-z
-x,y,z
x,-y,z
1/2+x,1/2+y,z
1/2-x,1/2-y,z
1/2+x,1/2-y,-z
1/2-x,1/2+y,-z
1/2-x,1/2-y,-z
1/2+x,1/2+y,-z
1/2-x,1/2+y,z
1/2+x,1/2-y,z
loop_
_atom_site_type_symbol
_atom_site_label
_atom_site_fract_x
_atom_site_fract_y
_atom_site_fract_z
Si Si1 0.166856 0.105173 0.869233
Si Si2 0.659732 0.057049 0.417154
Si Si3 0.662869 0.387007 0.692140
Si Si4 0.834914 0.298262 0.119512
Si Si5 0.338890 0.795377 0.700757
Si Si6 0.838618 0.000000 0.087717
O O1 0.171660 0.105832 0.780219
O O2 0.253836 0.151634 0.897900
O O3 0.000000 0.109276 0.891744
O O4 0.222124 0.052203 0.891186
O O5 0.694941 0.074574 0.500000
O O6 0.500000 0.073861 0.398290
O O7 0.771805 0.070984 0.355696
O O8 0.654166 0.000000 0.420691
O O9 0.500000 0.378364 0.674117
O O10 0.759788 0.342019 0.673834
O O11 0.750000 0.250000 0.095691
O O12 0.837575 0.296367 0.209279
O O13 0.000000 0.298023 0.095148
O O14 0.500000 0.793015 0.676793
O O15 0.250000 0.750000 0.677092
O O16 0.000000 0.000000 0.119003
O O17 0.846047 0.000000 0.000000
#
# Coordination Sequence:
#
# PCOD9484875 Si02
#       6
#    16  16  16  16  16   8
#     4   9  18  31  49  75 104 133 170 212 253 296
#     4   9  19  35  51  67  92 128 166 203 246 295
#     4  10  19  29  47  74 102 128 160 204 250 292
#     4   9  16  27  46  72 102 132 164 205 255 303
#     4   9  16  27  44  67  98 130 163 199 243 294
#     4   9  18  34  55  75 100 139 178 208 245 299
#
# _framework density 18.379224000000001
#
# number of rings (size 3 to 8) (size 9 to 14) (size 15 to 20)
#    0.000    2.818    0.000    2.182    1.273    5.818 
#    0.000    1.364    0.000    2.182    0.000    0.000 
#    0.000    0.000    0.000    0.000    0.000    0.000 
#
# Total GULP energy -245032.870878 kJ/mol
# GULP energy per Si atom -5568.928884 kJ/mol
# Density = 1.833739 g / cm^3
# Si number density = 18.379224 Si / 1000 Ang^3
#
#
#
# Elastic Constant Matrix: (Units=GPa)
#
#
# Indices 1 2 3 4 5 6 
#
# 1 128.5261 73.5515 26.8917 0.0000 0.0000 0.0000
# 2 73.5515 146.0075 13.5969 0.0000 0.0000 0.0000
# 3 26.8917 13.5969 19.2201 0.0000 0.0000 0.0000
# 4 0.0000 0.0000 0.0000 -190.8349 0.0000 0.0000
# 5 0.0000 0.0000 0.0000 0.0000 7.9619 0.0000
# 6 0.0000 0.0000 0.0000 0.0000 0.0000 33.8812
#
#
#
# Elastic Compliance Matrix: (Units=1/GPa)
#
#
# Indices 1 2 3 4 5 6 
#
# 1 0.014472 -0.005786 -0.016155 0.000000 0.000000 0.000000
# 2 -0.005786 0.009645 0.001272 0.000000 0.000000 0.000000
# 3 -0.016155 0.001272 0.073732 0.000000 0.000000 0.000000
# 4 0.000000 0.000000 0.000000 -0.005240 0.000000 0.000000
# 5 0.000000 0.000000 0.000000 0.000000 0.125598 0.000000
# 6 0.000000 0.000000 0.000000 0.000000 0.000000 0.029515
#
#
# Mechanical properties :
#
#
# Convention : Reuss Voigt Hill
#
# Bulk Modulus (GPa) = 17.69555 57.98154 37.83854
# Shear Modulus (GPa) = 16.23920 -17.81746 -0.78913
#
# Velocity S-wave (km/s) = 2.97570 -3.11695 -0.65597
# Velocity P-wave (km/s) = 4.63199 4.31995 4.47869
#
# Compressibility (1/GPa) = 0.05651138
#
# Stress axis : x y z
#
# Youngs Moduli (GPa) = 69.10075 103.67987 13.56256
#
# Poissons Ratio (x) = 0.59986 0.21910
# Poissons Ratio (y) = 0.39979 -0.01725
# Poissons Ratio (z) = 1.11632 -0.13186
#
# Static dielectric constant tensor:
#      x y z
#    x 1.638370 0.000000 0.000000 
#    y 0.000000 1.678480 0.000000 
#    z 0.000000 0.000000 1.612280 
# 
# From -- ./inp_files/59813.got.cif
#   From: 2010.05.17/outbox.cif.g08.bks.cpg/sg65_30_cif.got.tgz:59813.got - 2010.06.03 17:01:31.
