data_PCOD9484882
_publ_section_title
;
Structure prediction by ZEFSAII (Michael W. Deem and Ramdas Pophale) SiO2 
 PCOD9484882
Probable space group: C M M M
;
_chemical_formula_sum "Si O2"
_cell_formula_units_Z 88
_cell_length_a 21.470742
_cell_length_b 7.699554
_cell_length_c 25.409432
_cell_angle_alpha 90.000000
_cell_angle_beta 90.000000
_cell_angle_gamma 90.000000
_cell_volume 4200.563744
_symmetry_space_group_name_H-M "C M M M"
_symmetry_group_IT_number 65
_symmetry_cell_setting 'orthorhombic'
loop_
_space_group_symop_operation_xyz
x,y,z
-x,-y,z
x,-y,-z
-x,y,-z
-x,-y,-z
x,y,-z
-x,y,z
x,-y,z
1/2+x,1/2+y,z
1/2-x,1/2-y,z
1/2+x,1/2-y,-z
1/2-x,1/2+y,-z
1/2-x,1/2-y,-z
1/2+x,1/2+y,-z
1/2-x,1/2+y,z
1/2+x,1/2-y,z
loop_
_atom_site_type_symbol
_atom_site_label
_atom_site_fract_x
_atom_site_fract_y
_atom_site_fract_z
Si Si1 0.569395 0.712591 0.204839
Si Si2 0.570636 0.288595 0.082431
Si Si3 0.870147 0.702117 0.391320
Si Si4 0.175251 0.791030 0.000000
Si Si5 0.500000 0.709675 0.562831
Si Si6 0.678075 0.301169 0.721705
Si Si7 0.320862 0.207860 0.500000
O O1 0.500000 0.768367 0.222322
O O2 0.568570 0.500000 0.206561
O O3 0.577398 0.760060 0.143635
O O4 0.625602 0.781901 0.240673
O O5 0.500000 0.233820 0.065312
O O6 0.569923 0.500000 0.079409
O O7 0.631133 0.231616 0.049020
O O8 0.851665 0.500000 0.388032
O O9 0.942333 0.720494 0.403835
O O10 0.845517 0.784268 0.338121
O O11 0.844509 0.782223 0.445294
O O12 0.250000 0.750000 0.000000
O O13 0.173942 0.000000 0.000000
O O14 0.500000 0.500000 0.562752
O O15 0.500000 0.763501 0.500000
O O16 0.677933 0.500000 0.737211
O O17 0.750000 0.250000 0.725695
O O18 0.250000 0.250000 0.500000
O O19 0.335021 0.000000 0.500000
#
# Coordination Sequence:
#
# PCOD9484882 Si02
#       7
#    16  16  16   8   8  16   8
#     4   8  16  32  54  79 107 140 183 235 284 328
#     4   8  14  28  51  77 104 139 186 236 276 318
#     4  11  23  40  59  82 112 146 182 227 279 331
#     4  10  19  29  47  79 113 144 182 226 276 330
#     4  11  23  39  61  89 115 145 181 220 271 334
#     4  11  23  38  57  82 112 146 187 231 281 342
#     4  10  22  37  56  77 103 138 176 218 271 330
#
# _framework density 20.949567999999999
#
# number of rings (size 3 to 8) (size 9 to 14) (size 15 to 20)
#    0.000    2.273    0.909    3.273    1.273    5.091 
#    0.000    0.000    0.000    2.182    0.000    5.091 
#    0.000    0.000    0.000    0.000    0.000    0.000 
#
# Total GULP energy -245178.633803 kJ/mol
# GULP energy per Si atom -5572.241677 kJ/mol
# Density = 2.090189 g / cm^3
# Si number density = 20.949568 Si / 1000 Ang^3
#
#
#
# Elastic Constant Matrix: (Units=GPa)
#
#
# Indices 1 2 3 4 5 6 
#
# 1 229.3134 -3.4584 114.0716 0.0000 0.0000 0.0000
# 2 -3.4584 30.5902 -2.3799 0.0000 0.0000 0.0000
# 3 114.0716 -2.3799 125.7769 0.0000 0.0000 0.0000
# 4 0.0000 0.0000 0.0000 9.6329 0.0000 0.0000
# 5 0.0000 0.0000 0.0000 0.0000 74.1507 0.0000
# 6 0.0000 0.0000 0.0000 0.0000 0.0000 37.7865
#
#
#
# Elastic Compliance Matrix: (Units=1/GPa)
#
#
# Indices 1 2 3 4 5 6 
#
# 1 0.007949 0.000338 -0.007203 0.000000 0.000000 0.000000
# 2 0.000338 0.032753 0.000313 0.000000 0.000000 0.000000
# 3 -0.007203 0.000313 0.014489 0.000000 0.000000 0.000000
# 4 0.000000 0.000000 0.000000 0.103811 0.000000 0.000000
# 5 0.000000 0.000000 0.000000 0.000000 0.013486 0.000000
# 6 0.000000 0.000000 0.000000 0.000000 0.000000 0.026464
#
#
# Mechanical properties :
#
#
# Convention : Reuss Voigt Hill
#
# Bulk Modulus (GPa) = 23.75998 66.90522 45.33260
# Shear Modulus (GPa) = 22.11561 42.81050 32.46305
#
# Velocity S-wave (km/s) = 3.25262 4.52542 3.94074
# Velocity P-wave (km/s) = 5.04699 7.70140 6.51090
#
# Compressibility (1/GPa) = 0.04208757
#
# Stress axis : x y z
#
# Youngs Moduli (GPa) = 125.80243 30.53178 69.01788
#
# Poissons Ratio (x) = -0.01033 0.49712
# Poissons Ratio (y) = -0.04256 -0.02160
# Poissons Ratio (z) = 0.90613 -0.00955
#
# Static dielectric constant tensor:
#      x y z
#    x 1.769170 0.000000 0.000000 
#    y 0.000000 1.852770 0.000000 
#    z 0.000000 0.000000 1.733460 
# 
# From -- ./inp_files/71079.got.cif
#   From: 2010.05.17/outbox.cif.g08.bks.cpg/sg65_36_cif.got.tgz:71079.got - 2010.06.03 17:01:31.
