data_PCOD9484797
_publ_section_title
;
Structure prediction by ZEFSAII (Michael W. Deem and Ramdas Pophale) SiO2 
 PCOD9484797
Probable space group: C M M M
;
_chemical_formula_sum "Si O2"
_cell_formula_units_Z 72
_cell_length_a 17.018686
_cell_length_b 29.192386
_cell_length_c 8.645263
_cell_angle_alpha 90.000000
_cell_angle_beta 90.000000
_cell_angle_gamma 90.000000
_cell_volume 4295.105423
_symmetry_space_group_name_H-M "C M M M"
_symmetry_group_IT_number 65
_symmetry_cell_setting 'orthorhombic'
loop_
_space_group_symop_operation_xyz
x,y,z
-x,-y,z
x,-y,-z
-x,y,-z
-x,-y,-z
x,y,-z
-x,y,z
x,-y,z
1/2+x,1/2+y,z
1/2-x,1/2-y,z
1/2+x,1/2-y,-z
1/2-x,1/2+y,-z
1/2-x,1/2-y,-z
1/2+x,1/2+y,-z
1/2-x,1/2+y,z
1/2+x,1/2-y,z
loop_
_atom_site_type_symbol
_atom_site_label
_atom_site_fract_x
_atom_site_fract_y
_atom_site_fract_z
Si Si1 0.259658 0.139990 0.814824
Si Si2 0.913671 0.695545 0.185981
Si Si3 0.331058 0.720758 0.679957
Si Si4 0.000000 0.555668 0.323075
Si Si5 0.672428 0.947025 0.312590
O O1 0.341178 0.164327 0.759502
O O2 0.189515 0.171897 0.753753
O O3 0.265004 0.088780 0.750874
O O4 0.258599 0.140032 0.000000
O O5 0.894815 0.747440 0.236966
O O6 0.000000 0.681073 0.242151
O O7 0.913391 0.693650 0.000000
O O8 0.350016 0.715891 0.500000
O O9 0.250000 0.750000 0.693509
O O10 0.084711 0.566924 0.252253
O O11 0.000000 0.500000 0.331600
O O12 0.000000 0.572950 0.500000
O O13 0.669865 0.945101 0.500000
O O14 0.686587 0.000000 0.269783
#
# Coordination Sequence:
#
# PCOD9484797 Si02
#       5
#    16  16  16   8  16
#     4  10  19  29  44  63  87 118 149 180 219 264
#     4   9  18  31  45  63  89 117 144 177 219 265
#     4   9  17  30  46  63  84 110 144 182 219 259
#     4   7  12  24  39  53  73 105 141 177 217 251
#     4   9  17  29  43  59  82 113 149 187 222 254
#
# _framework density 16.763268
#
# number of rings (size 3 to 8) (size 9 to 14) (size 15 to 20)
#    0.000    3.000    0.000    2.667    1.556    4.444 
#    0.000    0.000    0.000    2.000    0.000    0.000 
#    0.000    0.889    0.000    9.333    0.000    4.000 
#
# Total GULP energy -200477.672608 kJ/mol
# GULP energy per Si atom -5568.824239 kJ/mol
# Density = 1.672511 g / cm^3
# Si number density = 16.763268 Si / 1000 Ang^3
#
#
#
# Elastic Constant Matrix: (Units=GPa)
#
#
# Indices 1 2 3 4 5 6 
#
# 1 12.4770 2.1837 -2.2910 0.0000 0.0000 0.0000
# 2 2.1837 84.2411 5.7213 0.0000 0.0000 0.0000
# 3 -2.2910 5.7213 4.7592 0.0000 0.0000 0.0000
# 4 0.0000 0.0000 0.0000 19.9090 0.0000 0.0000
# 5 0.0000 0.0000 0.0000 0.0000 13.4333 0.0000
# 6 0.0000 0.0000 0.0000 0.0000 0.0000 24.0458
#
#
#
# Elastic Compliance Matrix: (Units=1/GPa)
#
#
# Indices 1 2 3 4 5 6 
#
# 1 0.090424 -0.005771 0.050466 0.000000 0.000000 0.000000
# 2 -0.005771 0.013294 -0.018760 0.000000 0.000000 0.000000
# 3 0.050466 -0.018760 0.256963 0.000000 0.000000 0.000000
# 4 0.000000 0.000000 0.000000 0.050229 0.000000 0.000000
# 5 0.000000 0.000000 0.000000 0.000000 0.074442 0.000000
# 6 0.000000 0.000000 0.000000 0.000000 0.000000 0.041587
#
#
# Mechanical properties :
#
#
# Convention : Reuss Voigt Hill
#
# Bulk Modulus (GPa) = 2.42394 12.52283 7.47339
# Shear Modulus (GPa) = 8.16209 17.86849 13.01529
#
# Velocity S-wave (km/s) = 2.20898 3.26840 2.78945
# Velocity P-wave (km/s) = 2.82051 4.66153 3.85261
#
# Compressibility (1/GPa) = 0.41255063
#
# Stress axis : x y z
#
# Youngs Moduli (GPa) = 11.05902 75.21955 3.89160
#
# Poissons Ratio (x) = 0.43413 -0.19639
# Poissons Ratio (y) = 0.06383 0.07301
# Poissons Ratio (z) = -0.55810 1.41113
#
# Static dielectric constant tensor:
#      x y z
#    x 1.580940 0.000000 0.000000 
#    y 0.000000 1.585640 0.000000 
#    z 0.000000 0.000000 1.562880 
# 
# From -- ./inp_files/7252.got.cif
#   From: 2010.05.17/outbox.cif.g08.bks.cpg/sg65_4_cif.got.tgz:7252.got - 2010.06.03 17:01:31.
