data_PCOD9484414
_publ_section_title
;
Structure prediction by ZEFSAII (Michael W. Deem and Ramdas Pophale) SiO2 
 PCOD9484414
Probable space group: C M M M
;
_chemical_formula_sum "Si O2"
_cell_formula_units_Z 82
_cell_length_a 26.246305
_cell_length_b 20.229867
_cell_length_c 7.553564
_cell_angle_alpha 90.000000
_cell_angle_beta 90.000000
_cell_angle_gamma 90.000000
_cell_volume 4010.634747
_symmetry_space_group_name_H-M "C M M M"
_symmetry_group_IT_number 65
_symmetry_cell_setting 'orthorhombic'
loop_
_space_group_symop_operation_xyz
x,y,z
-x,-y,z
x,-y,-z
-x,y,-z
-x,-y,-z
x,y,-z
-x,y,z
x,-y,z
1/2+x,1/2+y,z
1/2-x,1/2-y,z
1/2+x,1/2-y,-z
1/2-x,1/2+y,-z
1/2-x,1/2-y,-z
1/2+x,1/2+y,-z
1/2-x,1/2+y,z
1/2+x,1/2-y,z
loop_
_atom_site_type_symbol
_atom_site_label
_atom_site_fract_x
_atom_site_fract_y
_atom_site_fract_z
Si Si1 0.604317 0.301709 0.215868
Si Si2 0.500000 0.075814 0.216576
Si Si3 0.500000 0.637172 0.802608
Si Si4 0.500000 0.500000 0.000000
Si Si5 0.102042 0.647724 0.213399
Si Si6 0.707189 0.924969 0.707561
Si Si7 0.717199 0.688960 0.204995
O O1 0.553564 0.339489 0.279681
O O2 0.601412 0.224441 0.263149
O O3 0.660619 0.323264 0.279032
O O4 0.604212 0.309314 0.000000
O O5 0.550984 0.112134 0.276081
O O6 0.500000 0.000000 0.271565
O O7 0.500000 0.077175 0.000000
O O8 0.500000 0.670894 0.000000
O O9 0.500000 0.559535 0.848307
O O10 0.152242 0.609081 0.271877
O O11 0.102522 0.646134 0.000000
O O12 0.718919 0.927836 0.500000
O O13 0.748705 0.876278 0.789892
O O14 0.706710 0.000000 0.777710
O O15 0.750000 0.750000 0.284618
O O16 0.708563 0.708506 0.000000
#
# Coordination Sequence:
#
# PCOD9484414 Si02
#       7
#    16   8   8   2  16  16  16
#     4   9  16  29  50  76 105 136 171 221 265 318
#     4   9  17  27  45  78 105 132 173 215 261 322
#     4   8  15  28  45  73 111 144 172 205 268 328
#     4   8  16  28  44  72 120 152 168 204 276 350
#     4  10  18  32  55  78 106 139 179 225 274 315
#     4  11  24  39  52  74 109 148 184 222 272 331
#     4  10  19  35  56  82 108 135 180 230 274 321
#
# _framework density 20.445643
#
# number of rings (size 3 to 8) (size 9 to 14) (size 15 to 20)
#    0.293    2.049    1.951    1.756    0.000    5.073 
#    1.756    0.488    0.000    1.756    0.000    0.683 
#    0.000    1.561    0.000    0.000    0.000    0.000 
#
# Total GULP energy -228388.164336 kJ/mol
# GULP energy per Si atom -5570.443033 kJ/mol
# Density = 2.039911 g / cm^3
# Si number density = 20.445643 Si / 1000 Ang^3
#
#
#
# Elastic Constant Matrix: (Units=GPa)
#
#
# Indices 1 2 3 4 5 6 
#
# 1 222.1900 90.3357 0.6276 0.0000 0.0000 0.0000
# 2 90.3357 138.4250 -4.4112 0.0000 0.0000 0.0000
# 3 0.6276 -4.4112 43.3782 0.0000 0.0000 0.0000
# 4 0.0000 0.0000 0.0000 24.7695 0.0000 0.0000
# 5 0.0000 0.0000 0.0000 0.0000 -92.9523 0.0000
# 6 0.0000 0.0000 0.0000 0.0000 0.0000 7.5469
#
#
#
# Elastic Compliance Matrix: (Units=1/GPa)
#
#
# Indices 1 2 3 4 5 6 
#
# 1 0.006137 -0.004021 -0.000498 0.000000 0.000000 0.000000
# 2 -0.004021 0.009882 0.001063 0.000000 0.000000 0.000000
# 3 -0.000498 0.001063 0.023168 0.000000 0.000000 0.000000
# 4 0.000000 0.000000 0.000000 0.040372 0.000000 0.000000
# 5 0.000000 0.000000 0.000000 0.000000 -0.010758 0.000000
# 6 0.000000 0.000000 0.000000 0.000000 0.000000 0.132505
#
#
# Mechanical properties :
#
#
# Convention : Reuss Voigt Hill
#
# Bulk Modulus (GPa) = 30.98234 64.12193 47.55213
# Shear Modulus (GPa) = 22.83359 9.03557 15.93458
#
# Velocity S-wave (km/s) = 3.34547 2.10450 2.79474
# Velocity P-wave (km/s) = 5.48720 6.11027 5.80710
#
# Compressibility (1/GPa) = 0.03227646
#
# Stress axis : x y z
#
# Youngs Moduli (GPa) = 162.95292 101.19524 43.16234
#
# Poissons Ratio (x) = 0.40687 0.02148
# Poissons Ratio (y) = 0.65518 -0.04588
# Poissons Ratio (z) = 0.08109 -0.10758
#
# Static dielectric constant tensor:
#      x y z
#    x 1.739000 0.000000 0.000000 
#    y 0.000000 1.685510 0.000000 
#    z 0.000000 0.000000 1.778280 
# 
# From -- ./inp_files/13930.got.cif
#   From: 2010.05.17/outbox.cif.g08.bks.cpg/sg65_7_cif.got.tgz:13930.got - 2010.06.03 17:01:31.
