data_PCOD9484743
_publ_section_title
;
Structure prediction by ZEFSAII (Michael W. Deem and Ramdas Pophale) SiO2 
 PCOD9484743
Probable space group: C M M M
;
_chemical_formula_sum "Si O2"
_cell_formula_units_Z 72
_cell_length_a 26.053569
_cell_length_b 8.869176
_cell_length_c 20.217532
_cell_angle_alpha 90.000000
_cell_angle_beta 90.000000
_cell_angle_gamma 90.000000
_cell_volume 4671.739699
_symmetry_space_group_name_H-M "C M M M"
_symmetry_group_IT_number 65
_symmetry_cell_setting 'orthorhombic'
loop_
_space_group_symop_operation_xyz
x,y,z
-x,-y,z
x,-y,-z
-x,y,-z
-x,-y,-z
x,y,-z
-x,y,z
x,-y,z
1/2+x,1/2+y,z
1/2-x,1/2-y,z
1/2+x,1/2-y,-z
1/2-x,1/2+y,-z
1/2-x,1/2-y,-z
1/2+x,1/2+y,-z
1/2-x,1/2+y,z
1/2+x,1/2-y,z
loop_
_atom_site_type_symbol
_atom_site_label
_atom_site_fract_x
_atom_site_fract_y
_atom_site_fract_z
Si Si1 0.899109 0.681115 0.657582
Si Si2 0.805856 0.180362 0.577100
Si Si3 0.000000 0.683304 0.575753
Si Si4 0.939131 0.820646 0.210120
Si Si5 0.437810 0.823257 0.072932
O O1 0.896358 0.500000 0.656570
O O2 0.848903 0.750132 0.624048
O O3 0.948932 0.729765 0.614690
O O4 0.908803 0.738679 0.731629
O O5 0.818231 0.215569 0.500000
O O6 0.750000 0.250000 0.590932
O O7 0.804014 0.000000 0.584070
O O8 0.000000 0.500000 0.574753
O O9 0.000000 0.736061 0.500000
O O10 0.921455 0.768241 0.137354
O O11 0.000000 0.781451 0.216610
O O12 0.934502 0.000000 0.216525
O O13 0.500000 0.814453 0.071739
O O14 0.424740 0.000000 0.080349
O O15 0.419945 0.771689 0.000000
#
# Coordination Sequence:
#
# PCOD9484743 Si02
#       5
#    16  16   8  16  16
#     4  11  20  32  50  70  96 128 162 200 240 287
#     4  10  21  37  55  74  95 121 156 200 248 294
#     4   9  18  30  45  67  92 121 158 195 233 282
#     4  10  19  29  42  63  95 129 161 197 238 285
#     4   8  14  25  41  60  84 118 160 199 233 276
#
# _framework density 15.411818
#
# number of rings (size 3 to 8) (size 9 to 14) (size 15 to 20)
#    0.000    2.333    1.111    3.333    0.000    3.556 
#    0.000    2.222    0.000    2.667    0.000    0.000 
#    0.000    0.889    0.000    3.333    0.000    5.111 
#
# Total GULP energy -200740.400195 kJ/mol
# GULP energy per Si atom -5576.122228 kJ/mol
# Density = 1.537674 g / cm^3
# Si number density = 15.411818 Si / 1000 Ang^3
#
#
#
# Elastic Constant Matrix: (Units=GPa)
#
#
# Indices 1 2 3 4 5 6 
#
# 1 74.9203 39.7737 64.7793 0.0000 0.0000 0.0000
# 2 39.7737 55.5906 55.5720 0.0000 0.0000 0.0000
# 3 64.7793 55.5720 143.9791 0.0000 0.0000 0.0000
# 4 0.0000 0.0000 0.0000 24.5658 0.0000 0.0000
# 5 0.0000 0.0000 0.0000 0.0000 13.9291 0.0000
# 6 0.0000 0.0000 0.0000 0.0000 0.0000 20.0823
#
#
#
# Elastic Compliance Matrix: (Units=1/GPa)
#
#
# Indices 1 2 3 4 5 6 
#
# 1 0.025391 -0.010985 -0.007184 0.000000 0.000000 0.000000
# 2 -0.010985 0.034042 -0.008197 0.000000 0.000000 0.000000
# 3 -0.007184 -0.008197 0.013342 0.000000 0.000000 0.000000
# 4 0.000000 0.000000 0.000000 0.040707 0.000000 0.000000
# 5 0.000000 0.000000 0.000000 0.000000 0.071792 0.000000
# 6 0.000000 0.000000 0.000000 0.000000 0.000000 0.049795
#
#
# Mechanical properties :
#
#
# Convention : Reuss Voigt Hill
#
# Bulk Modulus (GPa) = 49.89325 66.08220 57.98773
# Shear Modulus (GPa) = 16.97899 19.33979 18.15939
#
# Velocity S-wave (km/s) = 3.32277 3.54625 3.43633
# Velocity P-wave (km/s) = 6.86766 7.72907 7.31106
#
# Compressibility (1/GPa) = 0.02004279
#
# Stress axis : x y z
#
# Youngs Moduli (GPa) = 39.38446 29.37510 74.95387
#
# Poissons Ratio (x) = 0.32268 0.53847
# Poissons Ratio (y) = 0.43263 0.61441
# Poissons Ratio (z) = 0.28294 0.24079
#
# Static dielectric constant tensor:
#      x y z
#    x 1.480240 0.000000 0.000000 
#    y 0.000000 1.508890 0.000000 
#    z 0.000000 0.000000 1.523240 
# 
# From -- ./inp_files/49505.got.cif
#   From: 2010.05.17/outbox.cif.g08.bks.cpg/sg65_25_cif.got.tgz:49505.got - 2010.06.03 17:01:31.
