data_PCOD9484845
_publ_section_title
;
Structure prediction by ZEFSAII (Michael W. Deem and Ramdas Pophale) SiO2 
 PCOD9484845
Probable space group: C M M M
;
_chemical_formula_sum "Si O2"
_cell_formula_units_Z 88
_cell_length_a 34.312749
_cell_length_b 15.478911
_cell_length_c 7.321686
_cell_angle_alpha 90.000000
_cell_angle_beta 90.000000
_cell_angle_gamma 90.000000
_cell_volume 3888.723067
_symmetry_space_group_name_H-M "C M M M"
_symmetry_group_IT_number 65
_symmetry_cell_setting 'orthorhombic'
loop_
_space_group_symop_operation_xyz
x,y,z
-x,-y,z
x,-y,-z
-x,y,-z
-x,-y,-z
x,y,-z
-x,y,z
x,-y,z
1/2+x,1/2+y,z
1/2-x,1/2-y,z
1/2+x,1/2-y,-z
1/2-x,1/2+y,-z
1/2-x,1/2-y,-z
1/2+x,1/2+y,-z
1/2-x,1/2+y,z
1/2+x,1/2-y,z
loop_
_atom_site_type_symbol
_atom_site_label
_atom_site_fract_x
_atom_site_fract_y
_atom_site_fract_z
Si Si1 0.156855 0.224655 0.218812
Si Si2 0.000000 0.900647 0.276354
Si Si3 0.429792 0.719644 0.715576
Si Si4 0.224180 0.902221 0.777893
Si Si5 0.953760 0.594189 0.720969
Si Si6 0.685926 0.096126 0.222262
O O1 0.114267 0.189043 0.259880
O O2 0.192554 0.166430 0.286459
O O3 0.160672 0.323192 0.285617
O O4 0.160625 0.227343 0.000000
O O5 0.962104 0.846831 0.215447
O O6 0.000000 0.902371 0.500000
O O7 0.000000 0.000000 0.217102
O O8 0.437411 0.726685 0.500000
O O9 0.434466 0.817472 0.789232
O O10 0.269003 0.886557 0.724910
O O11 0.213916 0.000000 0.723937
O O12 0.224139 0.899780 0.000000
O O13 0.950333 0.592777 0.500000
O O14 0.939288 0.500000 0.786034
O O15 0.000000 0.599616 0.761605
O O16 0.674736 0.000000 0.284098
O O17 0.685034 0.094346 0.000000
#
# Coordination Sequence:
#
# PCOD9484845 Si02
#       6
#    16   8  16  16  16  16
#     4  10  19  29  45  71  98 121 147 188 235 273
#     4   9  18  34  54  70  86 117 161 199 226 262
#     4  10  19  32  49  69  92 119 153 191 229 273
#     4   8  14  26  45  67  90 119 158 196 223 257
#     4   8  13  24  45  68  85 106 143 188 224 257
#     4   8  14  26  45  68  93 123 157 188 219 263
#
# _framework density 22.629536000000002
#
# number of rings (size 3 to 8) (size 9 to 14) (size 15 to 20)
#    0.000    3.182    0.909    2.182    0.000    3.636 
#    0.000    0.455    0.000    2.727    0.000    3.818 
#    0.000    0.000    0.000    0.000    0.000    0.000 
#
# Total GULP energy -245652.976271 kJ/mol
# GULP energy per Si atom -5583.022188 kJ/mol
# Density = 2.257803 g / cm^3
# Si number density = 22.629536 Si / 1000 Ang^3
#
#
#
# Elastic Constant Matrix: (Units=GPa)
#
#
# Indices 1 2 3 4 5 6 
#
# 1 87.2733 60.5271 -4.9499 0.0000 0.0000 0.0000
# 2 60.5271 128.0089 7.8573 0.0000 0.0000 0.0000
# 3 -4.9499 7.8573 89.4760 0.0000 0.0000 0.0000
# 4 0.0000 0.0000 0.0000 -14.1128 0.0000 0.0000
# 5 0.0000 0.0000 0.0000 0.0000 5.2951 0.0000
# 6 0.0000 0.0000 0.0000 0.0000 0.0000 0.7717
#
#
#
# Elastic Compliance Matrix: (Units=1/GPa)
#
#
# Indices 1 2 3 4 5 6 
#
# 1 0.017298 -0.008282 0.001684 0.000000 0.000000 0.000000
# 2 -0.008282 0.011820 -0.001496 0.000000 0.000000 0.000000
# 3 0.001684 -0.001496 0.011401 0.000000 0.000000 0.000000
# 4 0.000000 0.000000 0.000000 -0.070858 0.000000 0.000000
# 5 0.000000 0.000000 0.000000 0.000000 0.188854 0.000000
# 6 0.000000 0.000000 0.000000 0.000000 0.000000 1.295885
#
#
# Mechanical properties :
#
#
# Convention : Reuss Voigt Hill
#
# Bulk Modulus (GPa) = 41.10152 47.95859 44.53006
# Shear Modulus (GPa) = 3.38135 14.47904 8.93020
#
# Velocity S-wave (km/s) = 1.22371 2.53223 1.98867
# Velocity P-wave (km/s) = 4.49431 5.45788 4.99937
#
# Compressibility (1/GPa) = 0.02433000
#
# Stress axis : x y z
#
# Youngs Moduli (GPa) = 57.81020 84.60208 87.71357
#
# Poissons Ratio (x) = 0.70071 -0.14773
# Poissons Ratio (y) = 0.47881 0.13123
# Poissons Ratio (z) = -0.09737 0.12658
#
# Static dielectric constant tensor:
#      x y z
#    x 1.788920 0.000000 0.000000 
#    y 0.000000 1.832820 0.000000 
#    z 0.000000 0.000000 1.890750 
# 
# From -- ./inp_files/32206.got.cif
#   From: 2010.05.17/outbox.cif.g08.bks.cpg/sg65_17_cif.got.tgz:32206.got - 2010.06.03 17:01:31.
