data_PCOD9484448
_publ_section_title
;
Structure prediction by ZEFSAII (Michael W. Deem and Ramdas Pophale) SiO2 
 PCOD9484448
Probable space group: C M M M
;
_chemical_formula_sum "Si O2"
_cell_formula_units_Z 44
_cell_length_a 5.509368
_cell_length_b 24.572073
_cell_length_c 14.133602
_cell_angle_alpha 90.000000
_cell_angle_beta 90.000000
_cell_angle_gamma 90.000000
_cell_volume 1913.358881
_symmetry_space_group_name_H-M "C M M M"
_symmetry_group_IT_number 65
_symmetry_cell_setting 'orthorhombic'
loop_
_space_group_symop_operation_xyz
x,y,z
-x,-y,z
x,-y,-z
-x,y,-z
-x,-y,-z
x,y,-z
-x,y,z
x,-y,z
1/2+x,1/2+y,z
1/2-x,1/2-y,z
1/2+x,1/2-y,-z
1/2-x,1/2+y,-z
1/2-x,1/2-y,-z
1/2+x,1/2+y,-z
1/2-x,1/2+y,z
1/2+x,1/2-y,z
loop_
_atom_site_type_symbol
_atom_site_label
_atom_site_fract_x
_atom_site_fract_y
_atom_site_fract_z
Si Si1 0.000000 0.283667 0.000000
Si Si2 0.000000 0.437477 0.662007
Si Si3 0.000000 0.220002 0.614974
Si Si4 0.500000 0.881786 0.862938
Si Si5 0.000000 0.093427 0.648065
Si Si6 0.000000 0.937449 0.867181
O O1 0.750000 0.250000 0.000000
O O2 0.000000 0.321788 0.093782
O O3 0.753191 0.426540 0.606521
O O4 0.000000 0.500000 0.697918
O O5 0.000000 0.394295 0.749867
O O6 0.250000 0.250000 0.643751
O O7 0.000000 0.158496 0.651816
O O8 0.000000 0.217567 0.500000
O O9 0.750114 0.909254 0.896744
O O10 0.000000 0.067643 0.753032
O O11 0.000000 0.000000 0.893556
#
# Coordination Sequence:
#
# PCOD9484448 Si02
#       6
#     4   8   8   8   8   8
#     4  12  26  44  57  72 107 148 182 222 266 306
#     4  10  19  35  57  83 112 136 167 217 271 318
#     4  10  21  37  54  75 107 145 184 225 263 301
#     4  10  20  37  57  79 104 143 181 209 263 324
#     4  10  18  32  56  81 106 141 177 216 266 316
#     4  10  19  36  58  84 113 135 166 218 272 318
#
# _framework density 22.996209
#
# number of rings (size 3 to 8) (size 9 to 14) (size 15 to 20)
#    0.000    1.818    0.000    7.636    0.000    0.000 
#    0.000   26.818    0.000    6.000    0.000    0.000 
#    0.000    0.000    0.000    0.000    0.000    0.000 
#
# Total GULP energy -122888.839228 kJ/mol
# GULP energy per Si atom -5585.856329 kJ/mol
# Density = 2.294387 g / cm^3
# Si number density = 22.996209 Si / 1000 Ang^3
#
#
#
# Elastic Constant Matrix: (Units=GPa)
#
#
# Indices 1 2 3 4 5 6 
#
# 1 295.9983 96.2842 21.3185 0.0000 0.0000 0.0000
# 2 96.2842 175.5205 20.4614 0.0000 0.0000 0.0000
# 3 21.3185 20.4614 101.4827 0.0000 0.0000 0.0000
# 4 0.0000 0.0000 0.0000-2641.8405 0.0000 0.0000
# 5 0.0000 0.0000 0.0000 0.0000 -21.8268 0.0000
# 6 0.0000 0.0000 0.0000 0.0000 0.0000 58.3614
#
#
#
# Elastic Compliance Matrix: (Units=1/GPa)
#
#
# Indices 1 2 3 4 5 6 
#
# 1 0.004130 -0.002216 -0.000421 0.000000 0.000000 0.000000
# 2 -0.002216 0.007024 -0.000951 0.000000 0.000000 0.000000
# 3 -0.000421 -0.000951 0.010134 0.000000 0.000000 0.000000
# 4 0.000000 0.000000 0.000000 -0.000379 0.000000 0.000000
# 5 0.000000 0.000000 0.000000 0.000000 -0.045815 0.000000
# 6 0.000000 0.000000 0.000000 0.000000 0.000000 0.017135
#
#
# Mechanical properties :
#
#
# Convention : Reuss Voigt Hill
#
# Bulk Modulus (GPa) = 70.85997 94.34773 82.60385
# Shear Modulus (GPa) = 1217.20655 -492.06537 362.57059
#
# Velocity S-wave (km/s) = 23.03164 -14.64381 12.57011
# Velocity P-wave (km/s) = 27.16903 15.64625 15.70591
#
# Compressibility (1/GPa) = 0.01411234
#
# Stress axis : x y z
#
# Youngs Moduli (GPa) = 242.15205 142.36982 98.67837
#
# Poissons Ratio (x) = 0.31554 0.04151
# Poissons Ratio (y) = 0.53669 0.09381
# Poissons Ratio (z) = 0.10186 0.13534
#
# Static dielectric constant tensor:
#      x y z
#    x 1.941590 0.000000 0.000000 
#    y 0.000000 1.802560 0.000000 
#    z 0.000000 0.000000 1.860320 
# 
# From -- ./inp_files/48255.got.cif
#   From: 2010.05.17/outbox.cif.g08.bks.cpg/sg65_25_cif.got.tgz:48255.got - 2010.06.03 17:01:31.
