data_PCOD9484562
_publ_section_title
;
Structure prediction by ZEFSAII (Michael W. Deem and Ramdas Pophale) SiO2 
 PCOD9484562
Probable space group: C M M M
;
_chemical_formula_sum "Si O2"
_cell_formula_units_Z 96
_cell_length_a 25.840314
_cell_length_b 24.511056
_cell_length_c 8.060755
_cell_angle_alpha 90.000000
_cell_angle_beta 90.000000
_cell_angle_gamma 90.000000
_cell_volume 5105.467668
_symmetry_space_group_name_H-M "C M M M"
_symmetry_group_IT_number 65
_symmetry_cell_setting 'orthorhombic'
loop_
_space_group_symop_operation_xyz
x,y,z
-x,-y,z
x,-y,-z
-x,y,-z
-x,-y,-z
x,y,-z
-x,y,z
x,-y,z
1/2+x,1/2+y,z
1/2-x,1/2-y,z
1/2+x,1/2-y,-z
1/2-x,1/2+y,-z
1/2-x,1/2-y,-z
1/2+x,1/2+y,-z
1/2-x,1/2+y,z
1/2+x,1/2-y,z
loop_
_atom_site_type_symbol
_atom_site_label
_atom_site_fract_x
_atom_site_fract_y
_atom_site_fract_z
Si Si1 0.440807 0.316632 0.801596
Si Si2 0.317209 0.000000 0.695669
Si Si3 0.153930 0.112631 0.697455
Si Si4 0.558940 0.194706 0.299949
Si Si5 0.200395 0.000000 0.808995
Si Si6 0.848815 0.381718 0.703448
Si Si7 0.251510 0.687717 0.297389
O O1 0.500000 0.324171 0.741519
O O2 0.401599 0.362214 0.738529
O O3 0.423884 0.255934 0.746483
O O4 0.441164 0.317994 0.000000
O O5 0.254922 0.000000 0.712240
O O6 0.340346 0.943497 0.763337
O O7 0.328936 0.000000 0.500000
O O8 0.159041 0.107878 0.500000
O O9 0.197504 0.155453 0.757330
O O10 0.167461 0.053859 0.770471
O O11 0.557790 0.192151 0.500000
O O12 0.500000 0.187276 0.238499
O O13 0.599317 0.149186 0.241664
O O14 0.215382 0.000000 0.000000
O O15 0.849189 0.382658 0.500000
O O16 0.799223 0.345784 0.752633
O O17 0.252153 0.688741 0.500000
O O18 0.250000 0.750000 0.240014
#
# Coordination Sequence:
#
# PCOD9484562 Si02
#       7
#    16   8  16  16   8  16  16
#     4  10  21  37  56  80 112 146 176 215 272 326
#     4  10  18  34  55  73  99 146 194 225 268 328
#     4  11  21  36  59  82 106 140 185 225 263 321
#     4   9  17  31  53  80 108 142 184 226 269 321
#     4  12  24  38  55  78 113 147 178 222 274 321
#     4   9  16  28  49  76 105 138 182 230 272 316
#     4   9  16  26  47  78 105 131 168 217 270 318
#
# _framework density 18.803370000000001
#
# number of rings (size 3 to 8) (size 9 to 14) (size 15 to 20)
#    0.000    2.167    1.667    2.750    0.000    3.667 
#    0.000    1.667    0.000    7.000    0.000    0.000 
#    0.000    3.333    0.000    0.000    0.000    0.000 
#
# Total GULP energy -267941.705214 kJ/mol
# GULP energy per Si atom -5582.118859 kJ/mol
# Density = 1.876057 g / cm^3
# Si number density = 18.803370 Si / 1000 Ang^3
#
#
#
# Elastic Constant Matrix: (Units=GPa)
#
#
# Indices 1 2 3 4 5 6 
#
# 1 81.8064 64.8701 -5.6603 0.0000 0.0000 0.0000
# 2 64.8701 167.8590 1.0717 0.0000 0.0000 0.0000
# 3 -5.6603 1.0717 12.7407 0.0000 0.0000 0.0000
# 4 0.0000 0.0000 0.0000 57.2904 0.0000 0.0000
# 5 0.0000 0.0000 0.0000 0.0000 6.9086 0.0000
# 6 0.0000 0.0000 0.0000 0.0000 0.0000 22.5748
#
#
#
# Elastic Compliance Matrix: (Units=1/GPa)
#
#
# Indices 1 2 3 4 5 6 
#
# 1 0.018574 -0.007235 0.008860 0.000000 0.000000 0.000000
# 2 -0.007235 0.008778 -0.003952 0.000000 0.000000 0.000000
# 3 0.008860 -0.003952 0.082757 0.000000 0.000000 0.000000
# 4 0.000000 0.000000 0.000000 0.017455 0.000000 0.000000
# 5 0.000000 0.000000 0.000000 0.000000 0.144748 0.000000
# 6 0.000000 0.000000 0.000000 0.000000 0.000000 0.044297
#
#
# Mechanical properties :
#
#
# Convention : Reuss Voigt Hill
#
# Bulk Modulus (GPa) = 9.48260 42.55210 26.01735
# Shear Modulus (GPa) = 14.02859 30.82974 22.42916
#
# Velocity S-wave (km/s) = 2.73439 4.05357 3.45748
# Velocity P-wave (km/s) = 3.87597 6.67741 5.45944
#
# Compressibility (1/GPa) = 0.10545631
#
# Stress axis : x y z
#
# Youngs Moduli (GPa) = 53.83928 113.91553 12.08351
#
# Poissons Ratio (x) = 0.82412 -0.10706
# Poissons Ratio (y) = 0.38950 0.04776
# Poissons Ratio (z) = -0.47703 0.45025
#
# Static dielectric constant tensor:
#      x y z
#    x 1.651870 0.000000 0.000000 
#    y 0.000000 1.631670 0.000000 
#    z 0.000000 0.000000 1.675130 
# 
# From -- ./inp_files/16680.got.cif
#   From: 2010.05.17/outbox.cif.g08.bks.cpg/sg65_9_cif.got.tgz:16680.got - 2010.06.03 17:01:31.
