data_PCOD9484362
_publ_section_title
;
Structure prediction by ZEFSAII (Michael W. Deem and Ramdas Pophale) SiO2 
 PCOD9484362
Probable space group: C M M M
;
_chemical_formula_sum "Si O2"
_cell_formula_units_Z 104
_cell_length_a 8.719037
_cell_length_b 18.900511
_cell_length_c 34.182637
_cell_angle_alpha 90.000000
_cell_angle_beta 90.000000
_cell_angle_gamma 90.000000
_cell_volume 5633.102189
_symmetry_space_group_name_H-M "C M M M"
_symmetry_group_IT_number 65
_symmetry_cell_setting 'orthorhombic'
loop_
_space_group_symop_operation_xyz
x,y,z
-x,-y,z
x,-y,-z
-x,y,-z
-x,-y,-z
x,y,-z
-x,y,z
x,-y,z
1/2+x,1/2+y,z
1/2-x,1/2-y,z
1/2+x,1/2-y,-z
1/2-x,1/2+y,-z
1/2-x,1/2-y,-z
1/2+x,1/2+y,-z
1/2-x,1/2+y,z
1/2+x,1/2-y,z
loop_
_atom_site_type_symbol
_atom_site_label
_atom_site_fract_x
_atom_site_fract_y
_atom_site_fract_z
Si Si1 0.314984 0.581518 0.114478
Si Si2 0.317228 0.829250 0.419306
Si Si3 0.315602 0.671139 0.190865
Si Si4 0.816471 0.169925 0.500000
Si Si5 0.681261 0.415579 0.652199
Si Si6 0.816377 0.416845 0.262984
Si Si7 0.316444 0.172480 0.954921
O O1 0.500000 0.583465 0.112185
O O2 0.267295 0.500000 0.118953
O O3 0.268822 0.627537 0.152147
O O4 0.247515 0.616203 0.075547
O O5 0.500000 0.825172 0.423005
O O6 0.250000 0.750000 0.414799
O O7 0.246380 0.861004 0.459396
O O8 0.267372 0.874509 0.382045
O O9 0.500000 0.673499 0.192318
O O10 0.250000 0.750000 0.189186
O O11 0.253222 0.630360 0.228742
O O12 0.750000 0.250000 0.500000
O O13 0.000000 0.171310 0.500000
O O14 0.500000 0.399992 0.650573
O O15 0.701983 0.500000 0.647340
O O16 0.747163 0.396912 0.694867
O O17 0.779527 0.500000 0.256118
O O18 0.000000 0.409616 0.263989
O O19 0.500000 0.175183 0.952540
O O20 0.250000 0.250000 0.945359
O O21 0.273226 0.156419 0.000000
#
# Coordination Sequence:
#
# PCOD9484362 Si02
#       7
#    16  16  16   8  16  16  16
#     4  10  22  39  59  84 114 149 188 230 278 333
#     4  11  21  35  56  82 112 145 186 232 278 329
#     4  11  23  39  59  84 114 146 184 229 277 328
#     4  10  18  32  53  78 109 144 185 229 279 333
#     4  10  21  38  59  83 113 148 184 225 277 333
#     4  10  21  38  60  85 112 144 183 225 272 328
#     4  10  21  37  58  84 114 149 189 233 281 332
#
# _framework density 18.462295000000001
#
# number of rings (size 3 to 8) (size 9 to 14) (size 15 to 20)
#    0.000    1.692    0.000    5.769    0.000    7.077 
#    0.000    5.000    0.000    2.308    0.000    0.000 
#    0.000    0.000    0.000    0.000    0.000    0.000 
#
# Total GULP energy -290587.497812 kJ/mol
# GULP energy per Si atom -5588.221112 kJ/mol
# Density = 1.842027 g / cm^3
# Si number density = 18.462295 Si / 1000 Ang^3
#
#
#
# Elastic Constant Matrix: (Units=GPa)
#
#
# Indices 1 2 3 4 5 6 
#
# 1 100.2014 55.5543 64.9736 0.0000 0.0000 0.0000
# 2 55.5543 102.5159 95.7922 0.0000 0.0000 0.0000
# 3 64.9736 95.7922 158.1597 0.0000 0.0000 0.0000
# 4 0.0000 0.0000 0.0000 39.2798 0.0000 0.0000
# 5 0.0000 0.0000 0.0000 0.0000 36.3515 0.0000
# 6 0.0000 0.0000 0.0000 0.0000 0.0000 27.7821
#
#
#
# Elastic Compliance Matrix: (Units=1/GPa)
#
#
# Indices 1 2 3 4 5 6 
#
# 1 0.014791 -0.005385 -0.002814 0.000000 0.000000 0.000000
# 2 -0.005385 0.024434 -0.012586 0.000000 0.000000 0.000000
# 3 -0.002814 -0.012586 0.015102 0.000000 0.000000 0.000000
# 4 0.000000 0.000000 0.000000 0.025458 0.000000 0.000000
# 5 0.000000 0.000000 0.000000 0.000000 0.027509 0.000000
# 6 0.000000 0.000000 0.000000 0.000000 0.000000 0.035994
#
#
# Mechanical properties :
#
#
# Convention : Reuss Voigt Hill
#
# Bulk Modulus (GPa) = 78.40552 88.16860 83.28706
# Shear Modulus (GPa) = 26.43929 30.31980 28.37954
#
# Velocity S-wave (km/s) = 3.78837 4.05687 3.92492
# Velocity P-wave (km/s) = 7.85467 8.35488 8.10863
#
# Compressibility (1/GPa) = 0.01275420
#
# Stress axis : x y z
#
# Youngs Moduli (GPa) = 67.61033 40.92672 66.21583
#
# Poissons Ratio (x) = 0.22041 0.18636
# Poissons Ratio (y) = 0.36411 0.83342
# Poissons Ratio (z) = 0.19028 0.51512
#
# Static dielectric constant tensor:
#      x y z
#    x 1.619610 0.000000 0.000000 
#    y 0.000000 1.612170 0.000000 
#    z 0.000000 0.000000 1.626240 
# 
# From -- ./inp_files/73370.got.cif
#   From: 2010.05.17/outbox.cif.g08.bks.cpg/sg65_37_cif.got.tgz:73370.got - 2010.06.03 17:01:31.
