data_PCOD9484338
_publ_section_title
;
Structure prediction by ZEFSAII (Michael W. Deem and Ramdas Pophale) SiO2 
 PCOD9484338
Probable space group: C M M M
;
_chemical_formula_sum "Si O2"
_cell_formula_units_Z 104
_cell_length_a 8.980772
_cell_length_b 15.175619
_cell_length_c 35.086724
_cell_angle_alpha 90.000000
_cell_angle_beta 90.000000
_cell_angle_gamma 90.000000
_cell_volume 4781.926605
_symmetry_space_group_name_H-M "C M M M"
_symmetry_group_IT_number 65
_symmetry_cell_setting 'orthorhombic'
loop_
_space_group_symop_operation_xyz
x,y,z
-x,-y,z
x,-y,-z
-x,y,-z
-x,-y,-z
x,y,-z
-x,y,z
x,-y,z
1/2+x,1/2+y,z
1/2-x,1/2-y,z
1/2+x,1/2-y,-z
1/2-x,1/2+y,-z
1/2-x,1/2-y,-z
1/2+x,1/2+y,-z
1/2-x,1/2+y,z
1/2+x,1/2-y,z
loop_
_atom_site_type_symbol
_atom_site_label
_atom_site_fract_x
_atom_site_fract_y
_atom_site_fract_z
Si Si1 0.334161 0.104146 0.152442
Si Si2 0.179900 0.349497 0.000000
Si Si3 0.822033 0.153057 0.076102
Si Si4 0.678132 0.153355 0.541574
Si Si5 0.165716 0.896210 0.618579
Si Si6 0.170621 0.108053 0.227904
Si Si7 0.329578 0.108072 0.694163
O O1 0.500000 0.141137 0.144550
O O2 0.226677 0.113639 0.116352
O O3 0.263643 0.139585 0.191386
O O4 0.350117 0.000000 0.158517
O O5 0.250000 0.250000 0.000000
O O6 0.244258 0.390116 0.961003
O O7 0.000000 0.346701 0.000000
O O8 0.750000 0.250000 0.077813
O O9 0.000000 0.155191 0.071372
O O10 0.713079 0.111870 0.500000
O O11 0.500000 0.157849 0.544681
O O12 0.750000 0.250000 0.540773
O O13 0.745774 0.111252 0.579233
O O14 0.252286 0.860600 0.655276
O O15 0.000000 0.857213 0.614725
O O16 0.150141 0.000000 0.626004
O O17 0.242140 0.134996 0.267944
O O18 0.000000 0.136419 0.225013
O O19 0.171183 0.000000 0.227500
O O20 0.500000 0.137136 0.695778
O O21 0.330604 0.000000 0.693871
#
# Coordination Sequence:
#
# PCOD9484338 Si02
#       7
#    16   8  16  16  16  16  16
#     4  10  20  34  52  76 106 138 173 213 257 303
#     4  10  18  32  53  76 101 130 169 211 253 303
#     4  11  21  35  55  78 104 134 171 212 256 305
#     4  10  21  37  56  76 100 133 172 211 252 303
#     4  10  20  33  51  77 107 136 168 210 257 301
#     4   9  16  27  45  70 100 134 171 209 250 298
#     4   9  16  27  45  70 100 133 169 209 252 297
#
# _framework density 21.748556000000001
#
# number of rings (size 3 to 8) (size 9 to 14) (size 15 to 20)
#    0.000    2.154    0.000    5.308    0.000    6.769 
#    0.000    1.923    0.000    3.231    0.000    6.462 
#    0.000    0.000    0.000    0.000    0.000    0.000 
#
# Total GULP energy -290344.234840 kJ/mol
# GULP energy per Si atom -5583.542978 kJ/mol
# Density = 2.169906 g / cm^3
# Si number density = 21.748556 Si / 1000 Ang^3
#
#
#
# Elastic Constant Matrix: (Units=GPa)
#
#
# Indices 1 2 3 4 5 6 
#
# 1 199.9685 7.0840 98.0515 0.0000 0.0000 0.0000
# 2 7.0840 27.3517 5.6092 0.0000 0.0000 0.0000
# 3 98.0515 5.6092 198.7917 0.0000 0.0000 0.0000
# 4 0.0000 0.0000 0.0000 15.4729 0.0000 0.0000
# 5 0.0000 0.0000 0.0000 0.0000 44.1776 0.0000
# 6 0.0000 0.0000 0.0000 0.0000 0.0000 15.3466
#
#
#
# Elastic Compliance Matrix: (Units=1/GPa)
#
#
# Indices 1 2 3 4 5 6 
#
# 1 0.006626 -0.001052 -0.003239 0.000000 0.000000 0.000000
# 2 -0.001052 0.036941 -0.000523 0.000000 0.000000 0.000000
# 3 -0.003239 -0.000523 0.006643 0.000000 0.000000 0.000000
# 4 0.000000 0.000000 0.000000 0.064629 0.000000 0.000000
# 5 0.000000 0.000000 0.000000 0.000000 0.022636 0.000000
# 6 0.000000 0.000000 0.000000 0.000000 0.000000 0.065161
#
#
# Mechanical properties :
#
#
# Convention : Reuss Voigt Hill
#
# Bulk Modulus (GPa) = 24.64191 71.95569 48.29880
# Shear Modulus (GPa) = 22.14444 36.02389 29.08417
#
# Velocity S-wave (km/s) = 3.19439 4.07428 3.66087
# Velocity P-wave (km/s) = 4.99605 7.43573 6.33445
#
# Compressibility (1/GPa) = 0.04058126
#
# Stress axis : x y z
#
# Youngs Moduli (GPa) = 150.92034 27.07047 150.54531
#
# Poissons Ratio (x) = 0.02848 0.48754
# Poissons Ratio (y) = 0.15877 0.07880
# Poissons Ratio (z) = 0.48876 0.01417
#
# Static dielectric constant tensor:
#      x y z
#    x 1.762000 0.000000 0.000000 
#    y 0.000000 1.868450 0.000000 
#    z 0.000000 0.000000 1.807580 
# 
# From -- ./inp_files/76924.got.cif
#   From: 2010.05.17/outbox.cif.g08.bks.cpg/sg65_39_cif.got.tgz:76924.got - 2010.06.03 17:01:31.
