data_PCOD9484000
_publ_section_title
;
Structure prediction by ZEFSAII (Michael W. Deem and Ramdas Pophale) SiO2 
 PCOD9484000
Probable space group: C M M M
;
_chemical_formula_sum "Si O2"
_cell_formula_units_Z 80
_cell_length_a 17.234843
_cell_length_b 28.669841
_cell_length_c 8.242472
_cell_angle_alpha 90.000000
_cell_angle_beta 90.000000
_cell_angle_gamma 90.000000
_cell_volume 4072.771983
_symmetry_space_group_name_H-M "C M M M"
_symmetry_group_IT_number 65
_symmetry_cell_setting 'orthorhombic'
loop_
_space_group_symop_operation_xyz
x,y,z
-x,-y,z
x,-y,-z
-x,y,-z
-x,-y,-z
x,y,-z
-x,y,z
x,-y,z
1/2+x,1/2+y,z
1/2-x,1/2-y,z
1/2+x,1/2-y,-z
1/2-x,1/2+y,-z
1/2-x,1/2-y,-z
1/2+x,1/2+y,-z
1/2-x,1/2+y,z
1/2+x,1/2-y,z
loop_
_atom_site_type_symbol
_atom_site_label
_atom_site_fract_x
_atom_site_fract_y
_atom_site_fract_z
Si Si1 0.500000 0.551628 0.738165
Si Si2 0.366834 0.287230 0.308229
Si Si3 0.743391 0.145452 0.806989
Si Si4 0.179706 0.050388 0.813235
Si Si5 0.000000 0.147549 0.186408
Si Si6 0.410536 0.182154 0.696066
O O1 0.500000 0.500000 0.660217
O O2 0.585895 0.551971 0.816857
O O3 0.500000 0.605440 0.684026
O O4 0.383626 0.289414 0.500000
O O5 0.283075 0.309505 0.275584
O O6 0.425472 0.320880 0.214423
O O7 0.383351 0.234404 0.256085
O O8 0.784470 0.097933 0.743790
O O9 0.652358 0.147095 0.769165
O O10 0.756645 0.148899 0.000000
O O11 0.200519 0.000000 0.737036
O O12 0.206095 0.049381 0.000000
O O13 0.000000 0.129824 0.000000
O O14 0.407060 0.179499 0.500000
O O15 0.500000 0.175163 0.745003
#
# Coordination Sequence:
#
# PCOD9484000 Si02
#       6
#     8  16  16  16   8  16
#     4  10  18  30  52  80 112 150 186 219 264 320
#     4  11  22  38  56  77 110 153 187 214 266 334
#     4  11  22  35  56  87 112 137 180 232 275 311
#     4   9  17  30  50  78 112 146 178 216 267 325
#     4  12  21  32  54  84 114 144 185 235 273 302
#     4  10  22  41  59  76 104 147 188 218 266 337
#
# _framework density 19.642641000000001
#
# number of rings (size 3 to 8) (size 9 to 14) (size 15 to 20)
#    0.000    1.600    3.000    3.000    0.000    6.600 
#    0.000    0.000    0.000    5.400    0.000    4.200 
#    0.000    0.000    0.000    0.000    0.000    0.000 
#
# Total GULP energy -222849.187174 kJ/mol
# GULP energy per Si atom -5571.229679 kJ/mol
# Density = 1.959793 g / cm^3
# Si number density = 19.642641 Si / 1000 Ang^3
#
#
#
# Elastic Constant Matrix: (Units=GPa)
#
#
# Indices 1 2 3 4 5 6 
#
# 1 121.8144 52.3661 8.0829 0.0000 0.0000 0.0000
# 2 52.3661 104.8846 16.9207 0.0000 0.0000 0.0000
# 3 8.0829 16.9207 36.5582 0.0000 0.0000 0.0000
# 4 0.0000 0.0000 0.0000 16.7193 0.0000 0.0000
# 5 0.0000 0.0000 0.0000 0.0000 193.3624 0.0000
# 6 0.0000 0.0000 0.0000 0.0000 0.0000 15.6078
#
#
#
# Elastic Compliance Matrix: (Units=1/GPa)
#
#
# Indices 1 2 3 4 5 6 
#
# 1 0.010453 -0.005237 0.000113 0.000000 0.000000 0.000000
# 2 -0.005237 0.012928 -0.004826 0.000000 0.000000 0.000000
# 3 0.000113 -0.004826 0.029562 0.000000 0.000000 0.000000
# 4 0.000000 0.000000 0.000000 0.059811 0.000000 0.000000
# 5 0.000000 0.000000 0.000000 0.000000 0.005172 0.000000
# 6 0.000000 0.000000 0.000000 0.000000 0.000000 0.064071
#
#
# Mechanical properties :
#
#
# Convention : Reuss Voigt Hill
#
# Bulk Modulus (GPa) = 30.26347 46.44408 38.35377
# Shear Modulus (GPa) = 23.48409 57.53040 40.50724
#
# Velocity S-wave (km/s) = 3.46145 5.41776 4.54608
# Velocity P-wave (km/s) = 5.60500 7.92666 6.86469
#
# Compressibility (1/GPa) = 0.03304314
#
# Stress axis : x y z
#
# Youngs Moduli (GPa) = 95.66543 77.35417 33.82703
#
# Poissons Ratio (x) = 0.40512 -0.00382
# Poissons Ratio (y) = 0.50102 0.16323
# Poissons Ratio (z) = -0.01080 0.37327
#
# Static dielectric constant tensor:
#      x y z
#    x 1.698470 0.000000 0.000000 
#    y 0.000000 1.726710 0.000000 
#    z 0.000000 0.000000 1.722370 
# 
# From -- ./inp_files/9746.got.cif
#   From: 2010.05.17/outbox.cif.g08.bks.cpg/sg65_5_cif.got.tgz:9746.got - 2010.06.03 17:01:31.
