data_PCOD9484993
_publ_section_title
;
Structure prediction by ZEFSAII (Michael W. Deem and Ramdas Pophale) SiO2 
 PCOD9484993
Probable space group: C M M M
;
_chemical_formula_sum "Si O2"
_cell_formula_units_Z 88
_cell_length_a 33.364132
_cell_length_b 9.907469
_cell_length_c 19.417089
_cell_angle_alpha 90.000000
_cell_angle_beta 90.000000
_cell_angle_gamma 90.000000
_cell_volume 6418.398447
_symmetry_space_group_name_H-M "C M M M"
_symmetry_group_IT_number 65
_symmetry_cell_setting 'orthorhombic'
loop_
_space_group_symop_operation_xyz
x,y,z
-x,-y,z
x,-y,-z
-x,y,-z
-x,-y,-z
x,y,-z
-x,y,z
x,-y,z
1/2+x,1/2+y,z
1/2-x,1/2-y,z
1/2+x,1/2-y,-z
1/2-x,1/2+y,-z
1/2-x,1/2-y,-z
1/2+x,1/2+y,-z
1/2-x,1/2+y,z
1/2+x,1/2-y,z
loop_
_atom_site_type_symbol
_atom_site_label
_atom_site_fract_x
_atom_site_fract_y
_atom_site_fract_z
Si Si1 0.846251 0.713101 0.583042
Si Si2 0.451427 0.153561 0.921486
Si Si3 0.221151 0.500000 0.417117
Si Si4 0.048499 0.839602 0.205711
Si Si5 0.687999 0.500000 0.416811
Si Si6 0.075197 0.657092 0.329572
Si Si7 0.000000 0.663069 0.422941
O O1 0.853698 0.698515 0.500000
O O2 0.806333 0.628084 0.599878
O O3 0.883794 0.665223 0.627471
O O4 0.836177 0.866548 0.600756
O O5 0.500000 0.152244 0.922678
O O6 0.440263 0.266267 0.866012
O O7 0.438955 0.000000 0.902447
O O8 0.438117 0.180732 0.000000
O O9 0.224667 0.500000 0.500000
O O10 0.266319 0.500000 0.389626
O O11 0.071238 0.757534 0.265414
O O12 0.000000 0.822499 0.215397
O O13 0.056535 0.000000 0.205783
O O14 0.691148 0.500000 0.500000
O O15 0.068603 0.500000 0.308538
O O16 0.039559 0.699167 0.381183
O O17 0.000000 0.500000 0.427364
O O18 0.000000 0.718402 0.500000
#
# Coordination Sequence:
#
# PCOD9484993 Si02
#       7
#    16  16   8  16   8  16   8
#     4  10  19  30  45  65  85 107 140 184 225 269
#     4   8  14  26  45  66  85 106 138 178 214 253
#     4   9  16  30  48  65  83 103 134 174 219 275
#     4  10  20  31  43  60  85 115 147 182 220 260
#     4   9  18  30  46  65  85 107 128 166 229 285
#     4  11  20  31  45  60  81 112 150 188 223 257
#     4   9  18  30  45  59  72 101 148 197 231 254
#
# _framework density 13.710585999999999
#
# number of rings (size 3 to 8) (size 9 to 14) (size 15 to 20)
#    0.000    2.455    1.818    2.182    1.273    4.000 
#    0.000    1.818    0.000    0.545    0.000    0.000 
#    0.000    0.000    0.000    0.000    0.000    5.455 
#
# Total GULP energy -244997.027769 kJ/mol
# GULP energy per Si atom -5568.114267 kJ/mol
# Density = 1.367938 g / cm^3
# Si number density = 13.710586 Si / 1000 Ang^3
#
#
#
# Elastic Constant Matrix: (Units=GPa)
#
#
# Indices 1 2 3 4 5 6 
#
# 1 42.8306 14.0009 18.8241 0.0000 0.0000 0.0000
# 2 14.0009 96.5657 45.2151 0.0000 0.0000 0.0000
# 3 18.8241 45.2151 76.5014 0.0000 0.0000 0.0000
# 4 0.0000 0.0000 0.0000 17.2966 0.0000 0.0000
# 5 0.0000 0.0000 0.0000 0.0000 0.8135 0.0000
# 6 0.0000 0.0000 0.0000 0.0000 0.0000-1175.7712
#
#
#
# Elastic Compliance Matrix: (Units=1/GPa)
#
#
# Indices 1 2 3 4 5 6 
#
# 1 0.026260 -0.001081 -0.005823 0.000000 0.000000 0.000000
# 2 -0.001081 0.014363 -0.008223 0.000000 0.000000 0.000000
# 3 -0.005823 -0.008223 0.019364 0.000000 0.000000 0.000000
# 4 0.000000 0.000000 0.000000 0.057815 0.000000 0.000000
# 5 0.000000 0.000000 0.000000 0.000000 1.229222 0.000000
# 6 0.000000 0.000000 0.000000 0.000000 0.000000 -0.000851
#
#
# Mechanical properties :
#
#
# Convention : Reuss Voigt Hill
#
# Bulk Modulus (GPa) = 33.63144 41.33087 37.48116
# Shear Modulus (GPa) = 3.60662 -222.34169 -109.36753
#
# Velocity S-wave (km/s) = 1.62365 -12.74833 -8.94102
# Velocity P-wave (km/s) = 5.30074 13.65586 8.89901
#
# Compressibility (1/GPa) = 0.02973408
#
# Stress axis : x y z
#
# Youngs Moduli (GPa) = 38.08038 69.62556 51.64127
#
# Poissons Ratio (x) = 0.07527 0.30069
# Poissons Ratio (y) = 0.04117 0.42463
# Poissons Ratio (z) = 0.22173 0.57252
#
# Static dielectric constant tensor:
#      x y z
#    x 1.434640 0.000000 0.000000 
#    y 0.000000 1.475690 0.000000 
#    z 0.000000 0.000000 1.444870 
# 
# From -- ./inp_files/66287.got.cif
#   From: 2010.05.17/outbox.cif.g08.bks.cpg/sg65_34_cif.got.tgz:66287.got - 2010.06.03 17:01:31.
