data_PCOD9484169
_publ_section_title
;
Structure prediction by ZEFSAII (Michael W. Deem and Ramdas Pophale) SiO2 
 PCOD9484169
Probable space group: C M M M
;
_chemical_formula_sum "Si O2"
_cell_formula_units_Z 64
_cell_length_a 30.145824
_cell_length_b 8.556890
_cell_length_c 12.813382
_cell_angle_alpha 90.000000
_cell_angle_beta 90.000000
_cell_angle_gamma 90.000000
_cell_volume 3305.269546
_symmetry_space_group_name_H-M "C M M M"
_symmetry_group_IT_number 65
_symmetry_cell_setting 'orthorhombic'
loop_
_space_group_symop_operation_xyz
x,y,z
-x,-y,z
x,-y,-z
-x,y,-z
-x,-y,-z
x,y,-z
-x,y,z
x,-y,z
1/2+x,1/2+y,z
1/2-x,1/2-y,z
1/2+x,1/2-y,-z
1/2-x,1/2+y,-z
1/2-x,1/2-y,-z
1/2+x,1/2+y,-z
1/2-x,1/2+y,z
1/2+x,1/2-y,z
loop_
_atom_site_type_symbol
_atom_site_label
_atom_site_fract_x
_atom_site_fract_y
_atom_site_fract_z
Si Si1 0.054043 0.821453 0.500000
Si Si2 0.449134 0.811720 0.722134
Si Si3 0.625862 0.190767 0.119198
Si Si4 0.799980 0.687434 0.281671
Si Si5 0.300661 0.686244 0.500000
O O1 0.067145 0.740844 0.608031
O O2 0.000000 0.818291 0.500000
O O3 0.069201 0.000000 0.500000
O O4 0.500000 0.757552 0.736389
O O5 0.416757 0.757840 0.813928
O O6 0.449507 0.000000 0.722968
O O7 0.669210 0.235482 0.185302
O O8 0.625066 0.000000 0.117039
O O9 0.625977 0.245410 0.000000
O O10 0.798620 0.500000 0.287901
O O11 0.750000 0.750000 0.269735
O O12 0.819476 0.750861 0.391127
O O13 0.300391 0.500000 0.500000
O O14 0.250000 0.750000 0.500000
#
# Coordination Sequence:
#
# PCOD9484169 Si02
#       5
#     8  16  16  16   8
#     4   9  17  30  49  74 105 136 164 198 246 302
#     4   9  17  31  53  78 102 129 164 206 248 293
#     4   9  19  34  51  74 102 132 168 208 249 293
#     4  10  19  33  53  75 102 133 165 203 248 297
#     4  10  18  31  52  77 104 129 161 204 250 302
#
# _framework density 19.363019000000001
#
# number of rings (size 3 to 8) (size 9 to 14) (size 15 to 20)
#    0.000    2.625    0.000    3.750    0.000    3.500 
#    0.000   10.000    0.000    6.000    0.000    3.500 
#    0.000    0.000    0.000    0.000    0.000    0.000 
#
# Total GULP energy -178540.853369 kJ/mol
# GULP energy per Si atom -5579.401668 kJ/mol
# Density = 1.931895 g / cm^3
# Si number density = 19.363019 Si / 1000 Ang^3
#
#
#
# Elastic Constant Matrix: (Units=GPa)
#
#
# Indices 1 2 3 4 5 6 
#
# 1 107.0164 22.0342 93.6457 0.0000 0.0000 0.0000
# 2 22.0342 44.5590 32.9275 0.0000 0.0000 0.0000
# 3 93.6457 32.9275 228.9193 0.0000 0.0000 0.0000
# 4 0.0000 0.0000 0.0000 10.7684 0.0000 0.0000
# 5 0.0000 0.0000 0.0000 0.0000 34.3279 0.0000
# 6 0.0000 0.0000 0.0000 0.0000 0.0000 11.5552
#
#
#
# Elastic Compliance Matrix: (Units=1/GPa)
#
#
# Indices 1 2 3 4 5 6 
#
# 1 0.014955 -0.003216 -0.005655 0.000000 0.000000 0.000000
# 2 -0.003216 0.025803 -0.002396 0.000000 0.000000 0.000000
# 3 -0.005655 -0.002396 0.007026 0.000000 0.000000 0.000000
# 4 0.000000 0.000000 0.000000 0.092864 0.000000 0.000000
# 5 0.000000 0.000000 0.000000 0.000000 0.029131 0.000000
# 6 0.000000 0.000000 0.000000 0.000000 0.000000 0.086541
#
#
# Mechanical properties :
#
#
# Convention : Reuss Voigt Hill
#
# Bulk Modulus (GPa) = 39.60390 75.30107 57.45249
# Shear Modulus (GPa) = 17.40510 26.78944 22.09727
#
# Velocity S-wave (km/s) = 3.00139 3.72363 3.38184
# Velocity P-wave (km/s) = 5.70166 7.58029 6.70707
#
# Compressibility (1/GPa) = 0.02525004
#
# Stress axis : x y z
#
# Youngs Moduli (GPa) = 66.86616 38.75523 142.32076
#
# Poissons Ratio (x) = 0.12465 0.80486
# Poissons Ratio (y) = 0.21506 0.34097
# Poissons Ratio (z) = 0.37814 0.09285
#
# Static dielectric constant tensor:
#      x y z
#    x 1.675360 0.000000 0.000000 
#    y 0.000000 1.675070 0.000000 
#    z 0.000000 0.000000 1.669350 
# 
# From -- ./inp_files/33270.got.cif
#   From: 2010.05.17/outbox.cif.g08.bks.cpg/sg65_17_cif.got.tgz:33270.got - 2010.06.03 17:01:31.
