data_PCOD9484533
_publ_section_title
;
Structure prediction by ZEFSAII (Michael W. Deem and Ramdas Pophale) SiO2 
 PCOD9484533
Probable space group: C M M M
;
_chemical_formula_sum "Si O2"
_cell_formula_units_Z 80
_cell_length_a 18.405718
_cell_length_b 7.618134
_cell_length_c 29.761832
_cell_angle_alpha 90.000000
_cell_angle_beta 90.000000
_cell_angle_gamma 90.000000
_cell_volume 4173.121526
_symmetry_space_group_name_H-M "C M M M"
_symmetry_group_IT_number 65
_symmetry_cell_setting 'orthorhombic'
loop_
_space_group_symop_operation_xyz
x,y,z
-x,-y,z
x,-y,-z
-x,y,-z
-x,-y,-z
x,y,-z
-x,y,z
x,-y,z
1/2+x,1/2+y,z
1/2-x,1/2-y,z
1/2+x,1/2-y,-z
1/2-x,1/2+y,-z
1/2-x,1/2-y,-z
1/2+x,1/2+y,-z
1/2-x,1/2+y,z
1/2+x,1/2-y,z
loop_
_atom_site_type_symbol
_atom_site_label
_atom_site_fract_x
_atom_site_fract_y
_atom_site_fract_z
Si Si1 0.165235 0.709974 0.708134
Si Si2 0.835075 0.801520 0.392901
Si Si3 0.914073 0.000000 0.946429
Si Si4 0.664477 0.209181 0.888567
Si Si5 0.416993 0.786427 0.203003
Si Si6 0.913244 0.500000 0.447630
O O1 0.157455 0.500000 0.704228
O O2 0.250000 0.750000 0.716578
O O3 0.144712 0.787252 0.659797
O O4 0.118228 0.773321 0.750234
O O5 0.750000 0.750000 0.395181
O O6 0.880667 0.667751 0.422352
O O7 0.844153 0.000000 0.408357
O O8 0.876524 0.171063 0.924778
O O9 0.000000 0.000000 0.936173
O O10 0.904814 0.000000 0.000000
O O11 0.750000 0.250000 0.889579
O O12 0.631491 0.260084 0.839954
O O13 0.653199 0.000000 0.895326
O O14 0.500000 0.727123 0.197779
O O15 0.417701 0.000000 0.204532
O O16 0.892315 0.500000 0.500000
O O17 0.000000 0.500000 0.444541
#
# Coordination Sequence:
#
# PCOD9484533 Si02
#       6
#    16  16   8  16  16   8
#     4  10  18  33  57  87 123 165 204 259 310 370
#     4  11  21  41  67  95 127 164 216 264 315 377
#     4  11  26  46  68  97 129 165 213 266 327 392
#     4  11  22  42  67  95 129 169 213 267 322 375
#     4   9  19  34  56  87 125 169 213 255 311 378
#     4  11  26  46  66  93 129 167 207 264 333 384
#
# _framework density 19.170302
#
# number of rings (size 3 to 8) (size 9 to 14) (size 15 to 20)
#    0.000    1.600    3.000    3.000    0.000    4.000 
#    3.600    2.000    0.000    0.000    0.000    0.000 
#    0.000    0.000    0.000    0.000    0.000    0.000 
#
# Total GULP energy -223572.578610 kJ/mol
# GULP energy per Si atom -5589.314465 kJ/mol
# Density = 1.912667 g / cm^3
# Si number density = 19.170302 Si / 1000 Ang^3
#
#
#
# Elastic Constant Matrix: (Units=GPa)
#
#
# Indices 1 2 3 4 5 6 
#
# 1 129.0310 46.4845 97.3159 0.0000 0.0000 0.0000
# 2 46.4845 136.5469 60.5186 0.0000 0.0000 0.0000
# 3 97.3159 60.5186 146.4001 0.0000 0.0000 0.0000
# 4 0.0000 0.0000 0.0000 395.5271 0.0000 0.0000
# 5 0.0000 0.0000 0.0000 0.0000 37.7678 0.0000
# 6 0.0000 0.0000 0.0000 0.0000 0.0000 -8.8530
#
#
#
# Elastic Compliance Matrix: (Units=1/GPa)
#
#
# Indices 1 2 3 4 5 6 
#
# 1 0.015627 -0.000877 -0.010025 0.000000 0.000000 0.000000
# 2 -0.000877 0.009015 -0.003144 0.000000 0.000000 0.000000
# 3 -0.010025 -0.003144 0.014794 0.000000 0.000000 0.000000
# 4 0.000000 0.000000 0.000000 0.002528 0.000000 0.000000
# 5 0.000000 0.000000 0.000000 0.000000 0.026478 0.000000
# 6 0.000000 0.000000 0.000000 0.000000 0.000000 -0.112956
#
#
# Mechanical properties :
#
#
# Convention : Reuss Voigt Hill
#
# Bulk Modulus (GPa) = 88.14597 91.17956 89.66276
# Shear Modulus (GPa) = -395.59255 98.73228 -148.43013
#
# Velocity S-wave (km/s) = -14.38071 7.18433 -8.80881
# Velocity P-wave (km/s) = 15.15453 10.79285 7.52244
#
# Compressibility (1/GPa) = 0.01134482
#
# Stress axis : x y z
#
# Youngs Moduli (GPa) = 63.99161 110.92150 67.59318
#
# Poissons Ratio (x) = 0.09723 0.67764
# Poissons Ratio (y) = 0.05609 0.21252
# Poissons Ratio (z) = 0.64154 0.34874
#
# Static dielectric constant tensor:
#      x y z
#    x 1.636260 0.000000 0.000000 
#    y 0.000000 1.683910 0.000000 
#    z 0.000000 0.000000 1.640290 
# 
# From -- ./inp_files/75097.got.cif
#   From: 2010.05.17/outbox.cif.g08.bks.cpg/sg65_38_cif.got.tgz:75097.got - 2010.06.03 17:01:31.
