data_PCOD9484724
_publ_section_title
;
Structure prediction by ZEFSAII (Michael W. Deem and Ramdas Pophale) SiO2 
 PCOD9484724
Probable space group: C M M M
;
_chemical_formula_sum "Si O2"
_cell_formula_units_Z 88
_cell_length_a 18.177564
_cell_length_b 7.258224
_cell_length_c 30.977154
_cell_angle_alpha 90.000000
_cell_angle_beta 90.000000
_cell_angle_gamma 90.000000
_cell_volume 4087.027541
_symmetry_space_group_name_H-M "C M M M"
_symmetry_group_IT_number 65
_symmetry_cell_setting 'orthorhombic'
loop_
_space_group_symop_operation_xyz
x,y,z
-x,-y,z
x,-y,-z
-x,y,-z
-x,-y,-z
x,y,-z
-x,y,z
x,-y,z
1/2+x,1/2+y,z
1/2-x,1/2-y,z
1/2+x,1/2-y,-z
1/2-x,1/2+y,-z
1/2-x,1/2-y,-z
1/2+x,1/2+y,-z
1/2-x,1/2+y,z
1/2+x,1/2-y,z
loop_
_atom_site_type_symbol
_atom_site_label
_atom_site_fract_x
_atom_site_fract_y
_atom_site_fract_z
Si Si1 0.412375 0.222948 0.500000
Si Si2 0.087656 0.277014 0.592945
Si Si3 0.163651 0.281037 0.133866
Si Si4 0.414017 0.224338 0.779506
Si Si5 0.585870 0.776126 0.047418
Si Si6 0.412206 0.222183 0.685825
O O1 0.500000 0.265252 0.500000
O O2 0.382289 0.286790 0.546468
O O3 0.407234 0.000000 0.500000
O O4 0.092924 0.500000 0.592943
O O5 0.117560 0.212364 0.639395
O O6 0.000000 0.235086 0.592957
O O7 0.149446 0.500000 0.133875
O O8 0.250000 0.250000 0.134104
O O9 0.128114 0.210312 0.178169
O O10 0.128908 0.209884 0.089363
O O11 0.500000 0.274286 0.782778
O O12 0.384138 0.285620 0.732555
O O13 0.411427 0.000000 0.779043
O O14 0.500000 0.726497 0.051050
O O15 0.588948 0.000000 0.047321
O O16 0.613016 0.716382 0.000000
O O17 0.500000 0.261586 0.686112
O O18 0.405539 0.000000 0.685449
#
# Coordination Sequence:
#
# PCOD9484724 Si02
#       6
#     8  16  16  16  16  16
#     4   7   8   8  10  18  36  66  99 124 153 203
#     4   7   8   9  13  23  42  68  97 129 165 205
#     4  10  19  29  42  61  84 107 129 156 192 230
#     4   8  13  22  37  54  69  90 125 163 191 217
#     4   8  14  26  45  66  83 101 131 167 193 215
#     4   7   9  13  22  37  55  74 102 144 184 209
#
# _framework density 21.531541000000001
#
# number of rings (size 3 to 8) (size 9 to 14) (size 15 to 20)
#    0.000    4.091    0.000    4.364    0.000    2.545 
#    0.000    0.000    0.000    2.182    0.000    1.273 
#    0.000    0.000    0.000    0.818    0.000    4.909 
#
# Total GULP energy -244947.440612 kJ/mol
# GULP energy per Si atom -5566.987287 kJ/mol
# Density = 2.148253 g / cm^3
# Si number density = 21.531541 Si / 1000 Ang^3
#
#
#
# Elastic Constant Matrix: (Units=GPa)
#
#
# Indices 1 2 3 4 5 6 
#
# 1 32.3087 -2.9706 75.4194 0.0000 0.0000 0.0000
# 2 -2.9706 94.6655 13.0094 0.0000 0.0000 0.0000
# 3 75.4194 13.0094 337.9503 0.0000 0.0000 0.0000
# 4 0.0000 0.0000 0.0000 122.7285 0.0000 0.0000
# 5 0.0000 0.0000 0.0000 0.0000 -7.2312 0.0000
# 6 0.0000 0.0000 0.0000 0.0000 0.0000 8.1965
#
#
#
# Elastic Compliance Matrix: (Units=1/GPa)
#
#
# Indices 1 2 3 4 5 6 
#
# 1 0.066176 0.004128 -0.014927 0.000000 0.000000 0.000000
# 2 0.004128 0.010877 -0.001340 0.000000 0.000000 0.000000
# 3 -0.014927 -0.001340 0.006342 0.000000 0.000000 0.000000
# 4 0.000000 0.000000 0.000000 0.008148 0.000000 0.000000
# 5 0.000000 0.000000 0.000000 0.000000 -0.138290 0.000000
# 6 0.000000 0.000000 0.000000 0.000000 0.000000 0.122003
#
#
# Mechanical properties :
#
#
# Convention : Reuss Voigt Hill
#
# Bulk Modulus (GPa) = 16.91563 70.64898 43.78230
# Shear Modulus (GPa) = 41.93195 50.03652 45.98424
#
# Velocity S-wave (km/s) = 4.41780 4.82588 4.62634
# Velocity P-wave (km/s) = 5.82201 7.99595 6.99397
#
# Compressibility (1/GPa) = 0.05911692
#
# Stress axis : x y z
#
# Youngs Moduli (GPa) = 15.11112 91.93552 157.68189
#
# Poissons Ratio (x) = -0.37951 2.35377
# Poissons Ratio (y) = -0.06238 0.21128
# Poissons Ratio (z) = 0.22557 0.12319
#
# Static dielectric constant tensor:
#      x y z
#    x 1.681780 0.000000 0.000000 
#    y 0.000000 1.924180 0.000000 
#    z 0.000000 0.000000 1.869000 
# 
# From -- ./inp_files/78089.got.cif
#   From: 2010.05.17/outbox.cif.g08.bks.cpg/sg65_40_cif.got.tgz:78089.got - 2010.06.03 17:01:31.
