data_PCOD9484332
_publ_section_title
;
Structure prediction by ZEFSAII (Michael W. Deem and Ramdas Pophale) SiO2 
 PCOD9484332
Probable space group: C M M M
;
_chemical_formula_sum "Si O2"
_cell_formula_units_Z 96
_cell_length_a 7.509077
_cell_length_b 26.271452
_cell_length_c 24.233278
_cell_angle_alpha 90.000000
_cell_angle_beta 90.000000
_cell_angle_gamma 90.000000
_cell_volume 4780.604310
_symmetry_space_group_name_H-M "C M M M"
_symmetry_group_IT_number 65
_symmetry_cell_setting 'orthorhombic'
loop_
_space_group_symop_operation_xyz
x,y,z
-x,-y,z
x,-y,-z
-x,y,-z
-x,-y,-z
x,y,-z
-x,y,z
x,-y,z
1/2+x,1/2+y,z
1/2-x,1/2-y,z
1/2+x,1/2-y,-z
1/2-x,1/2+y,-z
1/2-x,1/2-y,-z
1/2+x,1/2+y,-z
1/2-x,1/2+y,z
1/2+x,1/2-y,z
loop_
_atom_site_type_symbol
_atom_site_label
_atom_site_fract_x
_atom_site_fract_y
_atom_site_fract_z
Si Si1 0.206759 0.104716 0.326970
Si Si2 0.217782 0.908024 0.062318
Si Si3 0.784183 0.000000 0.140631
Si Si4 0.286299 0.307837 0.247527
Si Si5 0.794388 0.500000 0.730720
Si Si6 0.786908 0.192620 0.878271
Si Si7 0.282394 0.559037 0.561872
O O1 0.284688 0.149430 0.289110
O O2 0.212717 0.051437 0.294002
O O3 0.282981 0.093156 0.387536
O O4 0.000000 0.118316 0.335724
O O5 0.272892 0.950476 0.106304
O O6 0.277382 0.852533 0.082724
O O7 0.000000 0.908647 0.061748
O O8 0.275548 0.919225 0.000000
O O9 0.721433 0.000000 0.203328
O O10 0.000000 0.000000 0.142631
O O11 0.500000 0.314292 0.244334
O O12 0.250000 0.250000 0.265462
O O13 0.217975 0.313246 0.184604
O O14 0.000000 0.500000 0.714550
O O15 0.750000 0.250000 0.897182
O O16 0.000000 0.187511 0.875669
O O17 0.227952 0.574046 0.500000
O O18 0.500000 0.559410 0.562980
O O19 0.230416 0.500000 0.570787
#
# Coordination Sequence:
#
# PCOD9484332 Si02
#       7
#    16  16   8  16   8  16  16
#     4  10  18  32  53  74  98 131 170 205 239 292
#     4   9  17  30  51  76  95 115 152 200 240 278
#     4  10  19  34  54  71  93 126 161 193 233 292
#     4   9  18  31  49  71  95 128 166 202 244 288
#     4  12  24  33  46  74 106 131 157 200 255 294
#     4   9  17  30  46  67  94 120 151 193 238 284
#     4   8  13  23  44  74 101 124 158 206 248 280
#
# _framework density 20.081143000000001
#
# number of rings (size 3 to 8) (size 9 to 14) (size 15 to 20)
#    0.000    2.667    0.833    2.500    0.000    4.667 
#    0.000    4.167    0.000    3.500    0.000    0.000 
#    0.000    0.000    0.000    0.000    0.000    0.000 
#
# Total GULP energy -267894.502213 kJ/mol
# GULP energy per Si atom -5581.135463 kJ/mol
# Density = 2.003544 g / cm^3
# Si number density = 20.081143 Si / 1000 Ang^3
#
#
#
# Elastic Constant Matrix: (Units=GPa)
#
#
# Indices 1 2 3 4 5 6 
#
# 1 53.4044 -12.9765 -8.9057 0.0000 0.0000 0.0000
# 2 -12.9765 72.6436 34.6549 0.0000 0.0000 0.0000
# 3 -8.9057 34.6549 104.0019 0.0000 0.0000 0.0000
# 4 0.0000 0.0000 0.0000 391.8613 0.0000 0.0000
# 5 0.0000 0.0000 0.0000 0.0000 -9.1149 0.0000
# 6 0.0000 0.0000 0.0000 0.0000 0.0000 12.6752
#
#
#
# Elastic Compliance Matrix: (Units=1/GPa)
#
#
# Indices 1 2 3 4 5 6 
#
# 1 0.019607 0.003212 0.000609 0.000000 0.000000 0.000000
# 2 0.003212 0.016894 -0.005354 0.000000 0.000000 0.000000
# 3 0.000609 -0.005354 0.011451 0.000000 0.000000 0.000000
# 4 0.000000 0.000000 0.000000 0.002552 0.000000 0.000000
# 5 0.000000 0.000000 0.000000 0.000000 -0.109711 0.000000
# 6 0.000000 0.000000 0.000000 0.000000 0.000000 0.078895
#
#
# Mechanical properties :
#
#
# Convention : Reuss Voigt Hill
#
# Bulk Modulus (GPa) = 22.27897 28.39947 25.33922
# Shear Modulus (GPa) = 132.56771 93.56946 113.06858
#
# Velocity S-wave (km/s) = 8.13384 6.83351 7.51186
# Velocity P-wave (km/s) = 9.96649 8.74274 9.37461
#
# Compressibility (1/GPa) = 0.04488538
#
# Stress axis : x y z
#
# Youngs Moduli (GPa) = 51.00206 59.19305 87.32528
#
# Poissons Ratio (x) = -0.19013 -0.05315
# Poissons Ratio (y) = -0.16382 0.46756
# Poissons Ratio (z) = -0.03104 0.31693
#
# Static dielectric constant tensor:
#      x y z
#    x 1.774220 0.000000 0.000000 
#    y 0.000000 1.681860 0.000000 
#    z 0.000000 0.000000 1.709360 
# 
# From -- ./inp_files/68102.got.cif
#   From: 2010.05.17/outbox.cif.g08.bks.cpg/sg65_35_cif.got.tgz:68102.got - 2010.06.03 17:01:31.
