data_PCOD9484663
_publ_section_title
;
Structure prediction by ZEFSAII (Michael W. Deem and Ramdas Pophale) SiO2 
 PCOD9484663
Probable space group: C M M M
;
_chemical_formula_sum "Si O2"
_cell_formula_units_Z 96
_cell_length_a 27.787261
_cell_length_b 8.961440
_cell_length_c 24.605347
_cell_angle_alpha 90.000000
_cell_angle_beta 90.000000
_cell_angle_gamma 90.000000
_cell_volume 6127.072734
_symmetry_space_group_name_H-M "C M M M"
_symmetry_group_IT_number 65
_symmetry_cell_setting 'orthorhombic'
loop_
_space_group_symop_operation_xyz
x,y,z
-x,-y,z
x,-y,-z
-x,y,-z
-x,-y,-z
x,y,-z
-x,y,z
x,-y,z
1/2+x,1/2+y,z
1/2-x,1/2-y,z
1/2+x,1/2-y,-z
1/2-x,1/2+y,-z
1/2-x,1/2-y,-z
1/2+x,1/2+y,-z
1/2-x,1/2+y,z
1/2+x,1/2-y,z
loop_
_atom_site_type_symbol
_atom_site_label
_atom_site_fract_x
_atom_site_fract_y
_atom_site_fract_z
Si Si1 0.393095 0.322061 0.224767
Si Si2 0.353090 0.179521 0.939668
Si Si3 0.942610 0.676830 0.328122
Si Si4 0.801414 0.320713 0.829219
Si Si5 0.941659 0.825403 0.560084
Si Si6 0.945230 0.821167 0.887974
O O1 0.386323 0.500000 0.227258
O O2 0.415398 0.261295 0.280152
O O3 0.343191 0.242205 0.209552
O O4 0.429163 0.290404 0.174225
O O5 0.317895 0.224006 0.890523
O O6 0.405521 0.244553 0.925614
O O7 0.355935 0.000000 0.938711
O O8 0.337756 0.227168 0.000000
O O9 0.935693 0.500000 0.323129
O O10 0.926130 0.732737 0.387552
O O11 0.000000 0.707617 0.323608
O O12 0.799590 0.500000 0.826149
O O13 0.750000 0.250000 0.816908
O O14 0.925134 0.775123 0.500000
O O15 0.000000 0.817897 0.559221
O O16 0.929046 0.000000 0.566588
O O17 0.000000 0.772258 0.897546
O O18 0.942907 0.000000 0.895614
#
# Coordination Sequence:
#
# PCOD9484663 Si02
#       6
#    16  16  16  16  16  16
#     4  10  19  32  49  67  89 118 153 191 229 272
#     4   9  19  34  49  67  91 117 146 180 218 265
#     4  10  19  28  41  65  96 128 160 194 232 271
#     4  10  20  35  53  71  91 114 142 180 228 279
#     4   8  14  25  40  58  84 122 165 201 230 263
#     4   9  18  31  46  65  89 118 151 186 223 262
#
# _framework density 15.668167
#
# number of rings (size 3 to 8) (size 9 to 14) (size 15 to 20)
#    0.000    2.667    0.000    2.500    0.000    4.667 
#    0.000    3.333    0.000    0.000    0.000    0.000 
#    0.000    0.667    0.000    2.500    0.000    3.833 
#
# Total GULP energy -267565.499192 kJ/mol
# GULP energy per Si atom -5574.281233 kJ/mol
# Density = 1.563251 g / cm^3
# Si number density = 15.668167 Si / 1000 Ang^3
#
#
#
# Elastic Constant Matrix: (Units=GPa)
#
#
# Indices 1 2 3 4 5 6 
#
# 1 51.4694 25.2302 11.3309 0.0000 0.0000 0.0000
# 2 25.2302 41.4527 36.7910 0.0000 0.0000 0.0000
# 3 11.3309 36.7910 92.1925 0.0000 0.0000 0.0000
# 4 0.0000 0.0000 0.0000 25.2900 0.0000 0.0000
# 5 0.0000 0.0000 0.0000 0.0000 9.5464 0.0000
# 6 0.0000 0.0000 0.0000 0.0000 0.0000 23.4152
#
#
#
# Elastic Compliance Matrix: (Units=1/GPa)
#
#
# Indices 1 2 3 4 5 6 
#
# 1 0.029362 -0.022713 0.005455 0.000000 0.000000 0.000000
# 2 -0.022713 0.054924 -0.019127 0.000000 0.000000 0.000000
# 3 0.005455 -0.019127 0.017809 0.000000 0.000000 0.000000
# 4 0.000000 0.000000 0.000000 0.039541 0.000000 0.000000
# 5 0.000000 0.000000 0.000000 0.000000 0.104752 0.000000
# 6 0.000000 0.000000 0.000000 0.000000 0.000000 0.042707
#
#
# Mechanical properties :
#
#
# Convention : Reuss Voigt Hill
#
# Bulk Modulus (GPa) = 34.09922 36.86876 35.48399
# Shear Modulus (GPa) = 13.45391 19.10116 16.27753
#
# Velocity S-wave (km/s) = 2.93350 3.49536 3.22668
# Velocity P-wave (km/s) = 5.76927 6.31444 6.04800
#
# Compressibility (1/GPa) = 0.02932619
#
# Stress axis : x y z
#
# Youngs Moduli (GPa) = 34.05785 18.20706 56.15057
#
# Poissons Ratio (x) = 0.41353 -0.30631
# Poissons Ratio (y) = 0.77355 1.07398
# Poissons Ratio (z) = -0.18579 0.34824
#
# Static dielectric constant tensor:
#      x y z
#    x 1.490910 0.000000 0.000000 
#    y 0.000000 1.521030 0.000000 
#    z 0.000000 0.000000 1.532930 
# 
# From -- ./inp_files/60237.got.cif
#   From: 2010.05.17/outbox.cif.g08.bks.cpg/sg65_31_cif.got.tgz:60237.got - 2010.06.03 17:01:31.
