data_PCOD9484088
_publ_section_title
;
Structure prediction by ZEFSAII (Michael W. Deem and Ramdas Pophale) SiO2 
 PCOD9484088
Probable space group: C M M M
;
_chemical_formula_sum "Si O2"
_cell_formula_units_Z 104
_cell_length_a 30.603160
_cell_length_b 7.471390
_cell_length_c 21.086350
_cell_angle_alpha 90.000000
_cell_angle_beta 90.000000
_cell_angle_gamma 90.000000
_cell_volume 4821.354783
_symmetry_space_group_name_H-M "C M M M"
_symmetry_group_IT_number 65
_symmetry_cell_setting 'orthorhombic'
loop_
_space_group_symop_operation_xyz
x,y,z
-x,-y,z
x,-y,-z
-x,y,-z
-x,-y,-z
x,y,-z
-x,y,z
x,-y,z
1/2+x,1/2+y,z
1/2-x,1/2-y,z
1/2+x,1/2-y,-z
1/2-x,1/2+y,-z
1/2-x,1/2-y,-z
1/2+x,1/2+y,-z
1/2-x,1/2+y,z
1/2+x,1/2-y,z
loop_
_atom_site_type_symbol
_atom_site_label
_atom_site_fract_x
_atom_site_fract_y
_atom_site_fract_z
Si Si1 0.797620 0.785920 0.707607
Si Si2 0.638076 0.285040 0.816548
Si Si3 0.588606 0.781794 0.628058
Si Si4 0.000000 0.699540 0.573748
Si Si5 0.700061 0.714431 0.071893
Si Si6 0.449632 0.212891 0.238203
Si Si7 0.181555 0.206623 0.571302
O O1 0.750000 0.750000 0.735886
O O2 0.835757 0.717232 0.753832
O O3 0.798175 0.710865 0.635589
O O4 0.803635 0.000000 0.702204
O O5 0.642119 0.500000 0.815167
O O6 0.664829 0.218550 0.877530
O O7 0.586423 0.245295 0.815978
O O8 0.545283 0.718405 0.592717
O O9 0.576808 0.722747 0.699417
O O10 0.630722 0.710671 0.591922
O O11 0.592692 0.000000 0.626236
O O12 0.000000 0.500000 0.604934
O O13 0.000000 0.679064 0.500000
O O14 0.695247 0.500000 0.069193
O O15 0.750000 0.750000 0.092131
O O16 0.694784 0.783932 0.000000
O O17 0.500000 0.280908 0.233145
O O18 0.453607 0.000000 0.245168
O O19 0.187824 0.282858 0.500000
O O20 0.196087 0.000000 0.567433
#
# Coordination Sequence:
#
# PCOD9484088 Si02
#       7
#    16  16  16   8  16  16  16
#     4  10  21  35  51  73  99 130 170 212 255 306
#     4  10  20  35  55  79 108 141 174 210 256 308
#     4  10  18  31  50  71  93 123 165 211 260 313
#     4   9  16  26  43  67  93 119 152 201 258 312
#     4   9  18  33  55  85 118 147 176 211 253 305
#     4  10  20  34  53  78 106 135 173 220 264 307
#     4  10  21  36  50  66  95 131 165 209 262 310
#
# _framework density 21.570699999999999
#
# number of rings (size 3 to 8) (size 9 to 14) (size 15 to 20)
#    0.000    2.231    2.308    0.923    0.000    3.385 
#    0.000    0.385    0.000    1.846    0.000    3.231 
#    0.000    0.000    0.000    0.000    0.000    0.000 
#
# Total GULP energy -289916.235245 kJ/mol
# GULP energy per Si atom -5575.312216 kJ/mol
# Density = 2.152160 g / cm^3
# Si number density = 21.570700 Si / 1000 Ang^3
#
#
#
# Elastic Constant Matrix: (Units=GPa)
#
#
# Indices 1 2 3 4 5 6 
#
# 1 132.1538 -10.7955 57.4973 0.0000 0.0000 0.0000
# 2 -10.7955 67.4432 7.9018 0.0000 0.0000 0.0000
# 3 57.4973 7.9018 113.9268 0.0000 0.0000 0.0000
# 4 0.0000 0.0000 0.0000 -7.6882 0.0000 0.0000
# 5 0.0000 0.0000 0.0000 0.0000 31.6372 0.0000
# 6 0.0000 0.0000 0.0000 0.0000 0.0000 21.9161
#
#
#
# Elastic Compliance Matrix: (Units=1/GPa)
#
#
# Indices 1 2 3 4 5 6 
#
# 1 0.010013 0.002213 -0.005207 0.000000 0.000000 0.000000
# 2 0.002213 0.015438 -0.002188 0.000000 0.000000 0.000000
# 3 -0.005207 -0.002188 0.011557 0.000000 0.000000 0.000000
# 4 0.000000 0.000000 0.000000 -0.130070 0.000000 0.000000
# 5 0.000000 0.000000 0.000000 0.000000 0.031608 0.000000
# 6 0.000000 0.000000 0.000000 0.000000 0.000000 0.045629
#
#
# Mechanical properties :
#
#
# Convention : Reuss Voigt Hill
#
# Bulk Modulus (GPa) = 37.53078 46.97009 42.25043
# Shear Modulus (GPa) = 1462.01552 26.43438 744.22495
#
# Velocity S-wave (km/s) = 26.06242 3.50448 18.59477
# Velocity P-wave (km/s) = 30.38261 6.18040 21.92374
#
# Compressibility (1/GPa) = 0.02664480
#
# Stress axis : x y z
#
# Youngs Moduli (GPa) = 99.86859 64.77611 86.52627
#
# Poissons Ratio (x) = -0.14334 0.45054
# Poissons Ratio (y) = -0.22099 0.18928
# Poissons Ratio (z) = 0.52001 0.14170
#
# Static dielectric constant tensor:
#      x y z
#    x 1.808820 0.000000 0.000000 
#    y 0.000000 1.826220 0.000000 
#    z 0.000000 0.000000 1.820050 
# 
# From -- ./inp_files/66398.got.cif
#   From: 2010.05.17/outbox.cif.g08.bks.cpg/sg65_34_cif.got.tgz:66398.got - 2010.06.03 17:01:31.
