data_PCOD9484613
_publ_section_title
;
Structure prediction by ZEFSAII (Michael W. Deem and Ramdas Pophale) SiO2 
 PCOD9484613
Probable space group: C M M M
;
_chemical_formula_sum "Si O2"
_cell_formula_units_Z 72
_cell_length_a 24.304405
_cell_length_b 7.609993
_cell_length_c 18.414809
_cell_angle_alpha 90.000000
_cell_angle_beta 90.000000
_cell_angle_gamma 90.000000
_cell_volume 3405.935894
_symmetry_space_group_name_H-M "C M M M"
_symmetry_group_IT_number 65
_symmetry_cell_setting 'orthorhombic'
loop_
_space_group_symop_operation_xyz
x,y,z
-x,-y,z
x,-y,-z
-x,y,-z
-x,-y,-z
x,y,-z
-x,y,z
x,-y,z
1/2+x,1/2+y,z
1/2-x,1/2-y,z
1/2+x,1/2-y,-z
1/2-x,1/2+y,-z
1/2-x,1/2-y,-z
1/2+x,1/2+y,-z
1/2-x,1/2+y,z
1/2+x,1/2-y,z
loop_
_atom_site_type_symbol
_atom_site_label
_atom_site_fract_x
_atom_site_fract_y
_atom_site_fract_z
Si Si1 0.113722 0.710702 0.081833
Si Si2 0.000000 0.702765 0.328982
Si Si3 0.500000 0.293098 0.161827
Si Si4 0.685379 0.210611 0.500000
Si Si5 0.378724 0.783772 0.356797
Si Si6 0.314160 0.789251 0.213431
O O1 0.120217 0.500000 0.077517
O O2 0.054085 0.744623 0.116531
O O3 0.158694 0.778761 0.139090
O O4 0.117851 0.780922 0.000000
O O5 0.000000 0.706257 0.241187
O O6 0.058082 0.777996 0.355459
O O7 0.000000 0.500000 0.353057
O O8 0.500000 0.500000 0.174783
O O9 0.750000 0.250000 0.500000
O O10 0.654993 0.274100 0.427338
O O11 0.679963 0.000000 0.500000
O O12 0.347939 0.725655 0.283482
O O13 0.379308 0.000000 0.355904
O O14 0.250000 0.750000 0.219344
O O15 0.320343 0.000000 0.212876
#
# Coordination Sequence:
#
# PCOD9484613 Si02
#       6
#    16   8   8   8  16  16
#     4  10  21  38  59  79 105 147 191 224 268 335
#     4  10  18  36  61  80 107 147 184 227 272 328
#     4  12  23  35  55  86 116 140 176 232 285 330
#     4  10  20  35  55  85 115 146 183 222 270 321
#     4   9  18  33  57  83 109 141 184 226 267 323
#     4  10  20  35  54  78 107 144 186 227 270 322
#
# _framework density 21.139565999999999
#
# number of rings (size 3 to 8) (size 9 to 14) (size 15 to 20)
#    0.000    2.000    2.222    2.000    0.000    3.556 
#    0.000    3.333    0.000    0.000    0.000    1.556 
#    0.000    0.000    0.000    0.000    0.000    0.000 
#
# Total GULP energy -201150.216994 kJ/mol
# GULP energy per Si atom -5587.506028 kJ/mol
# Density = 2.109145 g / cm^3
# Si number density = 21.139566 Si / 1000 Ang^3
#
#
#
# Elastic Constant Matrix: (Units=GPa)
#
#
# Indices 1 2 3 4 5 6 
#
# 1 220.0210 -5.3099 112.4319 0.0000 0.0000 0.0000
# 2 -5.3099 45.3962 2.8643 0.0000 0.0000 0.0000
# 3 112.4319 2.8643 144.1029 0.0000 0.0000 0.0000
# 4 0.0000 0.0000 0.0000 -2.7535 0.0000 0.0000
# 5 0.0000 0.0000 0.0000 0.0000 15.3032 0.0000
# 6 0.0000 0.0000 0.0000 0.0000 0.0000 21.3119
#
#
#
# Elastic Compliance Matrix: (Units=1/GPa)
#
#
# Indices 1 2 3 4 5 6 
#
# 1 0.007631 0.001270 -0.005979 0.000000 0.000000 0.000000
# 2 0.001270 0.022267 -0.001433 0.000000 0.000000 0.000000
# 3 -0.005979 -0.001433 0.011633 0.000000 0.000000 0.000000
# 4 0.000000 0.000000 0.000000 -0.363168 0.000000 0.000000
# 5 0.000000 0.000000 0.000000 0.000000 0.065346 0.000000
# 6 0.000000 0.000000 0.000000 0.000000 0.000000 0.046922
#
#
# Mechanical properties :
#
#
# Convention : Reuss Voigt Hill
#
# Bulk Modulus (GPa) = 34.19267 69.94362 52.06815
# Shear Modulus (GPa) = -26.69018 26.74124 0.02553
#
# Velocity S-wave (km/s) = -3.55712 3.56052 0.11001
# Velocity P-wave (km/s) = 0.81300 7.07542 4.96994
#
# Compressibility (1/GPa) = 0.02924603
#
# Stress axis : x y z
#
# Youngs Moduli (GPa) = 131.04401 44.90899 85.96239
#
# Poissons Ratio (x) = -0.05703 0.51398
# Poissons Ratio (y) = -0.16640 0.12321
# Poissons Ratio (z) = 0.78353 0.06437
#
# Static dielectric constant tensor:
#      x y z
#    x 1.718720 0.000000 0.000000 
#    y 0.000000 1.709970 0.000000 
#    z 0.000000 0.000000 1.749600 
# 
# From -- ./inp_files/56508.got.cif
#   From: 2010.05.17/outbox.cif.g08.bks.cpg/sg65_29_cif.got.tgz:56508.got - 2010.06.03 17:01:31.
