data_PCOD9484262
_publ_section_title
;
Structure prediction by ZEFSAII (Michael W. Deem and Ramdas Pophale) SiO2 
 PCOD9484262
Probable space group: C M M M
;
_chemical_formula_sum "Si O2"
_cell_formula_units_Z 104
_cell_length_a 18.747492
_cell_length_b 18.317760
_cell_length_c 17.935329
_cell_angle_alpha 90.000000
_cell_angle_beta 90.000000
_cell_angle_gamma 90.000000
_cell_volume 6159.208262
_symmetry_space_group_name_H-M "C M M M"
_symmetry_group_IT_number 65
_symmetry_cell_setting 'orthorhombic'
loop_
_space_group_symop_operation_xyz
x,y,z
-x,-y,z
x,-y,-z
-x,y,-z
-x,-y,-z
x,y,-z
-x,y,z
x,-y,z
1/2+x,1/2+y,z
1/2-x,1/2-y,z
1/2+x,1/2-y,-z
1/2-x,1/2+y,-z
1/2-x,1/2-y,-z
1/2+x,1/2+y,-z
1/2-x,1/2+y,z
1/2+x,1/2-y,z
loop_
_atom_site_type_symbol
_atom_site_label
_atom_site_fract_x
_atom_site_fract_y
_atom_site_fract_z
Si Si1 0.280103 0.833501 0.415854
Si Si2 0.192871 0.812262 0.170158
Si Si3 0.415923 0.500000 0.414575
Si Si4 0.304424 0.914792 0.910758
Si Si5 0.646628 0.633600 0.674349
Si Si6 0.083500 0.308142 0.157499
Si Si7 0.081761 0.707382 0.336136
O O1 0.276870 0.861300 0.500000
O O2 0.250000 0.750000 0.417135
O O3 0.225148 0.871356 0.361038
O O4 0.359433 0.835248 0.383463
O O5 0.250000 0.750000 0.199025
O O6 0.238223 0.865662 0.117973
O O7 0.159585 0.858945 0.237459
O O8 0.129442 0.763747 0.134892
O O9 0.500000 0.500000 0.422733
O O10 0.385664 0.500000 0.500000
O O11 0.394616 0.568859 0.364662
O O12 0.374921 0.877027 0.876363
O O13 0.297879 0.000000 0.889083
O O14 0.307967 0.910862 0.000000
O O15 0.605066 0.708268 0.654554
O O16 0.088028 0.310073 0.247962
O O17 0.000000 0.304524 0.137320
O O18 0.000000 0.696226 0.358804
#
# Coordination Sequence:
#
# PCOD9484262 Si02
#       7
#    16  16   8  16  16  16  16
#     4   9  16  26  43  67  92 121 162 208 253 299
#     4   9  18  34  57  79 101 136 181 220 257 307
#     4  11  24  36  46  70 108 144 174 207 260 324
#     4  10  21  35  53  79 112 141 168 211 267 322
#     4  10  18  32  50  69  96 134 173 215 253 299
#     4   9  18  33  53  77 104 136 176 219 260 309
#     4   9  17  31  50  71  98 129 166 214 261 302
#
# _framework density 16.885287999999999
#
# number of rings (size 3 to 8) (size 9 to 14) (size 15 to 20)
#    0.000    2.538    0.000    4.154    1.077    4.923 
#    0.000    0.769    0.000    0.000    0.000    1.077 
#    0.000    1.846    0.000    0.000    0.000    0.000 
#
# Total GULP energy -289582.955912 kJ/mol
# GULP energy per Si atom -5568.902998 kJ/mol
# Density = 1.684686 g / cm^3
# Si number density = 16.885288 Si / 1000 Ang^3
#
#
#
# Elastic Constant Matrix: (Units=GPa)
#
#
# Indices 1 2 3 4 5 6 
#
# 1 119.8920 28.9598 27.2029 0.0000 0.0000 0.0000
# 2 28.9598 76.6606 44.0066 0.0000 0.0000 0.0000
# 3 27.2029 44.0066 46.8533 0.0000 0.0000 0.0000
# 4 0.0000 0.0000 0.0000 14.0901 0.0000 0.0000
# 5 0.0000 0.0000 0.0000 0.0000 -115.0054 0.0000
# 6 0.0000 0.0000 0.0000 0.0000 0.0000 19.1161
#
#
#
# Elastic Compliance Matrix: (Units=1/GPa)
#
#
# Indices 1 2 3 4 5 6 
#
# 1 0.009637 -0.000930 -0.004722 0.000000 0.000000 0.000000
# 2 -0.000930 0.028396 -0.026131 0.000000 0.000000 0.000000
# 3 -0.004722 -0.026131 0.048628 0.000000 0.000000 0.000000
# 4 0.000000 0.000000 0.000000 0.070972 0.000000 0.000000
# 5 0.000000 0.000000 0.000000 0.000000 -0.008695 0.000000
# 6 0.000000 0.000000 0.000000 0.000000 0.000000 0.052312
#
#
# Mechanical properties :
#
#
# Convention : Reuss Voigt Hill
#
# Bulk Modulus (GPa) = 43.29803 49.30495 46.30149
# Shear Modulus (GPa) = 18.34775 -6.81073 5.76851
#
# Velocity S-wave (km/s) = 3.29996 -2.01054 1.85033
# Velocity P-wave (km/s) = 6.34175 4.88606 5.66089
#
# Compressibility (1/GPa) = 0.02309574
#
# Stress axis : x y z
#
# Youngs Moduli (GPa) = 103.76898 35.21598 20.56437
#
# Poissons Ratio (x) = 0.03275 0.09709
# Poissons Ratio (y) = 0.09652 0.53737
# Poissons Ratio (z) = 0.48995 0.92023
#
# Static dielectric constant tensor:
#      x y z
#    x 1.578010 0.000000 0.000000 
#    y 0.000000 1.578860 0.000000 
#    z 0.000000 0.000000 1.567780 
# 
# From -- ./inp_files/54621.got.cif
#   From: 2010.05.17/outbox.cif.g08.bks.cpg/sg65_28_cif.got.tgz:54621.got - 2010.06.03 17:01:31.
