data_PCOD9484655
_publ_section_title
;
Structure prediction by ZEFSAII (Michael W. Deem and Ramdas Pophale) SiO2 
 PCOD9484655
Probable space group: C M M M
;
_chemical_formula_sum "Si O2"
_cell_formula_units_Z 104
_cell_length_a 8.709929
_cell_length_b 28.031555
_cell_length_c 27.322914
_cell_angle_alpha 90.000000
_cell_angle_beta 90.000000
_cell_angle_gamma 90.000000
_cell_volume 6670.967427
_symmetry_space_group_name_H-M "C M M M"
_symmetry_group_IT_number 65
_symmetry_cell_setting 'orthorhombic'
loop_
_space_group_symop_operation_xyz
x,y,z
-x,-y,z
x,-y,-z
-x,y,-z
-x,-y,-z
x,y,-z
-x,y,z
x,-y,z
1/2+x,1/2+y,z
1/2-x,1/2-y,z
1/2+x,1/2-y,-z
1/2-x,1/2+y,-z
1/2-x,1/2-y,-z
1/2+x,1/2+y,-z
1/2-x,1/2+y,z
1/2+x,1/2-y,z
loop_
_atom_site_type_symbol
_atom_site_label
_atom_site_fract_x
_atom_site_fract_y
_atom_site_fract_z
Si Si1 0.814541 0.303309 0.500000
Si Si2 0.817212 0.056044 0.843596
Si Si3 0.183062 0.801683 0.300922
Si Si4 0.183804 0.607035 0.250342
Si Si5 0.313715 0.946679 0.349268
Si Si6 0.319196 0.057714 0.053697
Si Si7 0.686143 0.150261 0.602398
O O1 0.750000 0.250000 0.500000
O O2 0.767349 0.330795 0.549344
O O3 0.000000 0.301049 0.500000
O O4 0.738100 0.085755 0.800810
O O5 0.768317 0.073280 0.897680
O O6 0.000000 0.058802 0.838610
O O7 0.771877 0.000000 0.839132
O O8 0.250000 0.750000 0.288785
O O9 0.241591 0.842432 0.263948
O O10 0.245148 0.817601 0.354315
O O11 0.000000 0.800296 0.301635
O O12 0.227945 0.571104 0.294727
O O13 0.000000 0.611860 0.251362
O O14 0.500000 0.948340 0.350859
O O15 0.266906 0.904316 0.385929
O O16 0.256224 0.000000 0.359267
O O17 0.500000 0.068928 0.058205
O O18 0.306661 0.000000 0.052772
O O19 0.265081 0.074731 0.000000
O O20 0.500000 0.152630 0.605952
#
# Coordination Sequence:
#
# PCOD9484655 Si02
#       7
#     8  16  16  16  16  16  16
#     4  10  20  32  47  67  91 117 148 190 233 274
#     4  10  19  28  40  63  95 127 158 194 235 276
#     4  11  21  34  51  70  92 117 146 182 228 279
#     4  10  19  31  47  67  91 120 155 191 226 270
#     4   8  14  26  45  66  88 116 148 181 218 261
#     4   8  14  25  40  57  80 116 161 201 235 274
#     4   9  18  32  48  69  94 119 150 185 222 268
#
# _framework density 15.589943
#
# number of rings (size 3 to 8) (size 9 to 14) (size 15 to 20)
#    0.000    2.615    0.000    4.615    0.000    3.692 
#    0.000    1.923    0.000    6.462    0.000    0.000 
#    0.000    6.154    0.000    2.308    0.000    3.538 
#
# Total GULP energy -289827.834641 kJ/mol
# GULP energy per Si atom -5573.612205 kJ/mol
# Density = 1.555446 g / cm^3
# Si number density = 15.589943 Si / 1000 Ang^3
#
#
#
# Elastic Constant Matrix: (Units=GPa)
#
#
# Indices 1 2 3 4 5 6 
#
# 1 44.9159 32.0875 38.9935 0.0000 0.0000 0.0000
# 2 32.0875 108.9883 62.5600 0.0000 0.0000 0.0000
# 3 38.9935 62.5600 128.0937 0.0000 0.0000 0.0000
# 4 0.0000 0.0000 0.0000 15.0993 0.0000 0.0000
# 5 0.0000 0.0000 0.0000 0.0000 19.7115 0.0000
# 6 0.0000 0.0000 0.0000 0.0000 0.0000 19.3349
#
#
#
# Elastic Compliance Matrix: (Units=1/GPa)
#
#
# Indices 1 2 3 4 5 6 
#
# 1 0.032387 -0.005386 -0.007229 0.000000 0.000000 0.000000
# 2 -0.005386 0.013645 -0.005025 0.000000 0.000000 0.000000
# 3 -0.007229 -0.005025 0.012461 0.000000 0.000000 0.000000
# 4 0.000000 0.000000 0.000000 0.066228 0.000000 0.000000
# 5 0.000000 0.000000 0.000000 0.000000 0.050732 0.000000
# 6 0.000000 0.000000 0.000000 0.000000 0.000000 0.051720
#
#
# Mechanical properties :
#
#
# Convention : Reuss Voigt Hill
#
# Bulk Modulus (GPa) = 43.07537 61.03109 52.05323
# Shear Modulus (GPa) = 18.50548 20.71959 19.61254
#
# Velocity S-wave (km/s) = 3.44904 3.64955 3.55071
# Velocity P-wave (km/s) = 6.59935 7.54928 7.09024
#
# Compressibility (1/GPa) = 0.02321512
#
# Stress axis : x y z
#
# Youngs Moduli (GPa) = 30.87662 73.28617 80.24843
#
# Poissons Ratio (x) = 0.39471 0.58009
# Poissons Ratio (y) = 0.16630 0.40322
# Poissons Ratio (z) = 0.22320 0.36824
#
# Static dielectric constant tensor:
#      x y z
#    x 1.526060 0.000000 0.000000 
#    y 0.000000 1.509450 0.000000 
#    z 0.000000 0.000000 1.518780 
# 
# From -- ./inp_files/73759.got.cif
#   From: 2010.05.17/outbox.cif.g08.bks.cpg/sg65_37_cif.got.tgz:73759.got - 2010.06.03 17:01:31.
