data_PCOD9484232
_publ_section_title
;
Structure prediction by ZEFSAII (Michael W. Deem and Ramdas Pophale) SiO2 
 PCOD9484232
Probable space group: C M M M
;
_chemical_formula_sum "Si O2"
_cell_formula_units_Z 96
_cell_length_a 25.069633
_cell_length_b 23.384268
_cell_length_c 7.942261
_cell_angle_alpha 90.000000
_cell_angle_beta 90.000000
_cell_angle_gamma 90.000000
_cell_volume 4656.031510
_symmetry_space_group_name_H-M "C M M M"
_symmetry_group_IT_number 65
_symmetry_cell_setting 'orthorhombic'
loop_
_space_group_symop_operation_xyz
x,y,z
-x,-y,z
x,-y,-z
-x,y,-z
-x,-y,-z
x,y,-z
-x,y,z
x,-y,z
1/2+x,1/2+y,z
1/2-x,1/2-y,z
1/2+x,1/2-y,-z
1/2-x,1/2+y,-z
1/2-x,1/2-y,-z
1/2+x,1/2+y,-z
1/2-x,1/2+y,z
1/2+x,1/2-y,z
loop_
_atom_site_type_symbol
_atom_site_label
_atom_site_fract_x
_atom_site_fract_y
_atom_site_fract_z
Si Si1 0.500000 0.294204 0.179586
Si Si2 0.677865 0.696145 0.795713
Si Si3 0.268254 0.500000 0.201481
Si Si4 0.500000 0.178595 0.317791
Si Si5 0.879057 0.314832 0.201785
Si Si6 0.723871 0.122901 0.205481
Si Si7 0.392018 0.500000 0.296172
Si Si8 0.915332 0.122258 0.303093
O O1 0.500000 0.247509 0.321604
O O2 0.550171 0.334359 0.196812
O O3 0.500000 0.263314 0.000000
O O4 0.646328 0.753569 0.737645
O O5 0.738110 0.677344 0.748765
O O6 0.644599 0.642767 0.724548
O O7 0.676363 0.697179 0.000000
O O8 0.243936 0.560524 0.264936
O O9 0.331332 0.500000 0.235274
O O10 0.260243 0.500000 0.000000
O O11 0.500000 0.151249 0.500000
O O12 0.559662 0.169655 0.243739
O O13 0.836149 0.362001 0.258315
O O14 0.876977 0.311127 0.000000
O O15 0.725320 0.121256 0.000000
O O16 0.390337 0.500000 0.500000
O O17 0.420922 0.557693 0.243757
O O18 0.929955 0.126331 0.500000
#
# Coordination Sequence:
#
# PCOD9484232 Si02
#       8
#     8  16   8   8  16  16   8  16
#     4  12  24  39  57  78 104 143 190 233 279 325
#     4  10  18  31  54  82 112 145 181 222 271 325
#     4  10  18  32  57  84 111 144 186 227 268 319
#     4  12  24  38  57  82 111 142 180 225 276 331
#     4  10  20  35  56  82 114 148 184 221 273 331
#     4   9  18  32  54  86 116 145 182 229 271 317
#     4  10  22  37  53  76 110 151 188 223 275 325
#     4  11  22  36  54  77 109 147 187 231 272 319
#
# _framework density 20.618417000000001
#
# number of rings (size 3 to 8) (size 9 to 14) (size 15 to 20)
#    0.000    1.667    3.333    2.500    0.000    3.000 
#    0.000    3.333    0.000    2.500    0.000    3.500 
#    0.000    0.000    0.000    0.000    0.000    0.000 
#
# Total GULP energy -267517.121968 kJ/mol
# GULP energy per Si atom -5573.273374 kJ/mol
# Density = 2.057149 g / cm^3
# Si number density = 20.618417 Si / 1000 Ang^3
#
#
#
# Elastic Constant Matrix: (Units=GPa)
#
#
# Indices 1 2 3 4 5 6 
#
# 1 115.2920 9.6423 6.0588 0.0000 0.0000 0.0000
# 2 9.6423 42.2636 -2.2392 0.0000 0.0000 0.0000
# 3 6.0588 -2.2392 26.4958 0.0000 0.0000 0.0000
# 4 0.0000 0.0000 0.0000 7.9561 0.0000 0.0000
# 5 0.0000 0.0000 0.0000 0.0000 99.6677 0.0000
# 6 0.0000 0.0000 0.0000 0.0000 0.0000 45.3779
#
#
#
# Elastic Compliance Matrix: (Units=1/GPa)
#
#
# Indices 1 2 3 4 5 6 
#
# 1 0.008972 -0.002165 -0.002235 0.000000 0.000000 0.000000
# 2 -0.002165 0.024290 0.002548 0.000000 0.000000 0.000000
# 3 -0.002235 0.002548 0.038468 0.000000 0.000000 0.000000
# 4 0.000000 0.000000 0.000000 0.125690 0.000000 0.000000
# 5 0.000000 0.000000 0.000000 0.000000 0.010033 0.000000
# 6 0.000000 0.000000 0.000000 0.000000 0.000000 0.022037
#
#
# Mechanical properties :
#
#
# Convention : Reuss Voigt Hill
#
# Bulk Modulus (GPa) = 14.70022 23.44168 19.07095
# Shear Modulus (GPa) = 19.54116 41.97296 30.75706
#
# Velocity S-wave (km/s) = 3.08190 4.51677 3.86648
# Velocity P-wave (km/s) = 4.45076 6.21254 5.40393
#
# Compressibility (1/GPa) = 0.06802618
#
# Stress axis : x y z
#
# Youngs Moduli (GPa) = 111.45584 41.16909 25.99557
#
# Poissons Ratio (x) = 0.08915 0.05809
# Poissons Ratio (y) = 0.24134 -0.06624
# Poissons Ratio (z) = 0.24906 -0.10490
#
# Static dielectric constant tensor:
#      x y z
#    x 1.822950 0.000000 0.000000 
#    y 0.000000 1.741520 0.000000 
#    z 0.000000 0.000000 1.746190 
# 
# From -- ./inp_files/14453.got.cif
#   From: 2010.05.17/outbox.cif.g08.bks.cpg/sg65_8_cif.got.tgz:14453.got - 2010.06.03 17:01:31.
