data_PCOD9484307
_publ_section_title
;
Structure prediction by ZEFSAII (Michael W. Deem and Ramdas Pophale) SiO2 
 PCOD9484307
Probable space group: C M M M
;
_chemical_formula_sum "Si O2"
_cell_formula_units_Z 72
_cell_length_a 8.642724
_cell_length_b 34.379505
_cell_length_c 15.887922
_cell_angle_alpha 90.000000
_cell_angle_beta 90.000000
_cell_angle_gamma 90.000000
_cell_volume 4720.819143
_symmetry_space_group_name_H-M "C M M M"
_symmetry_group_IT_number 65
_symmetry_cell_setting 'orthorhombic'
loop_
_space_group_symop_operation_xyz
x,y,z
-x,-y,z
x,-y,-z
-x,y,-z
-x,-y,-z
x,y,-z
-x,y,z
x,-y,z
1/2+x,1/2+y,z
1/2-x,1/2-y,z
1/2+x,1/2-y,-z
1/2-x,1/2+y,-z
1/2-x,1/2-y,-z
1/2+x,1/2+y,-z
1/2-x,1/2+y,z
1/2+x,1/2-y,z
loop_
_atom_site_type_symbol
_atom_site_label
_atom_site_fract_x
_atom_site_fract_y
_atom_site_fract_z
Si Si1 0.315627 0.338233 0.837151
Si Si2 0.314390 0.793623 0.000000
Si Si3 0.821286 0.000000 0.102126
Si Si4 0.314816 0.205963 0.676125
Si Si5 0.315681 0.917204 0.899914
Si Si6 0.814706 0.794106 0.500000
O O1 0.500000 0.333755 0.835280
O O2 0.242336 0.319717 0.753790
O O3 0.269341 0.383092 0.850213
O O4 0.247165 0.315565 0.917575
O O5 0.250000 0.750000 0.000000
O O6 0.500000 0.793648 0.000000
O O7 0.737735 0.960137 0.127441
O O8 0.000000 0.000000 0.128739
O O9 0.818391 0.000000 0.000000
O O10 0.500000 0.207849 0.672907
O O11 0.250000 0.250000 0.686721
O O12 0.249454 0.189528 0.587705
O O13 0.500000 0.913151 0.891094
O O14 0.279088 0.912950 0.000000
O O15 0.750000 0.750000 0.500000
O O16 0.000000 0.793829 0.500000
#
# Coordination Sequence:
#
# PCOD9484307 Si02
#       6
#    16   8   8  16  16   8
#     4  12  23  35  50  70  96 128 165 205 244 287
#     4  12  24  38  50  65  90 127 168 206 242 284
#     4   9  17  29  47  69  93 122 159 198 240 288
#     4  11  21  35  52  72  97 127 163 203 248 294
#     4  10  19  32  49  69  95 126 162 201 243 288
#     4  10  18  32  52  74  96 121 156 199 248 296
#
# _framework density 15.25159
#
# number of rings (size 3 to 8) (size 9 to 14) (size 15 to 20)
#    0.000    1.222    1.111    9.000    0.000    2.222 
#    0.000    0.000    0.000    0.000    0.000    0.000 
#    0.000    0.889    0.000    8.889    0.000    5.333 
#
# Total GULP energy -201092.679512 kJ/mol
# GULP energy per Si atom -5585.907764 kJ/mol
# Density = 1.521688 g / cm^3
# Si number density = 15.251590 Si / 1000 Ang^3
#
#
#
# Elastic Constant Matrix: (Units=GPa)
#
#
# Indices 1 2 3 4 5 6 
#
# 1 156.6547 46.5514 59.3975 0.0000 0.0000 0.0000
# 2 46.5514 97.6587 50.0265 0.0000 0.0000 0.0000
# 3 59.3975 50.0265 122.1581 0.0000 0.0000 0.0000
# 4 0.0000 0.0000 0.0000 -2.1299 0.0000 0.0000
# 5 0.0000 0.0000 0.0000 0.0000 25.0201 0.0000
# 6 0.0000 0.0000 0.0000 0.0000 0.0000 28.6438
#
#
#
# Elastic Compliance Matrix: (Units=1/GPa)
#
#
# Indices 1 2 3 4 5 6 
#
# 1 0.008239 -0.002373 -0.003034 0.000000 0.000000 0.000000
# 2 -0.002373 0.013642 -0.004433 0.000000 0.000000 0.000000
# 3 -0.003034 -0.004433 0.011477 0.000000 0.000000 0.000000
# 4 0.000000 0.000000 0.000000 -0.469502 0.000000 0.000000
# 5 0.000000 0.000000 0.000000 0.000000 0.039968 0.000000
# 6 0.000000 0.000000 0.000000 0.000000 0.000000 0.034912
#
#
# Mechanical properties :
#
#
# Convention : Reuss Voigt Hill
#
# Bulk Modulus (GPa) = 73.11328 76.49139 74.80233
# Shear Modulus (GPa) = -14.83565 25.00654 5.08544
#
# Velocity S-wave (km/s) = -3.12224 4.05359 1.82801
# Velocity P-wave (km/s) = 5.91983 8.49534 7.32172
#
# Compressibility (1/GPa) = 0.01367741
#
# Stress axis : x y z
#
# Youngs Moduli (GPa) = 121.37187 73.30527 87.13225
#
# Poissons Ratio (x) = 0.17395 0.26439
# Poissons Ratio (y) = 0.28802 0.38623
# Poissons Ratio (z) = 0.36829 0.32494
#
# Static dielectric constant tensor:
#      x y z
#    x 1.508000 0.000000 0.000000 
#    y 0.000000 1.503500 0.000000 
#    z 0.000000 0.000000 1.506530 
# 
# From -- ./inp_files/37054.got.cif
#   From: 2010.05.17/outbox.cif.g08.bks.cpg/sg65_19_cif.got.tgz:37054.got - 2010.06.03 17:01:31.
