data_PCOD9484226
_publ_section_title
;
Structure prediction by ZEFSAII (Michael W. Deem and Ramdas Pophale) SiO2 
 PCOD9484226
Probable space group: C M M M
;
_chemical_formula_sum "Si O2"
_cell_formula_units_Z 88
_cell_length_a 31.238164
_cell_length_b 19.992322
_cell_length_c 7.901173
_cell_angle_alpha 90.000000
_cell_angle_beta 90.000000
_cell_angle_gamma 90.000000
_cell_volume 4934.467690
_symmetry_space_group_name_H-M "C M M M"
_symmetry_group_IT_number 65
_symmetry_cell_setting 'orthorhombic'
loop_
_space_group_symop_operation_xyz
x,y,z
-x,-y,z
x,-y,-z
-x,y,-z
-x,-y,-z
x,y,-z
-x,y,z
x,-y,z
1/2+x,1/2+y,z
1/2-x,1/2-y,z
1/2+x,1/2-y,-z
1/2-x,1/2+y,-z
1/2-x,1/2-y,-z
1/2+x,1/2+y,-z
1/2-x,1/2+y,z
1/2+x,1/2-y,z
loop_
_atom_site_type_symbol
_atom_site_label
_atom_site_fract_x
_atom_site_fract_y
_atom_site_fract_z
Si Si1 0.619722 0.390780 0.697651
Si Si2 0.421566 0.926957 0.500000
Si Si3 0.547339 0.783187 0.500000
Si Si4 0.891961 0.254216 0.811600
Si Si5 0.312102 0.500000 0.204196
Si Si6 0.856078 0.605465 0.200192
Si Si7 0.549686 0.500000 0.203118
Si Si8 0.715026 0.000000 0.203884
O O1 0.617730 0.374895 0.500000
O O2 0.623630 0.321573 0.797249
O O3 0.660608 0.436723 0.734795
O O4 0.577698 0.435360 0.741767
O O5 0.452256 0.863668 0.500000
O O6 0.391815 0.919505 0.667580
O O7 0.441591 0.000000 0.500000
O O8 0.500000 0.755238 0.500000
O O9 0.572890 0.762059 0.333435
O O10 0.857331 0.313717 0.784083
O O11 0.909701 0.265480 0.000000
O O12 0.263411 0.500000 0.268210
O O13 0.312479 0.500000 0.000000
O O14 0.812977 0.565612 0.247555
O O15 0.864832 0.590343 0.000000
O O16 0.500000 0.500000 0.262801
O O17 0.548936 0.500000 0.000000
O O18 0.718266 0.000000 0.000000
#
# Coordination Sequence:
#
# PCOD9484226 Si02
#       8
#    16   8   8  16   8  16   8   8
#     4  11  21  37  55  77 112 146 181 223 272 329
#     4  10  18  31  54  80 104 147 183 219 277 325
#     4  10  22  37  52  79 115 141 181 231 272 330
#     4  10  20  37  60  79 106 148 187 226 274 325
#     4  10  20  35  57  81 110 146 183 221 274 335
#     4   9  18  33  54  82 110 139 185 232 268 318
#     4  10  21  36  56  81 103 133 183 229 269 325
#     4   9  17  33  56  84 111 139 182 233 274 316
#
# _framework density 17.833735999999998
#
# number of rings (size 3 to 8) (size 9 to 14) (size 15 to 20)
#    0.000    2.091    1.818    3.273    0.000    2.000 
#    3.273    0.909    0.000    5.455    0.000    5.091 
#    0.000    0.000    0.000    0.000    0.000    0.000 
#
# Total GULP energy -245183.594251 kJ/mol
# GULP energy per Si atom -5572.354415 kJ/mol
# Density = 1.779315 g / cm^3
# Si number density = 17.833736 Si / 1000 Ang^3
#
#
#
# Elastic Constant Matrix: (Units=GPa)
#
#
# Indices 1 2 3 4 5 6 
#
# 1 121.7547 46.3521 30.6480 0.0000 0.0000 0.0000
# 2 46.3521 134.8779 20.1413 0.0000 0.0000 0.0000
# 3 30.6480 20.1413 91.4123 0.0000 0.0000 0.0000
# 4 0.0000 0.0000 0.0000 -41.4617 0.0000 0.0000
# 5 0.0000 0.0000 0.0000 0.0000 7.8558 0.0000
# 6 0.0000 0.0000 0.0000 0.0000 0.0000 -2.2146
#
#
#
# Elastic Compliance Matrix: (Units=1/GPa)
#
#
# Indices 1 2 3 4 5 6 
#
# 1 0.010055 -0.003052 -0.002698 0.000000 0.000000 0.000000
# 2 -0.003052 0.008593 -0.000870 0.000000 0.000000 0.000000
# 3 -0.002698 -0.000870 0.012036 0.000000 0.000000 0.000000
# 4 0.000000 0.000000 0.000000 -0.024119 0.000000 0.000000
# 5 0.000000 0.000000 0.000000 0.000000 0.127294 0.000000
# 6 0.000000 0.000000 0.000000 0.000000 0.000000 -0.451545
#
#
# Mechanical properties :
#
#
# Convention : Reuss Voigt Hill
#
# Bulk Modulus (GPa) = 57.33358 60.25864 58.79611
# Shear Modulus (GPa) = -16.74306 9.56280 -3.59013
#
# Velocity S-wave (km/s) = -3.06738 2.31815 -1.42038
# Velocity P-wave (km/s) = 4.43550 6.40528 5.50914
#
# Compressibility (1/GPa) = 0.01744179
#
# Stress axis : x y z
#
# Youngs Moduli (GPa) = 99.45771 116.37381 83.08510
#
# Poissons Ratio (x) = 0.35522 0.22420
# Poissons Ratio (y) = 0.30358 0.07228
# Poissons Ratio (z) = 0.26838 0.10124
#
# Static dielectric constant tensor:
#      x y z
#    x 1.577980 0.000000 0.000000 
#    y 0.000000 1.638740 0.000000 
#    z 0.000000 0.000000 1.621580 
# 
# From -- ./inp_files/18410.got.cif
#   From: 2010.05.17/outbox.cif.g08.bks.cpg/sg65_10_cif.got.tgz:18410.got - 2010.06.03 17:01:31.
