data_PCOD9484835
_publ_section_title
;
Structure prediction by ZEFSAII (Michael W. Deem and Ramdas Pophale) SiO2 
 PCOD9484835
Probable space group: C M M M
;
_chemical_formula_sum "Si O2"
_cell_formula_units_Z 96
_cell_length_a 20.965579
_cell_length_b 28.746073
_cell_length_c 7.312346
_cell_angle_alpha 90.000000
_cell_angle_beta 90.000000
_cell_angle_gamma 90.000000
_cell_volume 4406.990534
_symmetry_space_group_name_H-M "C M M M"
_symmetry_group_IT_number 65
_symmetry_cell_setting 'orthorhombic'
loop_
_space_group_symop_operation_xyz
x,y,z
-x,-y,z
x,-y,-z
-x,y,-z
-x,-y,-z
x,y,-z
-x,y,z
x,-y,z
1/2+x,1/2+y,z
1/2-x,1/2-y,z
1/2+x,1/2-y,-z
1/2-x,1/2+y,-z
1/2-x,1/2-y,-z
1/2+x,1/2+y,-z
1/2-x,1/2+y,z
1/2+x,1/2-y,z
loop_
_atom_site_type_symbol
_atom_site_label
_atom_site_fract_x
_atom_site_fract_y
_atom_site_fract_z
Si Si1 0.927175 0.447328 0.279635
Si Si2 0.311105 0.120383 0.212793
Si Si3 0.200914 0.947610 0.223614
Si Si4 0.071716 0.099883 0.222432
Si Si5 0.428131 0.706933 0.222449
Si Si6 0.315992 0.774411 0.223349
O O1 0.927447 0.447751 0.500000
O O2 0.910261 0.500000 0.219437
O O3 0.875704 0.409473 0.222641
O O4 0.000000 0.437605 0.220400
O O5 0.253668 0.089102 0.288519
O O6 0.318481 0.172305 0.287473
O O7 0.294878 0.127098 0.000000
O O8 0.130134 0.932156 0.280413
O O9 0.216003 0.000000 0.281334
O O10 0.201929 0.947431 0.000000
O O11 0.084222 0.153477 0.276773
O O12 0.000000 0.086896 0.281200
O O13 0.071135 0.099115 0.000000
O O14 0.500000 0.719322 0.278495
O O15 0.375179 0.743025 0.284804
O O16 0.427192 0.706926 0.000000
O O17 0.250000 0.750000 0.275670
O O18 0.318260 0.774518 0.000000
#
# Coordination Sequence:
#
# PCOD9484835 Si02
#       6
#    16  16  16  16  16  16
#     4   9  19  36  54  69  89 121 157 190 230 286
#     4  10  19  29  45  70  96 120 149 190 235 273
#     4   9  16  24  34  52  81 112 140 175 219 261
#     4   8  13  21  33  49  73 110 150 179 207 252
#     4   8  13  21  32  46  68 100 137 174 207 242
#     4   9  16  25  38  58  87 121 151 179 217 267
#
# _framework density 21.783574999999999
#
# number of rings (size 3 to 8) (size 9 to 14) (size 15 to 20)
#    0.000    3.167    0.000    3.000    0.000    6.333 
#    0.000    4.167    0.000    0.500    0.000    0.000 
#    0.000    0.667    0.000    3.500    0.000    4.000 
#
# Total GULP energy -268049.495289 kJ/mol
# GULP energy per Si atom -5584.364485 kJ/mol
# Density = 2.173399 g / cm^3
# Si number density = 21.783575 Si / 1000 Ang^3
#
#
#
# Elastic Constant Matrix: (Units=GPa)
#
#
# Indices 1 2 3 4 5 6 
#
# 1 68.6142 18.5850 -11.4427 0.0000 0.0000 0.0000
# 2 18.5850 50.9958 -8.1004 0.0000 0.0000 0.0000
# 3 -11.4427 -8.1004 85.6215 0.0000 0.0000 0.0000
# 4 0.0000 0.0000 0.0000 -11.9753 0.0000 0.0000
# 5 0.0000 0.0000 0.0000 0.0000 0.8006 0.0000
# 6 0.0000 0.0000 0.0000 0.0000 0.0000 43.1611
#
#
#
# Elastic Compliance Matrix: (Units=1/GPa)
#
#
# Indices 1 2 3 4 5 6 
#
# 1 0.016397 -0.005714 0.001651 0.000000 0.000000 0.000000
# 2 -0.005714 0.021900 0.001308 0.000000 0.000000 0.000000
# 3 0.001651 0.001308 0.012024 0.000000 0.000000 0.000000
# 4 0.000000 0.000000 0.000000 -0.083505 0.000000 0.000000
# 5 0.000000 0.000000 0.000000 0.000000 1.249076 0.000000
# 6 0.000000 0.000000 0.000000 0.000000 0.000000 0.023169
#
#
# Mechanical properties :
#
#
# Convention : Reuss Voigt Hill
#
# Bulk Modulus (GPa) = 22.31575 22.59058 22.45316
# Shear Modulus (GPa) = 3.96981 20.14324 12.05652
#
# Velocity S-wave (km/s) = 1.35142 3.04418 2.35514
# Velocity P-wave (km/s) = 3.56394 4.76960 4.21015
#
# Compressibility (1/GPa) = 0.04481140
#
# Stress axis : x y z
#
# Youngs Moduli (GPa) = 60.98619 45.66306 83.16903
#
# Poissons Ratio (x) = 0.26090 -0.13730
# Poissons Ratio (y) = 0.34845 -0.10881
# Poissons Ratio (z) = -0.10068 -0.05974
#
# Static dielectric constant tensor:
#      x y z
#    x 1.756650 0.000000 0.000000 
#    y 0.000000 1.749930 0.000000 
#    z 0.000000 0.000000 1.843810 
# 
# From -- ./inp_files/27355.got.cif
#   From: 2010.05.17/outbox.cif.g08.bks.cpg/sg65_14_cif.got.tgz:27355.got - 2010.06.03 17:01:31.
