data_PCOD9484395
_publ_section_title
;
Structure prediction by ZEFSAII (Michael W. Deem and Ramdas Pophale) SiO2 
 PCOD9484395
Probable space group: C M M M
;
_chemical_formula_sum "Si O2"
_cell_formula_units_Z 72
_cell_length_a 18.438187
_cell_length_b 8.683652
_cell_length_c 24.133247
_cell_angle_alpha 90.000000
_cell_angle_beta 90.000000
_cell_angle_gamma 90.000000
_cell_volume 3863.993470
_symmetry_space_group_name_H-M "C M M M"
_symmetry_group_IT_number 65
_symmetry_cell_setting 'orthorhombic'
loop_
_space_group_symop_operation_xyz
x,y,z
-x,-y,z
x,-y,-z
-x,y,-z
-x,-y,-z
x,y,-z
-x,y,z
x,-y,z
1/2+x,1/2+y,z
1/2-x,1/2-y,z
1/2+x,1/2-y,-z
1/2-x,1/2+y,-z
1/2-x,1/2-y,-z
1/2+x,1/2+y,-z
1/2-x,1/2+y,z
1/2+x,1/2-y,z
loop_
_atom_site_type_symbol
_atom_site_label
_atom_site_fract_x
_atom_site_fract_y
_atom_site_fract_z
Si Si1 0.332226 0.316018 0.221023
Si Si2 0.169165 0.682074 0.334600
Si Si3 0.913113 0.817924 0.562489
Si Si4 0.831865 0.684183 0.894024
Si Si5 0.413744 0.316829 0.000000
O O1 0.330825 0.500000 0.219032
O O2 0.250000 0.250000 0.222063
O O3 0.364500 0.258171 0.279099
O O4 0.363384 0.248719 0.164007
O O5 0.174016 0.500000 0.326256
O O6 0.250000 0.750000 0.341489
O O7 0.124605 0.723969 0.389159
O O8 0.890542 0.772840 0.500000
O O9 0.000000 0.801271 0.565632
O O10 0.896643 0.000000 0.569404
O O11 0.828420 0.500000 0.892021
O O12 0.750000 0.750000 0.899865
O O13 0.878114 0.741926 0.945803
O O14 0.399029 0.500000 0.000000
O O15 0.500000 0.293443 0.000000
#
# Coordination Sequence:
#
# PCOD9484395 Si02
#       5
#    16  16  16  16   8
#     4  10  18  32  54  80 110 141 177 220 268 318
#     4  11  21  34  54  81 112 143 178 221 269 319
#     4   9  19  37  58  78 104 140 180 222 270 323
#     4  11  21  36  59  85 112 142 182 224 265 317
#     4  11  24  41  58  79 111 147 182 223 274 323
#
# _framework density 18.633571
#
# number of rings (size 3 to 8) (size 9 to 14) (size 15 to 20)
#    0.000    1.667    0.000   10.000    0.000    2.222 
#    0.000    2.222    0.000    6.667    0.000    0.000 
#    0.000    0.000    0.000    0.000    0.000    0.000 
#
# Total GULP energy -201048.477780 kJ/mol
# GULP energy per Si atom -5584.679938 kJ/mol
# Density = 1.859116 g / cm^3
# Si number density = 18.633571 Si / 1000 Ang^3
#
#
#
# Elastic Constant Matrix: (Units=GPa)
#
#
# Indices 1 2 3 4 5 6 
#
# 1 27.7471 40.8724 42.0245 0.0000 0.0000 0.0000
# 2 40.8724 185.8140 90.8129 0.0000 0.0000 0.0000
# 3 42.0245 90.8129 181.3430 0.0000 0.0000 0.0000
# 4 0.0000 0.0000 0.0000 41.3170 0.0000 0.0000
# 5 0.0000 0.0000 0.0000 0.0000 -63.3265 0.0000
# 6 0.0000 0.0000 0.0000 0.0000 0.0000 22.4917
#
#
#
# Elastic Compliance Matrix: (Units=1/GPa)
#
#
# Indices 1 2 3 4 5 6 
#
# 1 0.065759 -0.009291 -0.010586 0.000000 0.000000 0.000000
# 2 -0.009291 0.008438 -0.002073 0.000000 0.000000 0.000000
# 3 -0.010586 -0.002073 0.009006 0.000000 0.000000 0.000000
# 4 0.000000 0.000000 0.000000 0.024203 0.000000 0.000000
# 5 0.000000 0.000000 0.000000 0.000000 -0.015791 0.000000
# 6 0.000000 0.000000 0.000000 0.000000 0.000000 0.044461
#
#
# Mechanical properties :
#
#
# Convention : Reuss Voigt Hill
#
# Bulk Modulus (GPa) = 25.44316 82.48042 53.96179
# Shear Modulus (GPa) = 25.89647 14.84274 20.36961
#
# Velocity S-wave (km/s) = 3.73201 2.82540 3.30989
# Velocity P-wave (km/s) = 5.67932 7.41649 6.60526
#
# Compressibility (1/GPa) = 0.03930329
#
# Stress axis : x y z
#
# Youngs Moduli (GPa) = 15.20705 118.50657 111.04091
#
# Poissons Ratio (x) = 1.10101 1.17553
# Poissons Ratio (y) = 0.14128 0.23016
# Poissons Ratio (z) = 0.16099 0.24563
#
# Static dielectric constant tensor:
#      x y z
#    x 1.622720 0.000000 0.000000 
#    y 0.000000 1.623180 0.000000 
#    z 0.000000 0.000000 1.681010 
# 
# From -- ./inp_files/64307.got.cif
#   From: 2010.05.17/outbox.cif.g08.bks.cpg/sg65_33_cif.got.tgz:64307.got - 2010.06.03 17:01:31.
