data_PCOD9484309
_publ_section_title
;
Structure prediction by ZEFSAII (Michael W. Deem and Ramdas Pophale) SiO2 
 PCOD9484309
Probable space group: C M M M
;
_chemical_formula_sum "Si O2"
_cell_formula_units_Z 120
_cell_length_a 29.300238
_cell_length_b 8.616112
_cell_length_c 29.173401
_cell_angle_alpha 90.000000
_cell_angle_beta 90.000000
_cell_angle_gamma 90.000000
_cell_volume 7364.945634
_symmetry_space_group_name_H-M "C M M M"
_symmetry_group_IT_number 65
_symmetry_cell_setting 'orthorhombic'
loop_
_space_group_symop_operation_xyz
x,y,z
-x,-y,z
x,-y,-z
-x,y,-z
-x,-y,-z
x,y,-z
-x,y,z
x,-y,z
1/2+x,1/2+y,z
1/2-x,1/2-y,z
1/2+x,1/2-y,-z
1/2-x,1/2+y,-z
1/2-x,1/2-y,-z
1/2+x,1/2+y,-z
1/2-x,1/2+y,z
1/2+x,1/2-y,z
loop_
_atom_site_type_symbol
_atom_site_label
_atom_site_fract_x
_atom_site_fract_y
_atom_site_fract_z
Si Si1 0.198222 0.814692 0.500000
Si Si2 0.198437 0.315056 0.404307
Si Si3 0.551826 0.814833 0.825943
Si Si4 0.948717 0.813531 0.723504
Si Si5 0.198666 0.314368 0.227264
Si Si6 0.300667 0.312770 0.948345
Si Si7 0.353315 0.313665 0.683393
Si Si8 0.143626 0.814303 0.859670
O O1 0.250000 0.750000 0.500000
O O2 0.178851 0.751936 0.547867
O O3 0.198733 0.000000 0.500000
O O4 0.201097 0.500000 0.407199
O O5 0.250000 0.250000 0.398377
O O6 0.168610 0.262063 0.361324
O O7 0.500000 0.771211 0.838874
O O8 0.557981 0.765391 0.772893
O O9 0.591089 0.733314 0.854803
O O10 0.556467 0.000000 0.829338
O O11 0.906515 0.772012 0.691073
O O12 0.000000 0.774675 0.707136
O O13 0.946806 0.000000 0.730442
O O14 0.199354 0.500000 0.230833
O O15 0.250000 0.250000 0.224630
O O16 0.173790 0.243571 0.271713
O O17 0.171083 0.263477 0.182091
O O18 0.298884 0.500000 0.948134
O O19 0.250000 0.250000 0.938915
O O20 0.334553 0.264560 0.907971
O O21 0.313630 0.262676 0.000000
O O22 0.349425 0.500000 0.680209
O O23 0.148061 0.000000 0.855179
#
# Coordination Sequence:
#
# PCOD9484309 Si02
#       8
#     8  16  16  16  16  16  16  16
#     4  10  18  32  52  74  99 130 173 218 260 301
#     4  11  21  34  51  73 103 138 176 214 258 303
#     4  10  20  33  51  75 102 131 167 210 253 299
#     4   9  18  33  53  74  99 132 170 211 253 301
#     4  12  24  36  49  69 102 138 172 206 247 299
#     4   9  19  35  54  76 101 129 165 208 252 299
#     4  11  21  34  51  74 104 136 172 209 253 304
#     4  11  21  34  53  76 101 132 168 206 252 304
#
# _framework density 16.293399000000001
#
# number of rings (size 3 to 8) (size 9 to 14) (size 15 to 20)
#    0.000    1.600    1.333    5.800    0.000    3.467 
#    0.000    0.000    0.000    0.400    0.000    3.267 
#    0.000    3.733    0.000    0.000    0.000    0.000 
#
# Total GULP energy -335002.728804 kJ/mol
# GULP energy per Si atom -5583.378813 kJ/mol
# Density = 1.625631 g / cm^3
# Si number density = 16.293399 Si / 1000 Ang^3
#
#
#
# Elastic Constant Matrix: (Units=GPa)
#
#
# Indices 1 2 3 4 5 6 
#
# 1 109.2006 38.9445 70.7160 0.0000 0.0000 0.0000
# 2 38.9445 81.8548 42.8568 0.0000 0.0000 0.0000
# 3 70.7160 42.8568 129.2320 0.0000 0.0000 0.0000
# 4 0.0000 0.0000 0.0000 19.3428 0.0000 0.0000
# 5 0.0000 0.0000 0.0000 0.0000 9.7003 0.0000
# 6 0.0000 0.0000 0.0000 0.0000 0.0000 20.8273
#
#
#
# Elastic Compliance Matrix: (Units=1/GPa)
#
#
# Indices 1 2 3 4 5 6 
#
# 1 0.014935 -0.003421 -0.007038 0.000000 0.000000 0.000000
# 2 -0.003421 0.015567 -0.003291 0.000000 0.000000 0.000000
# 3 -0.007038 -0.003291 0.012681 0.000000 0.000000 0.000000
# 4 0.000000 0.000000 0.000000 0.051699 0.000000 0.000000
# 5 0.000000 0.000000 0.000000 0.000000 0.103090 0.000000
# 6 0.000000 0.000000 0.000000 0.000000 0.000000 0.048014
#
#
# Mechanical properties :
#
#
# Convention : Reuss Voigt Hill
#
# Bulk Modulus (GPa) = 63.76013 69.48021 66.62017
# Shear Modulus (GPa) = 17.93964 21.15874 19.54919
#
# Velocity S-wave (km/s) = 3.32179 3.60753 3.46760
# Velocity P-wave (km/s) = 7.34369 7.75165 7.55043
#
# Compressibility (1/GPa) = 0.01568378
#
# Stress axis : x y z
#
# Youngs Moduli (GPa) = 66.95606 64.23771 78.86093
#
# Poissons Ratio (x) = 0.21975 0.55503
# Poissons Ratio (y) = 0.22905 0.25950
# Poissons Ratio (z) = 0.47124 0.21138
#
# Static dielectric constant tensor:
#      x y z
#    x 1.509450 0.000000 0.000000 
#    y 0.000000 1.545660 0.000000 
#    z 0.000000 0.000000 1.539060 
# 
# From -- ./inp_files/76151.got.cif
#   From: 2010.05.17/outbox.cif.g08.bks.cpg/sg65_39_cif.got.tgz:76151.got - 2010.06.03 17:01:31.
