data_PCOD9484901
_publ_section_title
;
Structure prediction by ZEFSAII (Michael W. Deem and Ramdas Pophale) SiO2 
 PCOD9484901
Probable space group: C M M M
;
_chemical_formula_sum "Si O2"
_cell_formula_units_Z 88
_cell_length_a 34.740375
_cell_length_b 8.675692
_cell_length_c 21.868674
_cell_angle_alpha 90.000000
_cell_angle_beta 90.000000
_cell_angle_gamma 90.000000
_cell_volume 6591.148221
_symmetry_space_group_name_H-M "C M M M"
_symmetry_group_IT_number 65
_symmetry_cell_setting 'orthorhombic'
loop_
_space_group_symop_operation_xyz
x,y,z
-x,-y,z
x,-y,-z
-x,y,-z
-x,-y,-z
x,y,-z
-x,y,z
x,-y,z
1/2+x,1/2+y,z
1/2-x,1/2-y,z
1/2+x,1/2-y,-z
1/2-x,1/2+y,-z
1/2-x,1/2-y,-z
1/2+x,1/2+y,-z
1/2-x,1/2+y,z
1/2+x,1/2-y,z
loop_
_atom_site_type_symbol
_atom_site_label
_atom_site_fract_x
_atom_site_fract_y
_atom_site_fract_z
Si Si1 0.659506 0.684890 0.879741
Si Si2 0.793422 0.314125 0.631565
Si Si3 0.792926 0.185853 0.000000
Si Si4 0.793733 0.313471 0.500000
Si Si5 0.500000 0.678178 0.925821
Si Si6 0.206472 0.685460 0.233732
Si Si7 0.581585 0.184278 0.071713
O O1 0.659673 0.500000 0.877589
O O2 0.684169 0.734851 0.939305
O O3 0.679789 0.750606 0.819682
O O4 0.616363 0.744144 0.890229
O O5 0.792110 0.500000 0.631483
O O6 0.750000 0.250000 0.631098
O O7 0.811144 0.265521 0.565904
O O8 0.808853 0.268723 0.698368
O O9 0.750000 0.250000 0.000000
O O10 0.791365 0.000000 0.000000
O O11 0.792324 0.500000 0.500000
O O12 0.750000 0.250000 0.500000
O O13 0.500000 0.500000 0.907335
O O14 0.539627 0.759202 0.906970
O O15 0.500000 0.684415 0.000000
O O16 0.208178 0.500000 0.230209
O O17 0.250000 0.750000 0.227092
O O18 0.583226 0.000000 0.074150
O O19 0.586304 0.231356 0.000000
#
# Coordination Sequence:
#
# PCOD9484901 Si02
#       7
#    16  16   8   8   8  16  16
#     4  11  21  33  45  58  76 102 133 168 205 244
#     4   8  14  23  36  52  72  94 122 157 194 234
#     4  10  22  34  44  55  70  93 128 170 209 242
#     4   8  12  20  34  52  70  92 118 151 192 231
#     4   9  17  29  47  67  87 107 123 148 187 236
#     4  10  19  30  41  56  76 102 134 169 205 242
#     4  10  19  31  47  66  84 102 125 158 197 240
#
# _framework density 13.351240000000001
#
# number of rings (size 3 to 8) (size 9 to 14) (size 15 to 20)
#    0.000    2.455    0.909    2.455    0.000    5.455 
#    0.000    0.000    0.000    0.000    0.000    0.000 
#    0.000    0.000    0.000    0.000    0.000    0.909 
#
# Total GULP energy -244977.155739 kJ/mol
# GULP energy per Si atom -5567.662630 kJ/mol
# Density = 1.332085 g / cm^3
# Si number density = 13.351240 Si / 1000 Ang^3
#
#
#
# Elastic Constant Matrix: (Units=GPa)
#
#
# Indices 1 2 3 4 5 6 
#
# 1 83.4935 24.4375 52.1639 0.0000 0.0000 0.0000
# 2 24.4375 31.0323 29.1866 0.0000 0.0000 0.0000
# 3 52.1639 29.1866 132.5458 0.0000 0.0000 0.0000
# 4 0.0000 0.0000 0.0000 10.9263 0.0000 0.0000
# 5 0.0000 0.0000 0.0000 0.0000 1.6975 0.0000
# 6 0.0000 0.0000 0.0000 0.0000 0.0000 21.4989
#
#
#
# Elastic Compliance Matrix: (Units=1/GPa)
#
#
# Indices 1 2 3 4 5 6 
#
# 1 0.017810 -0.009374 -0.004945 0.000000 0.000000 0.000000
# 2 -0.009374 0.045576 -0.006346 0.000000 0.000000 0.000000
# 3 -0.004945 -0.006346 0.010888 0.000000 0.000000 0.000000
# 4 0.000000 0.000000 0.000000 0.091522 0.000000 0.000000
# 5 0.000000 0.000000 0.000000 0.000000 0.589096 0.000000
# 6 0.000000 0.000000 0.000000 0.000000 0.000000 0.046514
#
#
# Mechanical properties :
#
#
# Convention : Reuss Voigt Hill
#
# Bulk Modulus (GPa) = 30.35605 50.96085 40.65845
# Shear Modulus (GPa) = 5.85673 16.24347 11.05010
#
# Velocity S-wave (km/s) = 2.09671 3.49180 2.88000
# Velocity P-wave (km/s) = 5.35233 7.38303 6.44812
#
# Compressibility (1/GPa) = 0.03294237
#
# Stress axis : x y z
#
# Youngs Moduli (GPa) = 56.14755 21.94154 91.84262
#
# Poissons Ratio (x) = 0.20569 0.45417
# Poissons Ratio (y) = 0.52635 0.58287
# Poissons Ratio (z) = 0.27765 0.13925
#
# Static dielectric constant tensor:
#      x y z
#    x 1.399450 0.000000 0.000000 
#    y 0.000000 1.449590 0.000000 
#    z 0.000000 0.000000 1.479140 
# 
# From -- ./inp_files/66270.got.cif
#   From: 2010.05.17/outbox.cif.g08.bks.cpg/sg65_34_cif.got.tgz:66270.got - 2010.06.03 17:01:31.
