data_PCOD9484004
_publ_section_title
;
Structure prediction by ZEFSAII (Michael W. Deem and Ramdas Pophale) SiO2 
 PCOD9484004
Probable space group: C M M M
;
_chemical_formula_sum "Si O2"
_cell_formula_units_Z 104
_cell_length_a 8.995672
_cell_length_b 24.793662
_cell_length_c 28.507839
_cell_angle_alpha 90.000000
_cell_angle_beta 90.000000
_cell_angle_gamma 90.000000
_cell_volume 6358.264431
_symmetry_space_group_name_H-M "C M M M"
_symmetry_group_IT_number 65
_symmetry_cell_setting 'orthorhombic'
loop_
_space_group_symop_operation_xyz
x,y,z
-x,-y,z
x,-y,-z
-x,y,-z
-x,-y,-z
x,y,-z
-x,y,z
x,-y,z
1/2+x,1/2+y,z
1/2-x,1/2-y,z
1/2+x,1/2-y,-z
1/2-x,1/2+y,-z
1/2-x,1/2-y,-z
1/2+x,1/2+y,-z
1/2-x,1/2+y,z
1/2+x,1/2-y,z
loop_
_atom_site_type_symbol
_atom_site_label
_atom_site_fract_x
_atom_site_fract_y
_atom_site_fract_z
Si Si1 0.177986 0.936927 0.192225
Si Si2 0.821252 0.895494 0.706374
Si Si3 0.171544 0.434376 0.904317
Si Si4 0.333082 0.000000 0.662726
Si Si5 0.821916 0.691344 0.641258
Si Si6 0.328464 0.565737 0.000000
Si Si7 0.282075 0.000000 0.553970
Si Si8 0.677403 0.883714 0.447702
O O1 0.216088 0.903900 0.238819
O O2 0.251706 0.917502 0.144132
O O3 0.000000 0.935872 0.186532
O O4 0.220136 0.000000 0.200160
O O5 0.748943 0.843064 0.683368
O O6 0.000000 0.894863 0.701673
O O7 0.754438 0.947262 0.679479
O O8 0.179141 0.500000 0.904493
O O9 0.000000 0.418757 0.904833
O O10 0.250530 0.416075 0.952051
O O11 0.347294 0.000000 0.606531
O O12 0.500000 0.000000 0.682703
O O13 0.750000 0.750000 0.638636
O O14 0.790719 0.657548 0.593640
O O15 0.000000 0.694740 0.646384
O O16 0.322004 0.500000 0.000000
O O17 0.500000 0.581313 0.000000
O O18 0.223750 0.938190 0.554844
O O19 0.345864 0.000000 0.500000
O O20 0.693883 0.860505 0.500000
O O21 0.500000 0.899843 0.443174
#
# Coordination Sequence:
#
# PCOD9484004 Si02
#       8
#    16  16  16   8  16   8   8  16
#     4   9  17  30  45  64  92 127 162 196 244 301
#     4  11  22  37  54  75 103 134 165 208 257 304
#     4   9  16  24  36  57  85 118 160 209 249 282
#     4  12  21  32  54  82 104 131 167 203 248 307
#     4  11  23  39  57  77  98 128 169 210 253 304
#     4   9  15  23  35  51  77 121 168 205 242 289
#     4  10  18  30  52  82 110 132 159 200 250 304
#     4   9  17  30  51  78 105 131 161 199 245 298
#
# _framework density 16.356665
#
# number of rings (size 3 to 8) (size 9 to 14) (size 15 to 20)
#    0.000    2.077    2.308    2.538    0.000    6.000 
#    0.000    0.000    0.000    3.231    0.000    0.000 
#    0.000    0.000    0.000    0.692    0.000    9.308 
#
# Total GULP energy -289473.412944 kJ/mol
# GULP energy per Si atom -5566.796403 kJ/mol
# Density = 1.631944 g / cm^3
# Si number density = 16.356665 Si / 1000 Ang^3
#
#
#
# Elastic Constant Matrix: (Units=GPa)
#
#
# Indices 1 2 3 4 5 6 
#
# 1 67.3767 38.9689 69.7239 0.0000 0.0000 0.0000
# 2 38.9689 92.6348 57.2075 0.0000 0.0000 0.0000
# 3 69.7239 57.2075 178.9182 0.0000 0.0000 0.0000
# 4 0.0000 0.0000 0.0000 8.1967 0.0000 0.0000
# 5 0.0000 0.0000 0.0000 0.0000 14.3675 0.0000
# 6 0.0000 0.0000 0.0000 0.0000 0.0000 14.5256
#
#
#
# Elastic Compliance Matrix: (Units=1/GPa)
#
#
# Indices 1 2 3 4 5 6 
#
# 1 0.027423 -0.006151 -0.008720 0.000000 0.000000 0.000000
# 2 -0.006151 0.014831 -0.002345 0.000000 0.000000 0.000000
# 3 -0.008720 -0.002345 0.009737 0.000000 0.000000 0.000000
# 4 0.000000 0.000000 0.000000 0.122001 0.000000 0.000000
# 5 0.000000 0.000000 0.000000 0.000000 0.069601 0.000000
# 6 0.000000 0.000000 0.000000 0.000000 0.000000 0.068844
#
#
# Mechanical properties :
#
#
# Convention : Reuss Voigt Hill
#
# Bulk Modulus (GPa) = 56.95056 74.52558 65.73807
# Shear Modulus (GPa) = 14.17543 18.95325 16.56434
#
# Velocity S-wave (km/s) = 2.94708 3.40773 3.18574
# Velocity P-wave (km/s) = 6.81718 7.81954 7.33550
#
# Compressibility (1/GPa) = 0.01755909
#
# Stress axis : x y z
#
# Youngs Moduli (GPa) = 36.46522 67.42709 102.70000
#
# Poissons Ratio (x) = 0.41475 0.89555
# Poissons Ratio (y) = 0.22430 0.24083
# Poissons Ratio (z) = 0.31798 0.15811
#
# Static dielectric constant tensor:
#      x y z
#    x 1.564840 0.000000 0.000000 
#    y 0.000000 1.529590 0.000000 
#    z 0.000000 0.000000 1.555290 
# 
# From -- ./inp_files/73641.got.cif
#   From: 2010.05.17/outbox.cif.g08.bks.cpg/sg65_37_cif.got.tgz:73641.got - 2010.06.03 17:01:31.
