data_PCOD9484155
_publ_section_title
;
Structure prediction by ZEFSAII (Michael W. Deem and Ramdas Pophale) SiO2 
 PCOD9484155
Probable space group: C M M M
;
_chemical_formula_sum "Si O2"
_cell_formula_units_Z 80
_cell_length_a 17.409899
_cell_length_b 24.941158
_cell_length_c 7.541043
_cell_angle_alpha 90.000000
_cell_angle_beta 90.000000
_cell_angle_gamma 90.000000
_cell_volume 3274.494629
_symmetry_space_group_name_H-M "C M M M"
_symmetry_group_IT_number 65
_symmetry_cell_setting 'orthorhombic'
loop_
_space_group_symop_operation_xyz
x,y,z
-x,-y,z
x,-y,-z
-x,y,-z
-x,-y,-z
x,y,-z
-x,y,z
x,-y,z
1/2+x,1/2+y,z
1/2-x,1/2-y,z
1/2+x,1/2-y,-z
1/2-x,1/2+y,-z
1/2-x,1/2-y,-z
1/2+x,1/2+y,-z
1/2-x,1/2+y,z
1/2+x,1/2-y,z
loop_
_atom_site_type_symbol
_atom_site_label
_atom_site_fract_x
_atom_site_fract_y
_atom_site_fract_z
Si Si1 0.415548 0.268852 0.284956
Si Si2 0.295987 0.185879 0.300595
Si Si3 0.830193 0.500000 0.294631
Si Si4 0.850143 0.119507 0.284029
Si Si5 0.414276 0.105453 0.798663
Si Si6 0.146109 0.000000 0.705722
O O1 0.414121 0.263639 0.500000
O O2 0.500000 0.248978 0.224260
O O3 0.336484 0.239429 0.221962
O O4 0.408117 0.332058 0.245153
O O5 0.268030 0.196799 0.500000
O O6 0.231261 0.145981 0.221318
O O7 0.371526 0.149502 0.312376
O O8 0.853512 0.500000 0.500000
O O9 0.865312 0.448047 0.207590
O O10 0.738779 0.500000 0.290225
O O11 0.843873 0.113559 0.500000
O O12 0.872064 0.059689 0.219313
O O13 0.500000 0.094097 0.738392
O O14 0.416041 0.125610 0.000000
O O15 0.118865 0.000000 0.500000
#
# Coordination Sequence:
#
# PCOD9484155 Si02
#       6
#    16  16   8  16  16   8
#     4   9  17  28  45  73 104 132 168 216 266 312
#     4  10  18  31  52  75  99 133 176 214 248 298
#     4  11  20  34  53  73  98 133 179 220 251 295
#     4   9  16  28  47  71 100 131 169 217 262 303
#     4  11  23  35  47  70 106 142 171 207 260 310
#     4   9  16  28  47  73  97 124 165 210 252 300
#
# _framework density 24.431249999999999
#
# number of rings (size 3 to 8) (size 9 to 14) (size 15 to 20)
#    0.000    2.200    2.000    2.400    0.000    6.000 
#    0.000    0.500    0.000    5.400    0.000    0.000 
#    0.000    0.000    0.000    1.800    0.000    2.600 
#
# Total GULP energy -223075.552214 kJ/mol
# GULP energy per Si atom -5576.888805 kJ/mol
# Density = 2.437564 g / cm^3
# Si number density = 24.431250 Si / 1000 Ang^3
#
#
#
# Elastic Constant Matrix: (Units=GPa)
#
#
# Indices 1 2 3 4 5 6 
#
# 1 54.9794 -5.8243 1.1420 0.0000 0.0000 0.0000
# 2 -5.8243 169.1178 -1.3727 0.0000 0.0000 0.0000
# 3 1.1420 -1.3727 61.0408 0.0000 0.0000 0.0000
# 4 0.0000 0.0000 0.0000 -13.0511 0.0000 0.0000
# 5 0.0000 0.0000 0.0000 0.0000 53.2006 0.0000
# 6 0.0000 0.0000 0.0000 0.0000 0.0000 13.5617
#
#
#
# Elastic Compliance Matrix: (Units=1/GPa)
#
#
# Indices 1 2 3 4 5 6 
#
# 1 0.018262 0.000626 -0.000328 0.000000 0.000000 0.000000
# 2 0.000626 0.005936 0.000122 0.000000 0.000000 0.000000
# 3 -0.000328 0.000122 0.016391 0.000000 0.000000 0.000000
# 4 0.000000 0.000000 0.000000 -0.076622 0.000000 0.000000
# 5 0.000000 0.000000 0.000000 0.000000 0.018797 0.000000
# 6 0.000000 0.000000 0.000000 0.000000 0.000000 0.073737
#
#
# Mechanical properties :
#
#
# Convention : Reuss Voigt Hill
#
# Bulk Modulus (GPa) = 24.13731 30.33644 27.23688
# Shear Modulus (GPa) = 71.97344 30.15509 51.06427
#
# Velocity S-wave (km/s) = 5.43356 3.51705 4.57674
# Velocity P-wave (km/s) = 7.01896 5.37930 6.25311
#
# Compressibility (1/GPa) = 0.04142963
#
# Stress axis : x y z
#
# Youngs Moduli (GPa) = 54.75920 168.47514 61.00778
#
# Poissons Ratio (x) = -0.10551 0.01998
# Poissons Ratio (y) = -0.03429 -0.00743
# Poissons Ratio (z) = 0.01794 -0.02051
#
# Static dielectric constant tensor:
#      x y z
#    x 1.930420 0.000000 0.000000 
#    y 0.000000 2.017490 0.000000 
#    z 0.000000 0.000000 1.975820 
# 
# From -- ./inp_files/9704.got.cif
#   From: 2010.05.17/outbox.cif.g08.bks.cpg/sg65_5_cif.got.tgz:9704.got - 2010.06.03 17:01:31.
