data_PCOD9484479
_publ_section_title
;
Structure prediction by ZEFSAII (Michael W. Deem and Ramdas Pophale) SiO2 
 PCOD9484479
Probable space group: C M M M
;
_chemical_formula_sum "Si O2"
_cell_formula_units_Z 88
_cell_length_a 20.331884
_cell_length_b 19.085531
_cell_length_c 14.143142
_cell_angle_alpha 90.000000
_cell_angle_beta 90.000000
_cell_angle_gamma 90.000000
_cell_volume 5488.172742
_symmetry_space_group_name_H-M "C M M M"
_symmetry_group_IT_number 65
_symmetry_cell_setting 'orthorhombic'
loop_
_space_group_symop_operation_xyz
x,y,z
-x,-y,z
x,-y,-z
-x,y,-z
-x,-y,-z
x,y,-z
-x,y,z
x,-y,z
1/2+x,1/2+y,z
1/2-x,1/2-y,z
1/2+x,1/2-y,-z
1/2-x,1/2+y,-z
1/2-x,1/2-y,-z
1/2+x,1/2+y,-z
1/2-x,1/2+y,z
1/2+x,1/2-y,z
loop_
_atom_site_type_symbol
_atom_site_label
_atom_site_fract_x
_atom_site_fract_y
_atom_site_fract_z
Si Si1 0.328011 0.919046 0.706770
Si Si2 0.762852 0.920747 0.893993
Si Si3 0.078831 0.579111 0.000000
Si Si4 0.319730 0.293442 0.198100
Si Si5 0.422046 0.170319 0.186131
Si Si6 0.778363 0.828729 0.396376
O O1 0.288079 0.916300 0.806813
O O2 0.393249 0.874243 0.726049
O O3 0.280747 0.881107 0.631736
O O4 0.340570 0.000000 0.684565
O O5 0.813258 0.858132 0.873216
O O6 0.790117 0.000000 0.890540
O O7 0.734897 0.910786 0.000000
O O8 0.092258 0.623411 0.093573
O O9 0.107054 0.500000 0.000000
O O10 0.000000 0.571036 0.000000
O O11 0.250000 0.250000 0.192776
O O12 0.378690 0.240348 0.179792
O O13 0.324522 0.325001 0.304268
O O14 0.500000 0.182467 0.192477
O O15 0.805743 0.846540 0.500000
O O16 0.750000 0.750000 0.401859
#
# Coordination Sequence:
#
# PCOD9484479 Si02
#       6
#    16  16   8  16  16  16
#     4  10  19  31  47  73 103 132 167 201 244 301
#     4   9  18  30  48  73 100 128 160 207 260 303
#     4   9  20  34  45  64 101 149 185 204 237 291
#     4  10  18  33  50  74  96 128 168 211 256 297
#     4  11  21  33  48  71 103 139 177 211 244 291
#     4   9  16  31  53  72  93 124 165 208 251 295
#
# _framework density 16.034481
#
# number of rings (size 3 to 8) (size 9 to 14) (size 15 to 20)
#    0.000    2.273    5.455    0.545    2.545    1.818 
#    0.000    0.000    0.000    2.727    0.000    2.545 
#    0.000    0.000    0.000    9.091    0.000    0.000 
#
# Total GULP energy -244964.776393 kJ/mol
# GULP energy per Si atom -5567.381282 kJ/mol
# Density = 1.599799 g / cm^3
# Si number density = 16.034481 Si / 1000 Ang^3
#
#
#
# Elastic Constant Matrix: (Units=GPa)
#
#
# Indices 1 2 3 4 5 6 
#
# 1 74.5453 58.8998 13.9751 0.0000 0.0000 0.0000
# 2 58.8998 107.5306 26.0426 0.0000 0.0000 0.0000
# 3 13.9751 26.0426 75.2144 0.0000 0.0000 0.0000
# 4 0.0000 0.0000 0.0000 5.4455 0.0000 0.0000
# 5 0.0000 0.0000 0.0000 0.0000 11.6443 0.0000
# 6 0.0000 0.0000 0.0000 0.0000 0.0000 21.0773
#
#
#
# Elastic Compliance Matrix: (Units=1/GPa)
#
#
# Indices 1 2 3 4 5 6 
#
# 1 0.023651 -0.012979 0.000099 0.000000 0.000000 0.000000
# 2 -0.012979 0.017273 -0.003569 0.000000 0.000000 0.000000
# 3 0.000099 -0.003569 0.014513 0.000000 0.000000 0.000000
# 4 0.000000 0.000000 0.000000 0.183636 0.000000 0.000000
# 5 0.000000 0.000000 0.000000 0.000000 0.085879 0.000000
# 6 0.000000 0.000000 0.000000 0.000000 0.000000 0.047444
#
#
# Mechanical properties :
#
#
# Convention : Reuss Voigt Hill
#
# Bulk Modulus (GPa) = 44.36657 50.56949 47.46803
# Shear Modulus (GPa) = 12.11219 18.19162 15.15191
#
# Velocity S-wave (km/s) = 2.75141 3.37193 3.07735
# Velocity P-wave (km/s) = 6.15006 6.83859 6.50344
#
# Compressibility (1/GPa) = 0.02253949
#
# Stress axis : x y z
#
# Youngs Moduli (GPa) = 42.28174 57.89296 68.90525
#
# Poissons Ratio (x) = 0.75138 -0.00685
# Poissons Ratio (y) = 0.54877 0.24594
# Poissons Ratio (z) = -0.00420 0.20664
#
# Static dielectric constant tensor:
#      x y z
#    x 1.538190 0.000000 0.000000 
#    y 0.000000 1.555320 0.000000 
#    z 0.000000 0.000000 1.581790 
# 
# From -- ./inp_files/42758.got.cif
#   From: 2010.05.17/outbox.cif.g08.bks.cpg/sg65_22_cif.got.tgz:42758.got - 2010.06.03 17:01:31.
