data_PCOD9484107
_publ_section_title
;
Structure prediction by ZEFSAII (Michael W. Deem and Ramdas Pophale) SiO2 
 PCOD9484107
Probable space group: C M M M
;
_chemical_formula_sum "Si O2"
_cell_formula_units_Z 88
_cell_length_a 8.724386
_cell_length_b 18.945585
_cell_length_c 29.644178
_cell_angle_alpha 90.000000
_cell_angle_beta 90.000000
_cell_angle_gamma 90.000000
_cell_volume 4899.844577
_symmetry_space_group_name_H-M "C M M M"
_symmetry_group_IT_number 65
_symmetry_cell_setting 'orthorhombic'
loop_
_space_group_symop_operation_xyz
x,y,z
-x,-y,z
x,-y,-z
-x,y,-z
-x,-y,-z
x,y,-z
-x,y,z
x,-y,z
1/2+x,1/2+y,z
1/2-x,1/2-y,z
1/2+x,1/2-y,-z
1/2-x,1/2+y,-z
1/2-x,1/2-y,-z
1/2+x,1/2+y,-z
1/2-x,1/2+y,z
1/2+x,1/2-y,z
loop_
_atom_site_type_symbol
_atom_site_label
_atom_site_fract_x
_atom_site_fract_y
_atom_site_fract_z
Si Si1 0.316714 0.170094 0.225169
Si Si2 0.315454 0.329126 0.681773
Si Si3 0.680796 0.915279 0.500000
Si Si4 0.815632 0.081748 0.405941
Si Si5 0.681795 0.671329 0.867501
Si Si6 0.682429 0.915928 0.948575
O O1 0.500000 0.171755 0.225807
O O2 0.250000 0.250000 0.224877
O O3 0.251829 0.139150 0.271758
O O4 0.255887 0.139174 0.178136
O O5 0.500000 0.326230 0.685121
O O6 0.250000 0.250000 0.677110
O O7 0.270997 0.373893 0.637896
O O8 0.500000 0.903953 0.500000
O O9 0.751405 0.888904 0.546879
O O10 0.711079 0.000000 0.500000
O O11 0.000000 0.082167 0.408689
O O12 0.765647 0.000000 0.401010
O O13 0.500000 0.676316 0.861612
O O14 0.750000 0.750000 0.873297
O O15 0.726095 0.625935 0.910891
O O16 0.500000 0.902863 0.942948
O O17 0.706343 0.000000 0.944233
O O18 0.723761 0.895776 0.000000
#
# Coordination Sequence:
#
# PCOD9484107 Si02
#       6
#    16  16   8  16  16  16
#     4  10  18  31  51  73 100 133 168 206 250 300
#     4  10  19  32  51  74 100 130 164 202 246 297
#     4   9  17  29  48  73  98 125 159 201 246 291
#     4   9  18  33  52  72  96 128 164 201 242 290
#     4  11  21  34  54  79 106 135 172 216 256 298
#     4   9  19  37  58  78 104 138 172 208 255 309
#
# _framework density 17.959754
#
# number of rings (size 3 to 8) (size 9 to 14) (size 15 to 20)
#    0.000    2.273    0.000    6.818    0.000    3.636 
#    0.000    2.273    0.000    3.273    0.000    0.000 
#    0.000    0.000    0.000    0.000    0.000    0.000 
#
# Total GULP energy -245410.357856 kJ/mol
# GULP energy per Si atom -5577.508133 kJ/mol
# Density = 1.791888 g / cm^3
# Si number density = 17.959754 Si / 1000 Ang^3
#
#
#
# Elastic Constant Matrix: (Units=GPa)
#
#
# Indices 1 2 3 4 5 6 
#
# 1 93.9966 22.7726 73.2504 0.0000 0.0000 0.0000
# 2 22.7726 26.6300 48.2924 0.0000 0.0000 0.0000
# 3 73.2504 48.2924 189.2616 0.0000 0.0000 0.0000
# 4 0.0000 0.0000 0.0000 41.6579 0.0000 0.0000
# 5 0.0000 0.0000 0.0000 0.0000 18.7549 0.0000
# 6 0.0000 0.0000 0.0000 0.0000 0.0000 17.1298
#
#
#
# Elastic Compliance Matrix: (Units=1/GPa)
#
#
# Indices 1 2 3 4 5 6 
#
# 1 0.015508 -0.004424 -0.004873 0.000000 0.000000 0.000000
# 2 -0.004424 0.071155 -0.016444 0.000000 0.000000 0.000000
# 3 -0.004873 -0.016444 0.011366 0.000000 0.000000 0.000000
# 4 0.000000 0.000000 0.000000 0.024005 0.000000 0.000000
# 5 0.000000 0.000000 0.000000 0.000000 0.053319 0.000000
# 6 0.000000 0.000000 0.000000 0.000000 0.000000 0.058378
#
#
# Mechanical properties :
#
#
# Convention : Reuss Voigt Hill
#
# Bulk Modulus (GPa) = 21.48403 66.50211 43.99307
# Shear Modulus (GPa) = 16.62626 26.54672 21.58649
#
# Velocity S-wave (km/s) = 3.04592 3.84881 3.47066
# Velocity P-wave (km/s) = 4.93543 7.54055 6.37253
#
# Compressibility (1/GPa) = 0.04654621
#
# Stress axis : x y z
#
# Youngs Moduli (GPa) = 64.48181 14.05383 87.98469
#
# Poissons Ratio (x) = 0.06218 0.42877
# Poissons Ratio (y) = 0.28529 1.44679
# Poissons Ratio (z) = 0.31424 0.23110
#
# Static dielectric constant tensor:
#      x y z
#    x 1.600160 0.000000 0.000000 
#    y 0.000000 1.603120 0.000000 
#    z 0.000000 0.000000 1.649260 
# 
# From -- ./inp_files/76487.got.cif
#   From: 2010.05.17/outbox.cif.g08.bks.cpg/sg65_39_cif.got.tgz:76487.got - 2010.06.03 17:01:31.
