data_PCOD9484598
_publ_section_title
;
Structure prediction by ZEFSAII (Michael W. Deem and Ramdas Pophale) SiO2 
 PCOD9484598
Probable space group: C M M M
;
_chemical_formula_sum "Si O2"
_cell_formula_units_Z 108
_cell_length_a 15.755877
_cell_length_b 23.416308
_cell_length_c 15.803642
_cell_angle_alpha 90.000000
_cell_angle_beta 90.000000
_cell_angle_gamma 90.000000
_cell_volume 5830.666300
_symmetry_space_group_name_H-M "C M M M"
_symmetry_group_IT_number 65
_symmetry_cell_setting 'orthorhombic'
loop_
_space_group_symop_operation_xyz
x,y,z
-x,-y,z
x,-y,-z
-x,y,-z
-x,-y,-z
x,y,-z
-x,y,z
x,-y,z
1/2+x,1/2+y,z
1/2-x,1/2-y,z
1/2+x,1/2-y,-z
1/2-x,1/2+y,-z
1/2-x,1/2-y,-z
1/2+x,1/2+y,-z
1/2-x,1/2+y,z
1/2+x,1/2-y,z
loop_
_atom_site_type_symbol
_atom_site_label
_atom_site_fract_x
_atom_site_fract_y
_atom_site_fract_z
Si Si1 0.601894 0.000000 0.598226
Si Si2 0.096889 0.737834 0.690053
Si Si3 0.898048 0.937626 0.728217
Si Si4 0.000000 0.721864 0.000000
Si Si5 0.397202 0.609179 0.906400
Si Si6 0.151788 0.758916 0.121863
Si Si7 0.140594 0.374229 0.597345
Si Si8 0.661552 0.344542 0.405276
O O1 0.632005 0.938723 0.632398
O O2 0.500000 0.000000 0.600663
O O3 0.630856 0.000000 0.500000
O O4 0.143484 0.743527 0.779402
O O5 0.097670 0.673926 0.654115
O O6 0.140402 0.780582 0.623604
O O7 0.000000 0.757498 0.702077
O O8 0.867711 0.924965 0.823884
O O9 0.874468 0.887820 0.664176
O O10 0.000000 0.939168 0.731958
O O11 0.867118 0.000000 0.699753
O O12 0.076712 0.725962 0.927426
O O13 0.500000 0.608012 0.906741
O O14 0.369943 0.674591 0.893764
O O15 0.369370 0.589300 0.000000
O O16 0.250000 0.750000 0.096246
O O17 0.107338 0.373889 0.500000
O O18 0.238446 0.356039 0.593827
O O19 0.627888 0.354962 0.500000
#
# Coordination Sequence:
#
# PCOD9484598 Si02
#       8
#     8  16  16   4  16  16  16  16
#     4   9  18  36  60  84 111 145 191 250 306 354
#     4  12  23  38  58  87 124 157 199 248 299 365
#     4  10  22  37  54  78 111 152 200 247 290 351
#     4  12  22  40  56  90 119 153 194 242 290 372
#     4  10  18  35  58  82 112 147 188 241 298 357
#     4  12  22  36  59  87 121 157 190 238 298 357
#     4  10  22  38  58  86 117 153 202 252 303 360
#     4  11  23  37  56  81 117 162 203 245 299 360
#
# _framework density 18.522755
#
# number of rings (size 3 to 8) (size 9 to 14) (size 15 to 20)
#    0.000    1.259    3.704    2.889    1.037    4.444 
#    0.000    2.222    0.000    0.000    0.000    0.000 
#    0.000    1.185    0.000    0.000    0.000    0.000 
#
# Total GULP energy -300803.735775 kJ/mol
# GULP energy per Si atom -5570.439551 kJ/mol
# Density = 1.848060 g / cm^3
# Si number density = 18.522755 Si / 1000 Ang^3
#
#
#
# Elastic Constant Matrix: (Units=GPa)
#
#
# Indices 1 2 3 4 5 6 
#
# 1 74.4097 14.1168 26.0812 0.0000 0.0000 0.0000
# 2 14.1168 100.5627 34.8470 0.0000 0.0000 0.0000
# 3 26.0812 34.8470 117.4530 0.0000 0.0000 0.0000
# 4 0.0000 0.0000 0.0000 18.7166 0.0000 0.0000
# 5 0.0000 0.0000 0.0000 0.0000 29.3443 0.0000
# 6 0.0000 0.0000 0.0000 0.0000 0.0000 14.2110
#
#
#
# Elastic Compliance Matrix: (Units=1/GPa)
#
#
# Indices 1 2 3 4 5 6 
#
# 1 0.014670 -0.001037 -0.002950 0.000000 0.000000 0.000000
# 2 -0.001037 0.011157 -0.003080 0.000000 0.000000 0.000000
# 3 -0.002950 -0.003080 0.010083 0.000000 0.000000 0.000000
# 4 0.000000 0.000000 0.000000 0.053429 0.000000 0.000000
# 5 0.000000 0.000000 0.000000 0.000000 0.034078 0.000000
# 6 0.000000 0.000000 0.000000 0.000000 0.000000 0.070368
#
#
# Mechanical properties :
#
#
# Convention : Reuss Voigt Hill
#
# Bulk Modulus (GPa) = 45.92227 49.16838 47.54533
# Shear Modulus (GPa) = 23.23675 26.94640 25.09157
#
# Velocity S-wave (km/s) = 3.54573 3.81829 3.68453
# Velocity P-wave (km/s) = 6.45051 6.78539 6.62007
#
# Compressibility (1/GPa) = 0.02177593
#
# Stress axis : x y z
#
# Youngs Moduli (GPa) = 68.16715 89.63105 99.17862
#
# Poissons Ratio (x) = 0.09296 0.29256
# Poissons Ratio (y) = 0.07070 0.30545
# Poissons Ratio (z) = 0.20108 0.27605
#
# Static dielectric constant tensor:
#      x y z
#    x 1.650630 0.000000 0.000000 
#    y 0.000000 1.639540 0.000000 
#    z 0.000000 0.000000 1.664010 
# 
# From -- ./inp_files/40904.got.cif
#   From: 2010.05.17/outbox.cif.g08.bks.cpg/sg65_21_cif.got.tgz:40904.got - 2010.06.03 17:01:31.
