data_PCOD9484267
_publ_section_title
;
Structure prediction by ZEFSAII (Michael W. Deem and Ramdas Pophale) SiO2 
 PCOD9484267
Probable space group: C M M M
;
_chemical_formula_sum "Si O2"
_cell_formula_units_Z 112
_cell_length_a 17.756662
_cell_length_b 19.510373
_cell_length_c 19.480355
_cell_angle_alpha 90.000000
_cell_angle_beta 90.000000
_cell_angle_gamma 90.000000
_cell_volume 6748.756632
_symmetry_space_group_name_H-M "C M M M"
_symmetry_group_IT_number 65
_symmetry_cell_setting 'orthorhombic'
loop_
_space_group_symop_operation_xyz
x,y,z
-x,-y,z
x,-y,-z
-x,y,-z
-x,-y,-z
x,y,-z
-x,y,z
x,-y,z
1/2+x,1/2+y,z
1/2-x,1/2-y,z
1/2+x,1/2-y,-z
1/2-x,1/2+y,-z
1/2-x,1/2-y,-z
1/2+x,1/2+y,-z
1/2-x,1/2+y,z
1/2+x,1/2-y,z
loop_
_atom_site_type_symbol
_atom_site_label
_atom_site_fract_x
_atom_site_fract_y
_atom_site_fract_z
Si Si1 0.747099 0.580969 0.422405
Si Si2 0.586906 0.289939 0.269918
Si Si3 0.320230 0.159869 0.296301
Si Si4 0.207154 0.816151 0.169808
Si Si5 0.284518 0.081915 0.079835
Si Si6 0.085496 0.582297 0.813916
Si Si7 0.084269 0.078648 0.634241
O O1 0.768811 0.599446 0.500000
O O2 0.763640 0.500000 0.411593
O O3 0.788437 0.625463 0.364625
O O4 0.656642 0.588337 0.413804
O O5 0.500000 0.268284 0.267986
O O6 0.638556 0.232664 0.306973
O O7 0.623994 0.297933 0.194899
O O8 0.590170 0.363140 0.307891
O O9 0.252701 0.167830 0.240779
O O10 0.380192 0.113324 0.255465
O O11 0.250000 0.750000 0.140094
O O12 0.217684 0.878459 0.118268
O O13 0.359288 0.101001 0.123246
O O14 0.275146 0.000000 0.085150
O O15 0.290630 0.099814 0.000000
O O16 0.086211 0.500000 0.809001
O O17 0.000000 0.605173 0.824912
O O18 0.000000 0.085295 0.603029
O O19 0.089545 0.000000 0.660894
#
# Coordination Sequence:
#
# PCOD9484267 Si02
#       7
#    16  16  16  16  16  16  16
#     4  10  20  33  52  76 102 136 172 208 254 306
#     4  10  19  32  52  75  98 128 168 214 260 301
#     4  10  18  32  50  73 102 131 166 216 256 301
#     4   9  18  31  50  72  98 129 167 206 252 301
#     4   9  18  31  48  74 105 135 167 205 251 302
#     4   9  17  29  48  73  99 134 173 208 253 300
#     4   9  18  32  49  71 100 131 165 209 259 307
#
# _framework density 16.595649999999999
#
# number of rings (size 3 to 8) (size 9 to 14) (size 15 to 20)
#    0.000    2.571    1.429    0.857    0.000    2.000 
#    0.000    4.286    0.000    3.000    0.000    6.000 
#    0.000    0.000    0.000    0.000    0.000    0.000 
#
# Total GULP energy -311889.735954 kJ/mol
# GULP energy per Si atom -5569.459571 kJ/mol
# Density = 1.655788 g / cm^3
# Si number density = 16.595650 Si / 1000 Ang^3
#
#
#
# Elastic Constant Matrix: (Units=GPa)
#
#
# Indices 1 2 3 4 5 6 
#
# 1 73.6744 35.1222 41.3751 0.0000 0.0000 0.0000
# 2 35.1222 61.9992 51.9571 0.0000 0.0000 0.0000
# 3 41.3751 51.9571 92.8752 0.0000 0.0000 0.0000
# 4 0.0000 0.0000 0.0000 21.3433 0.0000 0.0000
# 5 0.0000 0.0000 0.0000 0.0000 14.7198 0.0000
# 6 0.0000 0.0000 0.0000 0.0000 0.0000 24.6067
#
#
#
# Elastic Compliance Matrix: (Units=1/GPa)
#
#
# Indices 1 2 3 4 5 6 
#
# 1 0.019651 -0.007146 -0.004757 0.000000 0.000000 0.000000
# 2 -0.007146 0.032963 -0.015257 0.000000 0.000000 0.000000
# 3 -0.004757 -0.015257 0.021422 0.000000 0.000000 0.000000
# 4 0.000000 0.000000 0.000000 0.046853 0.000000 0.000000
# 5 0.000000 0.000000 0.000000 0.000000 0.067936 0.000000
# 6 0.000000 0.000000 0.000000 0.000000 0.000000 0.040639
#
#
# Mechanical properties :
#
#
# Convention : Reuss Voigt Hill
#
# Bulk Modulus (GPa) = 50.71961 53.93974 52.32968
# Shear Modulus (GPa) = 17.22020 18.80691 18.01355
#
# Velocity S-wave (km/s) = 3.22473 3.37002 3.29817
# Velocity P-wave (km/s) = 6.67034 6.90765 6.79003
#
# Compressibility (1/GPa) = 0.01971624
#
# Stress axis : x y z
#
# Youngs Moduli (GPa) = 50.88732 30.33662 46.68193
#
# Poissons Ratio (x) = 0.21679 0.22205
# Poissons Ratio (y) = 0.36364 0.71224
# Poissons Ratio (z) = 0.24206 0.46285
#
# Static dielectric constant tensor:
#      x y z
#    x 1.581970 0.000000 0.000000 
#    y 0.000000 1.584770 0.000000 
#    z 0.000000 0.000000 1.526640 
# 
# From -- ./inp_files/54853.got.cif
#   From: 2010.05.17/outbox.cif.g08.bks.cpg/sg65_28_cif.got.tgz:54853.got - 2010.06.03 17:01:31.
