data_PCOD9484008
_publ_section_title
;
Structure prediction by ZEFSAII (Michael W. Deem and Ramdas Pophale) SiO2 
 PCOD9484008
Probable space group: C M M M
;
_chemical_formula_sum "Si O2"
_cell_formula_units_Z 104
_cell_length_a 23.525327
_cell_length_b 29.044073
_cell_length_c 7.612068
_cell_angle_alpha 90.000000
_cell_angle_beta 90.000000
_cell_angle_gamma 90.000000
_cell_volume 5201.107710
_symmetry_space_group_name_H-M "C M M M"
_symmetry_group_IT_number 65
_symmetry_cell_setting 'orthorhombic'
loop_
_space_group_symop_operation_xyz
x,y,z
-x,-y,z
x,-y,-z
-x,y,-z
-x,-y,-z
x,y,-z
-x,y,z
x,-y,z
1/2+x,1/2+y,z
1/2-x,1/2-y,z
1/2+x,1/2-y,-z
1/2-x,1/2+y,-z
1/2-x,1/2-y,-z
1/2+x,1/2+y,-z
1/2-x,1/2+y,z
1/2+x,1/2-y,z
loop_
_atom_site_type_symbol
_atom_site_label
_atom_site_fract_x
_atom_site_fract_y
_atom_site_fract_z
Si Si1 0.564165 0.901195 0.291889
Si Si2 0.643345 0.819873 0.286339
Si Si3 0.379956 0.646033 0.292496
Si Si4 0.564871 0.000000 0.208784
Si Si5 0.436696 0.737206 0.285274
Si Si6 0.233590 0.800206 0.798251
Si Si7 0.566465 0.552040 0.714116
O O1 0.559284 0.893541 0.500000
O O2 0.500000 0.900769 0.217634
O O3 0.603048 0.860792 0.223280
O O4 0.590308 0.951676 0.265696
O O5 0.646382 0.820128 0.500000
O O6 0.612739 0.772386 0.231979
O O7 0.706350 0.825558 0.215438
O O8 0.391007 0.643071 0.500000
O O9 0.421797 0.685962 0.223500
O O10 0.317223 0.668391 0.274167
O O11 0.394771 0.594983 0.223826
O O12 0.500000 0.000000 0.282025
O O13 0.562071 0.000000 0.000000
O O14 0.436330 0.737396 0.500000
O O15 0.500000 0.751737 0.231127
O O16 0.250000 0.750000 0.716098
O O17 0.217827 0.791399 0.000000
O O18 0.568876 0.550906 0.500000
O O19 0.500000 0.560278 0.760087
O O20 0.581894 0.500000 0.773317
#
# Coordination Sequence:
#
# PCOD9484008 Si02
#       7
#    16  16  16   8  16  16  16
#     4   9  17  30  50  76 103 128 157 201 257 305
#     4  10  19  32  52  75  99 128 165 209 253 301
#     4  10  18  30  53  78 101 134 175 211 245 295
#     4   9  17  29  47  71  99 133 167 195 230 287
#     4   9  16  26  45  76 106 127 155 200 250 298
#     4  11  23  37  51  68  97 136 174 212 254 298
#     4   8  14  26  48  82 117 139 161 204 261 311
#
# _framework density 19.995740999999999
#
# number of rings (size 3 to 8) (size 9 to 14) (size 15 to 20)
#    0.000    2.538    1.538    2.077    0.000    5.846 
#    0.000    0.000    1.692    4.615    0.000    1.077 
#    0.000    0.000    0.000    0.000    0.000    0.000 
#
# Total GULP energy -289857.168383 kJ/mol
# GULP energy per Si atom -5574.176315 kJ/mol
# Density = 1.995023 g / cm^3
# Si number density = 19.995741 Si / 1000 Ang^3
#
#
#
# Elastic Constant Matrix: (Units=GPa)
#
#
# Indices 1 2 3 4 5 6 
#
# 1 87.6065 47.7980 -6.6274 0.0000 0.0000 0.0000
# 2 47.7980 155.1422 0.6576 0.0000 0.0000 0.0000
# 3 -6.6274 0.6576 39.0848 0.0000 0.0000 0.0000
# 4 0.0000 0.0000 0.0000 -5.4880 0.0000 0.0000
# 5 0.0000 0.0000 0.0000 0.0000 -34.5889 0.0000
# 6 0.0000 0.0000 0.0000 0.0000 0.0000 19.1931
#
#
#
# Elastic Compliance Matrix: (Units=1/GPa)
#
#
# Indices 1 2 3 4 5 6 
#
# 1 0.013950 -0.004308 0.002438 0.000000 0.000000 0.000000
# 2 -0.004308 0.007777 -0.000861 0.000000 0.000000 0.000000
# 3 0.002438 -0.000861 0.026013 0.000000 0.000000 0.000000
# 4 0.000000 0.000000 0.000000 -0.182217 0.000000 0.000000
# 5 0.000000 0.000000 0.000000 0.000000 -0.028911 0.000000
# 6 0.000000 0.000000 0.000000 0.000000 0.000000 0.052102
#
#
# Mechanical properties :
#
#
# Convention : Reuss Voigt Hill
#
# Bulk Modulus (GPa) = 23.65390 40.60998 32.13194
# Shear Modulus (GPa) = -54.50737 11.82360 -21.34189
#
# Velocity S-wave (km/s) = -5.22673 2.43432 -3.27053
# Velocity P-wave (km/s) = 4.95679 5.31551 1.35736
#
# Compressibility (1/GPa) = 0.04227633
#
# Stress axis : x y z
#
# Youngs Moduli (GPa) = 71.68669 128.59026 38.44194
#
# Poissons Ratio (x) = 0.55398 -0.09372
# Poissons Ratio (y) = 0.30883 0.03311
# Poissons Ratio (z) = -0.17476 0.11076
#
# Static dielectric constant tensor:
#      x y z
#    x 1.694110 0.000000 0.000000 
#    y 0.000000 1.746260 0.000000 
#    z 0.000000 0.000000 1.767820 
# 
# From -- ./inp_files/14738.got.cif
#   From: 2010.05.17/outbox.cif.g08.bks.cpg/sg65_8_cif.got.tgz:14738.got - 2010.06.03 17:01:31.
