data_PCOD9484969
_publ_section_title
;
Structure prediction by ZEFSAII (Michael W. Deem and Ramdas Pophale) SiO2 
 PCOD9484969
Probable space group: C M M M
;
_chemical_formula_sum "Si O2"
_cell_formula_units_Z 104
_cell_length_a 7.626564
_cell_length_b 29.319255
_cell_length_c 24.128309
_cell_angle_alpha 90.000000
_cell_angle_beta 90.000000
_cell_angle_gamma 90.000000
_cell_volume 5395.214749
_symmetry_space_group_name_H-M "C M M M"
_symmetry_group_IT_number 65
_symmetry_cell_setting 'orthorhombic'
loop_
_space_group_symop_operation_xyz
x,y,z
-x,-y,z
x,-y,-z
-x,y,-z
-x,-y,-z
x,y,-z
-x,y,z
x,-y,z
1/2+x,1/2+y,z
1/2-x,1/2-y,z
1/2+x,1/2-y,-z
1/2-x,1/2+y,-z
1/2-x,1/2-y,-z
1/2+x,1/2+y,-z
1/2-x,1/2+y,z
1/2+x,1/2-y,z
loop_
_atom_site_type_symbol
_atom_site_label
_atom_site_fract_x
_atom_site_fract_y
_atom_site_fract_z
Si Si1 0.290466 0.051073 0.721111
Si Si2 0.789579 0.803560 0.000000
Si Si3 0.293105 0.550761 0.849035
Si Si4 0.289623 0.696637 0.777015
Si Si5 0.709037 0.355757 0.668508
Si Si6 0.215566 0.853508 0.888745
Si Si7 0.210846 0.197229 0.437721
O O1 0.500000 0.050343 0.724032
O O2 0.224615 0.061141 0.783420
O O3 0.237901 0.090990 0.679687
O O4 0.228658 0.000000 0.706350
O O5 0.750000 0.750000 0.000000
O O6 0.725384 0.828281 0.944290
O O7 0.000000 0.808077 0.000000
O O8 0.500000 0.548122 0.860989
O O9 0.217570 0.500000 0.858510
O O10 0.224401 0.594115 0.882594
O O11 0.500000 0.691118 0.777004
O O12 0.250000 0.750000 0.775532
O O13 0.220455 0.671316 0.722203
O O14 0.226396 0.673649 0.833867
O O15 0.500000 0.348116 0.667614
O O16 0.778552 0.335307 0.611037
O O17 0.000000 0.853659 0.888711
O O18 0.278606 0.188130 0.500000
O O19 0.250000 0.250000 0.424126
O O20 0.000000 0.192583 0.439984
#
# Coordination Sequence:
#
# PCOD9484969 Si02
#       7
#    16   8  16  16  16  16  16
#     4  10  20  32  48  74 103 126 156 201 247 292
#     4  10  20  34  51  67  93 129 164 202 237 278
#     4   9  16  30  52  72  94 126 159 192 240 300
#     4  10  19  30  44  66  95 123 156 196 238 282
#     4  10  19  32  50  71  98 130 163 198 239 290
#     4   9  17  31  48  69  95 124 159 199 237 280
#     4   9  18  32  50  73 101 133 168 203 239 284
#
# _framework density 19.276340999999999
#
# number of rings (size 3 to 8) (size 9 to 14) (size 15 to 20)
#    0.000    2.462    1.538    1.385    0.000    2.154 
#    0.000    1.154    0.000    2.769    0.000    3.231 
#    0.000    3.077    0.000    0.000    0.000    0.000 
#
# Total GULP energy -290160.801870 kJ/mol
# GULP energy per Si atom -5580.015421 kJ/mol
# Density = 1.923247 g / cm^3
# Si number density = 19.276341 Si / 1000 Ang^3
#
#
#
# Elastic Constant Matrix: (Units=GPa)
#
#
# Indices 1 2 3 4 5 6 
#
# 1 36.7468 -5.0269 9.1855 0.0000 0.0000 0.0000
# 2 -5.0269 176.9149 114.4362 0.0000 0.0000 0.0000
# 3 9.1855 114.4362 147.4920 0.0000 0.0000 0.0000
# 4 0.0000 0.0000 0.0000 41.2136 0.0000 0.0000
# 5 0.0000 0.0000 0.0000 0.0000 -1.6185 0.0000
# 6 0.0000 0.0000 0.0000 0.0000 0.0000 20.0173
#
#
#
# Elastic Compliance Matrix: (Units=1/GPa)
#
#
# Indices 1 2 3 4 5 6 
#
# 1 0.028987 0.003998 -0.004907 0.000000 0.000000 0.000000
# 2 0.003998 0.011899 -0.009481 0.000000 0.000000 0.000000
# 3 -0.004907 -0.009481 0.014442 0.000000 0.000000 0.000000
# 4 0.000000 0.000000 0.000000 0.024264 0.000000 0.000000
# 5 0.000000 0.000000 0.000000 0.000000 -0.617841 0.000000
# 6 0.000000 0.000000 0.000000 0.000000 0.000000 0.049957
#
#
# Mechanical properties :
#
#
# Convention : Reuss Voigt Hill
#
# Bulk Modulus (GPa) = 28.94636 66.48259 47.71447
# Shear Modulus (GPa) = -10.96498 28.09305 8.56403
#
# Velocity S-wave (km/s) = -2.38761 3.82171 2.11007
# Velocity P-wave (km/s) = 2.72915 7.35106 5.54465
#
# Compressibility (1/GPa) = 0.03454666
#
# Stress axis : x y z
#
# Youngs Moduli (GPa) = 34.49857 84.04265 69.24382
#
# Poissons Ratio (x) = -0.33597 0.33978
# Poissons Ratio (y) = -0.13791 0.65650
# Poissons Ratio (z) = 0.16928 0.79680
#
# Static dielectric constant tensor:
#      x y z
#    x 1.706680 0.000000 0.000000 
#    y 0.000000 1.654850 0.000000 
#    z 0.000000 0.000000 1.663830 
# 
# From -- ./inp_files/60829.got.cif
#   From: 2010.05.17/outbox.cif.g08.bks.cpg/sg65_31_cif.got.tgz:60829.got - 2010.06.03 17:01:31.
