data_PCOD9484940
_publ_section_title
;
Structure prediction by ZEFSAII (Michael W. Deem and Ramdas Pophale) SiO2 
 PCOD9484940
Probable space group: C M M M
;
_chemical_formula_sum "Si O2"
_cell_formula_units_Z 104
_cell_length_a 7.579808
_cell_length_b 27.524398
_cell_length_c 28.289332
_cell_angle_alpha 90.000000
_cell_angle_beta 90.000000
_cell_angle_gamma 90.000000
_cell_volume 5901.993495
_symmetry_space_group_name_H-M "C M M M"
_symmetry_group_IT_number 65
_symmetry_cell_setting 'orthorhombic'
loop_
_space_group_symop_operation_xyz
x,y,z
-x,-y,z
x,-y,-z
-x,y,-z
-x,-y,-z
x,y,-z
-x,y,z
x,-y,z
1/2+x,1/2+y,z
1/2-x,1/2-y,z
1/2+x,1/2-y,-z
1/2-x,1/2+y,-z
1/2-x,1/2-y,-z
1/2+x,1/2+y,-z
1/2-x,1/2+y,z
1/2+x,1/2-y,z
loop_
_atom_site_type_symbol
_atom_site_label
_atom_site_fract_x
_atom_site_fract_y
_atom_site_fract_z
Si Si1 0.289810 0.694715 0.401821
Si Si2 0.787835 0.807391 0.204259
Si Si3 0.787933 0.192128 0.000000
Si Si4 0.206376 0.404112 0.551622
Si Si5 0.711869 0.692211 0.898203
Si Si6 0.713910 0.945736 0.349655
Si Si7 0.792277 0.153712 0.302899
O O1 0.500000 0.688278 0.401414
O O2 0.250000 0.750000 0.414692
O O3 0.218104 0.653168 0.436336
O O4 0.220294 0.682567 0.348762
O O5 0.750000 0.750000 0.207645
O O6 0.721094 0.825514 0.152905
O O7 0.717661 0.832015 0.251952
O O8 0.000000 0.813620 0.203271
O O9 0.750000 0.250000 0.000000
O O10 0.721155 0.173250 0.050914
O O11 0.000000 0.186296 0.000000
O O12 0.284126 0.414208 0.500000
O O13 0.279206 0.431454 0.597663
O O14 0.000000 0.417264 0.549566
O O15 0.500000 0.686093 0.898451
O O16 0.750000 0.750000 0.898076
O O17 0.500000 0.944655 0.350553
O O18 0.771822 0.902884 0.315049
O O19 0.770279 0.000000 0.337069
O O20 0.000000 0.165516 0.301227
#
# Coordination Sequence:
#
# PCOD9484940 Si02
#       7
#    16  16   8  16  16  16  16
#     4  10  19  30  44  61  82 108 136 163 190 222
#     4   9  16  25  37  55  79 106 136 167 196 226
#     4   8  12  18  28  42  62  92 129 164 195 223
#     4   9  18  32  48  65  84 104 126 153 186 225
#     4   8  13  20  30  45  67  96 130 165 195 223
#     4   9  18  32  49  67  83  99 122 153 190 232
#     4   9  18  30  43  60  81 105 132 161 193 230
#
# _framework density 17.621164
#
# number of rings (size 3 to 8) (size 9 to 14) (size 15 to 20)
#    0.000    3.077    0.000    0.923    0.000    2.462 
#    0.000    1.538    0.000    0.000    0.000    4.308 
#    0.000    0.000    0.000    0.692    0.000   17.000 
#
# Total GULP energy -289526.258228 kJ/mol
# GULP energy per Si atom -5567.812658 kJ/mol
# Density = 1.758106 g / cm^3
# Si number density = 17.621164 Si / 1000 Ang^3
#
#
#
# Elastic Constant Matrix: (Units=GPa)
#
#
# Indices 1 2 3 4 5 6 
#
# 1 41.4516 -15.7011 1.3904 0.0000 0.0000 0.0000
# 2 -15.7011 29.8478 6.9359 0.0000 0.0000 0.0000
# 3 1.3904 6.9359 142.7987 0.0000 0.0000 0.0000
# 4 0.0000 0.0000 0.0000 8.8606 0.0000 0.0000
# 5 0.0000 0.0000 0.0000 0.0000 -28.6477 0.0000
# 6 0.0000 0.0000 0.0000 0.0000 0.0000 13.3221
#
#
#
# Elastic Compliance Matrix: (Units=1/GPa)
#
#
# Indices 1 2 3 4 5 6 
#
# 1 0.030292 0.016186 -0.001081 0.000000 0.000000 0.000000
# 2 0.016186 0.042534 -0.002224 0.000000 0.000000 0.000000
# 3 -0.001081 -0.002224 0.007121 0.000000 0.000000 0.000000
# 4 0.000000 0.000000 0.000000 0.112859 0.000000 0.000000
# 5 0.000000 0.000000 0.000000 0.000000 -0.034907 0.000000
# 6 0.000000 0.000000 0.000000 0.000000 0.000000 0.075063
#
#
# Mechanical properties :
#
#
# Convention : Reuss Voigt Hill
#
# Bulk Modulus (GPa) = 9.45986 22.14983 15.80484
# Shear Modulus (GPa) = 20.62385 13.47185 17.04785
#
# Velocity S-wave (km/s) = 3.42483 2.76801 3.11378
# Velocity P-wave (km/s) = 4.58469 4.77631 4.68148
#
# Compressibility (1/GPa) = 0.10570983
#
# Stress axis : x y z
#
# Youngs Moduli (GPa) = 33.01233 23.51041 140.42206
#
# Poissons Ratio (x) = -0.38054 0.15181
# Poissons Ratio (y) = -0.53433 0.31223
# Poissons Ratio (z) = 0.03569 0.05228
#
# Static dielectric constant tensor:
#      x y z
#    x 1.605310 0.000000 0.000000 
#    y 0.000000 1.571690 0.000000 
#    z 0.000000 0.000000 1.684190 
# 
# From -- ./inp_files/73749.got.cif
#   From: 2010.05.17/outbox.cif.g08.bks.cpg/sg65_37_cif.got.tgz:73749.got - 2010.06.03 17:01:31.
