data_PCOD9484077
_publ_section_title
;
Structure prediction by ZEFSAII (Michael W. Deem and Ramdas Pophale) SiO2 
 PCOD9484077
Probable space group: C M M M
;
_chemical_formula_sum "Si O2"
_cell_formula_units_Z 68
_cell_length_a 22.036263
_cell_length_b 17.202019
_cell_length_c 9.569656
_cell_angle_alpha 90.000000
_cell_angle_beta 90.000000
_cell_angle_gamma 90.000000
_cell_volume 3627.552416
_symmetry_space_group_name_H-M "C M M M"
_symmetry_group_IT_number 65
_symmetry_cell_setting 'orthorhombic'
loop_
_space_group_symop_operation_xyz
x,y,z
-x,-y,z
x,-y,-z
-x,y,-z
-x,-y,-z
x,y,-z
-x,y,z
x,-y,z
1/2+x,1/2+y,z
1/2-x,1/2-y,z
1/2+x,1/2-y,-z
1/2-x,1/2+y,-z
1/2-x,1/2-y,-z
1/2+x,1/2+y,-z
1/2-x,1/2+y,z
1/2+x,1/2-y,z
loop_
_atom_site_type_symbol
_atom_site_label
_atom_site_fract_x
_atom_site_fract_y
_atom_site_fract_z
Si Si1 0.404691 0.909109 0.000000
Si Si2 0.000000 0.725406 0.500000
Si Si3 0.399683 0.186193 0.734604
Si Si4 0.302625 0.691806 0.754409
Si Si5 0.666553 0.088340 0.500000
Si Si6 0.757320 0.591749 0.000000
Si Si7 0.312466 0.411873 0.500000
O O1 0.425627 0.865763 0.140170
O O2 0.330435 0.903889 0.000000
O O3 0.420686 0.000000 0.000000
O O4 0.947474 0.719982 0.624292
O O5 0.357152 0.252638 0.801935
O O6 0.357293 0.131203 0.637718
O O7 0.250000 0.750000 0.699117
O O8 0.270931 0.637503 0.868876
O O9 0.329322 0.636916 0.635224
O O10 0.739039 0.086151 0.500000
O O11 0.643322 0.000000 0.500000
O O12 0.741443 0.500000 0.000000
O O13 0.334976 0.500000 0.500000
#
# Coordination Sequence:
#
# PCOD9484077 Si02
#       7
#     8   4  16  16   8   8   8
#     4  11  21  36  58  88 121 156 187 233 289 341
#     4  10  26  44  55  78 109 154 210 258 282 310
#     4  11  22  38  58  79 113 152 200 241 283 336
#     4  12  20  34  57  88 115 153 189 229 291 351
#     4  10  18  31  49  76 112 151 183 230 284 330
#     4  11  22  36  56  93 133 151 173 222 297 372
#     4  11  20  30  48  80 117 150 187 227 277 345
#
# _framework density 18.745422000000001
#
# number of rings (size 3 to 8) (size 9 to 14) (size 15 to 20)
#    0.000    0.941    4.706    4.235    0.000    4.235 
#    0.000   11.176    0.000    0.000    0.000   15.647 
#    0.000    0.000    0.000    0.000    0.000    0.000 
#
# Total GULP energy -189351.757085 kJ/mol
# GULP energy per Si atom -5569.169326 kJ/mol
# Density = 1.870276 g / cm^3
# Si number density = 18.745422 Si / 1000 Ang^3
#
#
#
# Elastic Constant Matrix: (Units=GPa)
#
#
# Indices 1 2 3 4 5 6 
#
# 1 60.9686 14.9763 -3.9944 0.0000 0.0000 0.0000
# 2 14.9763 117.8104 30.0943 0.0000 0.0000 0.0000
# 3 -3.9944 30.0943 94.8245 0.0000 0.0000 0.0000
# 4 0.0000 0.0000 0.0000 35.0745 0.0000 0.0000
# 5 0.0000 0.0000 0.0000 0.0000 24.6228 0.0000
# 6 0.0000 0.0000 0.0000 0.0000 0.0000 -6.4235
#
#
#
# Elastic Compliance Matrix: (Units=1/GPa)
#
#
# Indices 1 2 3 4 5 6 
#
# 1 0.017134 -0.002571 0.001538 0.000000 0.000000 0.000000
# 2 -0.002571 0.009623 -0.003162 0.000000 0.000000 0.000000
# 3 0.001538 -0.003162 0.011614 0.000000 0.000000 0.000000
# 4 0.000000 0.000000 0.000000 0.028511 0.000000 0.000000
# 5 0.000000 0.000000 0.000000 0.000000 0.040613 0.000000
# 6 0.000000 0.000000 0.000000 0.000000 0.000000 -0.155679
#
#
# Mechanical properties :
#
#
# Convention : Reuss Voigt Hill
#
# Bulk Modulus (GPa) = 33.35543 39.52844 36.44193
# Shear Modulus (GPa) = -167.78321 26.15660 -70.81331
#
# Velocity S-wave (km/s) = -9.47104 3.73950 -6.15291
# Velocity P-wave (km/s) = 10.08802 6.30698 5.56733
#
# Compressibility (1/GPa) = 0.02998013
#
# Stress axis : x y z
#
# Youngs Moduli (GPa) = 58.36298 103.91954 86.10162
#
# Poissons Ratio (x) = 0.26717 -0.13240
# Poissons Ratio (y) = 0.15005 0.27228
# Poissons Ratio (z) = -0.08974 0.32862
#
# Static dielectric constant tensor:
#      x y z
#    x 1.635640 0.000000 0.000000 
#    y 0.000000 1.655680 0.000000 
#    z 0.000000 0.000000 1.669090 
# 
# From -- ./inp_files/9356.got.cif
#   From: 2010.05.17/outbox.cif.g08.bks.cpg/sg65_5_cif.got.tgz:9356.got - 2010.06.03 17:01:31.
