data_PCOD9484683
_publ_section_title
;
Structure prediction by ZEFSAII (Michael W. Deem and Ramdas Pophale) SiO2 
 PCOD9484683
Probable space group: C M M M
;
_chemical_formula_sum "Si O2"
_cell_formula_units_Z 88
_cell_length_a 19.959299
_cell_length_b 14.215426
_cell_length_c 15.222602
_cell_angle_alpha 90.000000
_cell_angle_beta 90.000000
_cell_angle_gamma 90.000000
_cell_volume 4319.107921
_symmetry_space_group_name_H-M "C M M M"
_symmetry_group_IT_number 65
_symmetry_cell_setting 'orthorhombic'
loop_
_space_group_symop_operation_xyz
x,y,z
-x,-y,z
x,-y,-z
-x,y,-z
-x,-y,-z
x,y,-z
-x,y,z
x,-y,z
1/2+x,1/2+y,z
1/2-x,1/2-y,z
1/2+x,1/2-y,-z
1/2-x,1/2+y,-z
1/2-x,1/2-y,-z
1/2+x,1/2+y,-z
1/2-x,1/2+y,z
1/2+x,1/2-y,z
loop_
_atom_site_type_symbol
_atom_site_label
_atom_site_fract_x
_atom_site_fract_y
_atom_site_fract_z
Si Si1 0.689181 0.824111 0.795578
Si Si2 0.574796 0.688750 0.601533
Si Si3 0.920944 0.785824 0.901071
Si Si4 0.110610 0.000000 0.864960
Si Si5 0.763863 0.500000 0.103874
Si Si6 0.923817 0.000000 0.670881
Si Si7 0.307231 0.830558 0.401988
O O1 0.750000 0.750000 0.802086
O O2 0.623514 0.764514 0.825652
O O3 0.695044 0.870276 0.697418
O O4 0.698506 0.907255 0.864576
O O5 0.568327 0.662771 0.500000
O O6 0.500000 0.703773 0.638648
O O7 0.609055 0.597817 0.644205
O O8 0.621206 0.778549 0.603088
O O9 0.907523 0.898427 0.904315
O O10 0.000000 0.771523 0.885303
O O11 0.904230 0.750033 0.000000
O O12 0.072840 0.000000 0.773597
O O13 0.190368 0.000000 0.852835
O O14 0.753304 0.500000 0.000000
O O15 0.000000 0.000000 0.632819
O O16 0.302810 0.877825 0.500000
O O17 0.250000 0.750000 0.404080
#
# Coordination Sequence:
#
# PCOD9484683 Si02
#       7
#    16  16  16   8   8   8  16
#     4  11  23  41  65  89 120 163 209 247 300 367
#     4   9  17  30  50  77 112 155 197 237 287 350
#     4  11  23  39  61  91 126 162 203 256 314 365
#     4  12  22  34  56  89 126 158 197 249 309 367
#     4  12  26  42  63  90 121 158 209 259 296 353
#     4  10  19  28  44  75 117 157 192 232 286 357
#     4   9  19  35  54  80 114 151 194 246 295 347
#
# _framework density 20.374578
#
# number of rings (size 3 to 8) (size 9 to 14) (size 15 to 20)
#    0.000    1.636    1.818    3.545    2.545    4.727 
#    0.000    0.909    0.000    1.636    0.000    0.000 
#    0.000    4.364    0.000    0.000    0.000    0.000 
#
# Total GULP energy -245047.575543 kJ/mol
# GULP energy per Si atom -5569.263081 kJ/mol
# Density = 2.032820 g / cm^3
# Si number density = 20.374578 Si / 1000 Ang^3
#
#
#
# Elastic Constant Matrix: (Units=GPa)
#
#
# Indices 1 2 3 4 5 6 
#
# 1 79.0140 15.4928 13.5767 0.0000 0.0000 0.0000
# 2 15.4928 51.6186 8.6841 0.0000 0.0000 0.0000
# 3 13.5767 8.6841 62.8719 0.0000 0.0000 0.0000
# 4 0.0000 0.0000 0.0000 -87.1844 0.0000 0.0000
# 5 0.0000 0.0000 0.0000 0.0000 27.6839 0.0000
# 6 0.0000 0.0000 0.0000 0.0000 0.0000 10.4703
#
#
#
# Elastic Compliance Matrix: (Units=1/GPa)
#
#
# Indices 1 2 3 4 5 6 
#
# 1 0.013811 -0.003730 -0.002467 0.000000 0.000000 0.000000
# 2 -0.003730 0.020841 -0.002073 0.000000 0.000000 0.000000
# 3 -0.002467 -0.002073 0.016724 0.000000 0.000000 0.000000
# 4 0.000000 0.000000 0.000000 -0.011470 0.000000 0.000000
# 5 0.000000 0.000000 0.000000 0.000000 0.036122 0.000000
# 6 0.000000 0.000000 0.000000 0.000000 0.000000 0.095508
#
#
# Mechanical properties :
#
#
# Convention : Reuss Voigt Hill
#
# Bulk Modulus (GPa) = 28.70608 29.89019 29.29814
# Shear Modulus (GPa) = 25.03875 0.57736 12.80806
#
# Velocity S-wave (km/s) = 3.50940 0.53291 2.50997
# Velocity P-wave (km/s) = 5.52639 3.88341 4.77607
#
# Compressibility (1/GPa) = 0.03483582
#
# Stress axis : x y z
#
# Youngs Moduli (GPa) = 72.40429 47.98183 59.79253
#
# Poissons Ratio (x) = 0.17898 0.14752
# Poissons Ratio (y) = 0.27009 0.12396
# Poissons Ratio (z) = 0.17864 0.09947
#
# Static dielectric constant tensor:
#      x y z
#    x 1.733650 0.000000 0.000000 
#    y 0.000000 1.732880 0.000000 
#    z 0.000000 0.000000 1.802310 
# 
# From -- ./inp_files/44044.got.cif
#   From: 2010.05.17/outbox.cif.g08.bks.cpg/sg65_23_cif.got.tgz:44044.got - 2010.06.03 17:01:31.
