data_PCOD9484434
_publ_section_title
;
Structure prediction by ZEFSAII (Michael W. Deem and Ramdas Pophale) SiO2 
 PCOD9484434
Probable space group: C M M M
;
_chemical_formula_sum "Si O2"
_cell_formula_units_Z 72
_cell_length_a 8.700122
_cell_length_b 18.653770
_cell_length_c 23.839221
_cell_angle_alpha 90.000000
_cell_angle_beta 90.000000
_cell_angle_gamma 90.000000
_cell_volume 3868.868958
_symmetry_space_group_name_H-M "C M M M"
_symmetry_group_IT_number 65
_symmetry_cell_setting 'orthorhombic'
loop_
_space_group_symop_operation_xyz
x,y,z
-x,-y,z
x,-y,-z
-x,y,-z
-x,-y,-z
x,y,-z
-x,y,z
x,-y,z
1/2+x,1/2+y,z
1/2-x,1/2-y,z
1/2+x,1/2-y,-z
1/2-x,1/2+y,-z
1/2-x,1/2-y,-z
1/2+x,1/2+y,-z
1/2-x,1/2+y,z
1/2+x,1/2-y,z
loop_
_atom_site_type_symbol
_atom_site_label
_atom_site_fract_x
_atom_site_fract_y
_atom_site_fract_z
Si Si1 0.685258 0.583469 0.436120
Si Si2 0.816196 0.329450 0.667378
Si Si3 0.683277 0.669434 0.116192
Si Si4 0.683915 0.831149 0.000000
Si Si5 0.685138 0.915902 0.779054
O O1 0.730524 0.602419 0.500000
O O2 0.500000 0.588036 0.433064
O O3 0.727460 0.500000 0.426660
O O4 0.757494 0.633205 0.389155
O O5 0.750000 0.250000 0.672769
O O6 0.770197 0.376858 0.721254
O O7 0.000000 0.326052 0.666173
O O8 0.500000 0.674010 0.111447
O O9 0.750000 0.750000 0.123473
O O10 0.733954 0.622375 0.168868
O O11 0.752928 0.637978 0.058305
O O12 0.750000 0.750000 0.000000
O O13 0.500000 0.830053 0.000000
O O14 0.500000 0.908748 0.785519
O O15 0.721975 0.000000 0.776581
#
# Coordination Sequence:
#
# PCOD9484434 Si02
#       5
#    16  16  16   8  16
#     4   9  19  37  60  85 114 148 185 227 277 332
#     4  11  23  38  58  84 113 147 187 232 279 329
#     4  11  21  35  57  85 115 147 187 230 274 327
#     4  10  18  32  55  82 113 148 185 227 277 327
#     4  10  22  40  59  81 111 145 183 229 282 336
#
# _framework density 18.610088999999999
#
# number of rings (size 3 to 8) (size 9 to 14) (size 15 to 20)
#    0.000    1.778    0.000    7.000    0.000    6.222 
#    0.000    1.667    0.000    3.333    0.000    0.000 
#    0.000    0.000    0.000    0.000    0.000    0.000 
#
# Total GULP energy -201134.528969 kJ/mol
# GULP energy per Si atom -5587.070249 kJ/mol
# Density = 1.856773 g / cm^3
# Si number density = 18.610089 Si / 1000 Ang^3
#
#
#
# Elastic Constant Matrix: (Units=GPa)
#
#
# Indices 1 2 3 4 5 6 
#
# 1 91.1295 60.9744 75.9022 0.0000 0.0000 0.0000
# 2 60.9744 117.1766 102.3804 0.0000 0.0000 0.0000
# 3 75.9022 102.3804 186.6300 0.0000 0.0000 0.0000
# 4 0.0000 0.0000 0.0000 73.9232 0.0000 0.0000
# 5 0.0000 0.0000 0.0000 0.0000 26.4433 0.0000
# 6 0.0000 0.0000 0.0000 0.0000 0.0000 11.6953
#
#
#
# Elastic Compliance Matrix: (Units=1/GPa)
#
#
# Indices 1 2 3 4 5 6 
#
# 1 0.018473 -0.005855 -0.004301 0.000000 0.000000 0.000000
# 2 -0.005855 0.018245 -0.007628 0.000000 0.000000 0.000000
# 3 -0.004301 -0.007628 0.011292 0.000000 0.000000 0.000000
# 4 0.000000 0.000000 0.000000 0.013528 0.000000 0.000000
# 5 0.000000 0.000000 0.000000 0.000000 0.037817 0.000000
# 6 0.000000 0.000000 0.000000 0.000000 0.000000 0.085505
#
#
# Mechanical properties :
#
#
# Convention : Reuss Voigt Hill
#
# Bulk Modulus (GPa) = 80.36670 97.05001 88.70835
# Shear Modulus (GPa) = 22.26428 32.79097 27.52763
#
# Velocity S-wave (km/s) = 3.46259 4.20217 3.85018
# Velocity P-wave (km/s) = 7.69833 8.70670 8.21800
#
# Compressibility (1/GPa) = 0.01244297
#
# Stress axis : x y z
#
# Youngs Moduli (GPa) = 54.13201 54.80858 88.55822
#
# Poissons Ratio (x) = 0.32088 0.38092
# Poissons Ratio (y) = 0.31692 0.67551
# Poissons Ratio (z) = 0.23284 0.41807
#
# Static dielectric constant tensor:
#      x y z
#    x 1.581550 0.000000 0.000000 
#    y 0.000000 1.619080 0.000000 
#    z 0.000000 0.000000 1.644940 
# 
# From -- ./inp_files/59206.got.cif
#   From: 2010.05.17/outbox.cif.g08.bks.cpg/sg65_30_cif.got.tgz:59206.got - 2010.06.03 17:01:31.
