data_PCOD9484674
_publ_section_title
;
Structure prediction by ZEFSAII (Michael W. Deem and Ramdas Pophale) SiO2 
 PCOD9484674
Probable space group: C M M M
;
_chemical_formula_sum "Si O2"
_cell_formula_units_Z 104
_cell_length_a 28.045359
_cell_length_b 17.423826
_cell_length_c 13.701091
_cell_angle_alpha 90.000000
_cell_angle_beta 90.000000
_cell_angle_gamma 90.000000
_cell_volume 6695.140263
_symmetry_space_group_name_H-M "C M M M"
_symmetry_group_IT_number 65
_symmetry_cell_setting 'orthorhombic'
loop_
_space_group_symop_operation_xyz
x,y,z
-x,-y,z
x,-y,-z
-x,y,-z
-x,-y,-z
x,y,-z
-x,y,z
x,-y,z
1/2+x,1/2+y,z
1/2-x,1/2-y,z
1/2+x,1/2-y,-z
1/2-x,1/2+y,-z
1/2-x,1/2-y,-z
1/2+x,1/2+y,-z
1/2-x,1/2+y,z
1/2+x,1/2-y,z
loop_
_atom_site_type_symbol
_atom_site_label
_atom_site_fract_x
_atom_site_fract_y
_atom_site_fract_z
Si Si1 0.442879 0.584786 0.211043
Si Si2 0.212207 0.088172 0.618076
Si Si3 0.500000 0.909649 0.383003
Si Si4 0.057499 0.756073 0.112140
Si Si5 0.592249 0.822021 0.697432
Si Si6 0.111976 0.844435 0.614715
Si Si7 0.818556 0.592649 0.614515
O O1 0.500000 0.586246 0.221468
O O2 0.428957 0.500000 0.175763
O O3 0.430367 0.655906 0.140973
O O4 0.419371 0.601963 0.315550
O O5 0.214475 0.085625 0.500000
O O6 0.167264 0.140660 0.642803
O O7 0.265058 0.114220 0.648124
O O8 0.203984 0.000000 0.650880
O O9 0.500000 0.901915 0.500000
O O10 0.453062 0.869269 0.340798
O O11 0.500000 0.000000 0.359383
O O12 0.082934 0.702130 0.190898
O O13 0.000000 0.747850 0.123706
O O14 0.069467 0.740453 0.000000
O O15 0.596928 0.742393 0.637840
O O16 0.639979 0.869526 0.676976
O O17 0.106395 0.861302 0.500000
O O18 0.824733 0.614946 0.500000
O O19 0.821223 0.500000 0.617942
#
# Coordination Sequence:
#
# PCOD9484674 Si02
#       7
#    16  16   8  16  16  16  16
#     4   9  18  30  44  68  96 123 163 201 230 279
#     4   8  15  28  44  64  93 130 166 193 224 271
#     4  11  22  34  49  69  98 133 161 187 225 277
#     4   9  18  34  52  67  89 122 155 199 252 285
#     4  11  20  32  47  71  94 121 162 201 238 287
#     4  10  19  28  43  67 100 137 160 188 231 280
#     4   9  17  30  48  69  95 125 159 199 235 274
#
# _framework density 15.533656000000001
#
# number of rings (size 3 to 8) (size 9 to 14) (size 15 to 20)
#    0.000    2.538    0.769    3.231    1.077    3.385 
#    0.000    4.615    0.000    2.308    0.000    8.615 
#    0.000    4.923    0.000    0.000    0.000    0.000 
#
# Total GULP energy -289766.351110 kJ/mol
# GULP energy per Si atom -5572.429829 kJ/mol
# Density = 1.549830 g / cm^3
# Si number density = 15.533656 Si / 1000 Ang^3
#
#
#
# Elastic Constant Matrix: (Units=GPa)
#
#
# Indices 1 2 3 4 5 6 
#
# 1 64.3976 48.9028 30.6452 0.0000 0.0000 0.0000
# 2 48.9028 74.8529 32.3478 0.0000 0.0000 0.0000
# 3 30.6452 32.3478 79.5808 0.0000 0.0000 0.0000
# 4 0.0000 0.0000 0.0000 10.0833 0.0000 0.0000
# 5 0.0000 0.0000 0.0000 0.0000 5.5973 0.0000
# 6 0.0000 0.0000 0.0000 0.0000 0.0000 24.7571
#
#
#
# Elastic Compliance Matrix: (Units=1/GPa)
#
#
# Indices 1 2 3 4 5 6 
#
# 1 0.032186 -0.019011 -0.004667 0.000000 0.000000 0.000000
# 2 -0.019011 0.027435 -0.003831 0.000000 0.000000 0.000000
# 3 -0.004667 -0.003831 0.015920 0.000000 0.000000 0.000000
# 4 0.000000 0.000000 0.000000 0.099174 0.000000 0.000000
# 5 0.000000 0.000000 0.000000 0.000000 0.178657 0.000000
# 6 0.000000 0.000000 0.000000 0.000000 0.000000 0.040392
#
#
# Mechanical properties :
#
#
# Convention : Reuss Voigt Hill
#
# Bulk Modulus (GPa) = 48.72351 49.18034 48.95192
# Shear Modulus (GPa) = 10.97398 15.21658 13.09528
#
# Velocity S-wave (km/s) = 2.66082 3.13323 2.90664
# Velocity P-wave (km/s) = 6.39332 6.69468 6.54573
#
# Compressibility (1/GPa) = 0.02052397
#
# Stress axis : x y z
#
# Youngs Moduli (GPa) = 31.06937 36.44931 62.81342
#
# Poissons Ratio (x) = 0.69294 0.29314
# Poissons Ratio (y) = 0.59066 0.24064
# Poissons Ratio (z) = 0.14499 0.13964
#
# Static dielectric constant tensor:
#      x y z
#    x 1.521540 0.000000 0.000000 
#    y 0.000000 1.534990 0.000000 
#    z 0.000000 0.000000 1.487410 
# 
# From -- ./inp_files/45938.got.cif
#   From: 2010.05.17/outbox.cif.g08.bks.cpg/sg65_23_cif.got.tgz:45938.got - 2010.06.03 17:01:31.
