data_PCOD9484171
_publ_section_title
;
Structure prediction by ZEFSAII (Michael W. Deem and Ramdas Pophale) SiO2 
 PCOD9484171
Probable space group: C M M M
;
_chemical_formula_sum "Si O2"
_cell_formula_units_Z 120
_cell_length_a 28.957396
_cell_length_b 7.808719
_cell_length_c 26.004786
_cell_angle_alpha 90.000000
_cell_angle_beta 90.000000
_cell_angle_gamma 90.000000
_cell_volume 5880.206588
_symmetry_space_group_name_H-M "C M M M"
_symmetry_group_IT_number 65
_symmetry_cell_setting 'orthorhombic'
loop_
_space_group_symop_operation_xyz
x,y,z
-x,-y,z
x,-y,-z
-x,y,-z
-x,-y,-z
x,y,-z
-x,y,z
x,-y,z
1/2+x,1/2+y,z
1/2-x,1/2-y,z
1/2+x,1/2-y,-z
1/2-x,1/2+y,-z
1/2-x,1/2-y,-z
1/2+x,1/2+y,-z
1/2-x,1/2+y,z
1/2+x,1/2-y,z
loop_
_atom_site_type_symbol
_atom_site_label
_atom_site_fract_x
_atom_site_fract_y
_atom_site_fract_z
Si Si1 0.552844 0.796483 0.715590
Si Si2 0.698058 0.706162 0.257529
Si Si3 0.500000 0.208264 0.560073
Si Si4 0.450737 0.301198 0.831896
Si Si5 0.354358 0.704077 0.158172
Si Si6 0.302275 0.703451 0.374445
Si Si7 0.903614 0.293905 0.613210
Si Si8 0.196321 0.296026 0.944665
O O1 0.500000 0.776122 0.696060
O O2 0.555634 0.705566 0.770108
O O3 0.587538 0.733535 0.671972
O O4 0.559670 0.000000 0.723891
O O5 0.693265 0.500000 0.260163
O O6 0.750000 0.750000 0.241191
O O7 0.665470 0.773449 0.212066
O O8 0.693146 0.774857 0.315788
O O9 0.500000 0.249738 0.500000
O O10 0.549884 0.266285 0.583227
O O11 0.500000 0.000000 0.565874
O O12 0.500000 0.219048 0.843415
O O13 0.453080 0.500000 0.847567
O O14 0.404665 0.220958 0.853624
O O15 0.359220 0.500000 0.166487
O O16 0.323938 0.727087 0.108095
O O17 0.302129 0.500000 0.371979
O O18 0.250000 0.750000 0.393202
O O19 0.350765 0.751037 0.402403
O O20 0.906228 0.500000 0.613148
O O21 0.191173 0.500000 0.943601
O O22 0.250000 0.250000 0.944864
O O23 0.176915 0.233028 0.000000
#
# Coordination Sequence:
#
# PCOD9484171 Si02
#       8
#    16  16   8  16  16  16  16  16
#     4   9  16  27  44  69 101 135 170 206 245 293
#     4   9  18  30  44  66  99 132 165 200 237 287
#     4   9  18  34  57  83 109 139 175 217 268 319
#     4   9  18  31  46  67  98 133 167 203 240 284
#     4  10  19  31  48  70  96 127 162 200 242 289
#     4  10  20  34  51  74 106 143 179 213 253 305
#     4  10  18  31  52  77 105 137 175 218 260 307
#     4  10  21  36  53  73  95 118 149 192 242 295
#
# _framework density 20.407446
#
# number of rings (size 3 to 8) (size 9 to 14) (size 15 to 20)
#    0.000    2.467    0.667    2.000    0.000    5.067 
#    0.000    0.333    0.000    1.600    0.000    2.800 
#    0.000    0.000    0.000    0.000    0.000    0.000 
#
# Total GULP energy -334224.658355 kJ/mol
# GULP energy per Si atom -5570.410973 kJ/mol
# Density = 2.036100 g / cm^3
# Si number density = 20.407446 Si / 1000 Ang^3
#
#
#
# Elastic Constant Matrix: (Units=GPa)
#
#
# Indices 1 2 3 4 5 6 
#
# 1 152.5064 1.5794 31.8529 0.0000 0.0000 0.0000
# 2 1.5794 32.5788 -3.2979 0.0000 0.0000 0.0000
# 3 31.8529 -3.2979 28.9158 0.0000 0.0000 0.0000
# 4 0.0000 0.0000 0.0000 2.5864 0.0000 0.0000
# 5 0.0000 0.0000 0.0000 0.0000 13.4939 0.0000
# 6 0.0000 0.0000 0.0000 0.0000 0.0000 17.8177
#
#
#
# Elastic Compliance Matrix: (Units=1/GPa)
#
#
# Indices 1 2 3 4 5 6 
#
# 1 0.008578 -0.001388 -0.009608 0.000000 0.000000 0.000000
# 2 -0.001388 0.031278 0.005097 0.000000 0.000000 0.000000
# 3 -0.009608 0.005097 0.045748 0.000000 0.000000 0.000000
# 4 0.000000 0.000000 0.000000 0.386638 0.000000 0.000000
# 5 0.000000 0.000000 0.000000 0.000000 0.074107 0.000000
# 6 0.000000 0.000000 0.000000 0.000000 0.000000 0.056124
#
#
# Mechanical properties :
#
#
# Convention : Reuss Voigt Hill
#
# Bulk Modulus (GPa) = 13.54910 30.47440 22.01175
# Shear Modulus (GPa) = 7.82625 19.03738 13.43182
#
# Velocity S-wave (km/s) = 1.96044 3.05760 2.56829
# Velocity P-wave (km/s) = 3.43193 5.23742 4.42768
#
# Compressibility (1/GPa) = 0.07380566
#
# Stress axis : x y z
#
# Youngs Moduli (GPa) = 116.57436 31.97126 21.85870
#
# Poissons Ratio (x) = 0.04439 0.21002
# Poissons Ratio (y) = 0.16186 -0.11141
# Poissons Ratio (z) = 1.12004 -0.16295
#
# Static dielectric constant tensor:
#      x y z
#    x 1.815180 0.000000 0.000000 
#    y 0.000000 1.712720 0.000000 
#    z 0.000000 0.000000 1.713510 
# 
# From -- ./inp_files/76123.got.cif
#   From: 2010.05.17/outbox.cif.g08.bks.cpg/sg65_39_cif.got.tgz:76123.got - 2010.06.03 17:01:31.
