data_PCOD9484146
_publ_section_title
;
Structure prediction by ZEFSAII (Michael W. Deem and Ramdas Pophale) SiO2 
 PCOD9484146
Probable space group: C M M M
;
_chemical_formula_sum "Si O2"
_cell_formula_units_Z 96
_cell_length_a 7.318639
_cell_length_b 28.559615
_cell_length_c 20.625437
_cell_angle_alpha 90.000000
_cell_angle_beta 90.000000
_cell_angle_gamma 90.000000
_cell_volume 4311.077529
_symmetry_space_group_name_H-M "C M M M"
_symmetry_group_IT_number 65
_symmetry_cell_setting 'orthorhombic'
loop_
_space_group_symop_operation_xyz
x,y,z
-x,-y,z
x,-y,-z
-x,y,-z
-x,-y,-z
x,y,-z
-x,y,z
x,-y,z
1/2+x,1/2+y,z
1/2-x,1/2-y,z
1/2+x,1/2-y,-z
1/2-x,1/2+y,-z
1/2-x,1/2-y,-z
1/2+x,1/2+y,-z
1/2-x,1/2+y,z
1/2+x,1/2-y,z
loop_
_atom_site_type_symbol
_atom_site_label
_atom_site_fract_x
_atom_site_fract_y
_atom_site_fract_z
Si Si1 0.714906 0.449336 0.412781
Si Si2 0.722964 0.655600 0.429368
Si Si3 0.782351 0.805163 0.711861
Si Si4 0.798488 0.867816 0.826560
Si Si5 0.221787 0.053427 0.075874
Si Si6 0.282429 0.050146 0.739045
O O1 0.500000 0.449744 0.428418
O O2 0.790420 0.500000 0.433420
O O3 0.784021 0.398629 0.432749
O O4 0.738073 0.448993 0.335961
O O5 0.775070 0.677422 0.500000
O O6 0.500000 0.656668 0.427501
O O7 0.783459 0.675746 0.359019
O O8 0.750000 0.750000 0.712494
O O9 0.711726 0.827852 0.779935
O O10 0.000000 0.814386 0.713054
O O11 0.714280 0.900629 0.883747
O O12 0.814375 0.908064 0.773032
O O13 0.000000 0.851465 0.848941
O O14 0.000000 0.053299 0.082557
O O15 0.283176 0.000000 0.093723
O O16 0.264801 0.059173 0.000000
O O17 0.500000 0.054723 0.747239
O O18 0.223725 0.000000 0.765229
#
# Coordination Sequence:
#
# PCOD9484146 Si02
#       6
#    16  16  16  16  16  16
#     4   9  16  28  47  69  95 127 160 193 234 287
#     4   9  17  31  50  72  98 124 156 201 248 297
#     4  10  21  36  52  72  94 122 162 211 262 301
#     4  10  18  31  52  74  97 128 166 203 242 289
#     4   8  14  25  45  77 111 135 157 191 233 276
#     4  10  19  28  42  69 102 131 160 195 235 280
#
# _framework density 22.268215999999999
#
# number of rings (size 3 to 8) (size 9 to 14) (size 15 to 20)
#    0.000    2.667    1.667    1.500    0.000    3.000 
#    0.000    1.667    0.000    2.500    0.000    4.667 
#    0.000    0.000    0.000    0.000    0.000    0.000 
#
# Total GULP energy -267228.481730 kJ/mol
# GULP energy per Si atom -5567.260036 kJ/mol
# Density = 2.221753 g / cm^3
# Si number density = 22.268216 Si / 1000 Ang^3
#
#
#
# Elastic Constant Matrix: (Units=GPa)
#
#
# Indices 1 2 3 4 5 6 
#
# 1 91.7480 2.5866 -2.3939 0.0000 0.0000 0.0000
# 2 2.5866 141.3564 68.3807 0.0000 0.0000 0.0000
# 3 -2.3939 68.3807 177.1187 0.0000 0.0000 0.0000
# 4 0.0000 0.0000 0.0000 1741.3664 0.0000 0.0000
# 5 0.0000 0.0000 0.0000 0.0000 828.2041 0.0000
# 6 0.0000 0.0000 0.0000 0.0000 0.0000 10.5138
#
#
#
# Elastic Compliance Matrix: (Units=1/GPa)
#
#
# Indices 1 2 3 4 5 6 
#
# 1 0.010916 -0.000333 0.000276 0.000000 0.000000 0.000000
# 2 -0.000333 0.008709 -0.003367 0.000000 0.000000 0.000000
# 3 0.000276 -0.003367 0.006950 0.000000 0.000000 0.000000
# 4 0.000000 0.000000 0.000000 0.000574 0.000000 0.000000
# 5 0.000000 0.000000 0.000000 0.000000 0.001207 0.000000
# 6 0.000000 0.000000 0.000000 0.000000 0.000000 0.095113
#
#
# Mechanical properties :
#
#
# Convention : Reuss Voigt Hill
#
# Bulk Modulus (GPa) = 50.69279 60.81890 55.75584
# Shear Modulus (GPa) = 36.52499 538.79350 287.65924
#
# Velocity S-wave (km/s) = 4.05437 15.57182 11.37804
# Velocity P-wave (km/s) = 6.68814 18.72645 14.06078
#
# Compressibility (1/GPa) = 0.01972667
#
# Stress axis : x y z
#
# Youngs Moduli (GPa) = 91.60844 114.82207 143.89480
#
# Poissons Ratio (x) = 0.03828 -0.03975
# Poissons Ratio (y) = 0.03054 0.48447
# Poissons Ratio (z) = -0.02531 0.38659
#
# Static dielectric constant tensor:
#      x y z
#    x 1.887060 0.000000 0.000000 
#    y 0.000000 1.819760 0.000000 
#    z 0.000000 0.000000 1.868980 
# 
# From -- ./inp_files/60189.got.cif
#   From: 2010.05.17/outbox.cif.g08.bks.cpg/sg65_31_cif.got.tgz:60189.got - 2010.06.03 17:01:31.
