data_PCOD9484701
_publ_section_title
;
Structure prediction by ZEFSAII (Michael W. Deem and Ramdas Pophale) SiO2 
 PCOD9484701
Probable space group: C M M M
;
_chemical_formula_sum "Si O2"
_cell_formula_units_Z 88
_cell_length_a 7.283559
_cell_length_b 18.481539
_cell_length_c 30.874385
_cell_angle_alpha 90.000000
_cell_angle_beta 90.000000
_cell_angle_gamma 90.000000
_cell_volume 4156.043563
_symmetry_space_group_name_H-M "C M M M"
_symmetry_group_IT_number 65
_symmetry_cell_setting 'orthorhombic'
loop_
_space_group_symop_operation_xyz
x,y,z
-x,-y,z
x,-y,-z
-x,y,-z
-x,-y,-z
x,y,-z
-x,y,z
x,-y,z
1/2+x,1/2+y,z
1/2-x,1/2-y,z
1/2+x,1/2-y,-z
1/2-x,1/2+y,-z
1/2-x,1/2-y,-z
1/2+x,1/2+y,-z
1/2-x,1/2+y,z
1/2+x,1/2-y,z
loop_
_atom_site_type_symbol
_atom_site_label
_atom_site_fract_x
_atom_site_fract_y
_atom_site_fract_z
Si Si1 0.776176 0.584520 0.585739
Si Si2 0.721661 0.913687 0.773104
Si Si3 0.218482 0.664918 0.500000
Si Si4 0.778748 0.413567 0.679974
Si Si5 0.718749 0.835694 0.952594
Si Si6 0.776308 0.584512 0.132931
O O1 0.725265 0.500000 0.581634
O O2 0.711719 0.628590 0.544156
O O3 0.715079 0.613260 0.632993
O O4 0.000000 0.586269 0.586244
O O5 0.500000 0.907290 0.772727
O O6 0.787776 0.884582 0.726538
O O7 0.784562 0.885836 0.819978
O O8 0.761127 0.000000 0.773387
O O9 0.250000 0.750000 0.500000
O O10 0.000000 0.652086 0.500000
O O11 0.741203 0.500000 0.679759
O O12 0.000000 0.406193 0.680335
O O13 0.500000 0.848053 0.953221
O O14 0.750000 0.750000 0.949298
O O15 0.789690 0.874368 0.909625
O O16 0.789103 0.859503 0.000000
O O17 0.726947 0.500000 0.130123
O O18 0.000000 0.587549 0.133200
#
# Coordination Sequence:
#
# PCOD9484701 Si02
#       6
#    16  16   8  16  16  16
#     4   8  13  22  38  58  75  94 127 166 193 215
#     4   7   9  14  26  47  75  99 115 141 187 231
#     4  10  19  29  41  57  79 106 130 154 190 232
#     4   7   9  14  27  49  74  95 116 148 189 224
#     4   9  17  28  41  56  75 101 130 158 189 225
#     4   8  13  21  35  56  78  98 123 156 191 225
#
# _framework density 21.173984999999998
#
# number of rings (size 3 to 8) (size 9 to 14) (size 15 to 20)
#    0.000    4.000    0.000    3.545    0.000    1.455 
#    0.000    1.818    0.000    2.727    0.000    2.545 
#    0.000    0.000    0.000    9.091    0.000    7.273 
#
# Total GULP energy -244951.199645 kJ/mol
# GULP energy per Si atom -5567.072719 kJ/mol
# Density = 2.112579 g / cm^3
# Si number density = 21.173985 Si / 1000 Ang^3
#
#
#
# Elastic Constant Matrix: (Units=GPa)
#
#
# Indices 1 2 3 4 5 6 
#
# 1 89.1398 -2.7219 13.7134 0.0000 0.0000 0.0000
# 2 -2.7219 34.3279 77.5642 0.0000 0.0000 0.0000
# 3 13.7134 77.5642 328.0633 0.0000 0.0000 0.0000
# 4 0.0000 0.0000 0.0000 -8.6813 0.0000 0.0000
# 5 0.0000 0.0000 0.0000 0.0000 -19.5848 0.0000
# 6 0.0000 0.0000 0.0000 0.0000 0.0000 -8.0293
#
#
#
# Elastic Compliance Matrix: (Units=1/GPa)
#
#
# Indices 1 2 3 4 5 6 
#
# 1 0.011582 0.004320 -0.001506 0.000000 0.000000 0.000000
# 2 0.004320 0.064153 -0.015348 0.000000 0.000000 0.000000
# 3 -0.001506 -0.015348 0.006740 0.000000 0.000000 0.000000
# 4 0.000000 0.000000 0.000000 -0.115190 0.000000 0.000000
# 5 0.000000 0.000000 0.000000 0.000000 -0.051060 0.000000
# 6 0.000000 0.000000 0.000000 0.000000 0.000000 -0.124544
#
#
# Mechanical properties :
#
#
# Convention : Reuss Voigt Hill
#
# Bulk Modulus (GPa) = 17.41935 69.84917 43.63426
# Shear Modulus (GPa) = -30.46635 16.93926 -6.76354
#
# Velocity S-wave (km/s) = -3.79734 2.83150 -1.78919
# Velocity P-wave (km/s) = 3.31388 6.61435 4.04771
#
# Compressibility (1/GPa) = 0.05740741
#
# Stress axis : x y z
#
# Youngs Moduli (GPa) = 86.34191 15.58770 148.36911
#
# Poissons Ratio (x) = -0.06734 0.22338
# Poissons Ratio (y) = -0.37301 2.27722
# Poissons Ratio (z) = 0.12999 0.23925
#
# Static dielectric constant tensor:
#      x y z
#    x 1.820400 0.000000 0.000000 
#    y 0.000000 1.681750 0.000000 
#    z 0.000000 0.000000 1.845710 
# 
# From -- ./inp_files/77481.got.cif
#   From: 2010.05.17/outbox.cif.g08.bks.cpg/sg65_39_cif.got.tgz:77481.got - 2010.06.03 17:01:31.
