data_PCOD9484186
_publ_section_title
;
Structure prediction by ZEFSAII (Michael W. Deem and Ramdas Pophale) SiO2 
 PCOD9484186
Probable space group: C M M M
;
_chemical_formula_sum "Si O2"
_cell_formula_units_Z 64
_cell_length_a 15.099522
_cell_length_b 8.219738
_cell_length_c 25.865966
_cell_angle_alpha 90.000000
_cell_angle_beta 90.000000
_cell_angle_gamma 90.000000
_cell_volume 3210.331473
_symmetry_space_group_name_H-M "C M M M"
_symmetry_group_IT_number 65
_symmetry_cell_setting 'orthorhombic'
loop_
_space_group_symop_operation_xyz
x,y,z
-x,-y,z
x,-y,-z
-x,y,-z
-x,-y,-z
x,y,-z
-x,y,z
x,-y,z
1/2+x,1/2+y,z
1/2-x,1/2-y,z
1/2+x,1/2-y,-z
1/2-x,1/2+y,-z
1/2-x,1/2-y,-z
1/2+x,1/2+y,-z
1/2-x,1/2+y,z
1/2+x,1/2-y,z
loop_
_atom_site_type_symbol
_atom_site_label
_atom_site_fract_x
_atom_site_fract_y
_atom_site_fract_z
Si Si1 0.352616 0.803747 0.500000
Si Si2 0.500000 0.199224 0.307930
Si Si3 0.148489 0.693800 0.110795
Si Si4 0.148335 0.696702 0.387066
Si Si5 0.000000 0.300613 0.189513
Si Si6 0.352478 0.307298 0.000000
O O1 0.250000 0.750000 0.500000
O O2 0.386477 0.748237 0.443888
O O3 0.359035 0.000000 0.500000
O O4 0.585645 0.252016 0.340709
O O5 0.500000 0.254024 0.248737
O O6 0.500000 0.000000 0.307298
O O7 0.148922 0.500000 0.111542
O O8 0.250000 0.750000 0.115911
O O9 0.085891 0.752709 0.157000
O O10 0.111523 0.745823 0.054652
O O11 0.146718 0.500000 0.387394
O O12 0.250000 0.750000 0.381152
O O13 0.000000 0.500000 0.189896
O O14 0.250000 0.250000 0.000000
O O15 0.355574 0.500000 0.000000
#
# Coordination Sequence:
#
# PCOD9484186 Si02
#       6
#     8   8  16  16   8   8
#     4   8  14  25  43  71  98 124 156 197 245 295
#     4   9  18  33  50  71  96 129 170 209 242 286
#     4  10  19  34  54  76 101 131 163 200 243 292
#     4   9  17  30  50  72  99 129 162 202 248 295
#     4   9  20  35  51  71  99 133 170 203 242 294
#     4  10  18  31  52  79 106 130 158 197 243 295
#
# _framework density 19.935635000000001
#
# number of rings (size 3 to 8) (size 9 to 14) (size 15 to 20)
#    0.000    2.750    0.000    3.375    0.000    2.000 
#    0.000    8.125    0.000    4.500    0.000    8.750 
#    0.000    0.000    0.000    0.000    0.000    0.000 
#
# Total GULP energy -178416.973384 kJ/mol
# GULP energy per Si atom -5575.530418 kJ/mol
# Density = 1.989026 g / cm^3
# Si number density = 19.935635 Si / 1000 Ang^3
#
#
#
# Elastic Constant Matrix: (Units=GPa)
#
#
# Indices 1 2 3 4 5 6 
#
# 1 111.6942 10.5314 101.4436 0.0000 0.0000 0.0000
# 2 10.5314 28.7491 21.3992 0.0000 0.0000 0.0000
# 3 101.4436 21.3992 249.3844 0.0000 0.0000 0.0000
# 4 0.0000 0.0000 0.0000 14.5820 0.0000 0.0000
# 5 0.0000 0.0000 0.0000 0.0000 35.7047 0.0000
# 6 0.0000 0.0000 0.0000 0.0000 0.0000 13.8043
#
#
#
# Elastic Compliance Matrix: (Units=1/GPa)
#
#
# Indices 1 2 3 4 5 6 
#
# 1 0.014224 -0.000965 -0.005703 0.000000 0.000000 0.000000
# 2 -0.000965 0.037223 -0.002801 0.000000 0.000000 0.000000
# 3 -0.005703 -0.002801 0.006570 0.000000 0.000000 0.000000
# 4 0.000000 0.000000 0.000000 0.068578 0.000000 0.000000
# 5 0.000000 0.000000 0.000000 0.000000 0.028008 0.000000
# 6 0.000000 0.000000 0.000000 0.000000 0.000000 0.072441
#
#
# Mechanical properties :
#
#
# Convention : Reuss Voigt Hill
#
# Bulk Modulus (GPa) = 25.59062 72.95291 49.27177
# Shear Modulus (GPa) = 19.30444 29.91510 24.60977
#
# Velocity S-wave (km/s) = 3.11519 3.87794 3.51730
# Velocity P-wave (km/s) = 5.07973 7.53159 6.42373
#
# Compressibility (1/GPa) = 0.03907682
#
# Stress axis : x y z
#
# Youngs Moduli (GPa) = 70.30534 26.86546 152.20487
#
# Poissons Ratio (x) = 0.02594 0.86803
# Poissons Ratio (y) = 0.06788 0.42637
# Poissons Ratio (z) = 0.40095 0.07526
#
# Static dielectric constant tensor:
#      x y z
#    x 1.700580 0.000000 0.000000 
#    y 0.000000 1.698190 0.000000 
#    z 0.000000 0.000000 1.731330 
# 
# From -- ./inp_files/69561.got.cif
#   From: 2010.05.17/outbox.cif.g08.bks.cpg/sg65_35_cif.got.tgz:69561.got - 2010.06.03 17:01:31.
