data_PCOD9484453
_publ_section_title
;
Structure prediction by ZEFSAII (Michael W. Deem and Ramdas Pophale) SiO2 
 PCOD9484453
Probable space group: C M M M
;
_chemical_formula_sum "Si O2"
_cell_formula_units_Z 104
_cell_length_a 16.271494
_cell_length_b 15.953987
_cell_length_c 20.898208
_cell_angle_alpha 90.000000
_cell_angle_beta 90.000000
_cell_angle_gamma 90.000000
_cell_volume 5425.074564
_symmetry_space_group_name_H-M "C M M M"
_symmetry_group_IT_number 65
_symmetry_cell_setting 'orthorhombic'
loop_
_space_group_symop_operation_xyz
x,y,z
-x,-y,z
x,-y,-z
-x,y,-z
-x,-y,-z
x,y,-z
-x,y,z
x,-y,z
1/2+x,1/2+y,z
1/2-x,1/2-y,z
1/2+x,1/2-y,-z
1/2-x,1/2+y,-z
1/2-x,1/2-y,-z
1/2+x,1/2+y,-z
1/2-x,1/2+y,z
1/2+x,1/2-y,z
loop_
_atom_site_type_symbol
_atom_site_label
_atom_site_fract_x
_atom_site_fract_y
_atom_site_fract_z
Si Si1 0.000000 0.659361 0.930912
Si Si2 0.402936 0.777797 0.429915
Si Si3 0.185406 0.592136 0.659684
Si Si4 0.680932 0.902961 0.072504
Si Si5 0.814683 0.323800 0.790429
Si Si6 0.128845 0.907561 0.386818
Si Si7 0.500000 0.757397 0.196524
Si Si8 0.500000 0.408218 0.726434
O O1 0.081639 0.604252 0.925137
O O2 0.000000 0.731586 0.879118
O O3 0.000000 0.699416 0.000000
O O4 0.371294 0.804886 0.500000
O O5 0.500000 0.793018 0.427066
O O6 0.361938 0.831112 0.373576
O O7 0.390402 0.677848 0.423690
O O8 0.147436 0.500000 0.648006
O O9 0.195042 0.607158 0.735334
O O10 0.275412 0.592453 0.628891
O O11 0.705673 0.853959 0.137058
O O12 0.705466 0.000000 0.077544
O O13 0.704862 0.873069 0.000000
O O14 0.750000 0.250000 0.775078
O O15 0.911528 0.297860 0.784767
O O16 0.077583 0.901055 0.320991
O O17 0.107553 0.000000 0.414853
O O18 0.500000 0.664856 0.223167
O O19 0.500000 0.500000 0.756242
#
# Coordination Sequence:
#
# PCOD9484453 Si02
#       8
#     8  16  16  16  16  16   8   8
#     4   8  15  28  48  75 107 143 184 231 280 338
#     4  11  24  41  62  86 116 153 191 238 294 351
#     4  11  24  40  59  86 118 154 195 239 292 353
#     4   9  17  31  52  80 115 152 188 231 287 349
#     4  11  22  36  57  85 116 151 193 246 292 343
#     4  10  21  38  62  88 115 148 189 240 292 344
#     4  10  20  33  54  80 106 146 190 228 289 349
#     4  10  18  32  56  82 109 141 182 233 285 337
#
# _framework density 19.170242999999999
#
# number of rings (size 3 to 8) (size 9 to 14) (size 15 to 20)
#    0.000    1.846    0.769    3.923    1.077    3.385 
#    0.000    4.615    0.000    0.231    0.000    0.000 
#    0.000    0.000    0.000    0.000    0.000    0.000 
#
# Total GULP energy -289772.740794 kJ/mol
# GULP energy per Si atom -5572.552708 kJ/mol
# Density = 1.912661 g / cm^3
# Si number density = 19.170243 Si / 1000 Ang^3
#
#
#
# Elastic Constant Matrix: (Units=GPa)
#
#
# Indices 1 2 3 4 5 6 
#
# 1 50.5308 11.0954 5.7409 0.0000 0.0000 0.0000
# 2 11.0954 96.2677 45.6836 0.0000 0.0000 0.0000
# 3 5.7409 45.6836 80.2106 0.0000 0.0000 0.0000
# 4 0.0000 0.0000 0.0000 0.5866 0.0000 0.0000
# 5 0.0000 0.0000 0.0000 0.0000 3.1761 0.0000
# 6 0.0000 0.0000 0.0000 0.0000 0.0000 4.3490
#
#
#
# Elastic Compliance Matrix: (Units=1/GPa)
#
#
# Indices 1 2 3 4 5 6 
#
# 1 0.020305 -0.002262 -0.000165 0.000000 0.000000 0.000000
# 2 -0.002262 0.014487 -0.008089 0.000000 0.000000 0.000000
# 3 -0.000165 -0.008089 0.017086 0.000000 0.000000 0.000000
# 4 0.000000 0.000000 0.000000 1.704663 0.000000 0.000000
# 5 0.000000 0.000000 0.000000 0.000000 0.314855 0.000000
# 6 0.000000 0.000000 0.000000 0.000000 0.000000 0.229938
#
#
# Mechanical properties :
#
#
# Convention : Reuss Voigt Hill
#
# Bulk Modulus (GPa) = 32.41885 39.11656 35.76771
# Shear Modulus (GPa) = 2.14349 12.58828 7.36588
#
# Velocity S-wave (km/s) = 1.05856 2.56531 1.96232
# Velocity P-wave (km/s) = 4.29439 5.40588 4.88187
#
# Compressibility (1/GPa) = 0.03084625
#
# Stress axis : x y z
#
# Youngs Moduli (GPa) = 49.24808 69.02687 58.52698
#
# Poissons Ratio (x) = 0.15614 0.00966
# Poissons Ratio (y) = 0.11140 0.47343
# Poissons Ratio (z) = 0.00813 0.55837
#
# Static dielectric constant tensor:
#      x y z
#    x 1.712710 0.000000 0.000000 
#    y 0.000000 1.679740 0.000000 
#    z 0.000000 0.000000 1.691930 
# 
# From -- ./inp_files/63842.got.cif
#   From: 2010.05.17/outbox.cif.g08.bks.cpg/sg65_32_cif.got.tgz:63842.got - 2010.06.03 17:01:31.
