data_PCOD9484132
_publ_section_title
;
Structure prediction by ZEFSAII (Michael W. Deem and Ramdas Pophale) SiO2 
 PCOD9484132
Probable space group: C M M M
;
_chemical_formula_sum "Si O2"
_cell_formula_units_Z 88
_cell_length_a 14.368718
_cell_length_b 16.460172
_cell_length_c 15.414590
_cell_angle_alpha 90.000000
_cell_angle_beta 90.000000
_cell_angle_gamma 90.000000
_cell_volume 3645.728877
_symmetry_space_group_name_H-M "C M M M"
_symmetry_group_IT_number 65
_symmetry_cell_setting 'orthorhombic'
loop_
_space_group_symop_operation_xyz
x,y,z
-x,-y,z
x,-y,-z
-x,y,-z
-x,-y,-z
x,y,-z
-x,y,z
x,-y,z
1/2+x,1/2+y,z
1/2-x,1/2-y,z
1/2+x,1/2-y,-z
1/2-x,1/2+y,-z
1/2-x,1/2-y,-z
1/2+x,1/2+y,-z
1/2-x,1/2+y,z
1/2+x,1/2-y,z
loop_
_atom_site_type_symbol
_atom_site_label
_atom_site_fract_x
_atom_site_fract_y
_atom_site_fract_z
Si Si1 0.641492 0.912781 0.703065
Si Si2 0.611648 0.307384 0.156442
Si Si3 0.137799 0.258177 0.596426
Si Si4 0.613573 0.872375 0.898942
Si Si5 0.855315 0.093953 0.332249
Si Si6 0.885677 0.910087 0.000000
O O1 0.604607 0.825308 0.667258
O O2 0.644096 0.913957 0.808332
O O3 0.744386 0.914544 0.662006
O O4 0.598598 0.000000 0.677317
O O5 0.500000 0.302700 0.151657
O O6 0.643165 0.219212 0.126246
O O7 0.632367 0.353746 0.244427
O O8 0.648994 0.366740 0.084058
O O9 0.116684 0.289065 0.500000
O O10 0.250000 0.250000 0.606004
O O11 0.106663 0.163642 0.603496
O O12 0.500000 0.878420 0.899130
O O13 0.640218 0.892360 0.000000
O O14 0.891477 0.000000 0.332218
O O15 0.000000 0.908584 0.000000
O O16 0.853530 0.000000 0.000000
#
# Coordination Sequence:
#
# PCOD9484132 Si02
#       6
#    16  16  16  16  16   8
#     4  10  21  37  56  80 110 140 180 230 274 321
#     4  10  18  31  51  76 105 142 183 220 262 315
#     4   9  18  34  57  82 110 143 178 221 274 327
#     4  10  20  36  58  80 105 143 189 230 273 328
#     4  10  20  34  54  81 112 143 177 218 268 325
#     4   9  16  26  42  67  99 133 174 217 250 294
#
# _framework density 24.137834000000002
#
# number of rings (size 3 to 8) (size 9 to 14) (size 15 to 20)
#    0.000    2.273    2.727    0.545    0.000    2.545 
#    1.636    5.455    0.000    2.182    0.000    2.545 
#    0.000    0.000    0.000    0.000    0.000    0.000 
#
# Total GULP energy -244964.373604 kJ/mol
# GULP energy per Si atom -5567.372127 kJ/mol
# Density = 2.408290 g / cm^3
# Si number density = 24.137834 Si / 1000 Ang^3
#
#
#
# Elastic Constant Matrix: (Units=GPa)
#
#
# Indices 1 2 3 4 5 6 
#
# 1 84.0457 15.6023 -5.6896 0.0000 0.0000 0.0000
# 2 15.6023 202.1278 51.6294 0.0000 0.0000 0.0000
# 3 -5.6896 51.6294 132.8958 0.0000 0.0000 0.0000
# 4 0.0000 0.0000 0.0000 -2.6943 0.0000 0.0000
# 5 0.0000 0.0000 0.0000 0.0000 26.0182 0.0000
# 6 0.0000 0.0000 0.0000 0.0000 0.0000 -22.9769
#
#
#
# Elastic Compliance Matrix: (Units=1/GPa)
#
#
# Indices 1 2 3 4 5 6 
#
# 1 0.012186 -0.001192 0.000985 0.000000 0.000000 0.000000
# 2 -0.001192 0.005609 -0.002230 0.000000 0.000000 0.000000
# 3 0.000985 -0.002230 0.008433 0.000000 0.000000 0.000000
# 4 0.000000 0.000000 0.000000 -0.371148 0.000000 0.000000
# 5 0.000000 0.000000 0.000000 0.000000 0.038435 0.000000
# 6 0.000000 0.000000 0.000000 0.000000 0.000000 -0.043522
#
#
# Mechanical properties :
#
#
# Convention : Reuss Voigt Hill
#
# Bulk Modulus (GPa) = 46.83038 60.23929 53.53483
# Shear Modulus (GPa) = -14.79228 23.90455 4.55613
#
# Velocity S-wave (km/s) = -2.47822 3.15037 1.37537
# Velocity P-wave (km/s) = 3.35479 6.18415 4.97485
#
# Compressibility (1/GPa) = 0.02135366
#
# Stress axis : x y z
#
# Youngs Moduli (GPa) = 82.05942 178.28378 118.57820
#
# Poissons Ratio (x) = 0.21256 -0.11679
# Poissons Ratio (y) = 0.09783 0.26444
# Poissons Ratio (z) = -0.08082 0.39760
#
# Static dielectric constant tensor:
#      x y z
#    x 2.003560 0.000000 0.000000 
#    y 0.000000 2.031730 0.000000 
#    z 0.000000 0.000000 1.919370 
# 
# From -- ./inp_files/43973.got.cif
#   From: 2010.05.17/outbox.cif.g08.bks.cpg/sg65_22_cif.got.tgz:43973.got - 2010.06.03 17:01:31.
