data_PCOD9484333
_publ_section_title
;
Structure prediction by ZEFSAII (Michael W. Deem and Ramdas Pophale) SiO2 
 PCOD9484333
Probable space group: C M M M
;
_chemical_formula_sum "Si O2"
_cell_formula_units_Z 80
_cell_length_a 8.724081
_cell_length_b 18.833178
_cell_length_c 27.074039
_cell_angle_alpha 90.000000
_cell_angle_beta 90.000000
_cell_angle_gamma 90.000000
_cell_volume 4448.323368
_symmetry_space_group_name_H-M "C M M M"
_symmetry_group_IT_number 65
_symmetry_cell_setting 'orthorhombic'
loop_
_space_group_symop_operation_xyz
x,y,z
-x,-y,z
x,-y,-z
-x,y,-z
-x,-y,-z
x,y,-z
-x,y,z
x,-y,z
1/2+x,1/2+y,z
1/2-x,1/2-y,z
1/2+x,1/2-y,-z
1/2-x,1/2+y,-z
1/2-x,1/2-y,-z
1/2+x,1/2+y,-z
1/2-x,1/2+y,z
1/2+x,1/2-y,z
loop_
_atom_site_type_symbol
_atom_site_label
_atom_site_fract_x
_atom_site_fract_y
_atom_site_fract_z
Si Si1 0.315313 0.915607 0.307346
Si Si2 0.317327 0.329485 0.601776
Si Si3 0.315819 0.581880 0.904902
Si Si4 0.321281 0.913853 0.198037
Si Si5 0.816536 0.669623 0.500000
Si Si6 0.185956 0.828882 0.000000
O O1 0.500000 0.905869 0.310594
O O2 0.232964 0.874321 0.350938
O O3 0.265877 0.890851 0.252305
O O4 0.286196 0.000000 0.311324
O O5 0.500000 0.325545 0.597060
O O6 0.250000 0.250000 0.607220
O O7 0.246329 0.361545 0.551235
O O8 0.500000 0.580454 0.905723
O O9 0.262192 0.500000 0.910468
O O10 0.263747 0.609624 0.851384
O O11 0.263657 0.628937 0.950916
O O12 0.500000 0.895161 0.193785
O O13 0.311534 0.000000 0.198964
O O14 0.500000 0.828920 0.500000
O O15 0.750000 0.750000 0.500000
O O16 0.250000 0.750000 0.000000
O O17 0.000000 0.827119 0.000000
#
# Coordination Sequence:
#
# PCOD9484333 Si02
#       6
#    16  16  16  16   8   8
#     4   9  18  34  54  76 105 138 168 203 253 306
#     4  11  21  34  53  77 104 133 171 214 254 299
#     4   9  17  31  52  74  95 123 163 206 242 283
#     4   8  15  29  50  75 101 128 160 200 245 293
#     4  10  18  32  53  74  99 132 171 211 255 303
#     4  10  21  35  49  69  99 132 162 196 246 298
#
# _framework density 17.984304000000002
#
# number of rings (size 3 to 8) (size 9 to 14) (size 15 to 20)
#    0.000    2.600    0.000    5.400    0.000    3.200 
#    0.000    3.500    0.000    8.400    0.000    0.000 
#    0.000    0.000    0.000    0.000    0.000    0.000 
#
# Total GULP energy -222964.553743 kJ/mol
# GULP energy per Si atom -5574.113844 kJ/mol
# Density = 1.794337 g / cm^3
# Si number density = 17.984304 Si / 1000 Ang^3
#
#
#
# Elastic Constant Matrix: (Units=GPa)
#
#
# Indices 1 2 3 4 5 6 
#
# 1 72.4424 30.8073 65.7793 0.0000 0.0000 0.0000
# 2 30.8073 41.7284 64.6581 0.0000 0.0000 0.0000
# 3 65.7793 64.6581 214.9372 0.0000 0.0000 0.0000
# 4 0.0000 0.0000 0.0000 112.6504 0.0000 0.0000
# 5 0.0000 0.0000 0.0000 0.0000 35.0600 0.0000
# 6 0.0000 0.0000 0.0000 0.0000 0.0000 21.8297
#
#
#
# Elastic Compliance Matrix: (Units=1/GPa)
#
#
# Indices 1 2 3 4 5 6 
#
# 1 0.021340 -0.010555 -0.003355 0.000000 0.000000 0.000000
# 2 -0.010555 0.050109 -0.011844 0.000000 0.000000 0.000000
# 3 -0.003355 -0.011844 0.009242 0.000000 0.000000 0.000000
# 4 0.000000 0.000000 0.000000 0.008877 0.000000 0.000000
# 5 0.000000 0.000000 0.000000 0.000000 0.028523 0.000000
# 6 0.000000 0.000000 0.000000 0.000000 0.000000 0.045809
#
#
# Mechanical properties :
#
#
# Convention : Reuss Voigt Hill
#
# Bulk Modulus (GPa) = 34.26769 72.39972 53.33371
# Shear Modulus (GPa) = 22.20880 45.09893 33.65386
#
# Velocity S-wave (km/s) = 3.51793 5.01311 4.33053
# Velocity P-wave (km/s) = 5.96629 8.59377 7.39762
#
# Compressibility (1/GPa) = 0.02918200
#
# Stress axis : x y z
#
# Youngs Moduli (GPa) = 46.86079 19.95651 108.19867
#
# Poissons Ratio (x) = 0.21065 0.36306
# Poissons Ratio (y) = 0.49464 1.28146
# Poissons Ratio (z) = 0.15724 0.23636
#
# Static dielectric constant tensor:
#      x y z
#    x 1.607950 0.000000 0.000000 
#    y 0.000000 1.601430 0.000000 
#    z 0.000000 0.000000 1.648530 
# 
# From -- ./inp_files/67299.got.cif
#   From: 2010.05.17/outbox.cif.g08.bks.cpg/sg65_34_cif.got.tgz:67299.got - 2010.06.03 17:01:31.
