data_PCOD9484775
_publ_section_title
;
Structure prediction by ZEFSAII (Michael W. Deem and Ramdas Pophale) SiO2 
 PCOD9484775
Probable space group: C M M M
;
_chemical_formula_sum "Si O2"
_cell_formula_units_Z 96
_cell_length_a 27.917798
_cell_length_b 8.724940
_cell_length_c 24.754857
_cell_angle_alpha 90.000000
_cell_angle_beta 90.000000
_cell_angle_gamma 90.000000
_cell_volume 6029.815607
_symmetry_space_group_name_H-M "C M M M"
_symmetry_group_IT_number 65
_symmetry_cell_setting 'orthorhombic'
loop_
_space_group_symop_operation_xyz
x,y,z
-x,-y,z
x,-y,-z
-x,y,-z
-x,-y,-z
x,y,-z
-x,y,z
x,-y,z
1/2+x,1/2+y,z
1/2-x,1/2-y,z
1/2+x,1/2-y,-z
1/2-x,1/2+y,-z
1/2-x,1/2-y,-z
1/2+x,1/2+y,-z
1/2-x,1/2+y,z
1/2+x,1/2-y,z
loop_
_atom_site_type_symbol
_atom_site_label
_atom_site_fract_x
_atom_site_fract_y
_atom_site_fract_z
Si Si1 0.395597 0.182252 0.777510
Si Si2 0.557987 0.819790 0.440616
Si Si3 0.053923 0.185165 0.118628
Si Si4 0.801611 0.184188 0.170466
Si Si5 0.349980 0.686169 0.059856
Si Si6 0.556670 0.681961 0.327476
O O1 0.431414 0.245531 0.823696
O O2 0.344067 0.254211 0.791774
O O3 0.414649 0.233801 0.719458
O O4 0.393051 0.000000 0.781133
O O5 0.574901 0.766383 0.500000
O O6 0.500000 0.808778 0.441619
O O7 0.573532 0.730210 0.387363
O O8 0.569626 0.000000 0.435211
O O9 0.095802 0.229476 0.076893
O O10 0.000000 0.229239 0.103188
O O11 0.055520 0.000000 0.123398
O O12 0.750000 0.250000 0.184653
O O13 0.816051 0.234046 0.109248
O O14 0.801343 0.000000 0.172153
O O15 0.348598 0.500000 0.058691
O O16 0.337628 0.742433 0.000000
O O17 0.500000 0.721638 0.322939
O O18 0.561054 0.500000 0.320634
#
# Coordination Sequence:
#
# PCOD9484775 Si02
#       6
#    16  16  16  16  16  16
#     4  11  21  32  47  66  89 118 153 191 230 274
#     4   8  14  25  40  59  87 124 163 198 229 263
#     4   9  17  29  45  65  91 122 153 187 226 266
#     4  10  20  35  53  71  91 114 142 180 228 279
#     4   8  15  28  46  69  94 118 146 180 218 266
#     4  10  19  29  43  65  94 127 161 196 232 269
#
# _framework density 15.920885
#
# number of rings (size 3 to 8) (size 9 to 14) (size 15 to 20)
#    0.000    2.667    0.000    4.500    0.000    4.333 
#    0.000    3.333    0.000   12.000    0.000    4.667 
#    0.000    0.667    0.000    2.500    0.000    3.833 
#
# Total GULP energy -267519.093594 kJ/mol
# GULP energy per Si atom -5573.314450 kJ/mol
# Density = 1.588465 g / cm^3
# Si number density = 15.920885 Si / 1000 Ang^3
#
#
#
# Elastic Constant Matrix: (Units=GPa)
#
#
# Indices 1 2 3 4 5 6 
#
# 1 57.5185 19.6234 13.4534 0.0000 0.0000 0.0000
# 2 19.6234 35.8445 22.0675 0.0000 0.0000 0.0000
# 3 13.4534 22.0675 82.6221 0.0000 0.0000 0.0000
# 4 0.0000 0.0000 0.0000 -18.9623 0.0000 0.0000
# 5 0.0000 0.0000 0.0000 0.0000 8.6611 0.0000
# 6 0.0000 0.0000 0.0000 0.0000 0.0000 18.2899
#
#
#
# Elastic Compliance Matrix: (Units=1/GPa)
#
#
# Indices 1 2 3 4 5 6 
#
# 1 0.021391 -0.011449 -0.000425 0.000000 0.000000 0.000000
# 2 -0.011449 0.039516 -0.008690 0.000000 0.000000 0.000000
# 3 -0.000425 -0.008690 0.014494 0.000000 0.000000 0.000000
# 4 0.000000 0.000000 0.000000 -0.052736 0.000000 0.000000
# 5 0.000000 0.000000 0.000000 0.000000 0.115459 0.000000
# 6 0.000000 0.000000 0.000000 0.000000 0.000000 0.054675
#
#
# Mechanical properties :
#
#
# Convention : Reuss Voigt Hill
#
# Bulk Modulus (GPa) = 29.17812 31.80818 30.49315
# Shear Modulus (GPa) = 20.37897 9.65379 15.01638
#
# Velocity S-wave (km/s) = 3.58161 2.46511 3.07447
# Velocity P-wave (km/s) = 5.95572 5.30327 5.63894
#
# Compressibility (1/GPa) = 0.03427225
#
# Stress axis : x y z
#
# Youngs Moduli (GPa) = 46.74822 25.30614 68.99609
#
# Poissons Ratio (x) = 0.28973 0.02934
# Poissons Ratio (y) = 0.53522 0.59958
# Poissons Ratio (z) = 0.01988 0.21991
#
# Static dielectric constant tensor:
#      x y z
#    x 1.513850 0.000000 0.000000 
#    y 0.000000 1.534760 0.000000 
#    z 0.000000 0.000000 1.542190 
# 
# From -- ./inp_files/68020.got.cif
#   From: 2010.05.17/outbox.cif.g08.bks.cpg/sg65_35_cif.got.tgz:68020.got - 2010.06.03 17:01:31.
