data_PCOD9484128
_publ_section_title
;
Structure prediction by ZEFSAII (Michael W. Deem and Ramdas Pophale) SiO2 
 PCOD9484128
Probable space group: C M M M
;
_chemical_formula_sum "Si O2"
_cell_formula_units_Z 104
_cell_length_a 8.095338
_cell_length_b 29.690825
_cell_length_c 23.577486
_cell_angle_alpha 90.000000
_cell_angle_beta 90.000000
_cell_angle_gamma 90.000000
_cell_volume 5667.020024
_symmetry_space_group_name_H-M "C M M M"
_symmetry_group_IT_number 65
_symmetry_cell_setting 'orthorhombic'
loop_
_space_group_symop_operation_xyz
x,y,z
-x,-y,z
x,-y,-z
-x,y,-z
-x,-y,-z
x,y,-z
-x,y,z
x,-y,z
1/2+x,1/2+y,z
1/2-x,1/2-y,z
1/2+x,1/2-y,-z
1/2-x,1/2+y,-z
1/2-x,1/2-y,-z
1/2+x,1/2+y,-z
1/2-x,1/2+y,z
1/2+x,1/2-y,z
loop_
_atom_site_type_symbol
_atom_site_label
_atom_site_fract_x
_atom_site_fract_y
_atom_site_fract_z
Si Si1 0.798952 0.950182 0.145308
Si Si2 0.802504 0.146773 0.886919
Si Si3 0.804057 0.859245 0.668182
Si Si4 0.199831 0.801012 0.435611
Si Si5 0.701603 0.450007 0.722122
Si Si6 0.693738 0.198436 0.774160
Si Si7 0.196314 0.301978 0.000000
O O1 0.744431 0.905351 0.112819
O O2 0.753253 0.944325 0.211628
O O3 0.000000 0.951152 0.143047
O O4 0.741678 0.000000 0.126624
O O5 0.730005 0.172330 0.832494
O O6 0.760195 0.172924 0.944036
O O7 0.000000 0.146511 0.879648
O O8 0.736520 0.835335 0.611922
O O9 0.736064 0.908172 0.685504
O O10 0.781120 0.826734 0.722100
O O11 0.000000 0.865011 0.659151
O O12 0.256700 0.810392 0.500000
O O13 0.250000 0.750000 0.421034
O O14 0.000000 0.802605 0.435653
O O15 0.500000 0.449248 0.721072
O O16 0.753996 0.500000 0.703775
O O17 0.500000 0.197445 0.762611
O O18 0.750000 0.250000 0.779114
O O19 0.250000 0.250000 0.000000
O O20 0.000000 0.303589 0.000000
#
# Coordination Sequence:
#
# PCOD9484128 Si02
#       7
#    16  16  16  16  16  16   8
#     4   8  14  27  52  83 109 133 168 212 253 302
#     4  11  21  38  61  83 107 138 178 217 258 305
#     4  10  18  31  51  75 102 134 173 216 261 309
#     4   9  18  31  47  68  97 134 175 217 262 311
#     4   8  13  24  46  76 104 132 168 208 252 306
#     4  12  24  36  51  75 107 137 169 213 266 315
#     4  12  26  44  61  80 107 141 182 219 261 310
#
# _framework density 18.351797999999999
#
# number of rings (size 3 to 8) (size 9 to 14) (size 15 to 20)
#    0.000    2.154    1.538    4.385    0.000    1.846 
#    0.000    0.385    0.000    6.000    0.000    3.231 
#    0.000    0.000    0.000    5.231    0.000    5.538 
#
# Total GULP energy -290148.396433 kJ/mol
# GULP energy per Si atom -5579.776854 kJ/mol
# Density = 1.831003 g / cm^3
# Si number density = 18.351798 Si / 1000 Ang^3
#
#
#
# Elastic Constant Matrix: (Units=GPa)
#
#
# Indices 1 2 3 4 5 6 
#
# 1 10.1284 -5.5424 -17.2359 0.0000 0.0000 0.0000
# 2 -5.5424 188.9510 73.3848 0.0000 0.0000 0.0000
# 3 -17.2359 73.3848 84.1424 0.0000 0.0000 0.0000
# 4 0.0000 0.0000 0.0000 35.9665 0.0000 0.0000
# 5 0.0000 0.0000 0.0000 0.0000 126.9636 0.0000
# 6 0.0000 0.0000 0.0000 0.0000 0.0000 16.2359
#
#
#
# Elastic Compliance Matrix: (Units=1/GPa)
#
#
# Indices 1 2 3 4 5 6 
#
# 1 0.170154 -0.012923 0.046126 0.000000 0.000000 0.000000
# 2 -0.012923 0.008985 -0.010483 0.000000 0.000000 0.000000
# 3 0.046126 -0.010483 0.030476 0.000000 0.000000 0.000000
# 4 0.000000 0.000000 0.000000 0.027804 0.000000 0.000000
# 5 0.000000 0.000000 0.000000 0.000000 0.007876 0.000000
# 6 0.000000 0.000000 0.000000 0.000000 0.000000 0.061592
#
#
# Mechanical properties :
#
#
# Convention : Reuss Voigt Hill
#
# Bulk Modulus (GPa) = 3.92075 42.71500 23.31787
# Shear Modulus (GPa) = 14.43139 51.34088 32.88614
#
# Velocity S-wave (km/s) = 2.80728 5.29497 4.23778
# Velocity P-wave (km/s) = 3.55652 7.79156 6.05629
#
# Compressibility (1/GPa) = 0.25505347
#
# Stress axis : x y z
#
# Youngs Moduli (GPa) = 5.87702 111.29858 32.81250
#
# Poissons Ratio (x) = 1.43835 -1.51350
# Poissons Ratio (y) = 0.07595 0.34399
# Poissons Ratio (z) = -0.27108 1.16678
#
# Static dielectric constant tensor:
#      x y z
#    x 1.668840 0.000000 0.000000 
#    y 0.000000 1.618120 0.000000 
#    z 0.000000 0.000000 1.596930 
# 
# From -- ./inp_files/60820.got.cif
#   From: 2010.05.17/outbox.cif.g08.bks.cpg/sg65_31_cif.got.tgz:60820.got - 2010.06.03 17:01:31.
