data_PCOD9484264
_publ_section_title
;
Structure prediction by ZEFSAII (Michael W. Deem and Ramdas Pophale) SiO2 
 PCOD9484264
Probable space group: C M M M
;
_chemical_formula_sum "Si O2"
_cell_formula_units_Z 72
_cell_length_a 13.552987
_cell_length_b 18.923369
_cell_length_c 18.874080
_cell_angle_alpha 90.000000
_cell_angle_beta 90.000000
_cell_angle_gamma 90.000000
_cell_volume 4840.600835
_symmetry_space_group_name_H-M "C M M M"
_symmetry_group_IT_number 65
_symmetry_cell_setting 'orthorhombic'
loop_
_space_group_symop_operation_xyz
x,y,z
-x,-y,z
x,-y,-z
-x,y,-z
-x,-y,-z
x,y,-z
-x,y,z
x,-y,z
1/2+x,1/2+y,z
1/2-x,1/2-y,z
1/2+x,1/2-y,-z
1/2-x,1/2+y,-z
1/2-x,1/2-y,-z
1/2+x,1/2+y,-z
1/2-x,1/2+y,z
1/2+x,1/2-y,z
loop_
_atom_site_type_symbol
_atom_site_label
_atom_site_fract_x
_atom_site_fract_y
_atom_site_fract_z
Si Si1 0.615725 0.145807 0.275319
Si Si2 0.388839 0.000000 0.188233
Si Si3 0.750000 0.250000 0.816289
Si Si4 0.619912 0.918110 0.579558
Si Si5 0.615999 0.347179 0.916414
Si Si6 0.206106 0.000000 0.916875
O O1 0.500000 0.167055 0.275974
O O2 0.620460 0.069877 0.236136
O O3 0.681492 0.200850 0.232646
O O4 0.650896 0.131286 0.355718
O O5 0.500000 0.000000 0.157614
O O6 0.304306 0.000000 0.129778
O O7 0.681870 0.298237 0.866624
O O8 0.650261 0.897069 0.500000
O O9 0.500000 0.918511 0.581094
O O10 0.650198 0.000000 0.590942
O O11 0.500000 0.336038 0.903640
O O12 0.644303 0.428942 0.903138
O O13 0.635217 0.332919 0.000000
O O14 0.232026 0.000000 0.000000
#
# Coordination Sequence:
#
# PCOD9484264 Si02
#       6
#    16   8   8  16  16   8
#     4  10  19  31  48  71  97 126 156 192 236 279
#     4  10  18  32  50  70  98 125 155 198 238 280
#     4  12  21  32  49  68 100 130 152 190 239 296
#     4   8  13  24  45  70  93 119 153 191 228 270
#     4  10  21  36  52  69  90 122 164 204 240 280
#     4  10  19  35  54  70  90 121 162 205 240 277
#
# _framework density 14.874186
#
# number of rings (size 3 to 8) (size 9 to 14) (size 15 to 20)
#    0.000    2.222    3.333    2.000    0.000    1.556 
#    0.000    0.556    0.000    0.000    0.000    0.000 
#    0.000    0.000    0.000    7.556    0.000    1.111 
#
# Total GULP energy -200622.258223 kJ/mol
# GULP energy per Si atom -5572.840506 kJ/mol
# Density = 1.484033 g / cm^3
# Si number density = 14.874186 Si / 1000 Ang^3
#
#
#
# Elastic Constant Matrix: (Units=GPa)
#
#
# Indices 1 2 3 4 5 6 
#
# 1 77.8520 50.7795 68.9991 0.0000 0.0000 0.0000
# 2 50.7795 97.2644 72.5506 0.0000 0.0000 0.0000
# 3 68.9991 72.5506 120.2740 0.0000 0.0000 0.0000
# 4 0.0000 0.0000 0.0000 17.9899 0.0000 0.0000
# 5 0.0000 0.0000 0.0000 0.0000 16.5030 0.0000
# 6 0.0000 0.0000 0.0000 0.0000 0.0000 17.2940
#
#
#
# Elastic Compliance Matrix: (Units=1/GPa)
#
#
# Indices 1 2 3 4 5 6 
#
# 1 0.027247 -0.004664 -0.012818 0.000000 0.000000 0.000000
# 2 -0.004664 0.019490 -0.009081 0.000000 0.000000 0.000000
# 3 -0.012818 -0.009081 0.021145 0.000000 0.000000 0.000000
# 4 0.000000 0.000000 0.000000 0.055587 0.000000 0.000000
# 5 0.000000 0.000000 0.000000 0.000000 0.060595 0.000000
# 6 0.000000 0.000000 0.000000 0.000000 0.000000 0.057824
#
#
# Mechanical properties :
#
#
# Convention : Reuss Voigt Hill
#
# Bulk Modulus (GPa) = 67.76465 75.56098 71.66282
# Shear Modulus (GPa) = 16.67043 17.22812 16.94928
#
# Velocity S-wave (km/s) = 3.35141 3.40701 3.37932
# Velocity P-wave (km/s) = 7.78675 8.14784 7.96934
#
# Compressibility (1/GPa) = 0.01475696
#
# Stress axis : x y z
#
# Youngs Moduli (GPa) = 36.70067 51.30928 47.29199
#
# Poissons Ratio (x) = 0.23932 0.60618
# Poissons Ratio (y) = 0.17118 0.42944
# Poissons Ratio (z) = 0.47042 0.46592
#
# Static dielectric constant tensor:
#      x y z
#    x 1.466710 0.000000 0.000000 
#    y 0.000000 1.481110 0.000000 
#    z 0.000000 0.000000 1.499240 
# 
# From -- ./inp_files/51190.got.cif
#   From: 2010.05.17/outbox.cif.g08.bks.cpg/sg65_26_cif.got.tgz:51190.got - 2010.06.03 17:01:31.
