data_PCOD9484565
_publ_section_title
;
Structure prediction by ZEFSAII (Michael W. Deem and Ramdas Pophale) SiO2 
 PCOD9484565
Probable space group: C M M M
;
_chemical_formula_sum "Si O2"
_cell_formula_units_Z 88
_cell_length_a 27.959760
_cell_length_b 9.286853
_cell_length_c 17.785177
_cell_angle_alpha 90.000000
_cell_angle_beta 90.000000
_cell_angle_gamma 90.000000
_cell_volume 4618.066709
_symmetry_space_group_name_H-M "C M M M"
_symmetry_group_IT_number 65
_symmetry_cell_setting 'orthorhombic'
loop_
_space_group_symop_operation_xyz
x,y,z
-x,-y,z
x,-y,-z
-x,y,-z
-x,-y,-z
x,y,-z
-x,y,z
x,-y,z
1/2+x,1/2+y,z
1/2-x,1/2-y,z
1/2+x,1/2-y,-z
1/2-x,1/2+y,-z
1/2-x,1/2-y,-z
1/2+x,1/2+y,-z
1/2-x,1/2+y,z
1/2+x,1/2-y,z
loop_
_atom_site_type_symbol
_atom_site_label
_atom_site_fract_x
_atom_site_fract_y
_atom_site_fract_z
Si Si1 0.700157 0.669442 0.589945
Si Si2 0.556881 0.247284 0.196670
Si Si3 0.057493 0.500000 0.917534
Si Si4 0.058329 0.000000 0.086724
Si Si5 0.302932 0.322309 0.151758
Si Si6 0.640963 0.173723 0.289131
Si Si7 0.803320 0.677736 0.000000
O O1 0.693686 0.675452 0.500000
O O2 0.701736 0.500000 0.611969
O O3 0.750000 0.750000 0.608039
O O4 0.659913 0.757784 0.633976
O O5 0.500000 0.254393 0.210591
O O6 0.572213 0.375644 0.143232
O O7 0.586249 0.215301 0.271210
O O8 0.569010 0.126972 0.136595
O O9 0.000000 0.500000 0.926809
O O10 0.079514 0.500000 0.000000
O O11 0.000000 0.000000 0.080440
O O12 0.075663 0.000000 0.000000
O O13 0.301431 0.500000 0.148288
O O14 0.250000 0.250000 0.158190
O O15 0.330678 0.259262 0.223460
O O16 0.324316 0.248429 0.075881
O O17 0.647712 0.000000 0.285784
O O18 0.750000 0.750000 0.000000
O O19 0.801799 0.500000 0.000000
#
# Coordination Sequence:
#
# PCOD9484565 Si02
#       7
#    16  16   8   8  16  16   8
#     4  10  22  42  69  98 126 153 185 230 289 357
#     4  10  21  37  56  82 117 158 204 252 303 353
#     4   9  16  32  56  78 106 151 204 258 306 345
#     4   9  18  34  56  80 110 153 204 262 316 357
#     4  11  22  38  57  78 110 150 194 241 291 345
#     4  12  24  38  58  88 120 154 195 240 292 352
#     4  10  18  34  56  76 105 146 195 240 290 343
#
# _framework density 19.055593999999999
#
# number of rings (size 3 to 8) (size 9 to 14) (size 15 to 20)
#    0.000    1.636    0.909    5.727    2.545    3.273 
#    3.273    0.000    0.000    0.545    0.000    2.545 
#    0.000    0.000    0.000    0.000    0.000    0.000 
#
# Total GULP energy -245060.056714 kJ/mol
# GULP energy per Si atom -5569.546744 kJ/mol
# Density = 1.901222 g / cm^3
# Si number density = 19.055594 Si / 1000 Ang^3
#
#
#
# Elastic Constant Matrix: (Units=GPa)
#
#
# Indices 1 2 3 4 5 6 
#
# 1 79.9862 38.5760 37.1890 0.0000 0.0000 0.0000
# 2 38.5760 216.2030 45.9362 0.0000 0.0000 0.0000
# 3 37.1890 45.9362 58.6393 0.0000 0.0000 0.0000
# 4 0.0000 0.0000 0.0000 34.2604 0.0000 0.0000
# 5 0.0000 0.0000 0.0000 0.0000 31.1244 0.0000
# 6 0.0000 0.0000 0.0000 0.0000 0.0000 18.0054
#
#
#
# Elastic Compliance Matrix: (Units=1/GPa)
#
#
# Indices 1 2 3 4 5 6 
#
# 1 0.017887 -0.000937 -0.010610 0.000000 0.000000 0.000000
# 2 -0.000937 0.005598 -0.003791 0.000000 0.000000 0.000000
# 3 -0.010610 -0.003791 0.026752 0.000000 0.000000 0.000000
# 4 0.000000 0.000000 0.000000 0.029188 0.000000 0.000000
# 5 0.000000 0.000000 0.000000 0.000000 0.032129 0.000000
# 6 0.000000 0.000000 0.000000 0.000000 0.000000 0.055539
#
#
# Mechanical properties :
#
#
# Convention : Reuss Voigt Hill
#
# Bulk Modulus (GPa) = 51.12202 66.47010 58.79606
# Shear Modulus (GPa) = 24.47510 32.21985 28.34748
#
# Velocity S-wave (km/s) = 3.58775 4.11644 3.86115
# Velocity P-wave (km/s) = 6.63692 7.58626 7.12741
#
# Compressibility (1/GPa) = 0.01956104
#
# Stress axis : x y z
#
# Youngs Moduli (GPa) = 55.90612 178.63693 37.38079
#
# Poissons Ratio (x) = 0.16743 0.39660
# Poissons Ratio (y) = 0.05240 0.14170
# Poissons Ratio (z) = 0.59315 0.67718
#
# Static dielectric constant tensor:
#      x y z
#    x 1.736420 0.000000 0.000000 
#    y 0.000000 1.625110 0.000000 
#    z 0.000000 0.000000 1.658860 
# 
# From -- ./inp_files/58101.got.cif
#   From: 2010.05.17/outbox.cif.g08.bks.cpg/sg65_30_cif.got.tgz:58101.got - 2010.06.03 17:01:31.
