data_PCOD9484205
_publ_section_title
;
Structure prediction by ZEFSAII (Michael W. Deem and Ramdas Pophale) SiO2 
 PCOD9484205
Probable space group: C M M M
;
_chemical_formula_sum "Si O2"
_cell_formula_units_Z 66
_cell_length_a 16.111955
_cell_length_b 8.293930
_cell_length_c 26.406435
_cell_angle_alpha 90.000000
_cell_angle_beta 90.000000
_cell_angle_gamma 90.000000
_cell_volume 3528.729589
_symmetry_space_group_name_H-M "C M M M"
_symmetry_group_IT_number 65
_symmetry_cell_setting 'orthorhombic'
loop_
_space_group_symop_operation_xyz
x,y,z
-x,-y,z
x,-y,-z
-x,y,-z
-x,-y,-z
x,y,-z
-x,y,z
x,-y,z
1/2+x,1/2+y,z
1/2-x,1/2-y,z
1/2+x,1/2-y,-z
1/2-x,1/2+y,-z
1/2-x,1/2-y,-z
1/2+x,1/2+y,-z
1/2-x,1/2+y,z
1/2+x,1/2-y,z
loop_
_atom_site_type_symbol
_atom_site_label
_atom_site_fract_x
_atom_site_fract_y
_atom_site_fract_z
Si Si1 0.403280 0.803665 0.270081
Si Si2 0.500000 0.306852 0.558102
Si Si3 0.840112 0.694488 0.839158
Si Si4 0.500000 0.000000 0.000000
Si Si5 0.840812 0.307097 0.621154
Si Si6 0.000000 0.319865 0.104498
O O1 0.500000 0.754856 0.270374
O O2 0.359897 0.750848 0.218216
O O3 0.358880 0.748027 0.321376
O O4 0.402366 0.000000 0.270238
O O5 0.500000 0.500000 0.558260
O O6 0.500000 0.249482 0.500000
O O7 0.582710 0.249089 0.586741
O O8 0.837890 0.500000 0.839679
O O9 0.750000 0.750000 0.855838
O O10 0.915043 0.754145 0.874934
O O11 0.500000 0.138619 0.954620
O O12 0.841337 0.500000 0.621838
O O13 0.750000 0.250000 0.604323
O O14 0.000000 0.500000 0.129906
#
# Coordination Sequence:
#
# PCOD9484205 Si02
#       6
#    16   8  16   2  16   8
#     4   9  16  30  54  81 109 145 183 219 269 335
#     4  11  25  44  63  84 111 146 191 240 284 335
#     4  10  18  31  53  79 108 143 180 222 272 327
#     4   8  16  32  56  76  98 138 212 224 260 316
#     4  11  22  38  61  87 116 148 184 231 284 340
#     4   8  16  31  52  70 100 140 185 223 261 317
#
# _framework density 18.703614000000002
#
# number of rings (size 3 to 8) (size 9 to 14) (size 15 to 20)
#    0.364    1.818    2.424    1.818    0.000    1.455 
#    0.000    2.424    0.000    0.000    0.000    0.848 
#    0.000    0.000    0.000    0.000    0.000    0.000 
#
# Total GULP energy -183729.929267 kJ/mol
# GULP energy per Si atom -5567.573614 kJ/mol
# Density = 1.866104 g / cm^3
# Si number density = 18.703614 Si / 1000 Ang^3
#
#
#
# Elastic Constant Matrix: (Units=GPa)
#
#
# Indices 1 2 3 4 5 6 
#
# 1 193.8043 19.9035 85.7965 0.0000 0.0000 0.0000
# 2 19.9035 20.2070 19.3141 0.0000 0.0000 0.0000
# 3 85.7965 19.3141 149.2880 0.0000 0.0000 0.0000
# 4 0.0000 0.0000 0.0000 -2.4147 0.0000 0.0000
# 5 0.0000 0.0000 0.0000 0.0000 2.0240 0.0000
# 6 0.0000 0.0000 0.0000 0.0000 0.0000 25.8277
#
#
#
# Elastic Compliance Matrix: (Units=1/GPa)
#
#
# Indices 1 2 3 4 5 6 
#
# 1 0.007137 -0.003548 -0.003642 0.000000 0.000000 0.000000
# 2 -0.003548 0.058235 -0.005495 0.000000 0.000000 0.000000
# 3 -0.003642 -0.005495 0.009503 0.000000 0.000000 0.000000
# 4 0.000000 0.000000 0.000000 -0.414125 0.000000 0.000000
# 5 0.000000 0.000000 0.000000 0.000000 0.494062 0.000000
# 6 0.000000 0.000000 0.000000 0.000000 0.000000 0.038718
#
#
# Mechanical properties :
#
#
# Convention : Reuss Voigt Hill
#
# Bulk Modulus (GPa) = 20.20075 68.14752 44.17413
# Shear Modulus (GPa) = 21.24032 20.97306 21.10669
#
# Velocity S-wave (km/s) = 3.37356 3.35227 3.36293
# Velocity P-wave (km/s) = 5.09887 7.17622 6.22482
#
# Compressibility (1/GPa) = 0.04950312
#
# Stress axis : x y z
#
# Youngs Moduli (GPa) = 140.11986 17.17187 105.23277
#
# Poissons Ratio (x) = 0.06093 0.38331
# Poissons Ratio (y) = 0.49715 0.57826
# Poissons Ratio (z) = 0.51039 0.09436
#
# Static dielectric constant tensor:
#      x y z
#    x 1.087670 0.000000 0.000000 
#    y 0.000000 1.665730 0.000000 
#    z 0.000000 0.000000 1.640350 
# 
# From -- ./inp_files/74549.got.cif
#   From: 2010.05.17/outbox.cif.g08.bks.cpg/sg65_38_cif.got.tgz:74549.got - 2010.06.03 17:01:31.
