data_PCOD9484808
_publ_section_title
;
Structure prediction by ZEFSAII (Michael W. Deem and Ramdas Pophale) SiO2 
 PCOD9484808
Probable space group: C M M M
;
_chemical_formula_sum "Si O2"
_cell_formula_units_Z 96
_cell_length_a 19.664416
_cell_length_b 29.966346
_cell_length_c 7.429639
_cell_angle_alpha 90.000000
_cell_angle_beta 90.000000
_cell_angle_gamma 90.000000
_cell_volume 4378.068528
_symmetry_space_group_name_H-M "C M M M"
_symmetry_group_IT_number 65
_symmetry_cell_setting 'orthorhombic'
loop_
_space_group_symop_operation_xyz
x,y,z
-x,-y,z
x,-y,-z
-x,y,-z
-x,-y,-z
x,y,-z
-x,y,z
x,-y,z
1/2+x,1/2+y,z
1/2-x,1/2-y,z
1/2+x,1/2-y,-z
1/2-x,1/2+y,-z
1/2-x,1/2-y,-z
1/2+x,1/2+y,-z
1/2-x,1/2+y,z
1/2+x,1/2-y,z
loop_
_atom_site_type_symbol
_atom_site_label
_atom_site_fract_x
_atom_site_fract_y
_atom_site_fract_z
Si Si1 0.921665 0.777766 0.219562
Si Si2 0.775610 0.950079 0.284619
Si Si3 0.182580 0.151177 0.785348
Si Si4 0.070853 0.359431 0.717627
Si Si5 0.686232 0.203880 0.795633
Si Si6 0.118505 0.452071 0.719181
O O1 0.888305 0.825572 0.268156
O O2 0.864640 0.741684 0.283067
O O3 0.000000 0.772036 0.280891
O O4 0.923506 0.774309 0.000000
O O5 0.774895 0.952890 0.500000
O O6 0.810124 0.901909 0.248196
O O7 0.697011 0.946248 0.223788
O O8 0.800465 0.000000 0.221842
O O9 0.244411 0.183248 0.714212
O O10 0.187929 0.155501 0.000000
O O11 0.075009 0.356279 0.500000
O O12 0.136517 0.337822 0.797836
O O13 0.073800 0.410651 0.771290
O O14 0.000000 0.337930 0.775212
O O15 0.700299 0.217989 0.000000
O O16 0.119397 0.452177 0.500000
O O17 0.093833 0.500000 0.779660
#
# Coordination Sequence:
#
# PCOD9484808 Si02
#       6
#    16  16  16  16  16  16
#     4   9  18  33  52  73 100 134 168 202 245 298
#     4   9  17  31  52  75 100 132 166 200 245 301
#     4  10  19  31  52  80 102 125 165 212 248 286
#     4  10  19  29  44  67  95 127 165 208 246 285
#     4  10  19  32  50  72  98 130 165 202 244 293
#     4   8  14  26  43  62  87 121 160 198 236 282
#
# _framework density 21.927478000000001
#
# number of rings (size 3 to 8) (size 9 to 14) (size 15 to 20)
#    0.000    2.667    1.667    2.000    0.000    3.667 
#    0.000    2.500    0.000    4.500    0.000    4.667 
#    0.000    0.000    0.000    0.000    0.000    0.000 
#
# Total GULP energy -267367.344646 kJ/mol
# GULP energy per Si atom -5570.153013 kJ/mol
# Density = 2.187757 g / cm^3
# Si number density = 21.927478 Si / 1000 Ang^3
#
#
#
# Elastic Constant Matrix: (Units=GPa)
#
#
# Indices 1 2 3 4 5 6 
#
# 1 92.5574 87.1708 8.5780 0.0000 0.0000 0.0000
# 2 87.1708 161.6351 2.6373 0.0000 0.0000 0.0000
# 3 8.5780 2.6373 68.0770 0.0000 0.0000 0.0000
# 4 0.0000 0.0000 0.0000 14.2362 0.0000 0.0000
# 5 0.0000 0.0000 0.0000 0.0000 -48.7529 0.0000
# 6 0.0000 0.0000 0.0000 0.0000 0.0000 274.5661
#
#
#
# Elastic Compliance Matrix: (Units=1/GPa)
#
#
# Indices 1 2 3 4 5 6 
#
# 1 0.022325 -0.012002 -0.002348 0.000000 0.000000 0.000000
# 2 -0.012002 0.012643 0.001022 0.000000 0.000000 0.000000
# 3 -0.002348 0.001022 0.014946 0.000000 0.000000 0.000000
# 4 0.000000 0.000000 0.000000 0.070243 0.000000 0.000000
# 5 0.000000 0.000000 0.000000 0.000000 -0.020512 0.000000
# 6 0.000000 0.000000 0.000000 0.000000 0.000000 0.003642
#
#
# Mechanical properties :
#
#
# Convention : Reuss Voigt Hill
#
# Bulk Modulus (GPa) = 42.99495 57.67132 50.33313
# Shear Modulus (GPa) = 36.31231 62.93544 49.62388
#
# Velocity S-wave (km/s) = 4.07384 5.36320 4.76236
# Velocity P-wave (km/s) = 6.46363 8.04425 7.29687
#
# Compressibility (1/GPa) = 0.02325854
#
# Stress axis : x y z
#
# Youngs Moduli (GPa) = 44.79300 79.09726 66.90976
#
# Poissons Ratio (x) = 0.94930 0.15711
# Poissons Ratio (y) = 0.53759 -0.06841
# Poissons Ratio (z) = 0.10518 -0.08088
#
# Static dielectric constant tensor:
#      x y z
#    x 1.768860 0.000000 0.000000 
#    y 0.000000 1.860860 0.000000 
#    z 0.000000 0.000000 1.871280 
# 
# From -- ./inp_files/12194.got.cif
#   From: 2010.05.17/outbox.cif.g08.bks.cpg/sg65_7_cif.got.tgz:12194.got - 2010.06.03 17:01:31.
