data_PCOD9484328
_publ_section_title
;
Structure prediction by ZEFSAII (Michael W. Deem and Ramdas Pophale) SiO2 
 PCOD9484328
Probable space group: C M M M
;
_chemical_formula_sum "Si O2"
_cell_formula_units_Z 104
_cell_length_a 23.427467
_cell_length_b 29.483716
_cell_length_c 7.670502
_cell_angle_alpha 90.000000
_cell_angle_beta 90.000000
_cell_angle_gamma 90.000000
_cell_volume 5298.236516
_symmetry_space_group_name_H-M "C M M M"
_symmetry_group_IT_number 65
_symmetry_cell_setting 'orthorhombic'
loop_
_space_group_symop_operation_xyz
x,y,z
-x,-y,z
x,-y,-z
-x,y,-z
-x,-y,-z
x,y,-z
-x,y,z
x,-y,z
1/2+x,1/2+y,z
1/2-x,1/2-y,z
1/2+x,1/2-y,-z
1/2-x,1/2+y,-z
1/2-x,1/2-y,-z
1/2+x,1/2+y,-z
1/2-x,1/2+y,z
1/2+x,1/2-y,z
loop_
_atom_site_type_symbol
_atom_site_label
_atom_site_fract_x
_atom_site_fract_y
_atom_site_fract_z
Si Si1 0.937022 0.947418 0.210552
Si Si2 0.168359 0.112507 0.700082
Si Si3 0.885006 0.604586 0.207099
Si Si4 0.228810 0.448458 0.711226
Si Si5 0.321568 0.194824 0.786918
Si Si6 0.691206 0.706369 0.797029
Si Si7 0.500000 0.946516 0.213845
O O1 0.885876 0.919295 0.286854
O O2 0.000000 0.931511 0.263617
O O3 0.931560 0.000000 0.260030
O O4 0.933955 0.945190 0.000000
O O5 0.182149 0.121621 0.500000
O O6 0.222420 0.085693 0.778609
O O7 0.155320 0.161108 0.780621
O O8 0.832803 0.570046 0.236472
O O9 0.861296 0.653373 0.276283
O O10 0.943381 0.581165 0.272325
O O11 0.893513 0.610453 0.000000
O O12 0.232040 0.448833 0.500000
O O13 0.238203 0.500000 0.771236
O O14 0.335495 0.246607 0.730268
O O15 0.254738 0.192822 0.730073
O O16 0.323254 0.191282 0.000000
O O17 0.700551 0.715405 0.000000
O O18 0.500000 0.000000 0.267032
O O19 0.500000 0.947204 0.000000
#
# Coordination Sequence:
#
# PCOD9484328 Si02
#       7
#    16  16  16  16  16  16   8
#     4   9  19  36  56  76  99 131 172 211 245 292
#     4  11  21  32  49  76 106 136 165 203 254 304
#     4  10  18  32  53  74  96 129 170 209 256 307
#     4  10  21  34  46  68 104 136 163 201 246 296
#     4   8  15  28  50  74  96 126 164 210 255 298
#     4   9  16  30  50  73 100 128 164 209 253 298
#     4   9  18  30  47  75 105 127 159 215 262 297
#
# _framework density 19.629173999999999
#
# number of rings (size 3 to 8) (size 9 to 14) (size 15 to 20)
#    0.000    2.538    1.538    2.769    0.000    2.769 
#    0.000    3.462    1.692    1.385    0.000    0.000 
#    0.000    0.000    0.000    0.000    0.000    0.000 
#
# Total GULP energy -289793.160083 kJ/mol
# GULP energy per Si atom -5572.945386 kJ/mol
# Density = 1.958450 g / cm^3
# Si number density = 19.629174 Si / 1000 Ang^3
#
#
#
# Elastic Constant Matrix: (Units=GPa)
#
#
# Indices 1 2 3 4 5 6 
#
# 1 78.2604 54.1915 4.5109 0.0000 0.0000 0.0000
# 2 54.1915 149.2224 9.4946 0.0000 0.0000 0.0000
# 3 4.5109 9.4946 30.6238 0.0000 0.0000 0.0000
# 4 0.0000 0.0000 0.0000 67.2191 0.0000 0.0000
# 5 0.0000 0.0000 0.0000 0.0000 23.3633 0.0000
# 6 0.0000 0.0000 0.0000 0.0000 0.0000 25.6428
#
#
#
# Elastic Compliance Matrix: (Units=1/GPa)
#
#
# Indices 1 2 3 4 5 6 
#
# 1 0.017082 -0.006165 -0.000605 0.000000 0.000000 0.000000
# 2 -0.006165 0.009061 -0.001901 0.000000 0.000000 0.000000
# 3 -0.000605 -0.001901 0.033333 0.000000 0.000000 0.000000
# 4 0.000000 0.000000 0.000000 0.014877 0.000000 0.000000
# 5 0.000000 0.000000 0.000000 0.000000 0.042802 0.000000
# 6 0.000000 0.000000 0.000000 0.000000 0.000000 0.038997
#
#
# Mechanical properties :
#
#
# Convention : Reuss Voigt Hill
#
# Bulk Modulus (GPa) = 23.73383 43.83339 33.78361
# Shear Modulus (GPa) = 26.66124 35.90570 31.28347
#
# Velocity S-wave (km/s) = 3.68944 4.28156 3.99648
# Velocity P-wave (km/s) = 5.50151 6.84262 6.20839
#
# Compressibility (1/GPa) = 0.04213396
#
# Stress axis : x y z
#
# Youngs Moduli (GPa) = 58.54267 110.36064 30.00038
#
# Poissons Ratio (x) = 0.68036 0.01814
# Poissons Ratio (y) = 0.36091 0.05704
# Poissons Ratio (z) = 0.03540 0.20982
#
# Static dielectric constant tensor:
#      x y z
#    x 1.666120 0.000000 0.000000 
#    y 0.000000 1.737530 0.000000 
#    z 0.000000 0.000000 1.744940 
# 
# From -- ./inp_files/14802.got.cif
#   From: 2010.05.17/outbox.cif.g08.bks.cpg/sg65_8_cif.got.tgz:14802.got - 2010.06.03 17:01:31.
