data_PCOD9484168
_publ_section_title
;
Structure prediction by ZEFSAII (Michael W. Deem and Ramdas Pophale) SiO2 
 PCOD9484168
Probable space group: C M M M
;
_chemical_formula_sum "Si O2"
_cell_formula_units_Z 88
_cell_length_a 8.241205
_cell_length_b 22.822672
_cell_length_c 24.670509
_cell_angle_alpha 90.000000
_cell_angle_beta 90.000000
_cell_angle_gamma 90.000000
_cell_volume 4640.185216
_symmetry_space_group_name_H-M "C M M M"
_symmetry_group_IT_number 65
_symmetry_cell_setting 'orthorhombic'
loop_
_space_group_symop_operation_xyz
x,y,z
-x,-y,z
x,-y,-z
-x,y,-z
-x,-y,-z
x,y,-z
-x,y,z
x,-y,z
1/2+x,1/2+y,z
1/2-x,1/2-y,z
1/2+x,1/2-y,-z
1/2-x,1/2+y,-z
1/2-x,1/2-y,-z
1/2+x,1/2+y,-z
1/2-x,1/2+y,z
1/2+x,1/2-y,z
loop_
_atom_site_type_symbol
_atom_site_label
_atom_site_fract_x
_atom_site_fract_y
_atom_site_fract_z
Si Si1 0.808281 0.100842 0.856694
Si Si2 0.305914 0.816253 0.941888
Si Si3 0.312398 0.569368 0.258601
Si Si4 0.193765 0.813993 0.562201
Si Si5 0.199123 0.000000 0.062345
Si Si6 0.190646 0.432878 0.621084
O O1 0.777653 0.159813 0.888405
O O2 0.741746 0.097997 0.795885
O O3 0.000000 0.088814 0.850250
O O4 0.745430 0.054300 0.900809
O O5 0.500000 0.820947 0.937675
O O6 0.250000 0.750000 0.945884
O O7 0.256045 0.845102 0.000000
O O8 0.500000 0.588178 0.267540
O O9 0.314585 0.500000 0.246438
O O10 0.219981 0.576926 0.314816
O O11 0.255817 0.816883 0.500000
O O12 0.250000 0.750000 0.584692
O O13 0.241504 0.875084 0.591217
O O14 0.000000 0.812059 0.561544
O O15 0.000000 0.000000 0.060478
O O16 0.254853 0.000000 0.000000
O O17 0.255682 0.500000 0.608884
O O18 0.000000 0.434808 0.609622
#
# Coordination Sequence:
#
# PCOD9484168 Si02
#       6
#    16  16  16  16   8  16
#     4  10  18  31  52  77 102 132 169 211 259 313
#     4  10  21  36  52  70  94 127 167 212 264 320
#     4   9  17  32  53  77 107 142 182 224 268 319
#     4  10  21  38  61  88 119 155 192 233 285 340
#     4   9  16  26  45  75 105 131 162 201 250 311
#     4  10  21  36  56  84 117 154 196 238 282 332
#
# _framework density 18.964760999999999
#
# number of rings (size 3 to 8) (size 9 to 14) (size 15 to 20)
#    0.000    2.273    0.909    2.182    0.000    5.091 
#    0.000    3.182    0.000    6.000    0.000    0.000 
#    0.000    0.000    0.000    0.000    0.000    0.000 
#
# Total GULP energy -244953.125743 kJ/mol
# GULP energy per Si atom -5567.116494 kJ/mol
# Density = 1.892160 g / cm^3
# Si number density = 18.964761 Si / 1000 Ang^3
#
#
#
# Elastic Constant Matrix: (Units=GPa)
#
#
# Indices 1 2 3 4 5 6 
#
# 1 22.1180 10.9316 8.1213 0.0000 0.0000 0.0000
# 2 10.9316 117.1301 64.5465 0.0000 0.0000 0.0000
# 3 8.1213 64.5465 92.7181 0.0000 0.0000 0.0000
# 4 0.0000 0.0000 0.0000 20.6412 0.0000 0.0000
# 5 0.0000 0.0000 0.0000 0.0000 17.3611 0.0000
# 6 0.0000 0.0000 0.0000 0.0000 0.0000 19.8976
#
#
#
# Elastic Compliance Matrix: (Units=1/GPa)
#
#
# Indices 1 2 3 4 5 6 
#
# 1 0.047572 -0.003478 -0.001746 0.000000 0.000000 0.000000
# 2 -0.003478 0.014106 -0.009515 0.000000 0.000000 0.000000
# 3 -0.001746 -0.009515 0.017562 0.000000 0.000000 0.000000
# 4 0.000000 0.000000 0.000000 0.048447 0.000000 0.000000
# 5 0.000000 0.000000 0.000000 0.000000 0.057600 0.000000
# 6 0.000000 0.000000 0.000000 0.000000 0.000000 0.050257
#
#
# Mechanical properties :
#
#
# Convention : Reuss Voigt Hill
#
# Bulk Modulus (GPa) = 20.09544 44.35165 32.22355
# Shear Modulus (GPa) = 17.75513 21.47110 19.61312
#
# Velocity S-wave (km/s) = 3.06309 3.36841 3.21937
# Velocity P-wave (km/s) = 4.80928 6.21010 5.55403
#
# Compressibility (1/GPa) = 0.04976253
#
# Stress axis : x y z
#
# Youngs Moduli (GPa) = 21.02079 70.89418 56.94013
#
# Poissons Ratio (x) = 0.24655 0.09940
# Poissons Ratio (y) = 0.07311 0.54179
# Poissons Ratio (z) = 0.03670 0.67456
#
# Static dielectric constant tensor:
#      x y z
#    x 1.677130 0.000000 0.000000 
#    y 0.000000 1.685590 0.000000 
#    z 0.000000 0.000000 1.669430 
# 
# From -- ./inp_files/67553.got.cif
#   From: 2010.05.17/outbox.cif.g08.bks.cpg/sg65_34_cif.got.tgz:67553.got - 2010.06.03 17:01:31.
