data_PCOD9484375
_publ_section_title
;
Structure prediction by ZEFSAII (Michael W. Deem and Ramdas Pophale) SiO2 
 PCOD9484375
Probable space group: C M M M
;
_chemical_formula_sum "Si O2"
_cell_formula_units_Z 104
_cell_length_a 24.248600
_cell_length_b 8.376622
_cell_length_c 30.138728
_cell_angle_alpha 90.000000
_cell_angle_beta 90.000000
_cell_angle_gamma 90.000000
_cell_volume 6121.819306
_symmetry_space_group_name_H-M "C M M M"
_symmetry_group_IT_number 65
_symmetry_cell_setting 'orthorhombic'
loop_
_space_group_symop_operation_xyz
x,y,z
-x,-y,z
x,-y,-z
-x,y,-z
-x,-y,-z
x,y,-z
-x,y,z
x,-y,z
1/2+x,1/2+y,z
1/2-x,1/2-y,z
1/2+x,1/2-y,-z
1/2-x,1/2+y,-z
1/2-x,1/2-y,-z
1/2+x,1/2+y,-z
1/2-x,1/2+y,z
1/2+x,1/2-y,z
loop_
_atom_site_type_symbol
_atom_site_label
_atom_site_fract_x
_atom_site_fract_y
_atom_site_fract_z
Si Si1 0.312703 0.193071 0.049050
Si Si2 0.433360 0.500000 0.550568
Si Si3 0.812348 0.812590 0.219143
Si Si4 0.500000 0.191189 0.242658
Si Si5 0.887642 0.310921 0.705597
Si Si6 0.879523 0.690062 0.865889
Si Si7 0.066525 0.311770 0.608962
Si Si8 0.500000 0.315653 0.145316
O O1 0.250000 0.250000 0.053264
O O2 0.346839 0.252724 0.091155
O O3 0.313438 0.000000 0.049907
O O4 0.333005 0.243509 0.000000
O O5 0.500000 0.500000 0.549148
O O6 0.412640 0.500000 0.500000
O O7 0.419224 0.332731 0.575316
O O8 0.750000 0.750000 0.215543
O O9 0.839427 0.772272 0.266797
O O10 0.851411 0.745725 0.179960
O O11 0.810814 0.000000 0.213390
O O12 0.445356 0.226811 0.270280
O O13 0.500000 0.291346 0.198230
O O14 0.500000 0.000000 0.232231
O O15 0.878339 0.500000 0.710254
O O16 0.899004 0.279997 0.653861
O O17 0.875994 0.500000 0.865576
O O18 0.943096 0.737805 0.869869
O O19 0.075946 0.500000 0.595630
O O20 0.000000 0.301859 0.617935
O O21 0.500000 0.500000 0.133426
#
# Coordination Sequence:
#
# PCOD9484375 Si02
#       8
#    16   8  16   8  16  16  16   8
#     4   9  19  36  59  84 105 131 171 218 268 321
#     4   9  18  30  44  70 106 144 186 228 269 320
#     4  12  25  38  53  76 107 144 180 217 263 320
#     4  10  18  32  54  75 103 139 178 216 261 306
#     4  10  19  33  53  77 106 140 180 223 265 316
#     4  11  22  38  58  78 107 141 174 217 267 318
#     4   9  17  30  48  72 103 142 182 222 270 324
#     4  12  24  36  51  79 108 137 181 219 259 315
#
# _framework density 16.988413999999999
#
# number of rings (size 3 to 8) (size 9 to 14) (size 15 to 20)
#    0.000    1.769    2.308    3.000    1.077    2.769 
#    0.000    1.923    0.000    2.308    0.000    0.000 
#    0.000    0.615    0.308    0.000    0.000    0.000 
#
# Total GULP energy -289975.230208 kJ/mol
# GULP energy per Si atom -5576.446735 kJ/mol
# Density = 1.694975 g / cm^3
# Si number density = 16.988414 Si / 1000 Ang^3
#
#
#
# Elastic Constant Matrix: (Units=GPa)
#
#
# Indices 1 2 3 4 5 6 
#
# 1 84.3023 35.2636 41.2134 0.0000 0.0000 0.0000
# 2 35.2636 67.4141 58.6875 0.0000 0.0000 0.0000
# 3 41.2134 58.6875 108.3651 0.0000 0.0000 0.0000
# 4 0.0000 0.0000 0.0000 17.8450 0.0000 0.0000
# 5 0.0000 0.0000 0.0000 0.0000 1.7260 0.0000
# 6 0.0000 0.0000 0.0000 0.0000 0.0000 23.3404
#
#
#
# Elastic Compliance Matrix: (Units=1/GPa)
#
#
# Indices 1 2 3 4 5 6 
#
# 1 0.015643 -0.005683 -0.002872 0.000000 0.000000 0.000000
# 2 -0.005683 0.030130 -0.014156 0.000000 0.000000 0.000000
# 3 -0.002872 -0.014156 0.017987 0.000000 0.000000 0.000000
# 4 0.000000 0.000000 0.000000 0.056038 0.000000 0.000000
# 5 0.000000 0.000000 0.000000 0.000000 0.579372 0.000000
# 6 0.000000 0.000000 0.000000 0.000000 0.000000 0.042844
#
#
# Mechanical properties :
#
#
# Convention : Reuss Voigt Hill
#
# Bulk Modulus (GPa) = 54.53026 58.93448 56.73237
# Shear Modulus (GPa) = 6.30080 16.91006 11.60543
#
# Velocity S-wave (km/s) = 1.92794 3.15840 2.61653
# Velocity P-wave (km/s) = 6.09295 6.93303 6.52652
#
# Compressibility (1/GPa) = 0.01833844
#
# Stress axis : x y z
#
# Youngs Moduli (GPa) = 63.92596 33.18934 55.59582
#
# Poissons Ratio (x) = 0.18861 0.15966
# Poissons Ratio (y) = 0.36327 0.78704
# Poissons Ratio (z) = 0.18358 0.46984
#
# Static dielectric constant tensor:
#      x y z
#    x 1.594350 0.000000 0.000000 
#    y 0.000000 1.583620 0.000000 
#    z 0.000000 0.000000 1.586800 
# 
# From -- ./inp_files/78312.got.cif
#   From: 2010.05.17/outbox.cif.g08.bks.cpg/sg65_40_cif.got.tgz:78312.got - 2010.06.03 17:01:31.
