data_PCOD9484617
_publ_section_title
;
Structure prediction by ZEFSAII (Michael W. Deem and Ramdas Pophale) SiO2 
 PCOD9484617
Probable space group: C M M M
;
_chemical_formula_sum "Si O2"
_cell_formula_units_Z 96
_cell_length_a 15.343612
_cell_length_b 21.508357
_cell_length_c 14.497515
_cell_angle_alpha 90.000000
_cell_angle_beta 90.000000
_cell_angle_gamma 90.000000
_cell_volume 4784.410237
_symmetry_space_group_name_H-M "C M M M"
_symmetry_group_IT_number 65
_symmetry_cell_setting 'orthorhombic'
loop_
_space_group_symop_operation_xyz
x,y,z
-x,-y,z
x,-y,-z
-x,y,-z
-x,-y,-z
x,y,-z
-x,y,z
x,-y,z
1/2+x,1/2+y,z
1/2-x,1/2-y,z
1/2+x,1/2-y,-z
1/2-x,1/2+y,-z
1/2-x,1/2-y,-z
1/2+x,1/2+y,-z
1/2-x,1/2+y,z
1/2+x,1/2-y,z
loop_
_atom_site_type_symbol
_atom_site_label
_atom_site_fract_x
_atom_site_fract_y
_atom_site_fract_z
Si Si1 0.902386 0.225617 0.184281
Si Si2 0.316194 0.925496 0.000000
Si Si3 0.401831 0.844400 0.313875
Si Si4 0.894161 0.712192 0.000000
Si Si5 0.337980 0.575661 0.500000
Si Si6 0.804371 0.315125 0.500000
Si Si7 0.270671 0.932782 0.794656
Si Si8 0.398871 0.604250 0.296470
O O1 0.907775 0.286086 0.246570
O O2 0.860124 0.250240 0.089806
O O3 0.871757 0.171511 0.253242
O O4 0.000000 0.204916 0.157425
O O5 0.265707 0.918099 0.903375
O O6 0.375115 0.862308 0.000000
O O7 0.347808 0.000000 0.000000
O O8 0.500000 0.870894 0.323635
O O9 0.364315 0.820343 0.410157
O O10 0.331848 0.888527 0.265009
O O11 0.000000 0.714859 0.000000
O O12 0.322036 0.500000 0.500000
O O13 0.255270 0.622373 0.500000
O O14 0.387595 0.594547 0.405970
O O15 0.750000 0.250000 0.500000
O O16 0.174936 0.935648 0.752274
O O17 0.313546 0.000000 0.787910
O O18 0.500000 0.591517 0.274716
#
# Coordination Sequence:
#
# PCOD9484617 Si02
#       8
#    16   8  16   8   8   8  16  16
#     4   9  20  37  61  94 129 168 217 269 329 396
#     4  10  22  40  62  93 133 177 225 280 337 404
#     4  11  23  41  65  95 136 181 221 269 333 403
#     4  10  18  36  63  96 133 171 225 282 327 399
#     4  12  25  43  69 100 130 168 228 291 340 400
#     4  12  25  42  69  99 139 184 229 278 337 409
#     4  11  24  42  65  96 132 172 226 279 333 407
#     4  11  24  43  67  94 130 174 222 284 350 409
#
# _framework density 20.065169000000001
#
# number of rings (size 3 to 8) (size 9 to 14) (size 15 to 20)
#    0.000    1.333    3.333    2.000    0.000    2.833 
#    0.000    7.083    0.000    3.000    0.000    0.000 
#    0.000    0.000    0.000    0.000    0.000    0.000 
#
# Total GULP energy -267208.577604 kJ/mol
# GULP energy per Si atom -5566.845367 kJ/mol
# Density = 2.001950 g / cm^3
# Si number density = 20.065169 Si / 1000 Ang^3
#
#
#
# Elastic Constant Matrix: (Units=GPa)
#
#
# Indices 1 2 3 4 5 6 
#
# 1 105.4756 29.8309 59.7601 0.0000 0.0000 0.0000
# 2 29.8309 99.6476 58.9000 0.0000 0.0000 0.0000
# 3 59.7601 58.9000 192.6520 0.0000 0.0000 0.0000
# 4 0.0000 0.0000 0.0000 24.2550 0.0000 0.0000
# 5 0.0000 0.0000 0.0000 0.0000 -11.3558 0.0000
# 6 0.0000 0.0000 0.0000 0.0000 0.0000 9.2539
#
#
#
# Elastic Compliance Matrix: (Units=1/GPa)
#
#
# Indices 1 2 3 4 5 6 
#
# 1 0.011723 -0.001660 -0.003129 0.000000 0.000000 0.000000
# 2 -0.001660 0.012484 -0.003302 0.000000 0.000000 0.000000
# 3 -0.003129 -0.003302 0.007171 0.000000 0.000000 0.000000
# 4 0.000000 0.000000 0.000000 0.041229 0.000000 0.000000
# 5 0.000000 0.000000 0.000000 0.000000 -0.088060 0.000000
# 6 0.000000 0.000000 0.000000 0.000000 0.000000 0.108062
#
#
# Mechanical properties :
#
#
# Convention : Reuss Voigt Hill
#
# Bulk Modulus (GPa) = 65.80552 77.19523 71.50037
# Shear Modulus (GPa) = 43.91525 21.04956 32.48240
#
# Velocity S-wave (km/s) = 4.68336 3.24243 4.02785
# Velocity P-wave (km/s) = 7.88113 7.25077 7.57251
#
# Compressibility (1/GPa) = 0.01519629
#
# Stress axis : x y z
#
# Youngs Moduli (GPa) = 85.30126 80.10274 139.45485
#
# Poissons Ratio (x) = 0.13297 0.43635
# Poissons Ratio (y) = 0.14160 0.46046
# Poissons Ratio (z) = 0.26691 0.26449
#
# Static dielectric constant tensor:
#      x y z
#    x 1.744190 0.000000 0.000000 
#    y 0.000000 1.824450 0.000000 
#    z 0.000000 0.000000 1.716830 
# 
# From -- ./inp_files/40469.got.cif
#   From: 2010.05.17/outbox.cif.g08.bks.cpg/sg65_21_cif.got.tgz:40469.got - 2010.06.03 17:01:31.
