data_PCOD9484277
_publ_section_title
;
Structure prediction by ZEFSAII (Michael W. Deem and Ramdas Pophale) SiO2 
 PCOD9484277
Probable space group: C M M M
;
_chemical_formula_sum "Si O2"
_cell_formula_units_Z 80
_cell_length_a 14.875939
_cell_length_b 27.504847
_cell_length_c 12.173763
_cell_angle_alpha 90.000000
_cell_angle_beta 90.000000
_cell_angle_gamma 90.000000
_cell_volume 4981.022057
_symmetry_space_group_name_H-M "C M M M"
_symmetry_group_IT_number 65
_symmetry_cell_setting 'orthorhombic'
loop_
_space_group_symop_operation_xyz
x,y,z
-x,-y,z
x,-y,-z
-x,y,-z
-x,-y,-z
x,y,-z
-x,y,z
x,-y,z
1/2+x,1/2+y,z
1/2-x,1/2-y,z
1/2+x,1/2-y,-z
1/2-x,1/2+y,-z
1/2-x,1/2-y,-z
1/2+x,1/2+y,-z
1/2-x,1/2+y,z
1/2+x,1/2-y,z
loop_
_atom_site_type_symbol
_atom_site_label
_atom_site_fract_x
_atom_site_fract_y
_atom_site_fract_z
Si Si1 0.646556 0.732825 0.623727
Si Si2 0.327616 0.323351 0.000000
Si Si3 0.606124 0.442364 0.371612
Si Si4 0.095932 0.674800 0.237634
Si Si5 0.199222 0.859965 0.761187
Si Si6 0.874517 0.282869 0.000000
O O1 0.612905 0.724734 0.500000
O O2 0.750000 0.750000 0.616596
O O3 0.600312 0.777409 0.685790
O O4 0.650708 0.683961 0.695023
O O5 0.330630 0.353719 0.112119
O O6 0.229925 0.298112 0.000000
O O7 0.389374 0.275178 0.000000
O O8 0.624827 0.431078 0.500000
O O9 0.500000 0.432715 0.352666
O O10 0.620528 0.500000 0.356054
O O11 0.666289 0.409535 0.293161
O O12 0.192148 0.647475 0.249477
O O13 0.093053 0.693919 0.112854
O O14 0.000000 0.648993 0.260489
#
# Coordination Sequence:
#
# PCOD9484277 Si02
#       6
#    16   8  16  16  16   8
#     4   9  17  28  42  62  91 127 163 198 235 275
#     4   9  16  28  49  71  96 132 169 204 237 277
#     4   9  19  37  59  78  93 115 155 205 254 303
#     4  10  19  29  45  70 101 136 168 197 231 280
#     4  10  18  32  51  71  98 129 163 201 244 289
#     4   9  15  30  46  64  98 139 176 203 228 266
#
# _framework density 16.060960999999999
#
# number of rings (size 3 to 8) (size 9 to 14) (size 15 to 20)
#    0.000    2.600    2.000    1.500    0.000    2.000 
#    0.000    1.000    0.000    1.800    0.000    1.400 
#    0.000    4.800    0.000    0.000    0.000    0.000 
#
# Total GULP energy -222687.910644 kJ/mol
# GULP energy per Si atom -5567.197766 kJ/mol
# Density = 1.602441 g / cm^3
# Si number density = 16.060961 Si / 1000 Ang^3
#
#
#
# Elastic Constant Matrix: (Units=GPa)
#
#
# Indices 1 2 3 4 5 6 
#
# 1 79.9753 43.1063 43.5615 0.0000 0.0000 0.0000
# 2 43.1063 64.6355 51.6314 0.0000 0.0000 0.0000
# 3 43.5615 51.6314 131.5795 0.0000 0.0000 0.0000
# 4 0.0000 0.0000 0.0000 20.5421 0.0000 0.0000
# 5 0.0000 0.0000 0.0000 0.0000 111.3896 0.0000
# 6 0.0000 0.0000 0.0000 0.0000 0.0000 13.0473
#
#
#
# Elastic Compliance Matrix: (Units=1/GPa)
#
#
# Indices 1 2 3 4 5 6 
#
# 1 0.019879 -0.011653 -0.002009 0.000000 0.000000 0.000000
# 2 -0.011653 0.029366 -0.007665 0.000000 0.000000 0.000000
# 3 -0.002009 -0.007665 0.011273 0.000000 0.000000 0.000000
# 4 0.000000 0.000000 0.000000 0.048681 0.000000 0.000000
# 5 0.000000 0.000000 0.000000 0.000000 0.008978 0.000000
# 6 0.000000 0.000000 0.000000 0.000000 0.000000 0.076644
#
#
# Mechanical properties :
#
#
# Convention : Reuss Voigt Hill
#
# Bulk Modulus (GPa) = 55.97869 61.42096 58.69983
# Shear Modulus (GPa) = 20.53995 38.18853 29.36424
#
# Velocity S-wave (km/s) = 3.58001 4.88148 4.28050
# Velocity P-wave (km/s) = 7.21237 8.37241 7.81394
#
# Compressibility (1/GPa) = 0.01786394
#
# Stress axis : x y z
#
# Youngs Moduli (GPa) = 50.30474 34.05309 88.70957
#
# Poissons Ratio (x) = 0.39682 0.17818
# Poissons Ratio (y) = 0.58620 0.67998
# Poissons Ratio (z) = 0.10104 0.26102
#
# Static dielectric constant tensor:
#      x y z
#    x 1.601880 0.000000 0.000000 
#    y 0.000000 1.499650 0.000000 
#    z 0.000000 0.000000 1.549630 
# 
# From -- ./inp_files/27295.got.cif
#   From: 2010.05.17/outbox.cif.g08.bks.cpg/sg65_14_cif.got.tgz:27295.got - 2010.06.03 17:01:31.
