data_PCOD9484039
_publ_section_title
;
Structure prediction by ZEFSAII (Michael W. Deem and Ramdas Pophale) SiO2 
 PCOD9484039
Probable space group: C M M M
;
_chemical_formula_sum "Si O2"
_cell_formula_units_Z 88
_cell_length_a 15.315838
_cell_length_b 28.646015
_cell_length_c 12.665023
_cell_angle_alpha 90.000000
_cell_angle_beta 90.000000
_cell_angle_gamma 90.000000
_cell_volume 5556.623379
_symmetry_space_group_name_H-M "C M M M"
_symmetry_group_IT_number 65
_symmetry_cell_setting 'orthorhombic'
loop_
_space_group_symop_operation_xyz
x,y,z
-x,-y,z
x,-y,-z
-x,y,-z
-x,-y,-z
x,y,-z
-x,y,z
x,-y,z
1/2+x,1/2+y,z
1/2-x,1/2-y,z
1/2+x,1/2-y,-z
1/2-x,1/2+y,-z
1/2-x,1/2-y,-z
1/2+x,1/2+y,-z
1/2-x,1/2+y,z
1/2+x,1/2-y,z
loop_
_atom_site_type_symbol
_atom_site_label
_atom_site_fract_x
_atom_site_fract_y
_atom_site_fract_z
Si Si1 0.097585 0.553486 0.730646
Si Si2 0.000000 0.289668 0.127690
Si Si3 0.218413 0.945626 0.623484
Si Si4 0.894953 0.054841 0.000000
Si Si5 0.352078 0.861511 0.873309
Si Si6 0.000000 0.181340 0.129309
Si Si7 0.838720 0.881582 0.191905
O O1 0.103532 0.500000 0.769586
O O2 0.178365 0.559800 0.650759
O O3 0.111159 0.590792 0.823237
O O4 0.000000 0.559615 0.685181
O O5 0.914828 0.319088 0.160214
O O6 0.000000 0.235797 0.158955
O O7 0.000000 0.289726 0.000000
O O8 0.203239 0.937746 0.500000
O O9 0.167857 0.909426 0.698199
O O10 0.195999 0.000000 0.647816
O O11 0.854438 0.079387 0.102024
O O12 0.000000 0.061990 0.000000
O O13 0.877771 0.000000 0.000000
O O14 0.253707 0.857244 0.831755
O O15 0.351595 0.864104 0.000000
O O16 0.083985 0.155046 0.175793
O O17 0.000000 0.177370 0.000000
#
# Coordination Sequence:
#
# PCOD9484039 Si02
#       7
#    16   8  16   8  16   8  16
#     4   9  17  28  46  72 102 138 175 208 245 294
#     4   9  20  32  49  73 105 139 167 208 262 309
#     4   9  19  34  50  73 105 137 172 211 250 301
#     4  11  20  32  52  76 106 138 172 209 250 303
#     4  10  18  31  47  72 110 141 167 203 251 316
#     4  11  20  36  53  75 102 127 174 224 257 308
#     4  11  19  34  53  75 101 137 172 212 258 302
#
# _framework density 15.836956000000001
#
# number of rings (size 3 to 8) (size 9 to 14) (size 15 to 20)
#    0.000    2.091    3.636    0.545    0.000    2.182 
#    0.000    5.909    0.000    1.091    0.000   15.273 
#    0.000    0.000    0.000    0.000    0.000    0.000 
#
# Total GULP energy -245229.741513 kJ/mol
# GULP energy per Si atom -5573.403216 kJ/mol
# Density = 1.580091 g / cm^3
# Si number density = 15.836956 Si / 1000 Ang^3
#
#
#
# Elastic Constant Matrix: (Units=GPa)
#
#
# Indices 1 2 3 4 5 6 
#
# 1 114.7101 71.1971 32.1838 0.0000 0.0000 0.0000
# 2 71.1971 127.6405 53.1342 0.0000 0.0000 0.0000
# 3 32.1838 53.1342 79.6692 0.0000 0.0000 0.0000
# 4 0.0000 0.0000 0.0000 16.9469 0.0000 0.0000
# 5 0.0000 0.0000 0.0000 0.0000 6.5145 0.0000
# 6 0.0000 0.0000 0.0000 0.0000 0.0000 7.0091
#
#
#
# Elastic Compliance Matrix: (Units=1/GPa)
#
#
# Indices 1 2 3 4 5 6 
#
# 1 0.013354 -0.007203 -0.000591 0.000000 0.000000 0.000000
# 2 -0.007203 0.014731 -0.006915 0.000000 0.000000 0.000000
# 3 -0.000591 -0.006915 0.017402 0.000000 0.000000 0.000000
# 4 0.000000 0.000000 0.000000 0.059008 0.000000 0.000000
# 5 0.000000 0.000000 0.000000 0.000000 0.153504 0.000000
# 6 0.000000 0.000000 0.000000 0.000000 0.000000 0.142672
#
#
# Mechanical properties :
#
#
# Convention : Reuss Voigt Hill
#
# Bulk Modulus (GPa) = 62.22667 70.56110 66.39388
# Shear Modulus (GPa) = 11.48252 17.12773 14.30512
#
# Velocity S-wave (km/s) = 2.69559 3.29219 3.00871
# Velocity P-wave (km/s) = 7.00469 7.68783 7.35420
#
# Compressibility (1/GPa) = 0.01607028
#
# Stress axis : x y z
#
# Youngs Moduli (GPa) = 74.88419 67.88561 57.46403
#
# Poissons Ratio (x) = 0.48897 0.03395
# Poissons Ratio (y) = 0.53938 0.39735
# Poissons Ratio (z) = 0.04424 0.46941
#
# Static dielectric constant tensor:
#      x y z
#    x 1.564190 0.000000 0.000000 
#    y 0.000000 1.519240 0.000000 
#    z 0.000000 0.000000 1.499580 
# 
# From -- ./inp_files/25219.got.cif
#   From: 2010.05.17/outbox.cif.g08.bks.cpg/sg65_13_cif.got.tgz:25219.got - 2010.06.03 17:01:31.
