data_PCOD9484756
_publ_section_title
;
Structure prediction by ZEFSAII (Michael W. Deem and Ramdas Pophale) SiO2 
 PCOD9484756
Probable space group: C M M M
;
_chemical_formula_sum "Si O2"
_cell_formula_units_Z 64
_cell_length_a 14.878658
_cell_length_b 12.818705
_cell_length_c 13.063512
_cell_angle_alpha 90.000000
_cell_angle_beta 90.000000
_cell_angle_gamma 90.000000
_cell_volume 2491.539994
_symmetry_space_group_name_H-M "C M M M"
_symmetry_group_IT_number 65
_symmetry_cell_setting 'orthorhombic'
loop_
_space_group_symop_operation_xyz
x,y,z
-x,-y,z
x,-y,-z
-x,y,-z
-x,-y,-z
x,y,-z
-x,y,z
x,-y,z
1/2+x,1/2+y,z
1/2-x,1/2-y,z
1/2+x,1/2-y,-z
1/2-x,1/2+y,-z
1/2-x,1/2-y,-z
1/2+x,1/2+y,-z
1/2-x,1/2+y,z
1/2+x,1/2-y,z
loop_
_atom_site_type_symbol
_atom_site_label
_atom_site_fract_x
_atom_site_fract_y
_atom_site_fract_z
Si Si1 0.705237 0.873800 0.388037
Si Si2 0.405316 0.380135 0.657202
Si Si3 0.368643 0.655001 0.889001
Si Si4 0.842187 0.619286 0.840927
O O1 0.667527 0.848480 0.500000
O O2 0.809214 0.834891 0.377109
O O3 0.654634 0.857258 0.280965
O O4 0.714000 0.000000 0.387031
O O5 0.500000 0.330431 0.624380
O O6 0.406204 0.500000 0.621445
O O7 0.404853 0.383453 0.780804
O O8 0.261990 0.629739 0.876338
O O9 0.386527 0.779420 0.889338
O O10 0.396879 0.614777 0.000000
O O11 0.871803 0.500000 0.860883
#
# Coordination Sequence:
#
# PCOD9484756 Si02
#       4
#    16  16  16  16
#     4   8  14  26  45  67  90 116 143 173 214 262
#     4   9  18  31  45  63  88 116 147 183 220 259
#     4  10  19  29  43  64  88 115 148 184 220 259
#     4   9  17  29  44  64  90 116 143 176 216 262
#
# _framework density 25.686926
#
# number of rings (size 3 to 8) (size 9 to 14) (size 15 to 20)
#    0.000    3.000    0.000    3.750    0.000    4.500 
#    0.000   13.750    0.000    0.750    0.000    1.750 
#    0.000    0.000    0.000   26.500    0.000    2.250 
#
# Total GULP energy -178606.370028 kJ/mol
# GULP energy per Si atom -5581.449063 kJ/mol
# Density = 2.562846 g / cm^3
# Si number density = 25.686926 Si / 1000 Ang^3
#
#
#
# Elastic Constant Matrix: (Units=GPa)
#
#
# Indices 1 2 3 4 5 6 
#
# 1 62.0788 -14.7090 2.5110 0.0000 0.0000 0.0000
# 2 -14.7090 153.0923 18.4898 0.0000 0.0000 0.0000
# 3 2.5110 18.4898 211.2855 0.0000 0.0000 0.0000
# 4 0.0000 0.0000 0.0000 -22.0741 0.0000 0.0000
# 5 0.0000 0.0000 0.0000 0.0000 -21.2869 0.0000
# 6 0.0000 0.0000 0.0000 0.0000 0.0000 1.0158
#
#
#
# Elastic Compliance Matrix: (Units=1/GPa)
#
#
# Indices 1 2 3 4 5 6 
#
# 1 0.016508 0.001627 -0.000339 0.000000 0.000000 0.000000
# 2 0.001627 0.006762 -0.000611 0.000000 0.000000 0.000000
# 3 -0.000339 -0.000611 0.004790 0.000000 0.000000 0.000000
# 4 0.000000 0.000000 0.000000 -0.045302 0.000000 0.000000
# 5 0.000000 0.000000 0.000000 0.000000 -0.046977 0.000000
# 6 0.000000 0.000000 0.000000 0.000000 0.000000 0.984420
#
#
# Mechanical properties :
#
#
# Convention : Reuss Voigt Hill
#
# Bulk Modulus (GPa) = 33.99639 48.78223 41.38931
# Shear Modulus (GPa) = 5.38415 19.54194 12.46305
#
# Velocity S-wave (km/s) = 1.44935 2.76121 2.20509
# Velocity P-wave (km/s) = 4.00805 5.40351 4.75723
#
# Compressibility (1/GPa) = 0.02941489
#
# Stress axis : x y z
#
# Youngs Moduli (GPa) = 60.57763 147.88243 208.74933
#
# Poissons Ratio (x) = -0.24060 0.07067
# Poissons Ratio (y) = -0.09856 0.12757
# Poissons Ratio (z) = 0.02051 0.09037
#
# Static dielectric constant tensor:
#      x y z
#    x 2.032350 0.000000 0.000000 
#    y 0.000000 2.095840 0.000000 
#    z 0.000000 0.000000 1.965250 
# 
# From -- ./inp_files/24135.got.cif
#   From: 2010.05.17/outbox.cif.g08.bks.cpg/sg65_13_cif.got.tgz:24135.got - 2010.06.03 17:01:31.
