data_PCOD9484740
_publ_section_title
;
Structure prediction by ZEFSAII (Michael W. Deem and Ramdas Pophale) SiO2 
 PCOD9484740
Probable space group: C M M M
;
_chemical_formula_sum "Si O2"
_cell_formula_units_Z 88
_cell_length_a 22.227873
_cell_length_b 19.627229
_cell_length_c 14.012849
_cell_angle_alpha 90.000000
_cell_angle_beta 90.000000
_cell_angle_gamma 90.000000
_cell_volume 6113.407403
_symmetry_space_group_name_H-M "C M M M"
_symmetry_group_IT_number 65
_symmetry_cell_setting 'orthorhombic'
loop_
_space_group_symop_operation_xyz
x,y,z
-x,-y,z
x,-y,-z
-x,y,-z
-x,-y,-z
x,y,-z
-x,y,z
x,-y,z
1/2+x,1/2+y,z
1/2-x,1/2-y,z
1/2+x,1/2-y,-z
1/2-x,1/2+y,-z
1/2-x,1/2-y,-z
1/2+x,1/2+y,-z
1/2-x,1/2+y,z
1/2+x,1/2-y,z
loop_
_atom_site_type_symbol
_atom_site_label
_atom_site_fract_x
_atom_site_fract_y
_atom_site_fract_z
Si Si1 0.385838 0.152450 0.209713
Si Si2 0.571795 0.713728 0.886590
Si Si3 0.572236 0.921290 0.387761
Si Si4 0.363225 0.423903 0.884434
Si Si5 0.224238 0.419496 0.112960
Si Si6 0.000000 0.419256 0.112397
O O1 0.395934 0.230044 0.178227
O O2 0.394819 0.132096 0.319803
O O3 0.322911 0.124620 0.171023
O O4 0.440249 0.112249 0.157379
O O5 0.500000 0.720350 0.876501
O O6 0.593790 0.638280 0.858628
O O7 0.585869 0.724524 0.000000
O O8 0.584900 0.912475 0.500000
O O9 0.500000 0.914390 0.375070
O O10 0.587494 0.000000 0.361690
O O11 0.379802 0.500000 0.850129
O O12 0.293799 0.409330 0.858345
O O13 0.363907 0.426985 0.000000
O O14 0.210782 0.500000 0.124525
O O15 0.218673 0.404035 0.000000
O O16 0.000000 0.500000 0.127353
O O17 0.000000 0.404704 0.000000
#
# Coordination Sequence:
#
# PCOD9484740 Si02
#       6
#    16  16  16  16  16   8
#     4  12  19  27  41  61  90 117 142 177 215 256
#     4  10  19  29  42  63  91 118 145 179 218 259
#     4   9  17  29  43  58  79 112 154 191 217 246
#     4   8  16  31  46  60  82 114 152 188 215 247
#     4   9  17  28  42  61  86 117 151 179 204 247
#     4  11  20  26  35  55  86 124 151 164 189 237
#
# _framework density 14.394591
#
# number of rings (size 3 to 8) (size 9 to 14) (size 15 to 20)
#    0.000    2.273    1.818    4.909    0.000    2.545 
#    0.000    4.545    0.000    0.000    0.000    2.545 
#    0.000    2.182    0.000    3.818    0.000    0.182 
#
# Total GULP energy -245262.436732 kJ/mol
# GULP energy per Si atom -5574.146289 kJ/mol
# Density = 1.436183 g / cm^3
# Si number density = 14.394591 Si / 1000 Ang^3
#
#
#
# Elastic Constant Matrix: (Units=GPa)
#
#
# Indices 1 2 3 4 5 6 
#
# 1 23.3605 29.2462 11.9481 0.0000 0.0000 0.0000
# 2 29.2462 39.0253 69.0605 0.0000 0.0000 0.0000
# 3 11.9481 69.0605 20.4332 0.0000 0.0000 0.0000
# 4 0.0000 0.0000 0.0000 -13.6124 0.0000 0.0000
# 5 0.0000 0.0000 0.0000 0.0000 7.6253 0.0000
# 6 0.0000 0.0000 0.0000 0.0000 0.0000 23.9623
#
#
#
# Elastic Compliance Matrix: (Units=1/GPa)
#
#
# Indices 1 2 3 4 5 6 
#
# 1 0.058782 -0.003368 -0.022990 0.000000 0.000000 0.000000
# 2 -0.003368 -0.004951 0.018704 0.000000 0.000000 0.000000
# 3 -0.022990 0.018704 -0.000833 0.000000 0.000000 0.000000
# 4 0.000000 0.000000 0.000000 -0.073462 0.000000 0.000000
# 5 0.000000 0.000000 0.000000 0.000000 0.131142 0.000000
# 6 0.000000 0.000000 0.000000 0.000000 0.000000 0.041732
#
#
# Mechanical properties :
#
#
# Convention : Reuss Voigt Hill
#
# Bulk Modulus (GPa) = 26.53252 33.70319 30.11786
# Shear Modulus (GPa) = 27.73458 1.76599 14.75029
#
# Velocity S-wave (km/s) = 4.39422 1.10883 3.20458
# Velocity P-wave (km/s) = 6.64965 5.01039 5.88735
#
# Compressibility (1/GPa) = 0.03768959
#
# Stress axis : x y z
#
# Youngs Moduli (GPa) = 17.01197 -201.96010 -1199.91596
#
# Poissons Ratio (x) = -0.68012 -27.58664
# Poissons Ratio (y) = 0.05729 22.44349
# Poissons Ratio (z) = 0.39111 3.77751
#
# Static dielectric constant tensor:
#      x y z
#    x 1.465320 0.000000 0.000000 
#    y 0.000000 1.491260 0.000000 
#    z 0.000000 0.000000 1.466150 
# 
# From -- ./inp_files/42996.got.cif
#   From: 2010.05.17/outbox.cif.g08.bks.cpg/sg65_22_cif.got.tgz:42996.got - 2010.06.03 17:01:31.
