data_PCOD9484007
_publ_section_title
;
Structure prediction by ZEFSAII (Michael W. Deem and Ramdas Pophale) SiO2 
 PCOD9484007
Probable space group: C M M M
;
_chemical_formula_sum "Si O2"
_cell_formula_units_Z 100
_cell_length_a 27.143393
_cell_length_b 21.701278
_cell_length_c 9.019398
_cell_angle_alpha 90.000000
_cell_angle_beta 90.000000
_cell_angle_gamma 90.000000
_cell_volume 5312.843177
_symmetry_space_group_name_H-M "C M M M"
_symmetry_group_IT_number 65
_symmetry_cell_setting 'orthorhombic'
loop_
_space_group_symop_operation_xyz
x,y,z
-x,-y,z
x,-y,-z
-x,y,-z
-x,-y,-z
x,y,-z
-x,y,z
x,-y,z
1/2+x,1/2+y,z
1/2-x,1/2-y,z
1/2+x,1/2-y,-z
1/2-x,1/2+y,-z
1/2-x,1/2-y,-z
1/2+x,1/2+y,-z
1/2-x,1/2+y,z
1/2+x,1/2-y,z
loop_
_atom_site_type_symbol
_atom_site_label
_atom_site_fract_x
_atom_site_fract_y
_atom_site_fract_z
Si Si1 0.760791 0.821208 0.679175
Si Si2 0.626027 0.334705 0.323629
Si Si3 0.303750 0.070102 0.821996
Si Si4 0.944785 0.073578 0.826139
Si Si5 0.000000 0.500000 0.718723
Si Si6 0.943719 0.735927 0.175691
Si Si7 0.580843 0.092562 0.175079
O O1 0.756384 0.824264 0.500000
O O2 0.750000 0.750000 0.722600
O O3 0.817165 0.834525 0.723427
O O4 0.725847 0.873808 0.747668
O O5 0.625067 0.331199 0.500000
O O6 0.597096 0.394280 0.267131
O O7 0.595708 0.277747 0.257505
O O8 0.362183 0.078303 0.793409
O O9 0.289336 0.000000 0.775771
O O10 0.297174 0.073969 0.000000
O O11 0.000000 0.093546 0.780471
O O12 0.942674 0.000000 0.813921
O O13 0.939209 0.089370 0.000000
O O14 0.956818 0.553027 0.730052
O O15 0.930231 0.664463 0.194106
O O16 0.000000 0.746739 0.225832
O O17 0.941858 0.749523 0.000000
O O18 0.571346 0.077108 0.000000
#
# Coordination Sequence:
#
# PCOD9484007 Si02
#       7
#    16  16  16  16   4  16  16
#     4  10  23  43  61  77 104 149 199 239 282 337
#     4  11  23  37  56  81 107 141 188 237 280 326
#     4  10  21  36  57  88 119 144 182 236 285 331
#     4   9  19  37  60  85 114 147 178 213 269 340
#     4  12  17  28  56  88 125 158 183 220 271 322
#     4  10  20  33  52  82 116 150 186 222 268 328
#     4  10  18  30  52  85 121 153 184 222 270 323
#
# _framework density 18.822313999999999
#
# number of rings (size 3 to 8) (size 9 to 14) (size 15 to 20)
#    0.000    1.920    1.600    3.120    0.000    5.440 
#    0.000    4.000    0.000    0.000    0.000    2.240 
#    0.000    0.000    0.000    0.000    0.000    0.000 
#
# Total GULP energy -278688.352035 kJ/mol
# GULP energy per Si atom -5573.767041 kJ/mol
# Density = 1.877947 g / cm^3
# Si number density = 18.822314 Si / 1000 Ang^3
#
#
#
# Elastic Constant Matrix: (Units=GPa)
#
#
# Indices 1 2 3 4 5 6 
#
# 1 148.0342 70.6836 42.1797 0.0000 0.0000 0.0000
# 2 70.6836 122.8402 30.6058 0.0000 0.0000 0.0000
# 3 42.1797 30.6058 20.9477 0.0000 0.0000 0.0000
# 4 0.0000 0.0000 0.0000 1.1409 0.0000 0.0000
# 5 0.0000 0.0000 0.0000 0.0000 10.2760 0.0000
# 6 0.0000 0.0000 0.0000 0.0000 0.0000 52.7078
#
#
#
# Elastic Compliance Matrix: (Units=1/GPa)
#
#
# Indices 1 2 3 4 5 6 
#
# 1 0.016115 -0.001868 -0.029720 0.000000 0.000000 0.000000
# 2 -0.001868 0.013017 -0.015256 0.000000 0.000000 0.000000
# 3 -0.029720 -0.015256 0.129871 0.000000 0.000000 0.000000
# 4 0.000000 0.000000 0.000000 0.876533 0.000000 0.000000
# 5 0.000000 0.000000 0.000000 0.000000 0.097315 0.000000
# 6 0.000000 0.000000 0.000000 0.000000 0.000000 0.018973
#
#
# Mechanical properties :
#
#
# Convention : Reuss Voigt Hill
#
# Bulk Modulus (GPa) = 15.31057 64.30670 39.80864
# Shear Modulus (GPa) = 3.94545 22.71512 13.33028
#
# Velocity S-wave (km/s) = 1.44938 3.47770 2.66412
# Velocity P-wave (km/s) = 3.30951 7.09684 5.53706
#
# Compressibility (1/GPa) = 0.06531434
#
# Stress axis : x y z
#
# Youngs Moduli (GPa) = 62.05260 76.82366 7.69995
#
# Poissons Ratio (x) = 0.14353 0.22884
# Poissons Ratio (y) = 0.11593 0.11747
# Poissons Ratio (z) = 1.84419 1.17205
#
# Static dielectric constant tensor:
#      x y z
#    x 1.626570 0.000000 0.000000 
#    y 0.000000 1.660700 0.000000 
#    z 0.000000 0.000000 1.651570 
# 
# From -- ./inp_files/16474.got.cif
#   From: 2010.05.17/outbox.cif.g08.bks.cpg/sg65_9_cif.got.tgz:16474.got - 2010.06.03 17:01:31.
