data_PCOD9484824
_publ_section_title
;
Structure prediction by ZEFSAII (Michael W. Deem and Ramdas Pophale) SiO2 
 PCOD9484824
Probable space group: C M M M
;
_chemical_formula_sum "Si O2"
_cell_formula_units_Z 96
_cell_length_a 29.054601
_cell_length_b 8.914906
_cell_length_c 24.374012
_cell_angle_alpha 90.000000
_cell_angle_beta 90.000000
_cell_angle_gamma 90.000000
_cell_volume 6313.333111
_symmetry_space_group_name_H-M "C M M M"
_symmetry_group_IT_number 65
_symmetry_cell_setting 'orthorhombic'
loop_
_space_group_symop_operation_xyz
x,y,z
-x,-y,z
x,-y,-z
-x,y,-z
-x,-y,-z
x,y,-z
-x,y,z
x,-y,z
1/2+x,1/2+y,z
1/2-x,1/2-y,z
1/2+x,1/2-y,-z
1/2-x,1/2+y,-z
1/2-x,1/2-y,-z
1/2+x,1/2+y,-z
1/2-x,1/2+y,z
1/2+x,1/2-y,z
loop_
_atom_site_type_symbol
_atom_site_label
_atom_site_fract_x
_atom_site_fract_y
_atom_site_fract_z
Si Si1 0.553798 0.817649 0.560869
Si Si2 0.699295 0.679965 0.500000
Si Si3 0.111945 0.318288 0.333090
Si Si4 0.199052 0.180367 0.379037
Si Si5 0.556082 0.826702 0.000000
Si Si6 0.446603 0.819467 0.226835
Si Si7 0.444030 0.327124 0.112682
O O1 0.569488 0.766815 0.500000
O O2 0.500000 0.776243 0.567012
O O3 0.582970 0.768535 0.613217
O O4 0.555340 0.000000 0.560555
O O5 0.702279 0.500000 0.500000
O O6 0.750000 0.750000 0.500000
O O7 0.680393 0.723791 0.440451
O O8 0.115273 0.500000 0.334357
O O9 0.162277 0.247067 0.337212
O O10 0.084457 0.274785 0.278353
O O11 0.250000 0.250000 0.373014
O O12 0.201785 0.000000 0.375687
O O13 0.571729 0.748755 0.943831
O O14 0.500000 0.819699 0.000000
O O15 0.569180 0.000000 0.000000
O O16 0.500000 0.773494 0.235696
O O17 0.430223 0.754332 0.168768
O O18 0.446191 0.000000 0.223527
O O19 0.500000 0.320743 0.111859
O O20 0.430310 0.500000 0.113874
#
# Coordination Sequence:
#
# PCOD9484824 Si02
#       7
#    16   8  16  16   8  16  16
#     4   8  14  25  41  62  86 110 140 179 218 256
#     4   8  16  30  46  62  79 100 125 159 206 261
#     4  10  19  29  45  67  87 111 144 181 221 264
#     4  10  20  34  49  65  85 108 135 172 219 272
#     4   9  15  23  37  57  81 111 146 181 220 261
#     4   9  17  29  43  60  86 119 153 186 218 255
#     4   9  16  25  38  57  82 112 148 187 221 253
#
# _framework density 15.205913000000001
#
# number of rings (size 3 to 8) (size 9 to 14) (size 15 to 20)
#    0.000    2.917    0.000    2.250    1.167    6.333 
#    0.000    0.000    0.000    1.500    0.000    1.167 
#    0.000    0.000    0.000    0.750    0.000   10.083 
#
# Total GULP energy -267289.583384 kJ/mol
# GULP energy per Si atom -5568.532987 kJ/mol
# Density = 1.517130 g / cm^3
# Si number density = 15.205913 Si / 1000 Ang^3
#
#
#
# Elastic Constant Matrix: (Units=GPa)
#
#
# Indices 1 2 3 4 5 6 
#
# 1 58.8459 22.9700 59.8838 0.0000 0.0000 0.0000
# 2 22.9700 28.5179 45.5465 0.0000 0.0000 0.0000
# 3 59.8838 45.5465 146.4096 0.0000 0.0000 0.0000
# 4 0.0000 0.0000 0.0000 15.8408 0.0000 0.0000
# 5 0.0000 0.0000 0.0000 0.0000 8.6667 0.0000
# 6 0.0000 0.0000 0.0000 0.0000 0.0000 13.8824
#
#
#
# Elastic Compliance Matrix: (Units=1/GPa)
#
#
# Indices 1 2 3 4 5 6 
#
# 1 0.030267 -0.009156 -0.009531 0.000000 0.000000 0.000000
# 2 -0.009156 0.072462 -0.018797 0.000000 0.000000 0.000000
# 3 -0.009531 -0.018797 0.016576 0.000000 0.000000 0.000000
# 4 0.000000 0.000000 0.000000 0.063128 0.000000 0.000000
# 5 0.000000 0.000000 0.000000 0.000000 0.115384 0.000000
# 6 0.000000 0.000000 0.000000 0.000000 0.000000 0.072033
#
#
# Mechanical properties :
#
#
# Convention : Reuss Voigt Hill
#
# Bulk Modulus (GPa) = 22.55518 54.50821 38.53170
# Shear Modulus (GPa) = 10.87906 14.70285 12.79096
#
# Velocity S-wave (km/s) = 2.67769 3.11290 2.90346
# Velocity P-wave (km/s) = 4.94221 6.98890 6.05269
#
# Compressibility (1/GPa) = 0.04433570
#
# Stress axis : x y z
#
# Youngs Moduli (GPa) = 33.03929 13.80040 60.32781
#
# Poissons Ratio (x) = 0.12636 0.57500
# Poissons Ratio (y) = 0.30252 1.13398
# Poissons Ratio (z) = 0.31490 0.25941
#
# Static dielectric constant tensor:
#      x y z
#    x 1.482570 0.000000 0.000000 
#    y 0.000000 1.507230 0.000000 
#    z 0.000000 0.000000 1.519330 
# 
# From -- ./inp_files/71744.got.cif
#   From: 2010.05.17/outbox.cif.g08.bks.cpg/sg65_36_cif.got.tgz:71744.got - 2010.06.03 17:01:31.
