data_PCOD9484348
_publ_section_title
;
Structure prediction by ZEFSAII (Michael W. Deem and Ramdas Pophale) SiO2 
 PCOD9484348
Probable space group: C M M M
;
_chemical_formula_sum "Si O2"
_cell_formula_units_Z 88
_cell_length_a 18.891875
_cell_length_b 8.763034
_cell_length_c 29.567795
_cell_angle_alpha 90.000000
_cell_angle_beta 90.000000
_cell_angle_gamma 90.000000
_cell_volume 4894.952689
_symmetry_space_group_name_H-M "C M M M"
_symmetry_group_IT_number 65
_symmetry_cell_setting 'orthorhombic'
loop_
_space_group_symop_operation_xyz
x,y,z
-x,-y,z
x,-y,-z
-x,y,-z
-x,-y,-z
x,y,-z
-x,y,z
x,-y,z
1/2+x,1/2+y,z
1/2-x,1/2-y,z
1/2+x,1/2-y,-z
1/2-x,1/2+y,-z
1/2-x,1/2-y,-z
1/2+x,1/2+y,-z
1/2-x,1/2+y,z
1/2+x,1/2-y,z
loop_
_atom_site_type_symbol
_atom_site_label
_atom_site_fract_x
_atom_site_fract_y
_atom_site_fract_z
Si Si1 0.170068 0.182545 0.500000
Si Si2 0.328874 0.180961 0.858433
Si Si3 0.915890 0.181988 0.776868
Si Si4 0.671220 0.181169 0.592667
Si Si5 0.170243 0.182891 0.950573
Si Si6 0.915484 0.818701 0.673924
O O1 0.250000 0.250000 0.500000
O O2 0.138955 0.245142 0.453103
O O3 0.171768 0.000000 0.500000
O O4 0.250000 0.250000 0.853878
O O5 0.373660 0.229785 0.815085
O O6 0.361803 0.247838 0.904973
O O7 0.323605 0.000000 0.862280
O O8 0.895165 0.223381 0.725408
O O9 0.000000 0.208376 0.781178
O O10 0.904009 0.000000 0.782085
O O11 0.750000 0.250000 0.598384
O O12 0.625653 0.226024 0.636095
O O13 0.676368 0.000000 0.586992
O O14 0.250000 0.250000 0.951595
O O15 0.173629 0.000000 0.946551
O O16 0.138112 0.219784 0.000000
O O17 0.000000 0.797247 0.669846
O O18 0.901421 0.000000 0.668171
#
# Coordination Sequence:
#
# PCOD9484348 Si02
#       6
#     8  16  16  16  16  16
#     4  10  18  32  53  76 105 138 173 211 253 303
#     4  11  21  32  50  76 106 136 169 212 255 299
#     4   9  19  37  58  76  99 134 172 210 256 311
#     4  11  21  34  54  80 109 139 173 212 254 301
#     4   9  16  27  45  69  98 131 166 205 251 302
#     4   9  19  37  58  78 102 134 171 211 258 309
#
# _framework density 17.977701
#
# number of rings (size 3 to 8) (size 9 to 14) (size 15 to 20)
#    0.000    2.182    0.000    7.909    0.000    3.273 
#    0.000    2.273    0.000    3.273    0.000    3.818 
#    0.000    0.000    0.000    0.000    0.000    0.000 
#
# Total GULP energy -245424.406480 kJ/mol
# GULP energy per Si atom -5577.827420 kJ/mol
# Density = 1.793678 g / cm^3
# Si number density = 17.977701 Si / 1000 Ang^3
#
#
#
# Elastic Constant Matrix: (Units=GPa)
#
#
# Indices 1 2 3 4 5 6 
#
# 1 20.2893 33.5977 43.9752 0.0000 0.0000 0.0000
# 2 33.5977 134.3274 91.6676 0.0000 0.0000 0.0000
# 3 43.9752 91.6676 176.6456 0.0000 0.0000 0.0000
# 4 0.0000 0.0000 0.0000 35.3656 0.0000 0.0000
# 5 0.0000 0.0000 0.0000 0.0000 -33.7001 0.0000
# 6 0.0000 0.0000 0.0000 0.0000 0.0000 21.5827
#
#
#
# Elastic Compliance Matrix: (Units=1/GPa)
#
#
# Indices 1 2 3 4 5 6 
#
# 1 0.124952 -0.015522 -0.023051 0.000000 0.000000 0.000000
# 2 -0.015522 0.013455 -0.003118 0.000000 0.000000 0.000000
# 3 -0.023051 -0.003118 0.013018 0.000000 0.000000 0.000000
# 4 0.000000 0.000000 0.000000 0.028276 0.000000 0.000000
# 5 0.000000 0.000000 0.000000 0.000000 -0.029673 0.000000
# 6 0.000000 0.000000 0.000000 0.000000 0.000000 0.046333
#
#
# Mechanical properties :
#
#
# Convention : Reuss Voigt Hill
#
# Bulk Modulus (GPa) = 14.69687 74.41593 44.55640
# Shear Modulus (GPa) = 16.53310 15.45110 15.99210
#
# Velocity S-wave (km/s) = 3.03585 2.93483 2.98577
# Velocity P-wave (km/s) = 4.52563 7.27789 6.06007
#
# Compressibility (1/GPa) = 0.06804169
#
# Stress axis : x y z
#
# Youngs Moduli (GPa) = 8.00306 74.32443 76.81910
#
# Poissons Ratio (x) = 1.15366 1.77079
# Poissons Ratio (y) = 0.12422 0.23951
# Poissons Ratio (z) = 0.18448 0.23174
#
# Static dielectric constant tensor:
#      x y z
#    x 1.590430 0.000000 0.000000 
#    y 0.000000 1.599750 0.000000 
#    z 0.000000 0.000000 1.660310 
# 
# From -- ./inp_files/71018.got.cif
#   From: 2010.05.17/outbox.cif.g08.bks.cpg/sg65_36_cif.got.tgz:71018.got - 2010.06.03 17:01:31.
