data_PCOD9484793
_publ_section_title
;
Structure prediction by ZEFSAII (Michael W. Deem and Ramdas Pophale) SiO2 
 PCOD9484793
Probable space group: C M M M
;
_chemical_formula_sum "Si O2"
_cell_formula_units_Z 104
_cell_length_a 19.570686
_cell_length_b 8.039515
_cell_length_c 34.467164
_cell_angle_alpha 90.000000
_cell_angle_beta 90.000000
_cell_angle_gamma 90.000000
_cell_volume 5423.023039
_symmetry_space_group_name_H-M "C M M M"
_symmetry_group_IT_number 65
_symmetry_cell_setting 'orthorhombic'
loop_
_space_group_symop_operation_xyz
x,y,z
-x,-y,z
x,-y,-z
-x,y,-z
-x,-y,-z
x,y,-z
-x,y,z
x,-y,z
1/2+x,1/2+y,z
1/2-x,1/2-y,z
1/2+x,1/2-y,-z
1/2-x,1/2+y,-z
1/2-x,1/2-y,-z
1/2+x,1/2+y,-z
1/2-x,1/2+y,z
1/2+x,1/2-y,z
loop_
_atom_site_type_symbol
_atom_site_label
_atom_site_fract_x
_atom_site_fract_y
_atom_site_fract_z
Si Si1 0.828340 0.301433 0.956814
Si Si2 0.422563 0.302203 0.885930
Si Si3 0.921848 0.300787 0.800685
Si Si4 0.421677 0.202945 0.429146
Si Si5 0.578361 0.202907 0.658940
Si Si6 0.171272 0.299035 0.500000
Si Si7 0.328865 0.201109 0.270085
O O1 0.831543 0.500000 0.957539
O O2 0.750000 0.250000 0.950221
O O3 0.875845 0.241425 0.922213
O O4 0.848228 0.238681 0.000000
O O5 0.500000 0.237095 0.891627
O O6 0.425510 0.500000 0.882818
O O7 0.397743 0.236462 0.844309
O O8 0.925408 0.500000 0.796472
O O9 0.870992 0.238117 0.767521
O O10 0.000000 0.236322 0.796573
O O11 0.500000 0.251674 0.438095
O O12 0.405587 0.256068 0.385102
O O13 0.369040 0.260508 0.461721
O O14 0.420766 0.000000 0.429221
O O15 0.500000 0.251885 0.668039
O O16 0.631512 0.259943 0.691311
O O17 0.579033 0.000000 0.659048
O O18 0.167633 0.500000 0.500000
O O19 0.250000 0.250000 0.500000
O O20 0.250000 0.250000 0.269340
O O21 0.331768 0.000000 0.270079
#
# Coordination Sequence:
#
# PCOD9484793 Si02
#       7
#    16  16  16  16  16   8  16
#     4  10  21  37  57  80 107 140 176 213 254 301
#     4  10  21  36  55  80 108 137 170 210 255 301
#     4   9  18  34  54  72  93 126 168 209 245 286
#     4   8  14  26  46  69  90 117 159 206 240 273
#     4   8  14  27  48  71  92 118 158 204 243 280
#     4  10  19  29  43  67  97 126 156 192 240 292
#     4  10  20  32  48  72  99 126 157 196 244 295
#
# _framework density 19.177496000000001
#
# number of rings (size 3 to 8) (size 9 to 14) (size 15 to 20)
#    0.000    2.769    0.000    2.538    0.000    6.769 
#    0.000    3.077    0.000    2.308    0.000    2.154 
#    0.000    0.000    0.000    0.000    0.000    0.000 
#
# Total GULP energy -290058.153855 kJ/mol
# GULP energy per Si atom -5578.041420 kJ/mol
# Density = 1.913385 g / cm^3
# Si number density = 19.177496 Si / 1000 Ang^3
#
#
#
# Elastic Constant Matrix: (Units=GPa)
#
#
# Indices 1 2 3 4 5 6 
#
# 1 135.7635 6.2968 137.0663 0.0000 0.0000 0.0000
# 2 6.2968 14.4284 9.6503 0.0000 0.0000 0.0000
# 3 137.0663 9.6503 197.3071 0.0000 0.0000 0.0000
# 4 0.0000 0.0000 0.0000 4.5727 0.0000 0.0000
# 5 0.0000 0.0000 0.0000 0.0000 -17.2523 0.0000
# 6 0.0000 0.0000 0.0000 0.0000 0.0000 24.5331
#
#
#
# Elastic Compliance Matrix: (Units=1/GPa)
#
#
# Indices 1 2 3 4 5 6 
#
# 1 0.024671 0.000720 -0.017174 0.000000 0.000000 0.000000
# 2 0.000720 0.071673 -0.004005 0.000000 0.000000 0.000000
# 3 -0.017174 -0.004005 0.017194 0.000000 0.000000 0.000000
# 4 0.000000 0.000000 0.000000 0.218689 0.000000 0.000000
# 5 0.000000 0.000000 0.000000 0.000000 -0.057963 0.000000
# 6 0.000000 0.000000 0.000000 0.000000 0.000000 0.040761
#
#
# Mechanical properties :
#
#
# Convention : Reuss Voigt Hill
#
# Bulk Modulus (GPa) = 13.77046 72.61399 43.19222
# Shear Modulus (GPa) = 13.15270 15.33642 14.24456
#
# Velocity S-wave (km/s) = 2.62170 2.83098 2.72835
# Velocity P-wave (km/s) = 4.04481 6.97369 5.70056
#
# Compressibility (1/GPa) = 0.07261923
#
# Stress axis : x y z
#
# Youngs Moduli (GPa) = 40.53374 13.95227 58.15839
#
# Poissons Ratio (x) = -0.01004 0.99879
# Poissons Ratio (y) = -0.02917 0.23295
# Poissons Ratio (z) = 0.69611 0.05589
#
# Static dielectric constant tensor:
#      x y z
#    x 1.637040 0.000000 0.000000 
#    y 0.000000 1.692290 0.000000 
#    z 0.000000 0.000000 1.670730 
# 
# From -- ./inp_files/78189.got.cif
#   From: 2010.05.17/outbox.cif.g08.bks.cpg/sg65_40_cif.got.tgz:78189.got - 2010.06.03 17:01:31.
