data_PCOD9484038
_publ_section_title
;
Structure prediction by ZEFSAII (Michael W. Deem and Ramdas Pophale) SiO2 
 PCOD9484038
Probable space group: C M M M
;
_chemical_formula_sum "Si O2"
_cell_formula_units_Z 96
_cell_length_a 14.063775
_cell_length_b 27.862756
_cell_length_c 14.985150
_cell_angle_alpha 90.000000
_cell_angle_beta 90.000000
_cell_angle_gamma 90.000000
_cell_volume 5872.013914
_symmetry_space_group_name_H-M "C M M M"
_symmetry_group_IT_number 65
_symmetry_cell_setting 'orthorhombic'
loop_
_space_group_symop_operation_xyz
x,y,z
-x,-y,z
x,-y,-z
-x,y,-z
-x,-y,-z
x,y,-z
-x,y,z
x,-y,z
1/2+x,1/2+y,z
1/2-x,1/2-y,z
1/2+x,1/2-y,-z
1/2-x,1/2+y,-z
1/2-x,1/2-y,-z
1/2+x,1/2+y,-z
1/2-x,1/2+y,z
1/2+x,1/2-y,z
loop_
_atom_site_type_symbol
_atom_site_label
_atom_site_fract_x
_atom_site_fract_y
_atom_site_fract_z
Si Si1 0.359110 0.766709 0.802583
Si Si2 0.606427 0.677492 0.317494
Si Si3 0.189574 0.638181 0.695317
Si Si4 0.383943 0.839543 0.500000
Si Si5 0.114245 0.229260 0.500000
Si Si6 0.655376 0.782757 0.000000
Si Si7 0.614218 0.944852 0.183619
Si Si8 0.385869 0.890181 0.000000
O O1 0.250000 0.750000 0.808220
O O2 0.402431 0.722672 0.748741
O O3 0.360268 0.816410 0.746797
O O4 0.392951 0.772878 0.904271
O O5 0.500000 0.655767 0.325530
O O6 0.696656 0.645107 0.292390
O O7 0.638178 0.700674 0.411385
O O8 0.156810 0.639257 0.592214
O O9 0.157528 0.589441 0.741834
O O10 0.500000 0.842319 0.500000
O O11 0.351646 0.783668 0.500000
O O12 0.000000 0.232947 0.500000
O O13 0.750000 0.750000 0.000000
O O14 0.670796 0.840168 0.000000
O O15 0.500000 0.944503 0.193082
O O16 0.635235 0.920957 0.087799
O O17 0.646301 0.000000 0.187578
O O18 0.500000 0.878993 0.000000
#
# Coordination Sequence:
#
# PCOD9484038 Si02
#       8
#    16  16  16   8   8   8  16   8
#     4   9  18  29  46  69  99 140 172 206 245 298
#     4  10  20  32  48  74 106 138 176 211 245 296
#     4  11  20  33  53  73 101 138 173 209 260 307
#     4  11  21  31  49  77 106 139 176 209 248 307
#     4   9  17  29  47  70 102 139 171 207 241 281
#     4  10  18  31  47  72 109 140 168 201 243 303
#     4  10  21  37  56  77  99 126 170 225 271 310
#     4  10  19  32  54  79 102 132 170 212 257 304
#
# _framework density 16.348735000000001
#
# number of rings (size 3 to 8) (size 9 to 14) (size 15 to 20)
#    0.000    2.000    3.333    1.250    0.000    3.000 
#    0.000    0.417    0.000    2.000    0.000    0.000 
#    0.000    4.667    0.000    0.000    0.000    0.000 
#
# Total GULP energy -267548.374593 kJ/mol
# GULP energy per Si atom -5573.924471 kJ/mol
# Density = 1.631152 g / cm^3
# Si number density = 16.348735 Si / 1000 Ang^3
#
#
#
# Elastic Constant Matrix: (Units=GPa)
#
#
# Indices 1 2 3 4 5 6 
#
# 1 79.0545 31.7624 23.8305 0.0000 0.0000 0.0000
# 2 31.7624 117.0791 52.1916 0.0000 0.0000 0.0000
# 3 23.8305 52.1916 137.3112 0.0000 0.0000 0.0000
# 4 0.0000 0.0000 0.0000 5.7097 0.0000 0.0000
# 5 0.0000 0.0000 0.0000 0.0000 20.2680 0.0000
# 6 0.0000 0.0000 0.0000 0.0000 0.0000 21.4164
#
#
#
# Elastic Compliance Matrix: (Units=1/GPa)
#
#
# Indices 1 2 3 4 5 6 
#
# 1 0.014364 -0.003354 -0.001218 0.000000 0.000000 0.000000
# 2 -0.003354 0.011067 -0.003624 0.000000 0.000000 0.000000
# 3 -0.001218 -0.003624 0.008872 0.000000 0.000000 0.000000
# 4 0.000000 0.000000 0.000000 0.175140 0.000000 0.000000
# 5 0.000000 0.000000 0.000000 0.000000 0.049339 0.000000
# 6 0.000000 0.000000 0.000000 0.000000 0.000000 0.046693
#
#
# Mechanical properties :
#
#
# Convention : Reuss Voigt Hill
#
# Bulk Modulus (GPa) = 55.83471 61.00153 58.41812
# Shear Modulus (GPa) = 15.25144 24.52284 19.88714
#
# Velocity S-wave (km/s) = 3.05762 3.87716 3.49152
# Velocity P-wave (km/s) = 6.83315 7.57871 7.21557
#
# Compressibility (1/GPa) = 0.01791000
#
# Stress axis : x y z
#
# Youngs Moduli (GPa) = 69.61750 90.36046 112.71722
#
# Poissons Ratio (x) = 0.30305 0.13730
# Poissons Ratio (y) = 0.23349 0.40853
# Poissons Ratio (z) = 0.08480 0.32750
#
# Static dielectric constant tensor:
#      x y z
#    x 1.591730 0.000000 0.000000 
#    y 0.000000 1.515480 0.000000 
#    z 0.000000 0.000000 1.584350 
# 
# From -- ./inp_files/40750.got.cif
#   From: 2010.05.17/outbox.cif.g08.bks.cpg/sg65_21_cif.got.tgz:40750.got - 2010.06.03 17:01:31.
