data_PCOD9484170
_publ_section_title
;
Structure prediction by ZEFSAII (Michael W. Deem and Ramdas Pophale) SiO2 
 PCOD9484170
Probable space group: C M M M
;
_chemical_formula_sum "Si O2"
_cell_formula_units_Z 88
_cell_length_a 29.699716
_cell_length_b 8.739963
_cell_length_c 18.219075
_cell_angle_alpha 90.000000
_cell_angle_beta 90.000000
_cell_angle_gamma 90.000000
_cell_volume 4729.205807
_symmetry_space_group_name_H-M "C M M M"
_symmetry_group_IT_number 65
_symmetry_cell_setting 'orthorhombic'
loop_
_space_group_symop_operation_xyz
x,y,z
-x,-y,z
x,-y,-z
-x,y,-z
-x,-y,-z
x,y,-z
-x,y,z
x,-y,z
1/2+x,1/2+y,z
1/2-x,1/2-y,z
1/2+x,1/2-y,-z
1/2-x,1/2+y,-z
1/2-x,1/2-y,-z
1/2+x,1/2+y,-z
1/2-x,1/2+y,z
1/2+x,1/2-y,z
loop_
_atom_site_type_symbol
_atom_site_label
_atom_site_fract_x
_atom_site_fract_y
_atom_site_fract_z
Si Si1 0.701769 0.682918 0.413791
Si Si2 0.891357 0.315743 0.083651
Si Si3 0.948803 0.686799 0.780339
Si Si4 0.889793 0.685150 0.641470
Si Si5 0.796477 0.175375 0.089387
Si Si6 0.448216 0.186219 0.500000
O O1 0.695171 0.726505 0.500000
O O2 0.702959 0.500000 0.409430
O O3 0.750000 0.750000 0.390699
O O4 0.659745 0.747527 0.368876
O O5 0.891754 0.500000 0.081920
O O6 0.928642 0.264190 0.141537
O O7 0.841932 0.263338 0.109402
O O8 0.898615 0.260880 0.000000
O O9 0.949485 0.500000 0.779833
O O10 0.915394 0.733378 0.715260
O O11 0.000000 0.738144 0.768714
O O12 0.886738 0.500000 0.640967
O O13 0.920679 0.732349 0.572203
O O14 0.750000 0.250000 0.115585
O O15 0.799103 0.000000 0.112782
O O16 0.794978 0.178399 0.000000
O O17 0.500000 0.239090 0.500000
O O18 0.449537 0.000000 0.500000
#
# Coordination Sequence:
#
# PCOD9484170 Si02
#       6
#    16  16  16  16  16   8
#     4  10  20  34  54  79 108 139 173 210 251 301
#     4   9  17  30  49  73 101 134 173 215 260 310
#     4   9  18  32  51  76 104 134 171 218 264 303
#     4  10  18  31  52  77 105 135 171 212 253 299
#     4   9  16  27  46  72 100 128 160 201 250 304
#     4   9  16  26  46  75 100 127 166 207 244 289
#
# _framework density 18.607775
#
# number of rings (size 3 to 8) (size 9 to 14) (size 15 to 20)
#    0.000    2.636    0.909    1.636    0.000    5.455 
#    0.000    3.636    0.000    4.364    0.000    2.545 
#    0.000    0.000    0.000    0.000    0.000    0.000 
#
# Total GULP energy -245388.413785 kJ/mol
# GULP energy per Si atom -5577.009404 kJ/mol
# Density = 1.856542 g / cm^3
# Si number density = 18.607775 Si / 1000 Ang^3
#
#
#
# Elastic Constant Matrix: (Units=GPa)
#
#
# Indices 1 2 3 4 5 6 
#
# 1 187.8763 26.8452 80.1252 0.0000 0.0000 0.0000
# 2 26.8452 14.6837 19.4634 0.0000 0.0000 0.0000
# 3 80.1252 19.4634 92.0349 0.0000 0.0000 0.0000
# 4 0.0000 0.0000 0.0000 7.3229 0.0000 0.0000
# 5 0.0000 0.0000 0.0000 0.0000 31.2828 0.0000
# 6 0.0000 0.0000 0.0000 0.0000 0.0000 24.1191
#
#
#
# Elastic Compliance Matrix: (Units=1/GPa)
#
#
# Indices 1 2 3 4 5 6 
#
# 1 0.009187 -0.008607 -0.006178 0.000000 0.000000 0.000000
# 2 -0.008607 0.102693 -0.014224 0.000000 0.000000 0.000000
# 3 -0.006178 -0.014224 0.019252 0.000000 0.000000 0.000000
# 4 0.000000 0.000000 0.000000 0.136558 0.000000 0.000000
# 5 0.000000 0.000000 0.000000 0.000000 0.031966 0.000000
# 6 0.000000 0.000000 0.000000 0.000000 0.000000 0.041461
#
#
# Mechanical properties :
#
#
# Convention : Reuss Voigt Hill
#
# Bulk Modulus (GPa) = 13.67737 60.82918 37.25327
# Shear Modulus (GPa) = 11.80617 23.75571 17.78094
#
# Velocity S-wave (km/s) = 2.52161 3.57691 3.09458
# Velocity P-wave (km/s) = 3.98050 7.05834 5.72994
#
# Compressibility (1/GPa) = 0.07311349
#
# Stress axis : x y z
#
# Youngs Moduli (GPa) = 108.84429 9.73780 51.94204
#
# Poissons Ratio (x) = 0.08382 0.32091
# Poissons Ratio (y) = 0.93686 0.73881
# Poissons Ratio (z) = 0.67247 0.13851
#
# Static dielectric constant tensor:
#      x y z
#    x 1.620520 0.000000 0.000000 
#    y 0.000000 1.637920 0.000000 
#    z 0.000000 0.000000 1.653970 
# 
# From -- ./inp_files/50366.got.cif
#   From: 2010.05.17/outbox.cif.g08.bks.cpg/sg65_26_cif.got.tgz:50366.got - 2010.06.03 17:01:31.
