data_PCOD9484564
_publ_section_title
;
Structure prediction by ZEFSAII (Michael W. Deem and Ramdas Pophale) SiO2 
 PCOD9484564
Probable space group: C M M M
;
_chemical_formula_sum "Si O2"
_cell_formula_units_Z 120
_cell_length_a 14.352324
_cell_length_b 21.687993
_cell_length_c 20.150550
_cell_angle_alpha 90.000000
_cell_angle_beta 90.000000
_cell_angle_gamma 90.000000
_cell_volume 6272.324214
_symmetry_space_group_name_H-M "C M M M"
_symmetry_group_IT_number 65
_symmetry_cell_setting 'orthorhombic'
loop_
_space_group_symop_operation_xyz
x,y,z
-x,-y,z
x,-y,-z
-x,y,-z
-x,-y,-z
x,y,-z
-x,y,z
x,-y,z
1/2+x,1/2+y,z
1/2-x,1/2-y,z
1/2+x,1/2-y,-z
1/2-x,1/2+y,-z
1/2-x,1/2-y,-z
1/2+x,1/2+y,-z
1/2-x,1/2+y,z
1/2+x,1/2-y,z
loop_
_atom_site_type_symbol
_atom_site_label
_atom_site_fract_x
_atom_site_fract_y
_atom_site_fract_z
Si Si1 0.840984 0.795132 0.301087
Si Si2 0.102859 0.788708 0.843909
Si Si3 0.253930 0.569564 0.303475
Si Si4 0.390950 0.907709 0.423232
Si Si5 0.138340 0.738690 0.429642
Si Si6 0.110755 0.000000 0.920248
Si Si7 0.759887 0.901394 0.850101
Si Si8 0.109121 0.662827 0.075633
O O1 0.750000 0.750000 0.294719
O O2 0.897866 0.782225 0.235141
O O3 0.812791 0.866868 0.311802
O O4 0.894842 0.773680 0.365705
O O5 0.187514 0.835746 0.851659
O O6 0.120299 0.724740 0.880998
O O7 0.000000 0.811592 0.866119
O O8 0.295955 0.500000 0.309815
O O9 0.173425 0.571910 0.360794
O O10 0.231887 0.577123 0.224294
O O11 0.364638 0.926750 0.500000
O O12 0.500000 0.924278 0.413807
O O13 0.382163 0.833493 0.423634
O O14 0.102585 0.761194 0.500000
O O15 0.250000 0.750000 0.430618
O O16 0.164194 0.055981 0.885310
O O17 0.000000 0.000000 0.906857
O O18 0.123097 0.000000 0.000000
O O19 0.668333 0.892042 0.893348
O O20 0.000000 0.648061 0.076294
O O21 0.138409 0.674990 0.000000
#
# Coordination Sequence:
#
# PCOD9484564 Si02
#       8
#    16  16  16  16  16   8  16  16
#     4  10  18  34  55  82 110 151 199 252 300 358
#     4  10  21  35  57  88 120 154 194 246 310 371
#     4  11  22  37  57  82 117 164 206 246 300 373
#     4  10  21  36  56  86 124 160 201 259 317 369
#     4   9  16  30  54  80 107 149 197 246 301 362
#     4  11  24  42  67  95 120 155 207 259 303 358
#     4  11  22  41  61  86 123 164 203 250 310 366
#     4  10  22  39  61  91 123 156 198 249 307 374
#
# _framework density 19.131663
#
# number of rings (size 3 to 8) (size 9 to 14) (size 15 to 20)
#    0.000    1.800    3.333    2.800    0.000    3.200 
#    0.000    2.333    0.000    1.200    0.000    0.000 
#    0.000    2.133    0.000    1.733    0.000    0.000 
#
# Total GULP energy -334059.809921 kJ/mol
# GULP energy per Si atom -5567.663499 kJ/mol
# Density = 1.908812 g / cm^3
# Si number density = 19.131663 Si / 1000 Ang^3
#
#
#
# Elastic Constant Matrix: (Units=GPa)
#
#
# Indices 1 2 3 4 5 6 
#
# 1 79.6819 30.6323 52.7458 0.0000 0.0000 0.0000
# 2 30.6323 94.4634 45.5400 0.0000 0.0000 0.0000
# 3 52.7458 45.5400 153.3584 0.0000 0.0000 0.0000
# 4 0.0000 0.0000 0.0000 35.1546 0.0000 0.0000
# 5 0.0000 0.0000 0.0000 0.0000 32.9610 0.0000
# 6 0.0000 0.0000 0.0000 0.0000 0.0000 16.5196
#
#
#
# Elastic Compliance Matrix: (Units=1/GPa)
#
#
# Indices 1 2 3 4 5 6 
#
# 1 0.017015 -0.003147 -0.004918 0.000000 0.000000 0.000000
# 2 -0.003147 0.012937 -0.002759 0.000000 0.000000 0.000000
# 3 -0.004918 -0.002759 0.009031 0.000000 0.000000 0.000000
# 4 0.000000 0.000000 0.000000 0.028446 0.000000 0.000000
# 5 0.000000 0.000000 0.000000 0.000000 0.030339 0.000000
# 6 0.000000 0.000000 0.000000 0.000000 0.000000 0.060534
#
#
# Mechanical properties :
#
#
# Convention : Reuss Voigt Hill
#
# Bulk Modulus (GPa) = 57.68461 65.03776 61.36119
# Shear Modulus (GPa) = 26.92112 30.16608 28.54360
#
# Velocity S-wave (km/s) = 3.75527 3.97515 3.86678
# Velocity P-wave (km/s) = 7.00140 7.42548 7.21656
#
# Compressibility (1/GPa) = 0.01733565
#
# Stress axis : x y z
#
# Youngs Moduli (GPa) = 58.77218 77.29906 110.72479
#
# Poissons Ratio (x) = 0.24324 0.54450
# Poissons Ratio (y) = 0.18494 0.30552
# Poissons Ratio (z) = 0.28902 0.21329
#
# Static dielectric constant tensor:
#      x y z
#    x 1.798310 0.000000 0.000000 
#    y 0.000000 1.707030 0.000000 
#    z 0.000000 0.000000 1.710940 
# 
# From -- ./inp_files/63060.got.cif
#   From: 2010.05.17/outbox.cif.g08.bks.cpg/sg65_32_cif.got.tgz:63060.got - 2010.06.03 17:01:31.
