data_PCOD9484337
_publ_section_title
;
Structure prediction by ZEFSAII (Michael W. Deem and Ramdas Pophale) SiO2 
 PCOD9484337
Probable space group: C M M M
;
_chemical_formula_sum "Si O2"
_cell_formula_units_Z 72
_cell_length_a 8.936226
_cell_length_b 14.788674
_cell_length_c 24.372051
_cell_angle_alpha 90.000000
_cell_angle_beta 90.000000
_cell_angle_gamma 90.000000
_cell_volume 3220.886770
_symmetry_space_group_name_H-M "C M M M"
_symmetry_group_IT_number 65
_symmetry_cell_setting 'orthorhombic'
loop_
_space_group_symop_operation_xyz
x,y,z
-x,-y,z
x,-y,-z
-x,y,-z
-x,-y,-z
x,y,-z
-x,y,z
x,-y,z
1/2+x,1/2+y,z
1/2-x,1/2-y,z
1/2+x,1/2-y,-z
1/2-x,1/2+y,-z
1/2-x,1/2-y,-z
1/2+x,1/2+y,-z
1/2-x,1/2+y,z
1/2+x,1/2-y,z
loop_
_atom_site_type_symbol
_atom_site_label
_atom_site_fract_x
_atom_site_fract_y
_atom_site_fract_z
Si Si1 0.334897 0.393593 0.220035
Si Si2 0.178126 0.349318 0.890448
Si Si3 0.670515 0.889021 0.671833
Si Si4 0.319757 0.647868 0.000000
Si Si5 0.674057 0.610222 0.439625
O O1 0.500000 0.354862 0.207010
O O2 0.352313 0.500000 0.229505
O O3 0.224942 0.386786 0.168474
O O4 0.268116 0.357067 0.276608
O O5 0.250000 0.250000 0.888597
O O6 0.256507 0.393742 0.943658
O O7 0.000000 0.348054 0.897845
O O8 0.500000 0.860399 0.678929
O O9 0.734180 0.859618 0.613136
O O10 0.672411 0.000000 0.671847
O O11 0.250000 0.750000 0.000000
O O12 0.500000 0.650662 0.000000
O O13 0.729809 0.638479 0.500000
O O14 0.500000 0.636305 0.434342
O O15 0.677165 0.500000 0.439262
#
# Coordination Sequence:
#
# PCOD9484337 Si02
#       5
#    16  16  16   8  16
#     4  10  20  34  51  71  98 132 167 202 244 293
#     4  11  21  35  55  78 103 129 162 201 242 287
#     4   9  16  25  38  58  85 118 155 194 238 287
#     4  10  18  32  53  76 101 128 161 197 239 287
#     4   8  13  21  33  50  75 110 151 192 234 281
#
# _framework density 22.354092999999999
#
# number of rings (size 3 to 8) (size 9 to 14) (size 15 to 20)
#    0.000    2.444    0.000    6.333    0.000    4.444 
#    0.000    2.778    0.000    3.333    0.000    0.000 
#    0.000    0.889    0.000    3.333    0.000    7.778 
#
# Total GULP energy -200980.890067 kJ/mol
# GULP energy per Si atom -5582.802502 kJ/mol
# Density = 2.230321 g / cm^3
# Si number density = 22.354093 Si / 1000 Ang^3
#
#
#
# Elastic Constant Matrix: (Units=GPa)
#
#
# Indices 1 2 3 4 5 6 
#
# 1 184.1471 9.2275 89.0178 0.0000 0.0000 0.0000
# 2 9.2275 47.6709 6.1177 0.0000 0.0000 0.0000
# 3 89.0178 6.1177 190.0302 0.0000 0.0000 0.0000
# 4 0.0000 0.0000 0.0000 -0.5498 0.0000 0.0000
# 5 0.0000 0.0000 0.0000 0.0000-1123.5488 0.0000
# 6 0.0000 0.0000 0.0000 0.0000 0.0000 8.7234
#
#
#
# Elastic Compliance Matrix: (Units=1/GPa)
#
#
# Indices 1 2 3 4 5 6 
#
# 1 0.007062 -0.000946 -0.003278 0.000000 0.000000 0.000000
# 2 -0.000946 0.021191 -0.000239 0.000000 0.000000 0.000000
# 3 -0.003278 -0.000239 0.006805 0.000000 0.000000 0.000000
# 4 0.000000 0.000000 0.000000 -1.818748 0.000000 0.000000
# 5 0.000000 0.000000 0.000000 0.000000 -0.000890 0.000000
# 6 0.000000 0.000000 0.000000 0.000000 0.000000 0.114634
#
#
# Mechanical properties :
#
#
# Convention : Reuss Voigt Hill
#
# Bulk Modulus (GPa) = 38.26630 70.06380 54.16505
# Shear Modulus (GPa) = -3.02607 -201.90935 -102.46771
#
# Velocity S-wave (km/s) = -1.16475 -9.51416 -6.77776
# Velocity P-wave (km/s) = 3.91747 9.44890 6.08009
#
# Compressibility (1/GPa) = 0.02613265
#
# Stress axis : x y z
#
# Youngs Moduli (GPa) = 141.59513 47.18985 146.94034
#
# Poissons Ratio (x) = 0.04466 0.48165
# Poissons Ratio (y) = 0.13400 0.03510
# Poissons Ratio (z) = 0.46413 0.01127
#
# Static dielectric constant tensor:
#      x y z
#    x 1.788230 0.000000 0.000000 
#    y 0.000000 1.960870 0.000000 
#    z 0.000000 0.000000 1.854130 
# 
# From -- ./inp_files/59304.got.cif
#   From: 2010.05.17/outbox.cif.g08.bks.cpg/sg65_30_cif.got.tgz:59304.got - 2010.06.03 17:01:31.
