data_PCOD9484890
_publ_section_title
;
Structure prediction by ZEFSAII (Michael W. Deem and Ramdas Pophale) SiO2 
 PCOD9484890
Probable space group: C M M M
;
_chemical_formula_sum "Si O2"
_cell_formula_units_Z 88
_cell_length_a 26.637194
_cell_length_b 18.336550
_cell_length_c 7.945526
_cell_angle_alpha 90.000000
_cell_angle_beta 90.000000
_cell_angle_gamma 90.000000
_cell_volume 3880.866950
_symmetry_space_group_name_H-M "C M M M"
_symmetry_group_IT_number 65
_symmetry_cell_setting 'orthorhombic'
loop_
_space_group_symop_operation_xyz
x,y,z
-x,-y,z
x,-y,-z
-x,y,-z
-x,-y,-z
x,y,-z
-x,y,z
x,-y,z
1/2+x,1/2+y,z
1/2-x,1/2-y,z
1/2+x,1/2-y,-z
1/2-x,1/2+y,-z
1/2-x,1/2-y,-z
1/2+x,1/2+y,-z
1/2-x,1/2+y,z
1/2+x,1/2-y,z
loop_
_atom_site_type_symbol
_atom_site_label
_atom_site_fract_x
_atom_site_fract_y
_atom_site_fract_z
Si Si1 0.808282 0.728324 0.694489
Si Si2 0.943567 0.845086 0.795045
Si Si3 0.061851 0.584461 0.000000
Si Si4 0.227977 0.579027 0.700356
Si Si5 0.338762 0.379875 0.808304
Si Si6 0.440734 0.176998 0.684196
O O1 0.826001 0.732133 0.500000
O O2 0.750000 0.750000 0.687230
O O3 0.804373 0.646922 0.766113
O O4 0.833938 0.791658 0.799854
O O5 0.895132 0.892430 0.740517
O O6 0.937760 0.763129 0.723114
O O7 0.000000 0.870541 0.749968
O O8 0.941577 0.840540 0.000000
O O9 0.079332 0.628343 0.835473
O O10 0.076321 0.500000 0.000000
O O11 0.000000 0.586696 0.000000
O O12 0.219332 0.579749 0.500000
O O13 0.214901 0.500000 0.770396
O O14 0.288121 0.591291 0.722545
O O15 0.336536 0.405347 0.000000
O O16 0.419925 0.159361 0.500000
O O17 0.500000 0.161426 0.677893
#
# Coordination Sequence:
#
# PCOD9484890 Si02
#       6
#    16  16   8  16  16  16
#     4   8  15  29  48  70  98 131 164 199 245 303
#     4   9  17  31  48  66  95 132 168 212 264 307
#     4   9  16  26  40  58  84 114 142 189 253 305
#     4   9  18  33  52  73 101 137 169 198 244 308
#     4  10  19  29  48  78 104 129 167 212 257 303
#     4   9  16  26  42  63  85 115 159 205 251 303
#
# _framework density 22.675346000000001
#
# number of rings (size 3 to 8) (size 9 to 14) (size 15 to 20)
#    0.000    3.000    0.909    1.636    0.000    5.455 
#    0.000    1.818    0.000    1.636    0.000    6.364 
#    0.000    0.000    0.000    0.000    0.000    0.000 
#
# Total GULP energy -245302.751838 kJ/mol
# GULP energy per Si atom -5575.062542 kJ/mol
# Density = 2.262374 g / cm^3
# Si number density = 22.675346 Si / 1000 Ang^3
#
#
#
# Elastic Constant Matrix: (Units=GPa)
#
#
# Indices 1 2 3 4 5 6 
#
# 1 74.4323 -4.9394 6.7331 0.0000 0.0000 0.0000
# 2 -4.9394 59.0133 -5.1743 0.0000 0.0000 0.0000
# 3 6.7331 -5.1743 63.2286 0.0000 0.0000 0.0000
# 4 0.0000 0.0000 0.0000 7.2031 0.0000 0.0000
# 5 0.0000 0.0000 0.0000 0.0000 613.6231 0.0000
# 6 0.0000 0.0000 0.0000 0.0000 0.0000 2.8453
#
#
#
# Elastic Compliance Matrix: (Units=1/GPa)
#
#
# Indices 1 2 3 4 5 6 
#
# 1 0.013626 0.001021 -0.001368 0.000000 0.000000 0.000000
# 2 0.001021 0.017144 0.001294 0.000000 0.000000 0.000000
# 3 -0.001368 0.001294 0.016067 0.000000 0.000000 0.000000
# 4 0.000000 0.000000 0.000000 0.138829 0.000000 0.000000
# 5 0.000000 0.000000 0.000000 0.000000 0.001630 0.000000
# 6 0.000000 0.000000 0.000000 0.000000 0.000000 0.351458
#
#
# Mechanical properties :
#
#
# Convention : Reuss Voigt Hill
#
# Bulk Modulus (GPa) = 20.52011 21.10144 20.81078
# Shear Modulus (GPa) = 9.03990 138.07130 73.55560
#
# Velocity S-wave (km/s) = 1.99883 7.81170 5.70167
# Velocity P-wave (km/s) = 3.79424 9.52311 7.24865
#
# Compressibility (1/GPa) = 0.04873268
#
# Stress axis : x y z
#
# Youngs Moduli (GPa) = 73.38655 58.32860 62.23874
#
# Poissons Ratio (x) = -0.05953 0.08511
# Poissons Ratio (y) = -0.07490 -0.08056
# Poissons Ratio (z) = 0.10036 -0.07549
#
# Static dielectric constant tensor:
#      x y z
#    x 1.879470 0.000000 0.000000 
#    y 0.000000 1.855130 0.000000 
#    z 0.000000 0.000000 1.802560 
# 
# From -- ./inp_files/18488.got.cif
#   From: 2010.05.17/outbox.cif.g08.bks.cpg/sg65_10_cif.got.tgz:18488.got - 2010.06.03 17:01:31.
