data_PCOD9484590
_publ_section_title
;
Structure prediction by ZEFSAII (Michael W. Deem and Ramdas Pophale) SiO2 
 PCOD9484590
Probable space group: C M M M
;
_chemical_formula_sum "Si O2"
_cell_formula_units_Z 104
_cell_length_a 8.275099
_cell_length_b 24.415393
_cell_length_c 28.995583
_cell_angle_alpha 90.000000
_cell_angle_beta 90.000000
_cell_angle_gamma 90.000000
_cell_volume 5858.261622
_symmetry_space_group_name_H-M "C M M M"
_symmetry_group_IT_number 65
_symmetry_cell_setting 'orthorhombic'
loop_
_space_group_symop_operation_xyz
x,y,z
-x,-y,z
x,-y,-z
-x,y,-z
-x,-y,-z
x,y,-z
-x,y,z
x,-y,z
1/2+x,1/2+y,z
1/2-x,1/2-y,z
1/2+x,1/2-y,-z
1/2-x,1/2+y,-z
1/2-x,1/2-y,-z
1/2+x,1/2+y,-z
1/2-x,1/2+y,z
1/2+x,1/2-y,z
loop_
_atom_site_type_symbol
_atom_site_label
_atom_site_fract_x
_atom_site_fract_y
_atom_site_fract_z
Si Si1 0.191999 0.895839 0.743246
Si Si2 0.185100 0.500000 0.202271
Si Si3 0.687790 0.500000 0.897729
Si Si4 0.194294 0.187731 0.819152
Si Si5 0.693000 0.565625 0.449919
Si Si6 0.691653 0.063830 0.350659
Si Si7 0.801716 0.878787 0.090172
Si Si8 0.194871 0.187638 0.000000
O O1 0.279556 0.946976 0.767190
O O2 0.242887 0.841858 0.771459
O O3 0.230810 0.899845 0.689350
O O4 0.000000 0.902788 0.749744
O O5 0.298532 0.500000 0.157675
O O6 0.000000 0.500000 0.186522
O O7 0.500000 0.500000 0.911904
O O8 0.756731 0.441510 0.913172
O O9 0.250000 0.250000 0.822963
O O10 0.250470 0.150616 0.862425
O O11 0.000000 0.187922 0.820831
O O12 0.749957 0.587045 0.500000
O O13 0.500000 0.573746 0.447450
O O14 0.721407 0.500000 0.450766
O O15 0.770119 0.584551 0.402174
O O16 0.500000 0.062886 0.343917
O O17 0.750250 0.000000 0.346661
O O18 0.750968 0.843610 0.046105
O O19 0.000000 0.880301 0.091200
O O20 0.250000 0.250000 0.000000
O O21 0.000000 0.186605 0.000000
#
# Coordination Sequence:
#
# PCOD9484590 Si02
#       8
#    16   8   8  16  16  16  16   8
#     4  11  21  34  52  70  97 136 171 203 249 306
#     4  12  22  32  49  77 104 127 164 208 253 298
#     4  10  18  35  56  74 104 135 165 204 249 306
#     4  10  21  36  53  74  98 130 169 206 249 301
#     4   8  14  25  40  58  85 127 174 209 244 297
#     4  10  19  28  41  67  99 127 165 212 256 297
#     4   9  18  33  55  80 103 131 169 206 247 302
#     4  10  20  35  55  79 105 134 173 214 254 299
#
# _framework density 17.752707000000001
#
# number of rings (size 3 to 8) (size 9 to 14) (size 15 to 20)
#    0.000    2.154    2.308    2.538    0.000    2.462 
#    0.000    3.846    0.000    0.000    0.000    1.077 
#    0.000    0.615    0.000    2.000    0.000    2.462 
#
# Total GULP energy -289973.497126 kJ/mol
# GULP energy per Si atom -5576.413406 kJ/mol
# Density = 1.771230 g / cm^3
# Si number density = 17.752707 Si / 1000 Ang^3
#
#
#
# Elastic Constant Matrix: (Units=GPa)
#
#
# Indices 1 2 3 4 5 6 
#
# 1 13.8524 13.5279 13.9897 0.0000 0.0000 0.0000
# 2 13.5279 124.6461 63.5469 0.0000 0.0000 0.0000
# 3 13.9897 63.5469 131.8894 0.0000 0.0000 0.0000
# 4 0.0000 0.0000 0.0000 7.6202 0.0000 0.0000
# 5 0.0000 0.0000 0.0000 0.0000 8.8795 0.0000
# 6 0.0000 0.0000 0.0000 0.0000 0.0000 18.2580
#
#
#
# Elastic Compliance Matrix: (Units=1/GPa)
#
#
# Indices 1 2 3 4 5 6 
#
# 1 0.084185 -0.006077 -0.006002 0.000000 0.000000 0.000000
# 2 -0.006077 0.011074 -0.004691 0.000000 0.000000 0.000000
# 3 -0.006002 -0.004691 0.010479 0.000000 0.000000 0.000000
# 4 0.000000 0.000000 0.000000 0.131229 0.000000 0.000000
# 5 0.000000 0.000000 0.000000 0.000000 0.112620 0.000000
# 6 0.000000 0.000000 0.000000 0.000000 0.000000 0.054771
#
#
# Mechanical properties :
#
#
# Convention : Reuss Voigt Hill
#
# Bulk Modulus (GPa) = 13.85064 50.27965 32.06515
# Shear Modulus (GPa) = 10.82338 18.90643 14.86490
#
# Velocity S-wave (km/s) = 2.47184 3.26696 2.89681
# Velocity P-wave (km/s) = 3.99569 6.52797 5.41202
#
# Compressibility (1/GPa) = 0.07219881
#
# Stress axis : x y z
#
# Youngs Moduli (GPa) = 11.87857 90.30320 95.42963
#
# Poissons Ratio (x) = 0.54877 0.57273
# Poissons Ratio (y) = 0.07219 0.44766
# Poissons Ratio (z) = 0.07129 0.42361
#
# Static dielectric constant tensor:
#      x y z
#    x 1.631930 0.000000 0.000000 
#    y 0.000000 1.587300 0.000000 
#    z 0.000000 0.000000 1.625280 
# 
# From -- ./inp_files/73668.got.cif
#   From: 2010.05.17/outbox.cif.g08.bks.cpg/sg65_37_cif.got.tgz:73668.got - 2010.06.03 17:01:31.
