data_PCOD9484566
_publ_section_title
;
Structure prediction by ZEFSAII (Michael W. Deem and Ramdas Pophale) SiO2 
 PCOD9484566
Probable space group: C M M M
;
_chemical_formula_sum "Si O2"
_cell_formula_units_Z 90
_cell_length_a 22.840578
_cell_length_b 20.887413
_cell_length_c 9.881270
_cell_angle_alpha 90.000000
_cell_angle_beta 90.000000
_cell_angle_gamma 90.000000
_cell_volume 4714.162080
_symmetry_space_group_name_H-M "C M M M"
_symmetry_group_IT_number 65
_symmetry_cell_setting 'orthorhombic'
loop_
_space_group_symop_operation_xyz
x,y,z
-x,-y,z
x,-y,-z
-x,y,-z
-x,-y,-z
x,y,-z
-x,y,z
x,-y,z
1/2+x,1/2+y,z
1/2-x,1/2-y,z
1/2+x,1/2-y,-z
1/2-x,1/2+y,-z
1/2-x,1/2-y,-z
1/2+x,1/2+y,-z
1/2-x,1/2+y,z
1/2+x,1/2-y,z
loop_
_atom_site_type_symbol
_atom_site_label
_atom_site_fract_x
_atom_site_fract_y
_atom_site_fract_z
Si Si1 0.000000 0.000000 0.000000
Si Si2 0.628774 0.865598 0.159648
Si Si3 0.768175 0.620753 0.659367
Si Si4 0.390599 0.500000 0.214007
Si Si5 0.068478 0.234801 0.848651
Si Si6 0.567795 0.000000 0.163724
Si Si7 0.868264 0.137636 0.345473
Si Si8 0.756235 0.000000 0.152832
O O1 0.947238 0.000000 0.117759
O O2 0.680079 0.843316 0.261851
O O3 0.580458 0.810036 0.167967
O O4 0.601878 0.934587 0.200759
O O5 0.647203 0.869066 0.000000
O O6 0.781599 0.608909 0.500000
O O7 0.702064 0.646779 0.663415
O O8 0.763447 0.559045 0.756115
O O9 0.386914 0.566071 0.299061
O O10 0.326628 0.500000 0.143155
O O11 0.101844 0.190400 0.745618
O O12 0.000000 0.221951 0.839337
O O13 0.088787 0.217335 0.000000
O O14 0.500000 0.000000 0.211435
O O15 0.565661 0.000000 0.000000
O O16 0.885744 0.145523 0.500000
O O17 0.731981 0.000000 0.000000
#
# Coordination Sequence:
#
# PCOD9484566 Si02
#       8
#     2  16  16   8  16   8  16   8
#     4  12  24  36  58  96 120 148 194 246 310 344
#     4  10  20  36  59  91 118 151 195 242 290 349
#     4  10  21  36  57  83 117 153 191 241 294 349
#     4  10  23  37  60  87 119 149 191 243 295 347
#     4  10  23  40  60  84 119 156 196 243 298 353
#     4   9  17  32  59  88 119 150 188 233 284 340
#     4  10  23  42  61  84 116 157 200 242 294 352
#     4  10  18  34  56  84 115 152 189 231 287 348
#
# _framework density 19.09141
#
# number of rings (size 3 to 8) (size 9 to 14) (size 15 to 20)
#    0.000    2.044    0.444    2.133    2.489    8.178 
#    0.000    4.000    0.000    2.133    0.000    0.000 
#    0.000    0.000    0.000    0.000    0.000    0.000 
#
# Total GULP energy -250572.747362 kJ/mol
# GULP energy per Si atom -5568.283275 kJ/mol
# Density = 1.904796 g / cm^3
# Si number density = 19.091410 Si / 1000 Ang^3
#
#
#
# Elastic Constant Matrix: (Units=GPa)
#
#
# Indices 1 2 3 4 5 6 
#
# 1 85.3188 20.1554 53.4159 0.0000 0.0000 0.0000
# 2 20.1554 82.6877 51.0773 0.0000 0.0000 0.0000
# 3 53.4159 51.0773 138.3669 0.0000 0.0000 0.0000
# 4 0.0000 0.0000 0.0000 -26.6837 0.0000 0.0000
# 5 0.0000 0.0000 0.0000 0.0000 19.0064 0.0000
# 6 0.0000 0.0000 0.0000 0.0000 0.0000 14.8021
#
#
#
# Elastic Compliance Matrix: (Units=1/GPa)
#
#
# Indices 1 2 3 4 5 6 
#
# 1 0.015457 -0.000106 -0.005928 0.000000 0.000000 0.000000
# 2 -0.000106 0.015667 -0.005742 0.000000 0.000000 0.000000
# 3 -0.005928 -0.005742 0.011635 0.000000 0.000000 0.000000
# 4 0.000000 0.000000 0.000000 -0.037476 0.000000 0.000000
# 5 0.000000 0.000000 0.000000 0.000000 0.052614 0.000000
# 6 0.000000 0.000000 0.000000 0.000000 0.000000 0.067558
#
#
# Mechanical properties :
#
#
# Convention : Reuss Voigt Hill
#
# Bulk Modulus (GPa) = 52.06547 61.74117 56.90332
# Shear Modulus (GPa) = 32.17301 13.53996 22.85649
#
# Velocity S-wave (km/s) = 4.10958 2.66600 3.46383
# Velocity P-wave (km/s) = 7.06039 6.47200 6.77259
#
# Compressibility (1/GPa) = 0.01920659
#
# Stress axis : x y z
#
# Youngs Moduli (GPa) = 64.69482 63.82987 85.94431
#
# Poissons Ratio (x) = 0.00676 0.50949
# Poissons Ratio (y) = 0.00685 0.49352
# Poissons Ratio (z) = 0.38352 0.36654
#
# Static dielectric constant tensor:
#      x y z
#    x 1.683140 0.000000 0.000000 
#    y 0.000000 1.702000 0.000000 
#    z 0.000000 0.000000 1.640100 
# 
# From -- ./inp_files/14121.got.cif
#   From: 2010.05.17/outbox.cif.g08.bks.cpg/sg65_8_cif.got.tgz:14121.got - 2010.06.03 17:01:31.
