data_PCOD9484531
_publ_section_title
;
Structure prediction by ZEFSAII (Michael W. Deem and Ramdas Pophale) SiO2 
 PCOD9484531
Probable space group: C M M M
;
_chemical_formula_sum "Si O2"
_cell_formula_units_Z 96
_cell_length_a 15.687623
_cell_length_b 23.612282
_cell_length_c 13.684557
_cell_angle_alpha 90.000000
_cell_angle_beta 90.000000
_cell_angle_gamma 90.000000
_cell_volume 5069.041516
_symmetry_space_group_name_H-M "C M M M"
_symmetry_group_IT_number 65
_symmetry_cell_setting 'orthorhombic'
loop_
_space_group_symop_operation_xyz
x,y,z
-x,-y,z
x,-y,-z
-x,y,-z
-x,-y,-z
x,y,-z
-x,y,z
x,-y,z
1/2+x,1/2+y,z
1/2-x,1/2-y,z
1/2+x,1/2-y,-z
1/2-x,1/2+y,-z
1/2-x,1/2-y,-z
1/2+x,1/2+y,-z
1/2-x,1/2+y,z
1/2+x,1/2-y,z
loop_
_atom_site_type_symbol
_atom_site_label
_atom_site_fract_x
_atom_site_fract_y
_atom_site_fract_z
Si Si1 0.762265 0.000000 0.386221
Si Si2 0.904857 0.711643 0.689621
Si Si3 0.598793 0.500000 0.784492
Si Si4 0.230167 0.615195 0.696606
Si Si5 0.182137 0.106334 0.113450
Si Si6 0.148690 0.763492 0.109617
Si Si7 0.595677 0.663199 0.385579
O O1 0.711790 0.943277 0.357644
O O2 0.785296 0.000000 0.500000
O O3 0.843737 0.000000 0.313387
O O4 0.833641 0.665122 0.669819
O O5 0.896151 0.731503 0.802351
O O6 0.892438 0.769523 0.629346
O O7 0.000000 0.690270 0.670656
O O8 0.500000 0.500000 0.760501
O O9 0.623937 0.444661 0.847533
O O10 0.236920 0.607256 0.813511
O O11 0.326312 0.632743 0.666448
O O12 0.139767 0.168665 0.120848
O O13 0.204214 0.098075 0.000000
O O14 0.250000 0.750000 0.117526
O O15 0.121380 0.747580 0.000000
O O16 0.598869 0.649458 0.500000
O O17 0.500000 0.648990 0.348829
#
# Coordination Sequence:
#
# PCOD9484531 Si02
#       7
#     8  16   8  16  16  16  16
#     4  10  24  42  62  84 105 141 195 240 291 354
#     4  11  22  36  56  84 116 151 194 237 288 348
#     4  10  23  39  56  86 123 153 190 233 278 342
#     4  11  21  39  60  82 113 152 189 240 291 337
#     4  10  20  34  56  81 114 160 198 228 274 331
#     4  10  18  33  57  84 117 157 196 237 287 338
#     4  10  21  36  57  85 114 145 184 230 286 352
#
# _framework density 18.938490999999999
#
# number of rings (size 3 to 8) (size 9 to 14) (size 15 to 20)
#    0.000    1.667    3.333    1.250    0.000    6.500 
#    0.000    2.083    0.000    0.500    0.000    0.000 
#    0.000    5.333    0.000    0.000    0.000    0.000 
#
# Total GULP energy -268053.404358 kJ/mol
# GULP energy per Si atom -5584.445924 kJ/mol
# Density = 1.889539 g / cm^3
# Si number density = 18.938491 Si / 1000 Ang^3
#
#
#
# Elastic Constant Matrix: (Units=GPa)
#
#
# Indices 1 2 3 4 5 6 
#
# 1 53.4547 41.6387 11.5535 0.0000 0.0000 0.0000
# 2 41.6387 107.6314 20.1386 0.0000 0.0000 0.0000
# 3 11.5535 20.1386 88.7814 0.0000 0.0000 0.0000
# 4 0.0000 0.0000 0.0000 10.7977 0.0000 0.0000
# 5 0.0000 0.0000 0.0000 0.0000 12.4757 0.0000
# 6 0.0000 0.0000 0.0000 0.0000 0.0000 1.8017
#
#
#
# Elastic Compliance Matrix: (Units=1/GPa)
#
#
# Indices 1 2 3 4 5 6 
#
# 1 0.026896 -0.010183 -0.001190 0.000000 0.000000 0.000000
# 2 -0.010183 0.013558 -0.001750 0.000000 0.000000 0.000000
# 3 -0.001190 -0.001750 0.011816 0.000000 0.000000 0.000000
# 4 0.000000 0.000000 0.000000 0.092612 0.000000 0.000000
# 5 0.000000 0.000000 0.000000 0.000000 0.080156 0.000000
# 6 0.000000 0.000000 0.000000 0.000000 0.000000 0.555035
#
#
# Mechanical properties :
#
#
# Convention : Reuss Voigt Hill
#
# Bulk Modulus (GPa) = 38.42705 44.05878 41.24292
# Shear Modulus (GPa) = 6.13501 16.78413 11.45957
#
# Velocity S-wave (km/s) = 1.80180 2.98021 2.46253
# Velocity P-wave (km/s) = 4.96620 5.92932 5.46900
#
# Compressibility (1/GPa) = 0.02602333
#
# Stress axis : x y z
#
# Youngs Moduli (GPa) = 37.17964 73.75880 84.63421
#
# Poissons Ratio (x) = 0.75105 0.10075
# Poissons Ratio (y) = 0.37858 0.14813
# Poissons Ratio (z) = 0.04426 0.12910
#
# Static dielectric constant tensor:
#      x y z
#    x 1.642490 0.000000 0.000000 
#    y 0.000000 1.669700 0.000000 
#    z 0.000000 0.000000 1.690620 
# 
# From -- ./inp_files/40706.got.cif
#   From: 2010.05.17/outbox.cif.g08.bks.cpg/sg65_21_cif.got.tgz:40706.got - 2010.06.03 17:01:31.
