data_PCOD9484258
_publ_section_title
;
Structure prediction by ZEFSAII (Michael W. Deem and Ramdas Pophale) SiO2 
 PCOD9484258
Probable space group: C M M M
;
_chemical_formula_sum "Si O2"
_cell_formula_units_Z 84
_cell_length_a 19.543593
_cell_length_b 14.035701
_cell_length_c 16.152633
_cell_angle_alpha 90.000000
_cell_angle_beta 90.000000
_cell_angle_gamma 90.000000
_cell_volume 4430.796902
_symmetry_space_group_name_H-M "C M M M"
_symmetry_group_IT_number 65
_symmetry_cell_setting 'orthorhombic'
loop_
_space_group_symop_operation_xyz
x,y,z
-x,-y,z
x,-y,-z
-x,y,-z
-x,-y,-z
x,y,-z
-x,y,z
x,-y,z
1/2+x,1/2+y,z
1/2-x,1/2-y,z
1/2+x,1/2-y,-z
1/2-x,1/2+y,-z
1/2-x,1/2-y,-z
1/2+x,1/2+y,-z
1/2-x,1/2+y,z
1/2+x,1/2-y,z
loop_
_atom_site_type_symbol
_atom_site_label
_atom_site_fract_x
_atom_site_fract_y
_atom_site_fract_z
Si Si1 0.500000 0.355224 0.000000
Si Si2 0.643437 0.886787 0.908801
Si Si3 0.216129 0.113880 0.173917
Si Si4 0.000000 0.297773 0.141066
Si Si5 0.250000 0.250000 0.310186
Si Si6 0.500000 0.888637 0.687333
Si Si7 0.353956 0.890840 0.599113
Si Si8 0.155740 0.893857 0.000000
O O1 0.500000 0.297465 0.913201
O O2 0.574268 0.401920 0.000000
O O3 0.703459 0.869684 0.844261
O O4 0.569773 0.847836 0.887084
O O5 0.637377 0.000000 0.913130
O O6 0.664216 0.851035 0.000000
O O7 0.203840 0.179586 0.252784
O O8 0.178562 0.146435 0.089049
O O9 0.203604 0.000000 0.185901
O O10 0.000000 0.311031 0.239495
O O11 0.300403 0.183312 0.362941
O O12 0.430491 0.877769 0.635122
O O13 0.500000 0.000000 0.719679
O O14 0.355888 0.882773 0.500000
O O15 0.333410 0.000000 0.620848
O O16 0.188827 0.000000 0.000000
#
# Coordination Sequence:
#
# PCOD9484258 Si02
#       8
#     4  16  16   8   8   8  16   8
#     4  12  27  34  53  76 110 146 204 248 289 322
#     4  10  18  32  49  71 109 158 192 221 270 333
#     4  10  22  38  58  82 114 156 201 238 279 337
#     4  12  22  31  46  83 121 141 182 233 282 335
#     4  12  23  33  60  94 128 146 184 243 303 352
#     4  10  21  38  60  85 116 155 194 237 288 353
#     4  10  22  42  65  89 119 154 191 235 298 370
#     4  10  23  44  57  69 103 160 209 245 281 322
#
# _framework density 18.958214999999999
#
# number of rings (size 3 to 8) (size 9 to 14) (size 15 to 20)
#    0.000    1.524    1.905    3.286    5.333    5.333 
#    0.000    0.000    0.000    0.000    0.000    2.000 
#    0.000    7.619    0.000    0.000    0.000    0.000 
#
# Total GULP energy -234457.196391 kJ/mol
# GULP energy per Si atom -5582.314200 kJ/mol
# Density = 1.891507 g / cm^3
# Si number density = 18.958215 Si / 1000 Ang^3
#
#
#
# Elastic Constant Matrix: (Units=GPa)
#
#
# Indices 1 2 3 4 5 6 
#
# 1 84.5498 48.9892 24.7648 0.0000 0.0000 0.0000
# 2 48.9892 101.5251 67.5542 0.0000 0.0000 0.0000
# 3 24.7648 67.5542 101.7395 0.0000 0.0000 0.0000
# 4 0.0000 0.0000 0.0000 20.0022 0.0000 0.0000
# 5 0.0000 0.0000 0.0000 0.0000 67.3358 0.0000
# 6 0.0000 0.0000 0.0000 0.0000 0.0000 19.3539
#
#
#
# Elastic Compliance Matrix: (Units=1/GPa)
#
#
# Indices 1 2 3 4 5 6 
#
# 1 0.016714 -0.009599 0.002305 0.000000 0.000000 0.000000
# 2 -0.009599 0.023159 -0.013041 0.000000 0.000000 0.000000
# 3 0.002305 -0.013041 0.017927 0.000000 0.000000 0.000000
# 4 0.000000 0.000000 0.000000 0.049994 0.000000 0.000000
# 5 0.000000 0.000000 0.000000 0.000000 0.014851 0.000000
# 6 0.000000 0.000000 0.000000 0.000000 0.000000 0.051669
#
#
# Mechanical properties :
#
#
# Convention : Reuss Voigt Hill
#
# Bulk Modulus (GPa) = 58.37486 63.38121 60.87803
# Shear Modulus (GPa) = 22.65589 31.10546 26.88068
#
# Velocity S-wave (km/s) = 3.46069 4.05500 3.76957
# Velocity P-wave (km/s) = 6.84300 7.44504 7.15036
#
# Compressibility (1/GPa) = 0.01713066
#
# Stress axis : x y z
#
# Youngs Moduli (GPa) = 59.83059 43.18010 55.78209
#
# Poissons Ratio (x) = 0.41448 -0.12859
# Poissons Ratio (y) = 0.57430 0.72744
# Poissons Ratio (z) = -0.13792 0.56310
#
# Static dielectric constant tensor:
#      x y z
#    x 1.652630 0.000000 0.000000 
#    y 0.000000 1.703820 0.000000 
#    z 0.000000 0.000000 0.525290 
# 
# From -- ./inp_files/44081.got.cif
#   From: 2010.05.17/outbox.cif.g08.bks.cpg/sg65_23_cif.got.tgz:44081.got - 2010.06.03 17:01:31.
