data_PCOD9484917
_publ_section_title
;
Structure prediction by ZEFSAII (Michael W. Deem and Ramdas Pophale) SiO2 
 PCOD9484917
Probable space group: C M M M
;
_chemical_formula_sum "Si O2"
_cell_formula_units_Z 104
_cell_length_a 14.860127
_cell_length_b 21.456385
_cell_length_c 18.860297
_cell_angle_alpha 90.000000
_cell_angle_beta 90.000000
_cell_angle_gamma 90.000000
_cell_volume 6013.503967
_symmetry_space_group_name_H-M "C M M M"
_symmetry_group_IT_number 65
_symmetry_cell_setting 'orthorhombic'
loop_
_space_group_symop_operation_xyz
x,y,z
-x,-y,z
x,-y,-z
-x,y,-z
-x,-y,-z
x,y,-z
-x,y,z
x,-y,z
1/2+x,1/2+y,z
1/2-x,1/2-y,z
1/2+x,1/2-y,-z
1/2-x,1/2+y,-z
1/2-x,1/2-y,-z
1/2+x,1/2+y,-z
1/2-x,1/2+y,z
1/2+x,1/2-y,z
loop_
_atom_site_type_symbol
_atom_site_label
_atom_site_fract_x
_atom_site_fract_y
_atom_site_fract_z
Si Si1 0.894873 0.396634 0.922980
Si Si2 0.890882 0.073132 0.000000
Si Si3 0.603916 0.371786 0.850764
Si Si4 0.213374 0.076125 0.717646
Si Si5 0.642022 0.750840 0.079323
Si Si6 0.898524 0.427662 0.231809
Si Si7 0.896064 0.924338 0.420631
O O1 0.888267 0.322037 0.913992
O O2 0.862953 0.424817 0.849423
O O3 0.000000 0.414363 0.926547
O O4 0.853902 0.412886 0.000000
O O5 0.858244 0.102049 0.925791
O O6 0.000000 0.081906 0.000000
O O7 0.872411 0.000000 0.000000
O O8 0.500000 0.392020 0.843089
O O9 0.659769 0.395724 0.784261
O O10 0.607218 0.297397 0.862822
O O11 0.317054 0.098146 0.721774
O O12 0.166133 0.095086 0.644396
O O13 0.210899 0.000000 0.722955
O O14 0.750000 0.750000 0.081573
O O15 0.612945 0.730138 0.000000
O O16 0.907251 0.500000 0.250685
O O17 0.000000 0.400158 0.235368
O O18 0.868816 0.904108 0.500000
O O19 0.000000 0.905674 0.408857
O O20 0.895056 0.000000 0.420980
#
# Coordination Sequence:
#
# PCOD9484917 Si02
#       7
#    16   8  16  16  16  16  16
#     4   9  17  29  45  60  77 107 151 198 239 275
#     4   9  18  30  41  56  85 125 159 184 218 268
#     4  11  20  30  45  64  90 121 155 191 229 274
#     4  10  19  30  45  67  93 122 154 188 229 276
#     4  10  19  30  43  59  81 114 153 196 234 271
#     4   9  18  32  47  64  88 118 152 193 241 283
#     4   8  14  26  45  68  93 120 148 178 217 270
#
# _framework density 17.294409999999999
#
# number of rings (size 3 to 8) (size 9 to 14) (size 15 to 20)
#    0.000    2.538    0.769    2.769    0.000    2.462 
#    1.385    1.538    0.000    0.462    0.000    3.231 
#    0.000    5.538    0.000    7.692    0.000    3.231 
#
# Total GULP energy -289753.978928 kJ/mol
# GULP energy per Si atom -5572.191902 kJ/mol
# Density = 1.725505 g / cm^3
# Si number density = 17.294410 Si / 1000 Ang^3
#
#
#
# Elastic Constant Matrix: (Units=GPa)
#
#
# Indices 1 2 3 4 5 6 
#
# 1 94.5614 3.5764 67.4739 0.0000 0.0000 0.0000
# 2 3.5764 21.5724 11.6800 0.0000 0.0000 0.0000
# 3 67.4739 11.6800 121.8975 0.0000 0.0000 0.0000
# 4 0.0000 0.0000 0.0000 11.1870 0.0000 0.0000
# 5 0.0000 0.0000 0.0000 0.0000 24.3671 0.0000
# 6 0.0000 0.0000 0.0000 0.0000 0.0000 10.5731
#
#
#
# Elastic Compliance Matrix: (Units=1/GPa)
#
#
# Indices 1 2 3 4 5 6 
#
# 1 0.017604 0.002486 -0.009983 0.000000 0.000000 0.000000
# 2 0.002486 0.049243 -0.006095 0.000000 0.000000 0.000000
# 3 -0.009983 -0.006095 0.014313 0.000000 0.000000 0.000000
# 4 0.000000 0.000000 0.000000 0.089389 0.000000 0.000000
# 5 0.000000 0.000000 0.000000 0.000000 0.041039 0.000000
# 6 0.000000 0.000000 0.000000 0.000000 0.000000 0.094580
#
#
# Mechanical properties :
#
#
# Convention : Reuss Voigt Hill
#
# Bulk Modulus (GPa) = 18.52581 44.83245 31.67913
# Shear Modulus (GPa) = 14.23108 19.57884 16.90496
#
# Velocity S-wave (km/s) = 2.87169 3.36831 3.12986
# Velocity P-wave (km/s) = 4.66162 6.41145 5.60524
#
# Compressibility (1/GPa) = 0.05397875
#
# Stress axis : x y z
#
# Youngs Moduli (GPa) = 56.80451 20.30738 69.86494
#
# Poissons Ratio (x) = -0.05049 0.69744
# Poissons Ratio (y) = -0.14124 0.42581
# Poissons Ratio (z) = 0.56706 0.12377
#
# Static dielectric constant tensor:
#      x y z
#    x 1.649490 0.000000 0.000000 
#    y 0.000000 1.596380 0.000000 
#    z 0.000000 0.000000 1.585560 
# 
# From -- ./inp_files/53491.got.cif
#   From: 2010.05.17/outbox.cif.g08.bks.cpg/sg65_27_cif.got.tgz:53491.got - 2010.06.03 17:01:31.
