data_PCOD9484367
_publ_section_title
;
Structure prediction by ZEFSAII (Michael W. Deem and Ramdas Pophale) SiO2 
 PCOD9484367
Probable space group: C M M M
;
_chemical_formula_sum "Si O2"
_cell_formula_units_Z 88
_cell_length_a 16.977979
_cell_length_b 23.968617
_cell_length_c 11.689310
_cell_angle_alpha 90.000000
_cell_angle_beta 90.000000
_cell_angle_gamma 90.000000
_cell_volume 4756.832336
_symmetry_space_group_name_H-M "C M M M"
_symmetry_group_IT_number 65
_symmetry_cell_setting 'orthorhombic'
loop_
_space_group_symop_operation_xyz
x,y,z
-x,-y,z
x,-y,-z
-x,y,-z
-x,-y,-z
x,y,-z
-x,y,z
x,-y,z
1/2+x,1/2+y,z
1/2-x,1/2-y,z
1/2+x,1/2-y,-z
1/2-x,1/2+y,-z
1/2-x,1/2-y,-z
1/2+x,1/2+y,-z
1/2-x,1/2+y,z
1/2+x,1/2-y,z
loop_
_atom_site_type_symbol
_atom_site_label
_atom_site_fract_x
_atom_site_fract_y
_atom_site_fract_z
Si Si1 0.843788 0.366711 0.136579
Si Si2 0.405332 0.353775 0.635084
Si Si3 0.213529 0.063327 0.732827
Si Si4 0.687829 0.058392 0.500000
Si Si5 0.409169 0.169420 0.500000
Si Si6 0.500000 0.935271 0.139399
Si Si7 0.094148 0.264739 0.733631
O O1 0.767563 0.397389 0.187782
O O2 0.858211 0.303405 0.178679
O O3 0.921393 0.402190 0.175749
O O4 0.840965 0.368307 0.000000
O O5 0.380836 0.349890 0.500000
O O6 0.500000 0.355970 0.634405
O O7 0.367167 0.406382 0.698098
O O8 0.382069 0.298846 0.707964
O O9 0.259513 0.059428 0.612835
O O10 0.204829 0.000000 0.777860
O O11 0.638160 0.113401 0.500000
O O12 0.641467 0.000000 0.500000
O O13 0.500000 0.154612 0.500000
O O14 0.393972 0.205349 0.612028
O O15 0.500000 0.000000 0.176751
O O16 0.500000 0.935516 0.000000
O O17 0.000000 0.266024 0.761637
#
# Coordination Sequence:
#
# PCOD9484367 Si02
#       7
#    16  16  16   8   8   8  16
#     4  11  22  37  59  86 120 164 205 242 284 339
#     4  10  21  39  64  91 115 149 196 247 307 373
#     4  11  23  39  58  85 122 153 191 249 305 353
#     4  10  20  34  50  79 119 153 189 237 293 350
#     4  10  18  32  53  78 115 161 193 226 285 358
#     4   9  18  34  56  81 109 153 208 242 270 324
#     4  10  19  35  58  87 120 152 194 245 292 349
#
# _framework density 18.499704999999999
#
# number of rings (size 3 to 8) (size 9 to 14) (size 15 to 20)
#    0.000    1.727    4.545    0.545    0.000    2.364 
#    0.000    4.545    0.000    1.636    0.000    1.273 
#    0.000    0.000    0.000    0.000    0.000    0.000 
#
# Total GULP energy -245459.212139 kJ/mol
# GULP energy per Si atom -5578.618458 kJ/mol
# Density = 1.845760 g / cm^3
# Si number density = 18.499705 Si / 1000 Ang^3
#
#
#
# Elastic Constant Matrix: (Units=GPa)
#
#
# Indices 1 2 3 4 5 6 
#
# 1 35.9606 43.1322 15.1102 0.0000 0.0000 0.0000
# 2 43.1322 109.9159 18.8059 0.0000 0.0000 0.0000
# 3 15.1102 18.8059 75.6922 0.0000 0.0000 0.0000
# 4 0.0000 0.0000 0.0000 16.2253 0.0000 0.0000
# 5 0.0000 0.0000 0.0000 0.0000 21.5381 0.0000
# 6 0.0000 0.0000 0.0000 0.0000 0.0000 24.5845
#
#
#
# Elastic Compliance Matrix: (Units=1/GPa)
#
#
# Indices 1 2 3 4 5 6 
#
# 1 0.054914 -0.020547 -0.005857 0.000000 0.000000 0.000000
# 2 -0.020547 0.017189 -0.000169 0.000000 0.000000 0.000000
# 3 -0.005857 -0.000169 0.014423 0.000000 0.000000 0.000000
# 4 0.000000 0.000000 0.000000 0.061632 0.000000 0.000000
# 5 0.000000 0.000000 0.000000 0.000000 0.046429 0.000000
# 6 0.000000 0.000000 0.000000 0.000000 0.000000 0.040676
#
#
# Mechanical properties :
#
#
# Convention : Reuss Voigt Hill
#
# Bulk Modulus (GPa) = 29.95836 41.74059 35.84947
# Shear Modulus (GPa) = 16.69249 22.10427 19.39838
#
# Velocity S-wave (km/s) = 3.00711 3.46040 3.24169
# Velocity P-wave (km/s) = 5.31846 6.21109 5.78203
#
# Compressibility (1/GPa) = 0.03337966
#
# Stress axis : x y z
#
# Youngs Moduli (GPa) = 18.21042 58.17516 69.33498
#
# Poissons Ratio (x) = 1.19530 0.40613
# Poissons Ratio (y) = 0.37416 0.01173
# Poissons Ratio (z) = 0.10667 0.00984
#
# Static dielectric constant tensor:
#      x y z
#    x 1.634510 0.000000 0.000000 
#    y 0.000000 1.662260 0.000000 
#    z 0.000000 0.000000 1.622970 
# 
# From -- ./inp_files/24845.got.cif
#   From: 2010.05.17/outbox.cif.g08.bks.cpg/sg65_13_cif.got.tgz:24845.got - 2010.06.03 17:01:31.
