data_PCOD9484293
_publ_section_title
;
Structure prediction by ZEFSAII (Michael W. Deem and Ramdas Pophale) SiO2 
 PCOD9484293
Probable space group: C M M M
;
_chemical_formula_sum "Si O2"
_cell_formula_units_Z 64
_cell_length_a 36.243643
_cell_length_b 8.825736
_cell_length_c 12.807650
_cell_angle_alpha 90.000000
_cell_angle_beta 90.000000
_cell_angle_gamma 90.000000
_cell_volume 4096.870415
_symmetry_space_group_name_H-M "C M M M"
_symmetry_group_IT_number 65
_symmetry_cell_setting 'orthorhombic'
loop_
_space_group_symop_operation_xyz
x,y,z
-x,-y,z
x,-y,-z
-x,y,-z
-x,-y,-z
x,y,-z
-x,y,z
x,-y,z
1/2+x,1/2+y,z
1/2-x,1/2-y,z
1/2+x,1/2-y,-z
1/2-x,1/2+y,-z
1/2-x,1/2-y,-z
1/2+x,1/2+y,-z
1/2-x,1/2+y,z
1/2+x,1/2-y,z
loop_
_atom_site_type_symbol
_atom_site_label
_atom_site_fract_x
_atom_site_fract_y
_atom_site_fract_z
Si Si1 0.000000 0.324558 0.872688
Si Si2 0.153667 0.678832 0.875643
Si Si3 0.709053 0.680633 0.285510
Si Si4 0.423601 0.326264 0.873146
Si Si5 0.208491 0.681906 0.500000
O O1 0.962436 0.243485 0.837687
O O2 0.000000 0.500000 0.842244
O O3 0.000000 0.319840 0.000000
O O4 0.158604 0.500000 0.856949
O O5 0.183303 0.772550 0.810312
O O6 0.112396 0.730034 0.844638
O O7 0.157668 0.706012 0.000000
O O8 0.711894 0.500000 0.296822
O O9 0.750000 0.750000 0.270518
O O10 0.692670 0.753800 0.391903
O O11 0.419603 0.500000 0.839091
O O12 0.424787 0.326137 0.000000
O O13 0.209245 0.500000 0.500000
O O14 0.250000 0.750000 0.500000
#
# Coordination Sequence:
#
# PCOD9484293 Si02
#       5
#     8  16  16  16   8
#     4   9  15  23  37  57  81 112 149 186 223 265
#     4  10  20  33  47  65  92 125 158 191 229 274
#     4  11  21  34  51  70  92 119 153 191 232 275
#     4   9  16  26  40  59  84 115 150 187 226 268
#     4  10  18  32  52  72  92 113 144 187 234 276
#
# _framework density 15.621682
#
# number of rings (size 3 to 8) (size 9 to 14) (size 15 to 20)
#    0.000    2.125    0.000    6.750    0.000    6.500 
#    0.000    0.000    0.000    0.000    0.000    0.000 
#    0.000    1.000    0.000   10.000    0.000    9.000 
#
# Total GULP energy -178397.857293 kJ/mol
# GULP energy per Si atom -5574.933040 kJ/mol
# Density = 1.558613 g / cm^3
# Si number density = 15.621682 Si / 1000 Ang^3
#
#
#
# Elastic Constant Matrix: (Units=GPa)
#
#
# Indices 1 2 3 4 5 6 
#
# 1 82.0776 41.4451 29.8776 0.0000 0.0000 0.0000
# 2 41.4451 138.0843 38.3368 0.0000 0.0000 0.0000
# 3 29.8776 38.3368 38.8306 0.0000 0.0000 0.0000
# 4 0.0000 0.0000 0.0000 20.7075 0.0000 0.0000
# 5 0.0000 0.0000 0.0000 0.0000 -1.7786 0.0000
# 6 0.0000 0.0000 0.0000 0.0000 0.0000 30.2705
#
#
#
# Elastic Compliance Matrix: (Units=1/GPa)
#
#
# Indices 1 2 3 4 5 6 
#
# 1 0.017342 -0.002067 -0.011303 0.000000 0.000000 0.000000
# 2 -0.002067 0.010223 -0.008503 0.000000 0.000000 0.000000
# 3 -0.011303 -0.008503 0.042844 0.000000 0.000000 0.000000
# 4 0.000000 0.000000 0.000000 0.048292 0.000000 0.000000
# 5 0.000000 0.000000 0.000000 0.000000 -0.562246 0.000000
# 6 0.000000 0.000000 0.000000 0.000000 0.000000 0.033036
#
#
# Mechanical properties :
#
#
# Convention : Reuss Voigt Hill
#
# Bulk Modulus (GPa) = 37.50331 53.14573 45.32452
# Shear Modulus (GPa) = -13.97126 19.79541 2.91208
#
# Velocity S-wave (km/s) = -2.99381 3.56360 1.36681
# Velocity P-wave (km/s) = 3.47977 7.14330 5.61852
#
# Compressibility (1/GPa) = 0.02666432
#
# Stress axis : x y z
#
# Youngs Moduli (GPa) = 57.66468 97.81925 23.34056
#
# Poissons Ratio (x) = 0.20219 0.26381
# Poissons Ratio (y) = 0.11919 0.19845
# Poissons Ratio (z) = 0.65176 0.83171
#
# Static dielectric constant tensor:
#      x y z
#    x 1.515780 0.000000 0.000000 
#    y 0.000000 1.525460 0.000000 
#    z 0.000000 0.000000 1.529100 
# 
# From -- ./inp_files/20992.got.cif
#   From: 2010.05.17/outbox.cif.g08.bks.cpg/sg65_11_cif.got.tgz:20992.got - 2010.06.03 17:01:31.
