data_PCOD9484749
_publ_section_title
;
Structure prediction by ZEFSAII (Michael W. Deem and Ramdas Pophale) SiO2 
 PCOD9484749
Probable space group: C M M M
;
_chemical_formula_sum "Si O2"
_cell_formula_units_Z 72
_cell_length_a 8.996556
_cell_length_b 24.097282
_cell_length_c 21.157976
_cell_angle_alpha 90.000000
_cell_angle_beta 90.000000
_cell_angle_gamma 90.000000
_cell_volume 4586.891506
_symmetry_space_group_name_H-M "C M M M"
_symmetry_group_IT_number 65
_symmetry_cell_setting 'orthorhombic'
loop_
_space_group_symop_operation_xyz
x,y,z
-x,-y,z
x,-y,-z
-x,y,-z
-x,-y,-z
x,y,-z
-x,y,z
x,-y,z
1/2+x,1/2+y,z
1/2-x,1/2-y,z
1/2+x,1/2-y,-z
1/2-x,1/2+y,-z
1/2-x,1/2-y,-z
1/2+x,1/2+y,-z
1/2-x,1/2+y,z
1/2+x,1/2-y,z
loop_
_atom_site_type_symbol
_atom_site_label
_atom_site_fract_x
_atom_site_fract_y
_atom_site_fract_z
Si Si1 0.179308 0.689526 0.000000
Si Si2 0.171878 0.932275 0.500000
Si Si3 0.322170 0.433998 0.761441
Si Si4 0.170005 0.567257 0.371254
Si Si5 0.832252 0.000000 0.074112
Si Si6 0.321821 0.111331 0.117886
O O1 0.250000 0.750000 0.000000
O O2 0.221661 0.656757 0.064704
O O3 0.000000 0.692812 0.000000
O O4 0.253261 0.913673 0.436031
O O5 0.000000 0.915662 0.500000
O O6 0.174992 0.000000 0.500000
O O7 0.500000 0.430656 0.762807
O O8 0.282014 0.500000 0.774037
O O9 0.260907 0.419881 0.692027
O O10 0.251784 0.392045 0.812695
O O11 0.166754 0.500000 0.374506
O O12 0.000000 0.586537 0.366663
O O13 0.738525 0.053629 0.090850
O O14 0.000000 0.000000 0.102836
O O15 0.851249 0.000000 0.000000
O O16 0.500000 0.112105 0.123644
#
# Coordination Sequence:
#
# PCOD9484749 Si02
#       6
#     8   8  16  16   8  16
#     4  10  24  41  56  73  91 120 158 196 237 284
#     4   9  15  23  35  51  75 111 154 197 230 263
#     4  10  19  29  42  65  93 120 153 190 235 282
#     4   9  16  25  37  54  79 115 155 192 230 271
#     4  11  21  31  47  73  97 120 149 184 233 283
#     4  11  21  34  51  71  95 122 153 192 238 285
#
# _framework density 15.696904
#
# number of rings (size 3 to 8) (size 9 to 14) (size 15 to 20)
#    0.000    2.000    2.222    2.667    0.000    7.111 
#    0.000    0.000    0.000    0.000    0.000    0.000 
#    0.000    0.000    0.000    1.000    0.000   13.667 
#
# Total GULP energy -200513.223520 kJ/mol
# GULP energy per Si atom -5569.811764 kJ/mol
# Density = 1.566118 g / cm^3
# Si number density = 15.696904 Si / 1000 Ang^3
#
#
#
# Elastic Constant Matrix: (Units=GPa)
#
#
# Indices 1 2 3 4 5 6 
#
# 1 90.8862 25.3680 69.1412 0.0000 0.0000 0.0000
# 2 25.3680 59.9584 39.7615 0.0000 0.0000 0.0000
# 3 69.1412 39.7615 168.3629 0.0000 0.0000 0.0000
# 4 0.0000 0.0000 0.0000 4.7033 0.0000 0.0000
# 5 0.0000 0.0000 0.0000 0.0000 33.8872 0.0000
# 6 0.0000 0.0000 0.0000 0.0000 0.0000 25.2993
#
#
#
# Elastic Compliance Matrix: (Units=1/GPa)
#
#
# Indices 1 2 3 4 5 6 
#
# 1 0.016427 -0.002936 -0.006052 0.000000 0.000000 0.000000
# 2 -0.002936 0.020300 -0.003588 0.000000 0.000000 0.000000
# 3 -0.006052 -0.003588 0.009273 0.000000 0.000000 0.000000
# 4 0.000000 0.000000 0.000000 0.212618 0.000000 0.000000
# 5 0.000000 0.000000 0.000000 0.000000 0.029510 0.000000
# 6 0.000000 0.000000 0.000000 0.000000 0.000000 0.039527
#
#
# Mechanical properties :
#
#
# Convention : Reuss Voigt Hill
#
# Bulk Modulus (GPa) = 47.97273 65.30543 56.63908
# Shear Modulus (GPa) = 13.89830 25.10707 19.50269
#
# Velocity S-wave (km/s) = 2.97882 4.00370 3.52867
# Velocity P-wave (km/s) = 6.51609 7.94149 7.26384
#
# Compressibility (1/GPa) = 0.02084518
#
# Stress axis : x y z
#
# Youngs Moduli (GPa) = 60.87638 49.26058 107.84530
#
# Poissons Ratio (x) = 0.14465 0.65273
# Poissons Ratio (y) = 0.17875 0.38699
# Poissons Ratio (z) = 0.36845 0.17676
#
# Static dielectric constant tensor:
#      x y z
#    x 1.528620 0.000000 0.000000 
#    y 0.000000 1.484990 0.000000 
#    z 0.000000 0.000000 1.570740 
# 
# From -- ./inp_files/59414.got.cif
#   From: 2010.05.17/outbox.cif.g08.bks.cpg/sg65_30_cif.got.tgz:59414.got - 2010.06.03 17:01:31.
