data_PCOD9484312
_publ_section_title
;
Structure prediction by ZEFSAII (Michael W. Deem and Ramdas Pophale) SiO2 
 PCOD9484312
Probable space group: C M M M
;
_chemical_formula_sum "Si O2"
_cell_formula_units_Z 88
_cell_length_a 8.466319
_cell_length_b 24.411752
_cell_length_c 23.457140
_cell_angle_alpha 90.000000
_cell_angle_beta 90.000000
_cell_angle_gamma 90.000000
_cell_volume 4848.067269
_symmetry_space_group_name_H-M "C M M M"
_symmetry_group_IT_number 65
_symmetry_cell_setting 'orthorhombic'
loop_
_space_group_symop_operation_xyz
x,y,z
-x,-y,z
x,-y,-z
-x,y,-z
-x,-y,-z
x,y,-z
-x,y,z
x,-y,z
1/2+x,1/2+y,z
1/2-x,1/2-y,z
1/2+x,1/2-y,-z
1/2-x,1/2+y,-z
1/2-x,1/2-y,-z
1/2+x,1/2+y,-z
1/2-x,1/2+y,z
1/2+x,1/2-y,z
loop_
_atom_site_type_symbol
_atom_site_label
_atom_site_fract_x
_atom_site_fract_y
_atom_site_fract_z
Si Si1 0.311101 0.312030 0.786292
Si Si2 0.309350 0.311906 0.436930
Si Si3 0.311566 0.563811 0.000000
Si Si4 0.806182 0.121089 0.326440
Si Si5 0.316715 0.500000 0.688415
Si Si6 0.816540 0.500000 0.809294
Si Si7 0.685962 0.109729 0.117572
O O1 0.500000 0.310991 0.784424
O O2 0.250000 0.250000 0.782455
O O3 0.255453 0.348034 0.731552
O O4 0.258395 0.341844 0.844425
O O5 0.259773 0.332066 0.500000
O O6 0.500000 0.311600 0.435944
O O7 0.250000 0.250000 0.431081
O O8 0.255614 0.346701 0.382840
O O9 0.256959 0.596342 0.055999
O O10 0.251112 0.500000 0.000000
O O11 0.500000 0.560735 0.000000
O O12 0.748311 0.058492 0.329656
O O13 0.000000 0.120004 0.324924
O O14 0.500000 0.500000 0.670837
O O15 0.300615 0.500000 0.756558
O O16 0.791618 0.553921 0.846516
O O17 0.000000 0.500000 0.789369
O O18 0.500000 0.119784 0.111420
#
# Coordination Sequence:
#
# PCOD9484312 Si02
#       7
#    16  16   8  16   8   8  16
#     4  11  22  37  56  80 109 143 183 226 274 325
#     4   9  17  31  50  73 102 137 179 224 268 316
#     4  11  23  37  58  87 116 147 183 220 264 320
#     4   9  18  31  51  78 106 138 177 222 269 321
#     4  10  18  32  52  75 106 142 176 214 269 328
#     4  10  20  33  53  81 112 141 175 220 271 316
#     4  11  22  38  58  83 114 145 180 224 271 319
#
# _framework density 18.151564
#
# number of rings (size 3 to 8) (size 9 to 14) (size 15 to 20)
#    0.000    1.909    2.727    1.909    0.000    1.091 
#    0.000    2.727    0.000    2.727    0.000    0.000 
#    0.000    3.636    0.000    0.000    0.000    0.000 
#
# Total GULP energy -245469.909894 kJ/mol
# GULP energy per Si atom -5578.861588 kJ/mol
# Density = 1.811025 g / cm^3
# Si number density = 18.151564 Si / 1000 Ang^3
#
#
#
# Elastic Constant Matrix: (Units=GPa)
#
#
# Indices 1 2 3 4 5 6 
#
# 1 20.3506 26.2212 26.7055 0.0000 0.0000 0.0000
# 2 26.2212 143.5697 82.8922 0.0000 0.0000 0.0000
# 3 26.7055 82.8922 152.3868 0.0000 0.0000 0.0000
# 4 0.0000 0.0000 0.0000 24.1805 0.0000 0.0000
# 5 0.0000 0.0000 0.0000 0.0000 13.0887 0.0000
# 6 0.0000 0.0000 0.0000 0.0000 0.0000 20.3284
#
#
#
# Elastic Compliance Matrix: (Units=1/GPa)
#
#
# Indices 1 2 3 4 5 6 
#
# 1 0.070019 -0.008315 -0.007748 0.000000 0.000000 0.000000
# 2 -0.008315 0.011142 -0.004604 0.000000 0.000000 0.000000
# 3 -0.007748 -0.004604 0.010424 0.000000 0.000000 0.000000
# 4 0.000000 0.000000 0.000000 0.041356 0.000000 0.000000
# 5 0.000000 0.000000 0.000000 0.000000 0.076402 0.000000
# 6 0.000000 0.000000 0.000000 0.000000 0.000000 0.049192
#
#
# Mechanical properties :
#
#
# Convention : Reuss Voigt Hill
#
# Bulk Modulus (GPa) = 19.89930 65.32720 42.61325
# Shear Modulus (GPa) = 15.79186 23.55205 19.67196
#
# Velocity S-wave (km/s) = 2.95278 3.60602 3.29562
# Velocity P-wave (km/s) = 4.75519 7.30793 6.16513
#
# Compressibility (1/GPa) = 0.05025302
#
# Stress axis : x y z
#
# Youngs Moduli (GPa) = 14.28175 89.75239 95.93093
#
# Poissons Ratio (x) = 0.74627 0.74326
# Poissons Ratio (y) = 0.11875 0.44162
# Poissons Ratio (z) = 0.11065 0.41318
#
# Static dielectric constant tensor:
#      x y z
#    x 1.630830 0.000000 0.000000 
#    y 0.000000 1.626790 0.000000 
#    z 0.000000 0.000000 1.614090 
# 
# From -- ./inp_files/59901.got.cif
#   From: 2010.05.17/outbox.cif.g08.bks.cpg/sg65_30_cif.got.tgz:59901.got - 2010.06.03 17:01:31.
