data_PCOD9484548
_publ_section_title
;
Structure prediction by ZEFSAII (Michael W. Deem and Ramdas Pophale) SiO2 
 PCOD9484548
Probable space group: C M M M
;
_chemical_formula_sum "Si O2"
_cell_formula_units_Z 96
_cell_length_a 14.757062
_cell_length_b 20.850308
_cell_length_c 15.399608
_cell_angle_alpha 90.000000
_cell_angle_beta 90.000000
_cell_angle_gamma 90.000000
_cell_volume 4738.294419
_symmetry_space_group_name_H-M "C M M M"
_symmetry_group_IT_number 65
_symmetry_cell_setting 'orthorhombic'
loop_
_space_group_symop_operation_xyz
x,y,z
-x,-y,z
x,-y,-z
-x,y,-z
-x,-y,-z
x,y,-z
-x,y,z
x,-y,z
1/2+x,1/2+y,z
1/2-x,1/2-y,z
1/2+x,1/2-y,-z
1/2-x,1/2+y,-z
1/2-x,1/2-y,-z
1/2+x,1/2+y,-z
1/2-x,1/2+y,z
1/2+x,1/2-y,z
loop_
_atom_site_type_symbol
_atom_site_label
_atom_site_fract_x
_atom_site_fract_y
_atom_site_fract_z
Si Si1 0.500000 0.427702 0.102570
Si Si2 0.401248 0.139275 0.710174
Si Si3 0.851951 0.178431 0.139656
Si Si4 0.767763 0.886768 0.599171
Si Si5 0.899304 0.000000 0.605236
Si Si6 0.640429 0.177437 0.096261
Si Si7 0.895021 0.788282 0.664334
O O1 0.500000 0.500000 0.140890
O O2 0.586697 0.383123 0.122418
O O3 0.500000 0.435156 0.000000
O O4 0.500000 0.111912 0.688307
O O5 0.315911 0.107304 0.664465
O O6 0.394613 0.145221 0.814950
O O7 0.396682 0.211694 0.671530
O O8 0.749544 0.172224 0.106214
O O9 0.885453 0.246893 0.101725
O O10 0.857962 0.188996 0.242414
O O11 0.739572 0.900338 0.500000
O O12 0.843495 0.937379 0.628735
O O13 0.821686 0.819299 0.601142
O O14 0.904902 0.000000 0.500000
O O15 0.000000 0.000000 0.640962
O O16 0.614294 0.153599 0.000000
O O17 0.000000 0.809084 0.649649
#
# Coordination Sequence:
#
# PCOD9484548 Si02
#       7
#     8  16  16  16   8  16  16
#     4  11  22  34  50  80 125 165 196 236 292 371
#     4  10  22  37  55  85 120 149 194 246 294 355
#     4  10  18  34  51  79 114 153 201 243 293 358
#     4  11  22  39  61  84 117 155 190 238 293 347
#     4   9  20  40  65  93 118 145 191 241 285 348
#     4  10  19  33  58  81 107 154 201 255 304 339
#     4  10  19  34  55  82 118 155 189 239 293 349
#
# _framework density 20.260455
#
# number of rings (size 3 to 8) (size 9 to 14) (size 15 to 20)
#    0.000    1.833    2.500    3.000    1.167    3.000 
#    1.500    2.083    0.000    1.500    0.000    0.000 
#    0.000    1.333    0.000    0.000    0.000    0.000 
#
# Total GULP energy -267763.076695 kJ/mol
# GULP energy per Si atom -5578.397431 kJ/mol
# Density = 2.021434 g / cm^3
# Si number density = 20.260455 Si / 1000 Ang^3
#
#
#
# Elastic Constant Matrix: (Units=GPa)
#
#
# Indices 1 2 3 4 5 6 
#
# 1 151.2981 40.3376 43.7311 0.0000 0.0000 0.0000
# 2 40.3376 60.2116 14.6668 0.0000 0.0000 0.0000
# 3 43.7311 14.6668 84.6192 0.0000 0.0000 0.0000
# 4 0.0000 0.0000 0.0000 6.9230 0.0000 0.0000
# 5 0.0000 0.0000 0.0000 0.0000 -50.4941 0.0000
# 6 0.0000 0.0000 0.0000 0.0000 0.0000 24.1100
#
#
#
# Elastic Compliance Matrix: (Units=1/GPa)
#
#
# Indices 1 2 3 4 5 6 
#
# 1 0.009083 -0.005160 -0.003800 0.000000 0.000000 0.000000
# 2 -0.005160 0.020271 -0.000847 0.000000 0.000000 0.000000
# 3 -0.003800 -0.000847 0.013928 0.000000 0.000000 0.000000
# 4 0.000000 0.000000 0.000000 0.144445 0.000000 0.000000
# 5 0.000000 0.000000 0.000000 0.000000 -0.019804 0.000000
# 6 0.000000 0.000000 0.000000 0.000000 0.000000 0.041477
#
#
# Mechanical properties :
#
#
# Convention : Reuss Voigt Hill
#
# Bulk Modulus (GPa) = 42.24859 54.84443 48.54651
# Shear Modulus (GPa) = 21.10565 9.26735 15.18650
#
# Velocity S-wave (km/s) = 3.23106 2.14104 2.74079
# Velocity P-wave (km/s) = 5.90065 5.76546 5.83345
#
# Compressibility (1/GPa) = 0.02366943
#
# Stress axis : x y z
#
# Youngs Moduli (GPa) = 110.09050 49.33154 71.79628
#
# Poissons Ratio (x) = 0.25453 0.27283
# Poissons Ratio (y) = 0.56803 0.06081
# Poissons Ratio (z) = 0.41834 0.04178
#
# Static dielectric constant tensor:
#      x y z
#    x 1.680130 0.000000 0.000000 
#    y 0.000000 1.753100 0.000000 
#    z 0.000000 0.000000 1.744480 
# 
# From -- ./inp_files/40685.got.cif
#   From: 2010.05.17/outbox.cif.g08.bks.cpg/sg65_21_cif.got.tgz:40685.got - 2010.06.03 17:01:31.
