data_PCOD9484069
_publ_section_title
;
Structure prediction by ZEFSAII (Michael W. Deem and Ramdas Pophale) SiO2 
 PCOD9484069
Probable space group: C M M M
;
_chemical_formula_sum "Si O2"
_cell_formula_units_Z 128
_cell_length_a 23.970124
_cell_length_b 24.603385
_cell_length_c 13.747101
_cell_angle_alpha 90.000000
_cell_angle_beta 90.000000
_cell_angle_gamma 90.000000
_cell_volume 8107.300428
_symmetry_space_group_name_H-M "C M M M"
_symmetry_group_IT_number 65
_symmetry_cell_setting 'orthorhombic'
loop_
_space_group_symop_operation_xyz
x,y,z
-x,-y,z
x,-y,-z
-x,y,-z
-x,-y,-z
x,y,-z
-x,y,z
x,-y,z
1/2+x,1/2+y,z
1/2-x,1/2-y,z
1/2+x,1/2-y,-z
1/2-x,1/2+y,-z
1/2-x,1/2-y,-z
1/2+x,1/2+y,-z
1/2-x,1/2+y,z
1/2+x,1/2-y,z
loop_
_atom_site_type_symbol
_atom_site_label
_atom_site_fract_x
_atom_site_fract_y
_atom_site_fract_z
Si Si1 0.111544 0.753607 0.388793
Si Si2 0.435931 0.856827 0.116051
Si Si3 0.771016 0.938917 0.885076
Si Si4 0.563847 0.735322 0.817106
Si Si5 0.151549 0.435761 0.215881
Si Si6 0.717940 0.304323 0.315446
Si Si7 0.176890 0.361500 0.613611
Si Si8 0.331010 0.328934 0.886584
O O1 0.091231 0.755710 0.500000
O O2 0.069524 0.762891 0.299991
O O3 0.159392 0.799161 0.370726
O O4 0.140925 0.694298 0.373364
O O5 0.500000 0.865348 0.149716
O O6 0.419346 0.795736 0.147145
O O7 0.394063 0.901372 0.157280
O O8 0.435320 0.859218 0.000000
O O9 0.713016 0.926774 0.830657
O O10 0.817706 0.892807 0.871160
O O11 0.789106 0.000000 0.857771
O O12 0.758067 0.938782 0.000000
O O13 0.500000 0.725563 0.846340
O O14 0.607011 0.692271 0.862452
O O15 0.140573 0.500000 0.214150
O O16 0.152069 0.409816 0.322830
O O17 0.750000 0.250000 0.344396
O O18 0.760283 0.350715 0.347879
O O19 0.706144 0.302928 0.199801
O O20 0.178104 0.373185 0.500000
O O21 0.317703 0.316077 0.000000
#
# Coordination Sequence:
#
# PCOD9484069 Si02
#       8
#    16  16  16  16  16  16  16  16
#     4   9  17  30  50  72  95 129 167 202 245 300
#     4  10  21  37  54  72  98 132 167 205 254 305
#     4   9  18  32  50  73 102 135 166 199 240 284
#     4  10  20  34  51  74 103 130 163 208 256 301
#     4  11  21  34  51  73  99 128 170 216 249 291
#     4   9  17  29  44  70 103 131 160 199 244 298
#     4  10  18  31  49  70  98 131 163 202 253 301
#     4  10  19  30  48  73 102 135 165 196 244 301
#
# _framework density 15.788239000000001
#
# number of rings (size 3 to 8) (size 9 to 14) (size 15 to 20)
#    0.000    2.250    2.500    1.125    0.000    4.000 
#    0.000    0.625    0.000    0.750    0.000    2.625 
#    0.000    0.000    0.000    3.250    0.000    0.000 
#
# Total GULP energy -356345.934938 kJ/mol
# GULP energy per Si atom -5567.905233 kJ/mol
# Density = 1.575230 g / cm^3
# Si number density = 15.788239 Si / 1000 Ang^3
#
#
#
# Elastic Constant Matrix: (Units=GPa)
#
#
# Indices 1 2 3 4 5 6 
#
# 1 50.7149 46.3918 25.2977 0.0000 0.0000 0.0000
# 2 46.3918 80.9936 23.5578 0.0000 0.0000 0.0000
# 3 25.2977 23.5578 71.5655 0.0000 0.0000 0.0000
# 4 0.0000 0.0000 0.0000 16.5689 0.0000 0.0000
# 5 0.0000 0.0000 0.0000 0.0000 10.3621 0.0000
# 6 0.0000 0.0000 0.0000 0.0000 0.0000 21.7063
#
#
#
# Elastic Compliance Matrix: (Units=1/GPa)
#
#
# Indices 1 2 3 4 5 6 
#
# 1 0.045477 -0.023636 -0.008295 0.000000 0.000000 0.000000
# 2 -0.023636 0.025938 -0.000183 0.000000 0.000000 0.000000
# 3 -0.008295 -0.000183 0.016966 0.000000 0.000000 0.000000
# 4 0.000000 0.000000 0.000000 0.060354 0.000000 0.000000
# 5 0.000000 0.000000 0.000000 0.000000 0.096506 0.000000
# 6 0.000000 0.000000 0.000000 0.000000 0.000000 0.046070
#
#
# Mechanical properties :
#
#
# Convention : Reuss Voigt Hill
#
# Bulk Modulus (GPa) = 41.40379 43.75205 42.57792
# Shear Modulus (GPa) = 13.75180 16.92924 15.34052
#
# Velocity S-wave (km/s) = 2.95450 3.27810 3.12050
# Velocity P-wave (km/s) = 6.15793 6.48845 6.32535
#
# Compressibility (1/GPa) = 0.02415238
#
# Stress axis : x y z
#
# Youngs Moduli (GPa) = 21.98927 38.55339 58.94195
#
# Poissons Ratio (x) = 0.91123 0.48894
# Poissons Ratio (y) = 0.51973 0.01081
# Poissons Ratio (z) = 0.18241 0.00707
#
# Static dielectric constant tensor:
#      x y z
#    x 1.529390 0.000000 0.000000 
#    y 0.000000 1.525160 0.000000 
#    z 0.000000 0.000000 1.538710 
# 
# From -- ./inp_files/31484.got.cif
#   From: 2010.05.17/outbox.cif.g08.bks.cpg/sg65_16_cif.got.tgz:31484.got - 2010.06.03 17:01:31.
