data_PCOD9484151
_publ_section_title
;
Structure prediction by ZEFSAII (Michael W. Deem and Ramdas Pophale) SiO2 
 PCOD9484151
Probable space group: C M M M
;
_chemical_formula_sum "Si O2"
_cell_formula_units_Z 120
_cell_length_a 8.825414
_cell_length_b 28.202239
_cell_length_c 26.523503
_cell_angle_alpha 90.000000
_cell_angle_beta 90.000000
_cell_angle_gamma 90.000000
_cell_volume 6601.605338
_symmetry_space_group_name_H-M "C M M M"
_symmetry_group_IT_number 65
_symmetry_cell_setting 'orthorhombic'
loop_
_space_group_symop_operation_xyz
x,y,z
-x,-y,z
x,-y,-z
-x,y,-z
-x,-y,-z
x,y,-z
-x,y,z
x,-y,z
1/2+x,1/2+y,z
1/2-x,1/2-y,z
1/2+x,1/2-y,-z
1/2-x,1/2+y,-z
1/2-x,1/2-y,-z
1/2+x,1/2+y,-z
1/2-x,1/2+y,z
1/2+x,1/2-y,z
loop_
_atom_site_type_symbol
_atom_site_label
_atom_site_fract_x
_atom_site_fract_y
_atom_site_fract_z
Si Si1 0.816554 0.904851 0.118981
Si Si2 0.181752 0.198788 0.743326
Si Si3 0.674756 0.445390 0.326283
Si Si4 0.181968 0.198795 0.138245
Si Si5 0.326174 0.055306 0.218460
Si Si6 0.315638 0.500000 0.058124
Si Si7 0.323053 0.855025 0.349585
Si Si8 0.680966 0.697599 0.444271
O O1 0.774314 0.849587 0.108296
O O2 0.746537 0.916000 0.173286
O O3 0.000000 0.905995 0.121503
O O4 0.769258 0.949947 0.084295
O O5 0.250000 0.250000 0.729681
O O6 0.221862 0.190868 0.802307
O O7 0.248922 0.162441 0.702946
O O8 0.000000 0.198982 0.739584
O O9 0.500000 0.430636 0.332212
O O10 0.689349 0.500000 0.341509
O O11 0.723502 0.442293 0.267865
O O12 0.785644 0.410320 0.354679
O O13 0.250000 0.250000 0.123067
O O14 0.000000 0.202960 0.135633
O O15 0.500000 0.069798 0.229468
O O16 0.329291 0.000000 0.203053
O O17 0.500000 0.500000 0.059707
O O18 0.267561 0.500000 0.000000
O O19 0.500000 0.845226 0.347633
O O20 0.248730 0.829508 0.397020
O O21 0.716610 0.677045 0.500000
O O22 0.500000 0.700115 0.439548
O O23 0.750000 0.750000 0.443270
#
# Coordination Sequence:
#
# PCOD9484151 Si02
#       8
#    16  16  16  16  16   8  16  16
#     4  10  18  31  52  75 101 136 177 219 265 317
#     4  10  19  32  48  70 104 139 177 216 255 308
#     4  10  21  36  53  73 102 140 179 216 255 303
#     4   9  19  32  48  71  99 135 175 213 255 307
#     4  10  19  30  47  75 108 138 172 210 256 312
#     4   9  18  32  53  81 107 133 173 227 278 319
#     4  12  23  34  52  77 106 139 174 214 265 317
#     4  10  21  38  59  81 105 133 169 215 266 319
#
# _framework density 18.177396000000002
#
# number of rings (size 3 to 8) (size 9 to 14) (size 15 to 20)
#    0.000    1.933    0.667    4.000    0.000    4.267 
#    0.000    0.000    0.000    1.600    0.000    2.800 
#    0.000    0.000    0.000    0.000    0.000    0.000 
#
# Total GULP energy -334641.094641 kJ/mol
# GULP energy per Si atom -5577.351577 kJ/mol
# Density = 1.813602 g / cm^3
# Si number density = 18.177396 Si / 1000 Ang^3
#
#
#
# Elastic Constant Matrix: (Units=GPa)
#
#
# Indices 1 2 3 4 5 6 
#
# 1 42.7856 25.9986 11.8269 0.0000 0.0000 0.0000
# 2 25.9986 121.2186 40.1863 0.0000 0.0000 0.0000
# 3 11.8269 40.1863 31.5477 0.0000 0.0000 0.0000
# 4 0.0000 0.0000 0.0000 13.2150 0.0000 0.0000
# 5 0.0000 0.0000 0.0000 0.0000 -3.1374 0.0000
# 6 0.0000 0.0000 0.0000 0.0000 0.0000 28.9358
#
#
#
# Elastic Compliance Matrix: (Units=1/GPa)
#
#
# Indices 1 2 3 4 5 6 
#
# 1 0.027289 -0.004260 -0.004803 0.000000 0.000000 0.000000
# 2 -0.004260 0.014945 -0.017440 0.000000 0.000000 0.000000
# 3 -0.004803 -0.017440 0.055715 0.000000 0.000000 0.000000
# 4 0.000000 0.000000 0.000000 0.075671 0.000000 0.000000
# 5 0.000000 0.000000 0.000000 0.000000 -0.318740 0.000000
# 6 0.000000 0.000000 0.000000 0.000000 0.000000 0.034559
#
#
# Mechanical properties :
#
#
# Convention : Reuss Voigt Hill
#
# Bulk Modulus (GPa) = 22.25157 39.06396 30.65776
# Shear Modulus (GPa) = -117.44663 15.63871 -50.90396
#
# Velocity S-wave (km/s) = -8.04684 2.93633 -5.29762
# Velocity P-wave (km/s) = 8.60625 5.74745 4.52959
#
# Compressibility (1/GPa) = 0.04494065
#
# Stress axis : x y z
#
# Youngs Moduli (GPa) = 36.64490 66.91147 17.94864
#
# Poissons Ratio (x) = 0.28508 0.08621
# Poissons Ratio (y) = 0.15613 0.31303
# Poissons Ratio (z) = 0.17601 1.16695
#
# Static dielectric constant tensor:
#      x y z
#    x 1.611640 0.000000 0.000000 
#    y 0.000000 1.679630 0.000000 
#    z 0.000000 0.000000 1.609000 
# 
# From -- ./inp_files/73868.got.cif
#   From: 2010.05.17/outbox.cif.g08.bks.cpg/sg65_37_cif.got.tgz:73868.got - 2010.06.03 17:01:31.
