data_PCOD9484139
_publ_section_title
;
Structure prediction by ZEFSAII (Michael W. Deem and Ramdas Pophale) SiO2 
 PCOD9484139
Probable space group: C M M M
;
_chemical_formula_sum "Si O2"
_cell_formula_units_Z 116
_cell_length_a 29.238195
_cell_length_b 28.241055
_cell_length_c 7.617290
_cell_angle_alpha 90.000000
_cell_angle_beta 90.000000
_cell_angle_gamma 90.000000
_cell_volume 6289.729451
_symmetry_space_group_name_H-M "C M M M"
_symmetry_group_IT_number 65
_symmetry_cell_setting 'orthorhombic'
loop_
_space_group_symop_operation_xyz
x,y,z
-x,-y,z
x,-y,-z
-x,y,-z
-x,-y,-z
x,y,-z
-x,y,z
x,-y,z
1/2+x,1/2+y,z
1/2-x,1/2-y,z
1/2+x,1/2-y,-z
1/2-x,1/2+y,-z
1/2-x,1/2-y,-z
1/2+x,1/2+y,-z
1/2-x,1/2+y,z
1/2+x,1/2-y,z
loop_
_atom_site_type_symbol
_atom_site_label
_atom_site_fract_x
_atom_site_fract_y
_atom_site_fract_z
Si Si1 0.354130 0.142941 0.706501
Si Si2 0.700835 0.946469 0.713466
Si Si3 0.449101 0.298540 0.214240
Si Si4 0.193012 0.928336 0.296611
Si Si5 0.449356 0.810363 0.789937
Si Si6 0.662558 0.500000 0.000000
Si Si7 0.146033 0.168248 0.213091
Si Si8 0.300794 0.761391 0.788842
O O1 0.353920 0.136611 0.500000
O O2 0.332807 0.094509 0.781700
O O3 0.405897 0.157041 0.753285
O O4 0.321392 0.187605 0.745271
O O5 0.698163 0.947429 0.500000
O O6 0.753462 0.933534 0.754222
O O7 0.691429 0.000000 0.775508
O O8 0.500000 0.312889 0.270108
O O9 0.441521 0.243874 0.271213
O O10 0.406985 0.331085 0.268856
O O11 0.448769 0.298039 0.000000
O O12 0.188675 0.943866 0.500000
O O13 0.175727 0.874633 0.284325
O O14 0.165690 0.959116 0.155637
O O15 0.500000 0.825621 0.726283
O O16 0.451914 0.807480 0.000000
O O17 0.166535 0.218776 0.268633
O O18 0.147926 0.166050 0.000000
O O19 0.250000 0.750000 0.722421
O O20 0.299287 0.759575 0.000000
#
# Coordination Sequence:
#
# PCOD9484139 Si02
#       8
#    16  16  16  16  16   4  16  16
#     4  11  21  32  51  78 106 140 180 227 281 334
#     4   9  19  37  55  73 103 142 186 230 276 328
#     4   8  14  27  50  75 103 140 180 221 267 323
#     4  11  22  38  59  82 114 149 183 235 284 323
#     4   9  17  33  54  74 101 141 183 222 269 331
#     4  12  22  40  60  86 111 142 199 236 266 340
#     4  10  18  31  51  78 111 144 185 223 265 333
#     4  10  20  33  48  72 110 149 182 217 261 327
#
# _framework density 18.442764
#
# number of rings (size 3 to 8) (size 9 to 14) (size 15 to 20)
#    0.000    2.207    2.759    2.276    0.000    1.103 
#    2.483    0.000    0.000    0.828    0.000    3.862 
#    0.000    1.103    0.000    0.000    0.000    0.000 
#
# Total GULP energy -322968.925703 kJ/mol
# GULP energy per Si atom -5568.429753 kJ/mol
# Density = 1.840079 g / cm^3
# Si number density = 18.442764 Si / 1000 Ang^3
#
#
#
# Elastic Constant Matrix: (Units=GPa)
#
#
# Indices 1 2 3 4 5 6 
#
# 1 109.9908 58.1541 5.2342 0.0000 0.0000 0.0000
# 2 58.1541 114.8699 5.6725 0.0000 0.0000 0.0000
# 3 5.2342 5.6725 56.1498 0.0000 0.0000 0.0000
# 4 0.0000 0.0000 0.0000 13.7527 0.0000 0.0000
# 5 0.0000 0.0000 0.0000 0.0000 17.5582 0.0000
# 6 0.0000 0.0000 0.0000 0.0000 0.0000 4.3836
#
#
#
# Elastic Compliance Matrix: (Units=1/GPa)
#
#
# Indices 1 2 3 4 5 6 
#
# 1 0.012430 -0.006267 -0.000526 0.000000 0.000000 0.000000
# 2 -0.006267 0.011909 -0.000619 0.000000 0.000000 0.000000
# 3 -0.000526 -0.000619 0.017921 0.000000 0.000000 0.000000
# 4 0.000000 0.000000 0.000000 0.072713 0.000000 0.000000
# 5 0.000000 0.000000 0.000000 0.000000 0.056954 0.000000
# 6 0.000000 0.000000 0.000000 0.000000 0.000000 0.228122
#
#
# Mechanical properties :
#
#
# Convention : Reuss Voigt Hill
#
# Bulk Modulus (GPa) = 36.44703 46.57025 41.50864
# Shear Modulus (GPa) = 11.79196 21.26886 16.53041
#
# Velocity S-wave (km/s) = 2.53134 3.39962 2.99709
# Velocity P-wave (km/s) = 5.32435 6.38090 5.87642
#
# Compressibility (1/GPa) = 0.02743708
#
# Stress axis : x y z
#
# Youngs Moduli (GPa) = 80.44972 83.97178 55.80036
#
# Poissons Ratio (x) = 0.52625 0.02933
# Poissons Ratio (y) = 0.50417 0.03453
# Poissons Ratio (z) = 0.04228 0.05197
#
# Static dielectric constant tensor:
#      x y z
#    x 1.071100 0.000000 0.000000 
#    y 0.000000 1.653830 0.000000 
#    z 0.000000 0.000000 1.683870 
# 
# From -- ./inp_files/19152.got.cif
#   From: 2010.05.17/outbox.cif.g08.bks.cpg/sg65_10_cif.got.tgz:19152.got - 2010.06.03 17:01:31.
