data_PCOD9484719
_publ_section_title
;
Structure prediction by ZEFSAII (Michael W. Deem and Ramdas Pophale) SiO2 
 PCOD9484719
Probable space group: C M M M
;
_chemical_formula_sum "Si O2"
_cell_formula_units_Z 72
_cell_length_a 21.708953
_cell_length_b 14.760122
_cell_length_c 8.580015
_cell_angle_alpha 90.000000
_cell_angle_beta 90.000000
_cell_angle_gamma 90.000000
_cell_volume 2749.266706
_symmetry_space_group_name_H-M "C M M M"
_symmetry_group_IT_number 65
_symmetry_cell_setting 'orthorhombic'
loop_
_space_group_symop_operation_xyz
x,y,z
-x,-y,z
x,-y,-z
-x,y,-z
-x,-y,-z
x,y,-z
-x,y,z
x,-y,z
1/2+x,1/2+y,z
1/2-x,1/2-y,z
1/2+x,1/2-y,-z
1/2-x,1/2+y,-z
1/2-x,1/2-y,-z
1/2+x,1/2+y,-z
1/2-x,1/2+y,z
1/2+x,1/2-y,z
loop_
_atom_site_type_symbol
_atom_site_label
_atom_site_fract_x
_atom_site_fract_y
_atom_site_fract_z
Si Si1 0.101511 0.139165 0.167236
Si Si2 0.245618 0.858500 0.167606
Si Si3 0.574565 0.146941 0.168745
Si Si4 0.929358 0.627521 0.500000
Si Si5 0.594065 0.659113 0.500000
Si Si6 0.230389 0.101276 0.500000
O O1 0.173545 0.114063 0.167186
O O2 0.097792 0.249055 0.167090
O O3 0.075682 0.113630 0.336444
O O4 0.074926 0.109516 0.000000
O O5 0.250000 0.750000 0.165425
O O6 0.267009 0.886084 0.339538
O O7 0.271526 0.889873 0.000000
O O8 0.500000 0.150917 0.176030
O O9 0.596069 0.102841 0.330018
O O10 0.590028 0.106853 0.000000
O O11 0.929111 0.737726 0.500000
O O12 0.000000 0.597421 0.500000
O O13 0.669461 0.664509 0.500000
O O14 0.204801 0.000000 0.500000
#
# Coordination Sequence:
#
# PCOD9484719 Si02
#       6
#    16  16  16   8   8   8
#     4   8  13  21  33  49  68  90 118 150 182 218
#     4   9  17  29  44  60  78 101 130 162 193 228
#     4   8  12  17  26  42  64  87 111 141 177 216
#     4   8  12  18  29  43  59  82 113 148 183 216
#     4   8  14  23  33  47  67  90 117 150 188 223
#     4  10  19  29  42  59  79 102 127 159 197 234
#
# _framework density 26.188801000000002
#
# number of rings (size 3 to 8) (size 9 to 14) (size 15 to 20)
#    0.000    3.556    0.000    0.333    0.000    0.444 
#    0.000    0.000    0.000    0.333    0.000    0.000 
#    0.000    0.000    0.000  112.667    0.000    4.889 
#
# Total GULP energy -200713.150173 kJ/mol
# GULP energy per Si atom -5575.365283 kJ/mol
# Density = 2.612919 g / cm^3
# Si number density = 26.188801 Si / 1000 Ang^3
#
#
#
# Elastic Constant Matrix: (Units=GPa)
#
#
# Indices 1 2 3 4 5 6 
#
# 1 127.2012 7.3187 11.9410 0.0000 0.0000 0.0000
# 2 7.3187 95.2163 19.2368 0.0000 0.0000 0.0000
# 3 11.9410 19.2368 410.3211 0.0000 0.0000 0.0000
# 4 0.0000 0.0000 0.0000 -35.3383 0.0000 0.0000
# 5 0.0000 0.0000 0.0000 0.0000 -25.3842 0.0000
# 6 0.0000 0.0000 0.0000 0.0000 0.0000 -18.7699
#
#
#
# Elastic Compliance Matrix: (Units=1/GPa)
#
#
# Indices 1 2 3 4 5 6 
#
# 1 0.007913 -0.000567 -0.000204 0.000000 0.000000 0.000000
# 2 -0.000567 0.010643 -0.000482 0.000000 0.000000 0.000000
# 3 -0.000204 -0.000482 0.002466 0.000000 0.000000 0.000000
# 4 0.000000 0.000000 0.000000 -0.028298 0.000000 0.000000
# 5 0.000000 0.000000 0.000000 0.000000 -0.039395 0.000000
# 6 0.000000 0.000000 0.000000 0.000000 0.000000 -0.053277
#
#
# Mechanical properties :
#
#
# Convention : Reuss Voigt Hill
#
# Bulk Modulus (GPa) = 54.00770 78.85907 66.43338
# Shear Modulus (GPa) = -54.78352 23.71766 -15.53293
#
# Velocity S-wave (km/s) = -4.57866 3.01265 -2.43803
# Velocity P-wave (km/s) = 2.69906 6.50220 4.18292
#
# Compressibility (1/GPa) = 0.01851588
#
# Stress axis : x y z
#
# Youngs Moduli (GPa) = 126.36935 93.95427 405.57021
#
# Poissons Ratio (x) = 0.05328 0.08262
# Poissons Ratio (y) = 0.07166 0.19568
# Poissons Ratio (z) = 0.02574 0.04533
#
# Static dielectric constant tensor:
#      x y z
#    x 1.971710 0.000000 0.000000 
#    y 0.000000 1.922170 0.000000 
#    z 0.000000 0.000000 2.176380 
# 
# From -- ./inp_files/9521.got.cif
#   From: 2010.05.17/outbox.cif.g08.bks.cpg/sg65_5_cif.got.tgz:9521.got - 2010.06.03 17:01:31.
