data_PCOD9484682
_publ_section_title
;
Structure prediction by ZEFSAII (Michael W. Deem and Ramdas Pophale) SiO2 
 PCOD9484682
Probable space group: C M M M
;
_chemical_formula_sum "Si O2"
_cell_formula_units_Z 80
_cell_length_a 22.244430
_cell_length_b 19.856242
_cell_length_c 7.514087
_cell_angle_alpha 90.000000
_cell_angle_beta 90.000000
_cell_angle_gamma 90.000000
_cell_volume 3318.902987
_symmetry_space_group_name_H-M "C M M M"
_symmetry_group_IT_number 65
_symmetry_cell_setting 'orthorhombic'
loop_
_space_group_symop_operation_xyz
x,y,z
-x,-y,z
x,-y,-z
-x,y,-z
-x,-y,-z
x,y,-z
-x,y,z
x,-y,z
1/2+x,1/2+y,z
1/2-x,1/2-y,z
1/2+x,1/2-y,-z
1/2-x,1/2+y,-z
1/2-x,1/2-y,-z
1/2+x,1/2+y,-z
1/2-x,1/2+y,z
1/2+x,1/2-y,z
loop_
_atom_site_type_symbol
_atom_site_label
_atom_site_fract_x
_atom_site_fract_y
_atom_site_fract_z
Si Si1 0.747478 0.852987 0.717552
Si Si2 0.376988 0.500000 0.781013
Si Si3 0.387807 0.645350 0.200597
Si Si4 0.371077 0.791237 0.710896
Si Si5 0.929530 0.427498 0.716568
Si Si6 0.734831 0.000000 0.295167
O O1 0.754415 0.851540 0.500000
O O2 0.814718 0.851556 0.791124
O O3 0.698403 0.797681 0.771961
O O4 0.719718 0.925716 0.772672
O O5 0.403928 0.428068 0.720269
O O6 0.307973 0.500000 0.715920
O O7 0.375525 0.500000 0.000000
O O8 0.403521 0.719868 0.265787
O O9 0.409401 0.642387 0.000000
O O10 0.366631 0.799801 0.500000
O O11 0.403836 0.857080 0.783662
O O12 0.924292 0.426902 0.500000
O O13 0.903476 0.500000 0.775875
O O14 0.000000 0.428316 0.757833
O O15 0.715086 0.000000 0.500000
#
# Coordination Sequence:
#
# PCOD9484682 Si02
#       6
#    16   8  16  16  16   8
#     4   9  17  27  40  61  91 122 152 188 226 264
#     4   8  16  30  44  56  77 114 153 184 214 254
#     4  10  19  31  45  62  88 122 157 189 224 270
#     4  10  19  28  44  69  94 117 148 190 232 271
#     4   8  15  29  49  72  96 122 154 192 232 274
#     4   8  14  24  38  56  79 113 151 182 214 253
#
# _framework density 24.10435
#
# number of rings (size 3 to 8) (size 9 to 14) (size 15 to 20)
#    0.000    3.000    0.000    1.800    1.400    4.000 
#    0.000    0.000    0.000    1.200    0.000    2.100 
#    0.000    5.600    0.000    0.000    0.000    0.000 
#
# Total GULP energy -222880.462095 kJ/mol
# GULP energy per Si atom -5572.011552 kJ/mol
# Density = 2.404949 g / cm^3
# Si number density = 24.104350 Si / 1000 Ang^3
#
#
#
# Elastic Constant Matrix: (Units=GPa)
#
#
# Indices 1 2 3 4 5 6 
#
# 1 12.0798 22.4737 -0.1138 0.0000 0.0000 0.0000
# 2 22.4737 210.9722 -5.1157 0.0000 0.0000 0.0000
# 3 -0.1138 -5.1157 54.4735 0.0000 0.0000 0.0000
# 4 0.0000 0.0000 0.0000 27.8428 0.0000 0.0000
# 5 0.0000 0.0000 0.0000 0.0000 4.1400 0.0000
# 6 0.0000 0.0000 0.0000 0.0000 0.0000 26.7400
#
#
#
# Elastic Compliance Matrix: (Units=1/GPa)
#
#
# Indices 1 2 3 4 5 6 
#
# 1 0.103280 -0.011022 -0.000819 0.000000 0.000000 0.000000
# 2 -0.011022 0.005927 0.000534 0.000000 0.000000 0.000000
# 3 -0.000819 0.000534 0.018406 0.000000 0.000000 0.000000
# 4 0.000000 0.000000 0.000000 0.035916 0.000000 0.000000
# 5 0.000000 0.000000 0.000000 0.000000 0.241547 0.000000
# 6 0.000000 0.000000 0.000000 0.000000 0.000000 0.037397
#
#
# Mechanical properties :
#
#
# Convention : Reuss Voigt Hill
#
# Bulk Modulus (GPa) = 9.52400 34.66822 22.09611
# Shear Modulus (GPa) = 9.99825 29.09663 19.54744
#
# Velocity S-wave (km/s) = 2.03885 3.47812 2.85081
# Velocity P-wave (km/s) = 3.08258 5.52662 4.47470
#
# Compressibility (1/GPa) = 0.10499788
#
# Stress axis : x y z
#
# Youngs Moduli (GPa) = 9.68243 168.71998 54.33029
#
# Poissons Ratio (x) = 1.85958 0.04452
# Poissons Ratio (y) = 0.10672 -0.02899
# Poissons Ratio (z) = 0.00793 -0.09003
#
# Static dielectric constant tensor:
#      x y z
#    x 1.905170 0.000000 0.000000 
#    y 0.000000 2.043060 0.000000 
#    z 0.000000 0.000000 1.987340 
# 
# From -- ./inp_files/18222.got.cif
#   From: 2010.05.17/outbox.cif.g08.bks.cpg/sg65_10_cif.got.tgz:18222.got - 2010.06.03 17:01:31.
