data_PCOD9484902
_publ_section_title
;
Structure prediction by ZEFSAII (Michael W. Deem and Ramdas Pophale) SiO2 
 PCOD9484902
Probable space group: C M M M
;
_chemical_formula_sum "Si O2"
_cell_formula_units_Z 104
_cell_length_a 36.898201
_cell_length_b 9.049611
_cell_length_c 25.451340
_cell_angle_alpha 90.000000
_cell_angle_beta 90.000000
_cell_angle_gamma 90.000000
_cell_volume 8498.568051
_symmetry_space_group_name_H-M "C M M M"
_symmetry_group_IT_number 65
_symmetry_cell_setting 'orthorhombic'
loop_
_space_group_symop_operation_xyz
x,y,z
-x,-y,z
x,-y,-z
-x,y,-z
-x,-y,-z
x,y,-z
-x,y,z
x,-y,z
1/2+x,1/2+y,z
1/2-x,1/2-y,z
1/2+x,1/2-y,-z
1/2-x,1/2+y,-z
1/2-x,1/2-y,-z
1/2+x,1/2+y,-z
1/2-x,1/2+y,z
1/2+x,1/2-y,z
loop_
_atom_site_type_symbol
_atom_site_label
_atom_site_fract_x
_atom_site_fract_y
_atom_site_fract_z
Si Si1 0.955975 0.327034 0.941810
Si Si2 0.213277 0.829873 0.436168
Si Si3 0.071654 0.821967 0.624333
Si Si4 0.500000 0.679300 0.440164
Si Si5 0.543192 0.824119 0.272129
Si Si6 0.637660 0.176554 0.562383
Si Si7 0.955931 0.830733 0.836108
O O1 0.946639 0.500000 0.936073
O O2 0.943132 0.236031 0.891510
O O3 0.000000 0.319827 0.941752
O O4 0.944135 0.276132 0.000000
O O5 0.214630 0.831441 0.500000
O O6 0.250000 0.750000 0.418003
O O7 0.176938 0.741295 0.422499
O O8 0.211592 0.000000 0.418681
O O9 0.036166 0.776848 0.590557
O O10 0.064915 0.758789 0.682345
O O11 0.106578 0.754002 0.596185
O O12 0.073771 0.000000 0.625238
O O13 0.500000 0.500000 0.441548
O O14 0.500000 0.733341 0.500000
O O15 0.500000 0.792012 0.278908
O O16 0.553983 0.765891 0.214534
O O17 0.547898 0.000000 0.275799
O O18 0.632021 0.207829 0.500000
O O19 0.636963 0.000000 0.569152
O O20 0.000000 0.829391 0.837906
O O21 0.944424 0.000000 0.829564
#
# Coordination Sequence:
#
# PCOD9484902 Si02
#       7
#    16  16  16   8  16  16  16
#     4   8  13  21  32  46  65  87 108 131 166 212
#     4   9  16  27  44  64  83 102 121 141 169 209
#     4  11  20  31  45  58  74  94 121 155 190 228
#     4   9  18  30  43  57  71  89 114 147 188 231
#     4  10  19  30  42  53  68  89 117 151 188 226
#     4  10  20  32  44  60  81 101 121 147 180 221
#     4   9  16  24  35  50  66  84 110 142 176 213
#
# _framework density 12.237356
#
# number of rings (size 3 to 8) (size 9 to 14) (size 15 to 20)
#    0.000    2.538    0.769    3.231    0.000    6.154 
#    0.000    1.538    0.000    1.846    0.000    0.000 
#    0.000    0.000    0.000    0.000    0.000    0.000 
#
# Total GULP energy -289714.731709 kJ/mol
# GULP energy per Si atom -5571.437148 kJ/mol
# Density = 1.220950 g / cm^3
# Si number density = 12.237356 Si / 1000 Ang^3
#
#
#
# Elastic Constant Matrix: (Units=GPa)
#
#
# Indices 1 2 3 4 5 6 
#
# 1 68.5644 37.6496 36.3669 0.0000 0.0000 0.0000
# 2 37.6496 72.5277 44.6244 0.0000 0.0000 0.0000
# 3 36.3669 44.6244 87.2305 0.0000 0.0000 0.0000
# 4 0.0000 0.0000 0.0000 20.5714 0.0000 0.0000
# 5 0.0000 0.0000 0.0000 0.0000 1.6689 0.0000
# 6 0.0000 0.0000 0.0000 0.0000 0.0000 16.3804
#
#
#
# Elastic Compliance Matrix: (Units=1/GPa)
#
#
# Indices 1 2 3 4 5 6 
#
# 1 0.021690 -0.008312 -0.004791 0.000000 0.000000 0.000000
# 2 -0.008312 0.023306 -0.008457 0.000000 0.000000 0.000000
# 3 -0.004791 -0.008457 0.017788 0.000000 0.000000 0.000000
# 4 0.000000 0.000000 0.000000 0.048611 0.000000 0.000000
# 5 0.000000 0.000000 0.000000 0.000000 0.599213 0.000000
# 6 0.000000 0.000000 0.000000 0.000000 0.000000 0.061048
#
#
# Mechanical properties :
#
#
# Convention : Reuss Voigt Hill
#
# Bulk Modulus (GPa) = 50.85430 51.73383 51.29407
# Shear Modulus (GPa) = 6.08768 15.03625 10.56197
#
# Velocity S-wave (km/s) = 2.23282 3.50911 2.94103
# Velocity P-wave (km/s) = 6.94940 7.66717 7.31709
#
# Compressibility (1/GPa) = 0.01966402
#
# Stress axis : x y z
#
# Youngs Moduli (GPa) = 46.10443 42.90700 56.21874
#
# Poissons Ratio (x) = 0.35664 0.26932
# Poissons Ratio (y) = 0.38321 0.47547
# Poissons Ratio (z) = 0.22087 0.36288
#
# Static dielectric constant tensor:
#      x y z
#    x 1.369470 0.000000 0.000000 
#    y 0.000000 1.408300 0.000000 
#    z 0.000000 0.000000 1.396120 
# 
# From -- ./inp_files/72145.got.cif
#   From: 2010.05.17/outbox.cif.g08.bks.cpg/sg65_37_cif.got.tgz:72145.got - 2010.06.03 17:01:31.
