data_PCOD9484078
_publ_section_title
;
Structure prediction by ZEFSAII (Michael W. Deem and Ramdas Pophale) SiO2 
 PCOD9484078
Probable space group: C M M M
;
_chemical_formula_sum "Si O2"
_cell_formula_units_Z 104
_cell_length_a 30.572551
_cell_length_b 7.652756
_cell_length_c 23.877293
_cell_angle_alpha 90.000000
_cell_angle_beta 90.000000
_cell_angle_gamma 90.000000
_cell_volume 5586.433500
_symmetry_space_group_name_H-M "C M M M"
_symmetry_group_IT_number 65
_symmetry_cell_setting 'orthorhombic'
loop_
_space_group_symop_operation_xyz
x,y,z
-x,-y,z
x,-y,-z
-x,y,-z
-x,-y,-z
x,y,-z
-x,y,z
x,-y,z
1/2+x,1/2+y,z
1/2-x,1/2-y,z
1/2+x,1/2-y,-z
1/2-x,1/2+y,-z
1/2-x,1/2-y,-z
1/2+x,1/2+y,-z
1/2-x,1/2+y,z
1/2+x,1/2-y,z
loop_
_atom_site_type_symbol
_atom_site_label
_atom_site_fract_x
_atom_site_fract_y
_atom_site_fract_z
Si Si1 0.391133 0.708088 0.108457
Si Si2 0.298704 0.710075 0.064426
Si Si3 0.203691 0.292616 0.436031
Si Si4 0.050535 0.290706 0.000000
Si Si5 0.550692 0.286220 0.789208
Si Si6 0.391121 0.295157 0.563748
Si Si7 0.449345 0.713066 0.663866
O O1 0.386735 0.500000 0.116712
O O2 0.342042 0.775936 0.096282
O O3 0.416796 0.777440 0.162641
O O4 0.422068 0.734452 0.054479
O O5 0.302115 0.500000 0.062299
O O6 0.250000 0.750000 0.086821
O O7 0.300454 0.775396 0.000000
O O8 0.206027 0.221274 0.500000
O O9 0.199603 0.500000 0.438331
O O10 0.250000 0.250000 0.408322
O O11 0.158427 0.219822 0.413898
O O12 0.048889 0.500000 0.000000
O O13 0.000000 0.226169 0.000000
O O14 0.500000 0.233832 0.799072
O O15 0.550579 0.500000 0.790134
O O16 0.564083 0.231636 0.726423
O O17 0.393249 0.221530 0.500000
O O18 0.401659 0.500000 0.558650
O O19 0.422296 0.218847 0.611131
O O20 0.500000 0.758451 0.657181
O O21 0.446375 0.500000 0.663609
#
# Coordination Sequence:
#
# PCOD9484078 Si02
#       7
#    16  16  16   8  16  16  16
#     4  10  18  31  50  70  89 115 154 191 222 261
#     4   9  17  29  44  65  90 114 144 181 218 260
#     4   9  16  26  41  61  86 114 144 180 221 268
#     4  11  23  33  42  65 100 127 144 173 224 275
#     4   8  14  25  44  68  89 113 148 189 227 261
#     4   9  16  25  40  64  92 120 149 183 226 272
#     4   8  14  25  41  64  92 118 150 190 225 260
#
# _framework density 18.616530000000001
#
# number of rings (size 3 to 8) (size 9 to 14) (size 15 to 20)
#    0.000    3.000    0.769    2.077    0.000    4.000 
#    0.000    1.538    0.000    2.308    0.000    6.462 
#    0.000    0.000    0.000    0.000    0.000    0.000 
#
# Total GULP energy -289613.021784 kJ/mol
# GULP energy per Si atom -5569.481188 kJ/mol
# Density = 1.857416 g / cm^3
# Si number density = 18.616530 Si / 1000 Ang^3
#
#
#
# Elastic Constant Matrix: (Units=GPa)
#
#
# Indices 1 2 3 4 5 6 
#
# 1 154.5758 -0.7444 100.4244 0.0000 0.0000 0.0000
# 2 -0.7444 34.5148 3.1993 0.0000 0.0000 0.0000
# 3 100.4244 3.1993 127.5899 0.0000 0.0000 0.0000
# 4 0.0000 0.0000 0.0000 -5.2796 0.0000 0.0000
# 5 0.0000 0.0000 0.0000 0.0000 20.1522 0.0000
# 6 0.0000 0.0000 0.0000 0.0000 0.0000 13.0446
#
#
#
# Elastic Compliance Matrix: (Units=1/GPa)
#
#
# Indices 1 2 3 4 5 6 
#
# 1 0.013294 0.001260 -0.010495 0.000000 0.000000 0.000000
# 2 0.001260 0.029160 -0.001723 0.000000 0.000000 0.000000
# 3 -0.010495 -0.001723 0.016141 0.000000 0.000000 0.000000
# 4 0.000000 0.000000 0.000000 -0.189410 0.000000 0.000000
# 5 0.000000 0.000000 0.000000 0.000000 0.049622 0.000000
# 6 0.000000 0.000000 0.000000 0.000000 0.000000 0.076660
#
#
# Mechanical properties :
#
#
# Convention : Reuss Voigt Hill
#
# Bulk Modulus (GPa) = 27.26355 58.04879 42.65617
# Shear Modulus (GPa) = 168.86430 19.83686 94.35058
#
# Velocity S-wave (km/s) = 9.53434 3.26782 7.12679
# Velocity P-wave (km/s) = 11.65682 6.74442 9.52283
#
# Compressibility (1/GPa) = 0.03667901
#
# Stress axis : x y z
#
# Youngs Moduli (GPa) = 75.22385 34.29366 61.95338
#
# Poissons Ratio (x) = -0.04319 0.65019
# Poissons Ratio (y) = -0.09475 0.10672
# Poissons Ratio (z) = 0.78946 0.05907
#
# Static dielectric constant tensor:
#      x y z
#    x 1.667410 0.000000 0.000000 
#    y 0.000000 1.691370 0.000000 
#    z 0.000000 0.000000 1.640990 
# 
# From -- ./inp_files/72154.got.cif
#   From: 2010.05.17/outbox.cif.g08.bks.cpg/sg65_37_cif.got.tgz:72154.got - 2010.06.03 17:01:31.
