data_PCOD9484016
_publ_section_title
;
Structure prediction by ZEFSAII (Michael W. Deem and Ramdas Pophale) SiO2 
 PCOD9484016
Probable space group: C M M M
;
_chemical_formula_sum "Si O2"
_cell_formula_units_Z 66
_cell_length_a 8.814744
_cell_length_b 19.205152
_cell_length_c 20.749335
_cell_angle_alpha 90.000000
_cell_angle_beta 90.000000
_cell_angle_gamma 90.000000
_cell_volume 3512.623764
_symmetry_space_group_name_H-M "C M M M"
_symmetry_group_IT_number 65
_symmetry_cell_setting 'orthorhombic'
loop_
_space_group_symop_operation_xyz
x,y,z
-x,-y,z
x,-y,-z
-x,y,-z
-x,-y,-z
x,y,-z
-x,y,z
x,-y,z
1/2+x,1/2+y,z
1/2-x,1/2-y,z
1/2+x,1/2-y,-z
1/2-x,1/2+y,-z
1/2-x,1/2-y,-z
1/2+x,1/2+y,-z
1/2-x,1/2+y,z
1/2+x,1/2-y,z
loop_
_atom_site_type_symbol
_atom_site_label
_atom_site_fract_x
_atom_site_fract_y
_atom_site_fract_z
Si Si1 0.318264 0.827363 0.132280
Si Si2 0.820192 0.177562 0.635538
Si Si3 0.832486 0.644555 0.500000
Si Si4 0.318266 0.671643 0.000000
Si Si5 0.818581 0.581071 0.741841
Si Si6 0.000000 0.500000 0.500000
O O1 0.500000 0.821497 0.124211
O O2 0.250000 0.750000 0.142413
O O3 0.245448 0.858193 0.066867
O O4 0.285579 0.875625 0.193488
O O5 0.750000 0.250000 0.660442
O O6 0.755048 0.164812 0.564314
O O7 0.765862 0.116156 0.682233
O O8 0.000000 0.182557 0.634566
O O9 0.000000 0.679688 0.500000
O O10 0.870790 0.562397 0.500000
O O11 0.250000 0.750000 0.000000
O O12 0.500000 0.673333 0.000000
O O13 0.779949 0.500000 0.749083
O O14 0.000000 0.585869 0.730001
#
# Coordination Sequence:
#
# PCOD9484016 Si02
#       6
#    16  16   8   8  16   2
#     4  10  19  34  57  84 113 148 191 239 287 346
#     4  12  25  41  63  92 121 156 198 248 297 347
#     4  10  22  42  66  90 120 157 196 234 290 350
#     4  10  18  30  53  82 113 147 185 237 291 344
#     4  10  23  41  61  84 118 158 197 240 295 354
#     4   8  24  40  70  92 120 168 188 234 308 340
#
# _framework density 18.789375
#
# number of rings (size 3 to 8) (size 9 to 14) (size 15 to 20)
#    0.364    1.212    0.000    6.909    1.697    4.364 
#    0.000    1.212    0.000    3.636    0.000    0.000 
#    0.000    0.000    0.000    0.000    0.000    0.000 
#
# Total GULP energy -184080.944079 kJ/mol
# GULP energy per Si atom -5578.210427 kJ/mol
# Density = 1.874661 g / cm^3
# Si number density = 18.789375 Si / 1000 Ang^3
#
#
#
# Elastic Constant Matrix: (Units=GPa)
#
#
# Indices 1 2 3 4 5 6 
#
# 1 121.1473 56.9198 93.0549 0.0000 0.0000 0.0000
# 2 56.9198 108.0770 52.2668 0.0000 0.0000 0.0000
# 3 93.0549 52.2668 148.0817 0.0000 0.0000 0.0000
# 4 0.0000 0.0000 0.0000 -201.9365 0.0000 0.0000
# 5 0.0000 0.0000 0.0000 0.0000 26.4154 0.0000
# 6 0.0000 0.0000 0.0000 0.0000 0.0000 26.9475
#
#
#
# Elastic Compliance Matrix: (Units=1/GPa)
#
#
# Indices 1 2 3 4 5 6 
#
# 1 0.017792 -0.004779 -0.009494 0.000000 0.000000 0.000000
# 2 -0.004779 0.012441 -0.001388 0.000000 0.000000 0.000000
# 3 -0.009494 -0.001388 0.013209 0.000000 0.000000 0.000000
# 4 0.000000 0.000000 0.000000 -0.004952 0.000000 0.000000
# 5 0.000000 0.000000 0.000000 0.000000 0.037857 0.000000
# 6 0.000000 0.000000 0.000000 0.000000 0.000000 0.037109
#
#
# Mechanical properties :
#
#
# Convention : Reuss Voigt Hill
#
# Bulk Modulus (GPa) = 82.50709 86.86546 84.68628
# Shear Modulus (GPa) = 33.59823 -18.04375 7.77724
#
# Velocity S-wave (km/s) = 4.23324 -3.10226 2.03670
# Velocity P-wave (km/s) = 8.24019 5.78788 7.12040
#
# Compressibility (1/GPa) = 0.01212017
#
# Stress axis : x y z
#
# Youngs Moduli (GPa) = 56.20445 80.38040 75.70692
#
# Poissons Ratio (x) = 0.38415 0.71875
# Poissons Ratio (y) = 0.26861 0.10507
# Poissons Ratio (z) = 0.53359 0.11156
#
# Static dielectric constant tensor:
#      x y z
#    x 1.644930 0.000000 0.000000 
#    y 0.000000 1.640770 0.000000 
#    z 0.000000 0.000000 1.663170 
# 
# From -- ./inp_files/49249.got.cif
#   From: 2010.05.17/outbox.cif.g08.bks.cpg/sg65_25_cif.got.tgz:49249.got - 2010.06.03 17:01:31.
