data_PCOD9484442
_publ_section_title
;
Structure prediction by ZEFSAII (Michael W. Deem and Ramdas Pophale) SiO2 
 PCOD9484442
Probable space group: C M M M
;
_chemical_formula_sum "Si O2"
_cell_formula_units_Z 68
_cell_length_a 12.403663
_cell_length_b 15.886829
_cell_length_c 17.664489
_cell_angle_alpha 90.000000
_cell_angle_beta 90.000000
_cell_angle_gamma 90.000000
_cell_volume 3480.873637
_symmetry_space_group_name_H-M "C M M M"
_symmetry_group_IT_number 65
_symmetry_cell_setting 'orthorhombic'
loop_
_space_group_symop_operation_xyz
x,y,z
-x,-y,z
x,-y,-z
-x,y,-z
-x,-y,-z
x,y,-z
-x,y,z
x,-y,z
1/2+x,1/2+y,z
1/2-x,1/2-y,z
1/2+x,1/2-y,-z
1/2-x,1/2+y,-z
1/2-x,1/2-y,-z
1/2+x,1/2+y,-z
1/2-x,1/2+y,z
1/2+x,1/2-y,z
loop_
_atom_site_type_symbol
_atom_site_label
_atom_site_fract_x
_atom_site_fract_y
_atom_site_fract_z
Si Si1 0.000000 0.639026 0.000000
Si Si2 0.248281 0.099709 0.000000
Si Si3 0.373526 0.898455 0.585408
Si Si4 0.619965 0.401028 0.143955
Si Si5 0.784341 0.654370 0.258434
Si Si6 0.000000 0.397375 0.832473
O O1 0.876410 0.605871 0.000000
O O2 0.000000 0.658490 0.091050
O O3 0.191320 0.135893 0.075094
O O4 0.228454 0.000000 0.000000
O O5 0.341532 0.873928 0.500000
O O6 0.500000 0.875993 0.595620
O O7 0.304631 0.860909 0.653195
O O8 0.367710 0.000000 0.590265
O O9 0.500000 0.364094 0.146910
O O10 0.608977 0.500000 0.128312
O O11 0.685232 0.394669 0.221333
O O12 0.750000 0.750000 0.244491
O O13 0.893150 0.624672 0.215421
O O14 0.000000 0.500000 0.849738
#
# Coordination Sequence:
#
# PCOD9484442 Si02
#       6
#     4   8  16  16  16   8
#     4  12  21  34  64  96 118 150 223 288 317 348
#     4  10  18  32  55  86 112 146 202 271 316 356
#     4   9  18  36  65  97 123 153 201 257 313 374
#     4  10  21  37  57  80 114 160 207 251 307 377
#     4  12  25  37  60  88 129 162 203 255 315 370
#     4  12  23  42  67  92 122 165 219 271 317 366
#
# _framework density 19.535325
#
# number of rings (size 3 to 8) (size 9 to 14) (size 15 to 20)
#    0.000    1.412    3.529    4.235    1.647    1.882 
#    0.000    2.353    0.000    0.706    0.000    3.294 
#    0.000    0.000    0.000    0.000    0.000    0.000 
#
# Total GULP energy -189401.743870 kJ/mol
# GULP energy per Si atom -5570.639526 kJ/mol
# Density = 1.949086 g / cm^3
# Si number density = 19.535325 Si / 1000 Ang^3
#
#
#
# Elastic Constant Matrix: (Units=GPa)
#
#
# Indices 1 2 3 4 5 6 
#
# 1 141.5924 26.5456 63.8308 0.0000 0.0000 0.0000
# 2 26.5456 32.6430 7.2350 0.0000 0.0000 0.0000
# 3 63.8308 7.2350 131.4876 0.0000 0.0000 0.0000
# 4 0.0000 0.0000 0.0000 -33.9909 0.0000 0.0000
# 5 0.0000 0.0000 0.0000 0.0000 -1.5792 0.0000
# 6 0.0000 0.0000 0.0000 0.0000 0.0000 17.7683
#
#
#
# Elastic Compliance Matrix: (Units=1/GPa)
#
#
# Indices 1 2 3 4 5 6 
#
# 1 0.010621 -0.007587 -0.004739 0.000000 0.000000 0.000000
# 2 -0.007587 0.036432 0.001678 0.000000 0.000000 0.000000
# 3 -0.004739 0.001678 0.009813 0.000000 0.000000 0.000000
# 4 0.000000 0.000000 0.000000 -0.029420 0.000000 0.000000
# 5 0.000000 0.000000 0.000000 0.000000 -0.633228 0.000000
# 6 0.000000 0.000000 0.000000 0.000000 0.000000 0.056280
#
#
# Mechanical properties :
#
#
# Convention : Reuss Voigt Hill
#
# Bulk Modulus (GPa) = 28.11166 55.66064 41.88615
# Shear Modulus (GPa) = -9.68336 10.31375 0.31520
#
# Velocity S-wave (km/s) = -2.22881 2.30022 0.40212
# Velocity P-wave (km/s) = 2.79248 5.96731 4.65869
#
# Compressibility (1/GPa) = 0.03557243
#
# Stress axis : x y z
#
# Youngs Moduli (GPa) = 94.15238 27.44828 101.90296
#
# Poissons Ratio (x) = 0.20825 0.48287
# Poissons Ratio (y) = 0.71433 -0.17104
# Poissons Ratio (z) = 0.44615 -0.04607
#
# Static dielectric constant tensor:
#      x y z
#    x 1.674430 0.000000 0.000000 
#    y 0.000000 1.663610 0.000000 
#    z 0.000000 0.000000 1.696420 
# 
# From -- ./inp_files/61233.got.cif
#   From: 2010.05.17/outbox.cif.g08.bks.cpg/sg65_31_cif.got.tgz:61233.got - 2010.06.03 17:01:31.
