data_PCOD9484060
_publ_section_title
;
Structure prediction by ZEFSAII (Michael W. Deem and Ramdas Pophale) SiO2 
 PCOD9484060
Probable space group: C M M M
;
_chemical_formula_sum "Si O2"
_cell_formula_units_Z 88
_cell_length_a 19.955155
_cell_length_b 31.022861
_cell_length_c 7.583888
_cell_angle_alpha 90.000000
_cell_angle_beta 90.000000
_cell_angle_gamma 90.000000
_cell_volume 4694.927207
_symmetry_space_group_name_H-M "C M M M"
_symmetry_group_IT_number 65
_symmetry_cell_setting 'orthorhombic'
loop_
_space_group_symop_operation_xyz
x,y,z
-x,-y,z
x,-y,-z
-x,y,-z
-x,-y,-z
x,y,-z
-x,y,z
x,-y,z
1/2+x,1/2+y,z
1/2-x,1/2-y,z
1/2+x,1/2-y,-z
1/2-x,1/2+y,-z
1/2-x,1/2-y,-z
1/2+x,1/2+y,-z
1/2-x,1/2+y,z
1/2+x,1/2-y,z
loop_
_atom_site_type_symbol
_atom_site_label
_atom_site_fract_x
_atom_site_fract_y
_atom_site_fract_z
Si Si1 0.214445 0.792693 0.207725
Si Si2 0.925372 0.656085 0.210214
Si Si3 0.424901 0.743533 0.289324
Si Si4 0.075956 0.052358 0.500000
Si Si5 0.787085 0.621313 0.215512
Si Si6 0.182012 0.051079 0.208372
O O1 0.250000 0.750000 0.284336
O O2 0.135154 0.786536 0.226668
O O3 0.244481 0.837149 0.277089
O O4 0.230469 0.793176 0.000000
O O5 0.910216 0.706824 0.237737
O O6 0.863182 0.628175 0.277859
O O7 0.000000 0.647809 0.283018
O O8 0.928577 0.649464 0.000000
O O9 0.425934 0.741680 0.500000
O O10 0.500000 0.733286 0.223699
O O11 0.119045 0.064470 0.328117
O O12 0.000000 0.068907 0.500000
O O13 0.072426 0.000000 0.500000
O O14 0.746752 0.578553 0.263825
O O15 0.789050 0.621574 0.000000
O O16 0.192951 0.000000 0.232970
O O17 0.169296 0.058560 0.000000
#
# Coordination Sequence:
#
# PCOD9484060 Si02
#       6
#    16  16  16   8  16  16
#     4  10  18  31  49  68  91 122 162 205 242 286
#     4   9  16  29  50  71  94 128 168 207 245 286
#     4  10  20  32  44  64  97 129 160 201 245 292
#     4   9  18  34  56  82 106 129 169 215 251 305
#     4   9  17  31  50  74  98 123 164 208 245 296
#     4   9  18  34  55  78 106 137 167 207 257 300
#
# _framework density 18.743634
#
# number of rings (size 3 to 8) (size 9 to 14) (size 15 to 20)
#    0.000    2.636    1.818    0.545    0.000    1.818 
#    3.273    2.727    0.000    3.818    0.000    3.818 
#    0.000    2.182    0.000    0.182    0.000    0.000 
#
# Total GULP energy -245321.927908 kJ/mol
# GULP energy per Si atom -5575.498362 kJ/mol
# Density = 1.870097 g / cm^3
# Si number density = 18.743634 Si / 1000 Ang^3
#
#
#
# Elastic Constant Matrix: (Units=GPa)
#
#
# Indices 1 2 3 4 5 6 
#
# 1 153.3590 60.1698 16.5056 0.0000 0.0000 0.0000
# 2 60.1698 55.1593 22.6563 0.0000 0.0000 0.0000
# 3 16.5056 22.6563 49.6839 0.0000 0.0000 0.0000
# 4 0.0000 0.0000 0.0000 -15.4450 0.0000 0.0000
# 5 0.0000 0.0000 0.0000 0.0000 -47.8622 0.0000
# 6 0.0000 0.0000 0.0000 0.0000 0.0000 28.7385
#
#
#
# Elastic Compliance Matrix: (Units=1/GPa)
#
#
# Indices 1 2 3 4 5 6 
#
# 1 0.011621 -0.013646 0.002362 0.000000 0.000000 0.000000
# 2 -0.013646 0.038333 -0.012947 0.000000 0.000000 0.000000
# 3 0.002362 -0.012947 0.025246 0.000000 0.000000 0.000000
# 4 0.000000 0.000000 0.000000 -0.064746 0.000000 0.000000
# 5 0.000000 0.000000 0.000000 0.000000 -0.020893 0.000000
# 6 0.000000 0.000000 0.000000 0.000000 0.000000 0.034796
#
#
# Mechanical properties :
#
#
# Convention : Reuss Voigt Hill
#
# Bulk Modulus (GPa) = 37.39943 50.76285 44.08114
# Shear Modulus (GPa) = 61.17605 3.67763 32.42684
#
# Velocity S-wave (km/s) = 5.71919 1.40226 4.16386
# Velocity P-wave (km/s) = 7.97550 5.45557 6.83271
#
# Compressibility (1/GPa) = 0.02673838
#
# Stress axis : x y z
#
# Youngs Moduli (GPa) = 86.05474 26.08713 39.60990
#
# Poissons Ratio (x) = 0.35600 -0.09357
# Poissons Ratio (y) = 1.17434 0.51282
# Poissons Ratio (z) = -0.20330 0.33774
#
# Static dielectric constant tensor:
#      x y z
#    x 1.647280 0.000000 0.000000 
#    y 0.000000 1.622380 0.000000 
#    z 0.000000 0.000000 1.689560 
# 
# From -- ./inp_files/10113.got.cif
#   From: 2010.05.17/outbox.cif.g08.bks.cpg/sg65_6_cif.got.tgz:10113.got - 2010.06.03 17:01:31.
