data_PCOD9484567
_publ_section_title
;
Structure prediction by ZEFSAII (Michael W. Deem and Ramdas Pophale) SiO2 
 PCOD9484567
Probable space group: C M M M
;
_chemical_formula_sum "Si O2"
_cell_formula_units_Z 104
_cell_length_a 28.530047
_cell_length_b 23.147393
_cell_length_c 7.475259
_cell_angle_alpha 90.000000
_cell_angle_beta 90.000000
_cell_angle_gamma 90.000000
_cell_volume 4936.632714
_symmetry_space_group_name_H-M "C M M M"
_symmetry_group_IT_number 65
_symmetry_cell_setting 'orthorhombic'
loop_
_space_group_symop_operation_xyz
x,y,z
-x,-y,z
x,-y,-z
-x,y,-z
-x,-y,-z
x,y,-z
-x,y,z
x,-y,z
1/2+x,1/2+y,z
1/2-x,1/2-y,z
1/2+x,1/2-y,-z
1/2-x,1/2+y,-z
1/2-x,1/2-y,-z
1/2+x,1/2+y,-z
1/2-x,1/2+y,z
1/2+x,1/2-y,z
loop_
_atom_site_type_symbol
_atom_site_label
_atom_site_fract_x
_atom_site_fract_y
_atom_site_fract_z
Si Si1 0.577781 0.161676 0.715945
Si Si2 0.669621 0.500000 0.787500
Si Si3 0.551999 0.294942 0.212295
Si Si4 0.175621 0.615715 0.710867
Si Si5 0.000000 0.432025 0.718018
Si Si6 0.266709 0.311296 0.784668
Si Si7 0.638576 0.626809 0.780440
Si Si8 0.781645 0.500000 0.282553
O O1 0.576279 0.161729 0.500000
O O2 0.563004 0.226628 0.766607
O O3 0.630263 0.148451 0.782336
O O4 0.544125 0.108500 0.772630
O O5 0.647072 0.560375 0.721043
O O6 0.726251 0.500000 0.762380
O O7 0.662059 0.500000 0.000000
O O8 0.500000 0.305937 0.286512
O O9 0.592537 0.338094 0.279927
O O10 0.550290 0.305187 0.000000
O O11 0.166207 0.608672 0.500000
O O12 0.223885 0.648507 0.735690
O O13 0.188947 0.553966 0.785890
O O14 0.000000 0.500000 0.776189
O O15 0.000000 0.434274 0.500000
O O16 0.250000 0.250000 0.714410
O O17 0.315968 0.336475 0.722143
O O18 0.270326 0.307858 0.000000
O O19 0.638341 0.625986 0.000000
O O20 0.782205 0.500000 0.500000
#
# Coordination Sequence:
#
# PCOD9484567 Si02
#       8
#    16   8  16  16   8  16  16   8
#     4  10  20  35  55  79 105 137 178 219 260 312
#     4  10  18  34  57  76 101 141 185 219 258 322
#     4  10  20  36  57  79 105 137 174 220 277 324
#     4  10  21  33  49  75 106 135 166 210 258 305
#     4   9  18  32  53  77 101 134 177 218 256 305
#     4  10  19  32  51  74 102 136 173 210 252 309
#     4   9  18  32  52  78 104 136 177 220 265 319
#     4  10  20  34  50  74 109 140 171 214 263 310
#
# _framework density 21.066991999999999
#
# number of rings (size 3 to 8) (size 9 to 14) (size 15 to 20)
#    0.000    2.231    2.308    0.923    1.077    2.154 
#    0.000    1.923    0.000    3.231    0.000    0.000 
#    0.000    1.846    0.000    0.000    0.000    0.000 
#
# Total GULP energy -290051.438052 kJ/mol
# GULP energy per Si atom -5577.912270 kJ/mol
# Density = 2.101904 g / cm^3
# Si number density = 21.066992 Si / 1000 Ang^3
#
#
#
# Elastic Constant Matrix: (Units=GPa)
#
#
# Indices 1 2 3 4 5 6 
#
# 1 200.2255 86.8543 7.7317 0.0000 0.0000 0.0000
# 2 86.8543 142.2161 12.3876 0.0000 0.0000 0.0000
# 3 7.7317 12.3876 59.0505 0.0000 0.0000 0.0000
# 4 0.0000 0.0000 0.0000 12.7971 0.0000 0.0000
# 5 0.0000 0.0000 0.0000 0.0000 18.9457 0.0000
# 6 0.0000 0.0000 0.0000 0.0000 0.0000 43.0604
#
#
#
# Elastic Compliance Matrix: (Units=1/GPa)
#
#
# Indices 1 2 3 4 5 6 
#
# 1 0.006794 -0.004148 -0.000019 0.000000 0.000000 0.000000
# 2 -0.004148 0.009695 -0.001491 0.000000 0.000000 0.000000
# 3 -0.000019 -0.001491 0.017250 0.000000 0.000000 0.000000
# 4 0.000000 0.000000 0.000000 0.078143 0.000000 0.000000
# 5 0.000000 0.000000 0.000000 0.000000 0.052782 0.000000
# 6 0.000000 0.000000 0.000000 0.000000 0.000000 0.023223
#
#
# Mechanical properties :
#
#
# Convention : Reuss Voigt Hill
#
# Bulk Modulus (GPa) = 44.59704 68.38214 56.48959
# Shear Modulus (GPa) = 24.19234 34.59522 29.39378
#
# Velocity S-wave (km/s) = 3.39241 4.05674 3.73936
# Velocity P-wave (km/s) = 6.04646 7.38057 6.74657
#
# Compressibility (1/GPa) = 0.02242301
#
# Stress axis : x y z
#
# Youngs Moduli (GPa) = 147.18127 103.15119 57.97134
#
# Poissons Ratio (x) = 0.42785 0.00113
# Poissons Ratio (y) = 0.61047 0.08641
# Poissons Ratio (z) = 0.00287 0.15376
#
# Static dielectric constant tensor:
#      x y z
#    x 1.700080 0.000000 0.000000 
#    y 0.000000 1.692420 0.000000 
#    z 0.000000 0.000000 1.779920 
# 
# From -- ./inp_files/16815.got.cif
#   From: 2010.05.17/outbox.cif.g08.bks.cpg/sg65_9_cif.got.tgz:16815.got - 2010.06.03 17:01:31.
