data_PCOD9484083
_publ_section_title
;
Structure prediction by ZEFSAII (Michael W. Deem and Ramdas Pophale) SiO2 
 PCOD9484083
Probable space group: C M M M
;
_chemical_formula_sum "Si O2"
_cell_formula_units_Z 80
_cell_length_a 21.122331
_cell_length_b 26.006915
_cell_length_c 7.870514
_cell_angle_alpha 90.000000
_cell_angle_beta 90.000000
_cell_angle_gamma 90.000000
_cell_volume 4323.483223
_symmetry_space_group_name_H-M "C M M M"
_symmetry_group_IT_number 65
_symmetry_cell_setting 'orthorhombic'
loop_
_space_group_symop_operation_xyz
x,y,z
-x,-y,z
x,-y,-z
-x,y,-z
-x,-y,-z
x,y,-z
-x,y,z
x,-y,z
1/2+x,1/2+y,z
1/2-x,1/2-y,z
1/2+x,1/2-y,-z
1/2-x,1/2+y,-z
1/2-x,1/2-y,-z
1/2+x,1/2+y,-z
1/2-x,1/2+y,z
1/2+x,1/2-y,z
loop_
_atom_site_type_symbol
_atom_site_label
_atom_site_fract_x
_atom_site_fract_y
_atom_site_fract_z
Si Si1 0.397139 0.500000 0.293605
Si Si2 0.069993 0.224270 0.291919
Si Si3 0.692106 0.786340 0.294656
Si Si4 0.102931 0.888545 0.697221
Si Si5 0.245885 0.890434 0.194963
Si Si6 0.746496 0.000000 0.298533
O O1 0.405241 0.500000 0.500000
O O2 0.418970 0.443911 0.230167
O O3 0.321807 0.500000 0.259201
O O4 0.073361 0.222606 0.500000
O O5 0.126747 0.260984 0.234899
O O6 0.079717 0.165540 0.230253
O O7 0.000000 0.242165 0.244806
O O8 0.691689 0.786246 0.500000
O O9 0.750000 0.750000 0.238578
O O10 0.708117 0.843674 0.237509
O O11 0.083110 0.889135 0.500000
O O12 0.179858 0.886766 0.702070
O O13 0.277097 0.945865 0.228144
O O14 0.226360 0.887301 0.000000
O O15 0.739165 0.000000 0.500000
#
# Coordination Sequence:
#
# PCOD9484083 Si02
#       6
#     8  16  16  16  16   8
#     4   7  12  21  40  63  85 117 155 193 228 275
#     4   9  17  29  47  69  93 124 169 217 249 282
#     4  10  18  31  50  70  94 130 170 205 247 294
#     4   9  15  28  45  64  92 129 168 202 244 288
#     4  11  20  29  46  74 103 127 160 203 247 290
#     4   9  17  31  49  70  99 130 160 194 244 296
#
# _framework density 18.503599000000001
#
# number of rings (size 3 to 8) (size 9 to 14) (size 15 to 20)
#    0.000    2.600    2.000    3.300    0.000    0.400 
#    0.000    0.500    0.000    5.400    0.000    0.700 
#    0.000   10.400    0.000    0.000    0.000    0.000 
#
# Total GULP energy -222975.908681 kJ/mol
# GULP energy per Si atom -5574.397717 kJ/mol
# Density = 1.846148 g / cm^3
# Si number density = 18.503599 Si / 1000 Ang^3
#
#
#
# Elastic Constant Matrix: (Units=GPa)
#
#
# Indices 1 2 3 4 5 6 
#
# 1 92.8528 69.4170 4.3545 0.0000 0.0000 0.0000
# 2 69.4170 150.6518 15.7267 0.0000 0.0000 0.0000
# 3 4.3545 15.7267 22.1047 0.0000 0.0000 0.0000
# 4 0.0000 0.0000 0.0000 -57.8171 0.0000 0.0000
# 5 0.0000 0.0000 0.0000 0.0000 -4.1348 0.0000
# 6 0.0000 0.0000 0.0000 0.0000 0.0000 10.6212
#
#
#
# Elastic Compliance Matrix: (Units=1/GPa)
#
#
# Indices 1 2 3 4 5 6 
#
# 1 0.016540 -0.007865 0.002338 0.000000 0.000000 0.000000
# 2 -0.007865 0.010911 -0.006213 0.000000 0.000000 0.000000
# 3 0.002338 -0.006213 0.049199 0.000000 0.000000 0.000000
# 4 0.000000 0.000000 0.000000 -0.017296 0.000000 0.000000
# 5 0.000000 0.000000 0.000000 0.000000 -0.241850 0.000000
# 6 0.000000 0.000000 0.000000 0.000000 0.000000 0.094151
#
#
# Mechanical properties :
#
#
# Convention : Reuss Voigt Hill
#
# Bulk Modulus (GPa) = 18.80819 49.40063 34.10441
# Shear Modulus (GPa) = -106.06690 1.47462 -52.29614
#
# Velocity S-wave (km/s) = -7.57936 0.89368 -5.32203
# Velocity P-wave (km/s) = 8.14917 5.27453 4.39251
#
# Compressibility (1/GPa) = 0.05316831
#
# Stress axis : x y z
#
# Youngs Moduli (GPa) = 60.45824 91.65363 20.32557
#
# Poissons Ratio (x) = 0.72090 -0.04751
# Poissons Ratio (y) = 0.47553 0.12628
# Poissons Ratio (z) = -0.14133 0.56945
#
# Static dielectric constant tensor:
#      x y z
#    x 1.619320 0.000000 0.000000 
#    y 0.000000 1.678000 0.000000 
#    z 0.000000 0.000000 1.662780 
# 
# From -- ./inp_files/11576.got.cif
#   From: 2010.05.17/outbox.cif.g08.bks.cpg/sg65_6_cif.got.tgz:11576.got - 2010.06.03 17:01:31.
