data_PCOD9484644
_publ_section_title
;
Structure prediction by ZEFSAII (Michael W. Deem and Ramdas Pophale) SiO2 
 PCOD9484644
Probable space group: C M M M
;
_chemical_formula_sum "Si O2"
_cell_formula_units_Z 104
_cell_length_a 8.900647
_cell_length_b 27.899918
_cell_length_c 27.519865
_cell_angle_alpha 90.000000
_cell_angle_beta 90.000000
_cell_angle_gamma 90.000000
_cell_volume 6833.934362
_symmetry_space_group_name_H-M "C M M M"
_symmetry_group_IT_number 65
_symmetry_cell_setting 'orthorhombic'
loop_
_space_group_symop_operation_xyz
x,y,z
-x,-y,z
x,-y,-z
-x,y,-z
-x,-y,-z
x,y,-z
-x,y,z
x,-y,z
1/2+x,1/2+y,z
1/2-x,1/2-y,z
1/2+x,1/2-y,-z
1/2-x,1/2+y,-z
1/2-x,1/2-y,-z
1/2+x,1/2+y,-z
1/2-x,1/2+y,z
1/2+x,1/2-y,z
loop_
_atom_site_type_symbol
_atom_site_label
_atom_site_fract_x
_atom_site_fract_y
_atom_site_fract_z
Si Si1 0.320764 0.392589 0.298452
Si Si2 0.180865 0.353769 0.554003
Si Si3 0.825102 0.058336 0.894394
Si Si4 0.816633 0.944455 0.000000
Si Si5 0.319669 0.445423 0.398561
Si Si6 0.178472 0.443285 0.793623
Si Si7 0.680413 0.198509 0.347795
O O1 0.500000 0.386334 0.296673
O O2 0.286762 0.428781 0.343270
O O3 0.260682 0.414458 0.248645
O O4 0.242331 0.342676 0.312361
O O5 0.229560 0.338969 0.500000
O O6 0.244410 0.406128 0.567021
O O7 0.226805 0.318577 0.597727
O O8 0.000000 0.356039 0.554781
O O9 0.731440 0.072444 0.847269
O O10 0.000000 0.071558 0.887738
O O11 0.820688 0.000000 0.896889
O O12 0.771704 0.076216 0.947532
O O13 0.000000 0.944809 0.000000
O O14 0.767131 0.000000 0.000000
O O15 0.500000 0.443322 0.404770
O O16 0.270335 0.500000 0.406843
O O17 0.215519 0.500000 0.788839
O O18 0.000000 0.438070 0.788940
O O19 0.500000 0.200227 0.345527
O O20 0.750000 0.250000 0.337184
#
# Coordination Sequence:
#
# PCOD9484644 Si02
#       7
#    16  16  16   8  16  16  16
#     4  10  19  32  49  66  85 112 146 182 219 260
#     4   9  19  34  49  67  91 116 142 172 206 248
#     4   8  13  22  36  53  75 108 150 190 224 258
#     4   7  10  18  33  51  71 101 146 193 226 253
#     4   9  18  31  46  65  88 114 145 179 213 250
#     4  10  19  28  39  60  90 120 150 185 224 263
#     4  10  20  35  53  71  90 111 137 171 213 261
#
# _framework density 15.218175
#
# number of rings (size 3 to 8) (size 9 to 14) (size 15 to 20)
#    0.000    2.846    0.000    2.769    0.000    4.000 
#    0.000    1.923    0.000    2.308    0.000    0.000 
#    0.000    0.000    0.000    0.692    0.000    8.846 
#
# Total GULP energy -289681.932951 kJ/mol
# GULP energy per Si atom -5570.806403 kJ/mol
# Density = 1.518354 g / cm^3
# Si number density = 15.218175 Si / 1000 Ang^3
#
#
#
# Elastic Constant Matrix: (Units=GPa)
#
#
# Indices 1 2 3 4 5 6 
#
# 1 33.4597 23.6587 32.9114 0.0000 0.0000 0.0000
# 2 23.6587 53.8006 19.5540 0.0000 0.0000 0.0000
# 3 32.9114 19.5540 105.1183 0.0000 0.0000 0.0000
# 4 0.0000 0.0000 0.0000 8.2861 0.0000 0.0000
# 5 0.0000 0.0000 0.0000 0.0000 19.6393 0.0000
# 6 0.0000 0.0000 0.0000 0.0000 0.0000 20.8840
#
#
#
# Elastic Compliance Matrix: (Units=1/GPa)
#
#
# Indices 1 2 3 4 5 6 
#
# 1 0.058738 -0.020534 -0.014570 0.000000 0.000000 0.000000
# 2 -0.020534 0.027113 0.001385 0.000000 0.000000 0.000000
# 3 -0.014570 0.001385 0.013817 0.000000 0.000000 0.000000
# 4 0.000000 0.000000 0.000000 0.120684 0.000000 0.000000
# 5 0.000000 0.000000 0.000000 0.000000 0.050918 0.000000
# 6 0.000000 0.000000 0.000000 0.000000 0.000000 0.047884
#
#
# Mechanical properties :
#
#
# Convention : Reuss Voigt Hill
#
# Bulk Modulus (GPa) = 31.02688 38.29185 34.65936
# Shear Modulus (GPa) = 12.58383 17.51218 15.04800
#
# Velocity S-wave (km/s) = 2.87870 3.39594 3.14796
# Velocity P-wave (km/s) = 5.61084 6.37127 6.00311
#
# Compressibility (1/GPa) = 0.03223012
#
# Stress axis : x y z
#
# Youngs Moduli (GPa) = 17.02489 36.88213 72.37355
#
# Poissons Ratio (x) = 0.75734 1.05451
# Poissons Ratio (y) = 0.34959 -0.10026
# Poissons Ratio (z) = 0.24806 -0.05110
#
# Static dielectric constant tensor:
#      x y z
#    x 1.507400 0.000000 0.000000 
#    y 0.000000 1.472380 0.000000 
#    z 0.000000 0.000000 1.528930 
# 
# From -- ./inp_files/73589.got.cif
#   From: 2010.05.17/outbox.cif.g08.bks.cpg/sg65_37_cif.got.tgz:73589.got - 2010.06.03 17:01:31.
