data_PCOD9484097
_publ_section_title
;
Structure prediction by ZEFSAII (Michael W. Deem and Ramdas Pophale) SiO2 
 PCOD9484097
Probable space group: C M M M
;
_chemical_formula_sum "Si O2"
_cell_formula_units_Z 72
_cell_length_a 30.486641
_cell_length_b 15.159513
_cell_length_c 7.508140
_cell_angle_alpha 90.000000
_cell_angle_beta 90.000000
_cell_angle_gamma 90.000000
_cell_volume 3469.981733
_symmetry_space_group_name_H-M "C M M M"
_symmetry_group_IT_number 65
_symmetry_cell_setting 'orthorhombic'
loop_
_space_group_symop_operation_xyz
x,y,z
-x,-y,z
x,-y,-z
-x,y,-z
-x,-y,-z
x,y,-z
-x,y,z
x,-y,z
1/2+x,1/2+y,z
1/2-x,1/2-y,z
1/2+x,1/2-y,-z
1/2-x,1/2+y,-z
1/2-x,1/2-y,-z
1/2+x,1/2+y,-z
1/2-x,1/2+y,z
1/2+x,1/2-y,z
loop_
_atom_site_type_symbol
_atom_site_label
_atom_site_fract_x
_atom_site_fract_y
_atom_site_fract_z
Si Si1 0.734595 0.654761 0.713856
Si Si2 0.947534 0.396204 0.000000
Si Si3 0.862203 0.099296 0.717580
Si Si4 0.401332 0.779835 0.297980
Si Si5 0.171829 0.405435 0.789313
O O1 0.731002 0.659908 0.500000
O O2 0.750000 0.750000 0.783030
O O3 0.687522 0.621337 0.778156
O O4 0.776461 0.595984 0.757385
O O5 0.928960 0.342990 0.169931
O O6 0.934475 0.500000 0.000000
O O7 0.000000 0.393266 0.000000
O O8 0.861895 0.100449 0.500000
O O9 0.893785 0.180068 0.769784
O O10 0.874121 0.000000 0.772990
O O11 0.418356 0.778185 0.500000
O O12 0.352887 0.824354 0.300127
O O13 0.154186 0.500000 0.726136
O O14 0.163946 0.398050 0.000000
#
# Coordination Sequence:
#
# PCOD9484097 Si02
#       5
#    16   8  16  16  16
#     4  10  18  31  50  75 111 159 212 261 302 341
#     4  11  26  48  71  98 129 151 179 235 303 379
#     4   9  18  34  57  85 121 167 217 263 302 344
#     4  11  22  40  66  92 122 161 203 247 300 362
#     4  11  22  34  50  77 116 159 204 256 304 347
#
# _framework density 20.749389000000001
#
# number of rings (size 3 to 8) (size 9 to 14) (size 15 to 20)
#    0.000    1.667    3.333    2.000    0.000    4.889 
#    2.000    1.667    0.000    1.333    0.000    3.111 
#    0.000    0.000    0.000    0.000    0.000    0.000 
#
# Total GULP energy -201079.743924 kJ/mol
# GULP energy per Si atom -5585.548442 kJ/mol
# Density = 2.070216 g / cm^3
# Si number density = 20.749389 Si / 1000 Ang^3
#
#
#
# Elastic Constant Matrix: (Units=GPa)
#
#
# Indices 1 2 3 4 5 6 
#
# 1 76.5282 46.3493 24.2082 0.0000 0.0000 0.0000
# 2 46.3493 202.0951 38.4364 0.0000 0.0000 0.0000
# 3 24.2082 38.4364 86.6916 0.0000 0.0000 0.0000
# 4 0.0000 0.0000 0.0000 18.1165 0.0000 0.0000
# 5 0.0000 0.0000 0.0000 0.0000 34.6936 0.0000
# 6 0.0000 0.0000 0.0000 0.0000 0.0000 30.0014
#
#
#
# Elastic Compliance Matrix: (Units=1/GPa)
#
#
# Indices 1 2 3 4 5 6 
#
# 1 0.015895 -0.003059 -0.003082 0.000000 0.000000 0.000000
# 2 -0.003059 0.005993 -0.001803 0.000000 0.000000 0.000000
# 3 -0.003082 -0.001803 0.013195 0.000000 0.000000 0.000000
# 4 0.000000 0.000000 0.000000 0.055198 0.000000 0.000000
# 5 0.000000 0.000000 0.000000 0.000000 0.028824 0.000000
# 6 0.000000 0.000000 0.000000 0.000000 0.000000 0.033332
#
#
# Mechanical properties :
#
#
# Convention : Reuss Voigt Hill
#
# Bulk Modulus (GPa) = 52.09851 64.81144 58.45497
# Shear Modulus (GPa) = 28.61679 33.65037 31.13358
#
# Velocity S-wave (km/s) = 3.71774 4.03147 3.87778
# Velocity P-wave (km/s) = 6.60240 7.27829 6.94857
#
# Compressibility (1/GPa) = 0.01919441
#
# Stress axis : x y z
#
# Youngs Moduli (GPa) = 62.91333 166.87176 75.78572
#
# Poissons Ratio (x) = 0.51049 0.23359
# Poissons Ratio (y) = 0.19246 0.13662
# Poissons Ratio (z) = 0.19391 0.30082
#
# Static dielectric constant tensor:
#      x y z
#    x 1.721700 0.000000 0.000000 
#    y 0.000000 1.796790 0.000000 
#    z 0.000000 0.000000 1.768310 
# 
# From -- ./inp_files/7632.got.cif
#   From: 2010.05.17/outbox.cif.g08.bks.cpg/sg65_4_cif.got.tgz:7632.got - 2010.06.03 17:01:31.
