data_PCOD9484100
_publ_section_title
;
Structure prediction by ZEFSAII (Michael W. Deem and Ramdas Pophale) SiO2 
 PCOD9484100
Probable space group: C M M M
;
_chemical_formula_sum "Si O2"
_cell_formula_units_Z 104
_cell_length_a 25.194276
_cell_length_b 29.429011
_cell_length_c 7.915882
_cell_angle_alpha 90.000000
_cell_angle_beta 90.000000
_cell_angle_gamma 90.000000
_cell_volume 5869.172334
_symmetry_space_group_name_H-M "C M M M"
_symmetry_group_IT_number 65
_symmetry_cell_setting 'orthorhombic'
loop_
_space_group_symop_operation_xyz
x,y,z
-x,-y,z
x,-y,-z
-x,y,-z
-x,-y,-z
x,y,-z
-x,y,z
x,-y,z
1/2+x,1/2+y,z
1/2-x,1/2-y,z
1/2+x,1/2-y,-z
1/2-x,1/2+y,-z
1/2-x,1/2-y,-z
1/2+x,1/2+y,-z
1/2-x,1/2+y,z
1/2+x,1/2-y,z
loop_
_atom_site_type_symbol
_atom_site_label
_atom_site_fract_x
_atom_site_fract_y
_atom_site_fract_z
Si Si1 0.439416 0.128134 0.296541
Si Si2 0.439744 0.325899 0.799368
Si Si3 0.263044 0.552845 0.794119
Si Si4 0.872955 0.910361 0.796872
Si Si5 0.064324 0.726799 0.303432
Si Si6 0.644280 0.948132 0.796277
Si Si7 0.938827 0.000000 0.297314
O O1 0.442113 0.132148 0.500000
O O2 0.500000 0.120240 0.236159
O O3 0.419297 0.177556 0.232691
O O4 0.400340 0.087358 0.254937
O O5 0.500000 0.328881 0.729116
O O6 0.402371 0.365538 0.729804
O O7 0.419148 0.274601 0.775137
O O8 0.443774 0.333262 0.000000
O O9 0.271664 0.500000 0.748491
O O10 0.313203 0.581443 0.732253
O O11 0.203662 0.565548 0.738139
O O12 0.263058 0.554556 0.000000
O O13 0.907971 0.955015 0.761404
O O14 0.869019 0.906075 0.000000
O O15 0.079055 0.728993 0.500000
O O16 0.000000 0.725570 0.292305
O O17 0.633996 0.000000 0.738061
O O18 0.645504 0.949398 0.000000
O O19 0.939322 0.000000 0.500000
O O20 0.000000 0.000000 0.236997
#
# Coordination Sequence:
#
# PCOD9484100 Si02
#       7
#    16  16  16  16  16  16   8
#     4   9  18  32  49  70  95 123 155 186 221 272
#     4   9  17  27  42  69  96 114 145 194 237 275
#     4   8  14  28  49  68  86 116 158 195 228 267
#     4  10  18  31  51  68  87 122 162 196 233 279
#     4   8  15  29  47  64  86 120 155 184 222 275
#     4   9  18  31  48  71  97 122 151 188 229 273
#     4  11  23  33  41  63  99 129 154 193 242 283
#
# _framework density 17.719705999999999
#
# number of rings (size 3 to 8) (size 9 to 14) (size 15 to 20)
#    0.000    3.000    0.769    2.538    0.000    3.385 
#    0.000    5.385    0.000    0.923    0.000    6.462 
#    0.000    0.000    0.000    0.000    0.000    0.000 
#
# Total GULP energy -289606.423310 kJ/mol
# GULP energy per Si atom -5569.354294 kJ/mol
# Density = 1.767937 g / cm^3
# Si number density = 17.719706 Si / 1000 Ang^3
#
#
#
# Elastic Constant Matrix: (Units=GPa)
#
#
# Indices 1 2 3 4 5 6 
#
# 1 120.3541 98.2059 6.0792 0.0000 0.0000 0.0000
# 2 98.2059 155.3613 5.3453 0.0000 0.0000 0.0000
# 3 6.0792 5.3453 12.1714 0.0000 0.0000 0.0000
# 4 0.0000 0.0000 0.0000 27.2415 0.0000 0.0000
# 5 0.0000 0.0000 0.0000 0.0000 1.1422 0.0000
# 6 0.0000 0.0000 0.0000 0.0000 0.0000 6.2199
#
#
#
# Elastic Compliance Matrix: (Units=1/GPa)
#
#
# Indices 1 2 3 4 5 6 
#
# 1 0.017340 -0.010827 -0.003906 0.000000 0.000000 0.000000
# 2 -0.010827 0.013295 -0.000431 0.000000 0.000000 0.000000
# 3 -0.003906 -0.000431 0.084300 0.000000 0.000000 0.000000
# 4 0.000000 0.000000 0.000000 0.036709 0.000000 0.000000
# 5 0.000000 0.000000 0.000000 0.000000 0.875508 0.000000
# 6 0.000000 0.000000 0.000000 0.000000 0.000000 0.160774
#
#
# Mechanical properties :
#
#
# Convention : Reuss Voigt Hill
#
# Bulk Modulus (GPa) = 11.81932 56.34973 34.08453
# Shear Modulus (GPa) = 4.01137 18.80448 11.40792
#
# Velocity S-wave (km/s) = 1.50622 3.26117 2.54007
# Velocity P-wave (km/s) = 3.11602 6.78601 5.28013
#
# Compressibility (1/GPa) = 0.08460721
#
# Stress axis : x y z
#
# Youngs Moduli (GPa) = 57.66853 75.21521 11.86241
#
# Poissons Ratio (x) = 0.81434 0.04634
# Poissons Ratio (y) = 0.62436 0.00512
# Poissons Ratio (z) = 0.22527 0.03243
#
# Static dielectric constant tensor:
#      x y z
#    x 1.608190 0.000000 0.000000 
#    y 0.000000 1.613270 0.000000 
#    z 0.000000 0.000000 1.646660 
# 
# From -- ./inp_files/16994.got.cif
#   From: 2010.05.17/outbox.cif.g08.bks.cpg/sg65_9_cif.got.tgz:16994.got - 2010.06.03 17:01:31.
