data_PCOD9484050
_publ_section_title
;
Structure prediction by ZEFSAII (Michael W. Deem and Ramdas Pophale) SiO2 
 PCOD9484050
Probable space group: C M M M
;
_chemical_formula_sum "Si O2"
_cell_formula_units_Z 80
_cell_length_a 7.549060
_cell_length_b 26.345601
_cell_length_c 24.644672
_cell_angle_alpha 90.000000
_cell_angle_beta 90.000000
_cell_angle_gamma 90.000000
_cell_volume 4901.443827
_symmetry_space_group_name_H-M "C M M M"
_symmetry_group_IT_number 65
_symmetry_cell_setting 'orthorhombic'
loop_
_space_group_symop_operation_xyz
x,y,z
-x,-y,z
x,-y,-z
-x,y,-z
-x,-y,-z
x,y,-z
-x,y,z
x,-y,z
1/2+x,1/2+y,z
1/2-x,1/2-y,z
1/2+x,1/2-y,-z
1/2-x,1/2+y,-z
1/2-x,1/2-y,-z
1/2+x,1/2+y,-z
1/2-x,1/2+y,z
1/2+x,1/2-y,z
loop_
_atom_site_type_symbol
_atom_site_label
_atom_site_fract_x
_atom_site_fract_y
_atom_site_fract_z
Si Si1 0.287463 0.310371 0.058350
Si Si2 0.000000 0.617501 0.439742
Si Si3 0.294569 0.308852 0.396947
Si Si4 0.789278 0.865284 0.714682
Si Si5 0.000000 0.559953 0.328379
Si Si6 0.712421 0.309923 0.823506
O O1 0.500000 0.317207 0.058227
O O2 0.250000 0.250000 0.058218
O O3 0.219862 0.327859 0.117247
O O4 0.219996 0.330306 0.000000
O O5 0.831754 0.654304 0.430678
O O6 0.000000 0.595895 0.500000
O O7 0.000000 0.576609 0.391586
O O8 0.500000 0.317543 0.409610
O O9 0.250000 0.250000 0.405170
O O10 0.264886 0.324446 0.333881
O O11 0.671449 0.913324 0.698374
O O12 0.726892 0.841150 0.771384
O O13 0.000000 0.876553 0.717397
O O14 0.000000 0.500000 0.322053
O O15 0.500000 0.314791 0.824488
O O16 0.750000 0.250000 0.817221
#
# Coordination Sequence:
#
# PCOD9484050 Si02
#       6
#    16   8  16  16   8  16
#     4   8  13  21  32  49  81 124 165 194 216 253
#     4  10  22  37  52  74 100 125 158 192 222 274
#     4  10  18  31  48  71 102 136 160 183 224 269
#     4   9  19  32  49  72  98 121 154 198 236 286
#     4  10  22  39  58  74  89 118 154 196 250 286
#     4   9  16  24  38  64  94 129 160 188 229 272
#
# _framework density 16.321722000000001
#
# number of rings (size 3 to 8) (size 9 to 14) (size 15 to 20)
#    0.000    2.800    1.000    0.600    1.400    1.400 
#    0.000    0.000    0.000    0.000    0.000    5.600 
#    0.000    1.600    0.000    7.800    0.000    0.000 
#
# Total GULP energy -222801.442983 kJ/mol
# GULP energy per Si atom -5570.036075 kJ/mol
# Density = 1.628457 g / cm^3
# Si number density = 16.321722 Si / 1000 Ang^3
#
#
#
# Elastic Constant Matrix: (Units=GPa)
#
#
# Indices 1 2 3 4 5 6 
#
# 1 59.3782 13.1583 28.0891 0.0000 0.0000 0.0000
# 2 13.1583 63.3878 33.0516 0.0000 0.0000 0.0000
# 3 28.0891 33.0516 143.1689 0.0000 0.0000 0.0000
# 4 0.0000 0.0000 0.0000 7.1593 0.0000 0.0000
# 5 0.0000 0.0000 0.0000 0.0000 2.3928 0.0000
# 6 0.0000 0.0000 0.0000 0.0000 0.0000 11.7581
#
#
#
# Elastic Compliance Matrix: (Units=1/GPa)
#
#
# Indices 1 2 3 4 5 6 
#
# 1 0.018844 -0.002255 -0.003176 0.000000 0.000000 0.000000
# 2 -0.002255 0.018205 -0.003760 0.000000 0.000000 0.000000
# 3 -0.003176 -0.003760 0.008476 0.000000 0.000000 0.000000
# 4 0.000000 0.000000 0.000000 0.139678 0.000000 0.000000
# 5 0.000000 0.000000 0.000000 0.000000 0.417919 0.000000
# 6 0.000000 0.000000 0.000000 0.000000 0.000000 0.085048
#
#
# Mechanical properties :
#
#
# Convention : Reuss Voigt Hill
#
# Bulk Modulus (GPa) = 36.84545 46.05922 41.45233
# Shear Modulus (GPa) = 6.98714 17.03777 12.01245
#
# Velocity S-wave (km/s) = 2.07127 3.23440 2.71584
# Velocity P-wave (km/s) = 5.32388 6.49841 5.94025
#
# Compressibility (1/GPa) = 0.02714040
#
# Stress axis : x y z
#
# Youngs Moduli (GPa) = 53.06847 54.93077 117.98002
#
# Poissons Ratio (x) = 0.12389 0.37475
# Poissons Ratio (y) = 0.11969 0.44363
# Poissons Ratio (z) = 0.16856 0.20655
#
# Static dielectric constant tensor:
#      x y z
#    x 1.571390 0.000000 0.000000 
#    y 0.000000 1.408360 0.000000 
#    z 0.000000 0.000000 1.614360 
# 
# From -- ./inp_files/59664.got.cif
#   From: 2010.05.17/outbox.cif.g08.bks.cpg/sg65_30_cif.got.tgz:59664.got - 2010.06.03 17:01:31.
