data_PCOD9484609
_publ_section_title
;
Structure prediction by ZEFSAII (Michael W. Deem and Ramdas Pophale) SiO2 
 PCOD9484609
Probable space group: C M M M
;
_chemical_formula_sum "Si O2"
_cell_formula_units_Z 96
_cell_length_a 24.351891
_cell_length_b 7.703627
_cell_length_c 26.286035
_cell_angle_alpha 90.000000
_cell_angle_beta 90.000000
_cell_angle_gamma 90.000000
_cell_volume 4931.204571
_symmetry_space_group_name_H-M "C M M M"
_symmetry_group_IT_number 65
_symmetry_cell_setting 'orthorhombic'
loop_
_space_group_symop_operation_xyz
x,y,z
-x,-y,z
x,-y,-z
-x,y,-z
-x,-y,-z
x,y,-z
-x,y,z
x,-y,z
1/2+x,1/2+y,z
1/2-x,1/2-y,z
1/2+x,1/2-y,-z
1/2-x,1/2+y,-z
1/2-x,1/2-y,-z
1/2+x,1/2+y,-z
1/2-x,1/2+y,z
1/2+x,1/2-y,z
loop_
_atom_site_type_symbol
_atom_site_label
_atom_site_fract_x
_atom_site_fract_y
_atom_site_fract_z
Si Si1 0.000000 0.202735 0.194617
Si Si2 0.382377 0.790687 0.848014
Si Si3 0.500000 0.796955 0.312085
Si Si4 0.312832 0.208685 0.557511
Si Si5 0.187310 0.708892 0.057608
Si Si6 0.618240 0.213501 0.346910
Si Si7 0.186130 0.708290 0.248917
O O1 0.054672 0.248250 0.163508
O O2 0.000000 0.287667 0.250658
O O3 0.000000 0.000000 0.204874
O O4 0.355855 0.726420 0.900629
O O5 0.346099 0.725515 0.800554
O O6 0.378159 0.000000 0.848813
O O7 0.443307 0.725185 0.334629
O O8 0.500000 0.000000 0.325512
O O9 0.321734 0.275305 0.500000
O O10 0.250000 0.250000 0.572259
O O11 0.355393 0.271127 0.599938
O O12 0.317348 0.000000 0.555764
O O13 0.182821 0.500000 0.055625
O O14 0.250000 0.750000 0.073054
O O15 0.179088 0.775522 0.000000
O O16 0.657188 0.270030 0.300468
O O17 0.617893 0.000000 0.346939
O O18 0.180572 0.500000 0.248612
O O19 0.250000 0.750000 0.247246
#
# Coordination Sequence:
#
# PCOD9484609 Si02
#       7
#     8  16   8  16  16  16  16
#     4  12  24  36  53  78 103 130 172 221 262 298
#     4  10  20  36  55  73 101 141 175 203 249 311
#     4  10  18  36  57  69  95 138 174 202 252 316
#     4   9  17  30  48  72 101 131 165 205 249 297
#     4   9  18  33  55  82 109 138 173 211 253 302
#     4   9  17  30  50  72  95 130 171 205 244 300
#     4  10  19  30  47  72  99 129 164 203 249 300
#
# _framework density 19.467859000000001
#
# number of rings (size 3 to 8) (size 9 to 14) (size 15 to 20)
#    0.000    2.333    1.667    1.750    0.000    1.333 
#    0.000    1.667    0.000    5.000    0.000    0.000 
#    0.000    3.333    0.000    0.000    0.000    0.000 
#
# Total GULP energy -267917.056921 kJ/mol
# GULP energy per Si atom -5581.605353 kJ/mol
# Density = 1.942355 g / cm^3
# Si number density = 19.467859 Si / 1000 Ang^3
#
#
#
# Elastic Constant Matrix: (Units=GPa)
#
#
# Indices 1 2 3 4 5 6 
#
# 1 202.1530 -4.4932 119.1036 0.0000 0.0000 0.0000
# 2 -4.4932 29.5139 3.0962 0.0000 0.0000 0.0000
# 3 119.1036 3.0962 137.7001 0.0000 0.0000 0.0000
# 4 0.0000 0.0000 0.0000 1.4080 0.0000 0.0000
# 5 0.0000 0.0000 0.0000 0.0000 21.1131 0.0000
# 6 0.0000 0.0000 0.0000 0.0000 0.0000 23.8010
#
#
#
# Elastic Compliance Matrix: (Units=1/GPa)
#
#
# Indices 1 2 3 4 5 6 
#
# 1 0.010268 0.002501 -0.008938 0.000000 0.000000 0.000000
# 2 0.002501 0.034572 -0.002940 0.000000 0.000000 0.000000
# 3 -0.008938 -0.002940 0.015059 0.000000 0.000000 0.000000
# 4 0.000000 0.000000 0.000000 0.710247 0.000000 0.000000
# 5 0.000000 0.000000 0.000000 0.000000 0.047364 0.000000
# 6 0.000000 0.000000 0.000000 0.000000 0.000000 0.042015
#
#
# Mechanical properties :
#
#
# Convention : Reuss Voigt Hill
#
# Bulk Modulus (GPa) = 24.30482 67.19780 45.75131
# Shear Modulus (GPa) = 5.60542 26.04176 15.82359
#
# Velocity S-wave (km/s) = 1.69870 3.66140 2.85407
# Velocity P-wave (km/s) = 4.04464 7.24339 5.86625
#
# Compressibility (1/GPa) = 0.04114410
#
# Stress axis : x y z
#
# Youngs Moduli (GPa) = 97.38782 28.92550 66.40567
#
# Poissons Ratio (x) = -0.07234 0.59352
# Poissons Ratio (y) = -0.24355 0.19526
# Poissons Ratio (z) = 0.87043 0.08505
#
# Static dielectric constant tensor:
#      x y z
#    x 1.652030 0.000000 0.000000 
#    y 0.000000 1.718490 0.000000 
#    z 0.000000 0.000000 1.689470 
# 
# From -- ./inp_files/75735.got.cif
#   From: 2010.05.17/outbox.cif.g08.bks.cpg/sg65_38_cif.got.tgz:75735.got - 2010.06.03 17:01:31.
