data_PCOD9484330
_publ_section_title
;
Structure prediction by ZEFSAII (Michael W. Deem and Ramdas Pophale) SiO2 
 PCOD9484330
Probable space group: C M M M
;
_chemical_formula_sum "Si O2"
_cell_formula_units_Z 64
_cell_length_a 15.302525
_cell_length_b 8.826615
_cell_length_c 22.055287
_cell_angle_alpha 90.000000
_cell_angle_beta 90.000000
_cell_angle_gamma 90.000000
_cell_volume 2978.996515
_symmetry_space_group_name_H-M "C M M M"
_symmetry_group_IT_number 65
_symmetry_cell_setting 'orthorhombic'
loop_
_space_group_symop_operation_xyz
x,y,z
-x,-y,z
x,-y,-z
-x,y,-z
-x,-y,-z
x,y,-z
-x,y,z
x,-y,z
1/2+x,1/2+y,z
1/2-x,1/2-y,z
1/2+x,1/2-y,-z
1/2-x,1/2+y,-z
1/2-x,1/2-y,-z
1/2+x,1/2+y,-z
1/2-x,1/2+y,z
1/2+x,1/2-y,z
loop_
_atom_site_type_symbol
_atom_site_label
_atom_site_fract_x
_atom_site_fract_y
_atom_site_fract_z
Si Si1 0.603543 0.181907 0.124263
Si Si2 0.849190 0.318586 0.500000
Si Si3 0.103856 0.671401 0.255548
Si Si4 0.153506 0.820593 0.378523
Si Si5 0.606242 0.322452 0.000000
O O1 0.500000 0.221387 0.123769
O O2 0.638914 0.228994 0.190523
O O3 0.640432 0.250839 0.062524
O O4 0.610161 0.000000 0.122016
O O5 0.845905 0.500000 0.500000
O O6 0.750000 0.250000 0.500000
O O7 0.889895 0.257063 0.437500
O O8 0.138308 0.500000 0.267760
O O9 0.115971 0.776311 0.313417
O O10 0.000000 0.656672 0.247074
O O11 0.250000 0.750000 0.376124
O O12 0.155551 0.000000 0.387397
O O13 0.622966 0.500000 0.000000
O O14 0.500000 0.299218 0.000000
#
# Coordination Sequence:
#
# PCOD9484330 Si02
#       5
#    16   8  16  16   8
#     4   8  14  25  41  60  86 122 159 193 233 283
#     4  10  18  32  53  74  97 124 159 201 243 285
#     4   9  18  33  51  72 100 132 164 200 245 293
#     4  11  21  34  53  76 101 128 162 201 241 287
#     4   9  15  21  33  57  88 119 154 197 238 275
#
# _framework density 21.483744000000002
#
# number of rings (size 3 to 8) (size 9 to 14) (size 15 to 20)
#    0.000    2.625    0.000    6.750    0.000    3.000 
#    0.000    3.125    0.000    3.750    0.000    0.875 
#    0.000    0.000    0.000    0.000    0.000    0.000 
#
# Total GULP energy -178412.827732 kJ/mol
# GULP energy per Si atom -5575.400867 kJ/mol
# Density = 2.143485 g / cm^3
# Si number density = 21.483744 Si / 1000 Ang^3
#
#
#
# Elastic Constant Matrix: (Units=GPa)
#
#
# Indices 1 2 3 4 5 6 
#
# 1 28.8301 7.6231 16.1038 0.0000 0.0000 0.0000
# 2 7.6231 108.6480 87.0931 0.0000 0.0000 0.0000
# 3 16.1038 87.0931 242.1417 0.0000 0.0000 0.0000
# 4 0.0000 0.0000 0.0000 -20.4431 0.0000 0.0000
# 5 0.0000 0.0000 0.0000 0.0000 -19.3676 0.0000
# 6 0.0000 0.0000 0.0000 0.0000 0.0000 10.1573
#
#
#
# Elastic Compliance Matrix: (Units=1/GPa)
#
#
# Indices 1 2 3 4 5 6 
#
# 1 0.036081 -0.000854 -0.002092 0.000000 0.000000 0.000000
# 2 -0.000854 0.012953 -0.004602 0.000000 0.000000 0.000000
# 3 -0.002092 -0.004602 0.005924 0.000000 0.000000 0.000000
# 4 0.000000 0.000000 0.000000 -0.048916 0.000000 0.000000
# 5 0.000000 0.000000 0.000000 0.000000 -0.051633 0.000000
# 6 0.000000 0.000000 0.000000 0.000000 0.000000 0.098451
#
#
# Mechanical properties :
#
#
# Convention : Reuss Voigt Hill
#
# Bulk Modulus (GPa) = 25.08752 66.80661 45.94707
# Shear Modulus (GPa) = 61.54281 11.98932 36.76607
#
# Velocity S-wave (km/s) = 5.35802 2.36490 4.14133
# Velocity P-wave (km/s) = 7.06970 6.21457 6.65588
#
# Compressibility (1/GPa) = 0.03986046
#
# Stress axis : x y z
#
# Youngs Moduli (GPa) = 27.71573 77.20176 168.79796
#
# Poissons Ratio (x) = 0.06596 0.35317
# Poissons Ratio (y) = 0.02368 0.77683
# Poissons Ratio (z) = 0.05799 0.35529
#
# Static dielectric constant tensor:
#      x y z
#    x 1.867500 0.000000 0.000000 
#    y 0.000000 1.739490 0.000000 
#    z 0.000000 0.000000 1.882350 
# 
# From -- ./inp_files/55309.got.cif
#   From: 2010.05.17/outbox.cif.g08.bks.cpg/sg65_28_cif.got.tgz:55309.got - 2010.06.03 17:01:31.
