data_PCOD9484600
_publ_section_title
;
Structure prediction by ZEFSAII (Michael W. Deem and Ramdas Pophale) SiO2 
 PCOD9484600
Probable space group: C M M M
;
_chemical_formula_sum "Si O2"
_cell_formula_units_Z 88
_cell_length_a 14.771002
_cell_length_b 14.848466
_cell_length_c 20.937020
_cell_angle_alpha 90.000000
_cell_angle_beta 90.000000
_cell_angle_gamma 90.000000
_cell_volume 4592.047944
_symmetry_space_group_name_H-M "C M M M"
_symmetry_group_IT_number 65
_symmetry_cell_setting 'orthorhombic'
loop_
_space_group_symop_operation_xyz
x,y,z
-x,-y,z
x,-y,-z
-x,y,-z
-x,-y,-z
x,y,-z
-x,y,z
x,-y,z
1/2+x,1/2+y,z
1/2-x,1/2-y,z
1/2+x,1/2-y,-z
1/2-x,1/2+y,-z
1/2-x,1/2-y,-z
1/2+x,1/2+y,-z
1/2-x,1/2+y,z
1/2+x,1/2-y,z
loop_
_atom_site_type_symbol
_atom_site_label
_atom_site_fract_x
_atom_site_fract_y
_atom_site_fract_z
Si Si1 0.641238 0.746540 0.427419
Si Si2 0.000000 0.340494 0.243946
Si Si3 0.105201 0.901951 0.678758
Si Si4 0.653602 0.296876 0.792727
Si Si5 0.000000 0.396293 0.100904
Si Si6 0.359185 0.741467 0.069842
Si Si7 0.000000 0.604101 0.387724
O O1 0.616387 0.721247 0.500000
O O2 0.750000 0.750000 0.424125
O O3 0.614428 0.672617 0.375430
O O4 0.587546 0.838707 0.411224
O O5 0.913955 0.274685 0.239377
O O6 0.000000 0.395810 0.178158
O O7 0.000000 0.391586 0.310539
O O8 0.158251 0.878072 0.743286
O O9 0.000000 0.903913 0.697573
O O10 0.132002 0.000000 0.654003
O O11 0.750000 0.250000 0.797465
O O12 0.620207 0.313492 0.865228
O O13 0.087155 0.336465 0.079339
O O14 0.000000 0.500000 0.078673
O O15 0.250000 0.750000 0.068042
O O16 0.386668 0.705606 0.000000
O O17 0.000000 0.500000 0.408638
#
# Coordination Sequence:
#
# PCOD9484600 Si02
#       7
#    16   8  16  16   8  16   8
#     4  11  24  43  64  88 123 158 193 244 299 352
#     4  10  19  36  56  85 121 149 188 242 295 348
#     4  11  22  38  62  87 112 151 199 243 292 347
#     4  10  18  35  59  80 116 157 191 238 297 349
#     4  10  20  34  57  89 118 147 194 251 298 343
#     4   9  19  34  54  83 116 155 195 236 295 359
#     4  12  24  40  65  93 124 161 200 243 298 361
#
# _framework density 19.163563
#
# number of rings (size 3 to 8) (size 9 to 14) (size 15 to 20)
#    0.000    1.636    3.636    1.364    0.000    2.545 
#    0.000   10.909    0.000    1.636    0.000    1.273 
#    0.000    0.000    0.000    0.000    0.000    0.000 
#
# Total GULP energy -245214.146466 kJ/mol
# GULP energy per Si atom -5573.048783 kJ/mol
# Density = 1.911995 g / cm^3
# Si number density = 19.163563 Si / 1000 Ang^3
#
#
#
# Elastic Constant Matrix: (Units=GPa)
#
#
# Indices 1 2 3 4 5 6 
#
# 1 103.1102 31.0951 13.9590 0.0000 0.0000 0.0000
# 2 31.0951 108.6905 45.9329 0.0000 0.0000 0.0000
# 3 13.9590 45.9329 155.6946 0.0000 0.0000 0.0000
# 4 0.0000 0.0000 0.0000 3.2128 0.0000 0.0000
# 5 0.0000 0.0000 0.0000 0.0000 34.8695 0.0000
# 6 0.0000 0.0000 0.0000 0.0000 0.0000 9.7574
#
#
#
# Elastic Compliance Matrix: (Units=1/GPa)
#
#
# Indices 1 2 3 4 5 6 
#
# 1 0.010615 -0.003010 -0.000064 0.000000 0.000000 0.000000
# 2 -0.003010 0.011364 -0.003083 0.000000 0.000000 0.000000
# 3 -0.000064 -0.003083 0.007338 0.000000 0.000000 0.000000
# 4 0.000000 0.000000 0.000000 0.311255 0.000000 0.000000
# 5 0.000000 0.000000 0.000000 0.000000 0.028678 0.000000
# 6 0.000000 0.000000 0.000000 0.000000 0.000000 0.102486
#
#
# Mechanical properties :
#
#
# Convention : Reuss Voigt Hill
#
# Bulk Modulus (GPa) = 58.80870 61.05213 59.93041
# Shear Modulus (GPa) = 10.20997 28.00185 19.10591
#
# Velocity S-wave (km/s) = 2.31071 3.82671 3.16094
# Velocity P-wave (km/s) = 6.15415 7.17305 6.68304
#
# Compressibility (1/GPa) = 0.01700429
#
# Stress axis : x y z
#
# Youngs Moduli (GPa) = 94.20939 87.99473 136.27611
#
# Poissons Ratio (x) = 0.26485 0.00868
# Poissons Ratio (y) = 0.28355 0.42012
# Poissons Ratio (z) = 0.00600 0.27127
#
# Static dielectric constant tensor:
#      x y z
#    x 1.714570 0.000000 0.000000 
#    y 0.000000 1.668670 0.000000 
#    z 0.000000 0.000000 1.710490 
# 
# From -- ./inp_files/62521.got.cif
#   From: 2010.05.17/outbox.cif.g08.bks.cpg/sg65_32_cif.got.tgz:62521.got - 2010.06.03 17:01:31.
