data_PCOD9484025
_publ_section_title
;
Structure prediction by ZEFSAII (Michael W. Deem and Ramdas Pophale) SiO2 
 PCOD9484025
Probable space group: C M M M
;
_chemical_formula_sum "Si O2"
_cell_formula_units_Z 72
_cell_length_a 34.284779
_cell_length_b 9.975953
_cell_length_c 12.271722
_cell_angle_alpha 90.000000
_cell_angle_beta 90.000000
_cell_angle_gamma 90.000000
_cell_volume 4197.215394
_symmetry_space_group_name_H-M "C M M M"
_symmetry_group_IT_number 65
_symmetry_cell_setting 'orthorhombic'
loop_
_space_group_symop_operation_xyz
x,y,z
-x,-y,z
x,-y,-z
-x,y,-z
-x,-y,-z
x,y,-z
-x,y,z
x,-y,z
1/2+x,1/2+y,z
1/2-x,1/2-y,z
1/2+x,1/2-y,-z
1/2-x,1/2+y,-z
1/2-x,1/2-y,-z
1/2+x,1/2+y,-z
1/2-x,1/2+y,z
1/2+x,1/2-y,z
loop_
_atom_site_type_symbol
_atom_site_label
_atom_site_fract_x
_atom_site_fract_y
_atom_site_fract_z
Si Si1 0.865590 0.841997 0.129834
Si Si2 0.286682 0.650540 0.743870
Si Si3 0.084090 0.662905 0.281637
Si Si4 0.373304 0.153875 0.500000
Si Si5 0.204765 0.786087 0.500000
Si Si6 0.000000 0.338138 0.625822
O O1 0.823587 0.808414 0.183303
O O2 0.897759 0.744842 0.182211
O O3 0.873104 0.000000 0.154749
O O4 0.863930 0.827419 0.000000
O O5 0.274673 0.500000 0.775337
O O6 0.250000 0.750000 0.752849
O O7 0.300520 0.646418 0.617426
O O8 0.087571 0.500000 0.267388
O O9 0.108656 0.707823 0.388631
O O10 0.039394 0.696778 0.310300
O O11 0.326897 0.168042 0.500000
O O12 0.385604 0.000000 0.500000
O O13 0.250000 0.750000 0.500000
O O14 0.000000 0.500000 0.618122
O O15 0.000000 0.288627 0.500000
#
# Coordination Sequence:
#
# PCOD9484025 Si02
#       6
#    16  16  16   8   8   8
#     4  10  22  40  57  75 106 148 190 231 272 314
#     4  10  21  35  53  78 106 140 179 224 275 325
#     4  10  19  34  58  87 113 140 177 222 272 328
#     4  10  18  30  54  84 111 141 177 220 269 326
#     4  10  19  31  48  77 111 143 169 214 263 329
#     4   9  16  30  56  89 120 142 167 212 277 336
#
# _framework density 17.154229999999998
#
# number of rings (size 3 to 8) (size 9 to 14) (size 15 to 20)
#    0.000    2.111    3.333    0.333    0.000    5.333 
#    0.000    1.667    0.000    4.000    0.000    0.000 
#    0.000    0.000    0.000    0.000    0.000    0.000 
#
# Total GULP energy -200462.542289 kJ/mol
# GULP energy per Si atom -5568.403952 kJ/mol
# Density = 1.711519 g / cm^3
# Si number density = 17.154230 Si / 1000 Ang^3
#
#
#
# Elastic Constant Matrix: (Units=GPa)
#
#
# Indices 1 2 3 4 5 6 
#
# 1 127.9227 50.1978 65.2521 0.0000 0.0000 0.0000
# 2 50.1978 53.0850 39.7393 0.0000 0.0000 0.0000
# 3 65.2521 39.7393 108.6723 0.0000 0.0000 0.0000
# 4 0.0000 0.0000 0.0000 22.4619 0.0000 0.0000
# 5 0.0000 0.0000 0.0000 0.0000 17.1555 0.0000
# 6 0.0000 0.0000 0.0000 0.0000 0.0000 26.9534
#
#
#
# Elastic Compliance Matrix: (Units=1/GPa)
#
#
# Indices 1 2 3 4 5 6 
#
# 1 0.014134 -0.009655 -0.004956 0.000000 0.000000 0.000000
# 2 -0.009655 0.032534 -0.006100 0.000000 0.000000 0.000000
# 3 -0.004956 -0.006100 0.014408 0.000000 0.000000 0.000000
# 4 0.000000 0.000000 0.000000 0.044520 0.000000 0.000000
# 5 0.000000 0.000000 0.000000 0.000000 0.058290 0.000000
# 6 0.000000 0.000000 0.000000 0.000000 0.000000 0.037101
#
#
# Mechanical properties :
#
#
# Convention : Reuss Voigt Hill
#
# Bulk Modulus (GPa) = 50.87856 66.67317 58.77587
# Shear Modulus (GPa) = 20.08348 22.28019 21.18183
#
# Velocity S-wave (km/s) = 3.42535 3.60782 3.51777
# Velocity P-wave (km/s) = 6.73557 7.50376 7.13002
#
# Compressibility (1/GPa) = 0.01965464
#
# Stress axis : x y z
#
# Youngs Moduli (GPa) = 70.75123 30.73712 69.40440
#
# Poissons Ratio (x) = 0.29677 0.34397
# Poissons Ratio (y) = 0.68312 0.42334
# Poissons Ratio (z) = 0.35064 0.18748
#
# Static dielectric constant tensor:
#      x y z
#    x 2.152150 0.000000 0.000000 
#    y 0.000000 1.592940 0.000000 
#    z 0.000000 0.000000 1.590810 
# 
# From -- ./inp_files/33460.got.cif
#   From: 2010.05.17/outbox.cif.g08.bks.cpg/sg65_17_cif.got.tgz:33460.got - 2010.06.03 17:01:31.
