data_PCOD9484327
_publ_section_title
;
Structure prediction by ZEFSAII (Michael W. Deem and Ramdas Pophale) SiO2 
 PCOD9484327
Probable space group: C M M M
;
_chemical_formula_sum "Si O2"
_cell_formula_units_Z 80
_cell_length_a 8.624627
_cell_length_b 14.610595
_cell_length_c 28.288808
_cell_angle_alpha 90.000000
_cell_angle_beta 90.000000
_cell_angle_gamma 90.000000
_cell_volume 3564.699065
_symmetry_space_group_name_H-M "C M M M"
_symmetry_group_IT_number 65
_symmetry_cell_setting 'orthorhombic'
loop_
_space_group_symop_operation_xyz
x,y,z
-x,-y,z
x,-y,-z
-x,y,-z
-x,-y,-z
x,y,-z
-x,y,z
x,-y,z
1/2+x,1/2+y,z
1/2-x,1/2-y,z
1/2+x,1/2-y,-z
1/2-x,1/2+y,-z
1/2-x,1/2-y,-z
1/2+x,1/2+y,-z
1/2-x,1/2+y,z
1/2+x,1/2-y,z
loop_
_atom_site_type_symbol
_atom_site_label
_atom_site_fract_x
_atom_site_fract_y
_atom_site_fract_z
Si Si1 0.319916 0.888123 0.393375
Si Si2 0.667447 0.392141 0.191294
Si Si3 0.000000 0.111756 0.445037
Si Si4 0.823454 0.611423 0.284963
Si Si5 0.680908 0.851126 0.095124
Si Si6 0.316604 0.645784 0.000000
O O1 0.500000 0.860272 0.406078
O O2 0.165415 0.858297 0.422019
O O3 0.290351 0.860945 0.338729
O O4 0.322580 0.000000 0.395845
O O5 0.500000 0.353062 0.176910
O O6 0.651699 0.500000 0.199178
O O7 0.719333 0.354415 0.241929
O O8 0.782767 0.385688 0.147486
O O9 0.000000 0.137308 0.500000
O O10 0.000000 0.000000 0.441705
O O11 0.815884 0.500000 0.285709
O O12 0.000000 0.636465 0.274023
O O13 0.500000 0.850897 0.086232
O O14 0.750000 0.750000 0.096561
O O15 0.760004 0.896564 0.049392
O O16 0.500000 0.649599 0.000000
O O17 0.250000 0.750000 0.000000
#
# Coordination Sequence:
#
# PCOD9484327 Si02
#       6
#    16  16   8  16  16   8
#     4   8  14  23  34  48  69  99 138 183 227 273
#     4  10  20  32  48  72  99 125 156 198 243 285
#     4   9  16  22  30  46  68  98 140 185 229 273
#     4   8  14  25  40  58  80 109 145 186 230 275
#     4  11  21  35  54  74  98 126 159 196 234 284
#     4  10  18  32  53  74  95 120 157 195 231 277
#
# _framework density 22.442285999999999
#
# number of rings (size 3 to 8) (size 9 to 14) (size 15 to 20)
#    0.000    2.700    0.000    5.700    1.400    1.600 
#    0.000    2.500    0.000    3.000    0.000    0.000 
#    0.000    0.000    0.000    0.000    0.000    1.000 
#
# Total GULP energy -223027.213319 kJ/mol
# GULP energy per Si atom -5575.680333 kJ/mol
# Density = 2.239121 g / cm^3
# Si number density = 22.442286 Si / 1000 Ang^3
#
#
#
# Elastic Constant Matrix: (Units=GPa)
#
#
# Indices 1 2 3 4 5 6 
#
# 1 204.3103 15.5147 104.1513 0.0000 0.0000 0.0000
# 2 15.5147 49.4074 5.6413 0.0000 0.0000 0.0000
# 3 104.1513 5.6413 141.0626 0.0000 0.0000 0.0000
# 4 0.0000 0.0000 0.0000 1.2890 0.0000 0.0000
# 5 0.0000 0.0000 0.0000 0.0000 92.0005 0.0000
# 6 0.0000 0.0000 0.0000 0.0000 0.0000 11.0975
#
#
#
# Elastic Compliance Matrix: (Units=1/GPa)
#
#
# Indices 1 2 3 4 5 6 
#
# 1 0.008013 -0.001849 -0.005843 0.000000 0.000000 0.000000
# 2 -0.001849 0.020759 0.000535 0.000000 0.000000 0.000000
# 3 -0.005843 0.000535 0.011381 0.000000 0.000000 0.000000
# 4 0.000000 0.000000 0.000000 0.775792 0.000000 0.000000
# 5 0.000000 0.000000 0.000000 0.000000 0.010870 0.000000
# 6 0.000000 0.000000 0.000000 0.000000 0.000000 0.090111
#
#
# Mechanical properties :
#
#
# Convention : Reuss Voigt Hill
#
# Bulk Modulus (GPa) = 38.69831 71.71055 55.20443
# Shear Modulus (GPa) = 5.31998 38.84226 22.08112
#
# Velocity S-wave (km/s) = 1.54132 4.16476 3.14013
# Velocity P-wave (km/s) = 4.52200 7.42628 6.14809
#
# Compressibility (1/GPa) = 0.02584092
#
# Stress axis : x y z
#
# Youngs Moduli (GPa) = 124.79275 48.17082 87.86274
#
# Poissons Ratio (x) = 0.08908 0.51334
# Poissons Ratio (y) = 0.23077 -0.04702
# Poissons Ratio (z) = 0.72911 -0.02578
#
# Static dielectric constant tensor:
#      x y z
#    x 1.829010 0.000000 0.000000 
#    y 0.000000 2.319100 0.000000 
#    z 0.000000 0.000000 1.846510 
# 
# From -- ./inp_files/67356.got.cif
#   From: 2010.05.17/outbox.cif.g08.bks.cpg/sg65_34_cif.got.tgz:67356.got - 2010.06.03 17:01:31.
