data_PCOD9484722
_publ_section_title
;
Structure prediction by ZEFSAII (Michael W. Deem and Ramdas Pophale) SiO2 
 PCOD9484722
Probable space group: C M M M
;
_chemical_formula_sum "Si O2"
_cell_formula_units_Z 88
_cell_length_a 27.104021
_cell_length_b 15.865756
_cell_length_c 14.366170
_cell_angle_alpha 90.000000
_cell_angle_beta 90.000000
_cell_angle_gamma 90.000000
_cell_volume 6177.823515
_symmetry_space_group_name_H-M "C M M M"
_symmetry_group_IT_number 65
_symmetry_cell_setting 'orthorhombic'
loop_
_space_group_symop_operation_xyz
x,y,z
-x,-y,z
x,-y,-z
-x,y,-z
-x,-y,-z
x,y,-z
-x,y,z
x,-y,z
1/2+x,1/2+y,z
1/2-x,1/2-y,z
1/2+x,1/2-y,-z
1/2-x,1/2+y,-z
1/2-x,1/2-y,-z
1/2+x,1/2+y,-z
1/2-x,1/2+y,z
1/2+x,1/2-y,z
loop_
_atom_site_type_symbol
_atom_site_label
_atom_site_fract_x
_atom_site_fract_y
_atom_site_fract_z
Si Si1 0.272142 0.661097 0.386827
Si Si2 0.059896 0.402682 0.104323
Si Si3 0.113373 0.830824 0.387314
Si Si4 0.058634 0.672817 0.296891
Si Si5 0.556261 0.500000 0.613074
Si Si6 0.209027 0.500000 0.613371
Si Si7 0.593728 0.000000 0.388197
O O1 0.270674 0.659832 0.500000
O O2 0.250000 0.750000 0.355955
O O3 0.329484 0.656784 0.361170
O O4 0.238732 0.582876 0.355523
O O5 0.075283 0.500000 0.121005
O O6 0.074337 0.343950 0.189944
O O7 0.000000 0.403560 0.104584
O O8 0.075721 0.378099 0.000000
O O9 0.110942 0.822545 0.500000
O O10 0.089290 0.747945 0.343127
O O11 0.083808 0.914639 0.359160
O O12 0.068713 0.584449 0.349156
O O13 0.000000 0.691151 0.300938
O O14 0.500000 0.500000 0.645320
O O15 0.556136 0.500000 0.500000
O O16 0.209527 0.500000 0.500000
O O17 0.151638 0.500000 0.639943
O O18 0.590962 0.000000 0.500000
#
# Coordination Sequence:
#
# PCOD9484722 Si02
#       7
#    16  16  16  16   8   8   8
#     4   9  16  27  41  55  73 102 141 181 215 239
#     4   8  14  27  45  61  80 109 144 179 208 237
#     4  10  19  29  42  60  83 113 149 182 210 246
#     4  11  20  29  41  62  91 121 144 165 202 255
#     4   9  17  29  41  53  74 109 150 183 203 224
#     4   9  17  29  43  56  75 108 148 188 220 240
#     4  11  21  29  38  59  93 125 147 165 197 256
#
# _framework density 14.244498
#
# number of rings (size 3 to 8) (size 9 to 14) (size 15 to 20)
#    0.000    2.455    0.909    3.545    0.000    7.636 
#    0.000    0.000    0.000    0.000    0.000    0.636 
#    0.000   11.636    0.000    0.000    0.000    0.000 
#
# Total GULP energy -245147.990770 kJ/mol
# GULP energy per Si atom -5571.545245 kJ/mol
# Density = 1.421208 g / cm^3
# Si number density = 14.244498 Si / 1000 Ang^3
#
#
#
# Elastic Constant Matrix: (Units=GPa)
#
#
# Indices 1 2 3 4 5 6 
#
# 1 57.1922 11.5060 3.7800 0.0000 0.0000 0.0000
# 2 11.5060 69.1521 8.7640 0.0000 0.0000 0.0000
# 3 3.7800 8.7640 43.2631 0.0000 0.0000 0.0000
# 4 0.0000 0.0000 0.0000 8.4971 0.0000 0.0000
# 5 0.0000 0.0000 0.0000 0.0000 2.9810 0.0000
# 6 0.0000 0.0000 0.0000 0.0000 0.0000 26.1929
#
#
#
# Elastic Compliance Matrix: (Units=1/GPa)
#
#
# Indices 1 2 3 4 5 6 
#
# 1 0.018132 -0.002890 -0.000999 0.000000 0.000000 0.000000
# 2 -0.002890 0.015303 -0.002847 0.000000 0.000000 0.000000
# 3 -0.000999 -0.002847 0.023778 0.000000 0.000000 0.000000
# 4 0.000000 0.000000 0.000000 0.117687 0.000000 0.000000
# 5 0.000000 0.000000 0.000000 0.000000 0.335462 0.000000
# 6 0.000000 0.000000 0.000000 0.000000 0.000000 0.038178
#
#
# Mechanical properties :
#
#
# Convention : Reuss Voigt Hill
#
# Bulk Modulus (GPa) = 22.86214 24.18971 23.52593
# Shear Modulus (GPa) = 8.67162 17.23803 12.95482
#
# Velocity S-wave (km/s) = 2.47000 3.48250 3.01900
# Velocity P-wave (km/s) = 4.92130 5.76100 5.35762
#
# Compressibility (1/GPa) = 0.04374043
#
# Stress axis : x y z
#
# Youngs Moduli (GPa) = 55.14989 65.34812 42.05490
#
# Poissons Ratio (x) = 0.18888 0.04200
# Poissons Ratio (y) = 0.15941 0.11975
# Poissons Ratio (z) = 0.05508 0.18607
#
# Static dielectric constant tensor:
#      x y z
#    x 1.479720 0.000000 0.000000 
#    y 0.000000 1.464920 0.000000 
#    z 0.000000 0.000000 1.458650 
# 
# From -- ./inp_files/46932.got.cif
#   From: 2010.05.17/outbox.cif.g08.bks.cpg/sg65_24_cif.got.tgz:46932.got - 2010.06.03 17:01:31.
