data_PCOD9484709
_publ_section_title
;
Structure prediction by ZEFSAII (Michael W. Deem and Ramdas Pophale) SiO2 
 PCOD9484709
Probable space group: C M M M
;
_chemical_formula_sum "Si O2"
_cell_formula_units_Z 80
_cell_length_a 7.324632
_cell_length_b 18.529212
_cell_length_c 27.517300
_cell_angle_alpha 90.000000
_cell_angle_beta 90.000000
_cell_angle_gamma 90.000000
_cell_volume 3734.638577
_symmetry_space_group_name_H-M "C M M M"
_symmetry_group_IT_number 65
_symmetry_cell_setting 'orthorhombic'
loop_
_space_group_symop_operation_xyz
x,y,z
-x,-y,z
x,-y,-z
-x,y,-z
-x,-y,-z
x,y,-z
-x,y,z
x,-y,z
1/2+x,1/2+y,z
1/2-x,1/2-y,z
1/2+x,1/2-y,-z
1/2-x,1/2+y,-z
1/2-x,1/2-y,-z
1/2+x,1/2+y,-z
1/2-x,1/2+y,z
1/2+x,1/2-y,z
loop_
_atom_site_type_symbol
_atom_site_label
_atom_site_fract_x
_atom_site_fract_y
_atom_site_fract_z
Si Si1 0.782600 0.665269 0.500000
Si Si2 0.714857 0.912433 0.298447
Si Si3 0.276793 0.083527 0.000000
Si Si4 0.223115 0.584080 0.404137
Si Si5 0.217508 0.665011 0.903389
Si Si6 0.276855 0.915860 0.807474
O O1 0.750000 0.750000 0.500000
O O2 0.713561 0.628937 0.549537
O O3 0.000000 0.652657 0.500000
O O4 0.500000 0.894610 0.298381
O O5 0.787031 0.888886 0.351033
O O6 0.787132 0.889527 0.245770
O O7 0.728920 0.000000 0.298592
O O8 0.214521 0.124295 0.048588
O O9 0.500000 0.085062 0.000000
O O10 0.222833 0.000000 0.000000
O O11 0.273476 0.500000 0.409746
O O12 0.000000 0.585878 0.402943
O O13 0.250000 0.750000 0.906221
O O14 0.286103 0.630817 0.853075
O O15 0.000000 0.653679 0.902842
O O16 0.500000 0.914501 0.806253
O O17 0.226247 0.000000 0.813811
#
# Coordination Sequence:
#
# PCOD9484709 Si02
#       6
#     8  16   8  16  16  16
#     4  10  19  29  41  59  85 112 136 166 206 252
#     4   7  10  18  35  60  84 101 127 174 218 240
#     4   9  17  30  49  69  84 105 144 186 214 239
#     4   8  13  23  41  62  80 102 137 178 212 240
#     4  10  19  30  45  65  90 116 140 170 208 250
#     4   8  13  23  41  63  84 108 140 175 207 240
#
# _framework density 21.421084
#
# number of rings (size 3 to 8) (size 9 to 14) (size 15 to 20)
#    0.000    3.500    0.000    3.600    0.000    3.600 
#    0.000    1.000    0.000    4.200    0.000    0.000 
#    0.000    4.800    0.000    0.000    0.000    0.000 
#
# Total GULP energy -223069.384681 kJ/mol
# GULP energy per Si atom -5576.734617 kJ/mol
# Density = 2.137233 g / cm^3
# Si number density = 21.421084 Si / 1000 Ang^3
#
#
#
# Elastic Constant Matrix: (Units=GPa)
#
#
# Indices 1 2 3 4 5 6 
#
# 1 83.1795 -4.5115 15.8344 0.0000 0.0000 0.0000
# 2 -4.5115 111.0702 128.2334 0.0000 0.0000 0.0000
# 3 15.8344 128.2334 302.3465 0.0000 0.0000 0.0000
# 4 0.0000 0.0000 0.0000 -7.2083 0.0000 0.0000
# 5 0.0000 0.0000 0.0000 0.0000 -112.5102 0.0000
# 6 0.0000 0.0000 0.0000 0.0000 0.0000 10.2603
#
#
#
# Elastic Compliance Matrix: (Units=1/GPa)
#
#
# Indices 1 2 3 4 5 6 
#
# 1 0.012480 0.002472 -0.001702 0.000000 0.000000 0.000000
# 2 0.002472 0.018132 -0.007820 0.000000 0.000000 0.000000
# 3 -0.001702 -0.007820 0.006713 0.000000 0.000000 0.000000
# 4 0.000000 0.000000 0.000000 -0.138730 0.000000 0.000000
# 5 0.000000 0.000000 0.000000 0.000000 -0.008888 0.000000
# 6 0.000000 0.000000 0.000000 0.000000 0.000000 0.097463
#
#
# Mechanical properties :
#
#
# Convention : Reuss Voigt Hill
#
# Bulk Modulus (GPa) = 43.05572 86.18987 64.62280
# Shear Modulus (GPa) = 554.85170 1.91103 278.38136
#
# Velocity S-wave (km/s) = 16.11160 0.94555 11.41222
# Velocity P-wave (km/s) = 19.13778 6.44325 14.27883
#
# Compressibility (1/GPa) = 0.02322572
#
# Stress axis : x y z
#
# Youngs Moduli (GPa) = 80.12642 55.15225 148.96244
#
# Poissons Ratio (x) = -0.13634 0.25354
# Poissons Ratio (y) = -0.19807 1.16482
# Poissons Ratio (z) = 0.13638 0.43127
#
# Static dielectric constant tensor:
#      x y z
#    x 1.838550 0.000000 0.000000 
#    y 0.000000 1.695360 0.000000 
#    z 0.000000 0.000000 1.807270 
# 
# From -- ./inp_files/72875.got.cif
#   From: 2010.05.17/outbox.cif.g08.bks.cpg/sg65_37_cif.got.tgz:72875.got - 2010.06.03 17:01:31.
