data_PCOD9484459
_publ_section_title
;
Structure prediction by ZEFSAII (Michael W. Deem and Ramdas Pophale) SiO2 
 PCOD9484459
Probable space group: C M M M
;
_chemical_formula_sum "Si O2"
_cell_formula_units_Z 84
_cell_length_a 14.214243
_cell_length_b 20.399033
_cell_length_c 16.605792
_cell_angle_alpha 90.000000
_cell_angle_beta 90.000000
_cell_angle_gamma 90.000000
_cell_volume 4814.962510
_symmetry_space_group_name_H-M "C M M M"
_symmetry_group_IT_number 65
_symmetry_cell_setting 'orthorhombic'
loop_
_space_group_symop_operation_xyz
x,y,z
-x,-y,z
x,-y,-z
-x,y,-z
-x,-y,-z
x,y,-z
-x,y,z
x,-y,z
1/2+x,1/2+y,z
1/2-x,1/2-y,z
1/2+x,1/2-y,-z
1/2-x,1/2+y,-z
1/2-x,1/2-y,-z
1/2+x,1/2+y,-z
1/2-x,1/2+y,z
1/2+x,1/2-y,z
loop_
_atom_site_type_symbol
_atom_site_label
_atom_site_fract_x
_atom_site_fract_y
_atom_site_fract_z
Si Si1 0.203541 0.424012 0.254783
Si Si2 0.000000 0.348290 0.500000
Si Si3 0.000000 0.382489 0.314454
Si Si4 0.500000 0.263397 0.758596
Si Si5 0.500000 0.338076 0.906595
Si Si6 0.822219 0.188468 0.668919
Si Si7 0.142348 0.770438 0.500000
Si Si8 0.310675 0.421833 0.907275
O O1 0.227041 0.500000 0.267936
O O2 0.094614 0.413139 0.277459
O O3 0.263853 0.376020 0.311196
O O4 0.233910 0.407622 0.162434
O O5 0.000000 0.384740 0.413053
O O6 0.086420 0.297410 0.500000
O O7 0.000000 0.306868 0.284625
O O8 0.500000 0.272114 0.854094
O O9 0.593841 0.299702 0.730207
O O10 0.406635 0.381832 0.891111
O O11 0.500000 0.321706 0.000000
O O12 0.750000 0.250000 0.673888
O O13 0.870875 0.189893 0.581523
O O14 0.250000 0.750000 0.500000
O O15 0.330356 0.500000 0.903670
O O16 0.280871 0.407412 0.000000
#
# Coordination Sequence:
#
# PCOD9484459 Si02
#       8
#    16   4   8   8   8  16   8  16
#     4  11  23  39  58  86 121 157 195 241 298 354
#     4  12  20  38  61  90 111 150 202 260 280 330
#     4  12  23  40  61  83 116 156 207 244 288 341
#     4  12  20  34  60  85 115 148 190 241 290 341
#     4  10  19  32  55  89 121 147 185 241 303 354
#     4  11  20  36  58  85 114 152 195 243 292 344
#     4  10  18  32  56  86 107 140 197 244 284 337
#     4   9  18  34  57  83 113 152 197 239 283 348
#
# _framework density 17.445618
#
# number of rings (size 3 to 8) (size 9 to 14) (size 15 to 20)
#    0.000    1.333    5.714    1.714    0.000    1.143 
#    0.000    4.286    0.000    5.714    0.000    2.000 
#    0.000    0.000    0.000    0.000    0.000    0.000 
#
# Total GULP energy -234075.487920 kJ/mol
# GULP energy per Si atom -5573.225903 kJ/mol
# Density = 1.740591 g / cm^3
# Si number density = 17.445618 Si / 1000 Ang^3
#
#
#
# Elastic Constant Matrix: (Units=GPa)
#
#
# Indices 1 2 3 4 5 6 
#
# 1 90.2030 21.0276 36.3638 0.0000 0.0000 0.0000
# 2 21.0276 59.8157 34.1908 0.0000 0.0000 0.0000
# 3 36.3638 34.1908 139.6323 0.0000 0.0000 0.0000
# 4 0.0000 0.0000 0.0000 25.8079 0.0000 0.0000
# 5 0.0000 0.0000 0.0000 0.0000 22.6165 0.0000
# 6 0.0000 0.0000 0.0000 0.0000 0.0000 77.6097
#
#
#
# Elastic Compliance Matrix: (Units=1/GPa)
#
#
# Indices 1 2 3 4 5 6 
#
# 1 0.012841 -0.003026 -0.002603 0.000000 0.000000 0.000000
# 2 -0.003026 0.020152 -0.004146 0.000000 0.000000 0.000000
# 3 -0.002603 -0.004146 0.008855 0.000000 0.000000 0.000000
# 4 0.000000 0.000000 0.000000 0.038748 0.000000 0.000000
# 5 0.000000 0.000000 0.000000 0.000000 0.044216 0.000000
# 6 0.000000 0.000000 0.000000 0.000000 0.000000 0.012885
#
#
# Mechanical properties :
#
#
# Convention : Reuss Voigt Hill
#
# Bulk Modulus (GPa) = 44.85020 52.53504 48.69262
# Shear Modulus (GPa) = 30.36199 38.41139 34.38669
#
# Velocity S-wave (km/s) = 4.17631 4.69740 4.44450
# Velocity P-wave (km/s) = 7.00142 7.72009 7.36952
#
# Compressibility (1/GPa) = 0.02229644
#
# Stress axis : x y z
#
# Youngs Moduli (GPa) = 77.87582 49.62309 112.93213
#
# Poissons Ratio (x) = 0.15017 0.29398
# Poissons Ratio (y) = 0.23567 0.46826
# Poissons Ratio (z) = 0.20272 0.20576
#
# Static dielectric constant tensor:
#      x y z
#    x 1.575250 0.000000 0.000000 
#    y 0.000000 1.572380 0.000000 
#    z 0.000000 0.000000 1.679260 
# 
# From -- ./inp_files/40283.got.cif
#   From: 2010.05.17/outbox.cif.g08.bks.cpg/sg65_21_cif.got.tgz:40283.got - 2010.06.03 17:01:31.
