data_PCOD9484726
_publ_section_title
;
Structure prediction by ZEFSAII (Michael W. Deem and Ramdas Pophale) SiO2 
 PCOD9484726
Probable space group: C M M M
;
_chemical_formula_sum "Si O2"
_cell_formula_units_Z 88
_cell_length_a 18.906447
_cell_length_b 7.308139
_cell_length_c 30.152947
_cell_angle_alpha 90.000000
_cell_angle_beta 90.000000
_cell_angle_gamma 90.000000
_cell_volume 4166.261111
_symmetry_space_group_name_H-M "C M M M"
_symmetry_group_IT_number 65
_symmetry_cell_setting 'orthorhombic'
loop_
_space_group_symop_operation_xyz
x,y,z
-x,-y,z
x,-y,-z
-x,y,-z
-x,-y,-z
x,y,-z
-x,y,z
x,-y,z
1/2+x,1/2+y,z
1/2-x,1/2-y,z
1/2+x,1/2-y,-z
1/2-x,1/2+y,-z
1/2-x,1/2-y,-z
1/2+x,1/2+y,-z
1/2-x,1/2+y,z
1/2+x,1/2-y,z
loop_
_atom_site_type_symbol
_atom_site_label
_atom_site_fract_x
_atom_site_fract_y
_atom_site_fract_z
Si Si1 0.418032 0.277304 0.414750
Si Si2 0.166727 0.781919 0.769655
Si Si3 0.418000 0.277286 0.684342
Si Si4 0.915515 0.220455 0.952346
Si Si5 0.833155 0.781916 0.500000
Si Si6 0.082561 0.776698 0.144414
O O1 0.500000 0.225673 0.421631
O O2 0.416307 0.500000 0.414561
O O3 0.396322 0.218692 0.365208
O O4 0.369995 0.212426 0.455148
O O5 0.250000 0.750000 0.770373
O O6 0.130523 0.712647 0.724555
O O7 0.128330 0.713088 0.814045
O O8 0.155403 0.000000 0.769621
O O9 0.500000 0.225487 0.691358
O O10 0.416454 0.500000 0.684167
O O11 0.889956 0.283979 0.904140
O O12 0.000000 0.256976 0.952160
O O13 0.907850 0.000000 0.952759
O O14 0.887272 0.287544 0.000000
O O15 0.750000 0.750000 0.500000
O O16 0.844716 0.000000 0.500000
O O17 0.000000 0.724883 0.149416
O O18 0.083522 0.000000 0.143922
#
# Coordination Sequence:
#
# PCOD9484726 Si02
#       6
#    16  16  16  16   8  16
#     4   8  14  26  45  66  84 105 139 179 209 235
#     4  10  19  29  42  61  85 111 136 165 203 245
#     4   8  14  26  45  66  83 102 136 179 212 237
#     4   7   9  14  27  50  77  98 119 158 209 244
#     4  10  19  29  43  65  91 116 140 168 204 244
#     4   8  13  22  38  58  77 101 136 172 201 234
#
# _framework density 21.122057000000002
#
# number of rings (size 3 to 8) (size 9 to 14) (size 15 to 20)
#    0.000    3.636    0.000    3.545    0.000    4.000 
#    0.000    0.000    0.000    3.818    0.000    2.545 
#    0.000    0.000    0.000    4.545    0.000    3.636 
#
# Total GULP energy -245315.094849 kJ/mol
# GULP energy per Si atom -5575.343065 kJ/mol
# Density = 2.107398 g / cm^3
# Si number density = 21.122057 Si / 1000 Ang^3
#
#
#
# Elastic Constant Matrix: (Units=GPa)
#
#
# Indices 1 2 3 4 5 6 
#
# 1 97.2824 -1.3330 133.2100 0.0000 0.0000 0.0000
# 2 -1.3330 84.4973 11.1127 0.0000 0.0000 0.0000
# 3 133.2100 11.1127 294.6442 0.0000 0.0000 0.0000
# 4 0.0000 0.0000 0.0000 -15.6765 0.0000 0.0000
# 5 0.0000 0.0000 0.0000 0.0000 -3.9872 0.0000
# 6 0.0000 0.0000 0.0000 0.0000 0.0000 10.5182
#
#
#
# Elastic Compliance Matrix: (Units=1/GPa)
#
#
# Indices 1 2 3 4 5 6 
#
# 1 0.027340 0.002067 -0.012438 0.000000 0.000000 0.000000
# 2 0.002067 0.012050 -0.001389 0.000000 0.000000 0.000000
# 3 -0.012438 -0.001389 0.009070 0.000000 0.000000 0.000000
# 4 0.000000 0.000000 0.000000 -0.063790 0.000000 0.000000
# 5 0.000000 0.000000 0.000000 0.000000 -0.250800 0.000000
# 6 0.000000 0.000000 0.000000 0.000000 0.000000 0.095073
#
#
# Mechanical properties :
#
#
# Convention : Reuss Voigt Hill
#
# Bulk Modulus (GPa) = 40.09797 84.71149 62.40473
# Shear Modulus (GPa) = -35.91340 20.39983 -7.75678
#
# Velocity S-wave (km/s) = -4.12792 3.11112 -1.91842
# Velocity P-wave (km/s) = 1.92210 7.28685 4.97010
#
# Compressibility (1/GPa) = 0.02493892
#
# Stress axis : x y z
#
# Youngs Moduli (GPa) = 36.57689 82.98757 110.25659
#
# Poissons Ratio (x) = -0.17155 1.37141
# Poissons Ratio (y) = -0.07561 0.15315
# Poissons Ratio (z) = 0.45496 0.11527
#
# Static dielectric constant tensor:
#      x y z
#    x 1.681100 0.000000 0.000000 
#    y 0.000000 1.867110 0.000000 
#    z 0.000000 0.000000 1.794310 
# 
# From -- ./inp_files/78047.got.cif
#   From: 2010.05.17/outbox.cif.g08.bks.cpg/sg65_40_cif.got.tgz:78047.got - 2010.06.03 17:01:31.
