data_PCOD9484422
_publ_section_title
;
Structure prediction by ZEFSAII (Michael W. Deem and Ramdas Pophale) SiO2 
 PCOD9484422
Probable space group: C M M M
;
_chemical_formula_sum "Si O2"
_cell_formula_units_Z 88
_cell_length_a 14.505301
_cell_length_b 18.740609
_cell_length_c 14.603041
_cell_angle_alpha 90.000000
_cell_angle_beta 90.000000
_cell_angle_gamma 90.000000
_cell_volume 3969.664007
_symmetry_space_group_name_H-M "C M M M"
_symmetry_group_IT_number 65
_symmetry_cell_setting 'orthorhombic'
loop_
_space_group_symop_operation_xyz
x,y,z
-x,-y,z
x,-y,-z
-x,y,-z
-x,-y,-z
x,y,-z
-x,y,z
x,-y,z
1/2+x,1/2+y,z
1/2-x,1/2-y,z
1/2+x,1/2-y,-z
1/2-x,1/2+y,-z
1/2-x,1/2-y,-z
1/2+x,1/2+y,-z
1/2-x,1/2+y,z
1/2+x,1/2-y,z
loop_
_atom_site_type_symbol
_atom_site_label
_atom_site_fract_x
_atom_site_fract_y
_atom_site_fract_z
Si Si1 0.111498 0.141396 0.216340
Si Si2 0.386973 0.077653 0.205847
Si Si3 0.647934 0.717623 0.602803
Si Si4 0.387355 0.219985 0.104689
Si Si5 0.886795 0.000000 0.107488
Si Si6 0.896113 0.623918 0.601611
O O1 0.137069 0.157268 0.321464
O O2 0.143413 0.211774 0.162030
O O3 0.142836 0.070217 0.164193
O O4 0.000000 0.140046 0.213368
O O5 0.500000 0.080194 0.208383
O O6 0.356696 0.145502 0.148167
O O7 0.352706 0.087352 0.310216
O O8 0.361241 0.000000 0.169304
O O9 0.623650 0.694050 0.500000
O O10 0.750000 0.750000 0.602750
O O11 0.595239 0.791637 0.623478
O O12 0.500000 0.220080 0.106759
O O13 0.359084 0.225965 0.000000
O O14 0.000000 0.000000 0.106122
O O15 0.858555 0.000000 0.000000
O O16 0.853132 0.616763 0.500000
O O17 0.000000 0.595178 0.594848
#
# Coordination Sequence:
#
# PCOD9484422 Si02
#       6
#    16  16  16  16   8  16
#     4  10  18  32  55  81 107 138 177 221 271 325
#     4   9  16  25  39  65  97 126 160 201 244 292
#     4  10  20  33  52  76 103 135 173 214 259 317
#     4   9  16  26  43  68  97 129 164 203 249 303
#     4   9  18  32  55  89 117 137 173 230 286 328
#     4   9  16  28  47  70  95 123 159 205 253 300
#
# _framework density 22.168123000000001
#
# number of rings (size 3 to 8) (size 9 to 14) (size 15 to 20)
#    0.000    2.636    1.818    1.091    0.000    4.000 
#    0.000    4.091    2.000    3.818    0.000    0.000 
#    0.000    0.000    0.000    0.000    0.000    0.000 
#
# Total GULP energy -245639.935246 kJ/mol
# GULP energy per Si atom -5582.725801 kJ/mol
# Density = 2.211767 g / cm^3
# Si number density = 22.168123 Si / 1000 Ang^3
#
#
#
# Elastic Constant Matrix: (Units=GPa)
#
#
# Indices 1 2 3 4 5 6 
#
# 1 46.7156 15.2850 -7.0411 0.0000 0.0000 0.0000
# 2 15.2850 175.3745 98.6959 0.0000 0.0000 0.0000
# 3 -7.0411 98.6959 159.1571 0.0000 0.0000 0.0000
# 4 0.0000 0.0000 0.0000 -3.6947 0.0000 0.0000
# 5 0.0000 0.0000 0.0000 0.0000 -8.2750 0.0000
# 6 0.0000 0.0000 0.0000 0.0000 0.0000 10.3644
#
#
#
# Elastic Compliance Matrix: (Units=1/GPa)
#
#
# Indices 1 2 3 4 5 6 
#
# 1 0.023244 -0.004001 0.003509 0.000000 0.000000 0.000000
# 2 -0.004001 0.009447 -0.006035 0.000000 0.000000 0.000000
# 3 0.003509 -0.006035 0.010181 0.000000 0.000000 0.000000
# 4 0.000000 0.000000 0.000000 -0.270656 0.000000 0.000000
# 5 0.000000 0.000000 0.000000 0.000000 -0.120846 0.000000
# 6 0.000000 0.000000 0.000000 0.000000 0.000000 0.096484
#
#
# Mechanical properties :
#
#
# Convention : Reuss Voigt Hill
#
# Bulk Modulus (GPa) = 33.53618 66.12518 49.83068
# Shear Modulus (GPa) = -21.81957 17.96610 -1.92673
#
# Velocity S-wave (km/s) = -3.14072 2.84992 -0.93329
# Velocity P-wave (km/s) = 1.41731 6.38147 4.62233
#
# Compressibility (1/GPa) = 0.02981855
#
# Stress axis : x y z
#
# Youngs Moduli (GPa) = 43.02169 105.84959 98.22184
#
# Poissons Ratio (x) = 0.42348 -0.34469
# Poissons Ratio (y) = 0.17212 0.59281
# Poissons Ratio (z) = -0.15098 0.63885
#
# Static dielectric constant tensor:
#      x y z
#    x 1.705750 0.000000 0.000000 
#    y 0.000000 1.789040 0.000000 
#    z 0.000000 0.000000 1.808930 
# 
# From -- ./inp_files/42487.got.cif
#   From: 2010.05.17/outbox.cif.g08.bks.cpg/sg65_22_cif.got.tgz:42487.got - 2010.06.03 17:01:31.
