data_PCOD9484563
_publ_section_title
;
Structure prediction by ZEFSAII (Michael W. Deem and Ramdas Pophale) SiO2 
 PCOD9484563
Probable space group: C M M M
;
_chemical_formula_sum "Si O2"
_cell_formula_units_Z 128
_cell_length_a 18.354352
_cell_length_b 20.028312
_cell_length_c 20.050114
_cell_angle_alpha 90.000000
_cell_angle_beta 90.000000
_cell_angle_gamma 90.000000
_cell_volume 7370.556010
_symmetry_space_group_name_H-M "C M M M"
_symmetry_group_IT_number 65
_symmetry_cell_setting 'orthorhombic'
loop_
_space_group_symop_operation_xyz
x,y,z
-x,-y,z
x,-y,-z
-x,y,-z
-x,-y,-z
x,y,-z
-x,y,z
x,-y,z
1/2+x,1/2+y,z
1/2-x,1/2-y,z
1/2+x,1/2-y,-z
1/2-x,1/2+y,-z
1/2-x,1/2-y,-z
1/2+x,1/2+y,-z
1/2-x,1/2+y,z
1/2+x,1/2-y,z
loop_
_atom_site_type_symbol
_atom_site_label
_atom_site_fract_x
_atom_site_fract_y
_atom_site_fract_z
Si Si1 0.413540 0.696725 0.923214
Si Si2 0.913225 0.072045 0.161668
Si Si3 0.857296 0.128197 0.708301
Si Si4 0.192730 0.688848 0.074010
Si Si5 0.704547 0.421749 0.575771
Si Si6 0.585847 0.778307 0.301330
Si Si7 0.717302 0.825463 0.783474
Si Si8 0.686543 0.802650 0.577464
O O1 0.500000 0.700144 0.915727
O O2 0.384476 0.638121 0.875719
O O3 0.380643 0.769432 0.910907
O O4 0.396394 0.679125 0.000000
O O5 0.897927 0.081048 0.239619
O O6 0.000000 0.071789 0.150172
O O7 0.884493 0.000000 0.138383
O O8 0.850154 0.101619 0.633463
O O9 0.896659 0.199947 0.710265
O O10 0.775313 0.136235 0.737808
O O11 0.250000 0.750000 0.069376
O O12 0.210976 0.648501 0.140702
O O13 0.189842 0.657538 0.000000
O O14 0.676824 0.410939 0.500000
O O15 0.720758 0.500000 0.583720
O O16 0.775722 0.374948 0.582053
O O17 0.500000 0.790767 0.294404
O O18 0.638674 0.818573 0.251031
O O19 0.618242 0.794756 0.374409
O O20 0.750000 0.750000 0.787364
O O21 0.669876 0.788447 0.500000
O O22 0.750000 0.750000 0.599103
#
# Coordination Sequence:
#
# PCOD9484563 Si02
#       8
#    16  16  16  16  16  16  16  16
#     4   9  17  29  44  62  89 128 168 202 241 294
#     4  10  20  31  44  66  95 128 167 210 252 295
#     4  11  19  33  50  71  99 133 166 205 247 305
#     4   9  16  26  42  64  89 118 156 201 248 293
#     4  10  20  34  56  79  98 127 168 209 248 294
#     4  11  20  30  48  76 103 131 165 207 257 300
#     4   9  17  29  45  67  95 127 162 204 244 299
#     4  10  18  34  55  76 102 130 164 206 249 301
#
# _framework density 17.366396999999999
#
# number of rings (size 3 to 8) (size 9 to 14) (size 15 to 20)
#    0.000    2.125    2.500    3.375    0.000    2.000 
#    0.000    1.250    0.000    1.500    0.000    6.125 
#    0.000    0.000    0.000    0.000    0.000    1.250 
#
# Total GULP energy -356634.278879 kJ/mol
# GULP energy per Si atom -5572.410607 kJ/mol
# Density = 1.732687 g / cm^3
# Si number density = 17.366397 Si / 1000 Ang^3
#
#
#
# Elastic Constant Matrix: (Units=GPa)
#
#
# Indices 1 2 3 4 5 6 
#
# 1 71.6295 -4.2590 19.2647 0.0000 0.0000 0.0000
# 2 -4.2590 20.4265 -6.4473 0.0000 0.0000 0.0000
# 3 19.2647 -6.4473 83.6975 0.0000 0.0000 0.0000
# 4 0.0000 0.0000 0.0000 9.5885 0.0000 0.0000
# 5 0.0000 0.0000 0.0000 0.0000 21.0849 0.0000
# 6 0.0000 0.0000 0.0000 0.0000 0.0000 8.5286
#
#
#
# Elastic Compliance Matrix: (Units=1/GPa)
#
#
# Indices 1 2 3 4 5 6 
#
# 1 0.014968 0.002084 -0.003285 0.000000 0.000000 0.000000
# 2 0.002084 0.050466 0.003408 0.000000 0.000000 0.000000
# 3 -0.003285 0.003408 0.012966 0.000000 0.000000 0.000000
# 4 0.000000 0.000000 0.000000 0.104292 0.000000 0.000000
# 5 0.000000 0.000000 0.000000 0.000000 0.047427 0.000000
# 6 0.000000 0.000000 0.000000 0.000000 0.000000 0.117252
#
#
# Mechanical properties :
#
#
# Convention : Reuss Voigt Hill
#
# Bulk Modulus (GPa) = 12.07512 21.43004 16.75258
# Shear Modulus (GPa) = 13.49301 18.98675 16.23988
#
# Velocity S-wave (km/s) = 2.79043 3.31010 3.06131
# Velocity P-wave (km/s) = 4.16536 5.19382 4.70776
#
# Compressibility (1/GPa) = 0.08281489
#
# Stress axis : x y z
#
# Youngs Moduli (GPa) = 66.80892 19.81530 77.12290
#
# Poissons Ratio (x) = -0.04130 0.25332
# Poissons Ratio (y) = -0.13924 -0.26281
# Poissons Ratio (z) = 0.21944 -0.06753
#
# Static dielectric constant tensor:
#      x y z
#    x 1.620400 0.000000 0.000000 
#    y 0.000000 1.602120 0.000000 
#    z 0.000000 0.000000 1.656800 
# 
# From -- ./inp_files/64134.got.cif
#   From: 2010.05.17/outbox.cif.g08.bks.cpg/sg65_33_cif.got.tgz:64134.got - 2010.06.03 17:01:31.
