data_PCOD9484781
_publ_section_title
;
Structure prediction by ZEFSAII (Michael W. Deem and Ramdas Pophale) SiO2 
 PCOD9484781
Probable space group: C M M M
;
_chemical_formula_sum "Si O2"
_cell_formula_units_Z 104
_cell_length_a 27.996187
_cell_length_b 8.976097
_cell_length_c 27.142897
_cell_angle_alpha 90.000000
_cell_angle_beta 90.000000
_cell_angle_gamma 90.000000
_cell_volume 6820.914748
_symmetry_space_group_name_H-M "C M M M"
_symmetry_group_IT_number 65
_symmetry_cell_setting 'orthorhombic'
loop_
_space_group_symop_operation_xyz
x,y,z
-x,-y,z
x,-y,-z
-x,y,-z
-x,-y,-z
x,y,-z
-x,y,z
x,-y,z
1/2+x,1/2+y,z
1/2-x,1/2-y,z
1/2+x,1/2-y,-z
1/2-x,1/2+y,-z
1/2-x,1/2-y,-z
1/2+x,1/2+y,-z
1/2-x,1/2+y,z
1/2+x,1/2-y,z
loop_
_atom_site_type_symbol
_atom_site_label
_atom_site_fract_x
_atom_site_fract_y
_atom_site_fract_z
Si Si1 0.199085 0.678641 0.745651
Si Si2 0.895637 0.322572 0.804480
Si Si3 0.943966 0.177830 0.897802
Si Si4 0.198131 0.820854 0.555469
Si Si5 0.144804 0.178801 0.346148
Si Si6 0.942027 0.328616 0.000000
Si Si7 0.444871 0.821287 0.298675
O O1 0.202764 0.500000 0.740768
O O2 0.250000 0.750000 0.757457
O O3 0.158131 0.710789 0.786219
O O4 0.179367 0.747202 0.694595
O O5 0.899220 0.500000 0.813131
O O6 0.913265 0.237549 0.852403
O O7 0.929097 0.286296 0.757434
O O8 0.000000 0.219843 0.890164
O O9 0.941637 0.000000 0.900734
O O10 0.927580 0.247486 0.949688
O O11 0.182664 0.778073 0.500000
O O12 0.250000 0.750000 0.564266
O O13 0.162713 0.778918 0.599446
O O14 0.202987 0.000000 0.556564
O O15 0.092086 0.237843 0.333866
O O16 0.146717 0.000000 0.341131
O O17 0.926561 0.500000 0.000000
O O18 0.000000 0.325689 0.000000
O O19 0.500000 0.783270 0.306768
O O20 0.438868 0.000000 0.304439
#
# Coordination Sequence:
#
# PCOD9484781 Si02
#       7
#    16  16  16  16  16   8  16
#     4  10  20  33  48  67  93 122 152 187 226 270
#     4   9  18  31  46  65  89 119 152 182 219 268
#     4  10  19  29  43  66  95 122 150 188 227 261
#     4   9  18  31  46  66  91 117 146 182 225 272
#     4  10  19  30  47  69  92 119 150 185 225 272
#     4   9  17  29  45  63  86 121 158 187 221 267
#     4   9  18  32  48  66  91 122 154 189 226 265
#
# _framework density 15.247222000000001
#
# number of rings (size 3 to 8) (size 9 to 14) (size 15 to 20)
#    0.000    2.538    0.000    3.462    0.000    8.308 
#    0.000    0.000    0.000    0.462    0.000    3.769 
#    0.000    0.000    0.000    0.000    0.000    0.000 
#
# Total GULP energy -289937.344405 kJ/mol
# GULP energy per Si atom -5575.718162 kJ/mol
# Density = 1.521252 g / cm^3
# Si number density = 15.247222 Si / 1000 Ang^3
#
#
#
# Elastic Constant Matrix: (Units=GPa)
#
#
# Indices 1 2 3 4 5 6 
#
# 1 102.7645 50.2025 75.1483 0.0000 0.0000 0.0000
# 2 50.2025 51.6108 61.1204 0.0000 0.0000 0.0000
# 3 75.1483 61.1204 143.6735 0.0000 0.0000 0.0000
# 4 0.0000 0.0000 0.0000 25.0683 0.0000 0.0000
# 5 0.0000 0.0000 0.0000 0.0000 20.7108 0.0000
# 6 0.0000 0.0000 0.0000 0.0000 0.0000 26.8884
#
#
#
# Elastic Compliance Matrix: (Units=1/GPa)
#
#
# Indices 1 2 3 4 5 6 
#
# 1 0.019811 -0.014105 -0.004362 0.000000 0.000000 0.000000
# 2 -0.014105 0.049091 -0.013506 0.000000 0.000000 0.000000
# 3 -0.004362 -0.013506 0.014987 0.000000 0.000000 0.000000
# 4 0.000000 0.000000 0.000000 0.039891 0.000000 0.000000
# 5 0.000000 0.000000 0.000000 0.000000 0.048284 0.000000
# 6 0.000000 0.000000 0.000000 0.000000 0.000000 0.037191
#
#
# Mechanical properties :
#
#
# Convention : Reuss Voigt Hill
#
# Bulk Modulus (GPa) = 50.14239 74.55457 62.34848
# Shear Modulus (GPa) = 17.86678 21.97201 19.91940
#
# Velocity S-wave (km/s) = 3.42688 3.80023 3.61838
# Velocity P-wave (km/s) = 6.97249 8.26190 7.64443
#
# Compressibility (1/GPa) = 0.01994321
#
# Stress axis : x y z
#
# Youngs Moduli (GPa) = 50.47618 20.37042 66.72350
#
# Poissons Ratio (x) = 0.28733 0.29103
# Poissons Ratio (y) = 0.71198 0.90117
# Poissons Ratio (z) = 0.22016 0.27512
#
# Static dielectric constant tensor:
#      x y z
#    x 1.490750 0.000000 0.000000 
#    y 0.000000 1.511080 0.000000 
#    z 0.000000 0.000000 1.494690 
# 
# From -- ./inp_files/72131.got.cif
#   From: 2010.05.17/outbox.cif.g08.bks.cpg/sg65_37_cif.got.tgz:72131.got - 2010.06.03 17:01:31.
