data_PCOD9484034
_publ_section_title
;
Structure prediction by ZEFSAII (Michael W. Deem and Ramdas Pophale) SiO2 
 PCOD9484034
Probable space group: C M M M
;
_chemical_formula_sum "Si O2"
_cell_formula_units_Z 80
_cell_length_a 26.403197
_cell_length_b 24.047618
_cell_length_c 9.338278
_cell_angle_alpha 90.000000
_cell_angle_beta 90.000000
_cell_angle_gamma 90.000000
_cell_volume 5929.190161
_symmetry_space_group_name_H-M "C M M M"
_symmetry_group_IT_number 65
_symmetry_cell_setting 'orthorhombic'
loop_
_space_group_symop_operation_xyz
x,y,z
-x,-y,z
x,-y,-z
-x,y,-z
-x,-y,-z
x,y,-z
-x,y,z
x,-y,z
1/2+x,1/2+y,z
1/2-x,1/2-y,z
1/2+x,1/2-y,-z
1/2-x,1/2+y,-z
1/2-x,1/2-y,-z
1/2+x,1/2+y,-z
1/2-x,1/2+y,z
1/2+x,1/2-y,z
loop_
_atom_site_type_symbol
_atom_site_label
_atom_site_fract_x
_atom_site_fract_y
_atom_site_fract_z
Si Si1 0.645717 0.808526 0.330577
Si Si2 0.287180 0.000000 0.328477
Si Si3 0.197717 0.214154 0.165008
Si Si4 0.604845 0.000000 0.171989
Si Si5 0.940477 0.605754 0.669141
Si Si6 0.252167 0.878379 0.669194
O O1 0.646494 0.796265 0.500000
O O2 0.656849 0.752588 0.244103
O O3 0.594405 0.841237 0.295796
O O4 0.692515 0.850949 0.302578
O O5 0.256776 0.056502 0.297919
O O6 0.299440 0.000000 0.500000
O O7 0.338751 0.000000 0.238364
O O8 0.250000 0.250000 0.171365
O O9 0.211342 0.156822 0.243301
O O10 0.184742 0.205468 0.000000
O O11 0.576793 0.054161 0.234658
O O12 0.605780 0.000000 0.000000
O O13 0.931046 0.592420 0.500000
O O14 0.000000 0.616407 0.686122
O O15 0.242439 0.871571 0.500000
#
# Coordination Sequence:
#
# PCOD9484034 Si02
#       6
#    16   8  16   8  16  16
#     4   9  16  28  45  61  77 101 137 175 209 246
#     4  10  18  31  47  62  82 111 145 177 210 247
#     4   9  17  27  40  59  83 105 129 163 206 253
#     4  12  23  31  42  59  84 112 142 181 221 253
#     4  10  20  34  49  61  77 107 146 184 218 252
#     4   9  16  27  44  61  79 104 137 172 204 243
#
# _framework density 13.492566999999999
#
# number of rings (size 3 to 8) (size 9 to 14) (size 15 to 20)
#    0.000    2.400    2.000    1.800    0.000    5.600 
#    0.000    0.000    0.000    0.000    0.000    0.000 
#    0.000    0.000    0.000    0.900    0.000   20.600 
#
# Total GULP energy -222955.060461 kJ/mol
# GULP energy per Si atom -5573.876512 kJ/mol
# Density = 1.346186 g / cm^3
# Si number density = 13.492567 Si / 1000 Ang^3
#
#
#
# Elastic Constant Matrix: (Units=GPa)
#
#
# Indices 1 2 3 4 5 6 
#
# 1 58.7795 59.1508 48.7953 0.0000 0.0000 0.0000
# 2 59.1508 116.6165 68.9211 0.0000 0.0000 0.0000
# 3 48.7953 68.9211 68.1375 0.0000 0.0000 0.0000
# 4 0.0000 0.0000 0.0000 1.1251 0.0000 0.0000
# 5 0.0000 0.0000 0.0000 0.0000 7.0843 0.0000
# 6 0.0000 0.0000 0.0000 0.0000 0.0000 5.9173
#
#
#
# Elastic Compliance Matrix: (Units=1/GPa)
#
#
# Indices 1 2 3 4 5 6 
#
# 1 0.045892 -0.009583 -0.023171 0.000000 0.000000 0.000000
# 2 -0.009583 0.023322 -0.016727 0.000000 0.000000 0.000000
# 3 -0.023171 -0.016727 0.048189 0.000000 0.000000 0.000000
# 4 0.000000 0.000000 0.000000 0.888775 0.000000 0.000000
# 5 0.000000 0.000000 0.000000 0.000000 0.141157 0.000000
# 6 0.000000 0.000000 0.000000 0.000000 0.000000 0.168997
#
#
# Mechanical properties :
#
#
# Convention : Reuss Voigt Hill
#
# Bulk Modulus (GPa) = 54.23024 66.36312 60.29668
# Shear Modulus (GPa) = 3.51756 7.26976 5.39366
#
# Velocity S-wave (km/s) = 1.61638 2.32372 2.00154
# Velocity P-wave (km/s) = 6.61540 7.51607 7.08007
#
# Compressibility (1/GPa) = 0.01843990
#
# Stress axis : x y z
#
# Youngs Moduli (GPa) = 21.79044 42.87818 20.75151
#
# Poissons Ratio (x) = 0.41091 0.48083
# Poissons Ratio (y) = 0.20882 0.34712
# Poissons Ratio (z) = 0.50491 0.71723
#
# Static dielectric constant tensor:
#      x y z
#    x 1.417570 0.000000 0.000000 
#    y 0.000000 1.434600 0.000000 
#    z 0.000000 0.000000 1.450230 
# 
# From -- ./inp_files/11602.got.cif
#   From: 2010.05.17/outbox.cif.g08.bks.cpg/sg65_6_cif.got.tgz:11602.got - 2010.06.03 17:01:31.
