data_PCOD9484387
_publ_section_title
;
Structure prediction by ZEFSAII (Michael W. Deem and Ramdas Pophale) SiO2 
 PCOD9484387
Probable space group: C M M M
;
_chemical_formula_sum "Si O2"
_cell_formula_units_Z 96
_cell_length_a 13.732825
_cell_length_b 25.244383
_cell_length_c 14.901626
_cell_angle_alpha 90.000000
_cell_angle_beta 90.000000
_cell_angle_gamma 90.000000
_cell_volume 5166.046436
_symmetry_space_group_name_H-M "C M M M"
_symmetry_group_IT_number 65
_symmetry_cell_setting 'orthorhombic'
loop_
_space_group_symop_operation_xyz
x,y,z
-x,-y,z
x,-y,-z
-x,y,-z
-x,-y,-z
x,y,-z
-x,y,z
x,-y,z
1/2+x,1/2+y,z
1/2-x,1/2-y,z
1/2+x,1/2-y,-z
1/2-x,1/2+y,-z
1/2-x,1/2-y,-z
1/2+x,1/2+y,-z
1/2-x,1/2+y,z
1/2+x,1/2-y,z
loop_
_atom_site_type_symbol
_atom_site_label
_atom_site_fract_x
_atom_site_fract_y
_atom_site_fract_z
Si Si1 0.385054 0.613986 0.893779
Si Si2 0.824210 0.000000 0.101005
Si Si3 0.387775 0.664846 0.393934
Si Si4 0.740204 0.690382 0.770012
Si Si5 0.786922 0.940927 0.607035
Si Si6 0.611641 0.102521 0.279990
Si Si7 0.106841 0.500000 0.849746
O O1 0.500000 0.622309 0.886202
O O2 0.358527 0.555247 0.858004
O O3 0.326439 0.656362 0.836740
O O4 0.358537 0.616315 0.000000
O O5 0.707409 0.000000 0.097217
O O6 0.866320 0.000000 0.000000
O O7 0.366761 0.673265 0.500000
O O8 0.500000 0.678788 0.377684
O O9 0.314861 0.693433 0.326176
O O10 0.369309 0.602507 0.373403
O O11 0.750000 0.750000 0.803596
O O12 0.838887 0.656047 0.757990
O O13 0.781243 0.944362 0.500000
O O14 0.685663 0.917737 0.643831
O O15 0.803637 0.000000 0.643583
O O16 0.500000 0.111154 0.308466
O O17 0.610696 0.053639 0.209710
O O18 0.000000 0.500000 0.894526
#
# Coordination Sequence:
#
# PCOD9484387 Si02
#       7
#    16   8  16  16  16  16   8
#     4  10  21  38  61  89 118 146 181 230 287 344
#     4  10  19  35  60  88 116 144 181 228 281 339
#     4   9  19  36  56  80 111 145 184 232 284 336
#     4  11  23  38  59  81 109 149 193 234 281 334
#     4   9  17  29  48  76 109 142 177 220 273 335
#     4  10  20  34  51  74 106 143 182 227 275 326
#     4  10  18  32  54  78 108 144 180 221 275 326
#
# _framework density 18.582875999999999
#
# number of rings (size 3 to 8) (size 9 to 14) (size 15 to 20)
#    0.000    2.167    2.500    0.750    0.000    3.833 
#    0.000    2.500    0.000    0.500    0.000    0.000 
#    0.000    0.000    0.000    0.000    0.000    0.000 
#
# Total GULP energy -267607.925723 kJ/mol
# GULP energy per Si atom -5575.165119 kJ/mol
# Density = 1.854058 g / cm^3
# Si number density = 18.582876 Si / 1000 Ang^3
#
#
#
# Elastic Constant Matrix: (Units=GPa)
#
#
# Indices 1 2 3 4 5 6 
#
# 1 60.7249 13.9042 12.6042 0.0000 0.0000 0.0000
# 2 13.9042 123.3453 18.4162 0.0000 0.0000 0.0000
# 3 12.6042 18.4162 34.4582 0.0000 0.0000 0.0000
# 4 0.0000 0.0000 0.0000 15.8443 0.0000 0.0000
# 5 0.0000 0.0000 0.0000 0.0000 20.4570 0.0000
# 6 0.0000 0.0000 0.0000 0.0000 0.0000 -6.1066
#
#
#
# Elastic Compliance Matrix: (Units=1/GPa)
#
#
# Indices 1 2 3 4 5 6 
#
# 1 0.017966 -0.001135 -0.005965 0.000000 0.000000 0.000000
# 2 -0.001135 0.008882 -0.004332 0.000000 0.000000 0.000000
# 3 -0.005965 -0.004332 0.033518 0.000000 0.000000 0.000000
# 4 0.000000 0.000000 0.000000 0.063114 0.000000 0.000000
# 5 0.000000 0.000000 0.000000 0.000000 0.048883 0.000000
# 6 0.000000 0.000000 0.000000 0.000000 0.000000 -0.163757
#
#
# Mechanical properties :
#
#
# Convention : Reuss Voigt Hill
#
# Bulk Modulus (GPa) = 26.66517 34.26416 30.46467
# Shear Modulus (GPa) = 113.71461 17.61253 65.66357
#
# Velocity S-wave (km/s) = 7.83110 3.08195 5.95082
# Velocity P-wave (km/s) = 9.80554 5.58060 7.97784
#
# Compressibility (1/GPa) = 0.03750210
#
# Stress axis : x y z
#
# Youngs Moduli (GPa) = 55.66187 112.58716 29.83483
#
# Poissons Ratio (x) = 0.12774 0.17797
# Poissons Ratio (y) = 0.06315 0.12924
# Poissons Ratio (z) = 0.33203 0.48773
#
# Static dielectric constant tensor:
#      x y z
#    x 1.621220 0.000000 0.000000 
#    y 0.000000 1.651060 0.000000 
#    z 0.000000 0.000000 1.659730 
# 
# From -- ./inp_files/40701.got.cif
#   From: 2010.05.17/outbox.cif.g08.bks.cpg/sg65_21_cif.got.tgz:40701.got - 2010.06.03 17:01:31.
