data_PCOD9484350
_publ_section_title
;
Structure prediction by ZEFSAII (Michael W. Deem and Ramdas Pophale) SiO2 
 PCOD9484350
Probable space group: C M M M
;
_chemical_formula_sum "Si O2"
_cell_formula_units_Z 104
_cell_length_a 8.549456
_cell_length_b 29.361471
_cell_length_c 23.700055
_cell_angle_alpha 90.000000
_cell_angle_beta 90.000000
_cell_angle_gamma 90.000000
_cell_volume 5949.296931
_symmetry_space_group_name_H-M "C M M M"
_symmetry_group_IT_number 65
_symmetry_cell_setting 'orthorhombic'
loop_
_space_group_symop_operation_xyz
x,y,z
-x,-y,z
x,-y,-z
-x,y,-z
-x,-y,-z
x,y,-z
-x,y,z
x,-y,z
1/2+x,1/2+y,z
1/2-x,1/2-y,z
1/2+x,1/2-y,-z
1/2-x,1/2+y,-z
1/2-x,1/2-y,-z
1/2+x,1/2+y,-z
1/2-x,1/2+y,z
1/2+x,1/2-y,z
loop_
_atom_site_type_symbol
_atom_site_label
_atom_site_fract_x
_atom_site_fract_y
_atom_site_fract_z
Si Si1 0.691026 0.947388 0.000000
Si Si2 0.810861 0.607013 0.888480
Si Si3 0.190752 0.552353 0.223103
Si Si4 0.187073 0.799382 0.717466
Si Si5 0.688722 0.447817 0.435173
Si Si6 0.687146 0.890589 0.667663
Si Si7 0.187134 0.200528 0.848469
O O1 0.739917 0.920363 0.943980
O O2 0.500000 0.948187 0.000000
O O3 0.742572 0.000000 0.000000
O O4 0.759143 0.579923 0.832338
O O5 0.749780 0.658366 0.884373
O O6 0.000000 0.608171 0.888286
O O7 0.242673 0.500000 0.221717
O O8 0.241596 0.577895 0.279851
O O9 0.000000 0.552084 0.222882
O O10 0.250000 0.750000 0.700117
O O11 0.249687 0.840267 0.679619
O O12 0.238438 0.806723 0.782917
O O13 0.000000 0.799057 0.716562
O O14 0.735089 0.438321 0.500000
O O15 0.500000 0.446397 0.432910
O O16 0.736916 0.500000 0.421767
O O17 0.756297 0.413072 0.390098
O O18 0.500000 0.889515 0.668551
O O19 0.250000 0.250000 0.866076
O O20 0.000000 0.201125 0.849710
#
# Coordination Sequence:
#
# PCOD9484350 Si02
#       7
#     8  16  16  16  16  16  16
#     4   9  18  32  54  81 104 137 184 223 256 307
#     4  10  18  32  53  76 105 138 176 219 263 311
#     4   9  17  28  45  72 105 137 168 210 261 308
#     4  10  20  34  53  77 107 139 175 216 265 322
#     4   9  19  36  55  75 105 147 188 223 263 310
#     4  11  20  31  51  80 111 139 175 218 266 319
#     4  10  20  34  54  78 105 135 172 215 266 321
#
# _framework density 17.481057
#
# number of rings (size 3 to 8) (size 9 to 14) (size 15 to 20)
#    0.000    2.231    1.538    2.769    0.000    4.308 
#    0.000    1.538    0.000    3.692    0.000    0.000 
#    0.000    0.000    0.000    0.000    0.000    0.000 
#
# Total GULP energy -290238.580862 kJ/mol
# GULP energy per Si atom -5581.511170 kJ/mol
# Density = 1.744127 g / cm^3
# Si number density = 17.481057 Si / 1000 Ang^3
#
#
#
# Elastic Constant Matrix: (Units=GPa)
#
#
# Indices 1 2 3 4 5 6 
#
# 1 23.7151 33.1255 26.7572 0.0000 0.0000 0.0000
# 2 33.1255 188.5708 95.1243 0.0000 0.0000 0.0000
# 3 26.7572 95.1243 112.9591 0.0000 0.0000 0.0000
# 4 0.0000 0.0000 0.0000 30.7588 0.0000 0.0000
# 5 0.0000 0.0000 0.0000 0.0000 15.5773 0.0000
# 6 0.0000 0.0000 0.0000 0.0000 0.0000 21.5796
#
#
#
# Elastic Compliance Matrix: (Units=1/GPa)
#
#
# Indices 1 2 3 4 5 6 
#
# 1 0.061190 -0.005976 -0.009462 0.000000 0.000000 0.000000
# 2 -0.005976 0.009803 -0.006840 0.000000 0.000000 0.000000
# 3 -0.009462 -0.006840 0.016854 0.000000 0.000000 0.000000
# 4 0.000000 0.000000 0.000000 0.032511 0.000000 0.000000
# 5 0.000000 0.000000 0.000000 0.000000 0.064196 0.000000
# 6 0.000000 0.000000 0.000000 0.000000 0.000000 0.046340
#
#
# Mechanical properties :
#
#
# Convention : Reuss Voigt Hill
#
# Bulk Modulus (GPa) = 23.09905 70.58434 46.84170
# Shear Modulus (GPa) = 17.24847 24.93234 21.09040
#
# Velocity S-wave (km/s) = 3.14458 3.78067 3.47720
# Velocity P-wave (km/s) = 5.14071 7.71513 6.55554
#
# Compressibility (1/GPa) = 0.04329182
#
# Stress axis : x y z
#
# Youngs Moduli (GPa) = 16.34247 102.00812 59.33328
#
# Poissons Ratio (x) = 0.60960 0.56141
# Poissons Ratio (y) = 0.09766 0.40583
# Poissons Ratio (z) = 0.15463 0.69771
#
# Static dielectric constant tensor:
#      x y z
#    x 1.592680 0.000000 0.000000 
#    y 0.000000 1.574500 0.000000 
#    z 0.000000 0.000000 1.581370 
# 
# From -- ./inp_files/68197.got.cif
#   From: 2010.05.17/outbox.cif.g08.bks.cpg/sg65_35_cif.got.tgz:68197.got - 2010.06.03 17:01:31.
