data_PCOD9484605
_publ_section_title
;
Structure prediction by ZEFSAII (Michael W. Deem and Ramdas Pophale) SiO2 
 PCOD9484605
Probable space group: C M M M
;
_chemical_formula_sum "Si O2"
_cell_formula_units_Z 88
_cell_length_a 17.230211
_cell_length_b 28.175072
_cell_length_c 7.485075
_cell_angle_alpha 90.000000
_cell_angle_beta 90.000000
_cell_angle_gamma 90.000000
_cell_volume 3633.722739
_symmetry_space_group_name_H-M "C M M M"
_symmetry_group_IT_number 65
_symmetry_cell_setting 'orthorhombic'
loop_
_space_group_symop_operation_xyz
x,y,z
-x,-y,z
x,-y,-z
-x,y,-z
-x,-y,-z
x,y,-z
-x,y,z
x,-y,z
1/2+x,1/2+y,z
1/2-x,1/2-y,z
1/2+x,1/2-y,-z
1/2-x,1/2+y,-z
1/2-x,1/2-y,-z
1/2+x,1/2+y,-z
1/2-x,1/2+y,z
1/2+x,1/2-y,z
loop_
_atom_site_type_symbol
_atom_site_label
_atom_site_fract_x
_atom_site_fract_y
_atom_site_fract_z
Si Si1 0.906431 0.500000 0.201059
Si Si2 0.000000 0.877265 0.795918
Si Si3 0.413504 0.107039 0.707432
Si Si4 0.140964 0.947073 0.714993
Si Si5 0.500000 0.270394 0.298930
Si Si6 0.751963 0.370259 0.281476
Si Si7 0.670522 0.723786 0.281937
O O1 0.889903 0.448929 0.287260
O O2 0.000000 0.500000 0.194485
O O3 0.875598 0.500000 0.000000
O O4 0.072170 0.911414 0.759461
O O5 0.000000 0.828074 0.689936
O O6 0.000000 0.861858 0.000000
O O7 0.419659 0.120391 0.500000
O O8 0.500000 0.112448 0.786709
O O9 0.340165 0.135545 0.782571
O O10 0.143780 0.950016 0.500000
O O11 0.218772 0.920939 0.775310
O O12 0.130105 0.000000 0.785029
O O13 0.500000 0.249960 0.500000
O O14 0.414618 0.259329 0.218924
O O15 0.754150 0.368843 0.500000
O O16 0.690768 0.330070 0.228231
O O17 0.666614 0.725948 0.500000
O O18 0.750000 0.750000 0.229371
#
# Coordination Sequence:
#
# PCOD9484605 Si02
#       7
#     8   8  16  16   8  16  16
#     4   9  17  29  45  65  91 130 177 218 253 303
#     4  12  23  35  54  79 112 146 180 225 271 312
#     4   9  17  29  46  69  98 133 170 213 259 299
#     4  10  20  34  54  77 104 146 190 221 258 319
#     4  10  18  35  61  82 108 147 181 214 267 334
#     4   9  17  30  50  75 106 137 173 217 258 314
#     4   9  17  31  54  84 109 131 167 219 269 316
#
# _framework density 24.217589
#
# number of rings (size 3 to 8) (size 9 to 14) (size 15 to 20)
#    0.000    2.455    1.818    1.364    1.273    2.545 
#    1.636    0.909    0.000    0.545    0.000    0.000 
#    0.000    0.000    0.000    0.000    0.000    0.000 
#
# Total GULP energy -245491.287042 kJ/mol
# GULP energy per Si atom -5579.347433 kJ/mol
# Density = 2.416247 g / cm^3
# Si number density = 24.217589 Si / 1000 Ang^3
#
#
#
# Elastic Constant Matrix: (Units=GPa)
#
#
# Indices 1 2 3 4 5 6 
#
# 1 217.4946 27.3082 -1.9916 0.0000 0.0000 0.0000
# 2 27.3082 38.0695 -4.2968 0.0000 0.0000 0.0000
# 3 -1.9916 -4.2968 75.1893 0.0000 0.0000 0.0000
# 4 0.0000 0.0000 0.0000 -46.3944 0.0000 0.0000
# 5 0.0000 0.0000 0.0000 0.0000 -976.3733 0.0000
# 6 0.0000 0.0000 0.0000 0.0000 0.0000 32.9384
#
#
#
# Elastic Compliance Matrix: (Units=1/GPa)
#
#
# Indices 1 2 3 4 5 6 
#
# 1 0.005053 -0.003633 -0.000074 0.000000 0.000000 0.000000
# 2 -0.003633 0.029050 0.001564 0.000000 0.000000 0.000000
# 3 -0.000074 0.001564 0.013387 0.000000 0.000000 0.000000
# 4 0.000000 0.000000 0.000000 -0.021554 0.000000 0.000000
# 5 0.000000 0.000000 0.000000 0.000000 -0.001024 0.000000
# 6 0.000000 0.000000 0.000000 0.000000 0.000000 0.030360
#
#
# Mechanical properties :
#
#
# Convention : Reuss Voigt Hill
#
# Bulk Modulus (GPa) = 23.14558 41.42143 32.28351
# Shear Modulus (GPa) = 67.60427 -177.31695 -54.85634
#
# Velocity S-wave (km/s) = 5.28923 -8.56605 -4.76452
# Velocity P-wave (km/s) = 6.84685 8.98305 4.11193
#
# Compressibility (1/GPa) = 0.04320479
#
# Stress axis : x y z
#
# Youngs Moduli (GPa) = 197.88982 34.42292 74.69827
#
# Poissons Ratio (x) = 0.12507 0.00551
# Poissons Ratio (y) = 0.71897 -0.11682
# Poissons Ratio (z) = 0.01460 -0.05383
#
# Static dielectric constant tensor:
#      x y z
#    x 1.970180 0.000000 0.000000 
#    y 0.000000 1.967340 0.000000 
#    z 0.000000 0.000000 1.962350 
# 
# From -- ./inp_files/10225.got.cif
#   From: 2010.05.17/outbox.cif.g08.bks.cpg/sg65_6_cif.got.tgz:10225.got - 2010.06.03 17:01:31.
