data_PCOD9484974
_publ_section_title
;
Structure prediction by ZEFSAII (Michael W. Deem and Ramdas Pophale) SiO2 
 PCOD9484974
Probable space group: C M M M
;
_chemical_formula_sum "Si O2"
_cell_formula_units_Z 88
_cell_length_a 31.637387
_cell_length_b 20.561666
_cell_length_c 7.538988
_cell_angle_alpha 90.000000
_cell_angle_beta 90.000000
_cell_angle_gamma 90.000000
_cell_volume 4904.242756
_symmetry_space_group_name_H-M "C M M M"
_symmetry_group_IT_number 65
_symmetry_cell_setting 'orthorhombic'
loop_
_space_group_symop_operation_xyz
x,y,z
-x,-y,z
x,-y,-z
-x,y,-z
-x,-y,-z
x,y,-z
-x,y,z
x,-y,z
1/2+x,1/2+y,z
1/2-x,1/2-y,z
1/2+x,1/2-y,-z
1/2-x,1/2+y,-z
1/2-x,1/2-y,-z
1/2+x,1/2+y,-z
1/2-x,1/2+y,z
1/2+x,1/2-y,z
loop_
_atom_site_type_symbol
_atom_site_label
_atom_site_fract_x
_atom_site_fract_y
_atom_site_fract_z
Si Si1 0.451977 0.355565 0.711227
Si Si2 0.834115 0.928115 0.792971
Si Si3 0.048284 0.000000 0.211262
Si Si4 0.128728 0.792237 0.297595
Si Si5 0.792499 0.288584 0.717252
Si Si6 0.235015 0.571033 0.714803
O O1 0.454328 0.345592 0.500000
O O2 0.500000 0.351844 0.782623
O O3 0.435060 0.429399 0.735998
O O4 0.417518 0.304953 0.783939
O O5 0.851237 0.864432 0.699165
O O6 0.783299 0.925203 0.779401
O O7 0.846686 0.000000 0.725362
O O8 0.846329 0.924654 0.000000
O O9 0.000000 0.000000 0.281948
O O10 0.047590 0.000000 0.000000
O O11 0.122272 0.769743 0.500000
O O12 0.164823 0.746301 0.218014
O O13 0.792920 0.285604 0.500000
O O14 0.750000 0.250000 0.772068
O O15 0.788744 0.363743 0.771273
O O16 0.236526 0.572220 0.500000
O O17 0.217968 0.500000 0.768880
#
# Coordination Sequence:
#
# PCOD9484974 Si02
#       6
#    16  16   8  16  16  16
#     4   9  18  31  44  59  78 101 136 176 207 240
#     4  10  20  30  39  57  85 111 138 173 204 236
#     4   9  17  29  45  61  79 107 137 169 213 249
#     4  10  19  30  45  60  77 108 139 169 209 245
#     4   9  15  26  43  63  84 103 132 171 202 236
#     4   9  16  28  46  62  79 108 141 169 200 240
#
# _framework density 17.943646999999999
#
# number of rings (size 3 to 8) (size 9 to 14) (size 15 to 20)
#    0.000    2.636    1.818    0.818    1.273    2.909 
#    0.000    1.818    0.000    0.000    0.000    0.000 
#    0.000    0.727    0.000   10.182    0.000    0.000 
#
# Total GULP energy -245313.943542 kJ/mol
# GULP energy per Si atom -5575.316899 kJ/mol
# Density = 1.790281 g / cm^3
# Si number density = 17.943647 Si / 1000 Ang^3
#
#
#
# Elastic Constant Matrix: (Units=GPa)
#
#
# Indices 1 2 3 4 5 6 
#
# 1 115.0790 65.1230 0.9632 0.0000 0.0000 0.0000
# 2 65.1230 111.9247 3.4773 0.0000 0.0000 0.0000
# 3 0.9632 3.4773 48.5501 0.0000 0.0000 0.0000
# 4 0.0000 0.0000 0.0000 -23.1379 0.0000 0.0000
# 5 0.0000 0.0000 0.0000 0.0000 -4.6040 0.0000
# 6 0.0000 0.0000 0.0000 0.0000 0.0000 35.0379
#
#
#
# Elastic Compliance Matrix: (Units=1/GPa)
#
#
# Indices 1 2 3 4 5 6 
#
# 1 0.012959 -0.007549 0.000284 0.000000 0.000000 0.000000
# 2 -0.007549 0.013352 -0.000807 0.000000 0.000000 0.000000
# 3 0.000284 -0.000807 0.020649 0.000000 0.000000 0.000000
# 4 0.000000 0.000000 0.000000 -0.043219 0.000000 0.000000
# 5 0.000000 0.000000 0.000000 0.000000 -0.217200 0.000000
# 6 0.000000 0.000000 0.000000 0.000000 0.000000 0.028541
#
#
# Mechanical properties :
#
#
# Convention : Reuss Voigt Hill
#
# Bulk Modulus (GPa) = 32.45001 46.07564 39.26282
# Shear Modulus (GPa) = -31.54550 15.19186 -8.17682
#
# Velocity S-wave (km/s) = -4.19744 2.91287 -2.13702
# Velocity P-wave (km/s) = 2.31682 6.08661 3.97990
#
# Compressibility (1/GPa) = 0.03081663
#
# Stress axis : x y z
#
# Youngs Moduli (GPa) = 77.16412 74.89450 48.42751
#
# Poissons Ratio (x) = 0.56539 -0.01373
# Poissons Ratio (y) = 0.58253 0.03906
# Poissons Ratio (z) = -0.02188 0.06041
#
# Static dielectric constant tensor:
#      x y z
#    x 1.666500 0.000000 0.000000 
#    y 0.000000 1.615020 0.000000 
#    z 0.000000 0.000000 1.648290 
# 
# From -- ./inp_files/18490.got.cif
#   From: 2010.05.17/outbox.cif.g08.bks.cpg/sg65_10_cif.got.tgz:18490.got - 2010.06.03 17:01:31.
