data_PCOD9484910
_publ_section_title
;
Structure prediction by ZEFSAII (Michael W. Deem and Ramdas Pophale) SiO2 
 PCOD9484910
Probable space group: C M M M
;
_chemical_formula_sum "Si O2"
_cell_formula_units_Z 72
_cell_length_a 28.911048
_cell_length_b 7.530767
_cell_length_c 19.434809
_cell_angle_alpha 90.000000
_cell_angle_beta 90.000000
_cell_angle_gamma 90.000000
_cell_volume 4231.392602
_symmetry_space_group_name_H-M "C M M M"
_symmetry_group_IT_number 65
_symmetry_cell_setting 'orthorhombic'
loop_
_space_group_symop_operation_xyz
x,y,z
-x,-y,z
x,-y,-z
-x,y,-z
-x,-y,-z
x,y,-z
-x,y,z
x,-y,z
1/2+x,1/2+y,z
1/2-x,1/2-y,z
1/2+x,1/2-y,-z
1/2-x,1/2+y,-z
1/2-x,1/2-y,-z
1/2+x,1/2+y,-z
1/2-x,1/2+y,z
1/2+x,1/2-y,z
loop_
_atom_site_type_symbol
_atom_site_label
_atom_site_fract_x
_atom_site_fract_y
_atom_site_fract_z
Si Si1 0.195268 0.213529 0.723870
Si Si2 0.447955 0.214145 0.921246
Si Si3 0.195667 0.213168 0.000000
Si Si4 0.694959 0.712956 0.426006
Si Si5 0.647939 0.709307 0.861394
O O1 0.250000 0.250000 0.731872
O O2 0.179025 0.280987 0.648652
O O3 0.167880 0.283155 0.790141
O O4 0.190020 0.000000 0.721794
O O5 0.500000 0.272771 0.903187
O O6 0.406777 0.271736 0.872051
O O7 0.448162 0.000000 0.922246
O O8 0.438239 0.273981 0.000000
O O9 0.250000 0.250000 0.000000
O O10 0.172180 0.283922 0.930225
O O11 0.188845 0.000000 0.000000
O O12 0.676862 0.780867 0.500000
O O13 0.688635 0.500000 0.426317
O O14 0.750000 0.750000 0.426093
O O15 0.658991 0.500000 0.860328
#
# Coordination Sequence:
#
# PCOD9484910 Si02
#       5
#    16  16   8  16  16
#     4   9  17  27  39  57  82 110 139 169 197 230
#     4   9  18  32  48  64  79  97 127 166 206 247
#     4  10  20  30  39  54  77 107 140 167 189 222
#     4   8  13  22  36  53  74 102 134 165 197 230
#     4  10  19  30  42  59  82 106 135 167 199 236
#
# _framework density 17.015674000000001
#
# number of rings (size 3 to 8) (size 9 to 14) (size 15 to 20)
#    0.000    2.889    1.111    1.333    0.000    2.222 
#    0.000    1.111    0.000    0.000    0.000    0.000 
#    0.000    0.889    0.000   11.111    0.000    1.778 
#
# Total GULP energy -200504.583967 kJ/mol
# GULP energy per Si atom -5569.571777 kJ/mol
# Density = 1.697695 g / cm^3
# Si number density = 17.015674 Si / 1000 Ang^3
#
#
#
# Elastic Constant Matrix: (Units=GPa)
#
#
# Indices 1 2 3 4 5 6 
#
# 1 74.0813 -9.5795 73.4898 0.0000 0.0000 0.0000
# 2 -9.5795 43.3547 11.5161 0.0000 0.0000 0.0000
# 3 73.4898 11.5161 202.8914 0.0000 0.0000 0.0000
# 4 0.0000 0.0000 0.0000 45.3984 0.0000 0.0000
# 5 0.0000 0.0000 0.0000 0.0000 5.4405 0.0000
# 6 0.0000 0.0000 0.0000 0.0000 0.0000 17.4559
#
#
#
# Elastic Compliance Matrix: (Units=1/GPa)
#
#
# Indices 1 2 3 4 5 6 
#
# 1 0.023237 0.007483 -0.008842 0.000000 0.000000 0.000000
# 2 0.007483 0.025828 -0.004176 0.000000 0.000000 0.000000
# 3 -0.008842 -0.004176 0.008368 0.000000 0.000000 0.000000
# 4 0.000000 0.000000 0.000000 0.022027 0.000000 0.000000
# 5 0.000000 0.000000 0.000000 0.000000 0.183807 0.000000
# 6 0.000000 0.000000 0.000000 0.000000 0.000000 0.057287
#
#
# Mechanical properties :
#
#
# Convention : Reuss Voigt Hill
#
# Bulk Modulus (GPa) = 21.56853 52.35335 36.96094
# Shear Modulus (GPa) = 14.40592 29.98571 22.19582
#
# Velocity S-wave (km/s) = 2.91284 4.20246 3.61561
# Velocity P-wave (km/s) = 4.90062 7.37442 6.26092
#
# Compressibility (1/GPa) = 0.04636385
#
# Stress axis : x y z
#
# Youngs Moduli (GPa) = 43.03427 38.71720 119.49818
#
# Poissons Ratio (x) = -0.28972 1.05655
# Poissons Ratio (y) = -0.32202 0.49908
# Poissons Ratio (z) = 0.38049 0.16170
#
# Static dielectric constant tensor:
#      x y z
#    x 1.517250 0.000000 0.000000 
#    y 0.000000 1.631230 0.000000 
#    z 0.000000 0.000000 1.646910 
# 
# From -- ./inp_files/49707.got.cif
#   From: 2010.05.17/outbox.cif.g08.bks.cpg/sg65_25_cif.got.tgz:49707.got - 2010.06.03 17:01:31.
