data_PCOD9484603
_publ_section_title
;
Structure prediction by ZEFSAII (Michael W. Deem and Ramdas Pophale) SiO2 
 PCOD9484603
Probable space group: C M M M
;
_chemical_formula_sum "Si O2"
_cell_formula_units_Z 88
_cell_length_a 21.725807
_cell_length_b 11.040377
_cell_length_c 18.819328
_cell_angle_alpha 90.000000
_cell_angle_beta 90.000000
_cell_angle_gamma 90.000000
_cell_volume 4514.024714
_symmetry_space_group_name_H-M "C M M M"
_symmetry_group_IT_number 65
_symmetry_cell_setting 'orthorhombic'
loop_
_space_group_symop_operation_xyz
x,y,z
-x,-y,z
x,-y,-z
-x,y,-z
-x,-y,-z
x,y,-z
-x,y,z
x,-y,z
1/2+x,1/2+y,z
1/2-x,1/2-y,z
1/2+x,1/2-y,-z
1/2-x,1/2+y,-z
1/2-x,1/2-y,-z
1/2+x,1/2+y,-z
1/2-x,1/2+y,z
1/2+x,1/2-y,z
loop_
_atom_site_type_symbol
_atom_site_label
_atom_site_fract_x
_atom_site_fract_y
_atom_site_fract_z
Si Si1 0.296903 0.860633 0.279720
Si Si2 0.126018 0.357318 0.578522
Si Si3 0.296403 0.363395 0.916923
Si Si4 0.500000 0.366685 0.734330
Si Si5 0.394083 0.243472 0.821151
Si Si6 0.500000 0.143911 0.920342
Si Si7 0.500000 0.292863 0.421073
O O1 0.250000 0.750000 0.266762
O O2 0.328609 0.834501 0.356055
O O3 0.349074 0.848303 0.219454
O O4 0.272655 0.000000 0.280067
O O5 0.152718 0.329617 0.500000
O O6 0.112064 0.500000 0.580914
O O7 0.061751 0.287296 0.584069
O O8 0.270568 0.500000 0.905346
O O9 0.250000 0.250000 0.907256
O O10 0.352025 0.339693 0.862945
O O11 0.315965 0.358219 0.000000
O O12 0.500000 0.500000 0.765939
O O13 0.439222 0.300464 0.762537
O O14 0.500000 0.371098 0.649587
O O15 0.439511 0.184213 0.878134
O O16 0.500000 0.000000 0.923686
O O17 0.500000 0.194465 0.000000
O O18 0.500000 0.349759 0.500000
#
# Coordination Sequence:
#
# PCOD9484603 Si02
#       7
#    16  16  16   8  16   8   8
#     4  11  24  40  60  88 121 161 206 253 298 351
#     4   9  18  35  60  88 118 154 198 245 295 354
#     4  10  22  40  63  89 117 154 201 248 294 348
#     4  11  23  37  56  86 120 158 195 241 299 354
#     4  11  22  39  60  86 118 160 195 243 292 365
#     4  10  22  39  61  90 121 152 189 239 302 365
#     4  10  18  35  60  88 117 151 196 243 297 357
#
# _framework density 19.494797999999999
#
# number of rings (size 3 to 8) (size 9 to 14) (size 15 to 20)
#    0.000    1.727    1.818    2.455    0.000    6.000 
#    0.000    1.818    0.000    4.364    0.000    0.000 
#    0.000    0.000    0.000    0.000    0.000    0.000 
#
# Total GULP energy -245456.561980 kJ/mol
# GULP energy per Si atom -5578.558227 kJ/mol
# Density = 1.945043 g / cm^3
# Si number density = 19.494798 Si / 1000 Ang^3
#
#
#
# Elastic Constant Matrix: (Units=GPa)
#
#
# Indices 1 2 3 4 5 6 
#
# 1 79.5003 52.6015 47.3755 0.0000 0.0000 0.0000
# 2 52.6015 108.9857 39.6833 0.0000 0.0000 0.0000
# 3 47.3755 39.6833 142.8275 0.0000 0.0000 0.0000
# 4 0.0000 0.0000 0.0000 19.0029 0.0000 0.0000
# 5 0.0000 0.0000 0.0000 0.0000 13.6641 0.0000
# 6 0.0000 0.0000 0.0000 0.0000 0.0000 24.7469
#
#
#
# Elastic Compliance Matrix: (Units=1/GPa)
#
#
# Indices 1 2 3 4 5 6 
#
# 1 0.020873 -0.008404 -0.004589 0.000000 0.000000 0.000000
# 2 -0.008404 0.013592 -0.000989 0.000000 0.000000 0.000000
# 3 -0.004589 -0.000989 0.008798 0.000000 0.000000 0.000000
# 4 0.000000 0.000000 0.000000 0.052624 0.000000 0.000000
# 5 0.000000 0.000000 0.000000 0.000000 0.073184 0.000000
# 6 0.000000 0.000000 0.000000 0.000000 0.000000 0.040409
#
#
# Mechanical properties :
#
#
# Convention : Reuss Voigt Hill
#
# Bulk Modulus (GPa) = 65.35628 67.84824 66.60226
# Shear Modulus (GPa) = 20.61491 24.25966 22.43729
#
# Velocity S-wave (km/s) = 3.25538 3.53146 3.39623
# Velocity P-wave (km/s) = 6.90853 7.17684 7.04396
#
# Compressibility (1/GPa) = 0.01530075
#
# Stress axis : x y z
#
# Youngs Moduli (GPa) = 47.90802 73.57529 113.65875
#
# Poissons Ratio (x) = 0.61830 0.52155
# Poissons Ratio (y) = 0.40260 0.11239
# Poissons Ratio (z) = 0.21984 0.07275
#
# Static dielectric constant tensor:
#      x y z
#    x 1.657150 0.000000 0.000000 
#    y 0.000000 1.655330 0.000000 
#    z 0.000000 0.000000 1.714880 
# 
# From -- ./inp_files/51499.got.cif
#   From: 2010.05.17/outbox.cif.g08.bks.cpg/sg65_26_cif.got.tgz:51499.got - 2010.06.03 17:01:31.
