data_PCOD9484994
_publ_section_title
;
Structure prediction by ZEFSAII (Michael W. Deem and Ramdas Pophale) SiO2 
 PCOD9484994
Probable space group: C M M M
;
_chemical_formula_sum "Si O2"
_cell_formula_units_Z 104
_cell_length_a 28.303032
_cell_length_b 28.507129
_cell_length_c 9.548651
_cell_angle_alpha 90.000000
_cell_angle_beta 90.000000
_cell_angle_gamma 90.000000
_cell_volume 7704.216235
_symmetry_space_group_name_H-M "C M M M"
_symmetry_group_IT_number 65
_symmetry_cell_setting 'orthorhombic'
loop_
_space_group_symop_operation_xyz
x,y,z
-x,-y,z
x,-y,-z
-x,y,-z
-x,-y,-z
x,y,-z
-x,y,z
x,-y,z
1/2+x,1/2+y,z
1/2-x,1/2-y,z
1/2+x,1/2-y,-z
1/2-x,1/2+y,-z
1/2-x,1/2-y,-z
1/2+x,1/2+y,-z
1/2-x,1/2+y,z
1/2+x,1/2-y,z
loop_
_atom_site_type_symbol
_atom_site_label
_atom_site_fract_x
_atom_site_fract_y
_atom_site_fract_z
Si Si1 0.210339 0.709280 0.338790
Si Si2 0.443760 0.693939 0.340514
Si Si3 0.357259 0.274696 0.166832
Si Si4 0.500000 0.555061 0.148958
Si Si5 0.190069 0.945076 0.663944
Si Si6 0.278489 0.644197 0.167333
Si Si7 0.081565 0.084801 0.347059
O O1 0.198508 0.696531 0.500000
O O2 0.250000 0.750000 0.346498
O O3 0.167990 0.732938 0.252209
O O4 0.235246 0.668395 0.249829
O O5 0.438508 0.712818 0.500000
O O6 0.500000 0.693371 0.307927
O O7 0.409457 0.718642 0.230060
O O8 0.424035 0.640816 0.345746
O O9 0.324402 0.321513 0.189867
O O10 0.357618 0.266387 0.000000
O O11 0.500000 0.500000 0.134104
O O12 0.546760 0.567517 0.230383
O O13 0.500000 0.579857 0.000000
O O14 0.203569 0.937408 0.500000
O O15 0.213298 0.906858 0.765583
O O16 0.134239 0.933617 0.672442
O O17 0.198254 0.000000 0.697295
O O18 0.270764 0.642356 0.000000
O O19 0.065059 0.068216 0.500000
#
# Coordination Sequence:
#
# PCOD9484994 Si02
#       7
#    16  16  16   8  16  16  16
#     4   9  17  29  47  67  85 107 134 167 207 254
#     4  10  19  31  46  62  80 107 143 180 217 260
#     4  10  19  30  45  65  87 109 134 171 217 263
#     4  11  23  33  41  55  73  93 125 175 229 273
#     4  10  20  32  46  62  80 107 144 181 217 260
#     4  10  19  30  45  65  88 110 134 171 217 263
#     4  10  19  33  48  58  72 100 139 180 219 260
#
# _framework density 13.499101
#
# number of rings (size 3 to 8) (size 9 to 14) (size 15 to 20)
#    0.000    2.077    2.308    2.077    0.000    6.154 
#    0.000    0.000    0.000    0.000    0.000    0.000 
#    0.000    0.000    0.000    0.000    0.000    0.769 
#
# Total GULP energy -289658.382613 kJ/mol
# GULP energy per Si atom -5570.353512 kJ/mol
# Density = 1.346838 g / cm^3
# Si number density = 13.499101 Si / 1000 Ang^3
#
#
#
# Elastic Constant Matrix: (Units=GPa)
#
#
# Indices 1 2 3 4 5 6 
#
# 1 46.6462 37.9190 45.1472 0.0000 0.0000 0.0000
# 2 37.9190 65.0998 57.2842 0.0000 0.0000 0.0000
# 3 45.1472 57.2842 116.1124 0.0000 0.0000 0.0000
# 4 0.0000 0.0000 0.0000 19.4029 0.0000 0.0000
# 5 0.0000 0.0000 0.0000 0.0000 -0.2854 0.0000
# 6 0.0000 0.0000 0.0000 0.0000 0.0000 21.9272
#
#
#
# Elastic Compliance Matrix: (Units=1/GPa)
#
#
# Indices 1 2 3 4 5 6 
#
# 1 0.044549 -0.018920 -0.007987 0.000000 0.000000 0.000000
# 2 -0.018920 0.035181 -0.010000 0.000000 0.000000 0.000000
# 3 -0.007987 -0.010000 0.016652 0.000000 0.000000 0.000000
# 4 0.000000 0.000000 0.000000 0.051539 0.000000 0.000000
# 5 0.000000 0.000000 0.000000 0.000000 -3.503444 0.000000
# 6 0.000000 0.000000 0.000000 0.000000 0.000000 0.045605
#
#
# Mechanical properties :
#
#
# Convention : Reuss Voigt Hill
#
# Bulk Modulus (GPa) = 44.31369 56.50659 50.41014
# Shear Modulus (GPa) = -1.54867 14.04281 6.24707
#
# Velocity S-wave (km/s) = -1.07225 3.22883 2.15356
# Velocity P-wave (km/s) = 5.60049 7.47334 6.60365
#
# Compressibility (1/GPa) = 0.02256639
#
# Stress axis : x y z
#
# Youngs Moduli (GPa) = 22.44718 28.42441 60.05460
#
# Poissons Ratio (x) = 0.53780 0.47968
# Poissons Ratio (y) = 0.42471 0.60054
# Poissons Ratio (z) = 0.17929 0.28424
#
# Static dielectric constant tensor:
#      x y z
#    x 1.423610 0.000000 0.000000 
#    y 0.000000 1.440420 0.000000 
#    z 0.000000 0.000000 1.507590 
# 
# From -- ./inp_files/14779.got.cif
#   From: 2010.05.17/outbox.cif.g08.bks.cpg/sg65_8_cif.got.tgz:14779.got - 2010.06.03 17:01:31.
