data_PCOD9484744
_publ_section_title
;
Structure prediction by ZEFSAII (Michael W. Deem and Ramdas Pophale) SiO2 
 PCOD9484744
Probable space group: C M M M
;
_chemical_formula_sum "Si O2"
_cell_formula_units_Z 116
_cell_length_a 7.520876
_cell_length_b 35.496781
_cell_length_c 20.845753
_cell_angle_alpha 90.000000
_cell_angle_beta 90.000000
_cell_angle_gamma 90.000000
_cell_volume 5565.125813
_symmetry_space_group_name_H-M "C M M M"
_symmetry_group_IT_number 65
_symmetry_cell_setting 'orthorhombic'
loop_
_space_group_symop_operation_xyz
x,y,z
-x,-y,z
x,-y,-z
-x,y,-z
-x,-y,-z
x,y,-z
-x,y,z
x,-y,z
1/2+x,1/2+y,z
1/2-x,1/2-y,z
1/2+x,1/2-y,-z
1/2-x,1/2+y,-z
1/2-x,1/2-y,-z
1/2+x,1/2+y,-z
1/2-x,1/2+y,z
1/2+x,1/2-y,z
loop_
_atom_site_type_symbol
_atom_site_label
_atom_site_fract_x
_atom_site_fract_y
_atom_site_fract_z
Si Si1 0.211914 0.290823 0.605334
Si Si2 0.784783 0.888107 0.710546
Si Si3 0.293080 0.625881 0.568925
Si Si4 0.794025 0.695711 0.254077
Si Si5 0.000000 0.500000 0.145029
Si Si6 0.704921 0.563167 0.171651
Si Si7 0.284262 0.127378 0.928574
Si Si8 0.713014 0.209251 0.113855
O O1 0.250000 0.250000 0.576412
O O2 0.284738 0.328588 0.573571
O O3 0.285156 0.290764 0.678528
O O4 0.000000 0.295995 0.606969
O O5 0.719848 0.889143 0.636791
O O6 0.714206 0.849549 0.741701
O O7 0.741560 0.922584 0.756978
O O8 0.000000 0.884757 0.709430
O O9 0.213825 0.614673 0.500000
O O10 0.500000 0.614881 0.568032
O O11 0.714260 0.708689 0.186961
O O12 0.000000 0.707550 0.254304
O O13 0.843814 0.532791 0.147164
O O14 0.500000 0.550005 0.173598
O O15 0.712924 0.599793 0.125757
O O16 0.500000 0.126571 0.924440
O O17 0.225693 0.170740 0.919021
O O18 0.234000 0.114618 0.000000
O O19 0.500000 0.205910 0.117249
O O20 0.750000 0.250000 0.084124
#
# Coordination Sequence:
#
# PCOD9484744 Si02
#       8
#    16  16  16  16   4  16  16  16
#     4  10  19  29  42  63  95 139 189 245 305 362
#     4   9  18  32  56  86 114 147 194 247 292 365
#     4   9  18  33  51  74 106 145 191 245 301 355
#     4   9  17  29  48  72 101 143 195 246 305 366
#     4  12  26  44  73 104 141 164 194 266 316 374
#     4  11  23  42  69 102 131 165 208 248 310 382
#     4  10  21  40  64  88 123 172 216 258 316 379
#     4  10  20  32  50  78 115 157 210 265 314 365
#
# _framework density 20.844092
#
# number of rings (size 3 to 8) (size 9 to 14) (size 15 to 20)
#    0.000    2.207    2.069    1.034    0.966    2.759 
#    0.000    0.690    0.000    0.828    0.000    0.966 
#    0.000    3.310    0.000    0.000    0.000    0.000 
#
# Total GULP energy -323201.918485 kJ/mol
# GULP energy per Si atom -5572.446870 kJ/mol
# Density = 2.079665 g / cm^3
# Si number density = 20.844092 Si / 1000 Ang^3
#
#
#
# Elastic Constant Matrix: (Units=GPa)
#
#
# Indices 1 2 3 4 5 6 
#
# 1 77.4395 16.2684 10.1392 0.0000 0.0000 0.0000
# 2 16.2684 81.6134 18.7048 0.0000 0.0000 0.0000
# 3 10.1392 18.7048 102.0664 0.0000 0.0000 0.0000
# 4 0.0000 0.0000 0.0000 -4.1801 0.0000 0.0000
# 5 0.0000 0.0000 0.0000 0.0000 -7.1229 0.0000
# 6 0.0000 0.0000 0.0000 0.0000 0.0000 37.8419
#
#
#
# Elastic Compliance Matrix: (Units=1/GPa)
#
#
# Indices 1 2 3 4 5 6 
#
# 1 0.013554 -0.002498 -0.000889 0.000000 0.000000 0.000000
# 2 -0.002498 0.013251 -0.002180 0.000000 0.000000 0.000000
# 3 -0.000889 -0.002180 0.010285 0.000000 0.000000 0.000000
# 4 0.000000 0.000000 0.000000 -0.239231 0.000000 0.000000
# 5 0.000000 0.000000 0.000000 0.000000 -0.140393 0.000000
# 6 0.000000 0.000000 0.000000 0.000000 0.000000 0.026426
#
#
# Mechanical properties :
#
#
# Convention : Reuss Voigt Hill
#
# Bulk Modulus (GPa) = 38.52625 39.03826 38.78225
# Shear Modulus (GPa) = -16.87356 19.70826 1.41735
#
# Velocity S-wave (km/s) = -2.84828 3.07825 0.82550
# Velocity P-wave (km/s) = 2.77601 5.60388 4.42209
#
# Compressibility (1/GPa) = 0.02595633
#
# Stress axis : x y z
#
# Youngs Moduli (GPa) = 73.77631 75.46867 97.22562
#
# Poissons Ratio (x) = 0.18854 0.08640
# Poissons Ratio (y) = 0.18431 0.21197
# Poissons Ratio (z) = 0.06556 0.16453
#
# Static dielectric constant tensor:
#      x y z
#    x 1.791920 0.000000 0.000000 
#    y 0.000000 1.711310 0.000000 
#    z 0.000000 0.000000 1.801310 
# 
# From -- ./inp_files/68619.got.cif
#   From: 2010.05.17/outbox.cif.g08.bks.cpg/sg65_35_cif.got.tgz:68619.got - 2010.06.03 17:01:31.
