data_PCOD9484877
_publ_section_title
;
Structure prediction by ZEFSAII (Michael W. Deem and Ramdas Pophale) SiO2 
 PCOD9484877
Probable space group: C M M M
;
_chemical_formula_sum "Si O2"
_cell_formula_units_Z 88
_cell_length_a 8.208289
_cell_length_b 27.165527
_cell_length_c 22.902917
_cell_angle_alpha 90.000000
_cell_angle_beta 90.000000
_cell_angle_gamma 90.000000
_cell_volume 5106.949609
_symmetry_space_group_name_H-M "C M M M"
_symmetry_group_IT_number 65
_symmetry_cell_setting 'orthorhombic'
loop_
_space_group_symop_operation_xyz
x,y,z
-x,-y,z
x,-y,-z
-x,y,-z
-x,-y,-z
x,y,-z
-x,y,z
x,-y,z
1/2+x,1/2+y,z
1/2-x,1/2-y,z
1/2+x,1/2-y,-z
1/2-x,1/2+y,-z
1/2-x,1/2-y,-z
1/2+x,1/2+y,-z
1/2-x,1/2+y,z
1/2+x,1/2-y,z
loop_
_atom_site_type_symbol
_atom_site_label
_atom_site_fract_x
_atom_site_fract_y
_atom_site_fract_z
Si Si1 0.692996 0.341459 0.436174
Si Si2 0.197232 0.593525 0.263794
Si Si3 0.803664 0.445278 0.391877
Si Si4 0.192236 0.696543 0.313418
Si Si5 0.500000 0.939969 0.067701
Si Si6 0.682002 0.440799 0.860616
O O1 0.757293 0.326931 0.500000
O O2 0.500000 0.333686 0.435111
O O3 0.728209 0.399379 0.425785
O O4 0.765975 0.313000 0.381214
O O5 0.231558 0.563208 0.323039
O O6 0.254323 0.649245 0.277709
O O7 0.280499 0.573034 0.206252
O O8 0.000000 0.592369 0.255739
O O9 0.751463 0.500000 0.409860
O O10 0.000000 0.442038 0.398381
O O11 0.250000 0.750000 0.294576
O O12 0.000000 0.694887 0.307989
O O13 0.665135 0.923301 0.100367
O O14 0.500000 0.000000 0.069760
O O15 0.500000 0.925506 0.000000
O O16 0.500000 0.423377 0.877402
O O17 0.680933 0.500000 0.865028
#
# Coordination Sequence:
#
# PCOD9484877 Si02
#       6
#    16  16  16  16   8  16
#     4  10  21  35  49  66  90 121 159 200 243 295
#     4   9  17  31  49  69  97 129 158 198 247 299
#     4   9  18  31  48  69  93 124 159 197 244 293
#     4  10  21  36  54  73  94 122 152 195 252 302
#     4   9  18  32  48  68 104 148 179 213 249 275
#     4  10  19  29  47  75 103 139 180 211 244 288
#
# _framework density 17.231421999999998
#
# number of rings (size 3 to 8) (size 9 to 14) (size 15 to 20)
#    0.000    2.455    0.909    2.727    0.000    7.273 
#    0.000    3.636    0.000    0.000    0.000    0.000 
#    0.000    0.727    0.364    0.000    0.000    0.000 
#
# Total GULP energy -245380.105328 kJ/mol
# GULP energy per Si atom -5576.820576 kJ/mol
# Density = 1.719220 g / cm^3
# Si number density = 17.231422 Si / 1000 Ang^3
#
#
#
# Elastic Constant Matrix: (Units=GPa)
#
#
# Indices 1 2 3 4 5 6 
#
# 1 60.5928 -0.0548 25.1724 0.0000 0.0000 0.0000
# 2 -0.0548 31.3062 -26.6209 0.0000 0.0000 0.0000
# 3 25.1724 -26.6209 50.8083 0.0000 0.0000 0.0000
# 4 0.0000 0.0000 0.0000 9.4138 0.0000 0.0000
# 5 0.0000 0.0000 0.0000 0.0000 5.6194 0.0000
# 6 0.0000 0.0000 0.0000 0.0000 0.0000 23.3157
#
#
#
# Elastic Compliance Matrix: (Units=1/GPa)
#
#
# Indices 1 2 3 4 5 6 
#
# 1 0.026189 -0.019816 -0.023358 0.000000 0.000000 0.000000
# 2 -0.019816 0.072604 0.047858 0.000000 0.000000 0.000000
# 3 -0.023358 0.047858 0.056330 0.000000 0.000000 0.000000
# 4 0.000000 0.000000 0.000000 0.106227 0.000000 0.000000
# 5 0.000000 0.000000 0.000000 0.000000 0.177957 0.000000
# 6 0.000000 0.000000 0.000000 0.000000 0.000000 0.042890
#
#
# Mechanical properties :
#
#
# Convention : Reuss Voigt Hill
#
# Bulk Modulus (GPa) = 6.07938 15.52229 10.80083
# Shear Modulus (GPa) = 9.47584 17.28382 13.37983
#
# Velocity S-wave (km/s) = 2.34757 3.17052 2.78956
# Velocity P-wave (km/s) = 3.29907 4.73610 4.08133
#
# Compressibility (1/GPa) = 0.16449058
#
# Stress axis : x y z
#
# Youngs Moduli (GPa) = 38.18329 13.77341 17.75265
#
# Poissons Ratio (x) = 0.27294 0.41467
# Poissons Ratio (y) = 0.75666 -0.84961
# Poissons Ratio (z) = 0.89189 -0.65917
#
# Static dielectric constant tensor:
#      x y z
#    x 1.612520 0.000000 0.000000 
#    y 0.000000 1.597880 0.000000 
#    z 0.000000 0.000000 1.573130 
# 
# From -- ./inp_files/60294.got.cif
#   From: 2010.05.17/outbox.cif.g08.bks.cpg/sg65_31_cif.got.tgz:60294.got - 2010.06.03 17:01:31.
