data_PCOD9484290
_publ_section_title
;
Structure prediction by ZEFSAII (Michael W. Deem and Ramdas Pophale) SiO2 
 PCOD9484290
Probable space group: C M M M
;
_chemical_formula_sum "Si O2"
_cell_formula_units_Z 88
_cell_length_a 28.595734
_cell_length_b 8.696857
_cell_length_c 21.770604
_cell_angle_alpha 90.000000
_cell_angle_beta 90.000000
_cell_angle_gamma 90.000000
_cell_volume 5414.197025
_symmetry_space_group_name_H-M "C M M M"
_symmetry_group_IT_number 65
_symmetry_cell_setting 'orthorhombic'
loop_
_space_group_symop_operation_xyz
x,y,z
-x,-y,z
x,-y,-z
-x,y,-z
-x,-y,-z
x,y,-z
-x,y,z
x,-y,z
1/2+x,1/2+y,z
1/2-x,1/2-y,z
1/2+x,1/2-y,-z
1/2-x,1/2+y,-z
1/2-x,1/2-y,-z
1/2+x,1/2+y,-z
1/2-x,1/2+y,z
1/2+x,1/2-y,z
loop_
_atom_site_type_symbol
_atom_site_label
_atom_site_fract_x
_atom_site_fract_y
_atom_site_fract_z
Si Si1 0.302942 0.684231 0.000000
Si Si2 0.553959 0.315015 0.695240
Si Si3 0.698000 0.817324 0.127893
Si Si4 0.389103 0.316059 0.184590
Si Si5 0.943844 0.683200 0.433117
Si Si6 0.443735 0.182452 0.930769
O O1 0.250000 0.750000 0.000000
O O2 0.322079 0.749697 0.936413
O O3 0.303127 0.500000 0.000000
O O4 0.500000 0.261036 0.701854
O O5 0.553081 0.500000 0.694727
O O6 0.583892 0.266089 0.753925
O O7 0.573243 0.258831 0.629666
O O8 0.750000 0.750000 0.137093
O O9 0.661220 0.763508 0.178436
O O10 0.701041 0.000000 0.123090
O O11 0.383411 0.500000 0.185388
O O12 0.419394 0.269103 0.125050
O O13 0.926015 0.737855 0.500000
O O14 0.936686 0.500000 0.429983
O O15 0.000000 0.709571 0.433710
O O16 0.500000 0.198390 0.926119
O O17 0.432851 0.000000 0.926180
O O18 0.430338 0.234059 0.000000
#
# Coordination Sequence:
#
# PCOD9484290 Si02
#       6
#     8  16  16  16  16  16
#     4  10  18  32  52  72  91 112 141 182 236 290
#     4   9  18  31  46  67  97 131 165 199 233 274
#     4  11  22  37  54  72  94 120 152 195 245 297
#     4  11  22  34  49  70  96 126 161 200 242 290
#     4   8  14  25  42  65  93 125 160 196 233 274
#     4   9  19  35  51  67  90 121 160 204 244 283
#
# _framework density 16.253564000000001
#
# number of rings (size 3 to 8) (size 9 to 14) (size 15 to 20)
#    0.000    2.364    0.000    5.727    1.273    3.273 
#    0.000    4.545    0.000    0.000    0.000    0.000 
#    0.000    0.727    0.000    2.364    0.000    3.455 
#
# Total GULP energy -245376.732796 kJ/mol
# GULP energy per Si atom -5576.743927 kJ/mol
# Density = 1.621657 g / cm^3
# Si number density = 16.253564 Si / 1000 Ang^3
#
#
#
# Elastic Constant Matrix: (Units=GPa)
#
#
# Indices 1 2 3 4 5 6 
#
# 1 58.2640 27.2678 57.1272 0.0000 0.0000 0.0000
# 2 27.2678 69.5160 42.4224 0.0000 0.0000 0.0000
# 3 57.1272 42.4224 148.5020 0.0000 0.0000 0.0000
# 4 0.0000 0.0000 0.0000 26.5756 0.0000 0.0000
# 5 0.0000 0.0000 0.0000 0.0000 12.4324 0.0000
# 6 0.0000 0.0000 0.0000 0.0000 0.0000 20.6788
#
#
#
# Elastic Compliance Matrix: (Units=1/GPa)
#
#
# Indices 1 2 3 4 5 6 
#
# 1 0.029240 -0.005578 -0.009655 0.000000 0.000000 0.000000
# 2 -0.005578 0.018486 -0.003135 0.000000 0.000000 0.000000
# 3 -0.009655 -0.003135 0.011344 0.000000 0.000000 0.000000
# 4 0.000000 0.000000 0.000000 0.037628 0.000000 0.000000
# 5 0.000000 0.000000 0.000000 0.000000 0.080435 0.000000
# 6 0.000000 0.000000 0.000000 0.000000 0.000000 0.048359
#
#
# Mechanical properties :
#
#
# Convention : Reuss Voigt Hill
#
# Bulk Modulus (GPa) = 44.77383 58.87964 51.82674
# Shear Modulus (GPa) = 18.54096 21.90168 20.22132
#
# Velocity S-wave (km/s) = 3.38114 3.67481 3.53103
# Velocity P-wave (km/s) = 6.54597 7.36953 6.96992
#
# Compressibility (1/GPa) = 0.02233447
#
# Stress axis : x y z
#
# Youngs Moduli (GPa) = 34.19940 54.09398 88.15378
#
# Poissons Ratio (x) = 0.30171 0.85113
# Poissons Ratio (y) = 0.19075 0.27639
# Poissons Ratio (z) = 0.33020 0.16960
#
# Static dielectric constant tensor:
#      x y z
#    x 1.489660 0.000000 0.000000 
#    y 0.000000 1.546860 0.000000 
#    z 0.000000 0.000000 1.618900 
# 
# From -- ./inp_files/57989.got.cif
#   From: 2010.05.17/outbox.cif.g08.bks.cpg/sg65_29_cif.got.tgz:57989.got - 2010.06.03 17:01:31.
