data_PCOD9484678
_publ_section_title
;
Structure prediction by ZEFSAII (Michael W. Deem and Ramdas Pophale) SiO2 
 PCOD9484678
Probable space group: C M M M
;
_chemical_formula_sum "Si O2"
_cell_formula_units_Z 88
_cell_length_a 30.840985
_cell_length_b 17.835226
_cell_length_c 7.310993
_cell_angle_alpha 90.000000
_cell_angle_beta 90.000000
_cell_angle_gamma 90.000000
_cell_volume 4021.455109
_symmetry_space_group_name_H-M "C M M M"
_symmetry_group_IT_number 65
_symmetry_cell_setting 'orthorhombic'
loop_
_space_group_symop_operation_xyz
x,y,z
-x,-y,z
x,-y,-z
-x,y,-z
-x,-y,-z
x,y,-z
-x,y,z
x,-y,z
1/2+x,1/2+y,z
1/2-x,1/2-y,z
1/2+x,1/2-y,-z
1/2-x,1/2+y,-z
1/2-x,1/2-y,-z
1/2+x,1/2+y,-z
1/2-x,1/2+y,z
1/2+x,1/2-y,z
loop_
_atom_site_type_symbol
_atom_site_label
_atom_site_fract_x
_atom_site_fract_y
_atom_site_fract_z
Si Si1 0.385445 0.366797 0.276087
Si Si2 0.550026 0.917390 0.779265
Si Si3 0.449551 0.500000 0.276826
Si Si4 0.209574 0.909936 0.291193
Si Si5 0.621770 0.199587 0.292165
Si Si6 0.195000 0.413104 0.275556
O O1 0.386246 0.371217 0.500000
O O2 0.421894 0.426644 0.218640
O O3 0.336861 0.388026 0.213343
O O4 0.390707 0.280757 0.216559
O O5 0.500000 0.909981 0.725022
O O6 0.579746 0.852281 0.707168
O O7 0.565736 0.000000 0.721816
O O8 0.551471 0.915208 0.000000
O O9 0.500000 0.500000 0.218766
O O10 0.450138 0.500000 0.500000
O O11 0.209447 0.881100 0.500000
O O12 0.256640 0.889636 0.214144
O O13 0.210186 0.000000 0.296538
O O14 0.636175 0.214869 0.500000
O O15 0.659559 0.146948 0.211928
O O16 0.194989 0.414214 0.500000
O O17 0.186316 0.500000 0.220962
#
# Coordination Sequence:
#
# PCOD9484678 Si02
#       6
#    16  16   8  16  16  16
#     4   9  16  25  38  59  88 124 159 190 231 281
#     4   9  19  36  54  68  86 120 161 189 215 267
#     4   9  16  26  38  52  79 121 163 199 236 277
#     4   8  12  21  37  54  82 125 164 189 216 269
#     4  10  19  28  43  72 103 120 142 189 244 286
#     4   8  14  23  36  58  89 123 151 182 227 274
#
# _framework density 21.882626999999999
#
# number of rings (size 3 to 8) (size 9 to 14) (size 15 to 20)
#    0.000    3.182    0.909    2.182    0.000    2.909 
#    0.000    6.364    0.000    0.000    0.000    3.182 
#    0.000    3.636    0.000    0.000    0.000    0.000 
#
# Total GULP energy -245338.558725 kJ/mol
# GULP energy per Si atom -5575.876335 kJ/mol
# Density = 2.183282 g / cm^3
# Si number density = 21.882627 Si / 1000 Ang^3
#
#
#
# Elastic Constant Matrix: (Units=GPa)
#
#
# Indices 1 2 3 4 5 6 
#
# 1 161.2454 124.5173 4.3850 0.0000 0.0000 0.0000
# 2 124.5173 173.2195 7.0595 0.0000 0.0000 0.0000
# 3 4.3850 7.0595 85.2009 0.0000 0.0000 0.0000
# 4 0.0000 0.0000 0.0000 78.4837 0.0000 0.0000
# 5 0.0000 0.0000 0.0000 0.0000 10.9085 0.0000
# 6 0.0000 0.0000 0.0000 0.0000 0.0000 -3.4583
#
#
#
# Elastic Compliance Matrix: (Units=1/GPa)
#
#
# Indices 1 2 3 4 5 6 
#
# 1 0.013941 -0.010026 0.000113 0.000000 0.000000 0.000000
# 2 -0.010026 0.013003 -0.000561 0.000000 0.000000 0.000000
# 3 0.000113 -0.000561 0.011778 0.000000 0.000000 0.000000
# 4 0.000000 0.000000 0.000000 0.012741 0.000000 0.000000
# 5 0.000000 0.000000 0.000000 0.000000 0.091672 0.000000
# 6 0.000000 0.000000 0.000000 0.000000 0.000000 -0.289157
#
#
# Mechanical properties :
#
#
# Convention : Reuss Voigt Hill
#
# Bulk Modulus (GPa) = 56.26403 76.84328 66.55366
# Shear Modulus (GPa) = -41.96411 36.10036 -2.93187
#
# Velocity S-wave (km/s) = -4.38390 4.06609 -1.15876
# Velocity P-wave (km/s) = 0.37794 7.56548 5.35627
#
# Compressibility (1/GPa) = 0.01777334
#
# Stress axis : x y z
#
# Youngs Moduli (GPa) = 71.73155 76.90576 84.90658
#
# Poissons Ratio (x) = 0.77105 -0.00961
# Poissons Ratio (y) = 0.71917 0.04767
# Poissons Ratio (z) = -0.00812 0.04317
#
# Static dielectric constant tensor:
#      x y z
#    x 1.778320 0.000000 0.000000 
#    y 0.000000 1.763750 0.000000 
#    z 0.000000 0.000000 1.877620 
# 
# From -- ./inp_files/18281.got.cif
#   From: 2010.05.17/outbox.cif.g08.bks.cpg/sg65_10_cif.got.tgz:18281.got - 2010.06.03 17:01:31.
