data_PCOD9484041
_publ_section_title
;
Structure prediction by ZEFSAII (Michael W. Deem and Ramdas Pophale) SiO2 
 PCOD9484041
Probable space group: C M M M
;
_chemical_formula_sum "Si O2"
_cell_formula_units_Z 88
_cell_length_a 20.879624
_cell_length_b 30.945163
_cell_length_c 7.494387
_cell_angle_alpha 90.000000
_cell_angle_beta 90.000000
_cell_angle_gamma 90.000000
_cell_volume 4842.298570
_symmetry_space_group_name_H-M "C M M M"
_symmetry_group_IT_number 65
_symmetry_cell_setting 'orthorhombic'
loop_
_space_group_symop_operation_xyz
x,y,z
-x,-y,z
x,-y,-z
-x,y,-z
-x,-y,-z
x,y,-z
-x,y,z
x,-y,z
1/2+x,1/2+y,z
1/2-x,1/2-y,z
1/2+x,1/2-y,-z
1/2-x,1/2+y,-z
1/2-x,1/2-y,-z
1/2+x,1/2+y,-z
1/2-x,1/2+y,z
1/2+x,1/2-y,z
loop_
_atom_site_type_symbol
_atom_site_label
_atom_site_fract_x
_atom_site_fract_y
_atom_site_fract_z
Si Si1 0.930661 0.224880 0.215565
Si Si2 0.859434 0.450313 0.719368
Si Si3 0.791772 0.210517 0.793064
Si Si4 0.295281 0.131806 0.297559
Si Si5 0.000000 0.447365 0.706780
Si Si6 0.070448 0.672327 0.785761
O O1 0.863399 0.205954 0.282589
O O2 0.927273 0.276348 0.250156
O O3 0.000000 0.209275 0.283781
O O4 0.932979 0.219358 0.000000
O O5 0.861382 0.449266 0.500000
O O6 0.848529 0.500000 0.770546
O O7 0.806459 0.416032 0.779124
O O8 0.930552 0.436006 0.783801
O O9 0.750000 0.250000 0.713152
O O10 0.750930 0.166843 0.788783
O O11 0.801864 0.222865 0.000000
O O12 0.272648 0.127484 0.500000
O O13 0.367216 0.151057 0.296300
O O14 0.000000 0.500000 0.707482
O O15 0.000000 0.433980 0.500000
O O16 0.000000 0.656262 0.727860
O O17 0.074428 0.667269 0.000000
#
# Coordination Sequence:
#
# PCOD9484041 Si02
#       6
#    16  16  16  16   8  16
#     4   8  14  27  47  64  78 108 154 187 201 237
#     4   8  15  27  40  56  81 113 146 179 217 261
#     4  10  18  31  48  63  86 120 151 175 211 262
#     4  11  21  28  42  67  91 113 143 188 229 261
#     4   7  10  20  38  54  71 103 145 181 209 243
#     4   9  17  30  45  60  83 117 155 186 214 258
#
# _framework density 18.173188
#
# number of rings (size 3 to 8) (size 9 to 14) (size 15 to 20)
#    0.000    3.000    1.818    2.727    1.273    0.727 
#    0.000    0.000    0.000    2.727    0.000    1.273 
#    0.000    0.727    0.000    9.091    0.000    0.000 
#
# Total GULP energy -245246.237430 kJ/mol
# GULP energy per Si atom -5573.778123 kJ/mol
# Density = 1.813183 g / cm^3
# Si number density = 18.173188 Si / 1000 Ang^3
#
#
#
# Elastic Constant Matrix: (Units=GPa)
#
#
# Indices 1 2 3 4 5 6 
#
# 1 140.7912 57.9727 5.2220 0.0000 0.0000 0.0000
# 2 57.9727 76.4408 -0.4301 0.0000 0.0000 0.0000
# 3 5.2220 -0.4301 45.5238 0.0000 0.0000 0.0000
# 4 0.0000 0.0000 0.0000 10.1792 0.0000 0.0000
# 5 0.0000 0.0000 0.0000 0.0000 -39.8816 0.0000
# 6 0.0000 0.0000 0.0000 0.0000 0.0000 27.4189
#
#
#
# Elastic Compliance Matrix: (Units=1/GPa)
#
#
# Indices 1 2 3 4 5 6 
#
# 1 0.010401 -0.007895 -0.001268 0.000000 0.000000 0.000000
# 2 -0.007895 0.019076 0.001086 0.000000 0.000000 0.000000
# 3 -0.001268 0.001086 0.022122 0.000000 0.000000 0.000000
# 4 0.000000 0.000000 0.000000 0.098240 0.000000 0.000000
# 5 0.000000 0.000000 0.000000 0.000000 -0.025074 0.000000
# 6 0.000000 0.000000 0.000000 0.000000 0.000000 0.036471
#
#
# Mechanical properties :
#
#
# Convention : Reuss Voigt Hill
#
# Bulk Modulus (GPa) = 28.21274 43.14277 35.67776
# Shear Modulus (GPa) = 26.42657 12.87604 19.65130
#
# Velocity S-wave (km/s) = 3.81747 2.66469 3.29193
# Velocity P-wave (km/s) = 5.91514 5.76704 5.84156
#
# Compressibility (1/GPa) = 0.03544498
#
# Stress axis : x y z
#
# Youngs Moduli (GPa) = 96.14859 52.42294 45.20347
#
# Poissons Ratio (x) = 0.41387 0.05730
# Poissons Ratio (y) = 0.75908 -0.04908
# Poissons Ratio (z) = 0.12188 -0.05692
#
# Static dielectric constant tensor:
#      x y z
#    x 1.653800 0.000000 0.000000 
#    y 0.000000 1.642250 0.000000 
#    z 0.000000 0.000000 1.668580 
# 
# From -- ./inp_files/12618.got.cif
#   From: 2010.05.17/outbox.cif.g08.bks.cpg/sg65_7_cif.got.tgz:12618.got - 2010.06.03 17:01:31.
