data_PCOD9484278
_publ_section_title
;
Structure prediction by ZEFSAII (Michael W. Deem and Ramdas Pophale) SiO2 
 PCOD9484278
Probable space group: C M M M
;
_chemical_formula_sum "Si O2"
_cell_formula_units_Z 104
_cell_length_a 8.842783
_cell_length_b 24.138241
_cell_length_c 28.892247
_cell_angle_alpha 90.000000
_cell_angle_beta 90.000000
_cell_angle_gamma 90.000000
_cell_volume 6167.027793
_symmetry_space_group_name_H-M "C M M M"
_symmetry_group_IT_number 65
_symmetry_cell_setting 'orthorhombic'
loop_
_space_group_symop_operation_xyz
x,y,z
-x,-y,z
x,-y,-z
-x,y,-z
-x,-y,-z
x,y,-z
-x,y,z
x,-y,z
1/2+x,1/2+y,z
1/2-x,1/2-y,z
1/2+x,1/2-y,-z
1/2-x,1/2+y,-z
1/2-x,1/2-y,-z
1/2+x,1/2+y,-z
1/2-x,1/2+y,z
1/2+x,1/2-y,z
loop_
_atom_site_type_symbol
_atom_site_label
_atom_site_fract_x
_atom_site_fract_y
_atom_site_fract_z
Si Si1 0.322360 0.432949 0.449301
Si Si2 0.817443 0.188658 0.820778
Si Si3 0.179588 0.500000 0.894690
Si Si4 0.177515 0.000000 0.204258
Si Si5 0.816103 0.377167 0.092068
Si Si6 0.680156 0.064509 0.352873
Si Si7 0.820527 0.111299 0.737223
Si Si8 0.681913 0.810726 0.000000
O O1 0.267606 0.413373 0.500000
O O2 0.500000 0.419383 0.445359
O O3 0.311222 0.500000 0.450101
O O4 0.236693 0.415584 0.403085
O O5 0.750000 0.250000 0.825140
O O6 0.754913 0.150567 0.862395
O O7 0.773732 0.160680 0.771645
O O8 0.000000 0.190002 0.823329
O O9 0.218931 0.500000 0.840549
O O10 0.235205 0.440969 0.913303
O O11 0.000000 0.500000 0.901934
O O12 0.205159 0.054599 0.234255
O O13 0.000000 0.000000 0.190287
O O14 0.773523 0.342988 0.046506
O O15 0.000000 0.376161 0.096647
O O16 0.500000 0.063418 0.352235
O O17 0.739866 0.102662 0.311553
O O18 0.733742 0.000000 0.346118
O O19 0.000000 0.116244 0.729115
O O20 0.750000 0.750000 0.000000
O O21 0.500000 0.807265 0.000000
#
# Coordination Sequence:
#
# PCOD9484278 Si02
#       8
#    16  16   8   8  16  16  16   8
#     4   8  14  25  40  57  83 125 171 208 244 292
#     4  11  23  38  56  77 101 132 169 209 253 301
#     4  10  20  33  54  82 108 133 163 204 253 300
#     4  10  18  32  51  73 100 131 166 204 245 297
#     4  10  21  37  57  81 107 135 167 206 251 302
#     4  10  19  27  40  66  97 128 163 206 252 295
#     4  10  20  33  50  70  96 131 166 202 245 297
#     4  10  22  39  57  77 103 136 175 214 253 298
#
# _framework density 16.863876999999999
#
# number of rings (size 3 to 8) (size 9 to 14) (size 15 to 20)
#    0.000    2.154    2.308    1.846    0.000    4.923 
#    0.000    3.077    0.000    0.000    0.000    2.154 
#    0.000    0.615    0.000    2.000    0.000    2.462 
#
# Total GULP energy -289949.802302 kJ/mol
# GULP energy per Si atom -5575.957737 kJ/mol
# Density = 1.682549 g / cm^3
# Si number density = 16.863877 Si / 1000 Ang^3
#
#
#
# Elastic Constant Matrix: (Units=GPa)
#
#
# Indices 1 2 3 4 5 6 
#
# 1 21.8256 27.4439 40.7761 0.0000 0.0000 0.0000
# 2 27.4439 110.5273 59.7280 0.0000 0.0000 0.0000
# 3 40.7761 59.7280 146.2053 0.0000 0.0000 0.0000
# 4 0.0000 0.0000 0.0000 8.6605 0.0000 0.0000
# 5 0.0000 0.0000 0.0000 0.0000 27.0906 0.0000
# 6 0.0000 0.0000 0.0000 0.0000 0.0000 14.3827
#
#
#
# Elastic Compliance Matrix: (Units=1/GPa)
#
#
# Indices 1 2 3 4 5 6 
#
# 1 0.109859 -0.013758 -0.025019 0.000000 0.000000 0.000000
# 2 -0.013758 0.013334 -0.001610 0.000000 0.000000 0.000000
# 3 -0.025019 -0.001610 0.014475 0.000000 0.000000 0.000000
# 4 0.000000 0.000000 0.000000 0.115467 0.000000 0.000000
# 5 0.000000 0.000000 0.000000 0.000000 0.036913 0.000000
# 6 0.000000 0.000000 0.000000 0.000000 0.000000 0.069528
#
#
# Mechanical properties :
#
#
# Convention : Reuss Voigt Hill
#
# Bulk Modulus (GPa) = 17.57653 59.38378 38.48016
# Shear Modulus (GPa) = 10.88580 20.06745 15.47663
#
# Velocity S-wave (km/s) = 2.54345 3.45333 3.03271
# Velocity P-wave (km/s) = 4.36700 7.15477 5.92712
#
# Compressibility (1/GPa) = 0.05689405
#
# Stress axis : x y z
#
# Youngs Moduli (GPa) = 9.10258 74.99798 69.08426
#
# Poissons Ratio (x) = 1.03182 1.72840
# Poissons Ratio (y) = 0.12523 0.11123
# Poissons Ratio (z) = 0.22774 0.12075
#
# Static dielectric constant tensor:
#      x y z
#    x 1.567160 0.000000 0.000000 
#    y 0.000000 1.563960 0.000000 
#    z 0.000000 0.000000 1.568590 
# 
# From -- ./inp_files/73656.got.cif
#   From: 2010.05.17/outbox.cif.g08.bks.cpg/sg65_37_cif.got.tgz:73656.got - 2010.06.03 17:01:31.
