data_PCOD9484615
_publ_section_title
;
Structure prediction by ZEFSAII (Michael W. Deem and Ramdas Pophale) SiO2 
 PCOD9484615
Probable space group: C M M M
;
_chemical_formula_sum "Si O2"
_cell_formula_units_Z 96
_cell_length_a 19.601364
_cell_length_b 16.000732
_cell_length_c 15.654136
_cell_angle_alpha 90.000000
_cell_angle_beta 90.000000
_cell_angle_gamma 90.000000
_cell_volume 4909.703294
_symmetry_space_group_name_H-M "C M M M"
_symmetry_group_IT_number 65
_symmetry_cell_setting 'orthorhombic'
loop_
_space_group_symop_operation_xyz
x,y,z
-x,-y,z
x,-y,-z
-x,y,-z
-x,-y,-z
x,y,-z
-x,y,z
x,-y,z
1/2+x,1/2+y,z
1/2-x,1/2-y,z
1/2+x,1/2-y,-z
1/2-x,1/2+y,-z
1/2-x,1/2-y,-z
1/2+x,1/2+y,-z
1/2-x,1/2+y,z
1/2+x,1/2-y,z
loop_
_atom_site_type_symbol
_atom_site_label
_atom_site_fract_x
_atom_site_fract_y
_atom_site_fract_z
Si Si1 0.168382 0.157993 0.096607
Si Si2 0.320972 0.849928 0.646684
Si Si3 0.578955 0.000000 0.854086
Si Si4 0.679028 0.849927 0.146680
Si Si5 0.421045 0.000000 0.645919
Si Si6 0.831617 0.157994 0.596608
Si Si7 0.075630 0.099104 0.250000
O O1 0.244315 0.125719 0.119676
O O2 0.168268 0.258751 0.106462
O O3 0.116294 0.125573 0.166330
O O4 0.151521 0.134788 0.000000
O O5 0.322238 0.841341 0.750002
O O6 0.377421 0.918060 0.620912
O O7 0.244314 0.874282 0.619681
O O8 0.331732 0.758751 0.606466
O O9 0.622578 0.918060 0.879092
O O10 0.500000 0.000000 0.883029
O O11 0.577706 0.000000 0.750002
O O12 0.500000 0.000000 0.616975
O O13 0.848476 0.134791 0.500000
O O14 0.883709 0.125574 0.666327
O O15 0.000000 0.136642 0.249998
O O16 0.071066 0.000000 0.250000
#
# Coordination Sequence:
#
# PCOD9484615 Si02
#       7
#    16  16   8  16   8  16  16
#     4  11  22  40  66  94 123 161 212 261 309 367
#     4  10  18  36  63  94 129 167 210 255 302 361
#     4   9  20  34  57  95 131 167 207 248 305 374
#     4  10  18  36  63  94 129 167 210 255 302 361
#     4   9  20  34  57  95 131 167 207 248 305 374
#     4  11  22  40  66  94 123 161 212 261 309 367
#     4  11  26  45  64  89 121 158 207 264 324 378
#
# _framework density 19.553115999999999
#
# number of rings (size 3 to 8) (size 9 to 14) (size 15 to 20)
#    0.000    1.667    3.333    3.000    2.333    2.667 
#    0.000    4.167    0.000    7.000    0.000    0.000 
#    0.000    0.000    0.000    0.000    0.000    0.000 
#
# Total GULP energy -268168.877077 kJ/mol
# GULP energy per Si atom -5586.851606 kJ/mol
# Density = 1.950861 g / cm^3
# Si number density = 19.553116 Si / 1000 Ang^3
#
#
#
# Elastic Constant Matrix: (Units=GPa)
#
#
# Indices 1 2 3 4 5 6 
#
# 1 192.5260 66.1680 62.7493 0.0000 0.0000 0.0000
# 2 66.1680 58.1786 12.3979 0.0000 0.0000 0.0000
# 3 62.7493 12.3979 137.9687 0.0000 0.0000 0.0000
# 4 0.0000 0.0000 0.0000 -22.6923 0.0000 0.0000
# 5 0.0000 0.0000 0.0000 0.0000 -16.5273 0.0000
# 6 0.0000 0.0000 0.0000 0.0000 0.0000 67.5276
#
#
#
# Elastic Compliance Matrix: (Units=1/GPa)
#
#
# Indices 1 2 3 4 5 6 
#
# 1 0.010022 -0.010630 -0.003603 0.000000 0.000000 0.000000
# 2 -0.010630 0.028800 0.002247 0.000000 0.000000 0.000000
# 3 -0.003603 0.002247 0.008685 0.000000 0.000000 0.000000
# 4 0.000000 0.000000 0.000000 -0.044068 0.000000 0.000000
# 5 0.000000 0.000000 0.000000 0.000000 -0.060506 0.000000
# 6 0.000000 0.000000 0.000000 0.000000 0.000000 0.014809
#
#
# Mechanical properties :
#
#
# Convention : Reuss Voigt Hill
#
# Bulk Modulus (GPa) = 42.49223 74.58931 58.54077
# Shear Modulus (GPa) = -478.84813 22.15215 -228.34799
#
# Velocity S-wave (km/s) = -15.66613 3.36954 -10.81836
# Velocity P-wave (km/s) = 17.47736 7.30536 11.22697
#
# Compressibility (1/GPa) = 0.02353371
#
# Stress axis : x y z
#
# Youngs Moduli (GPa) = 99.78258 34.72255 115.14522
#
# Poissons Ratio (x) = 0.36911 0.41484
# Poissons Ratio (y) = 1.06072 -0.25871
# Poissons Ratio (z) = 0.35949 -0.07801
#
# Static dielectric constant tensor:
#      x y z
#    x 1.679850 0.000000 0.000000 
#    y 0.000000 1.678900 0.000000 
#    z 0.000000 0.000000 1.680860 
# 
# From -- ./inp_files/44159.got.cif
#   From: 2010.05.17/outbox.cif.g08.bks.cpg/sg65_23_cif.got.tgz:44159.got - 2010.06.03 17:01:31.
