data_PCOD9484469
_publ_section_title
;
Structure prediction by ZEFSAII (Michael W. Deem and Ramdas Pophale) SiO2 
 PCOD9484469
Probable space group: C M M M
;
_chemical_formula_sum "Si O2"
_cell_formula_units_Z 90
_cell_length_a 25.210328
_cell_length_b 22.785502
_cell_length_c 7.743767
_cell_angle_alpha 90.000000
_cell_angle_beta 90.000000
_cell_angle_gamma 90.000000
_cell_volume 4448.251916
_symmetry_space_group_name_H-M "C M M M"
_symmetry_group_IT_number 65
_symmetry_cell_setting 'orthorhombic'
loop_
_space_group_symop_operation_xyz
x,y,z
-x,-y,z
x,-y,-z
-x,y,-z
-x,-y,-z
x,y,-z
-x,y,z
x,-y,z
1/2+x,1/2+y,z
1/2-x,1/2-y,z
1/2+x,1/2-y,-z
1/2-x,1/2+y,-z
1/2-x,1/2-y,-z
1/2+x,1/2+y,-z
1/2-x,1/2+y,z
1/2+x,1/2-y,z
loop_
_atom_site_type_symbol
_atom_site_label
_atom_site_fract_x
_atom_site_fract_y
_atom_site_fract_z
Si Si1 0.404736 0.000000 0.212834
Si Si2 0.500000 0.000000 0.500000
Si Si3 0.500000 0.328582 0.195841
Si Si4 0.113935 0.289848 0.707852
Si Si5 0.887138 0.156210 0.705378
Si Si6 0.704843 0.434346 0.792112
Si Si7 0.500000 0.801997 0.305421
Si Si8 0.320885 0.100990 0.794155
O O1 0.367351 0.943983 0.254778
O O2 0.453824 0.000000 0.344104
O O3 0.415858 0.000000 0.000000
O O4 0.445342 0.362047 0.228323
O O5 0.500000 0.269461 0.310820
O O6 0.500000 0.306986 0.000000
O O7 0.108426 0.287499 0.500000
O O8 0.121796 0.223175 0.770408
O O9 0.160908 0.333635 0.749791
O O10 0.057247 0.315196 0.775392
O O11 0.890421 0.159040 0.500000
O O12 0.840224 0.112593 0.751014
O O13 0.691922 0.500000 0.729779
O O14 0.762963 0.415804 0.724686
O O15 0.708152 0.436789 0.000000
O O16 0.500000 0.827306 0.500000
O O17 0.317231 0.096333 0.000000
#
# Coordination Sequence:
#
# PCOD9484469 Si02
#       8
#     8   2   8  16  16  16   8  16
#     4  10  23  45  63  90 129 166 215 270 321 373
#     4  12  26  40  68  98 120 172 218 270 330 374
#     4  10  18  32  58  86 116 153 189 230 283 353
#     4   9  19  34  55  83 120 155 195 244 297 361
#     4  10  21  38  58  88 123 155 190 243 301 353
#     4  10  21  40  63  84 112 155 203 248 300 361
#     4   8  16  33  51  75 114 157 189 233 293 348
#     4  10  21  39  61  83 118 161 201 254 309 356
#
# _framework density 20.232665999999998
#
# number of rings (size 3 to 8) (size 9 to 14) (size 15 to 20)
#    0.000    2.311    0.889    2.533    1.244    6.044 
#    1.600    4.889    0.000    2.667    0.000    0.000 
#    0.000    0.000    0.000    0.000    0.000    0.000 
#
# Total GULP energy -250703.122817 kJ/mol
# GULP energy per Si atom -5571.180507 kJ/mol
# Density = 2.018662 g / cm^3
# Si number density = 20.232666 Si / 1000 Ang^3
#
#
#
# Elastic Constant Matrix: (Units=GPa)
#
#
# Indices 1 2 3 4 5 6 
#
# 1 159.9308 82.7640 28.8842 0.0000 0.0000 0.0000
# 2 82.7640 103.5339 10.0097 0.0000 0.0000 0.0000
# 3 28.8842 10.0097 61.0204 0.0000 0.0000 0.0000
# 4 0.0000 0.0000 0.0000 26.8225 0.0000 0.0000
# 5 0.0000 0.0000 0.0000 0.0000 38.6967 0.0000
# 6 0.0000 0.0000 0.0000 0.0000 0.0000 -28.0957
#
#
#
# Elastic Compliance Matrix: (Units=1/GPa)
#
#
# Indices 1 2 3 4 5 6 
#
# 1 0.011560 -0.008852 -0.004020 0.000000 0.000000 0.000000
# 2 -0.008852 0.016593 0.001468 0.000000 0.000000 0.000000
# 3 -0.004020 0.001468 0.018050 0.000000 0.000000 0.000000
# 4 0.000000 0.000000 0.000000 0.037282 0.000000 0.000000
# 5 0.000000 0.000000 0.000000 0.000000 0.025842 0.000000
# 6 0.000000 0.000000 0.000000 0.000000 0.000000 -0.035593
#
#
# Mechanical properties :
#
#
# Convention : Reuss Voigt Hill
#
# Bulk Modulus (GPa) = 42.74335 63.08899 52.91617
# Shear Modulus (GPa) = 47.92064 21.00652 34.46358
#
# Velocity S-wave (km/s) = 4.87198 3.22568 4.13166
# Velocity P-wave (km/s) = 7.26774 6.71735 6.99796
#
# Compressibility (1/GPa) = 0.02339545
#
# Stress axis : x y z
#
# Youngs Moduli (GPa) = 86.50842 60.26671 55.40218
#
# Poissons Ratio (x) = 0.53348 0.22270
# Poissons Ratio (y) = 0.76577 -0.08134
# Poissons Ratio (z) = 0.34774 -0.08849
#
# Static dielectric constant tensor:
#      x y z
#    x 1.736830 0.000000 0.000000 
#    y 0.000000 1.718340 0.000000 
#    z 0.000000 0.000000 1.756480 
# 
# From -- ./inp_files/11925.got.cif
#   From: 2010.05.17/outbox.cif.g08.bks.cpg/sg65_6_cif.got.tgz:11925.got - 2010.06.03 17:01:31.
