data_PCOD9484480
_publ_section_title
;
Structure prediction by ZEFSAII (Michael W. Deem and Ramdas Pophale) SiO2 
 PCOD9484480
Probable space group: C M M M
;
_chemical_formula_sum "Si O2"
_cell_formula_units_Z 112
_cell_length_a 15.103370
_cell_length_b 28.864559
_cell_length_c 13.738180
_cell_angle_alpha 90.000000
_cell_angle_beta 90.000000
_cell_angle_gamma 90.000000
_cell_volume 5989.188620
_symmetry_space_group_name_H-M "C M M M"
_symmetry_group_IT_number 65
_symmetry_cell_setting 'orthorhombic'
loop_
_space_group_symop_operation_xyz
x,y,z
-x,-y,z
x,-y,-z
-x,y,-z
-x,-y,-z
x,y,-z
-x,y,z
x,-y,z
1/2+x,1/2+y,z
1/2-x,1/2-y,z
1/2+x,1/2-y,-z
1/2-x,1/2+y,-z
1/2-x,1/2-y,-z
1/2+x,1/2+y,-z
1/2-x,1/2+y,z
1/2+x,1/2-y,z
loop_
_atom_site_type_symbol
_atom_site_label
_atom_site_fract_x
_atom_site_fract_y
_atom_site_fract_z
Si Si1 0.603812 0.946662 0.117314
Si Si2 0.600984 0.669797 0.115208
Si Si3 0.100674 0.949506 0.617901
Si Si4 0.855852 0.240713 0.608960
Si Si5 0.099401 0.274380 0.180972
Si Si6 0.792895 0.141656 0.612786
Si Si7 0.284977 0.860522 0.806746
O O1 0.500000 0.938748 0.142052
O O2 0.665698 0.907265 0.162850
O O3 0.625831 0.000000 0.145156
O O4 0.611051 0.943820 0.000000
O O5 0.500000 0.660293 0.150985
O O6 0.619092 0.724264 0.135152
O O7 0.682214 0.641877 0.161719
O O8 0.601739 0.661649 0.000000
O O9 0.097114 0.950597 0.500000
O O10 0.160342 0.906096 0.640453
O O11 0.000000 0.943524 0.652484
O O12 0.133395 0.000000 0.650874
O O13 0.887604 0.252975 0.500000
O O14 0.750000 0.250000 0.610840
O O15 0.896457 0.264956 0.702527
O O16 0.860054 0.184996 0.621697
O O17 0.165691 0.315128 0.151932
O O18 0.000000 0.287845 0.153150
O O19 0.764595 0.140985 0.500000
O O20 0.715257 0.146642 0.690216
#
# Coordination Sequence:
#
# PCOD9484480 Si02
#       7
#    16  16  16  16  16  16  16
#     4   9  20  40  64  90 116 141 181 240 295 341
#     4  10  22  38  55  79 113 147 179 223 281 344
#     4   8  15  29  47  68  96 129 170 222 271 313
#     4  10  18  33  51  70 103 147 190 229 274 326
#     4  11  22  35  51  78 109 143 188 233 281 335
#     4  10  20  31  50  76 107 147 190 229 272 326
#     4  12  21  35  59  84 109 147 189 231 281 340
#
# _framework density 18.700362999999999
#
# number of rings (size 3 to 8) (size 9 to 14) (size 15 to 20)
#    0.000    2.000    2.857    2.143    0.000    3.714 
#    0.000    2.857    0.000    1.714    0.000    3.000 
#    0.000    0.000    0.000    0.000    0.000    0.000 
#
# Total GULP energy -312264.525417 kJ/mol
# GULP energy per Si atom -5576.152240 kJ/mol
# Density = 1.865780 g / cm^3
# Si number density = 18.700363 Si / 1000 Ang^3
#
#
#
# Elastic Constant Matrix: (Units=GPa)
#
#
# Indices 1 2 3 4 5 6 
#
# 1 94.0110 59.9457 23.5740 0.0000 0.0000 0.0000
# 2 59.9457 106.1095 20.4996 0.0000 0.0000 0.0000
# 3 23.5740 20.4996 52.2589 0.0000 0.0000 0.0000
# 4 0.0000 0.0000 0.0000 21.6478 0.0000 0.0000
# 5 0.0000 0.0000 0.0000 0.0000 16.1308 0.0000
# 6 0.0000 0.0000 0.0000 0.0000 0.0000 28.6344
#
#
#
# Elastic Compliance Matrix: (Units=1/GPa)
#
#
# Indices 1 2 3 4 5 6 
#
# 1 0.017493 -0.009043 -0.004344 0.000000 0.000000 0.000000
# 2 -0.009043 0.014872 -0.001754 0.000000 0.000000 0.000000
# 3 -0.004344 -0.001754 0.021783 0.000000 0.000000 0.000000
# 4 0.000000 0.000000 0.000000 0.046194 0.000000 0.000000
# 5 0.000000 0.000000 0.000000 0.000000 0.061993 0.000000
# 6 0.000000 0.000000 0.000000 0.000000 0.000000 0.034923
#
#
# Mechanical properties :
#
#
# Convention : Reuss Voigt Hill
#
# Bulk Modulus (GPa) = 41.90174 51.15755 46.52964
# Shear Modulus (GPa) = 21.23182 23.17326 22.20254
#
# Velocity S-wave (km/s) = 3.37318 3.52403 3.44943
# Velocity P-wave (km/s) = 6.13406 6.63131 6.38752
#
# Compressibility (1/GPa) = 0.02386536
#
# Stress axis : x y z
#
# Youngs Moduli (GPa) = 57.16724 67.24032 45.90711
#
# Poissons Ratio (x) = 0.60806 0.19940
# Poissons Ratio (y) = 0.51697 0.08054
# Poissons Ratio (z) = 0.24831 0.11797
#
# Static dielectric constant tensor:
#      x y z
#    x 1.661870 0.000000 0.000000 
#    y 0.000000 1.663900 0.000000 
#    z 0.000000 0.000000 1.663320 
# 
# From -- ./inp_files/41112.got.cif
#   From: 2010.05.17/outbox.cif.g08.bks.cpg/sg65_21_cif.got.tgz:41112.got - 2010.06.03 17:01:31.
