data_PCOD9484539
_publ_section_title
;
Structure prediction by ZEFSAII (Michael W. Deem and Ramdas Pophale) SiO2 
 PCOD9484539
Probable space group: C M M M
;
_chemical_formula_sum "Si O2"
_cell_formula_units_Z 88
_cell_length_a 8.665602
_cell_length_b 27.752839
_cell_length_c 19.278181
_cell_angle_alpha 90.000000
_cell_angle_beta 90.000000
_cell_angle_gamma 90.000000
_cell_volume 4636.307241
_symmetry_space_group_name_H-M "C M M M"
_symmetry_group_IT_number 65
_symmetry_cell_setting 'orthorhombic'
loop_
_space_group_symop_operation_xyz
x,y,z
-x,-y,z
x,-y,-z
-x,y,-z
-x,-y,-z
x,y,-z
-x,y,z
x,-y,z
1/2+x,1/2+y,z
1/2-x,1/2-y,z
1/2+x,1/2-y,-z
1/2-x,1/2+y,-z
1/2-x,1/2-y,-z
1/2+x,1/2+y,-z
1/2-x,1/2+y,z
1/2+x,1/2-y,z
loop_
_atom_site_type_symbol
_atom_site_label
_atom_site_fract_x
_atom_site_fract_y
_atom_site_fract_z
Si Si1 0.182634 0.385792 0.420048
Si Si2 0.318948 0.444253 0.305395
Si Si3 0.812208 0.000000 0.919662
Si Si4 0.683380 0.299790 0.330589
Si Si5 0.186738 0.902150 0.841317
Si Si6 0.184017 0.698710 0.174420
O O1 0.229548 0.390699 0.500000
O O2 0.223638 0.431837 0.373451
O O3 0.269798 0.342776 0.380979
O O4 0.000000 0.376672 0.417562
O O5 0.500000 0.434222 0.318840
O O6 0.305619 0.500000 0.285865
O O7 0.271149 0.413219 0.238807
O O8 0.763143 0.050228 0.883759
O O9 0.000000 0.000000 0.915173
O O10 0.767863 0.000000 0.000000
O O11 0.500000 0.297446 0.322045
O O12 0.750000 0.250000 0.359982
O O13 0.758140 0.304987 0.254348
O O14 0.255848 0.850371 0.861394
O O15 0.000000 0.899208 0.844967
O O16 0.250000 0.750000 0.147838
O O17 0.000000 0.700327 0.172987
#
# Coordination Sequence:
#
# PCOD9484539 Si02
#       6
#    16  16   8  16  16  16
#     4  11  24  39  53  73 104 143 188 239 290 343
#     4  10  20  35  56  80 106 142 188 236 283 340
#     4   9  18  34  61  97 132 163 194 228 276 338
#     4  11  21  35  55  78 106 140 181 232 288 344
#     4  10  18  33  58  88 120 155 194 236 280 333
#     4  11  21  34  55  85 117 151 193 241 293 343
#
# _framework density 18.980622
#
# number of rings (size 3 to 8) (size 9 to 14) (size 15 to 20)
#    0.000    1.545    2.727    4.909    0.000    2.545 
#    0.000    2.273    0.000    1.636    0.000    0.000 
#    0.000    0.000    0.000    0.000    0.000    0.000 
#
# Total GULP energy -245629.511123 kJ/mol
# GULP energy per Si atom -5582.488889 kJ/mol
# Density = 1.893742 g / cm^3
# Si number density = 18.980622 Si / 1000 Ang^3
#
#
#
# Elastic Constant Matrix: (Units=GPa)
#
#
# Indices 1 2 3 4 5 6 
#
# 1 74.5756 39.1535 19.5672 0.0000 0.0000 0.0000
# 2 39.1535 148.5960 40.5250 0.0000 0.0000 0.0000
# 3 19.5672 40.5250 51.9627 0.0000 0.0000 0.0000
# 4 0.0000 0.0000 0.0000 12.8572 0.0000 0.0000
# 5 0.0000 0.0000 0.0000 0.0000 9.8754 0.0000
# 6 0.0000 0.0000 0.0000 0.0000 0.0000 32.8303
#
#
#
# Elastic Compliance Matrix: (Units=1/GPa)
#
#
# Indices 1 2 3 4 5 6 
#
# 1 0.016044 -0.003277 -0.003486 0.000000 0.000000 0.000000
# 2 -0.003277 0.009217 -0.005954 0.000000 0.000000 0.000000
# 3 -0.003486 -0.005954 0.025201 0.000000 0.000000 0.000000
# 4 0.000000 0.000000 0.000000 0.077778 0.000000 0.000000
# 5 0.000000 0.000000 0.000000 0.000000 0.101261 0.000000
# 6 0.000000 0.000000 0.000000 0.000000 0.000000 0.030460
#
#
# Mechanical properties :
#
#
# Convention : Reuss Voigt Hill
#
# Bulk Modulus (GPa) = 39.95554 52.62508 46.29031
# Shear Modulus (GPa) = 17.02199 22.83849 19.93024
#
# Velocity S-wave (km/s) = 2.99793 3.47256 3.24393
# Velocity P-wave (km/s) = 5.75151 6.62300 6.20258
#
# Compressibility (1/GPa) = 0.02502782
#
# Stress axis : x y z
#
# Youngs Moduli (GPa) = 62.32753 108.49666 39.68104
#
# Poissons Ratio (x) = 0.35552 0.13834
# Poissons Ratio (y) = 0.20423 0.23627
# Poissons Ratio (z) = 0.21728 0.64601
#
# Static dielectric constant tensor:
#      x y z
#    x 1.643390 0.000000 0.000000 
#    y 0.000000 1.722580 0.000000 
#    z 0.000000 0.000000 1.631030 
# 
# From -- ./inp_files/50381.got.cif
#   From: 2010.05.17/outbox.cif.g08.bks.cpg/sg65_26_cif.got.tgz:50381.got - 2010.06.03 17:01:31.
