data_PCOD9484197
_publ_section_title
;
Structure prediction by ZEFSAII (Michael W. Deem and Ramdas Pophale) SiO2 
 PCOD9484197
Probable space group: C M M M
;
_chemical_formula_sum "Si O2"
_cell_formula_units_Z 88
_cell_length_a 18.918321
_cell_length_b 29.468830
_cell_length_c 7.476061
_cell_angle_alpha 90.000000
_cell_angle_beta 90.000000
_cell_angle_gamma 90.000000
_cell_volume 4167.909879
_symmetry_space_group_name_H-M "C M M M"
_symmetry_group_IT_number 65
_symmetry_cell_setting 'orthorhombic'
loop_
_space_group_symop_operation_xyz
x,y,z
-x,-y,z
x,-y,-z
-x,y,-z
-x,-y,-z
x,y,-z
-x,y,z
x,-y,z
1/2+x,1/2+y,z
1/2-x,1/2-y,z
1/2+x,1/2-y,-z
1/2-x,1/2+y,-z
1/2-x,1/2-y,-z
1/2+x,1/2+y,-z
1/2-x,1/2+y,z
1/2+x,1/2-y,z
loop_
_atom_site_type_symbol
_atom_site_label
_atom_site_fract_x
_atom_site_fract_y
_atom_site_fract_z
Si Si1 0.342735 0.706195 0.715634
Si Si2 0.144914 0.406109 0.791905
Si Si3 0.207164 0.947224 0.218960
Si Si4 0.921285 0.115144 0.789529
Si Si5 0.500000 0.947145 0.781935
Si Si6 0.680086 0.805842 0.283813
O O1 0.343121 0.706142 0.500000
O O2 0.395808 0.667189 0.774039
O O3 0.354491 0.758205 0.773942
O O4 0.262535 0.694256 0.772890
O O5 0.218589 0.425731 0.717718
O O6 0.145550 0.351888 0.780573
O O7 0.072430 0.425154 0.714124
O O8 0.145593 0.419864 0.000000
O O9 0.140930 0.917107 0.282912
O O10 0.201701 0.000000 0.268727
O O11 0.207056 0.945188 0.000000
O O12 0.000000 0.109083 0.713530
O O13 0.925592 0.104708 0.000000
O O14 0.500000 0.000000 0.741272
O O15 0.500000 0.942123 0.000000
O O16 0.679662 0.806327 0.500000
#
# Coordination Sequence:
#
# PCOD9484197 Si02
#       6
#    16  16  16  16   8  16
#     4   9  18  34  54  74  99 134 172 206 251 308
#     4  10  18  31  53  78 102 132 169 208 254 305
#     4   9  17  30  50  75 101 131 168 206 249 303
#     4  10  20  33  50  76 107 135 169 214 254 290
#     4   9  18  32  51  77 107 135 167 211 258 305
#     4   9  18  33  54  77 100 130 169 212 253 300
#
# _framework density 21.113700000000001
#
# number of rings (size 3 to 8) (size 9 to 14) (size 15 to 20)
#    0.000    2.636    1.818    1.636    0.000    3.636 
#    1.636    4.091    0.000    4.364    0.000    1.273 
#    0.000    0.000    0.000    0.000    0.000    0.000 
#
# Total GULP energy -245590.630549 kJ/mol
# GULP energy per Si atom -5581.605240 kJ/mol
# Density = 2.106564 g / cm^3
# Si number density = 21.113700 Si / 1000 Ang^3
#
#
#
# Elastic Constant Matrix: (Units=GPa)
#
#
# Indices 1 2 3 4 5 6 
#
# 1 198.0415 122.1375 11.7003 0.0000 0.0000 0.0000
# 2 122.1375 155.7315 -8.5022 0.0000 0.0000 0.0000
# 3 11.7003 -8.5022 58.0370 0.0000 0.0000 0.0000
# 4 0.0000 0.0000 0.0000 39.8225 0.0000 0.0000
# 5 0.0000 0.0000 0.0000 0.0000 -0.3557 0.0000
# 6 0.0000 0.0000 0.0000 0.0000 0.0000 21.3747
#
#
#
# Elastic Compliance Matrix: (Units=1/GPa)
#
#
# Indices 1 2 3 4 5 6 
#
# 1 0.010374 -0.008317 -0.003310 0.000000 0.000000 0.000000
# 2 -0.008317 0.013141 0.003602 0.000000 0.000000 0.000000
# 3 -0.003310 0.003602 0.018425 0.000000 0.000000 0.000000
# 4 0.000000 0.000000 0.000000 0.025111 0.000000 0.000000
# 5 0.000000 0.000000 0.000000 0.000000 -2.811654 0.000000
# 6 0.000000 0.000000 0.000000 0.000000 0.000000 0.046784
#
#
# Mechanical properties :
#
#
# Convention : Reuss Voigt Hill
#
# Bulk Modulus (GPa) = 38.62468 73.60904 56.11686
# Shear Modulus (GPa) = -1.87046 31.26661 14.69807
#
# Velocity S-wave (km/s) = -0.94224 3.85238 2.64131
# Velocity P-wave (km/s) = 4.14121 7.39774 5.99484
#
# Compressibility (1/GPa) = 0.02589018
#
# Stress axis : x y z
#
# Youngs Moduli (GPa) = 96.39096 76.09794 54.27317
#
# Poissons Ratio (x) = 0.63292 0.17964
# Poissons Ratio (y) = 0.80170 -0.19548
# Poissons Ratio (z) = 0.31905 -0.27409
#
# Static dielectric constant tensor:
#      x y z
#    x 1.748040 0.000000 0.000000 
#    y 0.000000 1.722880 0.000000 
#    z 0.000000 0.000000 1.809010 
# 
# From -- ./inp_files/10126.got.cif
#   From: 2010.05.17/outbox.cif.g08.bks.cpg/sg65_6_cif.got.tgz:10126.got - 2010.06.03 17:01:31.
