data_PCOD9484468
_publ_section_title
;
Structure prediction by ZEFSAII (Michael W. Deem and Ramdas Pophale) SiO2 
 PCOD9484468
Probable space group: C M M M
;
_chemical_formula_sum "Si O2"
_cell_formula_units_Z 88
_cell_length_a 7.733903
_cell_length_b 29.211172
_cell_length_c 20.055347
_cell_angle_alpha 90.000000
_cell_angle_beta 90.000000
_cell_angle_gamma 90.000000
_cell_volume 4530.831209
_symmetry_space_group_name_H-M "C M M M"
_symmetry_group_IT_number 65
_symmetry_cell_setting 'orthorhombic'
loop_
_space_group_symop_operation_xyz
x,y,z
-x,-y,z
x,-y,-z
-x,y,-z
-x,-y,-z
x,y,-z
-x,y,z
x,-y,z
1/2+x,1/2+y,z
1/2-x,1/2-y,z
1/2+x,1/2-y,-z
1/2-x,1/2+y,-z
1/2-x,1/2-y,-z
1/2+x,1/2+y,-z
1/2-x,1/2+y,z
1/2+x,1/2-y,z
loop_
_atom_site_type_symbol
_atom_site_label
_atom_site_fract_x
_atom_site_fract_y
_atom_site_fract_z
Si Si1 0.201189 0.101654 0.338394
Si Si2 0.500000 0.946183 0.420289
Si Si3 0.206660 0.698850 0.704169
Si Si4 0.292564 0.800571 0.857663
Si Si5 0.292777 0.448535 0.796272
Si Si6 0.207848 0.392277 0.926112
O O1 0.330884 0.078410 0.390132
O O2 0.217159 0.156535 0.336435
O O3 0.260648 0.083704 0.265084
O O4 0.000000 0.088844 0.348776
O O5 0.500000 0.942862 0.500000
O O6 0.500000 0.000000 0.401707
O O7 0.250000 0.750000 0.680243
O O8 0.271655 0.695849 0.781154
O O9 0.000000 0.693605 0.704600
O O10 0.500000 0.804087 0.854760
O O11 0.250000 0.750000 0.883249
O O12 0.226986 0.842596 0.901602
O O13 0.500000 0.450357 0.793129
O O14 0.224497 0.500000 0.787979
O O15 0.247151 0.427786 0.867682
O O16 0.000000 0.389441 0.929973
O O17 0.272954 0.403970 0.000000
#
# Coordination Sequence:
#
# PCOD9484468 Si02
#       6
#    16   8  16  16  16  16
#     4  11  22  40  67  99 131 167 211 263 313 369
#     4  11  26  46  70 102 137 175 213 249 305 379
#     4  10  18  32  57  93 128 162 208 262 316 371
#     4   9  18  31  49  74 109 147 192 247 301 363
#     4  10  22  38  57  82 111 147 198 255 309 364
#     4  10  21  36  52  74 108 150 197 249 307 368
#
# _framework density 19.422485000000002
#
# number of rings (size 3 to 8) (size 9 to 14) (size 15 to 20)
#    0.000    1.909    2.727    1.091    1.273    4.364 
#    0.000    2.727    0.000    0.545    0.000    0.000 
#    0.000    0.000    0.000    0.000    0.000    0.000 
#
# Total GULP energy -245678.240304 kJ/mol
# GULP energy per Si atom -5583.596371 kJ/mol
# Density = 1.937828 g / cm^3
# Si number density = 19.422485 Si / 1000 Ang^3
#
#
#
# Elastic Constant Matrix: (Units=GPa)
#
#
# Indices 1 2 3 4 5 6 
#
# 1 72.6446 23.7587 29.9440 0.0000 0.0000 0.0000
# 2 23.7587 136.8579 51.2502 0.0000 0.0000 0.0000
# 3 29.9440 51.2502 81.0241 0.0000 0.0000 0.0000
# 4 0.0000 0.0000 0.0000 22.4905 0.0000 0.0000
# 5 0.0000 0.0000 0.0000 0.0000 15.2604 0.0000
# 6 0.0000 0.0000 0.0000 0.0000 0.0000 23.5679
#
#
#
# Elastic Compliance Matrix: (Units=1/GPa)
#
#
# Indices 1 2 3 4 5 6 
#
# 1 0.016298 -0.000752 -0.005548 0.000000 0.000000 0.000000
# 2 -0.000752 0.009610 -0.005800 0.000000 0.000000 0.000000
# 3 -0.005548 -0.005800 0.018061 0.000000 0.000000 0.000000
# 4 0.000000 0.000000 0.000000 0.044463 0.000000 0.000000
# 5 0.000000 0.000000 0.000000 0.000000 0.065529 0.000000
# 6 0.000000 0.000000 0.000000 0.000000 0.000000 0.042431
#
#
# Mechanical properties :
#
#
# Convention : Reuss Voigt Hill
#
# Bulk Modulus (GPa) = 50.58449 55.60359 53.09404
# Shear Modulus (GPa) = 22.00881 24.63535 23.32208
#
# Velocity S-wave (km/s) = 3.36990 3.56531 3.46898
# Velocity P-wave (km/s) = 6.42203 6.75568 6.59097
#
# Compressibility (1/GPa) = 0.01976890
#
# Stress axis : x y z
#
# Youngs Moduli (GPa) = 61.35593 104.06363 55.36717
#
# Poissons Ratio (x) = 0.07824 0.30716
# Poissons Ratio (y) = 0.04613 0.32115
# Poissons Ratio (z) = 0.34039 0.60361
#
# Static dielectric constant tensor:
#      x y z
#    x 1.689950 0.000000 0.000000 
#    y 0.000000 1.687290 0.000000 
#    z 0.000000 0.000000 1.663630 
# 
# From -- ./inp_files/50423.got.cif
#   From: 2010.05.17/outbox.cif.g08.bks.cpg/sg65_26_cif.got.tgz:50423.got - 2010.06.03 17:01:31.
