data_PCOD9484658
_publ_section_title
;
Structure prediction by ZEFSAII (Michael W. Deem and Ramdas Pophale) SiO2 
 PCOD9484658
Probable space group: C M M M
;
_chemical_formula_sum "Si O2"
_cell_formula_units_Z 116
_cell_length_a 29.919338
_cell_length_b 7.574985
_cell_length_c 28.609201
_cell_angle_alpha 90.000000
_cell_angle_beta 90.000000
_cell_angle_gamma 90.000000
_cell_volume 6483.947447
_symmetry_space_group_name_H-M "C M M M"
_symmetry_group_IT_number 65
_symmetry_cell_setting 'orthorhombic'
loop_
_space_group_symop_operation_xyz
x,y,z
-x,-y,z
x,-y,-z
-x,y,-z
-x,-y,-z
x,y,-z
-x,y,z
x,-y,z
1/2+x,1/2+y,z
1/2-x,1/2-y,z
1/2+x,1/2-y,-z
1/2-x,1/2+y,-z
1/2-x,1/2-y,-z
1/2+x,1/2+y,-z
1/2-x,1/2+y,z
1/2+x,1/2-y,z
loop_
_atom_site_type_symbol
_atom_site_label
_atom_site_fract_x
_atom_site_fract_y
_atom_site_fract_z
Si Si1 0.301249 0.289558 0.681144
Si Si2 0.857215 0.217686 0.768720
Si Si3 0.802383 0.787369 0.426831
Si Si4 0.549602 0.713488 0.083657
Si Si5 0.146230 0.705246 0.949410
Si Si6 0.450745 0.714889 0.192858
Si Si7 0.198550 0.202090 0.856567
Si Si8 0.666735 0.000000 0.500000
O O1 0.305672 0.500000 0.680534
O O2 0.250000 0.250000 0.694262
O O3 0.334828 0.221891 0.720579
O O4 0.308656 0.234586 0.627580
O O5 0.908152 0.273807 0.777841
O O6 0.827653 0.284460 0.812682
O O7 0.857878 0.000000 0.768194
O O8 0.750000 0.750000 0.438129
O O9 0.829995 0.657307 0.459569
O O10 0.810054 0.000000 0.432547
O O11 0.500000 0.769926 0.067739
O O12 0.550570 0.500000 0.081496
O O13 0.592868 0.779054 0.056756
O O14 0.554550 0.764595 0.138255
O O15 0.158270 0.500000 0.949698
O O16 0.170531 0.780936 0.904122
O O17 0.158812 0.782546 0.000000
O O18 0.500000 0.773310 0.208540
O O19 0.450836 0.500000 0.193170
O O20 0.250000 0.250000 0.863382
O O21 0.199812 0.000000 0.843504
#
# Coordination Sequence:
#
# PCOD9484658 Si02
#       8
#    16  16  16  16  16  16  16   4
#     4   9  18  30  43  63  95 129 164 207 244 287
#     4   9  16  29  50  73  98 129 158 195 248 293
#     4  10  19  28  41  63  90 127 173 217 256 293
#     4   9  17  32  55  79 101 125 156 195 238 293
#     4  11  24  39  53  71  99 129 160 200 250 300
#     4   8  13  24  47  77 101 121 152 192 234 291
#     4  11  22  37  57  77  96 122 163 207 246 301
#     4  12  20  28  46  62  92 130 175 226 245 300
#
# _framework density 17.890336999999999
#
# number of rings (size 3 to 8) (size 9 to 14) (size 15 to 20)
#    0.000    2.345    2.069    2.483    0.966    1.931 
#    0.000    2.069    0.000    0.000    0.000    0.000 
#    0.000    0.000    0.000    1.241    0.000   17.724 
#
# Total GULP energy -322887.348651 kJ/mol
# GULP energy per Si atom -5567.023253 kJ/mol
# Density = 1.784962 g / cm^3
# Si number density = 17.890337 Si / 1000 Ang^3
#
#
#
# Elastic Constant Matrix: (Units=GPa)
#
#
# Indices 1 2 3 4 5 6 
#
# 1 93.5490 3.9330 50.1262 0.0000 0.0000 0.0000
# 2 3.9330 53.5375 4.8420 0.0000 0.0000 0.0000
# 3 50.1262 4.8420 89.6041 0.0000 0.0000 0.0000
# 4 0.0000 0.0000 0.0000 22.4973 0.0000 0.0000
# 5 0.0000 0.0000 0.0000 0.0000 -24.1921 0.0000
# 6 0.0000 0.0000 0.0000 0.0000 0.0000 12.4768
#
#
#
# Elastic Compliance Matrix: (Units=1/GPa)
#
#
# Indices 1 2 3 4 5 6 
#
# 1 0.015272 -0.000351 -0.008524 0.000000 0.000000 0.000000
# 2 -0.000351 0.018778 -0.000818 0.000000 0.000000 0.000000
# 3 -0.008524 -0.000818 0.015973 0.000000 0.000000 0.000000
# 4 0.000000 0.000000 0.000000 0.044450 0.000000 0.000000
# 5 0.000000 0.000000 0.000000 0.000000 -0.041336 0.000000
# 6 0.000000 0.000000 0.000000 0.000000 0.000000 0.080149
#
#
# Mechanical properties :
#
#
# Convention : Reuss Voigt Hill
#
# Bulk Modulus (GPa) = 32.64153 39.38810 36.01482
# Shear Modulus (GPa) = 30.69634 14.00903 22.35268
#
# Velocity S-wave (km/s) = 4.14672 2.80134 3.53856
# Velocity P-wave (km/s) = 6.41966 5.70329 6.07205
#
# Compressibility (1/GPa) = 0.03063581
#
# Stress axis : x y z
#
# Youngs Moduli (GPa) = 65.47927 53.25295 62.60489
#
# Poissons Ratio (x) = 0.01869 0.53367
# Poissons Ratio (y) = 0.02298 0.05124
# Poissons Ratio (z) = 0.55818 0.04358
#
# Static dielectric constant tensor:
#      x y z
#    x 1.625910 0.000000 0.000000 
#    y 0.000000 1.646650 0.000000 
#    z 0.000000 0.000000 1.630750 
# 
# From -- ./inp_files/76286.got.cif
#   From: 2010.05.17/outbox.cif.g08.bks.cpg/sg65_39_cif.got.tgz:76286.got - 2010.06.03 17:01:31.
