data_PCOD9484684
_publ_section_title
;
Structure prediction by ZEFSAII (Michael W. Deem and Ramdas Pophale) SiO2 
 PCOD9484684
Probable space group: C M M M
;
_chemical_formula_sum "Si O2"
_cell_formula_units_Z 72
_cell_length_a 17.666448
_cell_length_b 25.051435
_cell_length_c 7.310768
_cell_angle_alpha 90.000000
_cell_angle_beta 90.000000
_cell_angle_gamma 90.000000
_cell_volume 3235.525671
_symmetry_space_group_name_H-M "C M M M"
_symmetry_group_IT_number 65
_symmetry_cell_setting 'orthorhombic'
loop_
_space_group_symop_operation_xyz
x,y,z
-x,-y,z
x,-y,-z
-x,y,-z
-x,-y,-z
x,y,-z
-x,y,z
x,-y,z
1/2+x,1/2+y,z
1/2-x,1/2-y,z
1/2+x,1/2-y,-z
1/2-x,1/2+y,-z
1/2-x,1/2-y,-z
1/2+x,1/2+y,-z
1/2-x,1/2+y,z
1/2+x,1/2-y,z
loop_
_atom_site_type_symbol
_atom_site_label
_atom_site_fract_x
_atom_site_fract_y
_atom_site_fract_z
Si Si1 0.871497 0.142354 0.722750
Si Si2 0.702078 0.846653 0.289835
Si Si3 0.085219 0.561371 0.220815
Si Si4 0.416535 0.238371 0.277092
Si Si5 0.500000 0.561285 0.276562
O O1 0.872061 0.140033 0.500000
O O2 0.784673 0.140703 0.786980
O O3 0.904485 0.200148 0.773557
O O4 0.926166 0.094686 0.782373
O O5 0.716643 0.830715 0.500000
O O6 0.648516 0.898226 0.286658
O O7 0.651596 0.798823 0.209989
O O8 0.098463 0.500000 0.276298
O O9 0.000000 0.576614 0.279623
O O10 0.086106 0.562646 0.000000
O O11 0.415929 0.236022 0.500000
O O12 0.500000 0.219841 0.218380
O O13 0.500000 0.500000 0.217204
O O14 0.500000 0.560943 0.500000
#
# Coordination Sequence:
#
# PCOD9484684 Si02
#       5
#    16  16  16  16   8
#     4   9  16  27  41  62  97 133 160 196 244 290
#     4  10  19  28  46  77 102 120 154 206 254 287
#     4   9  19  36  53  67  91 130 166 191 228 292
#     4   9  15  25  42  64  95 132 164 191 235 298
#     4   9  16  26  40  58  87 133 176 201 232 284
#
# _framework density 22.252952000000001
#
# number of rings (size 3 to 8) (size 9 to 14) (size 15 to 20)
#    0.000    2.778    1.111    2.000    0.000    5.333 
#    0.000    3.333    0.000    2.667    0.000    0.778 
#    0.000    2.667    0.000    0.000    0.000    0.000 
#
# Total GULP energy -201116.429929 kJ/mol
# GULP energy per Si atom -5586.567498 kJ/mol
# Density = 2.220230 g / cm^3
# Si number density = 22.252952 Si / 1000 Ang^3
#
#
#
# Elastic Constant Matrix: (Units=GPa)
#
#
# Indices 1 2 3 4 5 6 
#
# 1 217.8119 116.7333 4.8743 0.0000 0.0000 0.0000
# 2 116.7333 160.1623 -0.4402 0.0000 0.0000 0.0000
# 3 4.8743 -0.4402 89.6801 0.0000 0.0000 0.0000
# 4 0.0000 0.0000 0.0000 66.4934 0.0000 0.0000
# 5 0.0000 0.0000 0.0000 0.0000 -240.5619 0.0000
# 6 0.0000 0.0000 0.0000 0.0000 0.0000 -6.8842
#
#
#
# Elastic Compliance Matrix: (Units=1/GPa)
#
#
# Indices 1 2 3 4 5 6 
#
# 1 0.007551 -0.005505 -0.000437 0.000000 0.000000 0.000000
# 2 -0.005505 0.010257 0.000350 0.000000 0.000000 0.000000
# 3 -0.000437 0.000350 0.011176 0.000000 0.000000 0.000000
# 4 0.000000 0.000000 0.000000 0.015039 0.000000 0.000000
# 5 0.000000 0.000000 0.000000 0.000000 -0.004157 0.000000
# 6 0.000000 0.000000 0.000000 0.000000 0.000000 -0.145259
#
#
# Mechanical properties :
#
#
# Convention : Reuss Voigt Hill
#
# Bulk Modulus (GPa) = 56.18372 78.88766 67.53569
# Shear Modulus (GPa) = -56.64124 -13.09142 -34.86633
#
# Velocity S-wave (km/s) = -5.05061 -2.42812 -3.96260
# Velocity P-wave (km/s) = 2.95109 5.25988 3.07875
#
# Compressibility (1/GPa) = 0.01779875
#
# Stress axis : x y z
#
# Youngs Moduli (GPa) = 132.43054 97.49666 89.47551
#
# Poissons Ratio (x) = 0.53670 0.03914
# Poissons Ratio (y) = 0.72900 -0.03128
# Poissons Ratio (z) = 0.05793 -0.03408
#
# Static dielectric constant tensor:
#      x y z
#    x 1.797760 0.000000 0.000000 
#    y 0.000000 1.759740 0.000000 
#    z 0.000000 0.000000 1.856680 
# 
# From -- ./inp_files/7204.got.cif
#   From: 2010.05.17/outbox.cif.g08.bks.cpg/sg65_4_cif.got.tgz:7204.got - 2010.06.03 17:01:31.
