data_PCOD9484715
_publ_section_title
;
Structure prediction by ZEFSAII (Michael W. Deem and Ramdas Pophale) SiO2 
 PCOD9484715
Probable space group: C M M M
;
_chemical_formula_sum "Si O2"
_cell_formula_units_Z 112
_cell_length_a 19.596691
_cell_length_b 19.252903
_cell_length_c 19.097834
_cell_angle_alpha 90.000000
_cell_angle_beta 90.000000
_cell_angle_gamma 90.000000
_cell_volume 7205.482730
_symmetry_space_group_name_H-M "C M M M"
_symmetry_group_IT_number 65
_symmetry_cell_setting 'orthorhombic'
loop_
_space_group_symop_operation_xyz
x,y,z
-x,-y,z
x,-y,-z
-x,y,-z
-x,-y,-z
x,y,-z
-x,y,z
x,-y,z
1/2+x,1/2+y,z
1/2-x,1/2-y,z
1/2+x,1/2-y,-z
1/2-x,1/2+y,-z
1/2-x,1/2-y,-z
1/2+x,1/2+y,-z
1/2-x,1/2+y,z
1/2+x,1/2-y,z
loop_
_atom_site_type_symbol
_atom_site_label
_atom_site_fract_x
_atom_site_fract_y
_atom_site_fract_z
Si Si1 0.683062 0.698230 0.270902
Si Si2 0.422874 0.209717 0.190375
Si Si3 0.248524 0.920338 0.189820
Si Si4 0.886875 0.421792 0.276252
Si Si5 0.918674 0.352836 0.421153
Si Si6 0.195488 0.312509 0.082722
Si Si7 0.174596 0.216588 0.575576
O O1 0.750000 0.750000 0.266070
O O2 0.618725 0.741645 0.243895
O O3 0.693623 0.631800 0.222305
O O4 0.673306 0.676329 0.351490
O O5 0.500000 0.232421 0.176792
O O6 0.423883 0.134798 0.228224
O O7 0.375048 0.205565 0.121953
O O8 0.309648 0.919967 0.247084
O O9 0.276601 0.881728 0.120693
O O10 0.228367 0.000000 0.177723
O O11 0.912805 0.500000 0.267896
O O12 0.892431 0.399035 0.356952
O O13 0.906708 0.381325 0.500000
O O14 0.879208 0.279637 0.418038
O O15 0.000000 0.343421 0.412772
O O16 0.250000 0.250000 0.094671
O O17 0.187062 0.321297 0.000000
O O18 0.163254 0.181345 0.500000
O O19 0.250000 0.250000 0.573223
#
# Coordination Sequence:
#
# PCOD9484715 Si02
#       7
#    16  16  16  16  16  16  16
#     4  11  16  32  53  71  97 129 170 213 250 298
#     4  11  20  31  50  76 101 132 167 206 250 294
#     4  10  19  33  54  77  98 126 167 213 253 293
#     4  10  19  31  46  67  96 133 171 204 244 294
#     4  10  19  29  41  62  94 131 169 206 247 298
#     4  10  19  35  56  77 102 131 164 199 240 297
#     4   9  17  27  44  66  90 123 164 210 255 292
#
# _framework density 15.543718999999999
#
# number of rings (size 3 to 8) (size 9 to 14) (size 15 to 20)
#    0.000    1.857    5.714    1.286    0.000    2.000 
#    0.000    0.714    0.000    1.714    0.000    4.000 
#    0.000    2.286    0.000    4.857    0.000    0.000 
#
# Total GULP energy -311924.026694 kJ/mol
# GULP energy per Si atom -5570.071905 kJ/mol
# Density = 1.550834 g / cm^3
# Si number density = 15.543719 Si / 1000 Ang^3
#
#
#
# Elastic Constant Matrix: (Units=GPa)
#
#
# Indices 1 2 3 4 5 6 
#
# 1 66.0350 26.7803 34.5863 0.0000 0.0000 0.0000
# 2 26.7803 53.3368 22.3687 0.0000 0.0000 0.0000
# 3 34.5863 22.3687 129.9811 0.0000 0.0000 0.0000
# 4 0.0000 0.0000 0.0000 12.1134 0.0000 0.0000
# 5 0.0000 0.0000 0.0000 0.0000 19.8674 0.0000
# 6 0.0000 0.0000 0.0000 0.0000 0.0000 8.5310
#
#
#
# Elastic Compliance Matrix: (Units=1/GPa)
#
#
# Indices 1 2 3 4 5 6 
#
# 1 0.020805 -0.008756 -0.004029 0.000000 0.000000 0.000000
# 2 -0.008756 0.023893 -0.001782 0.000000 0.000000 0.000000
# 3 -0.004029 -0.001782 0.009072 0.000000 0.000000 0.000000
# 4 0.000000 0.000000 0.000000 0.082553 0.000000 0.000000
# 5 0.000000 0.000000 0.000000 0.000000 0.050334 0.000000
# 6 0.000000 0.000000 0.000000 0.000000 0.000000 0.117220
#
#
# Mechanical properties :
#
#
# Convention : Reuss Voigt Hill
#
# Bulk Modulus (GPa) = 40.59221 46.31373 43.45297
# Shear Modulus (GPa) = 14.65320 19.14351 16.89836
#
# Velocity S-wave (km/s) = 3.07369 3.51321 3.30077
# Velocity P-wave (km/s) = 6.22642 6.80568 6.52249
#
# Compressibility (1/GPa) = 0.02463527
#
# Stress axis : x y z
#
# Youngs Moduli (GPa) = 48.06581 41.85403 110.22780
#
# Poissons Ratio (x) = 0.36649 0.44411
# Poissons Ratio (y) = 0.42088 0.19640
# Poissons Ratio (z) = 0.19366 0.07457
#
# Static dielectric constant tensor:
#      x y z
#    x 1.588340 0.000000 0.000000 
#    y 0.000000 1.508840 0.000000 
#    z 0.000000 0.000000 1.545970 
# 
# From -- ./inp_files/56068.got.cif
#   From: 2010.05.17/outbox.cif.g08.bks.cpg/sg65_29_cif.got.tgz:56068.got - 2010.06.03 17:01:31.
