data_PCOD9484282
_publ_section_title
;
Structure prediction by ZEFSAII (Michael W. Deem and Ramdas Pophale) SiO2 
 PCOD9484282
Probable space group: C M M M
;
_chemical_formula_sum "Si O2"
_cell_formula_units_Z 82
_cell_length_a 14.943172
_cell_length_b 21.539429
_cell_length_c 11.854345
_cell_angle_alpha 90.000000
_cell_angle_beta 90.000000
_cell_angle_gamma 90.000000
_cell_volume 3815.527113
_symmetry_space_group_name_H-M "C M M M"
_symmetry_group_IT_number 65
_symmetry_cell_setting 'orthorhombic'
loop_
_space_group_symop_operation_xyz
x,y,z
-x,-y,z
x,-y,-z
-x,y,-z
-x,-y,-z
x,y,-z
-x,y,z
x,-y,z
1/2+x,1/2+y,z
1/2-x,1/2-y,z
1/2+x,1/2-y,-z
1/2-x,1/2+y,-z
1/2-x,1/2-y,-z
1/2+x,1/2+y,-z
1/2-x,1/2+y,z
1/2+x,1/2-y,z
loop_
_atom_site_type_symbol
_atom_site_label
_atom_site_fract_x
_atom_site_fract_y
_atom_site_fract_z
Si Si1 0.147381 0.867777 0.771552
Si Si2 0.867317 0.500000 0.788462
Si Si3 0.156019 0.000000 0.137933
Si Si4 0.896721 0.344495 0.000000
Si Si5 0.104555 0.195862 0.000000
Si Si6 0.000000 0.500000 0.000000
Si Si7 0.359619 0.746537 0.368755
Si Si8 0.650203 0.129074 0.747792
O O1 0.115880 0.936758 0.807071
O O2 0.104473 0.816510 0.688831
O O3 0.245439 0.875343 0.718765
O O4 0.150975 0.830894 0.889669
O O5 0.761863 0.500000 0.827293
O O6 0.888992 0.437643 0.720276
O O7 0.923289 0.500000 0.901677
O O8 0.147542 0.000000 0.000000
O O9 0.854777 0.366158 0.883697
O O10 0.893680 0.270017 0.000000
O O11 0.000000 0.367381 0.000000
O O12 0.000000 0.176567 0.000000
O O13 0.381648 0.748581 0.500000
O O14 0.250000 0.750000 0.358314
O O15 0.390408 0.808825 0.304490
#
# Coordination Sequence:
#
# PCOD9484282 Si02
#       8
#    16   8   8   8   8   2  16  16
#     4  10  19  34  53  76 104 140 168 210 260 316
#     4  10  22  30  43  78 109 146 172 208 258 306
#     4  10  18  32  51  75 113 136 172 201 251 328
#     4  11  22  30  46  77 112 135 168 216 259 309
#     4  11  21  32  48  78 111 131 165 212 263 317
#     4  12  20  32  48  72 114 160 170 214 252 310
#     4   9  18  34  56  78  97 128 181 230 260 299
#     4  10  20  33  52  74 105 140 176 207 263 313
#
# _framework density 21.491133000000001
#
# number of rings (size 3 to 8) (size 9 to 14) (size 15 to 20)
#    0.000    1.951    3.415    1.171    5.463    0.780 
#    0.000    1.951    0.000    8.195    0.000    0.683 
#    0.000    1.561    0.000    0.000    0.000    0.000 
#
# Total GULP energy -228472.950002 kJ/mol
# GULP energy per Si atom -5572.510976 kJ/mol
# Density = 2.144222 g / cm^3
# Si number density = 21.491133 Si / 1000 Ang^3
#
#
#
# Elastic Constant Matrix: (Units=GPa)
#
#
# Indices 1 2 3 4 5 6 
#
# 1 61.6315 13.8045 -10.7798 0.0000 0.0000 0.0000
# 2 13.8045 209.1596 72.2187 0.0000 0.0000 0.0000
# 3 -10.7798 72.2187 92.2820 0.0000 0.0000 0.0000
# 4 0.0000 0.0000 0.0000 -0.0953 0.0000 0.0000
# 5 0.0000 0.0000 0.0000 0.0000 5.9499 0.0000
# 6 0.0000 0.0000 0.0000 0.0000 0.0000 0.9166
#
#
#
# Elastic Compliance Matrix: (Units=1/GPa)
#
#
# Indices 1 2 3 4 5 6 
#
# 1 0.017503 -0.002550 0.004040 0.000000 0.000000 0.000000
# 2 -0.002550 0.006923 -0.005716 0.000000 0.000000 0.000000
# 3 0.004040 -0.005716 0.015781 0.000000 0.000000 0.000000
# 4 0.000000 0.000000 0.000000-10.491355 0.000000 0.000000
# 5 0.000000 0.000000 0.000000 0.000000 0.168071 0.000000
# 6 0.000000 0.000000 0.000000 0.000000 0.000000 1.090979
#
#
# Mechanical properties :
#
#
# Convention : Reuss Voigt Hill
#
# Bulk Modulus (GPa) = 31.48950 57.06220 44.27585
# Shear Modulus (GPa) = -0.54507 20.54289 9.99891
#
# Velocity S-wave (km/s) = -0.50416 3.09508 2.15932
# Velocity P-wave (km/s) = 3.78751 6.27550 5.18300
#
# Compressibility (1/GPa) = 0.03175662
#
# Stress axis : x y z
#
# Youngs Moduli (GPa) = 57.13174 144.44900 63.36605
#
# Poissons Ratio (x) = 0.36839 -0.25603
# Poissons Ratio (y) = 0.14570 0.36218
# Poissons Ratio (z) = -0.23084 0.82562
#
# Static dielectric constant tensor:
#      x y z
#    x 1.808790 0.000000 0.000000 
#    y 0.000000 1.911720 0.000000 
#    z 0.000000 0.000000 1.704310 
# 
# From -- ./inp_files/29006.got.cif
#   From: 2010.05.17/outbox.cif.g08.bks.cpg/sg65_15_cif.got.tgz:29006.got - 2010.06.03 17:01:31.
