data_PCOD9484102
_publ_section_title
;
Structure prediction by ZEFSAII (Michael W. Deem and Ramdas Pophale) SiO2 
 PCOD9484102
Probable space group: C M M M
;
_chemical_formula_sum "Si O2"
_cell_formula_units_Z 80
_cell_length_a 25.437329
_cell_length_b 19.383714
_cell_length_c 7.284013
_cell_angle_alpha 90.000000
_cell_angle_beta 90.000000
_cell_angle_gamma 90.000000
_cell_volume 3591.527636
_symmetry_space_group_name_H-M "C M M M"
_symmetry_group_IT_number 65
_symmetry_cell_setting 'orthorhombic'
loop_
_space_group_symop_operation_xyz
x,y,z
-x,-y,z
x,-y,-z
-x,y,-z
-x,-y,-z
x,y,-z
-x,y,z
x,-y,z
1/2+x,1/2+y,z
1/2-x,1/2-y,z
1/2+x,1/2-y,-z
1/2-x,1/2+y,-z
1/2-x,1/2-y,-z
1/2+x,1/2+y,-z
1/2-x,1/2+y,z
1/2+x,1/2-y,z
loop_
_atom_site_type_symbol
_atom_site_label
_atom_site_fract_x
_atom_site_fract_y
_atom_site_fract_z
Si Si1 0.500000 0.919858 0.724254
Si Si2 0.717614 0.181211 0.722608
Si Si3 0.598935 0.329628 0.289813
Si Si4 0.305981 0.421368 0.724060
Si Si5 0.500000 0.578394 0.220328
Si Si6 0.404069 0.822686 0.276618
O O1 0.500000 0.919508 0.500000
O O2 0.552511 0.878210 0.783686
O O3 0.500000 0.000000 0.780665
O O4 0.716524 0.185305 0.500000
O O5 0.750000 0.250000 0.781907
O O6 0.751349 0.114355 0.773935
O O7 0.657148 0.172709 0.780832
O O8 0.614770 0.315047 0.500000
O O9 0.648413 0.369958 0.208825
O O10 0.550978 0.381621 0.285403
O O11 0.581500 0.255348 0.217772
O O12 0.308709 0.423007 0.500000
O O13 0.312325 0.500000 0.785687
O O14 0.500000 0.500000 0.283533
O O15 0.500000 0.578934 0.000000
O O16 0.405072 0.827472 0.500000
#
# Coordination Sequence:
#
# PCOD9484102 Si02
#       6
#     8  16  16  16   8  16
#     4   9  17  26  34  52  86 125 162 194 230 287
#     4   9  14  23  37  57  88 120 148 184 233 283
#     4  10  18  31  51  71  92 121 162 204 238 280
#     4   9  16  24  38  64  93 119 153 197 238 279
#     4  11  24  37  47  65  96 129 158 192 240 295
#     4   9  16  26  43  64  89 123 160 197 238 281
#
# _framework density 22.274646000000001
#
# number of rings (size 3 to 8) (size 9 to 14) (size 15 to 20)
#    0.000    2.600    2.000    1.500    0.000    4.000 
#    0.000    4.000    0.000    0.000    0.000    2.800 
#    0.000    6.400    0.000    0.000    0.000    0.400 
#
# Total GULP energy -223304.654529 kJ/mol
# GULP energy per Si atom -5582.616363 kJ/mol
# Density = 2.222395 g / cm^3
# Si number density = 22.274646 Si / 1000 Ang^3
#
#
#
# Elastic Constant Matrix: (Units=GPa)
#
#
# Indices 1 2 3 4 5 6 
#
# 1 183.7629 113.7795 -4.3503 0.0000 0.0000 0.0000
# 2 113.7795 220.7738 5.3475 0.0000 0.0000 0.0000
# 3 -4.3503 5.3475 93.6990 0.0000 0.0000 0.0000
# 4 0.0000 0.0000 0.0000 27.5454 0.0000 0.0000
# 5 0.0000 0.0000 0.0000 0.0000 124.3669 0.0000
# 6 0.0000 0.0000 0.0000 0.0000 0.0000 -49.1662
#
#
#
# Elastic Compliance Matrix: (Units=1/GPa)
#
#
# Indices 1 2 3 4 5 6 
#
# 1 0.008027 -0.004151 0.000610 0.000000 0.000000 0.000000
# 2 -0.004151 0.006683 -0.000574 0.000000 0.000000 0.000000
# 3 0.000610 -0.000574 0.010734 0.000000 0.000000 0.000000
# 4 0.000000 0.000000 0.000000 0.036304 0.000000 0.000000
# 5 0.000000 0.000000 0.000000 0.000000 0.008041 0.000000
# 6 0.000000 0.000000 0.000000 0.000000 0.000000 -0.020339
#
#
# Mechanical properties :
#
#
# Convention : Reuss Voigt Hill
#
# Bulk Modulus (GPa) = 58.10186 80.86547 69.48367
# Shear Modulus (GPa) = 78.84278 46.11317 62.47797
#
# Velocity S-wave (km/s) = 5.95589 4.55489 5.30187
# Velocity P-wave (km/s) = 8.56958 8.00283 8.29105
#
# Compressibility (1/GPa) = 0.01721115
#
# Stress axis : x y z
#
# Youngs Moduli (GPa) = 124.58501 149.63471 93.16589
#
# Poissons Ratio (x) = 0.62120 -0.05679
# Poissons Ratio (y) = 0.51721 0.05349
# Poissons Ratio (z) = -0.07595 0.08591
#
# Static dielectric constant tensor:
#      x y z
#    x 1.786040 0.000000 0.000000 
#    y 0.000000 1.782680 0.000000 
#    z 0.000000 0.000000 1.880700 
# 
# From -- ./inp_files/16087.got.cif
#   From: 2010.05.17/outbox.cif.g08.bks.cpg/sg65_9_cif.got.tgz:16087.got - 2010.06.03 17:01:31.
