data_PCOD9484900
_publ_section_title
;
Structure prediction by ZEFSAII (Michael W. Deem and Ramdas Pophale) SiO2 
 PCOD9484900
Probable space group: C M M M
;
_chemical_formula_sum "Si O2"
_cell_formula_units_Z 72
_cell_length_a 18.913017
_cell_length_b 31.391430
_cell_length_c 7.995007
_cell_angle_alpha 90.000000
_cell_angle_beta 90.000000
_cell_angle_gamma 90.000000
_cell_volume 4746.688817
_symmetry_space_group_name_H-M "C M M M"
_symmetry_group_IT_number 65
_symmetry_cell_setting 'orthorhombic'
loop_
_space_group_symop_operation_xyz
x,y,z
-x,-y,z
x,-y,-z
-x,y,-z
-x,-y,-z
x,y,-z
-x,y,z
x,-y,z
1/2+x,1/2+y,z
1/2-x,1/2-y,z
1/2+x,1/2-y,-z
1/2-x,1/2+y,-z
1/2-x,1/2-y,-z
1/2+x,1/2+y,-z
1/2-x,1/2+y,z
1/2+x,1/2-y,z
loop_
_atom_site_type_symbol
_atom_site_label
_atom_site_fract_x
_atom_site_fract_y
_atom_site_fract_z
Si Si1 0.500000 0.448364 0.689784
Si Si2 0.844475 0.950963 0.802971
Si Si3 0.275090 0.819734 0.000000
Si Si4 0.781262 0.132806 0.688078
Si Si5 0.579332 0.689709 0.691656
Si Si6 0.865986 0.760642 0.000000
O O1 0.500000 0.500000 0.684013
O O2 0.500000 0.431835 0.500000
O O3 0.426329 0.437488 0.776398
O O4 0.795276 0.917188 0.711384
O O5 0.837259 0.000000 0.745277
O O6 0.829537 0.949373 0.000000
O O7 0.267473 0.848150 0.166290
O O8 0.205839 0.789068 0.000000
O O9 0.341570 0.788167 0.000000
O O10 0.756682 0.142438 0.500000
O O11 0.858366 0.155197 0.709506
O O12 0.584132 0.705963 0.500000
O O13 0.500000 0.671905 0.714005
O O14 0.593011 0.725020 0.833157
#
# Coordination Sequence:
#
# PCOD9484900 Si02
#       6
#     8  16   8  16  16   8
#     4   9  17  27  37  51  71  99 137 174 211 255
#     4  10  19  30  41  55  78 108 143 180 217 253
#     4   9  18  32  43  62  80 101 140 178 210 253
#     4  10  19  30  44  61  83 111 141 179 217 248
#     4   9  18  30  44  65  87 107 135 170 212 258
#     4   9  17  30  48  60  80 107 134 169 214 255
#
# _framework density 15.168469
#
# number of rings (size 3 to 8) (size 9 to 14) (size 15 to 20)
#    0.000    2.556    1.111    1.333    1.556    3.556 
#    0.000    4.444    0.000    0.000    0.000    0.000 
#    0.000    0.000    0.000    0.000    0.000    8.889 
#
# Total GULP energy -200577.031799 kJ/mol
# GULP energy per Si atom -5571.584217 kJ/mol
# Density = 1.513395 g / cm^3
# Si number density = 15.168469 Si / 1000 Ang^3
#
#
#
# Elastic Constant Matrix: (Units=GPa)
#
#
# Indices 1 2 3 4 5 6 
#
# 1 11.8422 13.4337 16.4296 0.0000 0.0000 0.0000
# 2 13.4337 70.9988 44.5348 0.0000 0.0000 0.0000
# 3 16.4296 44.5348 98.7014 0.0000 0.0000 0.0000
# 4 0.0000 0.0000 0.0000 13.7324 0.0000 0.0000
# 5 0.0000 0.0000 0.0000 0.0000 7.3637 0.0000
# 6 0.0000 0.0000 0.0000 0.0000 0.0000 15.6477
#
#
#
# Elastic Compliance Matrix: (Units=1/GPa)
#
#
# Indices 1 2 3 4 5 6 
#
# 1 0.119114 -0.014088 -0.013471 0.000000 0.000000 0.000000
# 2 -0.014088 0.021311 -0.007271 0.000000 0.000000 0.000000
# 3 -0.013471 -0.007271 0.015654 0.000000 0.000000 0.000000
# 4 0.000000 0.000000 0.000000 0.072821 0.000000 0.000000
# 5 0.000000 0.000000 0.000000 0.000000 0.135801 0.000000
# 6 0.000000 0.000000 0.000000 0.000000 0.000000 0.063907
#
#
# Mechanical properties :
#
#
# Convention : Reuss Voigt Hill
#
# Bulk Modulus (GPa) = 11.57133 36.70428 24.13780
# Shear Modulus (GPa) = 9.48636 14.49172 11.98904
#
# Velocity S-wave (km/s) = 2.50351 3.09428 2.81444
# Velocity P-wave (km/s) = 4.00023 6.08411 5.14870
#
# Compressibility (1/GPa) = 0.08642052
#
# Stress axis : x y z
#
# Youngs Moduli (GPa) = 8.39535 46.92447 63.87960
#
# Poissons Ratio (x) = 0.66106 0.86051
# Poissons Ratio (y) = 0.11827 0.46444
# Poissons Ratio (z) = 0.11309 0.34117
#
# Static dielectric constant tensor:
#      x y z
#    x 1.475070 0.000000 0.000000 
#    y 0.000000 1.520950 0.000000 
#    z 0.000000 0.000000 1.535750 
# 
# From -- ./inp_files/9517.got.cif
#   From: 2010.05.17/outbox.cif.g08.bks.cpg/sg65_5_cif.got.tgz:9517.got - 2010.06.03 17:01:31.
