data_PCOD9484340
_publ_section_title
;
Structure prediction by ZEFSAII (Michael W. Deem and Ramdas Pophale) SiO2 
 PCOD9484340
Probable space group: C M M M
;
_chemical_formula_sum "Si O2"
_cell_formula_units_Z 96
_cell_length_a 16.778291
_cell_length_b 8.823590
_cell_length_c 32.499200
_cell_angle_alpha 90.000000
_cell_angle_beta 90.000000
_cell_angle_gamma 90.000000
_cell_volume 4811.336286
_symmetry_space_group_name_H-M "C M M M"
_symmetry_group_IT_number 65
_symmetry_cell_setting 'orthorhombic'
loop_
_space_group_symop_operation_xyz
x,y,z
-x,-y,z
x,-y,-z
-x,y,-z
-x,-y,-z
x,y,-z
-x,y,z
x,-y,z
1/2+x,1/2+y,z
1/2-x,1/2-y,z
1/2+x,1/2-y,-z
1/2-x,1/2+y,-z
1/2-x,1/2-y,-z
1/2+x,1/2+y,-z
1/2-x,1/2+y,z
1/2+x,1/2-y,z
loop_
_atom_site_type_symbol
_atom_site_label
_atom_site_fract_x
_atom_site_fract_y
_atom_site_fract_z
Si Si1 0.159775 0.181335 0.208505
Si Si2 0.095685 0.174011 0.954157
Si Si3 0.902901 0.677434 0.454598
Si Si4 0.838140 0.679355 0.708534
Si Si5 0.162042 0.679095 0.874153
Si Si6 0.904200 0.829423 0.371053
O O1 0.250000 0.250000 0.208541
O O2 0.123448 0.243598 0.250949
O O3 0.122931 0.243069 0.166075
O O4 0.162747 0.000000 0.208534
O O5 0.120991 0.279660 0.916951
O O6 0.000000 0.171043 0.955349
O O7 0.122912 0.000000 0.946576
O O8 0.123773 0.219630 0.000000
O O9 0.876622 0.730709 0.500000
O O10 0.882365 0.500000 0.450277
O O11 0.874134 0.769734 0.415137
O O12 0.000000 0.684971 0.454544
O O13 0.833400 0.500000 0.714755
O O14 0.750000 0.750000 0.704653
O O15 0.881607 0.721473 0.666444
O O16 0.166392 0.500000 0.867582
O O17 0.250000 0.750000 0.877410
O O18 0.000000 0.834163 0.373502
O O19 0.874759 0.000000 0.362817
#
# Coordination Sequence:
#
# PCOD9484340 Si02
#       6
#    16  16  16  16  16  16
#     4  10  18  32  53  76 103 133 169 210 254 303
#     4   9  19  37  58  78 104 139 175 211 256 309
#     4   8  14  26  45  69  97 130 168 208 251 300
#     4  11  21  35  55  77 103 135 173 211 252 306
#     4  11  21  34  54  80 108 136 171 214 257 300
#     4  10  20  33  50  75 106 136 169 211 257 302
#
# _framework density 19.952877000000001
#
# number of rings (size 3 to 8) (size 9 to 14) (size 15 to 20)
#    0.000    2.167    0.000    8.000    0.000    2.333 
#    0.000    3.333    0.000    5.500    0.000    0.000 
#    0.000    0.000    0.000    0.000    0.000    0.000 
#
# Total GULP energy -267803.596088 kJ/mol
# GULP energy per Si atom -5579.241585 kJ/mol
# Density = 1.990746 g / cm^3
# Si number density = 19.952877 Si / 1000 Ang^3
#
#
#
# Elastic Constant Matrix: (Units=GPa)
#
#
# Indices 1 2 3 4 5 6 
#
# 1 3.9339 9.8526 14.7638 0.0000 0.0000 0.0000
# 2 9.8526 166.8033 78.1728 0.0000 0.0000 0.0000
# 3 14.7638 78.1728 167.3149 0.0000 0.0000 0.0000
# 4 0.0000 0.0000 0.0000 38.9464 0.0000 0.0000
# 5 0.0000 0.0000 0.0000 0.0000 19.0803 0.0000
# 6 0.0000 0.0000 0.0000 0.0000 0.0000 17.0313
#
#
#
# Elastic Compliance Matrix: (Units=1/GPa)
#
#
# Indices 1 2 3 4 5 6 
#
# 1 0.389989 -0.008845 -0.030280 0.000000 0.000000 0.000000
# 2 -0.008845 0.007876 -0.002900 0.000000 0.000000 0.000000
# 3 -0.030280 -0.002900 0.010003 0.000000 0.000000 0.000000
# 4 0.000000 0.000000 0.000000 0.025676 0.000000 0.000000
# 5 0.000000 0.000000 0.000000 0.000000 0.052410 0.000000
# 6 0.000000 0.000000 0.000000 0.000000 0.000000 0.058716
#
#
# Mechanical properties :
#
#
# Convention : Reuss Voigt Hill
#
# Bulk Modulus (GPa) = 3.08814 60.40340 31.74577
# Shear Modulus (GPa) = 6.78740 30.69579 18.74160
#
# Velocity S-wave (km/s) = 1.84637 3.92652 3.06811
# Velocity P-wave (km/s) = 2.46912 7.13411 5.33816
#
# Compressibility (1/GPa) = 0.32381999
#
# Stress axis : x y z
#
# Youngs Moduli (GPa) = 2.56418 126.96150 99.96638
#
# Poissons Ratio (x) = 1.12295 3.02698
# Poissons Ratio (y) = 0.02268 0.28986
# Poissons Ratio (z) = 0.07764 0.36813
#
# Static dielectric constant tensor:
#      x y z
#    x 1.718150 0.000000 0.000000 
#    y 0.000000 1.652090 0.000000 
#    z 0.000000 0.000000 1.762200 
# 
# From -- ./inp_files/75352.got.cif
#   From: 2010.05.17/outbox.cif.g08.bks.cpg/sg65_38_cif.got.tgz:75352.got - 2010.06.03 17:01:31.
