data_PCOD9484987
_publ_section_title
;
Structure prediction by ZEFSAII (Michael W. Deem and Ramdas Pophale) SiO2 
 PCOD9484987
Probable space group: C M M M
;
_chemical_formula_sum "Si O2"
_cell_formula_units_Z 72
_cell_length_a 18.304082
_cell_length_b 7.318391
_cell_length_c 24.779110
_cell_angle_alpha 90.000000
_cell_angle_beta 90.000000
_cell_angle_gamma 90.000000
_cell_volume 3319.321089
_symmetry_space_group_name_H-M "C M M M"
_symmetry_group_IT_number 65
_symmetry_cell_setting 'orthorhombic'
loop_
_space_group_symop_operation_xyz
x,y,z
-x,-y,z
x,-y,-z
-x,y,-z
-x,-y,-z
x,y,-z
-x,y,z
x,-y,z
1/2+x,1/2+y,z
1/2-x,1/2-y,z
1/2+x,1/2-y,-z
1/2-x,1/2+y,-z
1/2-x,1/2-y,-z
1/2+x,1/2+y,-z
1/2-x,1/2+y,z
1/2+x,1/2-y,z
loop_
_atom_site_type_symbol
_atom_site_label
_atom_site_fract_x
_atom_site_fract_y
_atom_site_fract_z
Si Si1 0.335969 0.782343 0.783172
Si Si2 0.585427 0.777137 0.675434
Si Si3 0.336195 0.217619 0.000000
Si Si4 0.415444 0.776697 0.108448
Si Si5 0.587329 0.779769 0.442010
O O1 0.250000 0.750000 0.786375
O O2 0.369619 0.712876 0.727072
O O3 0.376360 0.713958 0.836782
O O4 0.347910 0.000000 0.782525
O O5 0.500000 0.726559 0.680850
O O6 0.614221 0.715980 0.616535
O O7 0.587091 0.000000 0.674735
O O8 0.250000 0.250000 0.000000
O O9 0.373480 0.286066 0.945160
O O10 0.347711 0.000000 0.000000
O O11 0.500000 0.723400 0.107216
O O12 0.413467 0.000000 0.108565
O O13 0.616440 0.712736 0.500000
O O14 0.500000 0.743215 0.441695
O O15 0.595086 0.000000 0.442516
#
# Coordination Sequence:
#
# PCOD9484987 Si02
#       5
#    16  16   8  16  16
#     4  10  19  30  45  64  87 114 142 175 214 255
#     4   8  13  22  38  59  80 105 140 177 210 247
#     4  10  19  31  49  71  95 120 144 174 212 254
#     4   9  17  30  49  70  88 111 148 186 213 242
#     4   7   9  14  27  50  78 102 126 165 214 251
#
# _framework density 21.691182000000001
#
# number of rings (size 3 to 8) (size 9 to 14) (size 15 to 20)
#    0.000    3.333    0.000    3.667    0.000    4.000 
#    0.000    0.000    0.000    6.000    0.000    0.000 
#    0.000    0.000    0.000    5.556    0.000    4.444 
#
# Total GULP energy -200832.701729 kJ/mol
# GULP energy per Si atom -5578.686159 kJ/mol
# Density = 2.164181 g / cm^3
# Si number density = 21.691182 Si / 1000 Ang^3
#
#
#
# Elastic Constant Matrix: (Units=GPa)
#
#
# Indices 1 2 3 4 5 6 
#
# 1 130.6243 -4.4765 128.5313 0.0000 0.0000 0.0000
# 2 -4.4765 85.5958 13.3382 0.0000 0.0000 0.0000
# 3 128.5313 13.3382 308.7762 0.0000 0.0000 0.0000
# 4 0.0000 0.0000 0.0000 -31.6865 0.0000 0.0000
# 5 0.0000 0.0000 0.0000 0.0000 -11.9707 0.0000
# 6 0.0000 0.0000 0.0000 0.0000 0.0000 -4.5941
#
#
#
# Elastic Compliance Matrix: (Units=1/GPa)
#
#
# Indices 1 2 3 4 5 6 
#
# 1 0.013168 0.001553 -0.005549 0.000000 0.000000 0.000000
# 2 0.001553 0.011945 -0.001163 0.000000 0.000000 0.000000
# 3 -0.005549 -0.001163 0.005598 0.000000 0.000000 0.000000
# 4 0.000000 0.000000 0.000000 -0.031559 0.000000 0.000000
# 5 0.000000 0.000000 0.000000 0.000000 -0.083538 0.000000
# 6 0.000000 0.000000 0.000000 0.000000 0.000000 -0.217668
#
#
# Mechanical properties :
#
#
# Convention : Reuss Voigt Hill
#
# Bulk Modulus (GPa) = 49.02823 88.86470 68.94646
# Shear Modulus (GPa) = -17.54765 16.18996 -0.67885
#
# Velocity S-wave (km/s) = -2.84734 2.73497 -0.56004
# Velocity P-wave (km/s) = 3.44124 7.14356 5.60681
#
# Compressibility (1/GPa) = 0.02039641
#
# Stress axis : x y z
#
# Youngs Moduli (GPa) = 75.93892 83.71554 178.61993
#
# Poissons Ratio (x) = -0.13004 0.99109
# Poissons Ratio (y) = -0.11796 0.20766
# Poissons Ratio (z) = 0.42136 0.09733
#
# Static dielectric constant tensor:
#      x y z
#    x 1.705690 0.000000 0.000000 
#    y 0.000000 1.841810 0.000000 
#    z 0.000000 0.000000 1.817220 
# 
# From -- ./inp_files/67022.got.cif
#   From: 2010.05.17/outbox.cif.g08.bks.cpg/sg65_34_cif.got.tgz:67022.got - 2010.06.03 17:01:31.
