data_PCOD9484952
_publ_section_title
;
Structure prediction by ZEFSAII (Michael W. Deem and Ramdas Pophale) SiO2 
 PCOD9484952
Probable space group: C M M M
;
_chemical_formula_sum "Si O2"
_cell_formula_units_Z 104
_cell_length_a 9.021322
_cell_length_b 28.158489
_cell_length_c 27.211795
_cell_angle_alpha 90.000000
_cell_angle_beta 90.000000
_cell_angle_gamma 90.000000
_cell_volume 6912.525105
_symmetry_space_group_name_H-M "C M M M"
_symmetry_group_IT_number 65
_symmetry_cell_setting 'orthorhombic'
loop_
_space_group_symop_operation_xyz
x,y,z
-x,-y,z
x,-y,-z
-x,y,-z
-x,-y,-z
x,y,-z
-x,y,z
x,-y,z
1/2+x,1/2+y,z
1/2-x,1/2-y,z
1/2+x,1/2-y,-z
1/2-x,1/2+y,-z
1/2-x,1/2-y,-z
1/2+x,1/2+y,-z
1/2-x,1/2+y,z
1/2+x,1/2-y,z
loop_
_atom_site_type_symbol
_atom_site_label
_atom_site_fract_x
_atom_site_fract_y
_atom_site_fract_z
Si Si1 0.329509 0.442342 0.000000
Si Si2 0.178017 0.554217 0.702249
Si Si3 0.321464 0.301453 0.444241
Si Si4 0.821619 0.611470 0.199221
Si Si5 0.677447 0.698573 0.748597
Si Si6 0.678412 0.055505 0.898490
Si Si7 0.677794 0.359662 0.650163
O O1 0.248832 0.428013 0.949762
O O2 0.325460 0.500000 0.000000
O O3 0.500000 0.427205 0.000000
O O4 0.228431 0.500000 0.697251
O O5 0.213001 0.574961 0.756382
O O6 0.248699 0.590492 0.663753
O O7 0.000000 0.555220 0.697413
O O8 0.283492 0.316466 0.500000
O O9 0.500000 0.296812 0.441453
O O10 0.250000 0.250000 0.435760
O O11 0.274402 0.337460 0.401617
O O12 0.741879 0.660534 0.212743
O O13 0.777932 0.587725 0.147744
O O14 0.000000 0.618498 0.199111
O O15 0.500000 0.701642 0.752683
O O16 0.750000 0.750000 0.754066
O O17 0.713907 0.676670 0.694699
O O18 0.500000 0.056832 0.902581
O O19 0.719535 0.000000 0.889956
O O20 0.500000 0.365221 0.649726
#
# Coordination Sequence:
#
# PCOD9484952 Si02
#       7
#     8  16  16  16  16  16  16
#     4   9  17  27  39  59  88 119 148 179 215 251
#     4   9  17  29  45  65  88 114 145 179 214 253
#     4   9  17  29  45  65  88 112 140 176 217 260
#     4   9  17  29  45  65  88 114 144 178 216 255
#     4  10  19  30  44  63  88 115 143 175 212 256
#     4   9  16  27  44  64  87 116 148 179 211 251
#     4   9  18  30  44  64  88 114 143 175 213 257
#
# _framework density 15.045154
#
# number of rings (size 3 to 8) (size 9 to 14) (size 15 to 20)
#    0.000    2.846    0.000    1.615    0.000    4.923 
#    0.000    0.000    0.000    3.231    0.000    3.769 
#    0.000    0.000    0.000    0.000    0.000    0.000 
#
# Total GULP energy -289758.954677 kJ/mol
# GULP energy per Si atom -5572.287590 kJ/mol
# Density = 1.501091 g / cm^3
# Si number density = 15.045154 Si / 1000 Ang^3
#
#
#
# Elastic Constant Matrix: (Units=GPa)
#
#
# Indices 1 2 3 4 5 6 
#
# 1 23.2480 42.4241 40.9804 0.0000 0.0000 0.0000
# 2 42.4241 132.1082 82.8964 0.0000 0.0000 0.0000
# 3 40.9804 82.8964 137.8393 0.0000 0.0000 0.0000
# 4 0.0000 0.0000 0.0000 25.0636 0.0000 0.0000
# 5 0.0000 0.0000 0.0000 0.0000 19.7092 0.0000
# 6 0.0000 0.0000 0.0000 0.0000 0.0000 24.7969
#
#
#
# Elastic Compliance Matrix: (Units=1/GPa)
#
#
# Indices 1 2 3 4 5 6 
#
# 1 0.138474 -0.029930 -0.023169 0.000000 0.000000 0.000000
# 2 -0.029930 0.018626 -0.002304 0.000000 0.000000 0.000000
# 3 -0.023169 -0.002304 0.015529 0.000000 0.000000 0.000000
# 4 0.000000 0.000000 0.000000 0.039899 0.000000 0.000000
# 5 0.000000 0.000000 0.000000 0.000000 0.050738 0.000000
# 6 0.000000 0.000000 0.000000 0.000000 0.000000 0.040328
#
#
# Mechanical properties :
#
#
# Convention : Reuss Voigt Hill
#
# Bulk Modulus (GPa) = 16.17511 69.53302 42.85406
# Shear Modulus (GPa) = 11.49409 22.37359 16.93384
#
# Velocity S-wave (km/s) = 2.76701 3.86047 3.35854
# Velocity P-wave (km/s) = 4.58070 8.13557 6.60191
#
# Compressibility (1/GPa) = 0.06182339
#
# Stress axis : x y z
#
# Youngs Moduli (GPa) = 7.22158 53.68695 64.39756
#
# Poissons Ratio (x) = 1.60685 1.49204
# Poissons Ratio (y) = 0.21614 0.14835
# Poissons Ratio (z) = 0.16732 0.12367
#
# Static dielectric constant tensor:
#      x y z
#    x 1.502930 0.000000 0.000000 
#    y 0.000000 1.471230 0.000000 
#    z 0.000000 0.000000 1.496330 
# 
# From -- ./inp_files/71810.got.cif
#   From: 2010.05.17/outbox.cif.g08.bks.cpg/sg65_36_cif.got.tgz:71810.got - 2010.06.03 17:01:31.
