data_PCOD9484769
_publ_section_title
;
Structure prediction by ZEFSAII (Michael W. Deem and Ramdas Pophale) SiO2 
 PCOD9484769
Probable space group: C M M M
;
_chemical_formula_sum "Si O2"
_cell_formula_units_Z 88
_cell_length_a 18.982069
_cell_length_b 7.366899
_cell_length_c 29.514874
_cell_angle_alpha 90.000000
_cell_angle_beta 90.000000
_cell_angle_gamma 90.000000
_cell_volume 4127.330027
_symmetry_space_group_name_H-M "C M M M"
_symmetry_group_IT_number 65
_symmetry_cell_setting 'orthorhombic'
loop_
_space_group_symop_operation_xyz
x,y,z
-x,-y,z
x,-y,-z
-x,y,-z
-x,-y,-z
x,y,-z
-x,y,z
x,-y,z
1/2+x,1/2+y,z
1/2-x,1/2-y,z
1/2+x,1/2-y,-z
1/2-x,1/2+y,-z
1/2-x,1/2-y,-z
1/2+x,1/2+y,-z
1/2-x,1/2+y,z
1/2+x,1/2-y,z
loop_
_atom_site_type_symbol
_atom_site_label
_atom_site_fract_x
_atom_site_fract_y
_atom_site_fract_z
Si Si1 0.418688 0.722153 0.637363
Si Si2 0.332709 0.716721 0.000000
Si Si3 0.081491 0.778935 0.913440
Si Si4 0.332201 0.283207 0.449190
Si Si5 0.667022 0.283328 0.274765
Si Si6 0.581584 0.278866 0.811875
O O1 0.500000 0.776658 0.640359
O O2 0.417503 0.500000 0.637165
O O3 0.381674 0.784086 0.590996
O O4 0.373931 0.783448 0.680791
O O5 0.250000 0.750000 0.000000
O O6 0.369794 0.785575 0.045721
O O7 0.343620 0.500000 0.000000
O O8 0.102092 0.720608 0.862672
O O9 0.000000 0.727640 0.921091
O O10 0.083233 0.000000 0.913213
O O11 0.346211 0.212297 0.500000
O O12 0.341660 0.500000 0.451021
O O13 0.250000 0.250000 0.438676
O O14 0.657191 0.500000 0.274440
O O15 0.750000 0.250000 0.277033
O O16 0.631652 0.214830 0.228400
O O17 0.500000 0.227194 0.803884
O O18 0.582859 0.500000 0.812030
#
# Coordination Sequence:
#
# PCOD9484769 Si02
#       6
#    16   8  16  16  16  16
#     4   9  17  29  46  67  88 112 147 187 218 247
#     4  10  19  29  43  65  91 116 142 176 218 258
#     4   8  14  26  45  66  85 109 146 186 215 245
#     4   9  17  29  46  67  90 116 144 176 216 260
#     4  10  19  30  46  67  90 116 144 176 216 260
#     4   8  14  26  45  67  87 109 143 184 218 249
#
# _framework density 21.321287999999999
#
# number of rings (size 3 to 8) (size 9 to 14) (size 15 to 20)
#    0.000    3.091    0.000    2.455    0.000    4.364 
#    0.000    1.818    0.000    4.909    0.000    5.091 
#    0.000    0.000    0.000    0.000    0.000    0.000 
#
# Total GULP energy -245668.017192 kJ/mol
# GULP energy per Si atom -5583.364027 kJ/mol
# Density = 2.127276 g / cm^3
# Si number density = 21.321288 Si / 1000 Ang^3
#
#
#
# Elastic Constant Matrix: (Units=GPa)
#
#
# Indices 1 2 3 4 5 6 
#
# 1 178.6440 -1.3534 170.5590 0.0000 0.0000 0.0000
# 2 -1.3534 77.4626 9.4807 0.0000 0.0000 0.0000
# 3 170.5590 9.4807 242.1427 0.0000 0.0000 0.0000
# 4 0.0000 0.0000 0.0000 -29.3841 0.0000 0.0000
# 5 0.0000 0.0000 0.0000 0.0000 31.4184 0.0000
# 6 0.0000 0.0000 0.0000 0.0000 0.0000 19.2587
#
#
#
# Elastic Compliance Matrix: (Units=1/GPa)
#
#
# Indices 1 2 3 4 5 6 
#
# 1 0.017340 0.001806 -0.012285 0.000000 0.000000 0.000000
# 2 0.001806 0.013160 -0.001788 0.000000 0.000000 0.000000
# 3 -0.012285 -0.001788 0.012853 0.000000 0.000000 0.000000
# 4 0.000000 0.000000 0.000000 -0.034032 0.000000 0.000000
# 5 0.000000 0.000000 0.000000 0.000000 0.031828 0.000000
# 6 0.000000 0.000000 0.000000 0.000000 0.000000 0.051924
#
#
# Mechanical properties :
#
#
# Convention : Reuss Voigt Hill
#
# Bulk Modulus (GPa) = 53.13221 95.06909 74.10065
# Shear Modulus (GPa) = 40.36206 25.56282 32.96244
#
# Velocity S-wave (km/s) = 4.35563 3.46632 3.93617
# Velocity P-wave (km/s) = 7.09008 7.79141 7.44900
#
# Compressibility (1/GPa) = 0.01882097
#
# Stress axis : x y z
#
# Youngs Moduli (GPa) = 57.67005 75.98895 77.80446
#
# Poissons Ratio (x) = -0.13727 0.95580
# Poissons Ratio (y) = -0.10418 0.13909
# Poissons Ratio (z) = 0.70845 0.13584
#
# Static dielectric constant tensor:
#      x y z
#    x 1.702050 0.000000 0.000000 
#    y 0.000000 1.842020 0.000000 
#    z 0.000000 0.000000 1.764290 
# 
# From -- ./inp_files/74764.got.cif
#   From: 2010.05.17/outbox.cif.g08.bks.cpg/sg65_38_cif.got.tgz:74764.got - 2010.06.03 17:01:31.
