data_PCOD9484418
_publ_section_title
;
Structure prediction by ZEFSAII (Michael W. Deem and Ramdas Pophale) SiO2 
 PCOD9484418
Probable space group: C M M M
;
_chemical_formula_sum "Si O2"
_cell_formula_units_Z 72
_cell_length_a 21.251346
_cell_length_b 21.273313
_cell_length_c 7.598510
_cell_angle_alpha 90.000000
_cell_angle_beta 90.000000
_cell_angle_gamma 90.000000
_cell_volume 3435.184058
_symmetry_space_group_name_H-M "C M M M"
_symmetry_group_IT_number 65
_symmetry_cell_setting 'orthorhombic'
loop_
_space_group_symop_operation_xyz
x,y,z
-x,-y,z
x,-y,-z
-x,y,-z
-x,-y,-z
x,y,-z
-x,y,z
x,-y,z
1/2+x,1/2+y,z
1/2-x,1/2-y,z
1/2+x,1/2-y,-z
1/2-x,1/2+y,-z
1/2-x,1/2-y,-z
1/2+x,1/2+y,-z
1/2-x,1/2+y,z
1/2+x,1/2-y,z
loop_
_atom_site_type_symbol
_atom_site_label
_atom_site_fract_x
_atom_site_fract_y
_atom_site_fract_z
Si Si1 0.072769 0.755479 0.715309
Si Si2 0.865711 0.123572 0.299874
Si Si3 0.500000 0.425136 0.206905
Si Si4 0.571552 0.887713 0.712678
Si Si5 0.802084 0.000000 0.299365
Si Si6 0.664021 0.000000 0.802395
O O1 0.073108 0.757854 0.500000
O O2 0.123283 0.806901 0.778645
O O3 0.086423 0.683751 0.767444
O O4 0.000000 0.769187 0.768360
O O5 0.841827 0.132061 0.500000
O O6 0.826580 0.065760 0.218232
O O7 0.937366 0.099268 0.297867
O O8 0.500000 0.500000 0.214897
O O9 0.500000 0.407180 0.000000
O O10 0.571308 0.888615 0.500000
O O11 0.500000 0.902510 0.770277
O O12 0.620745 0.939308 0.772894
O O13 0.727267 0.000000 0.308748
O O14 0.828513 0.000000 0.500000
O O15 0.687893 0.000000 0.000000
#
# Coordination Sequence:
#
# PCOD9484418 Si02
#       6
#    16  16   8  16   8   8
#     4   8  14  27  53  86 113 132 161 214 273 317
#     4  10  18  32  55  80 106 139 182 228 264 303
#     4  11  21  29  43  73 113 150 181 216 263 313
#     4   9  18  35  61  88 109 132 164 213 271 325
#     4  10  22  36  54  78 103 142 190 229 264 302
#     4  12  25  39  55  74 104 145 179 221 268 317
#
# _framework density 20.959575000000001
#
# number of rings (size 3 to 8) (size 9 to 14) (size 15 to 20)
#    0.000    2.333    2.222    3.000    0.000    3.111 
#    0.000    2.222    0.000    6.667    0.000    0.000 
#    0.000    0.000    0.000    0.000    0.000    0.000 
#
# Total GULP energy -200754.034007 kJ/mol
# GULP energy per Si atom -5576.500945 kJ/mol
# Density = 2.091187 g / cm^3
# Si number density = 20.959575 Si / 1000 Ang^3
#
#
#
# Elastic Constant Matrix: (Units=GPa)
#
#
# Indices 1 2 3 4 5 6 
#
# 1 87.4419 69.1706 -5.4803 0.0000 0.0000 0.0000
# 2 69.1706 167.6109 2.2936 0.0000 0.0000 0.0000
# 3 -5.4803 2.2936 55.9709 0.0000 0.0000 0.0000
# 4 0.0000 0.0000 0.0000 -33.0937 0.0000 0.0000
# 5 0.0000 0.0000 0.0000 0.0000 59.6228 0.0000
# 6 0.0000 0.0000 0.0000 0.0000 0.0000 -170.0648
#
#
#
# Elastic Compliance Matrix: (Units=1/GPa)
#
#
# Indices 1 2 3 4 5 6 
#
# 1 0.017195 -0.007123 0.001975 0.000000 0.000000 0.000000
# 2 -0.007123 0.008920 -0.001063 0.000000 0.000000 0.000000
# 3 0.001975 -0.001063 0.018103 0.000000 0.000000 0.000000
# 4 0.000000 0.000000 0.000000 -0.030217 0.000000 0.000000
# 5 0.000000 0.000000 0.000000 0.000000 0.016772 0.000000
# 6 0.000000 0.000000 0.000000 0.000000 0.000000 -0.005880
#
#
# Mechanical properties :
#
#
# Convention : Reuss Voigt Hill
#
# Bulk Modulus (GPa) = 31.44920 49.22127 40.33523
# Shear Modulus (GPa) = 104.35539 -12.37115 45.99212
#
# Velocity S-wave (km/s) = 7.06378 -2.43212 4.68944
# Velocity P-wave (km/s) = 9.03142 3.95575 6.97189
#
# Compressibility (1/GPa) = 0.03179731
#
# Stress axis : x y z
#
# Youngs Moduli (GPa) = 58.15776 112.10376 55.23820
#
# Poissons Ratio (x) = 0.79852 -0.10912
# Poissons Ratio (y) = 0.41426 0.05872
# Poissons Ratio (z) = -0.11489 0.11916
#
# Static dielectric constant tensor:
#      x y z
#    x 1.695240 0.000000 0.000000 
#    y 0.000000 1.809070 0.000000 
#    z 0.000000 0.000000 1.797290 
# 
# From -- ./inp_files/9333.got.cif
#   From: 2010.05.17/outbox.cif.g08.bks.cpg/sg65_5_cif.got.tgz:9333.got - 2010.06.03 17:01:31.
