data_PCOD9484849
_publ_section_title
;
Structure prediction by ZEFSAII (Michael W. Deem and Ramdas Pophale) SiO2 
 PCOD9484849
Probable space group: C M M M
;
_chemical_formula_sum "Si O2"
_cell_formula_units_Z 96
_cell_length_a 20.976599
_cell_length_b 29.456282
_cell_length_c 7.323249
_cell_angle_alpha 90.000000
_cell_angle_beta 90.000000
_cell_angle_gamma 90.000000
_cell_volume 4524.981479
_symmetry_space_group_name_H-M "C M M M"
_symmetry_group_IT_number 65
_symmetry_cell_setting 'orthorhombic'
loop_
_space_group_symop_operation_xyz
x,y,z
-x,-y,z
x,-y,-z
-x,y,-z
-x,-y,-z
x,y,-z
-x,y,z
x,-y,z
1/2+x,1/2+y,z
1/2-x,1/2-y,z
1/2+x,1/2-y,-z
1/2-x,1/2+y,-z
1/2-x,1/2-y,-z
1/2+x,1/2+y,-z
1/2-x,1/2+y,z
1/2+x,1/2-y,z
loop_
_atom_site_type_symbol
_atom_site_label
_atom_site_fract_x
_atom_site_fract_y
_atom_site_fract_z
Si Si1 0.000000 0.052578 0.222874
Si Si2 0.928458 0.777485 0.777527
Si Si3 0.500000 0.944759 0.714409
Si Si4 0.388619 0.379509 0.222629
Si Si5 0.362059 0.948048 0.720544
Si Si6 0.255412 0.124256 0.786822
Si Si7 0.190158 0.281586 0.778068
O O1 0.062219 0.081409 0.280789
O O2 0.000000 0.000000 0.281305
O O3 0.000000 0.052127 0.000000
O O4 0.911773 0.829148 0.723751
O O5 0.874670 0.742265 0.715117
O O6 0.000000 0.765964 0.719970
O O7 0.927442 0.777405 0.000000
O O8 0.500000 0.933104 0.500000
O O9 0.431145 0.930072 0.787702
O O10 0.500000 0.000000 0.726764
O O11 0.315531 0.384796 0.285557
O O12 0.389808 0.380722 0.000000
O O13 0.365247 0.948679 0.500000
O O14 0.302484 0.917894 0.772854
O O15 0.354655 0.000000 0.781396
O O16 0.292217 0.168228 0.711641
O O17 0.244838 0.134761 0.000000
O O18 0.250000 0.250000 0.731570
O O19 0.185856 0.282753 0.000000
#
# Coordination Sequence:
#
# PCOD9484849 Si02
#       7
#     8  16   8  16  16  16  16
#     4   9  16  24  34  53  85 121 159 203 242 273
#     4   9  14  22  38  57  81 119 164 197 221 268
#     4   7  12  28  53  70  79 107 157 193 211 253
#     4   9  15  24  39  59  86 124 161 191 232 281
#     4   9  18  34  54  71  89 120 160 194 226 273
#     4  10  19  29  45  72 102 125 149 189 241 290
#     4   9  15  25  40  60  89 124 155 185 227 279
#
# _framework density 21.215554999999998
#
# number of rings (size 3 to 8) (size 9 to 14) (size 15 to 20)
#    0.000    3.000    2.500    1.000    0.000    1.000 
#    1.500    2.083    0.000    2.000    0.000    0.583 
#    0.000    3.333    0.000    0.000    0.000    0.000 
#
# Total GULP energy -267808.659772 kJ/mol
# GULP energy per Si atom -5579.347079 kJ/mol
# Density = 2.116727 g / cm^3
# Si number density = 21.215555 Si / 1000 Ang^3
#
#
#
# Elastic Constant Matrix: (Units=GPa)
#
#
# Indices 1 2 3 4 5 6 
#
# 1 255.5689 117.4056 3.8951 0.0000 0.0000 0.0000
# 2 117.4056 136.1896 0.6765 0.0000 0.0000 0.0000
# 3 3.8951 0.6765 80.5267 0.0000 0.0000 0.0000
# 4 0.0000 0.0000 0.0000 -2.4294 0.0000 0.0000
# 5 0.0000 0.0000 0.0000 0.0000 2.6108 0.0000
# 6 0.0000 0.0000 0.0000 0.0000 0.0000 35.5670
#
#
#
# Elastic Compliance Matrix: (Units=1/GPa)
#
#
# Indices 1 2 3 4 5 6 
#
# 1 0.006484 -0.005589 -0.000267 0.000000 0.000000 0.000000
# 2 -0.005589 0.012160 0.000168 0.000000 0.000000 0.000000
# 3 -0.000267 0.000168 0.012430 0.000000 0.000000 0.000000
# 4 0.000000 0.000000 0.000000 -0.411623 0.000000 0.000000
# 5 0.000000 0.000000 0.000000 0.000000 0.383026 0.000000
# 6 0.000000 0.000000 0.000000 0.000000 0.000000 0.028116
#
#
# Mechanical properties :
#
#
# Convention : Reuss Voigt Hill
#
# Bulk Modulus (GPa) = 50.76294 79.58215 65.17255
# Shear Modulus (GPa) = 103.02228 30.50354 66.76291
#
# Velocity S-wave (km/s) = 6.97604 3.79594 5.61580
# Velocity P-wave (km/s) = 9.42688 7.53690 8.53437
#
# Compressibility (1/GPa) = 0.01969941
#
# Stress axis : x y z
#
# Youngs Moduli (GPa) = 154.22027 82.23931 80.45227
#
# Poissons Ratio (x) = 0.45960 0.02146
# Poissons Ratio (y) = 0.86187 -0.01353
# Poissons Ratio (z) = 0.04113 -0.01383
#
# Static dielectric constant tensor:
#      x y z
#    x 1.753940 0.000000 0.000000 
#    y 0.000000 1.718700 0.000000 
#    z 0.000000 0.000000 1.844710 
# 
# From -- ./inp_files/27400.got.cif
#   From: 2010.05.17/outbox.cif.g08.bks.cpg/sg65_14_cif.got.tgz:27400.got - 2010.06.03 17:01:31.
