data_PCOD9484252
_publ_section_title
;
Structure prediction by ZEFSAII (Michael W. Deem and Ramdas Pophale) SiO2 
 PCOD9484252
Probable space group: C M M M
;
_chemical_formula_sum "Si O2"
_cell_formula_units_Z 64
_cell_length_a 18.652806
_cell_length_b 14.953852
_cell_length_c 11.667430
_cell_angle_alpha 90.000000
_cell_angle_beta 90.000000
_cell_angle_gamma 90.000000
_cell_volume 3254.411421
_symmetry_space_group_name_H-M "C M M M"
_symmetry_group_IT_number 65
_symmetry_cell_setting 'orthorhombic'
loop_
_space_group_symop_operation_xyz
x,y,z
-x,-y,z
x,-y,-z
-x,y,-z
-x,-y,-z
x,y,-z
-x,y,z
x,-y,z
1/2+x,1/2+y,z
1/2-x,1/2-y,z
1/2+x,1/2-y,-z
1/2-x,1/2+y,-z
1/2-x,1/2-y,-z
1/2+x,1/2+y,-z
1/2-x,1/2+y,z
1/2+x,1/2-y,z
loop_
_atom_site_type_symbol
_atom_site_label
_atom_site_fract_x
_atom_site_fract_y
_atom_site_fract_z
Si Si1 0.852101 0.105128 0.233932
Si Si2 0.310739 0.901275 0.741376
Si Si3 0.581033 0.241105 0.363660
Si Si4 0.140551 0.403364 0.000000
Si Si5 0.166477 0.213664 0.000000
O O1 0.772112 0.114285 0.286683
O O2 0.905559 0.160613 0.312960
O O3 0.847808 0.154698 0.111702
O O4 0.867625 0.000000 0.222028
O O5 0.362048 0.825300 0.694132
O O6 0.332399 0.000000 0.699172
O O7 0.316497 0.904715 0.880134
O O8 0.590542 0.240849 0.500000
O O9 0.500000 0.211746 0.337033
O O10 0.113983 0.300888 0.000000
O O11 0.099802 0.500000 0.000000
O O12 0.250000 0.250000 0.000000
#
# Coordination Sequence:
#
# PCOD9484252 Si02
#       5
#    16  16  16   8   8
#     4  11  22  37  61  92 121 154 196 240 288 345
#     4  10  20  37  62  93 122 149 189 242 296 354
#     4  11  25  43  60  80 113 159 205 248 297 350
#     4  10  18  31  58  94 127 153 181 227 296 362
#     4  12  17  31  60  92 128 154 182 232 292 353
#
# _framework density 19.665614000000001
#
# number of rings (size 3 to 8) (size 9 to 14) (size 15 to 20)
#    0.000    1.250    5.000    1.125    0.000    4.000 
#    0.000    7.500    0.000    3.750    0.000    0.000 
#    0.000    0.000    0.000    0.000    0.000    0.000 
#
# Total GULP energy -178441.477370 kJ/mol
# GULP energy per Si atom -5576.296168 kJ/mol
# Density = 1.962085 g / cm^3
# Si number density = 19.665614 Si / 1000 Ang^3
#
#
#
# Elastic Constant Matrix: (Units=GPa)
#
#
# Indices 1 2 3 4 5 6 
#
# 1 30.3684 32.1153 23.5395 0.0000 0.0000 0.0000
# 2 32.1153 167.1445 26.0135 0.0000 0.0000 0.0000
# 3 23.5395 26.0135 50.1332 0.0000 0.0000 0.0000
# 4 0.0000 0.0000 0.0000 15.2331 0.0000 0.0000
# 5 0.0000 0.0000 0.0000 0.0000 17.5411 0.0000
# 6 0.0000 0.0000 0.0000 0.0000 0.0000 10.4653
#
#
#
# Elastic Compliance Matrix: (Units=1/GPa)
#
#
# Indices 1 2 3 4 5 6 
#
# 1 0.059744 -0.007738 -0.024037 0.000000 0.000000 0.000000
# 2 -0.007738 0.007511 -0.000264 0.000000 0.000000 0.000000
# 3 -0.024037 -0.000264 0.031370 0.000000 0.000000 0.000000
# 4 0.000000 0.000000 0.000000 0.065647 0.000000 0.000000
# 5 0.000000 0.000000 0.000000 0.000000 0.057009 0.000000
# 6 0.000000 0.000000 0.000000 0.000000 0.000000 0.095554
#
#
# Mechanical properties :
#
#
# Convention : Reuss Voigt Hill
#
# Bulk Modulus (GPa) = 28.94616 45.66475 37.30545
# Shear Modulus (GPa) = 12.74118 19.71309 16.22714
#
# Velocity S-wave (km/s) = 2.54813 3.16953 2.87566
# Velocity P-wave (km/s) = 4.83823 6.05521 5.48060
#
# Compressibility (1/GPa) = 0.03454690
#
# Stress axis : x y z
#
# Youngs Moduli (GPa) = 16.73795 133.14234 31.87751
#
# Poissons Ratio (x) = 1.03031 0.76624
# Poissons Ratio (y) = 0.12952 0.00841
# Poissons Ratio (z) = 0.40233 0.03512
#
# Static dielectric constant tensor:
#      x y z
#    x 1.683290 0.000000 0.000000 
#    y 0.000000 1.744850 0.000000 
#    z 0.000000 0.000000 1.673420 
# 
# From -- ./inp_files/23954.got.cif
#   From: 2010.05.17/outbox.cif.g08.bks.cpg/sg65_12_cif.got.tgz:23954.got - 2010.06.03 17:01:31.
