data_PCOD9484253
_publ_section_title
;
Structure prediction by ZEFSAII (Michael W. Deem and Ramdas Pophale) SiO2 
 PCOD9484253
Probable space group: C M M M
;
_chemical_formula_sum "Si O2"
_cell_formula_units_Z 64
_cell_length_a 18.485879
_cell_length_b 13.449126
_cell_length_c 16.459032
_cell_angle_alpha 90.000000
_cell_angle_beta 90.000000
_cell_angle_gamma 90.000000
_cell_volume 4092.026692
_symmetry_space_group_name_H-M "C M M M"
_symmetry_group_IT_number 65
_symmetry_cell_setting 'orthorhombic'
loop_
_space_group_symop_operation_xyz
x,y,z
-x,-y,z
x,-y,-z
-x,y,-z
-x,-y,-z
x,y,-z
-x,y,z
x,-y,z
1/2+x,1/2+y,z
1/2-x,1/2-y,z
1/2+x,1/2-y,-z
1/2-x,1/2+y,-z
1/2-x,1/2-y,-z
1/2+x,1/2+y,-z
1/2-x,1/2+y,z
1/2+x,1/2-y,z
loop_
_atom_site_type_symbol
_atom_site_label
_atom_site_fract_x
_atom_site_fract_y
_atom_site_fract_z
Si Si1 0.375695 0.883954 0.716776
Si Si2 0.500000 0.890133 0.147218
Si Si3 0.000000 0.827153 0.908280
Si Si4 0.500000 0.120838 0.406928
Si Si5 0.343053 0.616705 0.905014
Si Si6 0.250000 0.250000 0.214692
O O1 0.429592 0.883593 0.794710
O O2 0.427897 0.850743 0.642804
O O3 0.308566 0.812021 0.733458
O O4 0.354036 0.000000 0.704452
O O5 0.500000 0.792349 0.093023
O O6 0.500000 0.000000 0.108477
O O7 0.924655 0.864554 0.873202
O O8 0.000000 0.866628 0.000000
O O9 0.500000 0.154115 0.500000
O O10 0.500000 0.000000 0.405504
O O11 0.327602 0.500000 0.904706
O O12 0.290367 0.674294 0.845644
O O13 0.338771 0.651219 0.000000
#
# Coordination Sequence:
#
# PCOD9484253 Si02
#       6
#    16   8   8   8  16   8
#     4   9  18  30  48  73  95 121 155 190 233 281
#     4   9  16  31  47  63  89 117 155 202 235 271
#     4  10  18  32  48  62  83 119 167 206 235 274
#     4   8  15  32  55  73  94 123 153 185 222 275
#     4  10  21  34  47  64  89 128 172 206 238 280
#     4  12  19  30  49  68 102 126 148 200 251 288
#
# _framework density 15.640172
#
# number of rings (size 3 to 8) (size 9 to 14) (size 15 to 20)
#    0.000    2.375    2.500    3.000    0.000    1.750 
#    0.000    0.625    0.000    0.000    0.000    0.000 
#    0.000    4.000    0.000    0.000    0.000    0.000 
#
# Total GULP energy -178222.842437 kJ/mol
# GULP energy per Si atom -5569.463826 kJ/mol
# Density = 1.560457 g / cm^3
# Si number density = 15.640172 Si / 1000 Ang^3
#
#
#
# Elastic Constant Matrix: (Units=GPa)
#
#
# Indices 1 2 3 4 5 6 
#
# 1 125.9152 51.9612 53.5470 0.0000 0.0000 0.0000
# 2 51.9612 75.6969 32.2765 0.0000 0.0000 0.0000
# 3 53.5470 32.2765 74.1943 0.0000 0.0000 0.0000
# 4 0.0000 0.0000 0.0000 12.9427 0.0000 0.0000
# 5 0.0000 0.0000 0.0000 0.0000 10.0860 0.0000
# 6 0.0000 0.0000 0.0000 0.0000 0.0000 -6.9921
#
#
#
# Elastic Compliance Matrix: (Units=1/GPa)
#
#
# Indices 1 2 3 4 5 6 
#
# 1 0.013524 -0.006288 -0.007025 0.000000 0.000000 0.000000
# 2 -0.006288 0.019143 -0.003789 0.000000 0.000000 0.000000
# 3 -0.007025 -0.003789 0.020197 0.000000 0.000000 0.000000
# 4 0.000000 0.000000 0.000000 0.077263 0.000000 0.000000
# 5 0.000000 0.000000 0.000000 0.000000 0.099148 0.000000
# 6 0.000000 0.000000 0.000000 0.000000 0.000000 -0.143018
#
#
# Mechanical properties :
#
#
# Convention : Reuss Voigt Hill
#
# Bulk Modulus (GPa) = 53.59497 61.26398 57.42947
# Shear Modulus (GPa) = 39.46893 12.40876 25.93885
#
# Velocity S-wave (km/s) = 5.02896 2.81977 4.07686
# Velocity P-wave (km/s) = 8.25000 7.06098 7.67854
#
# Compressibility (1/GPa) = 0.01865847
#
# Stress axis : x y z
#
# Youngs Moduli (GPa) = 73.94098 52.23913 49.51287
#
# Poissons Ratio (x) = 0.32849 0.34784
# Poissons Ratio (y) = 0.46495 0.18762
# Poissons Ratio (z) = 0.51945 0.19795
#
# Static dielectric constant tensor:
#      x y z
#    x 1.540510 0.000000 0.000000 
#    y 0.000000 1.524020 0.000000 
#    z 0.000000 0.000000 1.509570 
# 
# From -- ./inp_files/52682.got.cif
#   From: 2010.05.17/outbox.cif.g08.bks.cpg/sg65_27_cif.got.tgz:52682.got - 2010.06.03 17:01:31.
