data_PCOD9484802
_publ_section_title
;
Structure prediction by ZEFSAII (Michael W. Deem and Ramdas Pophale) SiO2 
 PCOD9484802
Probable space group: C M M M
;
_chemical_formula_sum "Si O2"
_cell_formula_units_Z 96
_cell_length_a 23.880813
_cell_length_b 19.558857
_cell_length_c 9.648401
_cell_angle_alpha 90.000000
_cell_angle_beta 90.000000
_cell_angle_gamma 90.000000
_cell_volume 4506.588710
_symmetry_space_group_name_H-M "C M M M"
_symmetry_group_IT_number 65
_symmetry_cell_setting 'orthorhombic'
loop_
_space_group_symop_operation_xyz
x,y,z
-x,-y,z
x,-y,-z
-x,y,-z
-x,-y,-z
x,y,-z
-x,y,z
x,-y,z
1/2+x,1/2+y,z
1/2-x,1/2-y,z
1/2+x,1/2-y,-z
1/2-x,1/2+y,-z
1/2-x,1/2-y,-z
1/2+x,1/2+y,-z
1/2-x,1/2+y,z
1/2+x,1/2-y,z
loop_
_atom_site_type_symbol
_atom_site_label
_atom_site_fract_x
_atom_site_fract_y
_atom_site_fract_z
Si Si1 0.818369 0.728480 0.852934
Si Si2 0.935312 0.867757 0.660815
Si Si3 0.060142 0.283765 0.230157
Si Si4 0.405674 0.072180 0.335220
Si Si5 0.327015 0.391407 0.160690
Si Si6 0.720651 0.887576 0.665567
O O1 0.884156 0.715018 0.857263
O O2 0.815989 0.809674 0.842987
O O3 0.792404 0.688775 0.723601
O O4 0.794694 0.702798 0.000000
O O5 0.924910 0.885483 0.500000
O O6 0.933260 0.784409 0.675210
O O7 0.886774 0.898256 0.759815
O O8 0.000000 0.887141 0.695858
O O9 0.063049 0.358173 0.298732
O O10 0.000000 0.275507 0.160973
O O11 0.408682 0.068867 0.500000
O O12 0.339186 0.077604 0.302201
O O13 0.427306 0.000000 0.276695
O O14 0.274067 0.416745 0.251375
O O15 0.328871 0.414876 0.000000
O O16 0.730093 0.888686 0.500000
#
# Coordination Sequence:
#
# PCOD9484802 Si02
#       6
#    16  16  16  16  16  16
#     4   9  18  30  43  62  89 118 147 183 227 273
#     4   9  17  29  45  67  97 128 155 184 217 258
#     4   9  17  28  44  65  89 120 158 195 231 271
#     4   9  18  31  45  63  88 117 152 198 246 281
#     4  10  19  29  44  66  91 119 149 180 218 270
#     4  10  19  30  46  65  85 112 147 188 233 278
#
# _framework density 21.302143999999998
#
# number of rings (size 3 to 8) (size 9 to 14) (size 15 to 20)
#    0.000    2.667    0.000    2.000    0.000    8.667 
#    0.000    4.167    0.000   12.500    0.000    4.667 
#    0.000    0.667    0.000    7.667    0.000    2.333 
#
# Total GULP energy -267211.677718 kJ/mol
# GULP energy per Si atom -5566.909952 kJ/mol
# Density = 2.125366 g / cm^3
# Si number density = 21.302144 Si / 1000 Ang^3
#
#
#
# Elastic Constant Matrix: (Units=GPa)
#
#
# Indices 1 2 3 4 5 6 
#
# 1 170.6285 -2.8362 67.7496 0.0000 0.0000 0.0000
# 2 -2.8362 31.0713 -4.7187 0.0000 0.0000 0.0000
# 3 67.7496 -4.7187 101.7263 0.0000 0.0000 0.0000
# 4 0.0000 0.0000 0.0000 -5.2972 0.0000 0.0000
# 5 0.0000 0.0000 0.0000 0.0000 6.7906 0.0000
# 6 0.0000 0.0000 0.0000 0.0000 0.0000 -148.8283
#
#
#
# Elastic Compliance Matrix: (Units=1/GPa)
#
#
# Indices 1 2 3 4 5 6 
#
# 1 0.007968 -0.000079 -0.005310 0.000000 0.000000 0.000000
# 2 -0.000079 0.032413 0.001556 0.000000 0.000000 0.000000
# 3 -0.005310 0.001556 0.013439 0.000000 0.000000 0.000000
# 4 0.000000 0.000000 0.000000 -0.188780 0.000000 0.000000
# 5 0.000000 0.000000 0.000000 0.000000 0.147262 0.000000
# 6 0.000000 0.000000 0.000000 0.000000 0.000000 -0.006719
#
#
# Mechanical properties :
#
#
# Convention : Reuss Voigt Hill
#
# Bulk Modulus (GPa) = 21.66668 47.09061 34.37865
# Shear Modulus (GPa) = 174.62169 -13.25154 80.68507
#
# Velocity S-wave (km/s) = 9.06376 -2.49685 6.16107
# Velocity P-wave (km/s) = 10.94207 3.72044 8.17222
#
# Compressibility (1/GPa) = 0.04615381
#
# Stress axis : x y z
#
# Youngs Moduli (GPa) = 125.50435 30.85166 74.40972
#
# Poissons Ratio (x) = 0.00244 0.39513
# Poissons Ratio (y) = 0.00993 -0.11580
# Poissons Ratio (z) = 0.66646 -0.04801
#
# Static dielectric constant tensor:
#      x y z
#    x 1.817240 0.000000 0.000000 
#    y 0.000000 1.839380 0.000000 
#    z 0.000000 0.000000 1.746920 
# 
# From -- ./inp_files/16648.got.cif
#   From: 2010.05.17/outbox.cif.g08.bks.cpg/sg65_9_cif.got.tgz:16648.got - 2010.06.03 17:01:31.
