data_PCOD9484638
_publ_section_title
;
Structure prediction by ZEFSAII (Michael W. Deem and Ramdas Pophale) SiO2 
 PCOD9484638
Probable space group: C M M M
;
_chemical_formula_sum "Si O2"
_cell_formula_units_Z 80
_cell_length_a 7.746484
_cell_length_b 38.674007
_cell_length_c 19.006854
_cell_angle_alpha 90.000000
_cell_angle_beta 90.000000
_cell_angle_gamma 90.000000
_cell_volume 5694.217326
_symmetry_space_group_name_H-M "C M M M"
_symmetry_group_IT_number 65
_symmetry_cell_setting 'orthorhombic'
loop_
_space_group_symop_operation_xyz
x,y,z
-x,-y,z
x,-y,-z
-x,y,-z
-x,-y,-z
x,y,-z
-x,y,z
x,-y,z
1/2+x,1/2+y,z
1/2-x,1/2-y,z
1/2+x,1/2-y,-z
1/2-x,1/2+y,-z
1/2-x,1/2-y,-z
1/2+x,1/2+y,-z
1/2-x,1/2+y,z
1/2+x,1/2-y,z
loop_
_atom_site_type_symbol
_atom_site_label
_atom_site_fract_x
_atom_site_fract_y
_atom_site_fract_z
Si Si1 0.791817 0.790180 0.000000
Si Si2 0.703615 0.407497 0.915290
Si Si3 0.205775 0.290577 0.729273
Si Si4 0.500000 0.960678 0.914783
Si Si5 0.792211 0.290841 0.575542
Si Si6 0.794556 0.833096 0.133081
O O1 0.750000 0.750000 0.000000
O O2 0.725200 0.809276 0.930196
O O3 0.000000 0.792820 0.000000
O O4 0.500000 0.414035 0.900793
O O5 0.829036 0.438968 0.895702
O O6 0.765038 0.372461 0.876881
O O7 0.717324 0.401564 0.000000
O O8 0.250000 0.250000 0.740522
O O9 0.273257 0.302451 0.652182
O O10 0.263952 0.314521 0.793076
O O11 0.000000 0.292302 0.726891
O O12 0.500000 0.000000 0.888326
O O13 0.500000 0.962225 0.000000
O O14 0.727767 0.304970 0.500000
O O15 0.750000 0.250000 0.574944
O O16 0.000000 0.294775 0.575435
O O17 0.000000 0.835304 0.122822
#
# Coordination Sequence:
#
# PCOD9484638 Si02
#       6
#     8  16  16   8  16  16
#     4  10  20  32  40  52  70  97 139 178 214 245
#     4   9  17  31  47  62  82 111 140 167 208 252
#     4  10  19  28  39  56  76 100 133 175 217 249
#     4   9  18  30  46  70  90 102 131 173 209 255
#     4   8  14  25  39  53  70  93 123 161 206 254
#     4  10  19  31  43  54  75 104 137 174 208 249
#
# _framework density 14.049341
#
# number of rings (size 3 to 8) (size 9 to 14) (size 15 to 20)
#    0.000    2.700    1.000    1.200    1.400    3.600 
#    0.000    2.000    0.000    0.000    0.000    0.000 
#    0.000    0.000    0.000    0.000    0.000    2.000 
#
# Total GULP energy -222673.363355 kJ/mol
# GULP energy per Si atom -5566.834084 kJ/mol
# Density = 1.401736 g / cm^3
# Si number density = 14.049341 Si / 1000 Ang^3
#
#
#
# Elastic Constant Matrix: (Units=GPa)
#
#
# Indices 1 2 3 4 5 6 
#
# 1 40.5190 30.9264 12.0635 0.0000 0.0000 0.0000
# 2 30.9264 105.2319 49.8667 0.0000 0.0000 0.0000
# 3 12.0635 49.8667 101.9209 0.0000 0.0000 0.0000
# 4 0.0000 0.0000 0.0000 2.8345 0.0000 0.0000
# 5 0.0000 0.0000 0.0000 0.0000 -4.2477 0.0000
# 6 0.0000 0.0000 0.0000 0.0000 0.0000 17.7002
#
#
#
# Elastic Compliance Matrix: (Units=1/GPa)
#
#
# Indices 1 2 3 4 5 6 
#
# 1 0.031904 -0.009877 0.001056 0.000000 0.000000 0.000000
# 2 -0.009877 0.015429 -0.006380 0.000000 0.000000 0.000000
# 3 0.001056 -0.006380 0.012808 0.000000 0.000000 0.000000
# 4 0.000000 0.000000 0.000000 0.352798 0.000000 0.000000
# 5 0.000000 0.000000 0.000000 0.000000 -0.235421 0.000000
# 6 0.000000 0.000000 0.000000 0.000000 0.000000 0.056497
#
#
# Mechanical properties :
#
#
# Convention : Reuss Voigt Hill
#
# Bulk Modulus (GPa) = 33.62486 48.15389 40.88938
# Shear Modulus (GPa) = 18.22638 13.57841 15.90239
#
# Velocity S-wave (km/s) = 3.60573 3.11220 3.36802
# Velocity P-wave (km/s) = 6.42810 6.87485 6.65522
#
# Compressibility (1/GPa) = 0.02973990
#
# Stress axis : x y z
#
# Youngs Moduli (GPa) = 31.34428 64.81464 78.07664
#
# Poissons Ratio (x) = 0.64015 -0.08246
# Poissons Ratio (y) = 0.30957 0.49811
# Poissons Ratio (z) = -0.03310 0.41350
#
# Static dielectric constant tensor:
#      x y z
#    x 1.503900 0.000000 0.000000 
#    y 0.000000 1.431430 0.000000 
#    z 0.000000 0.000000 1.505690 
# 
# From -- ./inp_files/60563.got.cif
#   From: 2010.05.17/outbox.cif.g08.bks.cpg/sg65_31_cif.got.tgz:60563.got - 2010.06.03 17:01:31.
