data_PCOD9484263
_publ_section_title
;
Structure prediction by ZEFSAII (Michael W. Deem and Ramdas Pophale) SiO2 
 PCOD9484263
Probable space group: C M M M
;
_chemical_formula_sum "Si O2"
_cell_formula_units_Z 88
_cell_length_a 18.611636
_cell_length_b 21.835086
_cell_length_c 13.241637
_cell_angle_alpha 90.000000
_cell_angle_beta 90.000000
_cell_angle_gamma 90.000000
_cell_volume 5381.224801
_symmetry_space_group_name_H-M "C M M M"
_symmetry_group_IT_number 65
_symmetry_cell_setting 'orthorhombic'
loop_
_space_group_symop_operation_xyz
x,y,z
-x,-y,z
x,-y,-z
-x,y,-z
-x,-y,-z
x,y,-z
-x,y,z
x,-y,z
1/2+x,1/2+y,z
1/2-x,1/2-y,z
1/2+x,1/2-y,-z
1/2-x,1/2+y,-z
1/2-x,1/2-y,-z
1/2+x,1/2+y,-z
1/2-x,1/2+y,z
1/2+x,1/2-y,z
loop_
_atom_site_type_symbol
_atom_site_label
_atom_site_fract_x
_atom_site_fract_y
_atom_site_fract_z
Si Si1 0.677474 0.815139 0.617766
Si Si2 0.084774 0.248359 0.119434
Si Si3 0.585054 0.431144 0.378903
Si Si4 0.835022 0.813084 0.703564
Si Si5 0.087759 0.500000 0.116208
Si Si6 0.914928 0.622510 0.228453
O O1 0.693518 0.824043 0.500000
O O2 0.750018 0.819310 0.684320
O O3 0.646031 0.746648 0.634975
O O4 0.623187 0.863223 0.666074
O O5 0.137004 0.206039 0.185952
O O6 0.096810 0.318037 0.157409
O O7 0.000000 0.234231 0.139855
O O8 0.096611 0.243428 0.000000
O O9 0.593990 0.427720 0.500000
O O10 0.500000 0.425162 0.357863
O O11 0.607526 0.500000 0.347163
O O12 0.627340 0.375377 0.329922
O O13 0.111028 0.438825 0.173895
O O14 0.000000 0.500000 0.114935
O O15 0.111242 0.500000 0.000000
O O16 0.000000 0.617055 0.243827
#
# Coordination Sequence:
#
# PCOD9484263 Si02
#       6
#    16  16  16  16   8  16
#     4  10  20  33  49  71 100 131 165 205 250 302
#     4   9  17  30  50  76 102 127 161 207 253 296
#     4   9  17  29  47  72  97 122 159 204 245 290
#     4  10  18  32  50  70  97 130 164 200 248 300
#     4   9  16  30  53  73  93 125 161 202 250 293
#     4   9  18  32  49  72  99 128 168 210 248 294
#
# _framework density 16.353155000000001
#
# number of rings (size 3 to 8) (size 9 to 14) (size 15 to 20)
#    0.000    2.636    0.000    3.818    0.000    3.273 
#    1.636    8.636    0.000    2.182    0.000    2.545 
#    0.000    0.000    0.000    0.000    0.000    0.000 
#
# Total GULP energy -245100.296649 kJ/mol
# GULP energy per Si atom -5570.461287 kJ/mol
# Density = 1.631593 g / cm^3
# Si number density = 16.353155 Si / 1000 Ang^3
#
#
#
# Elastic Constant Matrix: (Units=GPa)
#
#
# Indices 1 2 3 4 5 6 
#
# 1 45.6246 50.7387 49.4777 0.0000 0.0000 0.0000
# 2 50.7387 125.2824 41.4280 0.0000 0.0000 0.0000
# 3 49.4777 41.4280 92.4600 0.0000 0.0000 0.0000
# 4 0.0000 0.0000 0.0000 18.2066 0.0000 0.0000
# 5 0.0000 0.0000 0.0000 0.0000 20.3243 0.0000
# 6 0.0000 0.0000 0.0000 0.0000 0.0000 20.3903
#
#
#
# Elastic Compliance Matrix: (Units=1/GPa)
#
#
# Indices 1 2 3 4 5 6 
#
# 1 0.086959 -0.023279 -0.036103 0.000000 0.000000 0.000000
# 2 -0.023279 0.015602 0.005467 0.000000 0.000000 0.000000
# 3 -0.036103 0.005467 0.027686 0.000000 0.000000 0.000000
# 4 0.000000 0.000000 0.000000 0.054925 0.000000 0.000000
# 5 0.000000 0.000000 0.000000 0.000000 0.049202 0.000000
# 6 0.000000 0.000000 0.000000 0.000000 0.000000 0.049043
#
#
# Mechanical properties :
#
#
# Convention : Reuss Voigt Hill
#
# Bulk Modulus (GPa) = 44.61305 60.73955 52.67630
# Shear Modulus (GPa) = 12.54006 19.89908 16.21957
#
# Velocity S-wave (km/s) = 2.77217 3.49210 3.15275
# Velocity P-wave (km/s) = 6.13081 7.31319 6.74794
#
# Compressibility (1/GPa) = 0.02241497
#
# Stress axis : x y z
#
# Youngs Moduli (GPa) = 11.49963 64.09281 36.11936
#
# Poissons Ratio (x) = 1.49205 1.30403
# Poissons Ratio (y) = 0.26771 -0.19745
# Poissons Ratio (z) = 0.41518 -0.35037
#
# Static dielectric constant tensor:
#      x y z
#    x 1.566840 0.000000 0.000000 
#    y 0.000000 1.550140 0.000000 
#    z 0.000000 0.000000 1.533060 
# 
# From -- ./inp_files/26818.got.cif
#   From: 2010.05.17/outbox.cif.g08.bks.cpg/sg65_14_cif.got.tgz:26818.got - 2010.06.03 17:01:31.
