data_PCOD9484361
_publ_section_title
;
Structure prediction by ZEFSAII (Michael W. Deem and Ramdas Pophale) SiO2 
 PCOD9484361
Probable space group: C M M M
;
_chemical_formula_sum "Si O2"
_cell_formula_units_Z 104
_cell_length_a 8.627831
_cell_length_b 18.973673
_cell_length_c 34.455911
_cell_angle_alpha 90.000000
_cell_angle_beta 90.000000
_cell_angle_gamma 90.000000
_cell_volume 5640.489279
_symmetry_space_group_name_H-M "C M M M"
_symmetry_group_IT_number 65
_symmetry_cell_setting 'orthorhombic'
loop_
_space_group_symop_operation_xyz
x,y,z
-x,-y,z
x,-y,-z
-x,y,-z
-x,-y,-z
x,y,-z
-x,y,z
x,-y,z
1/2+x,1/2+y,z
1/2-x,1/2-y,z
1/2+x,1/2-y,-z
1/2-x,1/2+y,-z
1/2-x,1/2-y,-z
1/2+x,1/2+y,-z
1/2-x,1/2+y,z
1/2+x,1/2-y,z
loop_
_atom_site_type_symbol
_atom_site_label
_atom_site_fract_x
_atom_site_fract_y
_atom_site_fract_z
Si Si1 0.310927 0.580669 0.117060
Si Si2 0.315723 0.829271 0.419547
Si Si3 0.313768 0.671002 0.191982
Si Si4 0.815134 0.169942 0.500000
Si Si5 0.684113 0.416369 0.651814
Si Si6 0.814221 0.417615 0.263679
Si Si7 0.187284 0.171780 0.956002
O O1 0.500000 0.579709 0.116940
O O2 0.258151 0.500000 0.120084
O O3 0.263096 0.627138 0.153947
O O4 0.260996 0.617840 0.077137
O O5 0.500000 0.825612 0.422953
O O6 0.250000 0.750000 0.415297
O O7 0.246643 0.860862 0.459571
O O8 0.265106 0.873986 0.382496
O O9 0.500000 0.672960 0.192545
O O10 0.250000 0.750000 0.190509
O O11 0.254092 0.630528 0.229944
O O12 0.750000 0.250000 0.500000
O O13 0.000000 0.171195 0.500000
O O14 0.500000 0.403860 0.650657
O O15 0.711868 0.500000 0.646892
O O16 0.749254 0.396843 0.694149
O O17 0.771430 0.500000 0.257043
O O18 0.000000 0.412694 0.263995
O O19 0.250000 0.250000 0.947875
O O20 0.000000 0.174290 0.955190
O O21 0.234514 0.152348 0.000000
#
# Coordination Sequence:
#
# PCOD9484361 Si02
#       7
#    16  16  16   8  16  16  16
#     4   9  18  32  51  76 104 135 174 219 265 315
#     4  11  21  35  56  82 112 145 185 229 274 323
#     4  11  22  36  55  78 106 139 176 219 267 317
#     4  10  18  32  53  78 109 144 185 229 277 327
#     4  10  21  38  59  83 112 145 180 219 268 324
#     4  10  21  38  59  82 108 138 174 216 263 318
#     4   9  17  30  50  75 103 136 173 215 263 314
#
# _framework density 18.438116000000001
#
# number of rings (size 3 to 8) (size 9 to 14) (size 15 to 20)
#    0.000    2.000    0.000    5.308    0.000    3.385 
#    0.000    5.769    0.000    4.615    0.000    2.154 
#    0.000    0.000    0.000    0.000    0.000    0.000 
#
# Total GULP energy -290390.250128 kJ/mol
# GULP energy per Si atom -5584.427887 kJ/mol
# Density = 1.839615 g / cm^3
# Si number density = 18.438116 Si / 1000 Ang^3
#
#
#
# Elastic Constant Matrix: (Units=GPa)
#
#
# Indices 1 2 3 4 5 6 
#
# 1 80.9213 47.1446 61.7273 0.0000 0.0000 0.0000
# 2 47.1446 107.5612 109.0744 0.0000 0.0000 0.0000
# 3 61.7273 109.0744 191.8165 0.0000 0.0000 0.0000
# 4 0.0000 0.0000 0.0000 36.4424 0.0000 0.0000
# 5 0.0000 0.0000 0.0000 0.0000 20.4864 0.0000
# 6 0.0000 0.0000 0.0000 0.0000 0.0000 23.2555
#
#
#
# Elastic Compliance Matrix: (Units=1/GPa)
#
#
# Indices 1 2 3 4 5 6 
#
# 1 0.017280 -0.004570 -0.002962 0.000000 0.000000 0.000000
# 2 -0.004570 0.023169 -0.011704 0.000000 0.000000 0.000000
# 3 -0.002962 -0.011704 0.012822 0.000000 0.000000 0.000000
# 4 0.000000 0.000000 0.000000 0.027441 0.000000 0.000000
# 5 0.000000 0.000000 0.000000 0.000000 0.048813 0.000000
# 6 0.000000 0.000000 0.000000 0.000000 0.000000 0.043000
#
#
# Mechanical properties :
#
#
# Convention : Reuss Voigt Hill
#
# Bulk Modulus (GPa) = 67.57615 90.68795 79.13205
# Shear Modulus (GPa) = 23.15576 26.86039 25.00808
#
# Velocity S-wave (km/s) = 3.54766 3.82093 3.68683
# Velocity P-wave (km/s) = 7.31512 8.29203 7.81885
#
# Compressibility (1/GPa) = 0.01479812
#
# Stress axis : x y z
#
# Youngs Moduli (GPa) = 57.87180 43.16136 77.99209
#
# Poissons Ratio (x) = 0.19726 0.23100
# Poissons Ratio (y) = 0.26449 0.91282
# Poissons Ratio (z) = 0.17141 0.50516
#
# Static dielectric constant tensor:
#      x y z
#    x 1.625420 0.000000 0.000000 
#    y 0.000000 1.613260 0.000000 
#    z 0.000000 0.000000 1.632920 
# 
# From -- ./inp_files/73369.got.cif
#   From: 2010.05.17/outbox.cif.g08.bks.cpg/sg65_37_cif.got.tgz:73369.got - 2010.06.03 17:01:31.
