data_PCOD9484204
_publ_section_title
;
Structure prediction by ZEFSAII (Michael W. Deem and Ramdas Pophale) SiO2 
 PCOD9484204
Probable space group: C M M M
;
_chemical_formula_sum "Si O2"
_cell_formula_units_Z 96
_cell_length_a 26.142613
_cell_length_b 7.747690
_cell_length_c 24.513205
_cell_angle_alpha 90.000000
_cell_angle_beta 90.000000
_cell_angle_gamma 90.000000
_cell_volume 4965.023707
_symmetry_space_group_name_H-M "C M M M"
_symmetry_group_IT_number 65
_symmetry_cell_setting 'orthorhombic'
loop_
_space_group_symop_operation_xyz
x,y,z
-x,-y,z
x,-y,-z
-x,y,-z
-x,-y,-z
x,y,-z
-x,y,z
x,-y,z
1/2+x,1/2+y,z
1/2-x,1/2-y,z
1/2+x,1/2-y,-z
1/2-x,1/2+y,-z
1/2-x,1/2-y,-z
1/2+x,1/2+y,-z
1/2-x,1/2+y,z
1/2+x,1/2-y,z
loop_
_atom_site_type_symbol
_atom_site_label
_atom_site_fract_x
_atom_site_fract_y
_atom_site_fract_z
Si Si1 0.500000 0.292861 0.937487
Si Si2 0.598844 0.794364 0.133653
Si Si3 0.191464 0.794841 0.438586
Si Si4 0.440214 0.211440 0.750272
Si Si5 0.500000 0.788217 0.437448
Si Si6 0.191931 0.292175 0.937880
Si Si7 0.595986 0.205496 0.366377
O O1 0.500000 0.500000 0.938158
O O2 0.550120 0.233270 0.905183
O O3 0.500000 0.230349 0.000000
O O4 0.585608 0.726310 0.193804
O O5 0.649186 0.724630 0.103535
O O6 0.606061 0.000000 0.139710
O O7 0.180801 0.724488 0.500000
O O8 0.250000 0.750000 0.424912
O O9 0.150181 0.735794 0.394706
O O10 0.187709 0.000000 0.441400
O O11 0.500000 0.261135 0.748592
O O12 0.412158 0.270501 0.695144
O O13 0.439583 0.000000 0.751410
O O14 0.500000 0.731777 0.500000
O O15 0.449525 0.729300 0.405378
O O16 0.500000 0.000000 0.437806
O O17 0.187386 0.500000 0.939741
O O18 0.250000 0.250000 0.922059
O O19 0.183610 0.227934 0.000000
O O20 0.588737 0.000000 0.363124
#
# Coordination Sequence:
#
# PCOD9484204 Si02
#       7
#     8  16  16  16   8  16  16
#     4  11  23  34  47  75 111 139 168 217 278 325
#     4  10  19  34  56  77 101 137 181 219 255 311
#     4  10  21  37  56  78 105 138 177 221 270 320
#     4   9  16  30  53  79 104 137 177 214 252 299
#     4   9  16  25  43  73 103 131 166 205 244 296
#     4   9  18  32  51  75 100 130 169 211 258 309
#     4  10  18  31  53  79 107 138 175 214 256 310
#
# _framework density 19.335256000000001
#
# number of rings (size 3 to 8) (size 9 to 14) (size 15 to 20)
#    0.000    2.333    1.667    1.750    0.000    3.667 
#    0.000    3.750    0.000    3.500    0.000    0.000 
#    0.000    0.000    0.000    0.000    0.000    0.000 
#
# Total GULP energy -267916.886197 kJ/mol
# GULP energy per Si atom -5581.601796 kJ/mol
# Density = 1.929125 g / cm^3
# Si number density = 19.335256 Si / 1000 Ang^3
#
#
#
# Elastic Constant Matrix: (Units=GPa)
#
#
# Indices 1 2 3 4 5 6 
#
# 1 161.5434 -6.5788 129.1050 0.0000 0.0000 0.0000
# 2 -6.5788 23.8380 4.7424 0.0000 0.0000 0.0000
# 3 129.1050 4.7424 210.2357 0.0000 0.0000 0.0000
# 4 0.0000 0.0000 0.0000 7.1510 0.0000 0.0000
# 5 0.0000 0.0000 0.0000 0.0000 22.7574 0.0000
# 6 0.0000 0.0000 0.0000 0.0000 0.0000 18.3977
#
#
#
# Elastic Compliance Matrix: (Units=1/GPa)
#
#
# Indices 1 2 3 4 5 6 
#
# 1 0.012745 0.005097 -0.007941 0.000000 0.000000 0.000000
# 2 0.005097 0.044178 -0.004127 0.000000 0.000000 0.000000
# 3 -0.007941 -0.004127 0.009726 0.000000 0.000000 0.000000
# 4 0.000000 0.000000 0.000000 0.139840 0.000000 0.000000
# 5 0.000000 0.000000 0.000000 0.000000 0.043942 0.000000
# 6 0.000000 0.000000 0.000000 0.000000 0.000000 0.054354
#
#
# Mechanical properties :
#
#
# Convention : Reuss Voigt Hill
#
# Bulk Modulus (GPa) = 18.97292 72.23937 45.60615
# Shear Modulus (GPa) = 14.86787 27.55112 21.20950
#
# Velocity S-wave (km/s) = 2.77601 3.77890 3.31559
# Velocity P-wave (km/s) = 4.48429 7.51550 6.18836
#
# Compressibility (1/GPa) = 0.05270669
#
# Stress axis : x y z
#
# Youngs Moduli (GPa) = 78.46454 22.63595 102.81257
#
# Poissons Ratio (x) = -0.11538 0.81648
# Poissons Ratio (y) = -0.39994 0.42427
# Poissons Ratio (z) = 0.62312 0.09341
#
# Static dielectric constant tensor:
#      x y z
#    x 1.659710 0.000000 0.000000 
#    y 0.000000 1.717290 0.000000 
#    z 0.000000 0.000000 1.685740 
# 
# From -- ./inp_files/71457.got.cif
#   From: 2010.05.17/outbox.cif.g08.bks.cpg/sg65_36_cif.got.tgz:71457.got - 2010.06.03 17:01:31.
