data_PCOD9484030
_publ_section_title
;
Structure prediction by ZEFSAII (Michael W. Deem and Ramdas Pophale) SiO2 
 PCOD9484030
Probable space group: C M M M
;
_chemical_formula_sum "Si O2"
_cell_formula_units_Z 72
_cell_length_a 31.264052
_cell_length_b 19.913262
_cell_length_c 7.439231
_cell_angle_alpha 90.000000
_cell_angle_beta 90.000000
_cell_angle_gamma 90.000000
_cell_volume 4631.436529
_symmetry_space_group_name_H-M "C M M M"
_symmetry_group_IT_number 65
_symmetry_cell_setting 'orthorhombic'
loop_
_space_group_symop_operation_xyz
x,y,z
-x,-y,z
x,-y,-z
-x,y,-z
-x,-y,-z
x,y,-z
-x,y,z
x,-y,z
1/2+x,1/2+y,z
1/2-x,1/2-y,z
1/2+x,1/2-y,-z
1/2-x,1/2+y,-z
1/2-x,1/2-y,-z
1/2+x,1/2+y,-z
1/2-x,1/2+y,z
1/2+x,1/2-y,z
loop_
_atom_site_type_symbol
_atom_site_label
_atom_site_fract_x
_atom_site_fract_y
_atom_site_fract_z
Si Si1 0.160106 0.116304 0.500000
Si Si2 0.935092 0.924270 0.500000
Si Si3 0.744750 0.076692 0.500000
Si Si4 0.719251 0.813817 0.213655
Si Si5 0.360035 0.272879 0.787199
Si Si6 0.953030 0.812128 0.213159
O O1 0.116397 0.075239 0.500000
O O2 0.203787 0.076723 0.500000
O O3 0.157651 0.165143 0.672532
O O4 0.948890 0.880069 0.328383
O O5 0.951023 0.000000 0.500000
O O6 0.730625 0.121321 0.670879
O O7 0.729050 0.000000 0.500000
O O8 0.750000 0.750000 0.259999
O O9 0.670763 0.789551 0.252089
O O10 0.724110 0.825347 0.000000
O O11 0.410650 0.268604 0.743721
O O12 0.355897 0.286116 0.000000
O O13 0.000000 0.782306 0.252657
O O14 0.951370 0.826136 0.000000
#
# Coordination Sequence:
#
# PCOD9484030 Si02
#       6
#     8   8   8  16  16  16
#     4  10  18  31  46  63  89 121 157 196 232 267
#     4  10  20  31  42  58  84 121 159 188 222 273
#     4  12  23  32  46  71 102 129 156 196 240 280
#     4  10  19  33  53  72  92 123 162 198 233 280
#     4   9  17  30  50  70  88 115 154 194 231 271
#     4   9  18  31  46  65  88 112 143 190 239 272
#
# _framework density 15.545933
#
# number of rings (size 3 to 8) (size 9 to 14) (size 15 to 20)
#    0.000    2.222    2.222    1.667    0.000    1.778 
#    0.000    1.111    0.000    4.000    0.000    0.000 
#    0.000    1.778    0.000    8.667    0.000    0.000 
#
# Total GULP energy -200560.373031 kJ/mol
# GULP energy per Si atom -5571.121473 kJ/mol
# Density = 1.551055 g / cm^3
# Si number density = 15.545933 Si / 1000 Ang^3
#
#
#
# Elastic Constant Matrix: (Units=GPa)
#
#
# Indices 1 2 3 4 5 6 
#
# 1 129.5262 50.4269 31.7105 0.0000 0.0000 0.0000
# 2 50.4269 87.8354 37.5348 0.0000 0.0000 0.0000
# 3 31.7105 37.5348 53.4834 0.0000 0.0000 0.0000
# 4 0.0000 0.0000 0.0000 -12.0118 0.0000 0.0000
# 5 0.0000 0.0000 0.0000 0.0000 18.2805 0.0000
# 6 0.0000 0.0000 0.0000 0.0000 0.0000 4.8060
#
#
#
# Elastic Compliance Matrix: (Units=1/GPa)
#
#
# Indices 1 2 3 4 5 6 
#
# 1 0.010223 -0.004684 -0.002774 0.000000 0.000000 0.000000
# 2 -0.004684 0.018408 -0.010142 0.000000 0.000000 0.000000
# 3 -0.002774 -0.010142 0.027460 0.000000 0.000000 0.000000
# 4 0.000000 0.000000 0.000000 -0.083251 0.000000 0.000000
# 5 0.000000 0.000000 0.000000 0.000000 0.054703 0.000000
# 6 0.000000 0.000000 0.000000 0.000000 0.000000 0.208073
#
#
# Mechanical properties :
#
#
# Convention : Reuss Voigt Hill
#
# Bulk Modulus (GPa) = 47.86668 56.68769 52.27719
# Shear Modulus (GPa) = 17.99998 12.29312 15.14655
#
# Velocity S-wave (km/s) = 3.40642 2.81510 3.12478
# Velocity P-wave (km/s) = 6.80654 6.86369 6.83517
#
# Compressibility (1/GPa) = 0.02089136
#
# Stress axis : x y z
#
# Youngs Moduli (GPa) = 97.81814 54.32534 36.41696
#
# Poissons Ratio (x) = 0.25444 0.10103
# Poissons Ratio (y) = 0.45814 0.36933
# Poissons Ratio (z) = 0.27138 0.55095
#
# Static dielectric constant tensor:
#      x y z
#    x 1.577230 0.000000 0.000000 
#    y 0.000000 1.469640 0.000000 
#    z 0.000000 0.000000 1.539470 
# 
# From -- ./inp_files/9532.got.cif
#   From: 2010.05.17/outbox.cif.g08.bks.cpg/sg65_5_cif.got.tgz:9532.got - 2010.06.03 17:01:31.
