data_PCOD9484903
_publ_section_title
;
Structure prediction by ZEFSAII (Michael W. Deem and Ramdas Pophale) SiO2 
 PCOD9484903
Probable space group: C M M M
;
_chemical_formula_sum "Si O2"
_cell_formula_units_Z 80
_cell_length_a 24.782532
_cell_length_b 27.147662
_cell_length_c 7.751214
_cell_angle_alpha 90.000000
_cell_angle_beta 90.000000
_cell_angle_gamma 90.000000
_cell_volume 5214.922232
_symmetry_space_group_name_H-M "C M M M"
_symmetry_group_IT_number 65
_symmetry_cell_setting 'orthorhombic'
loop_
_space_group_symop_operation_xyz
x,y,z
-x,-y,z
x,-y,-z
-x,y,-z
-x,-y,-z
x,y,-z
-x,y,z
x,-y,z
1/2+x,1/2+y,z
1/2-x,1/2-y,z
1/2+x,1/2-y,-z
1/2-x,1/2+y,-z
1/2-x,1/2-y,-z
1/2+x,1/2+y,-z
1/2-x,1/2+y,z
1/2+x,1/2-y,z
loop_
_atom_site_type_symbol
_atom_site_label
_atom_site_fract_x
_atom_site_fract_y
_atom_site_fract_z
Si Si1 0.381464 0.742359 0.706982
Si Si2 0.000000 0.107898 0.788378
Si Si3 0.215942 0.698755 0.699711
Si Si4 0.682037 0.645842 0.708189
Si Si5 0.000000 0.220712 0.795377
Si Si6 0.390013 0.555567 0.207103
O O1 0.374710 0.742249 0.500000
O O2 0.341590 0.785060 0.775857
O O3 0.358738 0.689242 0.769639
O O4 0.444380 0.746427 0.743746
O O5 0.946024 0.079925 0.730836
O O6 0.000000 0.164411 0.726855
O O7 0.000000 0.108261 0.000000
O O8 0.206601 0.684354 0.500000
O O9 0.250000 0.750000 0.698401
O O10 0.258056 0.659412 0.774950
O O11 0.684058 0.649466 0.500000
O O12 0.658021 0.593148 0.752665
O O13 0.000000 0.217016 0.000000
O O14 0.382945 0.500000 0.272852
O O15 0.394230 0.552929 0.000000
#
# Coordination Sequence:
#
# PCOD9484903 Si02
#       6
#    16   8  16  16   8  16
#     4   9  16  27  42  58  76 100 130 158 192 238
#     4   9  17  29  40  49  69 103 139 170 198 230
#     4   7  12  24  41  58  74  95 122 154 194 240
#     4   9  16  27  43  59  75  95 125 166 204 234
#     4  11  19  26  39  57  80 106 133 166 199 226
#     4  10  19  30  42  54  72 103 139 170 203 239
#
# _framework density 15.340593
#
# number of rings (size 3 to 8) (size 9 to 14) (size 15 to 20)
#    0.000    3.000    2.000    3.000    0.000    1.600 
#    0.000    1.500    0.000    4.800    0.000    0.000 
#    0.000    0.000    0.000    0.900    0.000   18.800 
#
# Total GULP energy -222712.618325 kJ/mol
# GULP energy per Si atom -5567.815458 kJ/mol
# Density = 1.530568 g / cm^3
# Si number density = 15.340593 Si / 1000 Ang^3
#
#
#
# Elastic Constant Matrix: (Units=GPa)
#
#
# Indices 1 2 3 4 5 6 
#
# 1 146.5340 71.3088 4.8008 0.0000 0.0000 0.0000
# 2 71.3088 70.1620 2.6892 0.0000 0.0000 0.0000
# 3 4.8008 2.6892 22.2488 0.0000 0.0000 0.0000
# 4 0.0000 0.0000 0.0000 10.8400 0.0000 0.0000
# 5 0.0000 0.0000 0.0000 0.0000 6.3162 0.0000
# 6 0.0000 0.0000 0.0000 0.0000 0.0000 14.7657
#
#
#
# Elastic Compliance Matrix: (Units=1/GPa)
#
#
# Indices 1 2 3 4 5 6 
#
# 1 0.013538 -0.013711 -0.001264 0.000000 0.000000 0.000000
# 2 -0.013711 0.028205 -0.000451 0.000000 0.000000 0.000000
# 3 -0.001264 -0.000451 0.045273 0.000000 0.000000 0.000000
# 4 0.000000 0.000000 0.000000 0.092251 0.000000 0.000000
# 5 0.000000 0.000000 0.000000 0.000000 0.158322 0.000000
# 6 0.000000 0.000000 0.000000 0.000000 0.000000 0.067724
#
#
# Mechanical properties :
#
#
# Convention : Reuss Voigt Hill
#
# Bulk Modulus (GPa) = 17.80454 44.06028 30.93241
# Shear Modulus (GPa) = 10.99176 17.06079 14.02627
#
# Velocity S-wave (km/s) = 2.67968 3.33848 3.02706
# Velocity P-wave (km/s) = 4.60496 6.60639 5.69429
#
# Compressibility (1/GPa) = 0.05616546
#
# Stress axis : x y z
#
# Youngs Moduli (GPa) = 73.86652 35.45484 22.08804
#
# Poissons Ratio (x) = 0.48611 0.02792
# Poissons Ratio (y) = 1.01277 0.00995
# Poissons Ratio (z) = 0.09337 0.01598
#
# Static dielectric constant tensor:
#      x y z
#    x 1.555070 0.000000 0.000000 
#    y 0.000000 1.500580 0.000000 
#    z 0.000000 0.000000 1.573140 
# 
# From -- ./inp_files/14511.got.cif
#   From: 2010.05.17/outbox.cif.g08.bks.cpg/sg65_8_cif.got.tgz:14511.got - 2010.06.03 17:01:31.
