data_PCOD9484272
_publ_section_title
;
Structure prediction by ZEFSAII (Michael W. Deem and Ramdas Pophale) SiO2 
 PCOD9484272
Probable space group: C M M M
;
_chemical_formula_sum "Si O2"
_cell_formula_units_Z 80
_cell_length_a 24.097984
_cell_length_b 9.504536
_cell_length_c 19.900378
_cell_angle_alpha 90.000000
_cell_angle_beta 90.000000
_cell_angle_gamma 90.000000
_cell_volume 4557.985691
_symmetry_space_group_name_H-M "C M M M"
_symmetry_group_IT_number 65
_symmetry_cell_setting 'orthorhombic'
loop_
_space_group_symop_operation_xyz
x,y,z
-x,-y,z
x,-y,-z
-x,y,-z
-x,-y,-z
x,y,-z
-x,y,z
x,-y,z
1/2+x,1/2+y,z
1/2-x,1/2-y,z
1/2+x,1/2-y,-z
1/2-x,1/2+y,-z
1/2-x,1/2-y,-z
1/2+x,1/2+y,-z
1/2-x,1/2+y,z
1/2+x,1/2-y,z
loop_
_atom_site_type_symbol
_atom_site_label
_atom_site_fract_x
_atom_site_fract_y
_atom_site_fract_z
Si Si1 0.500000 0.161503 0.776408
Si Si2 0.890730 0.669279 0.700451
Si Si3 0.692463 0.831879 0.816855
Si Si4 0.624632 0.657671 0.077511
Si Si5 0.500000 0.750439 0.925679
Si Si6 0.434806 0.332046 0.421687
O O1 0.443678 0.221185 0.744920
O O2 0.500000 0.163791 0.856740
O O3 0.500000 0.000000 0.755181
O O4 0.893477 0.500000 0.691630
O O5 0.836768 0.698109 0.745247
O O6 0.897043 0.746778 0.629810
O O7 0.750000 0.750000 0.822747
O O8 0.651317 0.772478 0.874101
O O9 0.698913 0.000000 0.823711
O O10 0.641579 0.500000 0.098213
O O11 0.557681 0.666303 0.077912
O O12 0.641889 0.680060 0.000000
O O13 0.500000 0.820826 0.000000
O O14 0.423189 0.301745 0.500000
O O15 0.500000 0.296540 0.409559
O O16 0.429047 0.500000 0.411847
#
# Coordination Sequence:
#
# PCOD9484272 Si02
#       6
#     8  16  16  16   8  16
#     4  10  18  32  50  79 115 143 178 226 277 332
#     4  10  20  35  55  80 112 144 177 221 271 326
#     4  11  24  41  59  79 105 141 188 238 282 327
#     4  10  21  37  57  82 112 145 182 226 276 331
#     4  10  19  33  54  82 116 150 183 222 269 328
#     4   9  18  32  51  81 119 151 179 212 255 315
#
# _framework density 17.551613
#
# number of rings (size 3 to 8) (size 9 to 14) (size 15 to 20)
#    0.000    2.000    3.000    1.500    0.000    4.200 
#    0.000    3.000    0.000    0.600    0.000    0.000 
#    0.000    0.000    0.000    0.000    0.000    0.000 
#
# Total GULP energy -222946.496269 kJ/mol
# GULP energy per Si atom -5573.662407 kJ/mol
# Density = 1.751167 g / cm^3
# Si number density = 17.551613 Si / 1000 Ang^3
#
#
#
# Elastic Constant Matrix: (Units=GPa)
#
#
# Indices 1 2 3 4 5 6 
#
# 1 84.3152 42.3185 41.2753 0.0000 0.0000 0.0000
# 2 42.3185 63.0819 46.5878 0.0000 0.0000 0.0000
# 3 41.2753 46.5878 100.0638 0.0000 0.0000 0.0000
# 4 0.0000 0.0000 0.0000 13.7786 0.0000 0.0000
# 5 0.0000 0.0000 0.0000 0.0000 11.0126 0.0000
# 6 0.0000 0.0000 0.0000 0.0000 0.0000 14.9592
#
#
#
# Elastic Compliance Matrix: (Units=1/GPa)
#
#
# Indices 1 2 3 4 5 6 
#
# 1 0.018384 -0.010260 -0.002806 0.000000 0.000000 0.000000
# 2 -0.010260 0.029886 -0.009682 0.000000 0.000000 0.000000
# 3 -0.002806 -0.009682 0.015659 0.000000 0.000000 0.000000
# 4 0.000000 0.000000 0.000000 0.072576 0.000000 0.000000
# 5 0.000000 0.000000 0.000000 0.000000 0.090805 0.000000
# 6 0.000000 0.000000 0.000000 0.000000 0.000000 0.066848
#
#
# Mechanical properties :
#
#
# Convention : Reuss Voigt Hill
#
# Bulk Modulus (GPa) = 54.25453 56.42490 55.33971
# Shear Modulus (GPa) = 14.45927 15.76871 15.11399
#
# Velocity S-wave (km/s) = 2.87333 3.00062 2.93766
# Velocity P-wave (km/s) = 6.47970 6.65002 6.56541
#
# Compressibility (1/GPa) = 0.01843164
#
# Stress axis : x y z
#
# Youngs Moduli (GPa) = 54.39606 33.46046 63.86154
#
# Poissons Ratio (x) = 0.34332 0.17920
# Poissons Ratio (y) = 0.55812 0.61831
# Poissons Ratio (z) = 0.15264 0.32397
#
# Static dielectric constant tensor:
#      x y z
#    x 1.605550 0.000000 0.000000 
#    y 0.000000 1.595930 0.000000 
#    z 0.000000 0.000000 1.591180 
# 
# From -- ./inp_files/57294.got.cif
#   From: 2010.05.17/outbox.cif.g08.bks.cpg/sg65_29_cif.got.tgz:57294.got - 2010.06.03 17:01:31.
