data_PCOD9484822
_publ_section_title
;
Structure prediction by ZEFSAII (Michael W. Deem and Ramdas Pophale) SiO2 
 PCOD9484822
Probable space group: C M M M
;
_chemical_formula_sum "Si O2"
_cell_formula_units_Z 104
_cell_length_a 18.671570
_cell_length_b 26.402454
_cell_length_c 12.330988
_cell_angle_alpha 90.000000
_cell_angle_beta 90.000000
_cell_angle_gamma 90.000000
_cell_volume 6078.872114
_symmetry_space_group_name_H-M "C M M M"
_symmetry_group_IT_number 65
_symmetry_cell_setting 'orthorhombic'
loop_
_space_group_symop_operation_xyz
x,y,z
-x,-y,z
x,-y,-z
-x,y,-z
-x,-y,-z
x,y,-z
-x,y,z
x,-y,z
1/2+x,1/2+y,z
1/2-x,1/2-y,z
1/2+x,1/2-y,-z
1/2-x,1/2+y,-z
1/2-x,1/2-y,-z
1/2+x,1/2+y,-z
1/2-x,1/2+y,z
1/2+x,1/2-y,z
loop_
_atom_site_type_symbol
_atom_site_label
_atom_site_fract_x
_atom_site_fract_y
_atom_site_fract_z
Si Si1 0.671390 0.119855 0.181015
Si Si2 0.585978 0.358349 0.814056
Si Si3 0.413937 0.174060 0.629905
Si Si4 0.198976 0.299368 0.000000
Si Si5 0.197466 0.940878 0.128200
Si Si6 0.585704 0.059371 0.000000
Si Si7 0.413018 0.290253 0.378370
Si Si8 0.415606 0.720818 0.000000
O O1 0.631887 0.139898 0.288202
O O2 0.738182 0.082539 0.197901
O O3 0.616618 0.088944 0.104071
O O4 0.703234 0.165706 0.106719
O O5 0.500000 0.365433 0.816675
O O6 0.626920 0.408543 0.847469
O O7 0.609658 0.335187 0.699702
O O8 0.604270 0.313510 0.897750
O O9 0.401382 0.166457 0.500000
O O10 0.500000 0.167607 0.647091
O O11 0.395210 0.232914 0.655984
O O12 0.250000 0.250000 0.000000
O O13 0.120641 0.274709 0.000000
O O14 0.187482 0.000000 0.148221
O O15 0.215944 0.934448 0.000000
O O16 0.500000 0.060762 0.000000
O O17 0.608694 0.000000 0.000000
O O18 0.386810 0.297695 0.500000
O O19 0.500000 0.291134 0.379358
O O20 0.500000 0.727301 0.000000
#
# Coordination Sequence:
#
# PCOD9484822 Si02
#       8
#    16  16  16   8  16   8  16   8
#     4  11  21  34  53  76 105 142 179 216 268 323
#     4  10  19  33  54  79 106 136 175 220 266 321
#     4   9  18  34  56  83 113 145 182 219 255 309
#     4  11  21  31  47  73 109 146 175 211 259 322
#     4  11  22  38  56  73 101 139 179 226 279 325
#     4  10  20  34  54  78 101 129 173 223 267 319
#     4   8  15  30  53  79 108 142 174 207 253 309
#     4  10  19  29  44  73 109 136 160 205 265 317
#
# _framework density 17.108436999999999
#
# number of rings (size 3 to 8) (size 9 to 14) (size 15 to 20)
#    0.000    2.077    2.308    3.692    0.000    3.385 
#    0.000    1.538    0.000    5.538    0.000    7.538 
#    0.000    0.000    0.000    0.000    0.000    0.000 
#
# Total GULP energy -289995.906077 kJ/mol
# GULP energy per Si atom -5576.844348 kJ/mol
# Density = 1.706950 g / cm^3
# Si number density = 17.108437 Si / 1000 Ang^3
#
#
#
# Elastic Constant Matrix: (Units=GPa)
#
#
# Indices 1 2 3 4 5 6 
#
# 1 28.5065 15.4915 14.5413 0.0000 0.0000 0.0000
# 2 15.4915 80.8831 26.3948 0.0000 0.0000 0.0000
# 3 14.5413 26.3948 56.3284 0.0000 0.0000 0.0000
# 4 0.0000 0.0000 0.0000 39.7409 0.0000 0.0000
# 5 0.0000 0.0000 0.0000 0.0000 -3.6368 0.0000
# 6 0.0000 0.0000 0.0000 0.0000 0.0000 25.8655
#
#
#
# Elastic Compliance Matrix: (Units=1/GPa)
#
#
# Indices 1 2 3 4 5 6 
#
# 1 0.042277 -0.005355 -0.008405 0.000000 0.000000 0.000000
# 2 -0.005355 0.015274 -0.005775 0.000000 0.000000 0.000000
# 3 -0.008405 -0.005775 0.022629 0.000000 0.000000 0.000000
# 4 0.000000 0.000000 0.000000 0.025163 0.000000 0.000000
# 5 0.000000 0.000000 0.000000 0.000000 -0.274968 0.000000
# 6 0.000000 0.000000 0.000000 0.000000 0.000000 0.038662
#
#
# Mechanical properties :
#
#
# Convention : Reuss Voigt Hill
#
# Bulk Modulus (GPa) = 24.32435 30.95259 27.63847
# Shear Modulus (GPa) = -63.94516 19.67993 -22.13261
#
# Velocity S-wave (km/s) = -6.12026 3.39530 -3.60066
# Velocity P-wave (km/s) = 5.97451 5.78809 1.04708
#
# Compressibility (1/GPa) = 0.04111107
#
# Stress axis : x y z
#
# Youngs Moduli (GPa) = 23.65353 65.47259 44.19156
#
# Poissons Ratio (x) = 0.35058 0.37142
# Poissons Ratio (y) = 0.12665 0.25519
# Poissons Ratio (z) = 0.19880 0.37809
#
# Static dielectric constant tensor:
#      x y z
#    x 1.605460 0.000000 0.000000 
#    y 0.000000 1.562100 0.000000 
#    z 0.000000 0.000000 1.657680 
# 
# From -- ./inp_files/27561.got.cif
#   From: 2010.05.17/outbox.cif.g08.bks.cpg/sg65_14_cif.got.tgz:27561.got - 2010.06.03 17:01:31.
