data_PCOD9484721
_publ_section_title
;
Structure prediction by ZEFSAII (Michael W. Deem and Ramdas Pophale) SiO2 
 PCOD9484721
Probable space group: C M M M
;
_chemical_formula_sum "Si O2"
_cell_formula_units_Z 80
_cell_length_a 8.836285
_cell_length_b 34.693728
_cell_length_c 18.815097
_cell_angle_alpha 90.000000
_cell_angle_beta 90.000000
_cell_angle_gamma 90.000000
_cell_volume 5768.025156
_symmetry_space_group_name_H-M "C M M M"
_symmetry_group_IT_number 65
_symmetry_cell_setting 'orthorhombic'
loop_
_space_group_symop_operation_xyz
x,y,z
-x,-y,z
x,-y,-z
-x,y,-z
-x,-y,-z
x,y,-z
-x,y,z
x,-y,z
1/2+x,1/2+y,z
1/2-x,1/2-y,z
1/2+x,1/2-y,-z
1/2-x,1/2+y,-z
1/2-x,1/2-y,-z
1/2+x,1/2+y,-z
1/2-x,1/2+y,z
1/2+x,1/2-y,z
loop_
_atom_site_type_symbol
_atom_site_label
_atom_site_fract_x
_atom_site_fract_y
_atom_site_fract_z
Si Si1 0.674557 0.500000 0.586260
Si Si2 0.818569 0.293156 0.922152
Si Si3 0.317627 0.707543 0.500000
Si Si4 0.682249 0.341899 0.637781
Si Si5 0.319133 0.080778 0.583360
Si Si6 0.681742 0.293020 0.776830
O O1 0.500000 0.500000 0.608325
O O2 0.679498 0.500000 0.500000
O O3 0.755334 0.539543 0.608006
O O4 0.750000 0.250000 0.924306
O O5 0.746021 0.309982 0.850798
O O6 0.000000 0.291010 0.914762
O O7 0.784663 0.310808 0.000000
O O8 0.500000 0.710220 0.500000
O O9 0.250000 0.750000 0.500000
O O10 0.271297 0.684137 0.570260
O O11 0.500000 0.345778 0.635648
O O12 0.754801 0.383656 0.627747
O O13 0.722456 0.319656 0.709990
O O14 0.273519 0.086264 0.500000
O O15 0.500000 0.080196 0.585884
O O16 0.500000 0.289778 0.781009
O O17 0.750000 0.250000 0.767326
#
# Coordination Sequence:
#
# PCOD9484721 Si02
#       6
#     8  16   8  16  16  16
#     4   9  17  29  47  65  83 107 130 161 208 259
#     4   9  16  26  41  59  78 102 132 167 209 255
#     4  10  20  32  44  55  74 105 144 184 215 246
#     4  10  20  32  44  58  80 111 143 176 214 254
#     4  10  19  30  45  65  84 104 135 175 212 250
#     4  10  19  29  42  60  81 108 142 178 215 253
#
# _framework density 13.869565
#
# number of rings (size 3 to 8) (size 9 to 14) (size 15 to 20)
#    0.000    2.300    1.000    3.900    0.000    5.600 
#    0.000    0.000    0.000    0.000    0.000    0.000 
#    0.000    0.000    0.000    0.900    0.000   16.800 
#
# Total GULP energy -222924.685568 kJ/mol
# GULP energy per Si atom -5573.117139 kJ/mol
# Density = 1.383800 g / cm^3
# Si number density = 13.869565 Si / 1000 Ang^3
#
#
#
# Elastic Constant Matrix: (Units=GPa)
#
#
# Indices 1 2 3 4 5 6 
#
# 1 44.0421 35.9049 41.2050 0.0000 0.0000 0.0000
# 2 35.9049 101.5377 54.1110 0.0000 0.0000 0.0000
# 3 41.2050 54.1110 121.5931 0.0000 0.0000 0.0000
# 4 0.0000 0.0000 0.0000 3.4341 0.0000 0.0000
# 5 0.0000 0.0000 0.0000 0.0000 19.9055 0.0000
# 6 0.0000 0.0000 0.0000 0.0000 0.0000 24.1432
#
#
#
# Elastic Compliance Matrix: (Units=1/GPa)
#
#
# Indices 1 2 3 4 5 6 
#
# 1 0.038323 -0.008692 -0.009119 0.000000 0.000000 0.000000
# 2 -0.008692 0.014882 -0.003677 0.000000 0.000000 0.000000
# 3 -0.009119 -0.003677 0.012951 0.000000 0.000000 0.000000
# 4 0.000000 0.000000 0.000000 0.291201 0.000000 0.000000
# 5 0.000000 0.000000 0.000000 0.000000 0.050237 0.000000
# 6 0.000000 0.000000 0.000000 0.000000 0.000000 0.041420
#
#
# Mechanical properties :
#
#
# Convention : Reuss Voigt Hill
#
# Bulk Modulus (GPa) = 43.14106 58.84607 50.99356
# Shear Modulus (GPa) = 10.00571 18.56001 14.28286
#
# Velocity S-wave (km/s) = 2.68883 3.66209 3.21253
# Velocity P-wave (km/s) = 6.38844 7.77184 7.11385
#
# Compressibility (1/GPa) = 0.02317977
#
# Stress axis : x y z
#
# Youngs Moduli (GPa) = 26.09414 67.19652 77.21644
#
# Poissons Ratio (x) = 0.58407 0.70411
# Poissons Ratio (y) = 0.22681 0.28393
# Poissons Ratio (z) = 0.23794 0.24709
#
# Static dielectric constant tensor:
#      x y z
#    x 1.465950 0.000000 0.000000 
#    y 0.000000 1.425150 0.000000 
#    z 0.000000 0.000000 1.479700 
# 
# From -- ./inp_files/50225.got.cif
#   From: 2010.05.17/outbox.cif.g08.bks.cpg/sg65_26_cif.got.tgz:50225.got - 2010.06.03 17:01:31.
