data_PCOD9484593
_publ_section_title
;
Structure prediction by ZEFSAII (Michael W. Deem and Ramdas Pophale) SiO2 
 PCOD9484593
Probable space group: C M M M
;
_chemical_formula_sum "Si O2"
_cell_formula_units_Z 104
_cell_length_a 7.541431
_cell_length_b 24.155239
_cell_length_c 30.127301
_cell_angle_alpha 90.000000
_cell_angle_beta 90.000000
_cell_angle_gamma 90.000000
_cell_volume 5488.141842
_symmetry_space_group_name_H-M "C M M M"
_symmetry_group_IT_number 65
_symmetry_cell_setting 'orthorhombic'
loop_
_space_group_symop_operation_xyz
x,y,z
-x,-y,z
x,-y,-z
-x,y,-z
-x,-y,-z
x,y,-z
-x,y,z
x,-y,z
1/2+x,1/2+y,z
1/2-x,1/2-y,z
1/2+x,1/2-y,-z
1/2-x,1/2+y,-z
1/2-x,1/2-y,-z
1/2+x,1/2+y,-z
1/2-x,1/2+y,z
1/2+x,1/2-y,z
loop_
_atom_site_type_symbol
_atom_site_label
_atom_site_fract_x
_atom_site_fract_y
_atom_site_fract_z
Si Si1 0.785866 0.500000 0.810284
Si Si2 0.712617 0.814776 0.866316
Si Si3 0.213094 0.684516 0.307510
Si Si4 0.287398 0.815804 0.404481
Si Si5 0.292710 0.500000 0.084819
Si Si6 0.792501 0.619824 0.950819
Si Si7 0.713045 0.183956 0.500000
Si Si8 0.782628 0.380331 0.220879
O O1 0.735109 0.500000 0.862153
O O2 0.726332 0.556422 0.786776
O O3 0.000000 0.500000 0.809602
O O4 0.500000 0.822517 0.866420
O O5 0.750000 0.750000 0.865346
O O6 0.784613 0.843679 0.910832
O O7 0.776674 0.845104 0.821858
O O8 0.250000 0.750000 0.301448
O O9 0.280163 0.665624 0.356210
O O10 0.278419 0.648700 0.266115
O O11 0.000000 0.679268 0.308440
O O12 0.500000 0.823517 0.404609
O O13 0.250000 0.750000 0.404706
O O14 0.219789 0.837561 0.452199
O O15 0.500000 0.500000 0.075325
O O16 0.216846 0.555903 0.063880
O O17 0.000000 0.634620 0.953765
O O18 0.714906 0.627208 0.000000
O O19 0.500000 0.177140 0.500000
O O20 0.750000 0.250000 0.500000
O O21 0.000000 0.379772 0.221460
#
# Coordination Sequence:
#
# PCOD9484593 Si02
#       8
#     8  16  16  16   8  16   8  16
#     4  10  18  35  57  70  88 120 152 182 219 272
#     4  10  20  34  51  72  95 122 153 183 217 262
#     4   9  16  26  40  62  87 114 144 179 218 261
#     4   8  13  20  31  48  75 106 141 175 209 251
#     4  12  23  35  54  81 104 118 143 191 238 266
#     4  10  21  38  58  75  95 128 161 182 213 269
#     4   8  12  18  28  44  68 105 141 173 207 246
#     4   9  17  30  50  69  86 112 149 185 220 262
#
# _framework density 18.949947000000002
#
# number of rings (size 3 to 8) (size 9 to 14) (size 15 to 20)
#    0.000    2.615    1.538    1.385    0.000    2.154 
#    0.000    0.769    0.000    0.000    0.000    0.000 
#    0.000    0.615    0.000    8.615    0.000    0.769 
#
# Total GULP energy -289867.260245 kJ/mol
# GULP energy per Si atom -5574.370389 kJ/mol
# Density = 1.890682 g / cm^3
# Si number density = 18.949947 Si / 1000 Ang^3
#
#
#
# Elastic Constant Matrix: (Units=GPa)
#
#
# Indices 1 2 3 4 5 6 
#
# 1 49.1303 -6.2142 8.2797 0.0000 0.0000 0.0000
# 2 -6.2142 99.4186 84.5073 0.0000 0.0000 0.0000
# 3 8.2797 84.5073 241.4051 0.0000 0.0000 0.0000
# 4 0.0000 0.0000 0.0000 -4.2211 0.0000 0.0000
# 5 0.0000 0.0000 0.0000 0.0000 -0.8653 0.0000
# 6 0.0000 0.0000 0.0000 0.0000 0.0000 6.7718
#
#
#
# Elastic Compliance Matrix: (Units=1/GPa)
#
#
# Indices 1 2 3 4 5 6 
#
# 1 0.020983 0.002738 -0.001678 0.000000 0.000000 0.000000
# 2 0.002738 0.014677 -0.005232 0.000000 0.000000 0.000000
# 3 -0.001678 -0.005232 0.006031 0.000000 0.000000 0.000000
# 4 0.000000 0.000000 0.000000 -0.236908 0.000000 0.000000
# 5 0.000000 0.000000 0.000000 0.000000 -1.155668 0.000000
# 6 0.000000 0.000000 0.000000 0.000000 0.000000 0.147671
#
#
# Mechanical properties :
#
#
# Convention : Reuss Voigt Hill
#
# Bulk Modulus (GPa) = 29.98723 62.56662 46.27693
# Shear Modulus (GPa) = -4.22385 20.56252 8.16933
#
# Velocity S-wave (km/s) = -1.49459 3.29765 2.07855
# Velocity P-wave (km/s) = 3.58893 6.89839 5.49856
#
# Compressibility (1/GPa) = 0.03334752
#
# Stress axis : x y z
#
# Youngs Moduli (GPa) = 47.65728 68.13567 165.79933
#
# Poissons Ratio (x) = -0.18656 0.27824
# Poissons Ratio (y) = -0.13049 0.86741
# Poissons Ratio (z) = 0.07998 0.35646
#
# Static dielectric constant tensor:
#      x y z
#    x 1.688490 0.000000 0.000000 
#    y 0.000000 1.609440 0.000000 
#    z 0.000000 0.000000 1.722350 
# 
# From -- ./inp_files/77067.got.cif
#   From: 2010.05.17/outbox.cif.g08.bks.cpg/sg65_39_cif.got.tgz:77067.got - 2010.06.03 17:01:31.
