data_PCOD9484289
_publ_section_title
;
Structure prediction by ZEFSAII (Michael W. Deem and Ramdas Pophale) SiO2 
 PCOD9484289
Probable space group: C M M M
;
_chemical_formula_sum "Si O2"
_cell_formula_units_Z 96
_cell_length_a 28.502081
_cell_length_b 8.836965
_cell_length_c 24.332782
_cell_angle_alpha 90.000000
_cell_angle_beta 90.000000
_cell_angle_gamma 90.000000
_cell_volume 6128.743845
_symmetry_space_group_name_H-M "C M M M"
_symmetry_group_IT_number 65
_symmetry_cell_setting 'orthorhombic'
loop_
_space_group_symop_operation_xyz
x,y,z
-x,-y,z
x,-y,-z
-x,y,-z
-x,-y,-z
x,y,-z
-x,y,z
x,-y,z
1/2+x,1/2+y,z
1/2-x,1/2-y,z
1/2+x,1/2-y,-z
1/2-x,1/2+y,-z
1/2-x,1/2-y,-z
1/2+x,1/2+y,-z
1/2-x,1/2+y,z
1/2+x,1/2-y,z
loop_
_atom_site_type_symbol
_atom_site_label
_atom_site_fract_x
_atom_site_fract_y
_atom_site_fract_z
Si Si1 0.557103 0.324633 0.000000
Si Si2 0.801859 0.319365 0.386435
Si Si3 0.942999 0.675264 0.113595
Si Si4 0.197175 0.817666 0.500000
Si Si5 0.611638 0.318820 0.336312
Si Si6 0.445834 0.681928 0.771985
Si Si7 0.556520 0.821097 0.437704
O O1 0.573466 0.248493 0.943441
O O2 0.569484 0.500000 0.000000
O O3 0.500000 0.314005 0.000000
O O4 0.798690 0.500000 0.390946
O O5 0.750000 0.250000 0.378157
O O6 0.822112 0.249368 0.443475
O O7 0.838640 0.265060 0.341214
O O8 0.930406 0.500000 0.114837
O O9 0.927976 0.754927 0.169926
O O10 0.000000 0.686633 0.113091
O O11 0.250000 0.750000 0.500000
O O12 0.197187 0.000000 0.500000
O O13 0.618261 0.500000 0.337128
O O14 0.584594 0.274739 0.280715
O O15 0.580633 0.269561 0.388778
O O16 0.500000 0.732248 0.764262
O O17 0.446133 0.500000 0.775118
O O18 0.569487 0.772521 0.500000
O O19 0.500000 0.808185 0.433474
O O20 0.568362 0.000000 0.432498
#
# Coordination Sequence:
#
# PCOD9484289 Si02
#       7
#     8  16  16   8  16  16  16
#     4   9  15  23  37  57  83 117 154 189 228 271
#     4  11  22  37  54  72  94 118 145 183 231 284
#     4   9  16  25  39  60  86 116 153 195 232 266
#     4  10  18  32  52  72  91 110 135 170 218 274
#     4  11  22  34  50  71  93 120 155 193 233 281
#     4   9  18  32  47  64  90 124 160 195 230 270
#     4   9  19  35  51  67  90 119 152 192 235 277
#
# _framework density 15.663895
#
# number of rings (size 3 to 8) (size 9 to 14) (size 15 to 20)
#    0.000    2.250    0.000    5.500    1.167    5.667 
#    0.000    2.500    0.000    0.000    0.000    0.000 
#    0.000    0.000    0.000    0.750    0.000   10.083 
#
# Total GULP energy -267734.709052 kJ/mol
# GULP energy per Si atom -5577.806439 kJ/mol
# Density = 1.562824 g / cm^3
# Si number density = 15.663895 Si / 1000 Ang^3
#
#
#
# Elastic Constant Matrix: (Units=GPa)
#
#
# Indices 1 2 3 4 5 6 
#
# 1 50.5854 31.3032 51.0767 0.0000 0.0000 0.0000
# 2 31.3032 85.0465 59.7512 0.0000 0.0000 0.0000
# 3 51.0767 59.7512 145.4940 0.0000 0.0000 0.0000
# 4 0.0000 0.0000 0.0000 22.5086 0.0000 0.0000
# 5 0.0000 0.0000 0.0000 0.0000 9.1817 0.0000
# 6 0.0000 0.0000 0.0000 0.0000 0.0000 18.4210
#
#
#
# Elastic Compliance Matrix: (Units=1/GPa)
#
#
# Indices 1 2 3 4 5 6 
#
# 1 0.032371 -0.005525 -0.009095 0.000000 0.000000 0.000000
# 2 -0.005525 0.017470 -0.005235 0.000000 0.000000 0.000000
# 3 -0.009095 -0.005235 0.012216 0.000000 0.000000 0.000000
# 4 0.000000 0.000000 0.000000 0.044427 0.000000 0.000000
# 5 0.000000 0.000000 0.000000 0.000000 0.108913 0.000000
# 6 0.000000 0.000000 0.000000 0.000000 0.000000 0.054286
#
#
# Mechanical properties :
#
#
# Convention : Reuss Voigt Hill
#
# Bulk Modulus (GPa) = 44.74918 62.82090 53.78504
# Shear Modulus (GPa) = 15.78079 19.28858 17.53469
#
# Velocity S-wave (km/s) = 3.17750 3.51294 3.34942
# Velocity P-wave (km/s) = 6.48786 7.52642 7.02636
#
# Compressibility (1/GPa) = 0.02234678
#
# Stress axis : x y z
#
# Youngs Moduli (GPa) = 30.89203 57.24197 81.86069
#
# Poissons Ratio (x) = 0.31625 0.74453
# Poissons Ratio (y) = 0.17067 0.42853
# Poissons Ratio (z) = 0.28096 0.29966
#
# Static dielectric constant tensor:
#      x y z
#    x 1.542860 0.000000 0.000000 
#    y 0.000000 1.525810 0.000000 
#    z 0.000000 0.000000 1.534700 
# 
# From -- ./inp_files/71763.got.cif
#   From: 2010.05.17/outbox.cif.g08.bks.cpg/sg65_36_cif.got.tgz:71763.got - 2010.06.03 17:01:31.
