data_PCOD9484033
_publ_section_title
;
Structure prediction by ZEFSAII (Michael W. Deem and Ramdas Pophale) SiO2 
 PCOD9484033
Probable space group: C M M M
;
_chemical_formula_sum "Si O2"
_cell_formula_units_Z 88
_cell_length_a 31.590227
_cell_length_b 24.386322
_cell_length_c 8.704991
_cell_angle_alpha 90.000000
_cell_angle_beta 90.000000
_cell_angle_gamma 90.000000
_cell_volume 6706.059109
_symmetry_space_group_name_H-M "C M M M"
_symmetry_group_IT_number 65
_symmetry_cell_setting 'orthorhombic'
loop_
_space_group_symop_operation_xyz
x,y,z
-x,-y,z
x,-y,-z
-x,y,-z
-x,-y,-z
x,y,-z
-x,y,z
x,-y,z
1/2+x,1/2+y,z
1/2-x,1/2-y,z
1/2+x,1/2-y,-z
1/2-x,1/2+y,-z
1/2-x,1/2-y,-z
1/2+x,1/2+y,-z
1/2-x,1/2+y,z
1/2+x,1/2-y,z
loop_
_atom_site_type_symbol
_atom_site_label
_atom_site_fract_x
_atom_site_fract_y
_atom_site_fract_z
Si Si1 0.262068 0.000000 0.684627
Si Si2 0.500000 0.935526 0.183778
Si Si3 0.754574 0.616453 0.181775
Si Si4 0.640716 0.000000 0.313977
Si Si5 0.412772 0.894172 0.685514
Si Si6 0.206980 0.213791 0.323659
Si Si7 0.836583 0.679265 0.686326
O O1 0.244368 0.057214 0.747137
O O2 0.311186 0.000000 0.738004
O O3 0.260538 0.000000 0.500000
O O4 0.541506 0.903989 0.243032
O O5 0.500000 0.000000 0.237577
O O6 0.500000 0.936684 0.000000
O O7 0.718668 0.660706 0.226429
O O8 0.798975 0.640345 0.250071
O O9 0.758863 0.612386 0.000000
O O10 0.615300 0.053467 0.266601
O O11 0.641980 0.000000 0.500000
O O12 0.417004 0.894402 0.500000
O O13 0.382948 0.842919 0.728396
O O14 0.197625 0.198003 0.500000
O O15 0.250000 0.250000 0.326644
O O16 0.172724 0.258023 0.266593
O O17 0.832834 0.676941 0.500000
#
# Coordination Sequence:
#
# PCOD9484033 Si02
#       7
#     8   8  16   8  16  16  16
#     4  11  19  31  44  56  77 106 137 167 201 240
#     4  11  23  33  39  55  81 105 127 162 211 254
#     4  11  20  27  38  60  84 103 127 161 202 241
#     4   9  16  26  44  59  70  92 131 171 202 236
#     4  10  18  31  47  60  71  96 135 171 203 243
#     4   8  15  28  43  57  75 101 130 160 194 234
#     4   9  17  30  46  60  74  98 134 168 199 238
#
# _framework density 13.12246
#
# number of rings (size 3 to 8) (size 9 to 14) (size 15 to 20)
#    0.000    2.273    2.727    3.273    0.000    4.364 
#    0.000    0.000    0.000    0.000    0.000    0.000 
#    0.000    0.000    0.000    0.000    0.000    0.909 
#
# Total GULP energy -245105.469571 kJ/mol
# GULP energy per Si atom -5570.578854 kJ/mol
# Density = 1.309259 g / cm^3
# Si number density = 13.122460 Si / 1000 Ang^3
#
#
#
# Elastic Constant Matrix: (Units=GPa)
#
#
# Indices 1 2 3 4 5 6 
#
# 1 69.6032 49.6573 18.6570 0.0000 0.0000 0.0000
# 2 49.6573 99.9128 35.5939 0.0000 0.0000 0.0000
# 3 18.6570 35.5939 39.7095 0.0000 0.0000 0.0000
# 4 0.0000 0.0000 0.0000 3.0951 0.0000 0.0000
# 5 0.0000 0.0000 0.0000 0.0000 6.5874 0.0000
# 6 0.0000 0.0000 0.0000 0.0000 0.0000 17.1111
#
#
#
# Elastic Compliance Matrix: (Units=1/GPa)
#
#
# Indices 1 2 3 4 5 6 
#
# 1 0.022277 -0.010788 -0.000797 0.000000 0.000000 0.000000
# 2 -0.010788 0.019929 -0.012794 0.000000 0.000000 0.000000
# 3 -0.000797 -0.012794 0.037026 0.000000 0.000000 0.000000
# 4 0.000000 0.000000 0.000000 0.323096 0.000000 0.000000
# 5 0.000000 0.000000 0.000000 0.000000 0.151806 0.000000
# 6 0.000000 0.000000 0.000000 0.000000 0.000000 0.058442
#
#
# Mechanical properties :
#
#
# Convention : Reuss Voigt Hill
#
# Bulk Modulus (GPa) = 32.81597 46.33799 39.57698
# Shear Modulus (GPa) = 7.44612 12.37985 9.91298
#
# Velocity S-wave (km/s) = 2.38467 3.07483 2.75147
# Velocity P-wave (km/s) = 5.71349 6.92782 6.34975
#
# Compressibility (1/GPa) = 0.03047297
#
# Stress axis : x y z
#
# Youngs Moduli (GPa) = 44.88867 50.17926 27.00834
#
# Poissons Ratio (x) = 0.54134 0.02152
# Poissons Ratio (y) = 0.48427 0.34556
# Poissons Ratio (z) = 0.03576 0.64202
#
# Static dielectric constant tensor:
#      x y z
#    x 1.421190 0.000000 0.000000 
#    y 0.000000 1.449190 0.000000 
#    z 0.000000 0.000000 1.438900 
# 
# From -- ./inp_files/12684.got.cif
#   From: 2010.05.17/outbox.cif.g08.bks.cpg/sg65_7_cif.got.tgz:12684.got - 2010.06.03 17:01:31.
