data_PCOD9484672
_publ_section_title
;
Structure prediction by ZEFSAII (Michael W. Deem and Ramdas Pophale) SiO2 
 PCOD9484672
Probable space group: C M M M
;
_chemical_formula_sum "Si O2"
_cell_formula_units_Z 88
_cell_length_a 29.365671
_cell_length_b 7.433528
_cell_length_c 22.099410
_cell_angle_alpha 90.000000
_cell_angle_beta 90.000000
_cell_angle_gamma 90.000000
_cell_volume 4824.092090
_symmetry_space_group_name_H-M "C M M M"
_symmetry_group_IT_number 65
_symmetry_cell_setting 'orthorhombic'
loop_
_space_group_symop_operation_xyz
x,y,z
-x,-y,z
x,-y,-z
-x,y,-z
-x,-y,-z
x,y,-z
-x,y,z
x,-y,z
1/2+x,1/2+y,z
1/2-x,1/2-y,z
1/2+x,1/2-y,-z
1/2-x,1/2+y,-z
1/2-x,1/2-y,-z
1/2+x,1/2+y,-z
1/2-x,1/2+y,z
1/2+x,1/2-y,z
loop_
_atom_site_type_symbol
_atom_site_label
_atom_site_fract_x
_atom_site_fract_y
_atom_site_fract_z
Si Si1 0.447157 0.779675 0.697043
Si Si2 0.804146 0.713996 0.000000
Si Si3 0.608927 0.788559 0.811084
Si Si4 0.196625 0.283880 0.131333
Si Si5 0.553108 0.716756 0.932707
Si Si6 0.445648 0.217007 0.565087
O O1 0.500000 0.726304 0.703014
O O2 0.418966 0.713802 0.754573
O O3 0.428994 0.721320 0.630917
O O4 0.447187 0.000000 0.696993
O O5 0.750000 0.750000 0.000000
O O6 0.818743 0.786460 0.064949
O O7 0.812286 0.500000 0.000000
O O8 0.659740 0.715259 0.821276
O O9 0.581784 0.774162 0.874513
O O10 0.613639 0.000000 0.798238
O O11 0.192656 0.500000 0.128692
O O12 0.250000 0.250000 0.141787
O O13 0.500000 0.772272 0.926295
O O14 0.553743 0.500000 0.933304
O O15 0.569183 0.777248 0.000000
O O16 0.427686 0.283651 0.500000
O O17 0.500000 0.252829 0.565503
O O18 0.440710 0.000000 0.564432
#
# Coordination Sequence:
#
# PCOD9484672 Si02
#       6
#    16   8  16  16  16  16
#     4   8  13  21  33  53  82 109 131 157 191 231
#     4   8  14  26  40  52  67  86 111 147 190 235
#     4  10  19  28  43  64  83 103 130 167 209 247
#     4   9  18  30  43  58  77  99 125 161 204 249
#     4   9  19  34  46  57  78 108 140 170 197 230
#     4   7   9  14  26  45  72 107 137 154 176 219
#
# _framework density 18.241773999999999
#
# number of rings (size 3 to 8) (size 9 to 14) (size 15 to 20)
#    0.000    3.455    0.000    2.727    1.273    2.182 
#    0.000    0.909    0.000    0.000    0.000    0.000 
#    0.000    1.455    0.000    7.273    0.000    6.545 
#
# Total GULP energy -244998.506323 kJ/mol
# GULP energy per Si atom -5568.147871 kJ/mol
# Density = 1.820025 g / cm^3
# Si number density = 18.241774 Si / 1000 Ang^3
#
#
#
# Elastic Constant Matrix: (Units=GPa)
#
#
# Indices 1 2 3 4 5 6 
#
# 1 76.4395 0.8529 78.3703 0.0000 0.0000 0.0000
# 2 0.8529 57.3464 1.4657 0.0000 0.0000 0.0000
# 3 78.3703 1.4657 181.2523 0.0000 0.0000 0.0000
# 4 0.0000 0.0000 0.0000 15.7541 0.0000 0.0000
# 5 0.0000 0.0000 0.0000 0.0000 11.0902 0.0000
# 6 0.0000 0.0000 0.0000 0.0000 0.0000 6.2220
#
#
#
# Elastic Compliance Matrix: (Units=1/GPa)
#
#
# Indices 1 2 3 4 5 6 
#
# 1 0.023500 -0.000090 -0.010160 0.000000 0.000000 0.000000
# 2 -0.000090 0.017442 -0.000102 0.000000 0.000000 0.000000
# 3 -0.010160 -0.000102 0.009911 0.000000 0.000000 0.000000
# 4 0.000000 0.000000 0.000000 0.063476 0.000000 0.000000
# 5 0.000000 0.000000 0.000000 0.000000 0.090169 0.000000
# 6 0.000000 0.000000 0.000000 0.000000 0.000000 0.160719
#
#
# Mechanical properties :
#
#
# Convention : Reuss Voigt Hill
#
# Bulk Modulus (GPa) = 33.16921 52.93512 43.05216
# Shear Modulus (GPa) = 12.62716 22.23655 17.43186
#
# Velocity S-wave (km/s) = 2.63384 3.49519 3.09463
# Velocity P-wave (km/s) = 5.24138 6.73573 6.03499
#
# Compressibility (1/GPa) = 0.03014844
#
# Stress axis : x y z
#
# Youngs Moduli (GPa) = 42.55273 57.33342 100.89637
#
# Poissons Ratio (x) = 0.00515 1.02514
# Poissons Ratio (y) = 0.00382 0.01031
# Poissons Ratio (z) = 0.43235 0.00586
#
# Static dielectric constant tensor:
#      x y z
#    x 1.616680 0.000000 0.000000 
#    y 0.000000 1.658130 0.000000 
#    z 0.000000 0.000000 1.683200 
# 
# From -- ./inp_files/66209.got.cif
#   From: 2010.05.17/outbox.cif.g08.bks.cpg/sg65_34_cif.got.tgz:66209.got - 2010.06.03 17:01:31.
