data_PCOD9484760
_publ_section_title
;
Structure prediction by ZEFSAII (Michael W. Deem and Ramdas Pophale) SiO2 
 PCOD9484760
Probable space group: C M M M
;
_chemical_formula_sum "Si O2"
_cell_formula_units_Z 112
_cell_length_a 32.458237
_cell_length_b 14.772330
_cell_length_c 13.059938
_cell_angle_alpha 90.000000
_cell_angle_beta 90.000000
_cell_angle_gamma 90.000000
_cell_volume 6262.028546
_symmetry_space_group_name_H-M "C M M M"
_symmetry_group_IT_number 65
_symmetry_cell_setting 'orthorhombic'
loop_
_space_group_symop_operation_xyz
x,y,z
-x,-y,z
x,-y,-z
-x,y,-z
-x,-y,-z
x,y,-z
-x,y,z
x,-y,z
1/2+x,1/2+y,z
1/2-x,1/2-y,z
1/2+x,1/2-y,-z
1/2-x,1/2+y,-z
1/2-x,1/2-y,-z
1/2+x,1/2+y,-z
1/2-x,1/2+y,z
1/2+x,1/2-y,z
loop_
_atom_site_type_symbol
_atom_site_label
_atom_site_fract_x
_atom_site_fract_y
_atom_site_fract_z
Si Si1 0.546643 0.895152 0.240540
Si Si2 0.368666 0.107054 0.119720
Si Si3 0.560383 0.605646 0.116121
Si Si4 0.373626 0.607358 0.611917
Si Si5 0.955402 0.205868 0.325494
Si Si6 0.705780 0.771216 0.884092
Si Si7 0.843596 0.102848 0.832256
O O1 0.500000 0.887909 0.193893
O O2 0.586583 0.876970 0.169939
O O3 0.548278 0.814514 0.322725
O O4 0.550179 0.000000 0.275830
O O5 0.329464 0.162921 0.162021
O O6 0.360352 0.000000 0.127794
O O7 0.372287 0.131748 0.000000
O O8 0.548455 0.500000 0.133516
O O9 0.545267 0.669476 0.207449
O O10 0.609932 0.607839 0.125595
O O11 0.548641 0.630633 0.000000
O O12 0.355133 0.624773 0.500000
O O13 0.382734 0.500000 0.619967
O O14 0.416472 0.660117 0.622414
O O15 0.346612 0.628026 0.711657
O O16 0.000000 0.180616 0.368976
O O17 0.750000 0.750000 0.833899
O O18 0.684094 0.674492 0.887803
O O19 0.714044 0.806125 0.000000
O O20 0.829151 0.000000 0.842783
#
# Coordination Sequence:
#
# PCOD9484760 Si02
#       7
#    16  16  16  16  16  16  16
#     4   9  18  31  46  65  89 120 160 205 248 283
#     4   9  17  29  44  62  88 123 161 200 239 277
#     4   9  17  28  42  62  89 121 156 191 228 275
#     4   9  18  32  50  72  94 116 148 191 238 288
#     4  10  19  29  43  64  91 123 156 190 233 287
#     4  10  20  31  45  69 100 131 160 190 227 277
#     4   9  17  30  48  67  88 118 154 190 229 274
#
# _framework density 17.885577999999999
#
# number of rings (size 3 to 8) (size 9 to 14) (size 15 to 20)
#    0.000    2.714    0.000    3.429    0.000    5.143 
#    0.000    5.714    0.000    0.857    0.000    2.000 
#    0.000    0.000    0.000    0.000    0.000    0.000 
#
# Total GULP energy -311754.082287 kJ/mol
# GULP energy per Si atom -5567.037184 kJ/mol
# Density = 1.784487 g / cm^3
# Si number density = 17.885578 Si / 1000 Ang^3
#
#
#
# Elastic Constant Matrix: (Units=GPa)
#
#
# Indices 1 2 3 4 5 6 
#
# 1 90.5823 27.6532 -1.4552 0.0000 0.0000 0.0000
# 2 27.6532 46.0310 9.8407 0.0000 0.0000 0.0000
# 3 -1.4552 9.8407 58.1019 0.0000 0.0000 0.0000
# 4 0.0000 0.0000 0.0000 10.0567 0.0000 0.0000
# 5 0.0000 0.0000 0.0000 0.0000 6.1451 0.0000
# 6 0.0000 0.0000 0.0000 0.0000 0.0000 -155.7709
#
#
#
# Elastic Compliance Matrix: (Units=1/GPa)
#
#
# Indices 1 2 3 4 5 6 
#
# 1 0.013699 -0.008615 0.001802 0.000000 0.000000 0.000000
# 2 -0.008615 0.027958 -0.004951 0.000000 0.000000 0.000000
# 3 0.001802 -0.004951 0.018095 0.000000 0.000000 0.000000
# 4 0.000000 0.000000 0.000000 0.099436 0.000000 0.000000
# 5 0.000000 0.000000 0.000000 0.000000 0.162732 0.000000
# 6 0.000000 0.000000 0.000000 0.000000 0.000000 -0.006420
#
#
# Mechanical properties :
#
#
# Convention : Reuss Voigt Hill
#
# Bulk Modulus (GPa) = 27.60566 29.64362 28.62464
# Shear Modulus (GPa) = 14.24084 -17.33541 -1.54728
#
# Velocity S-wave (km/s) = 2.82480 -3.11664 -0.93112
# Velocity P-wave (km/s) = 5.10954 1.91279 3.85786
#
# Compressibility (1/GPa) = 0.03622446
#
# Stress axis : x y z
#
# Youngs Moduli (GPa) = 73.00041 35.76759 55.26434
#
# Poissons Ratio (x) = 0.30813 -0.09960
# Poissons Ratio (y) = 0.62888 0.27362
# Poissons Ratio (z) = -0.13156 0.17709
#
# Static dielectric constant tensor:
#      x y z
#    x 1.627490 0.000000 0.000000 
#    y 0.000000 1.622970 0.000000 
#    z 0.000000 0.000000 1.639400 
# 
# From -- ./inp_files/48031.got.cif
#   From: 2010.05.17/outbox.cif.g08.bks.cpg/sg65_25_cif.got.tgz:48031.got - 2010.06.03 17:01:31.
