data_PCOD9484322
_publ_section_title
;
Structure prediction by ZEFSAII (Michael W. Deem and Ramdas Pophale) SiO2 
 PCOD9484322
Probable space group: C M M M
;
_chemical_formula_sum "Si O2"
_cell_formula_units_Z 64
_cell_length_a 8.624656
_cell_length_b 25.996484
_cell_length_c 14.550291
_cell_angle_alpha 90.000000
_cell_angle_beta 90.000000
_cell_angle_gamma 90.000000
_cell_volume 3262.331392
_symmetry_space_group_name_H-M "C M M M"
_symmetry_group_IT_number 65
_symmetry_cell_setting 'orthorhombic'
loop_
_space_group_symop_operation_xyz
x,y,z
-x,-y,z
x,-y,-z
-x,y,-z
-x,-y,-z
x,y,-z
-x,y,z
x,-y,z
1/2+x,1/2+y,z
1/2-x,1/2-y,z
1/2+x,1/2-y,-z
1/2-x,1/2+y,-z
1/2-x,1/2-y,-z
1/2+x,1/2+y,-z
1/2-x,1/2+y,z
1/2+x,1/2-y,z
loop_
_atom_site_type_symbol
_atom_site_label
_atom_site_fract_x
_atom_site_fract_y
_atom_site_fract_z
Si Si1 0.816095 0.307135 0.198975
Si Si2 0.313127 0.691409 0.000000
Si Si3 0.320644 0.402942 0.714848
Si Si4 0.177425 0.561640 0.102698
Si Si5 0.180258 0.500000 0.609833
O O1 0.750000 0.250000 0.215669
O O2 0.750332 0.326383 0.099642
O O3 0.766437 0.348197 0.276627
O O4 0.000000 0.303403 0.192220
O O5 0.250000 0.750000 0.000000
O O6 0.500000 0.689065 0.000000
O O7 0.500000 0.394403 0.694781
O O8 0.294315 0.425100 0.817096
O O9 0.254366 0.447650 0.649558
O O10 0.167942 0.500000 0.100625
O O11 0.000000 0.580049 0.122601
O O12 0.222086 0.578191 0.000000
O O13 0.191681 0.500000 0.500000
O O14 0.000000 0.500000 0.638152
#
# Coordination Sequence:
#
# PCOD9484322 Si02
#       5
#    16   8  16  16   8
#     4  11  22  38  58  83 120 165 212 257 302 354
#     4  10  18  32  52  79 116 161 214 260 301 348
#     4  12  24  38  60  91 124 159 202 251 304 365
#     4   9  18  33  53  78 115 160 204 245 293 351
#     4  11  25  47  72  95 120 153 197 250 311 376
#
# _framework density 19.617871000000001
#
# number of rings (size 3 to 8) (size 9 to 14) (size 15 to 20)
#    0.000    1.375    1.250    8.250    1.750    1.500 
#    0.000    1.250    0.000    0.750    0.000    0.000 
#    0.000    0.000    0.000    0.000    0.000    0.000 
#
# Total GULP energy -178711.352790 kJ/mol
# GULP energy per Si atom -5584.729775 kJ/mol
# Density = 1.957322 g / cm^3
# Si number density = 19.617871 Si / 1000 Ang^3
#
#
#
# Elastic Constant Matrix: (Units=GPa)
#
#
# Indices 1 2 3 4 5 6 
#
# 1 167.2604 47.1393 32.0161 0.0000 0.0000 0.0000
# 2 47.1393 132.0361 34.2806 0.0000 0.0000 0.0000
# 3 32.0161 34.2806 42.7479 0.0000 0.0000 0.0000
# 4 0.0000 0.0000 0.0000 21.1706 0.0000 0.0000
# 5 0.0000 0.0000 0.0000 0.0000 5.6257 0.0000
# 6 0.0000 0.0000 0.0000 0.0000 0.0000 32.1367
#
#
#
# Elastic Compliance Matrix: (Units=1/GPa)
#
#
# Indices 1 2 3 4 5 6 
#
# 1 0.007201 -0.001478 -0.004207 0.000000 0.000000 0.000000
# 2 -0.001478 0.009869 -0.006807 0.000000 0.000000 0.000000
# 3 -0.004207 -0.006807 0.032003 0.000000 0.000000 0.000000
# 4 0.000000 0.000000 0.000000 0.047235 0.000000 0.000000
# 5 0.000000 0.000000 0.000000 0.000000 0.177756 0.000000
# 6 0.000000 0.000000 0.000000 0.000000 0.000000 0.031117
#
#
# Mechanical properties :
#
#
# Convention : Reuss Voigt Hill
#
# Bulk Modulus (GPa) = 41.51623 63.21292 52.36458
# Shear Modulus (GPa) = 14.78438 27.02716 20.90577
#
# Velocity S-wave (km/s) = 2.74819 3.71574 3.26797
# Velocity P-wave (km/s) = 5.59271 7.12046 6.40232
#
# Compressibility (1/GPa) = 0.02408696
#
# Stress axis : x y z
#
# Youngs Moduli (GPa) = 138.87484 101.33004 31.24744
#
# Poissons Ratio (x) = 0.14981 0.13147
# Poissons Ratio (y) = 0.20532 0.21269
# Poissons Ratio (z) = 0.58430 0.68973
#
# Static dielectric constant tensor:
#      x y z
#    x 1.695410 0.000000 0.000000 
#    y 0.000000 2.303520 0.000000 
#    z 0.000000 0.000000 1.666160 
# 
# From -- ./inp_files/36413.got.cif
#   From: 2010.05.17/outbox.cif.g08.bks.cpg/sg65_19_cif.got.tgz:36413.got - 2010.06.03 17:01:31.
