data_PCOD9484094
_publ_section_title
;
Structure prediction by ZEFSAII (Michael W. Deem and Ramdas Pophale) SiO2 
 PCOD9484094
Probable space group: C M M M
;
_chemical_formula_sum "Si O2"
_cell_formula_units_Z 88
_cell_length_a 29.642994
_cell_length_b 8.286542
_cell_length_c 18.606355
_cell_angle_alpha 90.000000
_cell_angle_beta 90.000000
_cell_angle_gamma 90.000000
_cell_volume 4570.426244
_symmetry_space_group_name_H-M "C M M M"
_symmetry_group_IT_number 65
_symmetry_cell_setting 'orthorhombic'
loop_
_space_group_symop_operation_xyz
x,y,z
-x,-y,z
x,-y,-z
-x,y,-z
-x,-y,-z
x,y,-z
-x,y,z
x,-y,z
1/2+x,1/2+y,z
1/2-x,1/2-y,z
1/2+x,1/2-y,-z
1/2-x,1/2+y,-z
1/2-x,1/2-y,-z
1/2+x,1/2+y,-z
1/2-x,1/2+y,z
1/2+x,1/2-y,z
loop_
_atom_site_type_symbol
_atom_site_label
_atom_site_fract_x
_atom_site_fract_y
_atom_site_fract_z
Si Si1 0.052126 0.802618 0.000000
Si Si2 0.201111 0.308782 0.811321
Si Si3 0.606841 0.305050 0.140757
Si Si4 0.551777 0.697258 0.281353
Si Si5 0.798947 0.192499 0.353367
Si Si6 0.107514 0.802608 0.580249
O O1 0.078879 0.751114 0.928778
O O2 0.000000 0.750268 0.000000
O O3 0.051587 0.000000 0.000000
O O4 0.201669 0.500000 0.808056
O O5 0.250000 0.250000 0.837606
O O6 0.158422 0.250682 0.856746
O O7 0.195495 0.244205 0.729699
O O8 0.606651 0.500000 0.141206
O O9 0.581703 0.250163 0.213564
O O10 0.500000 0.748700 0.274582
O O11 0.552093 0.500000 0.280860
O O12 0.574215 0.749306 0.356195
O O13 0.750000 0.250000 0.378850
O O14 0.841826 0.249682 0.398803
O O15 0.799097 0.000000 0.354782
O O16 0.095306 0.749996 0.500000
O O17 0.107263 0.000000 0.580475
#
# Coordination Sequence:
#
# PCOD9484094 Si02
#       6
#     8  16  16  16  16  16
#     4   9  18  32  56  89 118 143 176 221 266 309
#     4  11  21  34  55  81 107 139 178 218 263 315
#     4  10  18  33  55  82 112 141 174 215 262 311
#     4   9  16  27  47  73 101 136 176 216 258 306
#     4  10  18  31  50  74 103 137 173 217 266 314
#     4   9  17  28  43  69 105 138 171 216 265 309
#
# _framework density 19.254221000000001
#
# number of rings (size 3 to 8) (size 9 to 14) (size 15 to 20)
#    0.000    2.273    1.818    3.818    0.000    2.909 
#    0.000    2.727    0.000    4.364    0.000    0.000 
#    0.000    1.455    0.000    0.000    0.000    0.000 
#
# Total GULP energy -245584.746571 kJ/mol
# GULP energy per Si atom -5581.471513 kJ/mol
# Density = 1.921040 g / cm^3
# Si number density = 19.254221 Si / 1000 Ang^3
#
#
#
# Elastic Constant Matrix: (Units=GPa)
#
#
# Indices 1 2 3 4 5 6 
#
# 1 170.7416 13.8158 89.2299 0.0000 0.0000 0.0000
# 2 13.8158 23.6544 12.5913 0.0000 0.0000 0.0000
# 3 89.2299 12.5913 127.6011 0.0000 0.0000 0.0000
# 4 0.0000 0.0000 0.0000 4.7457 0.0000 0.0000
# 5 0.0000 0.0000 0.0000 0.0000 19.0891 0.0000
# 6 0.0000 0.0000 0.0000 0.0000 0.0000 21.3715
#
#
#
# Elastic Compliance Matrix: (Units=1/GPa)
#
#
# Indices 1 2 3 4 5 6 
#
# 1 0.009326 -0.002085 -0.006316 0.000000 0.000000 0.000000
# 2 -0.002085 0.045085 -0.002991 0.000000 0.000000 0.000000
# 3 -0.006316 -0.002991 0.012549 0.000000 0.000000 0.000000
# 4 0.000000 0.000000 0.000000 0.210716 0.000000 0.000000
# 5 0.000000 0.000000 0.000000 0.000000 0.052386 0.000000
# 6 0.000000 0.000000 0.000000 0.000000 0.000000 0.046791
#
#
# Mechanical properties :
#
#
# Convention : Reuss Voigt Hill
#
# Bulk Modulus (GPa) = 22.63647 61.47458 42.05552
# Shear Modulus (GPa) = 12.06673 22.79860 17.43266
#
# Velocity S-wave (km/s) = 2.50612 3.44478 3.01224
# Velocity P-wave (km/s) = 4.48958 6.91514 5.82990
#
# Compressibility (1/GPa) = 0.04417649
#
# Stress axis : x y z
#
# Youngs Moduli (GPa) = 107.22396 22.18016 79.68930
#
# Poissons Ratio (x) = 0.04625 0.50332
# Poissons Ratio (y) = 0.22358 0.23833
# Poissons Ratio (z) = 0.67723 0.06634
#
# Static dielectric constant tensor:
#      x y z
#    x 1.669340 0.000000 0.000000 
#    y 0.000000 1.675390 0.000000 
#    z 0.000000 0.000000 1.657920 
# 
# From -- ./inp_files/57974.got.cif
#   From: 2010.05.17/outbox.cif.g08.bks.cpg/sg65_29_cif.got.tgz:57974.got - 2010.06.03 17:01:31.
