data_PCOD9484685
_publ_section_title
;
Structure prediction by ZEFSAII (Michael W. Deem and Ramdas Pophale) SiO2 
 PCOD9484685
Probable space group: C M M M
;
_chemical_formula_sum "Si O2"
_cell_formula_units_Z 88
_cell_length_a 19.432625
_cell_length_b 29.193729
_cell_length_c 7.414607
_cell_angle_alpha 90.000000
_cell_angle_beta 90.000000
_cell_angle_gamma 90.000000
_cell_volume 4206.386540
_symmetry_space_group_name_H-M "C M M M"
_symmetry_group_IT_number 65
_symmetry_cell_setting 'orthorhombic'
loop_
_space_group_symop_operation_xyz
x,y,z
-x,-y,z
x,-y,-z
-x,y,-z
-x,-y,-z
x,y,-z
-x,y,z
x,-y,z
1/2+x,1/2+y,z
1/2-x,1/2-y,z
1/2+x,1/2-y,-z
1/2-x,1/2+y,-z
1/2-x,1/2-y,-z
1/2+x,1/2+y,-z
1/2-x,1/2+y,z
1/2+x,1/2-y,z
loop_
_atom_site_type_symbol
_atom_site_label
_atom_site_fract_x
_atom_site_fract_y
_atom_site_fract_z
Si Si1 0.288621 0.682486 0.779916
Si Si2 0.855625 0.722348 0.780027
Si Si3 0.855166 0.089489 0.788020
Si Si4 0.234052 0.000000 0.284452
Si Si5 0.500000 0.446844 0.221197
Si Si6 0.000000 0.425107 0.282685
Si Si7 0.109266 0.500000 0.279957
Si Si8 0.500000 0.817470 0.788173
O O1 0.210093 0.692015 0.723101
O O2 0.335901 0.725778 0.727997
O O3 0.318903 0.634693 0.713845
O O4 0.287222 0.682133 0.000000
O O5 0.928861 0.703629 0.714780
O O6 0.856690 0.721260 0.000000
O O7 0.930392 0.077263 0.715360
O O8 0.807087 0.045157 0.771659
O O9 0.865268 0.098405 0.000000
O O10 0.312446 0.000000 0.217273
O O11 0.236460 0.000000 0.500000
O O12 0.500000 0.500000 0.274937
O O13 0.500000 0.446804 0.000000
O O14 0.066178 0.455020 0.224280
O O15 0.000000 0.372501 0.226427
O O16 0.000000 0.425209 0.500000
O O17 0.109485 0.500000 0.500000
O O18 0.500000 0.806032 0.000000
#
# Coordination Sequence:
#
# PCOD9484685 Si02
#       8
#    16  16  16   8   8   8   8   8
#     4   8  15  28  47  68  94 131 163 190 234 288
#     4   8  15  28  43  68 104 128 150 193 245 290
#     4  10  19  32  52  73  94 127 169 204 237 286
#     4  11  22  34  49  74 102 127 158 204 254 297
#     4   9  16  29  45  66  96 121 152 201 237 266
#     4   9  18  36  55  69  92 134 174 198 237 294
#     4   8  18  36  53  67  93 133 172 203 234 293
#     4  10  19  28  47  79 108 126 154 204 253 287
#
# _framework density 20.920570000000001
#
# number of rings (size 3 to 8) (size 9 to 14) (size 15 to 20)
#    0.000    3.000    0.909    1.909    2.545    0.727 
#    0.000    6.364    0.000    1.091    0.000    2.545 
#    0.000    0.000    0.000    0.000    0.000    0.000 
#
# Total GULP energy -245591.328092 kJ/mol
# GULP energy per Si atom -5581.621093 kJ/mol
# Density = 2.087295 g / cm^3
# Si number density = 20.920570 Si / 1000 Ang^3
#
#
#
# Elastic Constant Matrix: (Units=GPa)
#
#
# Indices 1 2 3 4 5 6 
#
# 1 243.3031 141.1035 2.2345 0.0000 0.0000 0.0000
# 2 141.1035 190.6123 -3.8616 0.0000 0.0000 0.0000
# 3 2.2345 -3.8616 66.2203 0.0000 0.0000 0.0000
# 4 0.0000 0.0000 0.0000 63.9109 0.0000 0.0000
# 5 0.0000 0.0000 0.0000 0.0000 0.8851 0.0000
# 6 0.0000 0.0000 0.0000 0.0000 0.0000 35.6630
#
#
#
# Elastic Compliance Matrix: (Units=1/GPa)
#
#
# Indices 1 2 3 4 5 6 
#
# 1 0.007222 -0.005358 -0.000556 0.000000 0.000000 0.000000
# 2 -0.005358 0.009227 0.000719 0.000000 0.000000 0.000000
# 3 -0.000556 0.000719 0.015162 0.000000 0.000000 0.000000
# 4 0.000000 0.000000 0.000000 0.015647 0.000000 0.000000
# 5 0.000000 0.000000 0.000000 0.000000 1.129834 0.000000
# 6 0.000000 0.000000 0.000000 0.000000 0.000000 0.028040
#
#
# Mechanical properties :
#
#
# Convention : Reuss Voigt Hill
#
# Bulk Modulus (GPa) = 47.12294 86.56540 66.84417
# Shear Modulus (GPa) = 4.08966 44.13575 24.11271
#
# Velocity S-wave (km/s) = 1.39968 4.59811 3.39866
# Velocity P-wave (km/s) = 5.01854 8.34614 6.88636
#
# Compressibility (1/GPa) = 0.02122109
#
# Stress axis : x y z
#
# Youngs Moduli (GPa) = 138.45700 108.37760 65.95521
#
# Poissons Ratio (x) = 0.58067 0.03668
# Poissons Ratio (y) = 0.74182 -0.04741
# Poissons Ratio (z) = 0.07700 -0.07791
#
# Static dielectric constant tensor:
#      x y z
#    x 1.734180 0.000000 0.000000 
#    y 0.000000 1.693670 0.000000 
#    z 0.000000 0.000000 1.794990 
# 
# From -- ./inp_files/10244.got.cif
#   From: 2010.05.17/outbox.cif.g08.bks.cpg/sg65_6_cif.got.tgz:10244.got - 2010.06.03 17:01:31.
