data_PCOD9484741
_publ_section_title
;
Structure prediction by ZEFSAII (Michael W. Deem and Ramdas Pophale) SiO2 
 PCOD9484741
Probable space group: C M M M
;
_chemical_formula_sum "Si O2"
_cell_formula_units_Z 104
_cell_length_a 27.712669
_cell_length_b 9.016238
_cell_length_c 27.162664
_cell_angle_alpha 90.000000
_cell_angle_beta 90.000000
_cell_angle_gamma 90.000000
_cell_volume 6786.972402
_symmetry_space_group_name_H-M "C M M M"
_symmetry_group_IT_number 65
_symmetry_cell_setting 'orthorhombic'
loop_
_space_group_symop_operation_xyz
x,y,z
-x,-y,z
x,-y,-z
-x,y,-z
-x,-y,-z
x,y,-z
-x,y,z
x,-y,z
1/2+x,1/2+y,z
1/2-x,1/2-y,z
1/2+x,1/2-y,-z
1/2-x,1/2+y,-z
1/2-x,1/2-y,-z
1/2+x,1/2+y,-z
1/2-x,1/2+y,z
1/2+x,1/2-y,z
loop_
_atom_site_type_symbol
_atom_site_label
_atom_site_fract_x
_atom_site_fract_y
_atom_site_fract_z
Si Si1 0.606641 0.822991 0.703551
Si Si2 0.301378 0.678399 0.655026
Si Si3 0.352869 0.321727 0.445370
Si Si4 0.945087 0.677429 0.399159
Si Si5 0.942206 0.175644 0.797423
Si Si6 0.058689 0.670879 0.100595
Si Si7 0.441168 0.328509 0.000000
O O1 0.656623 0.743426 0.689538
O O2 0.570712 0.794052 0.657396
O O3 0.584253 0.758592 0.753182
O O4 0.613309 0.000000 0.706950
O O5 0.299669 0.500000 0.658484
O O6 0.250000 0.750000 0.666223
O O7 0.317473 0.720965 0.599204
O O8 0.337243 0.274844 0.500000
O O9 0.356325 0.500000 0.444516
O O10 0.405211 0.255225 0.432749
O O11 0.942622 0.500000 0.406731
O O12 0.000000 0.726145 0.407830
O O13 0.927181 0.240564 0.850439
O O14 0.000000 0.198872 0.792574
O O15 0.933187 0.000000 0.795324
O O16 0.074100 0.500000 0.103118
O O17 0.074724 0.747073 0.049859
O O18 0.000000 0.672020 0.099629
O O19 0.426594 0.500000 0.000000
O O20 0.500000 0.325538 0.000000
#
# Coordination Sequence:
#
# PCOD9484741 Si02
#       7
#    16  16  16  16  16  16   8
#     4  10  19  32  49  67  88 115 147 183 222 265
#     4  10  20  35  53  71  90 112 140 175 218 268
#     4   9  19  34  49  67  91 116 143 176 213 256
#     4   9  18  31  46  65  89 117 148 180 214 254
#     4  10  19  29  42  63  91 121 153 189 228 267
#     4   9  16  25  37  54  78 112 154 194 229 266
#     4   9  15  23  35  51  75 109 150 195 236 269
#
# _framework density 15.323475
#
# number of rings (size 3 to 8) (size 9 to 14) (size 15 to 20)
#    0.000    2.538    0.000    2.538    0.000    6.769 
#    0.000    1.538    0.000    0.000    0.000    0.000 
#    0.000    0.000    0.000    0.692    0.000    9.769 
#
# Total GULP energy -289942.576986 kJ/mol
# GULP energy per Si atom -5575.818788 kJ/mol
# Density = 1.528860 g / cm^3
# Si number density = 15.323475 Si / 1000 Ang^3
#
#
#
# Elastic Constant Matrix: (Units=GPa)
#
#
# Indices 1 2 3 4 5 6 
#
# 1 40.6845 23.4865 7.6282 0.0000 0.0000 0.0000
# 2 23.4865 68.3270 43.7042 0.0000 0.0000 0.0000
# 3 7.6282 43.7042 99.5629 0.0000 0.0000 0.0000
# 4 0.0000 0.0000 0.0000 28.2010 0.0000 0.0000
# 5 0.0000 0.0000 0.0000 0.0000 8.0457 0.0000
# 6 0.0000 0.0000 0.0000 0.0000 0.0000 21.3618
#
#
#
# Elastic Compliance Matrix: (Units=1/GPa)
#
#
# Indices 1 2 3 4 5 6 
#
# 1 0.031399 -0.012867 0.003242 0.000000 0.000000 0.000000
# 2 -0.012867 0.025622 -0.010261 0.000000 0.000000 0.000000
# 3 0.003242 -0.010261 0.014300 0.000000 0.000000 0.000000
# 4 0.000000 0.000000 0.000000 0.035460 0.000000 0.000000
# 5 0.000000 0.000000 0.000000 0.000000 0.124289 0.000000
# 6 0.000000 0.000000 0.000000 0.000000 0.000000 0.046813
#
#
# Mechanical properties :
#
#
# Convention : Reuss Voigt Hill
#
# Bulk Modulus (GPa) = 31.69642 39.80135 35.74889
# Shear Modulus (GPa) = 15.23599 20.43874 17.83737
#
# Velocity S-wave (km/s) = 3.15666 3.65611 3.41553
# Velocity P-wave (km/s) = 5.83230 6.62219 6.23976
#
# Compressibility (1/GPa) = 0.03154930
#
# Stress axis : x y z
#
# Youngs Moduli (GPa) = 31.84778 39.02934 69.93154
#
# Poissons Ratio (x) = 0.50219 -0.22675
# Poissons Ratio (y) = 0.40979 0.71758
# Poissons Ratio (z) = -0.10326 0.40048
#
# Static dielectric constant tensor:
#      x y z
#    x 1.475280 0.000000 0.000000 
#    y 0.000000 1.510110 0.000000 
#    z 0.000000 0.000000 1.508550 
# 
# From -- ./inp_files/68182.got.cif
#   From: 2010.05.17/outbox.cif.g08.bks.cpg/sg65_35_cif.got.tgz:68182.got - 2010.06.03 17:01:31.
