data_PCOD9484937
_publ_section_title
;
Structure prediction by ZEFSAII (Michael W. Deem and Ramdas Pophale) SiO2 
 PCOD9484937
Probable space group: C M M M
;
_chemical_formula_sum "Si O2"
_cell_formula_units_Z 80
_cell_length_a 20.227541
_cell_length_b 25.976332
_cell_length_c 8.925806
_cell_angle_alpha 90.000000
_cell_angle_beta 90.000000
_cell_angle_gamma 90.000000
_cell_volume 4689.951588
_symmetry_space_group_name_H-M "C M M M"
_symmetry_group_IT_number 65
_symmetry_cell_setting 'orthorhombic'
loop_
_space_group_symop_operation_xyz
x,y,z
-x,-y,z
x,-y,-z
-x,y,-z
-x,-y,-z
x,y,-z
-x,y,z
x,-y,z
1/2+x,1/2+y,z
1/2-x,1/2-y,z
1/2+x,1/2-y,-z
1/2-x,1/2+y,-z
1/2-x,1/2-y,-z
1/2+x,1/2+y,-z
1/2-x,1/2+y,z
1/2+x,1/2-y,z
loop_
_atom_site_type_symbol
_atom_site_label
_atom_site_fract_x
_atom_site_fract_y
_atom_site_fract_z
Si Si1 0.253385 0.942373 0.176199
Si Si2 0.000000 0.762943 0.826979
Si Si3 0.641978 0.742757 0.319808
Si Si4 0.500000 0.635154 0.669278
Si Si5 0.755063 0.666174 0.679693
Si Si6 0.618029 0.443419 0.667690
O O1 0.274814 0.889052 0.253350
O O2 0.175122 0.941180 0.211111
O O3 0.275835 0.000000 0.229487
O O4 0.266589 0.939724 0.000000
O O5 0.069974 0.748322 0.750682
O O6 0.000000 0.824019 0.799622
O O7 0.000000 0.748220 0.000000
O O8 0.635086 0.739529 0.500000
O O9 0.683851 0.691317 0.272844
O O10 0.690082 0.790666 0.284762
O O11 0.500000 0.658936 0.500000
O O12 0.436135 0.599792 0.680298
O O13 0.751954 0.661731 0.500000
O O14 0.648793 0.438860 0.500000
O O15 0.586532 0.500000 0.674788
#
# Coordination Sequence:
#
# PCOD9484937 Si02
#       6
#    16   8  16   8  16  16
#     4  10  20  31  44  67  99 129 155 190 239 290
#     4  12  24  33  45  71 101 129 162 194 235 295
#     4   9  19  36  55  74  98 127 162 207 253 291
#     4  10  19  30  44  60  84 121 161 202 243 276
#     4   9  18  34  56  77  95 124 167 208 247 291
#     4   9  17  29  44  61  83 117 163 206 238 273
#
# _framework density 17.057745000000001
#
# number of rings (size 3 to 8) (size 9 to 14) (size 15 to 20)
#    0.000    2.400    0.000    4.200    0.000    9.600 
#    0.000    2.000    0.000    3.000    0.000    0.700 
#    0.000    5.600    0.000    0.000    0.000    0.000 
#
# Total GULP energy -222734.521853 kJ/mol
# GULP energy per Si atom -5568.363046 kJ/mol
# Density = 1.701892 g / cm^3
# Si number density = 17.057745 Si / 1000 Ang^3
#
#
#
# Elastic Constant Matrix: (Units=GPa)
#
#
# Indices 1 2 3 4 5 6 
#
# 1 83.1544 31.2893 24.4412 0.0000 0.0000 0.0000
# 2 31.2893 115.8142 26.1891 0.0000 0.0000 0.0000
# 3 24.4412 26.1891 36.0459 0.0000 0.0000 0.0000
# 4 0.0000 0.0000 0.0000-1905.5708 0.0000 0.0000
# 5 0.0000 0.0000 0.0000 0.0000 68.7438 0.0000
# 6 0.0000 0.0000 0.0000 0.0000 0.0000 22.5363
#
#
#
# Elastic Compliance Matrix: (Units=1/GPa)
#
#
# Indices 1 2 3 4 5 6 
#
# 1 0.015458 -0.002161 -0.008911 0.000000 0.000000 0.000000
# 2 -0.002161 0.010634 -0.006261 0.000000 0.000000 0.000000
# 3 -0.008911 -0.006261 0.038334 0.000000 0.000000 0.000000
# 4 0.000000 0.000000 0.000000 -0.000525 0.000000 0.000000
# 5 0.000000 0.000000 0.000000 0.000000 0.014547 0.000000
# 6 0.000000 0.000000 0.000000 0.000000 0.000000 0.044373
#
#
# Mechanical properties :
#
#
# Convention : Reuss Voigt Hill
#
# Bulk Modulus (GPa) = 33.60298 44.31708 38.96003
# Shear Modulus (GPa) = 29.86723 -352.65181 -161.39229
#
# Velocity S-wave (km/s) = 4.18897 -14.39405 -9.73759
# Velocity P-wave (km/s) = 6.56803 15.81818 10.17536
#
# Compressibility (1/GPa) = 0.02975927
#
# Stress axis : x y z
#
# Youngs Moduli (GPa) = 64.69008 94.03655 26.08675
#
# Poissons Ratio (x) = 0.20323 0.23247
# Poissons Ratio (y) = 0.13981 0.16332
# Poissons Ratio (z) = 0.57648 0.58875
#
# Static dielectric constant tensor:
#      x y z
#    x 1.571490 0.000000 0.000000 
#    y 0.000000 1.633500 0.000000 
#    z 0.000000 0.000000 1.599590 
# 
# From -- ./inp_files/12094.got.cif
#   From: 2010.05.17/outbox.cif.g08.bks.cpg/sg65_7_cif.got.tgz:12094.got - 2010.06.03 17:01:31.
