data_PCOD9484723
_publ_section_title
;
Structure prediction by ZEFSAII (Michael W. Deem and Ramdas Pophale) SiO2 
 PCOD9484723
Probable space group: C M M M
;
_chemical_formula_sum "Si O2"
_cell_formula_units_Z 96
_cell_length_a 7.304648
_cell_length_b 24.384768
_cell_length_c 26.724247
_cell_angle_alpha 90.000000
_cell_angle_beta 90.000000
_cell_angle_gamma 90.000000
_cell_volume 4760.180247
_symmetry_space_group_name_H-M "C M M M"
_symmetry_group_IT_number 65
_symmetry_cell_setting 'orthorhombic'
loop_
_space_group_symop_operation_xyz
x,y,z
-x,-y,z
x,-y,-z
-x,y,-z
-x,-y,-z
x,y,-z
-x,y,z
x,-y,z
1/2+x,1/2+y,z
1/2-x,1/2-y,z
1/2+x,1/2-y,-z
1/2-x,1/2+y,-z
1/2-x,1/2-y,-z
1/2+x,1/2+y,-z
1/2-x,1/2+y,z
1/2+x,1/2-y,z
loop_
_atom_site_type_symbol
_atom_site_label
_atom_site_fract_x
_atom_site_fract_y
_atom_site_fract_z
Si Si1 0.777212 0.936559 0.556588
Si Si2 0.777457 0.000000 0.174312
Si Si3 0.722896 0.612535 0.342645
Si Si4 0.718194 0.314709 0.055276
Si Si5 0.781954 0.814641 0.252461
Si Si6 0.724116 0.378698 0.847183
Si Si7 0.277890 0.500000 0.710689
O O1 0.718824 0.923673 0.500000
O O2 0.717313 0.894906 0.599923
O O3 0.000000 0.936630 0.556722
O O4 0.724411 0.000000 0.567788
O O5 0.719791 0.942181 0.151467
O O6 0.720280 0.000000 0.232098
O O7 0.000000 0.000000 0.173507
O O8 0.500000 0.614887 0.343936
O O9 0.785427 0.660581 0.305347
O O10 0.777184 0.555494 0.316421
O O11 0.500000 0.323246 0.054106
O O12 0.750000 0.250000 0.061908
O O13 0.787166 0.347046 0.103409
O O14 0.789111 0.330162 0.000000
O O15 0.750000 0.750000 0.247361
O O16 0.715276 0.848557 0.203993
O O17 0.000000 0.822976 0.252741
O O18 0.500000 0.377377 0.846424
O O19 0.500000 0.500000 0.710153
#
# Coordination Sequence:
#
# PCOD9484723 Si02
#       7
#    16   8  16  16  16  16   8
#     4   8  12  17  28  50  80 107 126 154 203 250
#     4   9  14  22  37  59  85 108 129 159 205 253
#     4   9  14  21  35  55  80 105 132 165 201 242
#     4   9  17  29  44  62  84 110 140 172 203 236
#     4  10  19  29  42  61  83 108 138 170 201 235
#     4   9  16  26  41  62  86 108 133 167 206 246
#     4   9  12  18  33  55  79 103 129 160 200 244
#
# _framework density 20.167303
#
# number of rings (size 3 to 8) (size 9 to 14) (size 15 to 20)
#    0.000    3.000    2.500    1.000    0.000    0.000 
#    0.000    0.417    0.000    3.000    0.000    4.083 
#    0.000    2.667    0.000    1.833    0.000    1.667 
#
# Total GULP energy -267736.616813 kJ/mol
# GULP energy per Si atom -5577.846184 kJ/mol
# Density = 2.012140 g / cm^3
# Si number density = 20.167303 Si / 1000 Ang^3
#
#
#
# Elastic Constant Matrix: (Units=GPa)
#
#
# Indices 1 2 3 4 5 6 
#
# 1 82.1248 -1.7513 8.7980 0.0000 0.0000 0.0000
# 2 -1.7513 130.4636 98.5995 0.0000 0.0000 0.0000
# 3 8.7980 98.5995 201.1711 0.0000 0.0000 0.0000
# 4 0.0000 0.0000 0.0000 23.8132 0.0000 0.0000
# 5 0.0000 0.0000 0.0000 0.0000 -13.2059 0.0000
# 6 0.0000 0.0000 0.0000 0.0000 0.0000 -2.3106
#
#
#
# Elastic Compliance Matrix: (Units=1/GPa)
#
#
# Indices 1 2 3 4 5 6 
#
# 1 0.012301 0.000908 -0.000983 0.000000 0.000000 0.000000
# 2 0.000908 0.012242 -0.006040 0.000000 0.000000 0.000000
# 3 -0.000983 -0.006040 0.007974 0.000000 0.000000 0.000000
# 4 0.000000 0.000000 0.000000 0.041994 0.000000 0.000000
# 5 0.000000 0.000000 0.000000 0.000000 -0.075724 0.000000
# 6 0.000000 0.000000 0.000000 0.000000 0.000000 -0.432783
#
#
# Mechanical properties :
#
#
# Convention : Reuss Voigt Hill
#
# Bulk Modulus (GPa) = 49.29084 69.45020 59.37052
# Shear Modulus (GPa) = -12.04808 22.20021 5.07607
#
# Velocity S-wave (km/s) = -2.44684 3.32143 1.58822
# Velocity P-wave (km/s) = 4.06341 7.01577 5.73290
#
# Compressibility (1/GPa) = 0.02028775
#
# Stress axis : x y z
#
# Youngs Moduli (GPa) = 81.29243 81.68743 125.40546
#
# Poissons Ratio (x) = -0.07418 0.12328
# Poissons Ratio (y) = -0.07382 0.75742
# Poissons Ratio (z) = 0.07992 0.49337
#
# Static dielectric constant tensor:
#      x y z
#    x 1.769430 0.000000 0.000000 
#    y 0.000000 1.672760 0.000000 
#    z 0.000000 0.000000 1.724170 
# 
# From -- ./inp_files/73527.got.cif
#   From: 2010.05.17/outbox.cif.g08.bks.cpg/sg65_37_cif.got.tgz:73527.got - 2010.06.03 17:01:31.
