data_PCOD9484621
_publ_section_title
;
Structure prediction by ZEFSAII (Michael W. Deem and Ramdas Pophale) SiO2 
 PCOD9484621
Probable space group: C M M M
;
_chemical_formula_sum "Si O2"
_cell_formula_units_Z 90
_cell_length_a 28.155128
_cell_length_b 7.863982
_cell_length_c 21.285033
_cell_angle_alpha 90.000000
_cell_angle_beta 90.000000
_cell_angle_gamma 90.000000
_cell_volume 4712.749377
_symmetry_space_group_name_H-M "C M M M"
_symmetry_group_IT_number 65
_symmetry_cell_setting 'orthorhombic'
loop_
_space_group_symop_operation_xyz
x,y,z
-x,-y,z
x,-y,-z
-x,y,-z
-x,-y,-z
x,y,-z
-x,y,z
x,-y,z
1/2+x,1/2+y,z
1/2-x,1/2-y,z
1/2+x,1/2-y,-z
1/2-x,1/2+y,-z
1/2-x,1/2-y,-z
1/2+x,1/2+y,-z
1/2-x,1/2+y,z
1/2+x,1/2-y,z
loop_
_atom_site_type_symbol
_atom_site_label
_atom_site_fract_x
_atom_site_fract_y
_atom_site_fract_z
Si Si1 0.552038 0.201733 0.811404
Si Si2 0.197206 0.704571 0.702258
Si Si3 0.405980 0.207102 0.317778
Si Si4 0.302353 0.797086 0.847276
Si Si5 0.609024 0.699606 0.070391
Si Si6 0.000000 0.195742 0.395500
Si Si7 0.000000 0.500000 0.500000
O O1 0.500000 0.277909 0.803180
O O2 0.585839 0.259008 0.755046
O O3 0.571046 0.229053 0.880839
O O4 0.548931 0.000000 0.802295
O O5 0.195428 0.500000 0.704217
O O6 0.250000 0.750000 0.677996
O O7 0.148583 0.759590 0.667213
O O8 0.194370 0.766424 0.774986
O O9 0.451084 0.278807 0.355568
O O10 0.408207 0.000000 0.323524
O O11 0.250000 0.750000 0.869669
O O12 0.341172 0.726262 0.894447
O O13 0.308749 0.000000 0.845220
O O14 0.600151 0.500000 0.065918
O O15 0.608431 0.772447 0.000000
O O16 0.000000 0.347957 0.445760
O O17 0.000000 0.000000 0.418975
#
# Coordination Sequence:
#
# PCOD9484621 Si02
#       7
#    16  16  16  16  16   8   2
#     4  10  20  36  59  80 107 147 191 248 311 369
#     4   9  18  31  53  83 122 160 196 252 321 366
#     4  10  18  37  61  90 131 167 203 258 316 362
#     4  10  19  34  53  75 101 139 186 242 305 370
#     4  11  24  38  50  69 101 144 193 251 315 374
#     4  12  25  41  71 106 136 184 219 245 306 365
#     4  12  26  52  68  98 160 176 204 272 284 344
#
# _framework density 19.097131999999998
#
# number of rings (size 3 to 8) (size 9 to 14) (size 15 to 20)
#    0.000    1.778    3.556    1.200    0.000    4.622 
#    0.000    1.778    0.000    0.000    0.000    0.622 
#    0.000    0.000    0.000    0.000    0.000    0.000 
#
# Total GULP energy -250559.759446 kJ/mol
# GULP energy per Si atom -5567.994654 kJ/mol
# Density = 1.905367 g / cm^3
# Si number density = 19.097132 Si / 1000 Ang^3
#
#
#
# Elastic Constant Matrix: (Units=GPa)
#
#
# Indices 1 2 3 4 5 6 
#
# 1 157.4723 15.4891 34.3606 0.0000 0.0000 0.0000
# 2 15.4891 53.0442 20.2025 0.0000 0.0000 0.0000
# 3 34.3606 20.2025 58.3150 0.0000 0.0000 0.0000
# 4 0.0000 0.0000 0.0000 36.2316 0.0000 0.0000
# 5 0.0000 0.0000 0.0000 0.0000 -6.0535 0.0000
# 6 0.0000 0.0000 0.0000 0.0000 0.0000 25.5774
#
#
#
# Elastic Compliance Matrix: (Units=1/GPa)
#
#
# Indices 1 2 3 4 5 6 
#
# 1 0.007302 -0.000569 -0.004106 0.000000 0.000000 0.000000
# 2 -0.000569 0.021762 -0.007204 0.000000 0.000000 0.000000
# 3 -0.004106 -0.007204 0.022063 0.000000 0.000000 0.000000
# 4 0.000000 0.000000 0.000000 0.027600 0.000000 0.000000
# 5 0.000000 0.000000 0.000000 0.000000 -0.165192 0.000000
# 6 0.000000 0.000000 0.000000 0.000000 0.000000 0.039097
#
#
# Mechanical properties :
#
#
# Convention : Reuss Voigt Hill
#
# Bulk Modulus (GPa) = 36.53556 45.43731 40.98643
# Shear Modulus (GPa) = -345.12416 24.40303 -160.36056
#
# Velocity S-wave (km/s) = -13.45781 3.57856 -9.17351
# Velocity P-wave (km/s) = 14.91009 6.39681 9.52343
#
# Compressibility (1/GPa) = 0.02737060
#
# Stress axis : x y z
#
# Youngs Moduli (GPa) = 136.94706 45.95160 45.32439
#
# Poissons Ratio (x) = 0.02613 0.18608
# Poissons Ratio (y) = 0.07786 0.32653
# Poissons Ratio (z) = 0.56225 0.33104
#
# Static dielectric constant tensor:
#      x y z
#    x 1.705470 0.000000 0.000000 
#    y 0.000000 1.656600 0.000000 
#    z 0.000000 0.000000 1.649870 
# 
# From -- ./inp_files/65804.got.cif
#   From: 2010.05.17/outbox.cif.g08.bks.cpg/sg65_33_cif.got.tgz:65804.got - 2010.06.03 17:01:31.
