data_PCOD9484686
_publ_section_title
;
Structure prediction by ZEFSAII (Michael W. Deem and Ramdas Pophale) SiO2 
 PCOD9484686
Probable space group: C M M M
;
_chemical_formula_sum "Si O2"
_cell_formula_units_Z 80
_cell_length_a 29.494447
_cell_length_b 16.632509
_cell_length_c 7.351208
_cell_angle_alpha 90.000000
_cell_angle_beta 90.000000
_cell_angle_gamma 90.000000
_cell_volume 3606.257520
_symmetry_space_group_name_H-M "C M M M"
_symmetry_group_IT_number 65
_symmetry_cell_setting 'orthorhombic'
loop_
_space_group_symop_operation_xyz
x,y,z
-x,-y,z
x,-y,-z
-x,y,-z
-x,-y,-z
x,y,-z
-x,y,z
x,-y,z
1/2+x,1/2+y,z
1/2-x,1/2-y,z
1/2+x,1/2-y,-z
1/2-x,1/2+y,-z
1/2-x,1/2-y,-z
1/2+x,1/2+y,-z
1/2-x,1/2+y,z
1/2+x,1/2-y,z
loop_
_atom_site_type_symbol
_atom_site_label
_atom_site_fract_x
_atom_site_fract_y
_atom_site_fract_z
Si Si1 0.117281 0.000000 0.220569
Si Si2 0.722985 0.500000 0.289094
Si Si3 0.948991 0.140227 0.221219
Si Si4 0.141995 0.408866 0.779976
Si Si5 0.050679 0.325514 0.221569
Si Si6 0.764212 0.664137 0.710934
O O1 0.089211 0.078327 0.281069
O O2 0.168890 0.000000 0.281627
O O3 0.117771 0.000000 0.000000
O O4 0.738126 0.500000 0.500000
O O5 0.742036 0.416841 0.208299
O O6 0.941863 0.232634 0.276054
O O7 0.000000 0.115800 0.276236
O O8 0.948647 0.139411 0.000000
O O9 0.151489 0.500000 0.719853
O O10 0.092567 0.379609 0.719040
O O11 0.182050 0.350199 0.719716
O O12 0.142110 0.408530 0.000000
O O13 0.000000 0.350051 0.279386
O O14 0.050498 0.326847 0.000000
O O15 0.749247 0.666429 0.500000
O O16 0.750000 0.750000 0.790942
#
# Coordination Sequence:
#
# PCOD9484686 Si02
#       6
#     8   8  16  16  16  16
#     4  10  19  28  48  78 102 129 169 210 247 293
#     4  10  22  39  53  73 105 133 166 213 259 314
#     4   8  14  26  44  69 102 136 168 202 243 295
#     4  10  20  33  53  81 108 134 168 212 260 306
#     4   8  15  28  46  71 105 138 165 200 250 303
#     4  10  22  40  59  75  97 138 181 214 260 316
#
# _framework density 22.183661000000001
#
# number of rings (size 3 to 8) (size 9 to 14) (size 15 to 20)
#    0.000    2.800    1.000    1.500    2.800    2.800 
#    0.000    2.000    0.000    1.800    0.000    4.200 
#    0.000    0.000    0.000    0.000    0.000    0.000 
#
# Total GULP energy -223391.953950 kJ/mol
# GULP energy per Si atom -5584.798849 kJ/mol
# Density = 2.213317 g / cm^3
# Si number density = 22.183661 Si / 1000 Ang^3
#
#
#
# Elastic Constant Matrix: (Units=GPa)
#
#
# Indices 1 2 3 4 5 6 
#
# 1 147.7339 85.6349 -9.8374 0.0000 0.0000 0.0000
# 2 85.6349 153.3716 8.8985 0.0000 0.0000 0.0000
# 3 -9.8374 8.8985 83.0971 0.0000 0.0000 0.0000
# 4 0.0000 0.0000 0.0000 -18.6282 0.0000 0.0000
# 5 0.0000 0.0000 0.0000 0.0000 25.7773 0.0000
# 6 0.0000 0.0000 0.0000 0.0000 0.0000 41.3498
#
#
#
# Elastic Compliance Matrix: (Units=1/GPa)
#
#
# Indices 1 2 3 4 5 6 
#
# 1 0.010281 -0.005847 0.001843 0.000000 0.000000 0.000000
# 2 -0.005847 0.009887 -0.001751 0.000000 0.000000 0.000000
# 3 0.001843 -0.001751 0.012440 0.000000 0.000000 0.000000
# 4 0.000000 0.000000 0.000000 -0.053682 0.000000 0.000000
# 5 0.000000 0.000000 0.000000 0.000000 0.038794 0.000000
# 6 0.000000 0.000000 0.000000 0.000000 0.000000 0.024184
#
#
# Mechanical properties :
#
#
# Convention : Reuss Voigt Hill
#
# Bulk Modulus (GPa) = 47.39911 61.51052 54.45481
# Shear Modulus (GPa) = 82.71854 29.66689 56.19272
#
# Velocity S-wave (km/s) = 6.11302 3.66092 5.03842
# Velocity P-wave (km/s) = 8.44028 6.75706 7.64514
#
# Compressibility (1/GPa) = 0.02109744
#
# Stress axis : x y z
#
# Youngs Moduli (GPa) = 97.26513 101.14687 80.38697
#
# Poissons Ratio (x) = 0.59145 -0.14818
# Poissons Ratio (y) = 0.56875 0.14075
# Poissons Ratio (z) = -0.17929 0.17710
#
# Static dielectric constant tensor:
#      x y z
#    x 1.759020 0.000000 0.000000 
#    y 0.000000 1.803150 0.000000 
#    z 0.000000 0.000000 1.866020 
# 
# From -- ./inp_files/16081.got.cif
#   From: 2010.05.17/outbox.cif.g08.bks.cpg/sg65_9_cif.got.tgz:16081.got - 2010.06.03 17:01:31.
