data_PCOD9484894
_publ_section_title
;
Structure prediction by ZEFSAII (Michael W. Deem and Ramdas Pophale) SiO2 
 PCOD9484894
Probable space group: C M M M
;
_chemical_formula_sum "Si O2"
_cell_formula_units_Z 96
_cell_length_a 19.850668
_cell_length_b 30.978422
_cell_length_c 7.380520
_cell_angle_alpha 90.000000
_cell_angle_beta 90.000000
_cell_angle_gamma 90.000000
_cell_volume 4538.594463
_symmetry_space_group_name_H-M "C M M M"
_symmetry_group_IT_number 65
_symmetry_cell_setting 'orthorhombic'
loop_
_space_group_symop_operation_xyz
x,y,z
-x,-y,z
x,-y,-z
-x,y,-z
-x,-y,-z
x,y,-z
-x,y,z
x,-y,z
1/2+x,1/2+y,z
1/2-x,1/2-y,z
1/2+x,1/2-y,-z
1/2-x,1/2+y,-z
1/2-x,1/2-y,-z
1/2+x,1/2+y,-z
1/2-x,1/2+y,z
1/2+x,1/2-y,z
loop_
_atom_site_type_symbol
_atom_site_label
_atom_site_fract_x
_atom_site_fract_y
_atom_site_fract_z
Si Si1 0.922680 0.301964 0.720836
Si Si2 0.927255 0.450814 0.279526
Si Si3 0.826673 0.380622 0.278570
Si Si4 0.821885 0.771804 0.279031
Si Si5 0.077077 0.951505 0.783440
Si Si6 0.324907 0.629719 0.716560
O O1 0.924627 0.303124 0.500000
O O2 0.873101 0.340558 0.777250
O O3 0.883942 0.258532 0.774283
O O4 0.000000 0.305450 0.781942
O O5 0.926392 0.450868 0.500000
O O6 0.923843 0.500000 0.220484
O O7 0.865424 0.422973 0.218094
O O8 0.000000 0.432178 0.226507
O O9 0.825317 0.379585 0.500000
O O10 0.750249 0.380577 0.216805
O O11 0.818943 0.771966 0.500000
O O12 0.750000 0.750000 0.222648
O O13 0.836131 0.820937 0.218957
O O14 0.124013 0.909906 0.748920
O O15 0.000000 0.944629 0.718015
O O16 0.099308 0.000000 0.719823
O O17 0.074036 0.954310 0.000000
O O18 0.322261 0.633200 0.500000
#
# Coordination Sequence:
#
# PCOD9484894 Si02
#       6
#    16  16  16  16  16  16
#     4   9  15  22  35  55  83 127 175 204 228 280
#     4   8  13  20  29  43  71 114 155 187 223 271
#     4   9  15  23  35  57  89 123 154 190 238 287
#     4   9  15  26  40  60  98 140 168 198 248 301
#     4   9  20  40  60  74  95 131 169 205 252 311
#     4  10  19  29  49  78 104 129 159 203 256 300
#
# _framework density 21.151921999999999
#
# number of rings (size 3 to 8) (size 9 to 14) (size 15 to 20)
#    0.000    3.000    1.667    1.500    0.000    4.000 
#    0.000    4.167    0.000    0.500    0.000    0.000 
#    0.000    2.667    0.000    9.167    0.000    7.000 
#
# Total GULP energy -267600.137188 kJ/mol
# GULP energy per Si atom -5575.002858 kJ/mol
# Density = 2.110378 g / cm^3
# Si number density = 21.151922 Si / 1000 Ang^3
#
#
#
# Elastic Constant Matrix: (Units=GPa)
#
#
# Indices 1 2 3 4 5 6 
#
# 1 168.0358 112.2264 3.0597 0.0000 0.0000 0.0000
# 2 112.2264 175.0053 2.7102 0.0000 0.0000 0.0000
# 3 3.0597 2.7102 72.5622 0.0000 0.0000 0.0000
# 4 0.0000 0.0000 0.0000 15.8743 0.0000 0.0000
# 5 0.0000 0.0000 0.0000 0.0000 19.4587 0.0000
# 6 0.0000 0.0000 0.0000 0.0000 0.0000 50.8291
#
#
#
# Elastic Compliance Matrix: (Units=1/GPa)
#
#
# Indices 1 2 3 4 5 6 
#
# 1 0.010412 -0.006674 -0.000190 0.000000 0.000000 0.000000
# 2 -0.006674 0.009995 -0.000092 0.000000 0.000000 0.000000
# 3 -0.000190 -0.000092 0.013793 0.000000 0.000000 0.000000
# 4 0.000000 0.000000 0.000000 0.062995 0.000000 0.000000
# 5 0.000000 0.000000 0.000000 0.000000 0.051391 0.000000
# 6 0.000000 0.000000 0.000000 0.000000 0.000000 0.019674
#
#
# Mechanical properties :
#
#
# Convention : Reuss Voigt Hill
#
# Bulk Modulus (GPa) = 49.28840 72.39956 60.84398
# Shear Modulus (GPa) = 26.46432 37.07288 31.76860
#
# Velocity S-wave (km/s) = 3.54100 4.19106 3.87967
# Velocity P-wave (km/s) = 6.33016 7.59754 6.99263
#
# Compressibility (1/GPa) = 0.02028875
#
# Stress axis : x y z
#
# Youngs Moduli (GPa) = 96.04378 100.04627 72.50201
#
# Poissons Ratio (x) = 0.66770 0.01376
# Poissons Ratio (y) = 0.64099 0.00666
# Poissons Ratio (z) = 0.01823 0.00919
#
# Static dielectric constant tensor:
#      x y z
#    x 1.734340 0.000000 0.000000 
#    y 0.000000 1.764190 0.000000 
#    z 0.000000 0.000000 1.828120 
# 
# From -- ./inp_files/12228.got.cif
#   From: 2010.05.17/outbox.cif.g08.bks.cpg/sg65_7_cif.got.tgz:12228.got - 2010.06.03 17:01:31.
