data_PCOD9484341
_publ_section_title
;
Structure prediction by ZEFSAII (Michael W. Deem and Ramdas Pophale) SiO2 
 PCOD9484341
Probable space group: C M M M
;
_chemical_formula_sum "Si O2"
_cell_formula_units_Z 64
_cell_length_a 19.355631
_cell_length_b 8.624541
_cell_length_c 21.311067
_cell_angle_alpha 90.000000
_cell_angle_beta 90.000000
_cell_angle_gamma 90.000000
_cell_volume 3557.529578
_symmetry_space_group_name_H-M "C M M M"
_symmetry_group_IT_number 65
_symmetry_cell_setting 'orthorhombic'
loop_
_space_group_symop_operation_xyz
x,y,z
-x,-y,z
x,-y,-z
-x,y,-z
-x,-y,-z
x,y,-z
-x,y,z
x,-y,z
1/2+x,1/2+y,z
1/2-x,1/2-y,z
1/2+x,1/2-y,-z
1/2-x,1/2+y,-z
1/2-x,1/2-y,-z
1/2+x,1/2+y,-z
1/2-x,1/2+y,z
1/2+x,1/2-y,z
loop_
_atom_site_type_symbol
_atom_site_label
_atom_site_fract_x
_atom_site_fract_y
_atom_site_fract_z
Si Si1 0.171628 0.815327 0.000000
Si Si2 0.081896 0.814399 0.241586
Si Si3 0.327271 0.687993 0.500000
Si Si4 0.920769 0.811134 0.383721
Si Si5 0.172464 0.683736 0.869955
O O1 0.250000 0.750000 0.000000
O O2 0.141637 0.754085 0.934509
O O3 0.172855 0.000000 0.000000
O O4 0.099173 0.764972 0.312975
O O5 0.126619 0.730615 0.189270
O O6 0.000000 0.787158 0.232943
O O7 0.093264 0.000000 0.236763
O O8 0.326062 0.500000 0.500000
O O9 0.250000 0.750000 0.500000
O O10 0.369233 0.739469 0.561855
O O11 0.000000 0.762077 0.395926
O O12 0.921499 0.000000 0.383974
O O13 0.177108 0.500000 0.876736
O O14 0.250000 0.750000 0.861885
#
# Coordination Sequence:
#
# PCOD9484341 Si02
#       5
#     8  16   8  16  16
#     4  10  18  32  53  76 103 134 171 211 255 305
#     4   9  18  34  54  76 103 134 170 213 261 310
#     4  10  19  31  49  75 105 132 164 208 256 300
#     4   8  15  30  53  75  95 128 173 212 246 296
#     4  11  21  34  53  77 105 136 173 213 255 304
#
# _framework density 17.990013000000001
#
# number of rings (size 3 to 8) (size 9 to 14) (size 15 to 20)
#    0.000    2.500    0.000    6.750    0.000    3.000 
#    0.000    4.375    0.000    6.750    0.000    0.000 
#    0.000    0.000    0.000    0.000    0.000    0.000 
#
# Total GULP energy -178487.387840 kJ/mol
# GULP energy per Si atom -5577.730870 kJ/mol
# Density = 1.794907 g / cm^3
# Si number density = 17.990013 Si / 1000 Ang^3
#
#
#
# Elastic Constant Matrix: (Units=GPa)
#
#
# Indices 1 2 3 4 5 6 
#
# 1 69.1727 39.0359 92.2692 0.0000 0.0000 0.0000
# 2 39.0359 86.5774 61.3745 0.0000 0.0000 0.0000
# 3 92.2692 61.3745 191.5360 0.0000 0.0000 0.0000
# 4 0.0000 0.0000 0.0000 20.3618 0.0000 0.0000
# 5 0.0000 0.0000 0.0000 0.0000 35.1944 0.0000
# 6 0.0000 0.0000 0.0000 0.0000 0.0000 25.7918
#
#
#
# Elastic Compliance Matrix: (Units=1/GPa)
#
#
# Indices 1 2 3 4 5 6 
#
# 1 0.042765 -0.006052 -0.018662 0.000000 0.000000 0.000000
# 2 -0.006052 0.015802 -0.002148 0.000000 0.000000 0.000000
# 3 -0.018662 -0.002148 0.014899 0.000000 0.000000 0.000000
# 4 0.000000 0.000000 0.000000 0.049111 0.000000 0.000000
# 5 0.000000 0.000000 0.000000 0.000000 0.028414 0.000000
# 6 0.000000 0.000000 0.000000 0.000000 0.000000 0.038772
#
#
# Mechanical properties :
#
#
# Convention : Reuss Voigt Hill
#
# Bulk Modulus (GPa) = 50.65368 81.40503 66.02935
# Shear Modulus (GPa) = 19.99447 26.57670 23.28559
#
# Velocity S-wave (km/s) = 3.33741 3.84774 3.60163
# Velocity P-wave (km/s) = 6.56268 8.06774 7.35382
#
# Compressibility (1/GPa) = 0.01974190
#
# Stress axis : x y z
#
# Youngs Moduli (GPa) = 23.38336 63.28376 67.11717
#
# Poissons Ratio (x) = 0.38302 1.25255
# Poissons Ratio (y) = 0.14153 0.14415
# Poissons Ratio (z) = 0.43638 0.13592
#
# Static dielectric constant tensor:
#      x y z
#    x 1.423970 0.000000 0.000000 
#    y 0.000000 1.614850 0.000000 
#    z 0.000000 0.000000 1.637770 
# 
# From -- ./inp_files/59112.got.cif
#   From: 2010.05.17/outbox.cif.g08.bks.cpg/sg65_30_cif.got.tgz:59112.got - 2010.06.03 17:01:31.
