data_PCOD9484127
_publ_section_title
;
Structure prediction by ZEFSAII (Michael W. Deem and Ramdas Pophale) SiO2 
 PCOD9484127
Probable space group: C M M M
;
_chemical_formula_sum "Si O2"
_cell_formula_units_Z 104
_cell_length_a 8.362584
_cell_length_b 29.541472
_cell_length_c 23.763282
_cell_angle_alpha 90.000000
_cell_angle_beta 90.000000
_cell_angle_gamma 90.000000
_cell_volume 5870.553451
_symmetry_space_group_name_H-M "C M M M"
_symmetry_group_IT_number 65
_symmetry_cell_setting 'orthorhombic'
loop_
_space_group_symop_operation_xyz
x,y,z
-x,-y,z
x,-y,-z
-x,y,-z
-x,-y,-z
x,y,-z
-x,y,z
x,-y,z
1/2+x,1/2+y,z
1/2-x,1/2-y,z
1/2+x,1/2-y,-z
1/2-x,1/2+y,-z
1/2-x,1/2-y,-z
1/2+x,1/2+y,-z
1/2-x,1/2+y,z
1/2+x,1/2-y,z
loop_
_atom_site_type_symbol
_atom_site_label
_atom_site_fract_x
_atom_site_fract_y
_atom_site_fract_z
Si Si1 0.307271 0.299047 0.851274
Si Si2 0.808515 0.895302 0.890611
Si Si3 0.192702 0.798997 0.279322
Si Si4 0.694990 0.552131 0.436389
Si Si5 0.190955 0.448197 0.000000
Si Si6 0.308014 0.947523 0.779928
Si Si7 0.806367 0.107002 0.328700
O O1 0.500000 0.298880 0.851162
O O2 0.250000 0.250000 0.871452
O O3 0.252570 0.343077 0.885489
O O4 0.254043 0.304423 0.785927
O O5 0.745013 0.921580 0.944610
O O6 0.756907 0.920914 0.833924
O O7 0.000000 0.894871 0.893142
O O8 0.250000 0.750000 0.299296
O O9 0.248241 0.841917 0.315367
O O10 0.000000 0.799184 0.278965
O O11 0.745983 0.563770 0.500000
O O12 0.500000 0.552799 0.436225
O O13 0.742104 0.500000 0.424724
O O14 0.750469 0.585416 0.387278
O O15 0.252887 0.500000 0.000000
O O16 0.000000 0.450276 0.000000
O O17 0.500000 0.945840 0.780863
O O18 0.246336 0.924105 0.723267
O O19 0.257652 0.000000 0.782048
O O20 0.000000 0.107429 0.329742
#
# Coordination Sequence:
#
# PCOD9484127 Si02
#       7
#    16  16  16  16   8  16  16
#     4   9  18  33  53  79 107 133 168 212 257 311
#     4  11  22  39  60  82 106 137 179 220 257 305
#     4   9  17  30  47  72 102 132 168 209 257 312
#     4   8  14  25  44  72 102 132 170 216 263 308
#     4  11  25  43  60  81 110 143 180 217 256 309
#     4  11  23  35  49  75 109 139 169 211 263 315
#     4  10  18  31  51  75 102 133 173 218 262 310
#
# _framework density 17.715534999999999
#
# number of rings (size 3 to 8) (size 9 to 14) (size 15 to 20)
#    0.000    2.231    1.538    2.538    0.000    6.154 
#    0.000    0.385    0.000    0.923    0.000    2.154 
#    0.000    0.000    0.000    0.000    0.000    0.000 
#
# Total GULP energy -290151.724243 kJ/mol
# GULP energy per Si atom -5579.840851 kJ/mol
# Density = 1.767521 g / cm^3
# Si number density = 17.715535 Si / 1000 Ang^3
#
#
#
# Elastic Constant Matrix: (Units=GPa)
#
#
# Indices 1 2 3 4 5 6 
#
# 1 12.6280 24.9303 15.4492 0.0000 0.0000 0.0000
# 2 24.9303 195.7127 97.6848 0.0000 0.0000 0.0000
# 3 15.4492 97.6848 128.3535 0.0000 0.0000 0.0000
# 4 0.0000 0.0000 0.0000 28.5226 0.0000 0.0000
# 5 0.0000 0.0000 0.0000 0.0000 -67.2048 0.0000
# 6 0.0000 0.0000 0.0000 0.0000 0.0000 25.1387
#
#
#
# Elastic Compliance Matrix: (Units=1/GPa)
#
#
# Indices 1 2 3 4 5 6 
#
# 1 0.107080 -0.011622 -0.004044 0.000000 0.000000 0.000000
# 2 -0.011622 0.009501 -0.005832 0.000000 0.000000 0.000000
# 3 -0.004044 -0.005832 0.012716 0.000000 0.000000 0.000000
# 4 0.000000 0.000000 0.000000 0.035060 0.000000 0.000000
# 5 0.000000 0.000000 0.000000 0.000000 -0.014880 0.000000
# 6 0.000000 0.000000 0.000000 0.000000 0.000000 0.039779
#
#
# Mechanical properties :
#
#
# Convention : Reuss Voigt Hill
#
# Bulk Modulus (GPa) = 11.58724 68.09141 39.83932
# Shear Modulus (GPa) = 19.15582 10.53330 14.84456
#
# Velocity S-wave (km/s) = 3.29188 2.44105 2.89786
# Velocity P-wave (km/s) = 4.58296 6.81648 5.80809
#
# Compressibility (1/GPa) = 0.08630183
#
# Stress axis : x y z
#
# Youngs Moduli (GPa) = 9.33885 105.25557 78.64082
#
# Poissons Ratio (x) = 1.22324 0.31801
# Poissons Ratio (y) = 0.10853 0.45861
# Poissons Ratio (z) = 0.03776 0.61383
#
# Static dielectric constant tensor:
#      x y z
#    x 1.609260 0.000000 0.000000 
#    y 0.000000 1.614270 0.000000 
#    z 0.000000 0.000000 1.565780 
# 
# From -- ./inp_files/60906.got.cif
#   From: 2010.05.17/outbox.cif.g08.bks.cpg/sg65_31_cif.got.tgz:60906.got - 2010.06.03 17:01:31.
