data_PCOD9484080
_publ_section_title
;
Structure prediction by ZEFSAII (Michael W. Deem and Ramdas Pophale) SiO2 
 PCOD9484080
Probable space group: C M M M
;
_chemical_formula_sum "Si O2"
_cell_formula_units_Z 56
_cell_length_a 7.582488
_cell_length_b 29.945524
_cell_length_c 13.253373
_cell_angle_alpha 90.000000
_cell_angle_beta 90.000000
_cell_angle_gamma 90.000000
_cell_volume 3009.331766
_symmetry_space_group_name_H-M "C M M M"
_symmetry_group_IT_number 65
_symmetry_cell_setting 'orthorhombic'
loop_
_space_group_symop_operation_xyz
x,y,z
-x,-y,z
x,-y,-z
-x,y,-z
-x,-y,-z
x,y,-z
-x,y,z
x,-y,z
1/2+x,1/2+y,z
1/2-x,1/2-y,z
1/2+x,1/2-y,-z
1/2-x,1/2+y,-z
1/2-x,1/2-y,-z
1/2+x,1/2+y,-z
1/2-x,1/2+y,z
1/2+x,1/2-y,z
loop_
_atom_site_type_symbol
_atom_site_label
_atom_site_fract_x
_atom_site_fract_y
_atom_site_fract_z
Si Si1 0.209485 0.891628 0.699121
Si Si2 0.211130 0.448801 0.500000
Si Si3 0.711625 0.700644 0.615631
Si Si4 0.784533 0.948649 0.886123
O O1 0.232706 0.922045 0.599805
O O2 0.280275 0.842138 0.675954
O O3 0.280727 0.916624 0.797610
O O4 0.000000 0.886982 0.715440
O O5 0.277030 0.500000 0.500000
O O6 0.000000 0.450166 0.500000
O O7 0.779075 0.698749 0.500000
O O8 0.500000 0.696459 0.610462
O O9 0.750000 0.750000 0.656525
O O10 0.000000 0.948379 0.884653
O O11 0.731419 0.000000 0.867237
O O12 0.731016 0.936290 0.000000
#
# Coordination Sequence:
#
# PCOD9484080 Si02
#       4
#    16   8  16  16
#     4  10  18  31  50  70  92 121 157 194 229 272
#     4  11  23  33  42  65 100 129 152 183 228 281
#     4   9  17  29  44  65  90 117 153 190 227 276
#     4   8  14  25  44  71  96 117 148 191 233 269
#
# _framework density 18.608784
#
# number of rings (size 3 to 8) (size 9 to 14) (size 15 to 20)
#    0.000    2.714    1.429    2.143    0.000    3.429 
#    0.000    0.000    0.000    1.714    0.000    4.000 
#    0.000    0.000    0.000    0.000    0.000    0.000 
#
# Total GULP energy -156171.345014 kJ/mol
# GULP energy per Si atom -5577.548036 kJ/mol
# Density = 1.856643 g / cm^3
# Si number density = 18.608784 Si / 1000 Ang^3
#
#
#
# Elastic Constant Matrix: (Units=GPa)
#
#
# Indices 1 2 3 4 5 6 
#
# 1 39.9070 0.7418 -1.5728 0.0000 0.0000 0.0000
# 2 0.7418 195.5075 114.0119 0.0000 0.0000 0.0000
# 3 -1.5728 114.0119 145.1195 0.0000 0.0000 0.0000
# 4 0.0000 0.0000 0.0000 59.9466 0.0000 0.0000
# 5 0.0000 0.0000 0.0000 0.0000 82.4532 0.0000
# 6 0.0000 0.0000 0.0000 0.0000 0.0000 13.0930
#
#
#
# Elastic Compliance Matrix: (Units=1/GPa)
#
#
# Indices 1 2 3 4 5 6 
#
# 1 0.025092 -0.000468 0.000640 0.000000 0.000000 0.000000
# 2 -0.000468 0.009448 -0.007428 0.000000 0.000000 0.000000
# 3 0.000640 -0.007428 0.012734 0.000000 0.000000 0.000000
# 4 0.000000 0.000000 0.000000 0.016682 0.000000 0.000000
# 5 0.000000 0.000000 0.000000 0.000000 0.012128 0.000000
# 6 0.000000 0.000000 0.000000 0.000000 0.000000 0.076376
#
#
# Mechanical properties :
#
#
# Convention : Reuss Voigt Hill
#
# Bulk Modulus (GPa) = 30.52402 67.43286 48.97844
# Shear Modulus (GPa) = 28.10660 48.92211 38.51436
#
# Velocity S-wave (km/s) = 3.89060 5.13292 4.55432
# Velocity P-wave (km/s) = 6.05152 8.45251 7.35071
#
# Compressibility (1/GPa) = 0.03276108
#
# Stress axis : x y z
#
# Youngs Moduli (GPa) = 39.85306 105.83692 78.53160
#
# Poissons Ratio (x) = 0.04957 -0.05026
# Poissons Ratio (y) = 0.01867 0.58335
# Poissons Ratio (z) = -0.02550 0.78618
#
# Static dielectric constant tensor:
#      x y z
#    x 1.701180 0.000000 0.000000 
#    y 0.000000 1.657160 0.000000 
#    z 0.000000 0.000000 1.629210 
# 
# From -- ./inp_files/20758.got.cif
#   From: 2010.05.17/outbox.cif.g08.bks.cpg/sg65_11_cif.got.tgz:20758.got - 2010.06.03 17:01:31.
