data_PCOD9484045
_publ_section_title
;
Structure prediction by ZEFSAII (Michael W. Deem and Ramdas Pophale) SiO2 
 PCOD9484045
Probable space group: C M M M
;
_chemical_formula_sum "Si O2"
_cell_formula_units_Z 80
_cell_length_a 21.300452
_cell_length_b 29.629156
_cell_length_c 7.794934
_cell_angle_alpha 90.000000
_cell_angle_beta 90.000000
_cell_angle_gamma 90.000000
_cell_volume 4919.495213
_symmetry_space_group_name_H-M "C M M M"
_symmetry_group_IT_number 65
_symmetry_cell_setting 'orthorhombic'
loop_
_space_group_symop_operation_xyz
x,y,z
-x,-y,z
x,-y,-z
-x,y,-z
-x,-y,-z
x,y,-z
-x,y,z
x,-y,z
1/2+x,1/2+y,z
1/2-x,1/2-y,z
1/2+x,1/2-y,-z
1/2-x,1/2+y,-z
1/2-x,1/2-y,-z
1/2+x,1/2+y,-z
1/2-x,1/2+y,z
1/2+x,1/2-y,z
loop_
_atom_site_type_symbol
_atom_site_label
_atom_site_fract_x
_atom_site_fract_y
_atom_site_fract_z
Si Si1 0.593984 0.355023 0.309567
Si Si2 0.431365 0.253171 0.205649
Si Si3 0.701319 0.788162 0.295291
Si Si4 0.788836 0.051985 0.000000
Si Si5 0.932500 0.079159 0.000000
Si Si6 0.239097 0.879503 0.699781
O O1 0.574916 0.369204 0.500000
O O2 0.574195 0.303864 0.276735
O O3 0.569421 0.388258 0.164925
O O4 0.669462 0.357753 0.300751
O O5 0.500000 0.234684 0.257126
O O6 0.369945 0.226189 0.262202
O O7 0.429750 0.256104 0.000000
O O8 0.711634 0.789891 0.500000
O O9 0.750000 0.750000 0.227069
O O10 0.716856 0.838766 0.235402
O O11 0.764875 0.079083 0.831976
O O12 0.865551 0.053904 0.000000
O O13 0.769335 0.000000 0.000000
O O14 0.000000 0.054691 0.000000
O O15 0.253344 0.891774 0.500000
#
# Coordination Sequence:
#
# PCOD9484045 Si02
#       6
#    16  16  16   8   8  16
#     4  10  18  31  48  67  97 134 170 210 250 286
#     4  11  22  31  42  68 106 143 177 211 242 285
#     4  10  19  32  50  73 101 135 174 209 246 299
#     4  10  22  37  54  74  94 127 166 209 271 312
#     4  10  20  33  47  69  96 123 168 217 254 303
#     4   9  19  34  53  77  99 125 167 212 251 300
#
# _framework density 16.261831000000001
#
# number of rings (size 3 to 8) (size 9 to 14) (size 15 to 20)
#    0.000    2.000    3.000    1.200    1.400    3.800 
#    0.000    0.000    0.000    0.000    0.000    5.600 
#    0.000    1.600    0.000    4.400    0.000    0.000 
#
# Total GULP energy -223065.239126 kJ/mol
# GULP energy per Si atom -5576.630978 kJ/mol
# Density = 1.622482 g / cm^3
# Si number density = 16.261831 Si / 1000 Ang^3
#
#
#
# Elastic Constant Matrix: (Units=GPa)
#
#
# Indices 1 2 3 4 5 6 
#
# 1 76.2990 48.6673 9.1817 0.0000 0.0000 0.0000
# 2 48.6673 106.6035 44.7293 0.0000 0.0000 0.0000
# 3 9.1817 44.7293 65.5019 0.0000 0.0000 0.0000
# 4 0.0000 0.0000 0.0000 11.9141 0.0000 0.0000
# 5 0.0000 0.0000 0.0000 0.0000 19.5195 0.0000
# 6 0.0000 0.0000 0.0000 0.0000 0.0000 4.1108
#
#
#
# Elastic Compliance Matrix: (Units=1/GPa)
#
#
# Indices 1 2 3 4 5 6 
#
# 1 0.019463 -0.010849 0.004680 0.000000 0.000000 0.000000
# 2 -0.010849 0.019195 -0.011587 0.000000 0.000000 0.000000
# 3 0.004680 -0.011587 0.022523 0.000000 0.000000 0.000000
# 4 0.000000 0.000000 0.000000 0.083934 0.000000 0.000000
# 5 0.000000 0.000000 0.000000 0.000000 0.051231 0.000000
# 6 0.000000 0.000000 0.000000 0.000000 0.000000 0.243261
#
#
# Mechanical properties :
#
#
# Convention : Reuss Voigt Hill
#
# Bulk Modulus (GPa) = 38.95634 50.39568 44.67601
# Shear Modulus (GPa) = 10.33749 16.83064 13.58407
#
# Velocity S-wave (km/s) = 2.52403 3.22060 2.89335
# Velocity P-wave (km/s) = 5.70105 6.69978 6.22049
#
# Compressibility (1/GPa) = 0.02566976
#
# Stress axis : x y z
#
# Youngs Moduli (GPa) = 51.37855 52.09583 44.39870
#
# Poissons Ratio (x) = 0.56521 -0.20781
# Poissons Ratio (y) = 0.55743 0.51445
# Poissons Ratio (z) = -0.24048 0.60364
#
# Static dielectric constant tensor:
#      x y z
#    x 1.587210 0.000000 0.000000 
#    y 0.000000 1.514260 0.000000 
#    z 0.000000 0.000000 1.576720 
# 
# From -- ./inp_files/9697.got.cif
#   From: 2010.05.17/outbox.cif.g08.bks.cpg/sg65_5_cif.got.tgz:9697.got - 2010.06.03 17:01:31.
