data_PCOD9484397
_publ_section_title
;
Structure prediction by ZEFSAII (Michael W. Deem and Ramdas Pophale) SiO2 
 PCOD9484397
Probable space group: C M M M
;
_chemical_formula_sum "Si O2"
_cell_formula_units_Z 72
_cell_length_a 13.340220
_cell_length_b 18.877729
_cell_length_c 15.493675
_cell_angle_alpha 90.000000
_cell_angle_beta 90.000000
_cell_angle_gamma 90.000000
_cell_volume 3901.819554
_symmetry_space_group_name_H-M "C M M M"
_symmetry_group_IT_number 65
_symmetry_cell_setting 'orthorhombic'
loop_
_space_group_symop_operation_xyz
x,y,z
-x,-y,z
x,-y,-z
-x,y,-z
-x,-y,-z
x,y,-z
-x,y,z
x,-y,z
1/2+x,1/2+y,z
1/2-x,1/2-y,z
1/2+x,1/2-y,-z
1/2-x,1/2+y,-z
1/2-x,1/2-y,-z
1/2+x,1/2+y,-z
1/2-x,1/2+y,z
1/2+x,1/2-y,z
loop_
_atom_site_type_symbol
_atom_site_label
_atom_site_fract_x
_atom_site_fract_y
_atom_site_fract_z
Si Si1 0.614349 0.081212 0.768217
Si Si2 0.115645 0.198306 0.662448
Si Si3 0.788632 0.175143 0.151688
Si Si4 0.679547 0.145349 0.599510
Si Si5 0.380231 0.582107 0.000000
O O1 0.500000 0.101766 0.786426
O O2 0.692509 0.132331 0.814009
O O3 0.634838 0.089544 0.666179
O O4 0.629544 0.000000 0.794436
O O5 0.143765 0.192392 0.763854
O O6 0.200325 0.152021 0.614189
O O7 0.135227 0.278437 0.629754
O O8 0.000000 0.179192 0.647806
O O9 0.750000 0.250000 0.115410
O O10 0.843134 0.125686 0.083060
O O11 0.656788 0.133049 0.500000
O O12 0.344588 0.500000 0.000000
O O13 0.500000 0.580643 0.000000
#
# Coordination Sequence:
#
# PCOD9484397 Si02
#       5
#    16  16  16  16   8
#     4  10  21  37  57  82 116 155 190 230 285 345
#     4  10  18  32  54  80 111 146 187 234 288 334
#     4  11  21  39  61  88 113 144 189 237 282 333
#     4  10  20  32  49  80 115 149 191 238 281 329
#     4  11  25  42  61  87 117 149 184 227 284 344
#
# _framework density 18.452928
#
# number of rings (size 3 to 8) (size 9 to 14) (size 15 to 20)
#    0.000    1.667    4.444    3.667    0.000    4.444 
#    0.000    1.667    0.000    8.000    0.000    6.222 
#    0.000    0.000    0.000    0.000    0.000    0.000 
#
# Total GULP energy -200963.971322 kJ/mol
# GULP energy per Si atom -5582.332537 kJ/mol
# Density = 1.841093 g / cm^3
# Si number density = 18.452928 Si / 1000 Ang^3
#
#
#
# Elastic Constant Matrix: (Units=GPa)
#
#
# Indices 1 2 3 4 5 6 
#
# 1 111.5964 38.5094 21.3623 0.0000 0.0000 0.0000
# 2 38.5094 72.7439 34.9362 0.0000 0.0000 0.0000
# 3 21.3623 34.9362 95.7007 0.0000 0.0000 0.0000
# 4 0.0000 0.0000 0.0000 9.3377 0.0000 0.0000
# 5 0.0000 0.0000 0.0000 0.0000 3.8117 0.0000
# 6 0.0000 0.0000 0.0000 0.0000 0.0000 16.4788
#
#
#
# Elastic Compliance Matrix: (Units=1/GPa)
#
#
# Indices 1 2 3 4 5 6 
#
# 1 0.010976 -0.005619 -0.000399 0.000000 0.000000 0.000000
# 2 -0.005619 0.019546 -0.005881 0.000000 0.000000 0.000000
# 3 -0.000399 -0.005881 0.012685 0.000000 0.000000 0.000000
# 4 0.000000 0.000000 0.000000 0.107092 0.000000 0.000000
# 5 0.000000 0.000000 0.000000 0.000000 0.262351 0.000000
# 6 0.000000 0.000000 0.000000 0.000000 0.000000 0.060684
#
#
# Mechanical properties :
#
#
# Convention : Reuss Voigt Hill
#
# Bulk Modulus (GPa) = 51.52149 52.18410 51.85279
# Shear Modulus (GPa) = 9.92847 18.27452 14.10149
#
# Velocity S-wave (km/s) = 2.32209 3.15037 2.76739
# Velocity P-wave (km/s) = 5.93048 6.44779 6.19454
#
# Compressibility (1/GPa) = 0.01940938
#
# Stress axis : x y z
#
# Youngs Moduli (GPa) = 91.10595 51.16135 78.83195
#
# Poissons Ratio (x) = 0.28748 0.03144
# Poissons Ratio (y) = 0.51193 0.46362
# Poissons Ratio (z) = 0.03633 0.30089
#
# Static dielectric constant tensor:
#      x y z
#    x 1.631520 0.000000 0.000000 
#    y 0.000000 1.626480 0.000000 
#    z 0.000000 0.000000 1.636010 
# 
# From -- ./inp_files/39739.got.cif
#   From: 2010.05.17/outbox.cif.g08.bks.cpg/sg65_20_cif.got.tgz:39739.got - 2010.06.03 17:01:31.
