data_PCOD9484738
_publ_section_title
;
Structure prediction by ZEFSAII (Michael W. Deem and Ramdas Pophale) SiO2 
 PCOD9484738
Probable space group: C M M M
;
_chemical_formula_sum "Si O2"
_cell_formula_units_Z 104
_cell_length_a 27.699491
_cell_length_b 9.005357
_cell_length_c 26.850384
_cell_angle_alpha 90.000000
_cell_angle_beta 90.000000
_cell_angle_gamma 90.000000
_cell_volume 6697.661955
_symmetry_space_group_name_H-M "C M M M"
_symmetry_group_IT_number 65
_symmetry_cell_setting 'orthorhombic'
loop_
_space_group_symop_operation_xyz
x,y,z
-x,-y,z
x,-y,-z
-x,y,-z
-x,-y,-z
x,y,-z
-x,y,z
x,-y,z
1/2+x,1/2+y,z
1/2-x,1/2-y,z
1/2+x,1/2-y,-z
1/2-x,1/2+y,-z
1/2-x,1/2-y,-z
1/2+x,1/2+y,-z
1/2-x,1/2+y,z
1/2+x,1/2-y,z
loop_
_atom_site_type_symbol
_atom_site_label
_atom_site_fract_x
_atom_site_fract_y
_atom_site_fract_z
Si Si1 0.944691 0.822804 0.846355
Si Si2 0.301786 0.676694 0.798454
Si Si3 0.394989 0.822851 0.752538
Si Si4 0.302741 0.823808 0.000000
Si Si5 0.557916 0.675174 0.657209
Si Si6 0.441453 0.826789 0.555250
Si Si7 0.649397 0.675461 0.905483
O O1 0.929850 0.735722 0.796681
O O2 0.905261 0.787787 0.888616
O O3 0.000000 0.793684 0.860214
O O4 0.939584 0.000000 0.835947
O O5 0.300504 0.500000 0.789826
O O6 0.250000 0.750000 0.790490
O O7 0.343033 0.751714 0.764952
O O8 0.318599 0.699624 0.855844
O O9 0.415537 0.764532 0.700457
O O10 0.392385 0.000000 0.753463
O O11 0.250000 0.750000 0.000000
O O12 0.331020 0.769194 0.951127
O O13 0.297667 0.000000 0.000000
O O14 0.500000 0.699932 0.661457
O O15 0.566563 0.500000 0.662899
O O16 0.573720 0.730853 0.602553
O O17 0.425065 0.778251 0.500000
O O18 0.500000 0.821365 0.554469
O O19 0.428234 0.000000 0.561980
O O20 0.651691 0.500000 0.917865
#
# Coordination Sequence:
#
# PCOD9484738 Si02
#       7
#    16  16  16   8  16  16  16
#     4   9  18  34  54  73  95 125 159 194 232 274
#     4  10  20  35  54  74  96 122 152 188 232 281
#     4  11  21  31  46  69  96 126 159 194 233 278
#     4  12  24  36  53  74  97 123 152 191 235 278
#     4  10  19  29  42  62  91 126 162 200 238 276
#     4   8  14  25  40  58  83 117 156 196 237 281
#     4   9  19  35  54  75  98 123 153 188 226 274
#
# _framework density 15.527806
#
# number of rings (size 3 to 8) (size 9 to 14) (size 15 to 20)
#    0.000    2.308    0.000    5.308    0.000    7.692 
#    0.000    1.923    0.000    2.308    0.000    0.000 
#    0.000    0.615    0.000    2.308    0.000    3.538 
#
# Total GULP energy -290072.441284 kJ/mol
# GULP energy per Si atom -5578.316179 kJ/mol
# Density = 1.549246 g / cm^3
# Si number density = 15.527806 Si / 1000 Ang^3
#
#
#
# Elastic Constant Matrix: (Units=GPa)
#
#
# Indices 1 2 3 4 5 6 
#
# 1 99.4848 58.9111 54.0421 0.0000 0.0000 0.0000
# 2 58.9111 98.9781 75.8174 0.0000 0.0000 0.0000
# 3 54.0421 75.8174 112.0433 0.0000 0.0000 0.0000
# 4 0.0000 0.0000 0.0000 29.6429 0.0000 0.0000
# 5 0.0000 0.0000 0.0000 0.0000 13.0954 0.0000
# 6 0.0000 0.0000 0.0000 0.0000 0.0000 23.2038
#
#
#
# Elastic Compliance Matrix: (Units=1/GPa)
#
#
# Indices 1 2 3 4 5 6 
#
# 1 0.015886 -0.007445 -0.002625 0.000000 0.000000 0.000000
# 2 -0.007445 0.024465 -0.012964 0.000000 0.000000 0.000000
# 3 -0.002625 -0.012964 0.018963 0.000000 0.000000 0.000000
# 4 0.000000 0.000000 0.000000 0.033735 0.000000 0.000000
# 5 0.000000 0.000000 0.000000 0.000000 0.076363 0.000000
# 6 0.000000 0.000000 0.000000 0.000000 0.000000 0.043096
#
#
# Mechanical properties :
#
#
# Convention : Reuss Voigt Hill
#
# Bulk Modulus (GPa) = 75.48540 76.44969 75.96755
# Shear Modulus (GPa) = 19.01210 21.30413 20.15811
#
# Velocity S-wave (km/s) = 3.50293 3.70807 3.60696
# Velocity P-wave (km/s) = 8.06717 8.22642 8.14718
#
# Compressibility (1/GPa) = 0.01324759
#
# Stress axis : x y z
#
# Youngs Moduli (GPa) = 62.94830 40.87527 52.73307
#
# Poissons Ratio (x) = 0.30431 0.13840
# Poissons Ratio (y) = 0.46864 0.68362
# Poissons Ratio (z) = 0.16521 0.52990
#
# Static dielectric constant tensor:
#      x y z
#    x 1.504410 0.000000 0.000000 
#    y 0.000000 1.516160 0.000000 
#    z 0.000000 0.000000 1.507340 
# 
# From -- ./inp_files/71840.got.cif
#   From: 2010.05.17/outbox.cif.g08.bks.cpg/sg65_36_cif.got.tgz:71840.got - 2010.06.03 17:01:31.
