data_PCOD9484660
_publ_section_title
;
Structure prediction by ZEFSAII (Michael W. Deem and Ramdas Pophale) SiO2 
 PCOD9484660
Probable space group: C M M M
;
_chemical_formula_sum "Si O2"
_cell_formula_units_Z 96
_cell_length_a 9.307177
_cell_length_b 27.024928
_cell_length_c 24.264974
_cell_angle_alpha 90.000000
_cell_angle_beta 90.000000
_cell_angle_gamma 90.000000
_cell_volume 6103.266714
_symmetry_space_group_name_H-M "C M M M"
_symmetry_group_IT_number 65
_symmetry_cell_setting 'orthorhombic'
loop_
_space_group_symop_operation_xyz
x,y,z
-x,-y,z
x,-y,-z
-x,y,-z
-x,-y,-z
x,y,-z
-x,y,z
x,-y,z
1/2+x,1/2+y,z
1/2-x,1/2-y,z
1/2+x,1/2-y,-z
1/2-x,1/2+y,-z
1/2-x,1/2-y,-z
1/2+x,1/2+y,-z
1/2-x,1/2+y,z
1/2+x,1/2-y,z
loop_
_atom_site_type_symbol
_atom_site_label
_atom_site_fract_x
_atom_site_fract_y
_atom_site_fract_z
Si Si1 0.833099 0.439931 0.561542
Si Si2 0.670280 0.444919 0.116154
Si Si3 0.831956 0.059810 0.670794
Si Si4 0.671430 0.658838 0.937237
Si Si5 0.330399 0.904117 0.778475
Si Si6 0.669344 0.798108 0.832836
O O1 0.788504 0.423637 0.500000
O O2 0.829164 0.500000 0.561067
O O3 0.735599 0.423952 0.612441
O O4 0.000000 0.425954 0.570047
O O5 0.500000 0.442820 0.129345
O O6 0.701438 0.500000 0.094575
O O7 0.698644 0.399477 0.074967
O O8 0.758557 0.434767 0.171727
O O9 0.746159 0.082697 0.721656
O O10 0.000000 0.072039 0.673907
O O11 0.818611 0.000000 0.674226
O O12 0.500000 0.667118 0.929802
O O13 0.759879 0.688571 0.891768
O O14 0.709339 0.671026 0.000000
O O15 0.500000 0.914600 0.775441
O O16 0.311058 0.846650 0.795193
O O17 0.500000 0.788963 0.839000
O O18 0.750000 0.750000 0.810632
#
# Coordination Sequence:
#
# PCOD9484660 Si02
#       6
#    16  16  16  16  16  16
#     4   8  14  25  40  58  84 121 161 195 225 256
#     4   9  17  29  45  65  90 119 149 181 216 254
#     4  10  19  28  41  64  93 125 158 189 221 256
#     4   9  18  32  49  69  92 117 145 177 214 259
#     4  10  20  32  46  65  88 114 147 184 221 266
#     4  10  21  36  53  70  87 110 140 178 226 274
#
# _framework density 15.729283000000001
#
# number of rings (size 3 to 8) (size 9 to 14) (size 15 to 20)
#    0.000    2.667    0.000    2.500    0.000    6.667 
#    0.000    3.333    0.000    0.000    0.000    4.667 
#    0.000    0.667    0.000    2.167    0.000    2.667 
#
# Total GULP energy -267584.190149 kJ/mol
# GULP energy per Si atom -5574.670628 kJ/mol
# Density = 1.569348 g / cm^3
# Si number density = 15.729283 Si / 1000 Ang^3
#
#
#
# Elastic Constant Matrix: (Units=GPa)
#
#
# Indices 1 2 3 4 5 6 
#
# 1 62.0545 19.4800 41.2385 0.0000 0.0000 0.0000
# 2 19.4800 34.7647 -6.0878 0.0000 0.0000 0.0000
# 3 41.2385 -6.0878 82.2483 0.0000 0.0000 0.0000
# 4 0.0000 0.0000 0.0000 7.0619 0.0000 0.0000
# 5 0.0000 0.0000 0.0000 0.0000 26.0020 0.0000
# 6 0.0000 0.0000 0.0000 0.0000 0.0000 20.8796
#
#
#
# Elastic Compliance Matrix: (Units=1/GPa)
#
#
# Indices 1 2 3 4 5 6 
#
# 1 0.037619 -0.024703 -0.020690 0.000000 0.000000 0.000000
# 2 -0.024703 0.045364 0.015743 0.000000 0.000000 0.000000
# 3 -0.020690 0.015743 0.023698 0.000000 0.000000 0.000000
# 4 0.000000 0.000000 0.000000 0.141605 0.000000 0.000000
# 5 0.000000 0.000000 0.000000 0.000000 0.038459 0.000000
# 6 0.000000 0.000000 0.000000 0.000000 0.000000 0.047894
#
#
# Mechanical properties :
#
#
# Convention : Reuss Voigt Hill
#
# Bulk Modulus (GPa) = 21.10552 32.03655 26.57103
# Shear Modulus (GPa) = 12.20314 19.08449 15.64381
#
# Velocity S-wave (km/s) = 2.78838 3.48704 3.15710
# Velocity P-wave (km/s) = 4.87995 6.05180 5.49719
#
# Compressibility (1/GPa) = 0.04738098
#
# Stress axis : x y z
#
# Youngs Moduli (GPa) = 26.58204 22.04414 42.19842
#
# Poissons Ratio (x) = 0.54455 0.87310
# Poissons Ratio (y) = 0.65665 -0.66435
# Poissons Ratio (z) = 0.54999 -0.34705
#
# Static dielectric constant tensor:
#      x y z
#    x 1.521600 0.000000 0.000000 
#    y 0.000000 1.527790 0.000000 
#    z 0.000000 0.000000 1.508570 
# 
# From -- ./inp_files/67838.got.cif
#   From: 2010.05.17/outbox.cif.g08.bks.cpg/sg65_34_cif.got.tgz:67838.got - 2010.06.03 17:01:31.
