data_PCOD9484518
_publ_section_title
;
Structure prediction by ZEFSAII (Michael W. Deem and Ramdas Pophale) SiO2 
 PCOD9484518
Probable space group: C M M M
;
_chemical_formula_sum "Si O2"
_cell_formula_units_Z 104
_cell_length_a 15.479148
_cell_length_b 25.899667
_cell_length_c 14.369047
_cell_angle_alpha 90.000000
_cell_angle_beta 90.000000
_cell_angle_gamma 90.000000
_cell_volume 5760.619607
_symmetry_space_group_name_H-M "C M M M"
_symmetry_group_IT_number 65
_symmetry_cell_setting 'orthorhombic'
loop_
_space_group_symop_operation_xyz
x,y,z
-x,-y,z
x,-y,-z
-x,y,-z
-x,-y,-z
x,y,-z
-x,y,z
x,-y,z
1/2+x,1/2+y,z
1/2-x,1/2-y,z
1/2+x,1/2-y,-z
1/2-x,1/2+y,-z
1/2-x,1/2-y,-z
1/2+x,1/2+y,-z
1/2-x,1/2+y,z
1/2+x,1/2-y,z
loop_
_atom_site_type_symbol
_atom_site_label
_atom_site_fract_x
_atom_site_fract_y
_atom_site_fract_z
Si Si1 0.729964 0.144586 0.888937
Si Si2 0.907392 0.837834 0.789732
Si Si3 0.343731 0.385531 0.391400
Si Si4 0.693158 0.802729 0.393811
Si Si5 0.903093 0.285582 0.789947
Si Si6 0.899337 0.000000 0.388045
Si Si7 0.903449 0.558859 0.113137
O O1 0.823370 0.142408 0.842846
O O2 0.672649 0.192919 0.855269
O O3 0.671652 0.096507 0.856374
O O4 0.737648 0.144829 0.000000
O O5 0.902252 0.856411 0.683352
O O6 0.902224 0.776121 0.792275
O O7 0.000000 0.854121 0.830040
O O8 0.370746 0.381013 0.500000
O O9 0.253793 0.353542 0.384392
O O10 0.350166 0.446341 0.365070
O O11 0.660931 0.800614 0.500000
O O12 0.750000 0.750000 0.379563
O O13 0.621482 0.802854 0.314333
O O14 0.000000 0.302549 0.816989
O O15 0.904705 0.000000 0.500000
O O16 0.000000 0.000000 0.353737
O O17 0.888911 0.500000 0.141906
O O18 0.000000 0.574367 0.143167
O O19 0.903816 0.559897 0.000000
#
# Coordination Sequence:
#
# PCOD9484518 Si02
#       7
#    16  16  16  16  16   8  16
#     4  11  22  38  57  77 108 147 187 234 290 342
#     4  11  23  37  54  80 112 147 189 230 279 343
#     4  10  19  35  60  83 112 150 187 230 282 331
#     4  10  18  33  56  82 113 147 184 226 281 349
#     4  11  22  36  55  80 111 144 185 236 287 341
#     4   9  18  32  52  84 118 148 191 240 278 326
#     4   8  15  31  57  85 106 128 171 232 289 338
#
# _framework density 18.053612999999999
#
# number of rings (size 3 to 8) (size 9 to 14) (size 15 to 20)
#    0.000    1.923    3.077    1.846    0.000    3.692 
#    1.385    3.077    0.000    0.000    0.000    2.154 
#    0.000    3.077    0.000    0.154    0.000    0.154 
#
# Total GULP energy -289816.872527 kJ/mol
# GULP energy per Si atom -5573.401395 kJ/mol
# Density = 1.801252 g / cm^3
# Si number density = 18.053613 Si / 1000 Ang^3
#
#
#
# Elastic Constant Matrix: (Units=GPa)
#
#
# Indices 1 2 3 4 5 6 
#
# 1 140.4216 51.0245 42.4034 0.0000 0.0000 0.0000
# 2 51.0245 111.2304 11.4038 0.0000 0.0000 0.0000
# 3 42.4034 11.4038 52.0839 0.0000 0.0000 0.0000
# 4 0.0000 0.0000 0.0000 17.2074 0.0000 0.0000
# 5 0.0000 0.0000 0.0000 0.0000 6.3347 0.0000
# 6 0.0000 0.0000 0.0000 0.0000 0.0000 44.8035
#
#
#
# Elastic Compliance Matrix: (Units=1/GPa)
#
#
# Indices 1 2 3 4 5 6 
#
# 1 0.011126 -0.004271 -0.008123 0.000000 0.000000 0.000000
# 2 -0.004271 0.010836 0.001105 0.000000 0.000000 0.000000
# 3 -0.008123 0.001105 0.025571 0.000000 0.000000 0.000000
# 4 0.000000 0.000000 0.000000 0.058114 0.000000 0.000000
# 5 0.000000 0.000000 0.000000 0.000000 0.157862 0.000000
# 6 0.000000 0.000000 0.000000 0.000000 0.000000 0.022320
#
#
# Mechanical properties :
#
#
# Convention : Reuss Voigt Hill
#
# Bulk Modulus (GPa) = 40.07266 57.04438 48.55852
# Shear Modulus (GPa) = 15.78644 26.92941 21.35793
#
# Velocity S-wave (km/s) = 2.96027 3.86636 3.44325
# Velocity P-wave (km/s) = 5.82485 7.18314 6.53936
#
# Compressibility (1/GPa) = 0.02495467
#
# Stress axis : x y z
#
# Youngs Moduli (GPa) = 89.87640 92.28164 39.10632
#
# Poissons Ratio (x) = 0.39415 0.31767
# Poissons Ratio (y) = 0.38388 -0.04320
# Poissons Ratio (z) = 0.73009 -0.10194
#
# Static dielectric constant tensor:
#      x y z
#    x 1.653220 0.000000 0.000000 
#    y 0.000000 1.638740 0.000000 
#    z 0.000000 0.000000 1.614690 
# 
# From -- ./inp_files/40757.got.cif
#   From: 2010.05.17/outbox.cif.g08.bks.cpg/sg65_21_cif.got.tgz:40757.got - 2010.06.03 17:01:31.
