data_PCOD9484933
_publ_section_title
;
Structure prediction by ZEFSAII (Michael W. Deem and Ramdas Pophale) SiO2 
 PCOD9484933
Probable space group: C M M M
;
_chemical_formula_sum "Si O2"
_cell_formula_units_Z 96
_cell_length_a 27.413844
_cell_length_b 29.311918
_cell_length_c 8.946286
_cell_angle_alpha 90.000000
_cell_angle_beta 90.000000
_cell_angle_gamma 90.000000
_cell_volume 7188.809116
_symmetry_space_group_name_H-M "C M M M"
_symmetry_group_IT_number 65
_symmetry_cell_setting 'orthorhombic'
loop_
_space_group_symop_operation_xyz
x,y,z
-x,-y,z
x,-y,-z
-x,y,-z
-x,-y,-z
x,y,-z
-x,y,z
x,-y,z
1/2+x,1/2+y,z
1/2-x,1/2-y,z
1/2+x,1/2-y,-z
1/2-x,1/2+y,-z
1/2-x,1/2-y,-z
1/2+x,1/2+y,-z
1/2-x,1/2+y,z
1/2+x,1/2-y,z
loop_
_atom_site_type_symbol
_atom_site_label
_atom_site_fract_x
_atom_site_fract_y
_atom_site_fract_z
Si Si1 0.149855 0.305579 0.319346
Si Si2 0.758700 0.641103 0.822525
Si Si3 0.289780 0.052235 0.322040
Si Si4 0.397165 0.948065 0.821813
Si Si5 0.945121 0.638402 0.320443
Si Si6 0.298251 0.717725 0.327629
O O1 0.156519 0.308853 0.500000
O O2 0.191782 0.335886 0.242662
O O3 0.097187 0.325650 0.280118
O O4 0.159415 0.252675 0.279330
O O5 0.756796 0.590857 0.752366
O O6 0.714961 0.674145 0.770472
O O7 0.761630 0.639024 0.000000
O O8 0.292466 0.059359 0.500000
O O9 0.344048 0.057176 0.253585
O O10 0.274137 0.000000 0.293693
O O11 0.431837 0.909491 0.755762
O O12 0.413951 0.000000 0.791795
O O13 0.392220 0.942616 0.000000
O O14 0.942777 0.632530 0.500000
O O15 0.000000 0.652646 0.280878
O O16 0.305736 0.703907 0.500000
O O17 0.250000 0.750000 0.324470
#
# Coordination Sequence:
#
# PCOD9484933 Si02
#       6
#    16  16  16  16  16  16
#     4   9  17  30  44  57  77 103 130 162 198 237
#     4  11  19  26  41  63  83 101 124 159 198 236
#     4  10  19  30  44  59  77 104 134 162 195 238
#     4  10  20  32  44  58  75  97 128 168 213 250
#     4  10  20  32  46  61  76 100 134 168 204 246
#     4   8  15  27  42  58  77 102 128 155 191 234
#
# _framework density 13.354089999999999
#
# number of rings (size 3 to 8) (size 9 to 14) (size 15 to 20)
#    0.000    2.333    1.667    3.500    0.000    5.667 
#    0.000    1.667    0.000    0.000    0.000    0.000 
#    0.000    0.000    0.000    0.000    0.000    0.833 
#
# Total GULP energy -267530.526681 kJ/mol
# GULP energy per Si atom -5573.552639 kJ/mol
# Density = 1.332370 g / cm^3
# Si number density = 13.354090 Si / 1000 Ang^3
#
#
#
# Elastic Constant Matrix: (Units=GPa)
#
#
# Indices 1 2 3 4 5 6 
#
# 1 55.0252 53.9960 26.4221 0.0000 0.0000 0.0000
# 2 53.9960 94.9016 45.1957 0.0000 0.0000 0.0000
# 3 26.4221 45.1957 45.7930 0.0000 0.0000 0.0000
# 4 0.0000 0.0000 0.0000 12.9380 0.0000 0.0000
# 5 0.0000 0.0000 0.0000 0.0000 2.5216 0.0000
# 6 0.0000 0.0000 0.0000 0.0000 0.0000 18.5897
#
#
#
# Elastic Compliance Matrix: (Units=1/GPa)
#
#
# Indices 1 2 3 4 5 6 
#
# 1 0.041182 -0.022860 -0.001200 0.000000 0.000000 0.000000
# 2 -0.022860 0.032572 -0.018957 0.000000 0.000000 0.000000
# 3 -0.001200 -0.018957 0.041240 0.000000 0.000000 0.000000
# 4 0.000000 0.000000 0.000000 0.077292 0.000000 0.000000
# 5 0.000000 0.000000 0.000000 0.000000 0.396578 0.000000
# 6 0.000000 0.000000 0.000000 0.000000 0.000000 0.053793
#
#
# Mechanical properties :
#
#
# Convention : Reuss Voigt Hill
#
# Bulk Modulus (GPa) = 34.53079 49.66082 42.09581
# Shear Modulus (GPa) = 6.77192 11.48358 9.12775
#
# Velocity S-wave (km/s) = 2.25434 2.93564 2.61725
# Velocity P-wave (km/s) = 5.71752 6.98277 6.38158
#
# Compressibility (1/GPa) = 0.02895966
#
# Stress axis : x y z
#
# Youngs Moduli (GPa) = 24.28260 30.70150 24.24853
#
# Poissons Ratio (x) = 0.70182 0.02910
# Poissons Ratio (y) = 0.55509 0.45968
# Poissons Ratio (z) = 0.02914 0.58201
#
# Static dielectric constant tensor:
#      x y z
#    x 1.423350 0.000000 0.000000 
#    y 0.000000 1.457980 0.000000 
#    z 0.000000 0.000000 1.442210 
# 
# From -- ./inp_files/16917.got.cif
#   From: 2010.05.17/outbox.cif.g08.bks.cpg/sg65_9_cif.got.tgz:16917.got - 2010.06.03 17:01:31.
