data_PCOD9484680
_publ_section_title
;
Structure prediction by ZEFSAII (Michael W. Deem and Ramdas Pophale) SiO2 
 PCOD9484680
Probable space group: C M M M
;
_chemical_formula_sum "Si O2"
_cell_formula_units_Z 80
_cell_length_a 7.466773
_cell_length_b 29.420925
_cell_length_c 19.197186
_cell_angle_alpha 90.000000
_cell_angle_beta 90.000000
_cell_angle_gamma 90.000000
_cell_volume 4217.225696
_symmetry_space_group_name_H-M "C M M M"
_symmetry_group_IT_number 65
_symmetry_cell_setting 'orthorhombic'
loop_
_space_group_symop_operation_xyz
x,y,z
-x,-y,z
x,-y,-z
-x,y,-z
-x,-y,-z
x,y,-z
-x,y,z
x,-y,z
1/2+x,1/2+y,z
1/2-x,1/2-y,z
1/2+x,1/2-y,-z
1/2-x,1/2+y,-z
1/2-x,1/2-y,-z
1/2+x,1/2+y,-z
1/2-x,1/2+y,z
1/2+x,1/2-y,z
loop_
_atom_site_type_symbol
_atom_site_label
_atom_site_fract_x
_atom_site_fract_y
_atom_site_fract_z
Si Si1 0.710337 0.444858 0.000000
Si Si2 0.280139 0.552639 0.848154
Si Si3 0.289133 0.609042 0.717130
Si Si4 0.215841 0.553001 0.422481
Si Si5 0.286786 0.696011 0.500000
Si Si6 0.784704 0.196766 0.348799
O O1 0.781667 0.430534 0.924470
O O2 0.721560 0.500000 0.000000
O O3 0.500000 0.432981 0.000000
O O4 0.500000 0.552855 0.849252
O O5 0.227990 0.500000 0.839564
O O6 0.215323 0.581404 0.782482
O O7 0.500000 0.613498 0.731394
O O8 0.273275 0.581813 0.644286
O O9 0.216553 0.659821 0.705597
O O10 0.276154 0.568931 0.500000
O O11 0.271196 0.500000 0.414908
O O12 0.000000 0.553622 0.423166
O O13 0.500000 0.688050 0.500000
O O14 0.250000 0.750000 0.500000
O O15 0.214813 0.681370 0.425233
O O16 0.750000 0.250000 0.336743
O O17 0.000000 0.192992 0.351750
#
# Coordination Sequence:
#
# PCOD9484680 Si02
#       6
#     8  16  16  16   8  16
#     4   7  10  18  34  56  86 119 139 157 197 253
#     4   8  13  22  37  61  91 116 137 165 206 254
#     4  10  19  28  44  68  89 108 139 184 226 257
#     4   9  19  34  46  58  83 119 153 178 203 247
#     4   8  14  26  40  52  69  94 125 163 208 251
#     4   9  18  30  43  59  81 107 137 177 221 262
#
# _framework density 18.969816999999999
#
# number of rings (size 3 to 8) (size 9 to 14) (size 15 to 20)
#    0.000    3.300    0.000    2.400    1.400    2.400 
#    0.000    1.000    0.000    0.000    0.000    1.400 
#    0.000    4.000    0.000    0.000    0.000    0.000 
#
# Total GULP energy -222838.813066 kJ/mol
# GULP energy per Si atom -5570.970327 kJ/mol
# Density = 1.892664 g / cm^3
# Si number density = 18.969817 Si / 1000 Ang^3
#
#
#
# Elastic Constant Matrix: (Units=GPa)
#
#
# Indices 1 2 3 4 5 6 
#
# 1 56.0160 0.1545 2.0596 0.0000 0.0000 0.0000
# 2 0.1545 93.3555 90.1744 0.0000 0.0000 0.0000
# 3 2.0596 90.1744 176.3088 0.0000 0.0000 0.0000
# 4 0.0000 0.0000 0.0000 17.3319 0.0000 0.0000
# 5 0.0000 0.0000 0.0000 0.0000 20.6782 0.0000
# 6 0.0000 0.0000 0.0000 0.0000 0.0000 8.7147
#
#
#
# Elastic Compliance Matrix: (Units=1/GPa)
#
#
# Indices 1 2 3 4 5 6 
#
# 1 0.017865 0.000340 -0.000383 0.000000 0.000000 0.000000
# 2 0.000340 0.021177 -0.010835 0.000000 0.000000 0.000000
# 3 -0.000383 -0.010835 0.011218 0.000000 0.000000 0.000000
# 4 0.000000 0.000000 0.000000 0.057697 0.000000 0.000000
# 5 0.000000 0.000000 0.000000 0.000000 0.048360 0.000000
# 6 0.000000 0.000000 0.000000 0.000000 0.000000 0.114748
#
#
# Mechanical properties :
#
#
# Convention : Reuss Voigt Hill
#
# Bulk Modulus (GPa) = 35.08178 56.71747 45.89963
# Shear Modulus (GPa) = 16.53859 24.89773 20.71816
#
# Velocity S-wave (km/s) = 2.95589 3.62676 3.30838
# Velocity P-wave (km/s) = 5.49394 6.89214 6.23237
#
# Compressibility (1/GPa) = 0.02850482
#
# Stress axis : x y z
#
# Youngs Moduli (GPa) = 55.97481 47.22075 89.14199
#
# Poissons Ratio (x) = -0.01605 0.03410
# Poissons Ratio (y) = -0.01903 0.96587
# Poissons Ratio (z) = 0.02141 0.51164
#
# Static dielectric constant tensor:
#      x y z
#    x 1.613760 0.000000 0.000000 
#    y 0.000000 1.656020 0.000000 
#    z 0.000000 0.000000 1.696550 
# 
# From -- ./inp_files/51808.got.cif
#   From: 2010.05.17/outbox.cif.g08.bks.cpg/sg65_26_cif.got.tgz:51808.got - 2010.06.03 17:01:31.
