data_PCOD9484545
_publ_section_title
;
Structure prediction by ZEFSAII (Michael W. Deem and Ramdas Pophale) SiO2 
 PCOD9484545
Probable space group: C M M M
;
_chemical_formula_sum "Si O2"
_cell_formula_units_Z 68
_cell_length_a 25.409798
_cell_length_b 14.681552
_cell_length_c 11.136511
_cell_angle_alpha 90.000000
_cell_angle_beta 90.000000
_cell_angle_gamma 90.000000
_cell_volume 4154.534125
_symmetry_space_group_name_H-M "C M M M"
_symmetry_group_IT_number 65
_symmetry_cell_setting 'orthorhombic'
loop_
_space_group_symop_operation_xyz
x,y,z
-x,-y,z
x,-y,-z
-x,y,-z
-x,-y,-z
x,y,-z
-x,y,z
x,-y,z
1/2+x,1/2+y,z
1/2-x,1/2-y,z
1/2+x,1/2-y,-z
1/2-x,1/2+y,-z
1/2-x,1/2-y,-z
1/2+x,1/2+y,-z
1/2-x,1/2+y,z
1/2+x,1/2-y,z
loop_
_atom_site_type_symbol
_atom_site_label
_atom_site_fract_x
_atom_site_fract_y
_atom_site_fract_z
Si Si1 0.801926 0.317176 0.240607
Si Si2 0.269598 0.000000 0.866189
Si Si3 0.000000 0.892884 0.854099
Si Si4 0.820982 0.000000 0.500000
Si Si5 0.229615 0.352092 0.500000
Si Si6 0.839823 0.000000 0.236553
Si Si7 0.887878 0.183900 0.142248
O O1 0.750000 0.250000 0.226756
O O2 0.798838 0.404606 0.154016
O O3 0.801300 0.358690 0.375116
O O4 0.853529 0.258348 0.212219
O O5 0.223007 0.000000 0.769529
O O6 0.246713 0.000000 0.000000
O O7 0.947759 0.837381 0.819119
O O8 0.000000 0.000000 0.814073
O O9 0.000000 0.897326 0.000000
O O10 0.781145 0.914833 0.500000
O O11 0.853976 0.000000 0.622766
O O12 0.250000 0.250000 0.500000
O O13 0.859503 0.088346 0.168361
O O14 0.886826 0.204188 0.000000
#
# Coordination Sequence:
#
# PCOD9484545 Si02
#       7
#    16   8   8   4   8   8  16
#     4  11  21  33  51  76 105 144 175 219 261 317
#     4  12  22  32  47  78 114 137 165 213 270 319
#     4   9  18  34  56  77 105 140 177 216 257 322
#     4  12  20  36  50  71 106 147 186 206 254 314
#     4  10  18  34  48  66 101 141 187 206 246 309
#     4  12  20  31  53  77 106 141 172 219 253 313
#     4  11  21  34  53  81 109 139 176 217 271 318
#
# _framework density 16.367659
#
# number of rings (size 3 to 8) (size 9 to 14) (size 15 to 20)
#    0.000    1.059    5.882    3.176    0.000    0.941 
#    0.000    0.000    0.000    4.235    0.000    3.294 
#    0.000    2.824    0.000    0.000    0.000    0.000 
#
# Total GULP energy -189498.645024 kJ/mol
# GULP energy per Si atom -5573.489560 kJ/mol
# Density = 1.633041 g / cm^3
# Si number density = 16.367659 Si / 1000 Ang^3
#
#
#
# Elastic Constant Matrix: (Units=GPa)
#
#
# Indices 1 2 3 4 5 6 
#
# 1 97.0005 31.1431 4.6067 0.0000 0.0000 0.0000
# 2 31.1431 75.3419 -3.7466 0.0000 0.0000 0.0000
# 3 4.6067 -3.7466 64.7523 0.0000 0.0000 0.0000
# 4 0.0000 0.0000 0.0000 39.3489 0.0000 0.0000
# 5 0.0000 0.0000 0.0000 0.0000 7.5623 0.0000
# 6 0.0000 0.0000 0.0000 0.0000 0.0000 17.9110
#
#
#
# Elastic Compliance Matrix: (Units=1/GPa)
#
#
# Indices 1 2 3 4 5 6 
#
# 1 0.011970 -0.005005 -0.001141 0.000000 0.000000 0.000000
# 2 -0.005005 0.015404 0.001247 0.000000 0.000000 0.000000
# 3 -0.001141 0.001247 0.015597 0.000000 0.000000 0.000000
# 4 0.000000 0.000000 0.000000 0.025414 0.000000 0.000000
# 5 0.000000 0.000000 0.000000 0.000000 0.132235 0.000000
# 6 0.000000 0.000000 0.000000 0.000000 0.000000 0.055832
#
#
# Mechanical properties :
#
#
# Convention : Reuss Voigt Hill
#
# Bulk Modulus (GPa) = 30.14459 33.45569 31.80014
# Shear Modulus (GPa) = 18.03065 26.63721 22.33393
#
# Velocity S-wave (km/s) = 3.32264 4.03852 3.69794
# Velocity P-wave (km/s) = 5.75995 6.49851 6.14035
#
# Compressibility (1/GPa) = 0.03317345
#
# Stress axis : x y z
#
# Youngs Moduli (GPa) = 83.54042 64.91992 64.11563
#
# Poissons Ratio (x) = 0.32491 0.07317
# Poissons Ratio (y) = 0.41810 -0.07997
# Poissons Ratio (z) = 0.09534 -0.08098
#
# Static dielectric constant tensor:
#      x y z
#    x 1.557910 0.000000 0.000000 
#    y 0.000000 1.542940 0.000000 
#    z 0.000000 0.000000 1.610330 
# 
# From -- ./inp_files/30367.got.cif
#   From: 2010.05.17/outbox.cif.g08.bks.cpg/sg65_16_cif.got.tgz:30367.got - 2010.06.03 17:01:31.
