data_PCOD9484908
_publ_section_title
;
Structure prediction by ZEFSAII (Michael W. Deem and Ramdas Pophale) SiO2 
 PCOD9484908
Probable space group: C M M M
;
_chemical_formula_sum "Si O2"
_cell_formula_units_Z 120
_cell_length_a 28.997679
_cell_length_b 20.797919
_cell_length_c 13.645314
_cell_angle_alpha 90.000000
_cell_angle_beta 90.000000
_cell_angle_gamma 90.000000
_cell_volume 8229.371238
_symmetry_space_group_name_H-M "C M M M"
_symmetry_group_IT_number 65
_symmetry_cell_setting 'orthorhombic'
loop_
_space_group_symop_operation_xyz
x,y,z
-x,-y,z
x,-y,-z
-x,y,-z
-x,-y,-z
x,y,-z
-x,y,z
x,-y,z
1/2+x,1/2+y,z
1/2-x,1/2-y,z
1/2+x,1/2-y,-z
1/2-x,1/2+y,-z
1/2-x,1/2-y,-z
1/2+x,1/2+y,-z
1/2-x,1/2+y,z
1/2+x,1/2-y,z
loop_
_atom_site_type_symbol
_atom_site_label
_atom_site_fract_x
_atom_site_fract_y
_atom_site_fract_z
Si Si1 0.731440 0.921732 0.387327
Si Si2 0.946323 0.679270 0.383581
Si Si3 0.413708 0.427097 0.616902
Si Si4 0.052511 0.000000 0.117986
Si Si5 0.947433 0.191927 0.739551
Si Si6 0.872122 0.426551 0.619074
Si Si7 0.385716 0.625859 0.883552
Si Si8 0.319182 0.424614 0.266214
O O1 0.738553 0.900217 0.500000
O O2 0.679704 0.904919 0.353955
O O3 0.772450 0.900518 0.316415
O O4 0.732847 0.000000 0.389664
O O5 0.939389 0.691182 0.500000
O O6 0.938363 0.744398 0.323503
O O7 0.911600 0.623119 0.351768
O O8 0.000000 0.660487 0.370821
O O9 0.415823 0.420809 0.500000
O O10 0.429389 0.500000 0.642398
O O11 0.440987 0.369988 0.669123
O O12 0.360955 0.421228 0.654930
O O13 0.082356 0.936850 0.140976
O O14 0.000000 0.000000 0.156645
O O15 0.048728 0.000000 0.000000
O O16 0.912345 0.183094 0.829244
O O17 0.000000 0.193263 0.775420
O O18 0.872092 0.428698 0.500000
O O19 0.879868 0.500000 0.652868
O O20 0.337703 0.612693 0.828599
O O21 0.382134 0.632054 0.000000
O O22 0.313482 0.500000 0.240875
#
# Coordination Sequence:
#
# PCOD9484908 Si02
#       8
#    16  16  16   8  16  16  16  16
#     4   8  13  22  39  64  91 113 135 168 206 247
#     4   9  17  29  44  63  91 123 146 167 202 249
#     4   9  17  27  38  53  75 106 145 185 216 244
#     4   9  16  26  40  56  75 101 131 173 229 266
#     4  10  20  30  41  57  79 110 148 182 215 259
#     4   8  14  25  43  69  96 118 140 165 197 244
#     4  10  19  30  42  58  80 106 140 186 229 264
#     4   9  15  24  39  59  82 108 139 173 216 263
#
# _framework density 14.581915
#
# number of rings (size 3 to 8) (size 9 to 14) (size 15 to 20)
#    0.000    3.000    0.667    2.000    0.933    3.733 
#    0.000    2.000    0.000    3.200    0.000   14.000 
#    0.000    1.600    0.000    2.933    0.000    0.133 
#
# Total GULP energy -334088.709415 kJ/mol
# GULP energy per Si atom -5568.145157 kJ/mol
# Density = 1.454873 g / cm^3
# Si number density = 14.581915 Si / 1000 Ang^3
#
#
#
# Elastic Constant Matrix: (Units=GPa)
#
#
# Indices 1 2 3 4 5 6 
#
# 1 101.8111 52.5347 46.7692 0.0000 0.0000 0.0000
# 2 52.5347 53.9275 29.0140 0.0000 0.0000 0.0000
# 3 46.7692 29.0140 78.3744 0.0000 0.0000 0.0000
# 4 0.0000 0.0000 0.0000 10.2832 0.0000 0.0000
# 5 0.0000 0.0000 0.0000 0.0000 13.4004 0.0000
# 6 0.0000 0.0000 0.0000 0.0000 0.0000 11.6540
#
#
#
# Elastic Compliance Matrix: (Units=1/GPa)
#
#
# Indices 1 2 3 4 5 6 
#
# 1 0.022135 -0.018052 -0.006526 0.000000 0.000000 0.000000
# 2 -0.018052 0.037878 -0.003250 0.000000 0.000000 0.000000
# 3 -0.006526 -0.003250 0.017857 0.000000 0.000000 0.000000
# 4 0.000000 0.000000 0.000000 0.097246 0.000000 0.000000
# 5 0.000000 0.000000 0.000000 0.000000 0.074624 0.000000
# 6 0.000000 0.000000 0.000000 0.000000 0.000000 0.085808
#
#
# Mechanical properties :
#
#
# Convention : Reuss Voigt Hill
#
# Bulk Modulus (GPa) = 45.01763 54.52764 49.77264
# Shear Modulus (GPa) = 12.54366 14.12052 13.33209
#
# Velocity S-wave (km/s) = 2.93613 3.11522 3.02700
# Velocity P-wave (km/s) = 6.51412 7.10033 6.81353
#
# Compressibility (1/GPa) = 0.02221352
#
# Stress axis : x y z
#
# Youngs Moduli (GPa) = 45.17769 26.40081 56.00154
#
# Poissons Ratio (x) = 0.47659 0.36546
# Poissons Ratio (y) = 0.81555 0.18199
# Poissons Ratio (z) = 0.29483 0.08580
#
# Static dielectric constant tensor:
#      x y z
#    x 1.497890 0.000000 0.000000 
#    y 0.000000 1.474450 0.000000 
#    z 0.000000 0.000000 1.479180 
# 
# From -- ./inp_files/47279.got.cif
#   From: 2010.05.17/outbox.cif.g08.bks.cpg/sg65_24_cif.got.tgz:47279.got - 2010.06.03 17:01:31.
