data_PCOD9484546
_publ_section_title
;
Structure prediction by ZEFSAII (Michael W. Deem and Ramdas Pophale) SiO2 
 PCOD9484546
Probable space group: C M M M
;
_chemical_formula_sum "Si O2"
_cell_formula_units_Z 120
_cell_length_a 18.165314
_cell_length_b 20.742211
_cell_length_c 19.802868
_cell_angle_alpha 90.000000
_cell_angle_beta 90.000000
_cell_angle_gamma 90.000000
_cell_volume 7461.498392
_symmetry_space_group_name_H-M "C M M M"
_symmetry_group_IT_number 65
_symmetry_cell_setting 'orthorhombic'
loop_
_space_group_symop_operation_xyz
x,y,z
-x,-y,z
x,-y,-z
-x,y,-z
-x,-y,-z
x,y,-z
-x,y,z
x,-y,z
1/2+x,1/2+y,z
1/2-x,1/2-y,z
1/2+x,1/2-y,-z
1/2-x,1/2+y,-z
1/2-x,1/2-y,-z
1/2+x,1/2+y,-z
1/2-x,1/2+y,z
1/2+x,1/2-y,z
loop_
_atom_site_type_symbol
_atom_site_label
_atom_site_fract_x
_atom_site_fract_y
_atom_site_fract_z
Si Si1 0.914185 0.135869 0.302285
Si Si2 0.206538 0.317391 0.422237
Si Si3 0.867631 0.858241 0.843906
Si Si4 0.774844 0.325413 0.077843
Si Si5 0.085110 0.710564 0.316666
Si Si6 0.668817 0.425010 0.577026
Si Si7 0.086107 0.707568 0.159926
Si Si8 0.000000 0.923202 0.077192
O O1 0.868127 0.122025 0.234616
O O2 0.905189 0.211692 0.319327
O O3 0.889318 0.094562 0.366040
O O4 0.000000 0.125647 0.285789
O O5 0.180118 0.316787 0.500000
O O6 0.250000 0.250000 0.411431
O O7 0.141142 0.320310 0.368854
O O8 0.262700 0.376594 0.414214
O O9 0.788084 0.860488 0.878712
O O10 0.896760 0.784121 0.845564
O O11 0.927619 0.898489 0.884802
O O12 0.750000 0.250000 0.077972
O O13 0.854750 0.327496 0.112639
O O14 0.776272 0.346783 0.000000
O O15 0.098509 0.691112 0.238812
O O16 0.000000 0.696741 0.332739
O O17 0.641055 0.415270 0.500000
O O18 0.689313 0.500000 0.583722
O O19 0.000000 0.696864 0.143719
O O20 0.000000 0.000000 0.076448
O O21 0.000000 0.898830 0.000000
#
# Coordination Sequence:
#
# PCOD9484546 Si02
#       8
#    16  16  16  16  16  16  16   8
#     4  10  19  32  51  74  98 135 175 204 250 308
#     4  10  19  32  52  75  98 133 172 208 254 303
#     4  10  18  34  48  67  98 132 169 212 249 295
#     4   9  18  28  44  71  97 129 168 201 245 304
#     4   9  18  30  49  75 102 128 165 211 254 303
#     4  10  22  37  51  73 105 138 172 211 256 304
#     4   9  17  30  47  72 101 133 162 197 257 312
#     4  11  22  34  50  68  93 137 181 215 251 290
#
# _framework density 16.082560000000001
#
# number of rings (size 3 to 8) (size 9 to 14) (size 15 to 20)
#    0.000    2.333    2.667    1.200    1.867    2.667 
#    0.000    2.000    0.000    0.400    0.000    1.867 
#    0.000    0.533    0.000    2.800    0.000    0.000 
#
# Total GULP energy -334480.491508 kJ/mol
# GULP energy per Si atom -5574.674858 kJ/mol
# Density = 1.604596 g / cm^3
# Si number density = 16.082560 Si / 1000 Ang^3
#
#
#
# Elastic Constant Matrix: (Units=GPa)
#
#
# Indices 1 2 3 4 5 6 
#
# 1 98.9528 17.3724 71.4961 0.0000 0.0000 0.0000
# 2 17.3724 35.3260 26.6737 0.0000 0.0000 0.0000
# 3 71.4961 26.6737 109.0443 0.0000 0.0000 0.0000
# 4 0.0000 0.0000 0.0000 16.5841 0.0000 0.0000
# 5 0.0000 0.0000 0.0000 0.0000 20.5705 0.0000
# 6 0.0000 0.0000 0.0000 0.0000 0.0000 14.6110
#
#
#
# Elastic Compliance Matrix: (Units=1/GPa)
#
#
# Indices 1 2 3 4 5 6 
#
# 1 0.019203 0.000078 -0.012610 0.000000 0.000000 0.000000
# 2 0.000078 0.034721 -0.008544 0.000000 0.000000 0.000000
# 3 -0.012610 -0.008544 0.019528 0.000000 0.000000 0.000000
# 4 0.000000 0.000000 0.000000 0.060299 0.000000 0.000000
# 5 0.000000 0.000000 0.000000 0.000000 0.048613 0.000000
# 6 0.000000 0.000000 0.000000 0.000000 0.000000 0.068441
#
#
# Mechanical properties :
#
#
# Convention : Reuss Voigt Hill
#
# Bulk Modulus (GPa) = 31.94889 52.71197 42.33043
# Shear Modulus (GPa) = 16.48035 18.87185 17.67610
#
# Velocity S-wave (km/s) = 3.20462 3.42926 3.31884
# Velocity P-wave (km/s) = 5.79668 6.96612 6.40813
#
# Compressibility (1/GPa) = 0.03129999
#
# Stress axis : x y z
#
# Youngs Moduli (GPa) = 52.07511 28.80100 51.20781
#
# Poissons Ratio (x) = -0.00224 0.64571
# Poissons Ratio (y) = -0.00404 0.43753
# Poissons Ratio (z) = 0.65665 0.24608
#
# Static dielectric constant tensor:
#      x y z
#    x 1.523320 0.000000 0.000000 
#    y 0.000000 1.514830 0.000000 
#    z 0.000000 0.000000 1.553530 
# 
# From -- ./inp_files/54982.got.cif
#   From: 2010.05.17/outbox.cif.g08.bks.cpg/sg65_28_cif.got.tgz:54982.got - 2010.06.03 17:01:31.
