data_PCOD9484524
_publ_section_title
;
Structure prediction by ZEFSAII (Michael W. Deem and Ramdas Pophale) SiO2 
 PCOD9484524
Probable space group: C M M M
;
_chemical_formula_sum "Si O2"
_cell_formula_units_Z 104
_cell_length_a 13.806053
_cell_length_b 23.428980
_cell_length_c 17.823981
_cell_angle_alpha 90.000000
_cell_angle_beta 90.000000
_cell_angle_gamma 90.000000
_cell_volume 5765.375901
_symmetry_space_group_name_H-M "C M M M"
_symmetry_group_IT_number 65
_symmetry_cell_setting 'orthorhombic'
loop_
_space_group_symop_operation_xyz
x,y,z
-x,-y,z
x,-y,-z
-x,y,-z
-x,-y,-z
x,y,-z
-x,y,z
x,-y,z
1/2+x,1/2+y,z
1/2-x,1/2-y,z
1/2+x,1/2-y,-z
1/2-x,1/2+y,-z
1/2-x,1/2-y,-z
1/2+x,1/2+y,-z
1/2-x,1/2+y,z
1/2+x,1/2-y,z
loop_
_atom_site_type_symbol
_atom_site_label
_atom_site_fract_x
_atom_site_fract_y
_atom_site_fract_z
Si Si1 0.386189 0.934024 0.695226
Si Si2 0.196776 0.340137 0.586262
Si Si3 0.000000 0.064216 0.090757
Si Si4 0.359778 0.258973 0.790103
Si Si5 0.322477 0.354103 0.088516
Si Si6 0.604895 0.718733 0.625029
Si Si7 0.892188 0.366773 0.848718
O O1 0.500000 0.930425 0.674575
O O2 0.328123 0.891504 0.641719
O O3 0.379469 0.910749 0.780197
O O4 0.355972 0.000000 0.690354
O O5 0.178196 0.355299 0.500000
O O6 0.307490 0.319687 0.596016
O O7 0.132894 0.284461 0.607323
O O8 0.099473 0.097193 0.110064
O O9 0.000000 0.000000 0.120503
O O10 0.000000 0.061766 0.000000
O O11 0.250000 0.250000 0.765675
O O12 0.355059 0.300105 0.861690
O O13 0.402370 0.285626 0.715275
O O14 0.396722 0.196964 0.813616
O O15 0.208853 0.367841 0.104879
O O16 0.332557 0.342351 0.000000
O O17 0.500000 0.705139 0.592572
O O18 0.000000 0.377144 0.883761
#
# Coordination Sequence:
#
# PCOD9484524 Si02
#       7
#    16  16   8  16  16  16  16
#     4  10  21  39  61  84 112 149 194 238 281 337
#     4  11  22  36  55  86 118 147 187 236 287 341
#     4   9  20  40  60  76 106 152 196 242 291 332
#     4  10  18  33  57  79 113 154 191 230 284 342
#     4  10  22  37  55  85 120 152 194 245 294 339
#     4  11  20  34  56  82 115 154 189 227 282 349
#     4  10  20  35  57  84 115 154 191 231 292 354
#
# _framework density 18.038720000000001
#
# number of rings (size 3 to 8) (size 9 to 14) (size 15 to 20)
#    0.000    1.769    3.077    2.769    2.154    6.154 
#    0.000    0.769    0.000    0.462    0.000    5.385 
#    0.000    0.000    0.000    0.000    0.000    0.000 
#
# Total GULP energy -289881.624710 kJ/mol
# GULP energy per Si atom -5574.646629 kJ/mol
# Density = 1.799766 g / cm^3
# Si number density = 18.038720 Si / 1000 Ang^3
#
#
#
# Elastic Constant Matrix: (Units=GPa)
#
#
# Indices 1 2 3 4 5 6 
#
# 1 104.4292 24.8242 11.7877 0.0000 0.0000 0.0000
# 2 24.8242 90.4885 13.8217 0.0000 0.0000 0.0000
# 3 11.7877 13.8217 63.7456 0.0000 0.0000 0.0000
# 4 0.0000 0.0000 0.0000 -2.7094 0.0000 0.0000
# 5 0.0000 0.0000 0.0000 0.0000 -22.3748 0.0000
# 6 0.0000 0.0000 0.0000 0.0000 0.0000 15.9854
#
#
#
# Elastic Compliance Matrix: (Units=1/GPa)
#
#
# Indices 1 2 3 4 5 6 
#
# 1 0.010354 -0.002635 -0.001343 0.000000 0.000000 0.000000
# 2 -0.002635 0.012100 -0.002136 0.000000 0.000000 0.000000
# 3 -0.001343 -0.002136 0.016399 0.000000 0.000000 0.000000
# 4 0.000000 0.000000 0.000000 -0.369082 0.000000 0.000000
# 5 0.000000 0.000000 0.000000 0.000000 -0.044693 0.000000
# 6 0.000000 0.000000 0.000000 0.000000 0.000000 0.062557
#
#
# Mechanical properties :
#
#
# Convention : Reuss Voigt Hill
#
# Bulk Modulus (GPa) = 37.56074 39.94783 38.75429
# Shear Modulus (GPa) = -17.16676 12.06221 -2.55228
#
# Velocity S-wave (km/s) = -3.08825 2.58870 -1.19078
# Velocity P-wave (km/s) = 2.85502 5.57932 4.43170
#
# Compressibility (1/GPa) = 0.02662354
#
# Stress axis : x y z
#
# Youngs Moduli (GPa) = 96.58168 82.64188 60.97946
#
# Poissons Ratio (x) = 0.21778 0.08191
# Poissons Ratio (y) = 0.25452 0.13027
# Poissons Ratio (z) = 0.12973 0.17655
#
# Static dielectric constant tensor:
#      x y z
#    x 1.683280 0.000000 0.000000 
#    y 0.000000 1.594570 0.000000 
#    z 0.000000 0.000000 1.614730 
# 
# From -- ./inp_files/53308.got.cif
#   From: 2010.05.17/outbox.cif.g08.bks.cpg/sg65_27_cif.got.tgz:53308.got - 2010.06.03 17:01:31.
