data_PCOD9484063
_publ_section_title
;
Structure prediction by ZEFSAII (Michael W. Deem and Ramdas Pophale) SiO2 
 PCOD9484063
Probable space group: C M M M
;
_chemical_formula_sum "Si O2"
_cell_formula_units_Z 72
_cell_length_a 11.886952
_cell_length_b 29.145518
_cell_length_c 13.167974
_cell_angle_alpha 90.000000
_cell_angle_beta 90.000000
_cell_angle_gamma 90.000000
_cell_volume 4562.062678
_symmetry_space_group_name_H-M "C M M M"
_symmetry_group_IT_number 65
_symmetry_cell_setting 'orthorhombic'
loop_
_space_group_symop_operation_xyz
x,y,z
-x,-y,z
x,-y,-z
-x,y,-z
-x,-y,-z
x,y,-z
-x,y,z
x,-y,z
1/2+x,1/2+y,z
1/2-x,1/2-y,z
1/2+x,1/2-y,-z
1/2-x,1/2+y,-z
1/2-x,1/2-y,-z
1/2+x,1/2+y,-z
1/2-x,1/2+y,z
1/2+x,1/2-y,z
loop_
_atom_site_type_symbol
_atom_site_label
_atom_site_fract_x
_atom_site_fract_y
_atom_site_fract_z
Si Si1 0.000000 0.352377 0.377810
Si Si2 0.130419 0.055868 0.000000
Si Si3 0.750640 0.946163 0.793757
Si Si4 0.000000 0.552516 0.265429
Si Si5 0.225917 0.699091 0.377849
Si Si6 0.866702 0.888348 0.618637
O O1 0.000000 0.405203 0.343391
O O2 0.111637 0.325596 0.341509
O O3 0.000000 0.351864 0.500000
O O4 0.192298 0.071038 0.102721
O O5 0.000000 0.069534 0.000000
O O6 0.134394 0.000000 0.000000
O O7 0.615620 0.942650 0.796755
O O8 0.798922 0.920016 0.696192
O O9 0.778707 0.000000 0.782724
O O10 0.000000 0.500000 0.308102
O O11 0.212873 0.703358 0.500000
O O12 0.250000 0.750000 0.337634
O O13 0.327717 0.663798 0.361103
O O14 0.838882 0.898292 0.500000
O O15 0.000000 0.893961 0.631864
#
# Coordination Sequence:
#
# PCOD9484063 Si02
#       6
#     8   8  16   8  16  16
#     4  10  18  31  49  69 100 140 178 210 246 302
#     4   9  18  33  53  73  94 126 168 211 250 293
#     4  10  20  34  51  72  99 131 168 207 248 295
#     4  10  20  32  48  72 103 135 167 207 250 300
#     4   9  18  30  46  68  95 129 168 210 252 293
#     4  10  20  32  47  70 101 131 163 203 248 302
#
# _framework density 15.782335
#
# number of rings (size 3 to 8) (size 9 to 14) (size 15 to 20)
#    0.000    2.333    2.222    0.667    1.556    2.444 
#    0.000    5.556    0.000    0.000    0.000    0.778 
#    0.000    0.000    0.000    0.000    0.000    0.000 
#
# Total GULP energy -200503.091620 kJ/mol
# GULP energy per Si atom -5569.530323 kJ/mol
# Density = 1.574641 g / cm^3
# Si number density = 15.782335 Si / 1000 Ang^3
#
#
#
# Elastic Constant Matrix: (Units=GPa)
#
#
# Indices 1 2 3 4 5 6 
#
# 1 109.5728 45.9382 52.1214 0.0000 0.0000 0.0000
# 2 45.9382 86.7779 40.1945 0.0000 0.0000 0.0000
# 3 52.1214 40.1945 73.0831 0.0000 0.0000 0.0000
# 4 0.0000 0.0000 0.0000 -1.8593 0.0000 0.0000
# 5 0.0000 0.0000 0.0000 0.0000 16.8180 0.0000
# 6 0.0000 0.0000 0.0000 0.0000 0.0000 19.3473
#
#
#
# Elastic Compliance Matrix: (Units=1/GPa)
#
#
# Indices 1 2 3 4 5 6 
#
# 1 0.014752 -0.003940 -0.008354 0.000000 0.000000 0.000000
# 2 -0.003940 0.016515 -0.006273 0.000000 0.000000 0.000000
# 3 -0.008354 -0.006273 0.023091 0.000000 0.000000 0.000000
# 4 0.000000 0.000000 0.000000 -0.537831 0.000000 0.000000
# 5 0.000000 0.000000 0.000000 0.000000 0.059460 0.000000
# 6 0.000000 0.000000 0.000000 0.000000 0.000000 0.051687
#
#
# Mechanical properties :
#
#
# Convention : Reuss Voigt Hill
#
# Bulk Modulus (GPa) = 58.05821 60.66020 59.35920
# Shear Modulus (GPa) = -15.17677 15.60652 0.21487
#
# Velocity S-wave (km/s) = -3.10438 3.14803 0.36938
# Velocity P-wave (km/s) = 4.90073 7.19252 6.15425
#
# Compressibility (1/GPa) = 0.01722409
#
# Stress axis : x y z
#
# Youngs Moduli (GPa) = 67.78788 60.55104 43.30701
#
# Poissons Ratio (x) = 0.23857 0.36178
# Poissons Ratio (y) = 0.26708 0.27167
# Poissons Ratio (z) = 0.56629 0.37984
#
# Static dielectric constant tensor:
#      x y z
#    x 1.549540 0.000000 0.000000 
#    y 0.000000 1.525970 0.000000 
#    z 0.000000 0.000000 1.503260 
# 
# From -- ./inp_files/22541.got.cif
#   From: 2010.05.17/outbox.cif.g08.bks.cpg/sg65_12_cif.got.tgz:22541.got - 2010.06.03 17:01:31.
