data_PCOD9484791
_publ_section_title
;
Structure prediction by ZEFSAII (Michael W. Deem and Ramdas Pophale) SiO2 
 PCOD9484791
Probable space group: C M M M
;
_chemical_formula_sum "Si O2"
_cell_formula_units_Z 104
_cell_length_a 31.517554
_cell_length_b 9.046113
_cell_length_c 22.881956
_cell_angle_alpha 90.000000
_cell_angle_beta 90.000000
_cell_angle_gamma 90.000000
_cell_volume 6523.905479
_symmetry_space_group_name_H-M "C M M M"
_symmetry_group_IT_number 65
_symmetry_cell_setting 'orthorhombic'
loop_
_space_group_symop_operation_xyz
x,y,z
-x,-y,z
x,-y,-z
-x,y,-z
-x,-y,-z
x,y,-z
-x,y,z
x,-y,z
1/2+x,1/2+y,z
1/2-x,1/2-y,z
1/2+x,1/2-y,-z
1/2-x,1/2+y,-z
1/2-x,1/2-y,-z
1/2+x,1/2+y,-z
1/2-x,1/2+y,z
1/2+x,1/2-y,z
loop_
_atom_site_type_symbol
_atom_site_label
_atom_site_fract_x
_atom_site_fract_y
_atom_site_fract_z
Si Si1 0.050252 0.176997 0.878180
Si Si2 0.448649 0.169572 0.000000
Si Si3 0.882184 0.677349 0.207042
Si Si4 0.206606 0.829018 0.204318
Si Si5 0.379899 0.177567 0.344405
Si Si6 0.048250 0.319962 0.433479
Si Si7 0.707379 0.669434 0.653450
O O1 0.063066 0.244652 0.941004
O O2 0.080050 0.250188 0.829659
O O3 0.000000 0.209630 0.868725
O O4 0.055071 0.000000 0.878564
O O5 0.500000 0.165083 0.000000
O O6 0.433311 0.000000 0.000000
O O7 0.882205 0.500000 0.200414
O O8 0.836475 0.743240 0.188261
O O9 0.887464 0.712372 0.276086
O O10 0.250000 0.750000 0.184380
O O11 0.208011 0.828284 0.275388
O O12 0.205078 0.000000 0.185626
O O13 0.418000 0.229577 0.385686
O O14 0.335510 0.247820 0.363576
O O15 0.376550 0.000000 0.348430
O O16 0.058897 0.275744 0.500000
O O17 0.048260 0.500000 0.432568
O O18 0.000000 0.272846 0.420748
O O19 0.706897 0.500000 0.634679
O O20 0.750000 0.750000 0.633315
#
# Coordination Sequence:
#
# PCOD9484791 Si02
#       7
#    16   8  16  16  16  16  16
#     4  10  20  33  48  67  94 127 160 193 230 273
#     4   9  17  31  51  71  90 117 156 197 233 271
#     4  10  19  29  43  67  97 125 154 189 232 279
#     4   9  16  27  43  63  89 120 153 188 227 272
#     4   9  17  28  44  67  93 119 149 188 232 275
#     4   8  14  26  45  67  88 113 150 193 232 272
#     4   9  16  26  42  63  88 117 147 180 221 271
#
# _framework density 15.941371
#
# number of rings (size 3 to 8) (size 9 to 14) (size 15 to 20)
#    0.000    2.846    0.000    2.538    0.000    6.769 
#    0.000    1.538    0.000    1.385    0.000    1.615 
#    0.000    0.000    0.000    0.000    0.000    0.000 
#
# Total GULP energy -289669.926550 kJ/mol
# GULP energy per Si atom -5570.575511 kJ/mol
# Density = 1.590509 g / cm^3
# Si number density = 15.941371 Si / 1000 Ang^3
#
#
#
# Elastic Constant Matrix: (Units=GPa)
#
#
# Indices 1 2 3 4 5 6 
#
# 1 143.4004 65.5565 78.1592 0.0000 0.0000 0.0000
# 2 65.5565 73.9805 44.5057 0.0000 0.0000 0.0000
# 3 78.1592 44.5057 68.1610 0.0000 0.0000 0.0000
# 4 0.0000 0.0000 0.0000 9.4620 0.0000 0.0000
# 5 0.0000 0.0000 0.0000 0.0000 -2.5419 0.0000
# 6 0.0000 0.0000 0.0000 0.0000 0.0000 29.0093
#
#
#
# Elastic Compliance Matrix: (Units=1/GPa)
#
#
# Indices 1 2 3 4 5 6 
#
# 1 0.020374 -0.006587 -0.019062 0.000000 0.000000 0.000000
# 2 -0.006587 0.024391 -0.008373 0.000000 0.000000 0.000000
# 3 -0.019062 -0.008373 0.041996 0.000000 0.000000 0.000000
# 4 0.000000 0.000000 0.000000 0.105686 0.000000 0.000000
# 5 0.000000 0.000000 0.000000 0.000000 -0.393403 0.000000
# 6 0.000000 0.000000 0.000000 0.000000 0.000000 0.034472
#
#
# Mechanical properties :
#
#
# Convention : Reuss Voigt Hill
#
# Bulk Modulus (GPa) = 53.42477 73.55385 63.48931
# Shear Modulus (GPa) = -54.22950 13.67393 -20.27779
#
# Velocity S-wave (km/s) = -5.83883 2.93194 -3.57041
# Velocity P-wave (km/s) = 3.44527 7.59619 4.78708
#
# Compressibility (1/GPa) = 0.01871791
#
# Stress axis : x y z
#
# Youngs Moduli (GPa) = 49.08145 40.99871 23.81155
#
# Poissons Ratio (x) = 0.27005 0.45390
# Poissons Ratio (y) = 0.32329 0.19938
# Poissons Ratio (z) = 0.93559 0.34328
#
# Static dielectric constant tensor:
#      x y z
#    x 1.522180 0.000000 0.000000 
#    y 0.000000 1.534910 0.000000 
#    z 0.000000 0.000000 1.515970 
# 
# From -- ./inp_files/71828.got.cif
#   From: 2010.05.17/outbox.cif.g08.bks.cpg/sg65_36_cif.got.tgz:71828.got - 2010.06.03 17:01:31.
