data_PCOD9484714
_publ_section_title
;
Structure prediction by ZEFSAII (Michael W. Deem and Ramdas Pophale) SiO2 
 PCOD9484714
Probable space group: C M M M
;
_chemical_formula_sum "Si O2"
_cell_formula_units_Z 96
_cell_length_a 25.357590
_cell_length_b 13.715903
_cell_length_c 16.991138
_cell_angle_alpha 90.000000
_cell_angle_beta 90.000000
_cell_angle_gamma 90.000000
_cell_volume 5909.555937
_symmetry_space_group_name_H-M "C M M M"
_symmetry_group_IT_number 65
_symmetry_cell_setting 'orthorhombic'
loop_
_space_group_symop_operation_xyz
x,y,z
-x,-y,z
x,-y,-z
-x,y,-z
-x,-y,-z
x,y,-z
-x,y,z
x,-y,z
1/2+x,1/2+y,z
1/2-x,1/2-y,z
1/2+x,1/2-y,-z
1/2-x,1/2+y,-z
1/2-x,1/2-y,-z
1/2+x,1/2+y,-z
1/2-x,1/2+y,z
1/2+x,1/2-y,z
loop_
_atom_site_type_symbol
_atom_site_label
_atom_site_fract_x
_atom_site_fract_y
_atom_site_fract_z
Si Si1 0.633004 0.617541 0.500000
Si Si2 0.560049 0.383084 0.811465
Si Si3 0.718650 0.382481 0.756977
Si Si4 0.618667 0.701811 0.666185
Si Si5 0.161255 0.118346 0.088344
Si Si6 0.755804 0.382896 0.500000
Si Si7 0.318437 0.883603 0.658623
O O1 0.630335 0.500000 0.500000
O O2 0.608382 0.659849 0.579767
O O3 0.695021 0.648237 0.500000
O O4 0.500000 0.362013 0.834217
O O5 0.564857 0.500000 0.798800
O O6 0.576323 0.330517 0.730699
O O7 0.603507 0.356602 0.877069
O O8 0.714911 0.500000 0.753970
O O9 0.674062 0.344578 0.697129
O O10 0.702598 0.350437 0.844575
O O11 0.777119 0.358400 0.728059
O O12 0.630274 0.816884 0.664185
O O13 0.163538 0.000000 0.085341
O O14 0.169745 0.155059 0.000000
O O15 0.753506 0.500000 0.500000
O O16 0.787505 0.356492 0.578409
O O17 0.328007 0.000000 0.658810
#
# Coordination Sequence:
#
# PCOD9484714 Si02
#       7
#     8  16  16  16  16   8  16
#     4  11  19  27  43  67  92 119 152 185 218 261
#     4   9  18  32  48  66  88 111 140 182 228 273
#     4   9  16  26  40  62  91 118 143 173 211 260
#     4  11  19  28  45  62  86 121 153 182 221 263
#     4   8  14  25  43  67  92 117 144 173 211 264
#     4   9  17  27  39  60  90 115 147 189 215 239
#     4  10  19  29  41  62  90 120 155 189 217 250
#
# _framework density 16.244876000000001
#
# number of rings (size 3 to 8) (size 9 to 14) (size 15 to 20)
#    0.000    2.500    1.667    3.500    0.000    1.000 
#    0.000    2.083    0.000   10.000    0.000    0.000 
#    0.000    3.333    0.000    6.000    0.000    0.667 
#
# Total GULP energy -267614.469860 kJ/mol
# GULP energy per Si atom -5575.301455 kJ/mol
# Density = 1.620790 g / cm^3
# Si number density = 16.244876 Si / 1000 Ang^3
#
#
#
# Elastic Constant Matrix: (Units=GPa)
#
#
# Indices 1 2 3 4 5 6 
#
# 1 29.3966 18.0376 19.1324 0.0000 0.0000 0.0000
# 2 18.0376 51.9215 21.4737 0.0000 0.0000 0.0000
# 3 19.1324 21.4737 128.4872 0.0000 0.0000 0.0000
# 4 0.0000 0.0000 0.0000 9.9136 0.0000 0.0000
# 5 0.0000 0.0000 0.0000 0.0000 9.1556 0.0000
# 6 0.0000 0.0000 0.0000 0.0000 0.0000 15.4823
#
#
#
# Elastic Compliance Matrix: (Units=1/GPa)
#
#
# Indices 1 2 3 4 5 6 
#
# 1 0.045473 -0.013962 -0.004438 0.000000 0.000000 0.000000
# 2 -0.013962 0.024977 -0.002095 0.000000 0.000000 0.000000
# 3 -0.004438 -0.002095 0.008794 0.000000 0.000000 0.000000
# 4 0.000000 0.000000 0.000000 0.100871 0.000000 0.000000
# 5 0.000000 0.000000 0.000000 0.000000 0.109223 0.000000
# 6 0.000000 0.000000 0.000000 0.000000 0.000000 0.064590
#
#
# Mechanical properties :
#
#
# Convention : Reuss Voigt Hill
#
# Bulk Modulus (GPa) = 26.14141 36.34365 31.24253
# Shear Modulus (GPa) = 12.26487 16.98774 14.62631
#
# Velocity S-wave (km/s) = 2.75071 3.23728 3.00386
# Velocity P-wave (km/s) = 5.12011 6.03277 5.59508
#
# Compressibility (1/GPa) = 0.03825349
#
# Stress axis : x y z
#
# Youngs Moduli (GPa) = 21.99121 40.03708 113.71574
#
# Poissons Ratio (x) = 0.55900 0.50464
# Poissons Ratio (y) = 0.30704 0.23827
# Poissons Ratio (z) = 0.09759 0.08389
#
# Static dielectric constant tensor:
#      x y z
#    x 1.525240 0.000000 0.000000 
#    y 0.000000 1.567330 0.000000 
#    z 0.000000 0.000000 1.557340 
# 
# From -- ./inp_files/47928.got.cif
#   From: 2010.05.17/outbox.cif.g08.bks.cpg/sg65_24_cif.got.tgz:47928.got - 2010.06.03 17:01:31.
