data_PCOD9484733
_publ_section_title
;
Structure prediction by ZEFSAII (Michael W. Deem and Ramdas Pophale) SiO2 
 PCOD9484733
Probable space group: C M M M
;
_chemical_formula_sum "Si O2"
_cell_formula_units_Z 104
_cell_length_a 9.201857
_cell_length_b 27.178127
_cell_length_c 26.941568
_cell_angle_alpha 90.000000
_cell_angle_beta 90.000000
_cell_angle_gamma 90.000000
_cell_volume 6737.796217
_symmetry_space_group_name_H-M "C M M M"
_symmetry_group_IT_number 65
_symmetry_cell_setting 'orthorhombic'
loop_
_space_group_symop_operation_xyz
x,y,z
-x,-y,z
x,-y,-z
-x,y,-z
-x,-y,-z
x,y,-z
-x,y,z
x,-y,z
1/2+x,1/2+y,z
1/2-x,1/2-y,z
1/2+x,1/2-y,-z
1/2-x,1/2+y,-z
1/2-x,1/2-y,-z
1/2+x,1/2+y,-z
1/2-x,1/2+y,z
1/2+x,1/2-y,z
loop_
_atom_site_type_symbol
_atom_site_label
_atom_site_fract_x
_atom_site_fract_y
_atom_site_fract_z
Si Si1 0.668050 0.940009 0.500000
Si Si2 0.832319 0.059870 0.400086
Si Si3 0.172139 0.903355 0.201023
Si Si4 0.670910 0.059333 0.701074
Si Si5 0.672730 0.945136 0.105429
Si Si6 0.173863 0.657525 0.943621
Si Si7 0.171647 0.201357 0.151110
O O1 0.500000 0.924690 0.500000
O O2 0.750734 0.924132 0.549864
O O3 0.669016 0.000000 0.500000
O O4 0.747664 0.074470 0.350300
O O5 0.000000 0.075780 0.399327
O O6 0.832273 0.000000 0.400773
O O7 0.251290 0.916815 0.251808
O O8 0.240145 0.934633 0.155859
O O9 0.194562 0.846489 0.185407
O O10 0.000000 0.912599 0.204813
O O11 0.500000 0.070922 0.700051
O O12 0.684848 0.000000 0.705418
O O13 0.500000 0.942982 0.116559
O O14 0.703004 0.900208 0.068151
O O15 0.705077 0.000000 0.086474
O O16 0.258704 0.687977 0.902198
O O17 0.000000 0.665117 0.938044
O O18 0.214744 0.669403 0.000000
O O19 0.250000 0.250000 0.170505
O O20 0.000000 0.209442 0.145949
#
# Coordination Sequence:
#
# PCOD9484733 Si02
#       7
#     8  16  16  16  16  16  16
#     4   9  15  23  35  51  75 109 150 193 230 263
#     4   9  16  25  37  54  78 111 151 191 227 260
#     4  10  20  32  46  65  87 111 141 177 216 259
#     4  10  19  29  42  62  88 118 151 184 218 256
#     4   9  17  29  45  65  89 117 147 176 207 246
#     4   9  18  32  49  69  92 116 142 173 209 250
#     4  10  21  36  53  70  87 109 138 173 215 263
#
# _framework density 15.435314
#
# number of rings (size 3 to 8) (size 9 to 14) (size 15 to 20)
#    0.000    2.538    0.000    2.538    0.000    8.615 
#    0.000    1.538    0.000    0.000    0.000    4.308 
#    0.000    0.000    0.000    0.692    0.000    9.462 
#
# Total GULP energy -289966.399034 kJ/mol
# GULP energy per Si atom -5576.276904 kJ/mol
# Density = 1.540018 g / cm^3
# Si number density = 15.435314 Si / 1000 Ang^3
#
#
#
# Elastic Constant Matrix: (Units=GPa)
#
#
# Indices 1 2 3 4 5 6 
#
# 1 85.3372 19.2428 51.3462 0.0000 0.0000 0.0000
# 2 19.2428 31.5663 -5.1257 0.0000 0.0000 0.0000
# 3 51.3462 -5.1257 95.7095 0.0000 0.0000 0.0000
# 4 0.0000 0.0000 0.0000 7.4866 0.0000 0.0000
# 5 0.0000 0.0000 0.0000 0.0000 22.2479 0.0000
# 6 0.0000 0.0000 0.0000 0.0000 0.0000 18.8645
#
#
#
# Elastic Compliance Matrix: (Units=1/GPa)
#
#
# Indices 1 2 3 4 5 6 
#
# 1 0.023622 -0.016602 -0.013562 0.000000 0.000000 0.000000
# 2 -0.016602 0.043626 0.011243 0.000000 0.000000 0.000000
# 3 -0.013562 0.011243 0.018326 0.000000 0.000000 0.000000
# 4 0.000000 0.000000 0.000000 0.133572 0.000000 0.000000
# 5 0.000000 0.000000 0.000000 0.000000 0.044948 0.000000
# 6 0.000000 0.000000 0.000000 0.000000 0.000000 0.053010
#
#
# Mechanical properties :
#
#
# Convention : Reuss Voigt Hill
#
# Bulk Modulus (GPa) = 20.95033 38.17106 29.56070
# Shear Modulus (GPa) = 13.48237 19.52979 16.50608
#
# Velocity S-wave (km/s) = 2.95867 3.56092 3.27367
# Velocity P-wave (km/s) = 5.02733 6.45680 5.78638
#
# Compressibility (1/GPa) = 0.04773194
#
# Stress axis : x y z
#
# Youngs Moduli (GPa) = 42.33400 22.92233 54.56746
#
# Poissons Ratio (x) = 0.38056 0.74002
# Poissons Ratio (y) = 0.70283 -0.61350
# Poissons Ratio (z) = 0.57412 -0.25771
#
# Static dielectric constant tensor:
#      x y z
#    x 1.513390 0.000000 0.000000 
#    y 0.000000 1.507000 0.000000 
#    z 0.000000 0.000000 1.492030 
# 
# From -- ./inp_files/68154.got.cif
#   From: 2010.05.17/outbox.cif.g08.bks.cpg/sg65_35_cif.got.tgz:68154.got - 2010.06.03 17:01:31.
