data_PCOD9484106
_publ_section_title
;
Structure prediction by ZEFSAII (Michael W. Deem and Ramdas Pophale) SiO2 
 PCOD9484106
Probable space group: C M M M
;
_chemical_formula_sum "Si O2"
_cell_formula_units_Z 128
_cell_length_a 16.035121
_cell_length_b 18.209433
_cell_length_c 25.859696
_cell_angle_alpha 90.000000
_cell_angle_beta 90.000000
_cell_angle_gamma 90.000000
_cell_volume 7550.784569
_symmetry_space_group_name_H-M "C M M M"
_symmetry_group_IT_number 65
_symmetry_cell_setting 'orthorhombic'
loop_
_space_group_symop_operation_xyz
x,y,z
-x,-y,z
x,-y,-z
-x,y,-z
-x,-y,-z
x,y,-z
-x,y,z
x,-y,z
1/2+x,1/2+y,z
1/2-x,1/2-y,z
1/2+x,1/2-y,-z
1/2-x,1/2+y,-z
1/2-x,1/2-y,-z
1/2+x,1/2+y,-z
1/2-x,1/2+y,z
1/2+x,1/2-y,z
loop_
_atom_site_type_symbol
_atom_site_label
_atom_site_fract_x
_atom_site_fract_y
_atom_site_fract_z
Si Si1 0.844880 0.718800 0.833974
Si Si2 0.253126 0.417392 0.817019
Si Si3 0.702183 0.179811 0.638603
Si Si4 0.098365 0.086330 0.895871
Si Si5 0.349034 0.269770 0.055964
Si Si6 0.325038 0.414935 0.297074
Si Si7 0.399929 0.915534 0.559872
Si Si8 0.406798 0.264086 0.723028
O O1 0.750000 0.750000 0.830691
O O2 0.824486 0.633198 0.830477
O O3 0.882510 0.737886 0.889802
O O4 0.891152 0.748245 0.783551
O O5 0.233331 0.500000 0.831557
O O6 0.339179 0.399202 0.847642
O O7 0.273363 0.413190 0.756518
O O8 0.750000 0.250000 0.614994
O O9 0.765735 0.117321 0.658387
O O10 0.640499 0.141914 0.598667
O O11 0.656355 0.215749 0.688601
O O12 0.131364 0.143655 0.938302
O O13 0.000000 0.099403 0.884767
O O14 0.105971 0.000000 0.909644
O O15 0.250000 0.250000 0.056706
O O16 0.381261 0.244235 0.000000
O O17 0.351639 0.500000 0.305081
O O18 0.392781 0.350463 0.288905
O O19 0.376060 0.902312 0.500000
O O20 0.500000 0.911203 0.562803
O O21 0.376495 0.000000 0.572820
O O22 0.500000 0.242716 0.709088
#
# Coordination Sequence:
#
# PCOD9484106 Si02
#       8
#    16  16  16  16  16  16  16  16
#     4  11  17  35  51  67  95 128 167 205 246 296
#     4  10  18  31  51  71  97 132 164 200 246 302
#     4  10  19  33  51  74 105 138 179 212 245 294
#     4  10  20  33  51  76 103 129 158 200 256 311
#     4  10  20  33  50  69  94 132 169 201 241 300
#     4  10  19  31  49  71 100 136 169 202 243 296
#     4   9  18  33  53  77 106 138 171 214 266 307
#     4  11  21  32  50  76 103 132 166 207 256 301
#
# _framework density 16.951881
#
# number of rings (size 3 to 8) (size 9 to 14) (size 15 to 20)
#    0.000    1.875    5.000    1.500    0.000    3.000 
#    0.000    1.875    0.000    1.500    0.000    0.000 
#    0.000    0.500    0.000   28.500    0.000    0.125 
#
# Total GULP energy -356409.193364 kJ/mol
# GULP energy per Si atom -5568.893646 kJ/mol
# Density = 1.691330 g / cm^3
# Si number density = 16.951881 Si / 1000 Ang^3
#
#
#
# Elastic Constant Matrix: (Units=GPa)
#
#
# Indices 1 2 3 4 5 6 
#
# 1 43.4637 29.8342 14.2031 0.0000 0.0000 0.0000
# 2 29.8342 90.8000 37.9282 0.0000 0.0000 0.0000
# 3 14.2031 37.9282 77.8893 0.0000 0.0000 0.0000
# 4 0.0000 0.0000 0.0000 12.1405 0.0000 0.0000
# 5 0.0000 0.0000 0.0000 0.0000 80.0345 0.0000
# 6 0.0000 0.0000 0.0000 0.0000 0.0000 21.6957
#
#
#
# Elastic Compliance Matrix: (Units=1/GPa)
#
#
# Indices 1 2 3 4 5 6 
#
# 1 0.029751 -0.009427 -0.000835 0.000000 0.000000 0.000000
# 2 -0.009427 0.016812 -0.006468 0.000000 0.000000 0.000000
# 3 -0.000835 -0.006468 0.016140 0.000000 0.000000 0.000000
# 4 0.000000 0.000000 0.000000 0.082369 0.000000 0.000000
# 5 0.000000 0.000000 0.000000 0.000000 0.012495 0.000000
# 6 0.000000 0.000000 0.000000 0.000000 0.000000 0.046092
#
#
# Mechanical properties :
#
#
# Convention : Reuss Voigt Hill
#
# Bulk Modulus (GPa) = 34.19349 41.78711 37.99030
# Shear Modulus (GPa) = 20.25392 31.45331 25.85362
#
# Velocity S-wave (km/s) = 3.46032 4.31216 3.90951
# Velocity P-wave (km/s) = 6.01496 7.03541 6.54510
#
# Compressibility (1/GPa) = 0.02924533
#
# Stress axis : x y z
#
# Youngs Moduli (GPa) = 33.61222 59.48075 61.95628
#
# Poissons Ratio (x) = 0.56070 0.05172
# Poissons Ratio (y) = 0.31685 0.40072
# Poissons Ratio (z) = 0.02806 0.38471
#
# Static dielectric constant tensor:
#      x y z
#    x 1.560580 0.000000 0.000000 
#    y 0.000000 1.630330 0.000000 
#    z 0.000000 0.000000 1.571850 
# 
# From -- ./inp_files/70656.got.cif
#   From: 2010.05.17/outbox.cif.g08.bks.cpg/sg65_36_cif.got.tgz:70656.got - 2010.06.03 17:01:31.
