data_PCOD9484298
_publ_section_title
;
Structure prediction by ZEFSAII (Michael W. Deem and Ramdas Pophale) SiO2 
 PCOD9484298
Probable space group: C M M M
;
_chemical_formula_sum "Si O2"
_cell_formula_units_Z 88
_cell_length_a 26.507980
_cell_length_b 9.022158
_cell_length_c 19.257336
_cell_angle_alpha 90.000000
_cell_angle_beta 90.000000
_cell_angle_gamma 90.000000
_cell_volume 4605.568760
_symmetry_space_group_name_H-M "C M M M"
_symmetry_group_IT_number 65
_symmetry_cell_setting 'orthorhombic'
loop_
_space_group_symop_operation_xyz
x,y,z
-x,-y,z
x,-y,-z
-x,y,-z
-x,-y,-z
x,y,-z
-x,y,z
x,-y,z
1/2+x,1/2+y,z
1/2-x,1/2-y,z
1/2+x,1/2-y,-z
1/2-x,1/2+y,-z
1/2-x,1/2-y,-z
1/2+x,1/2+y,-z
1/2-x,1/2+y,z
1/2+x,1/2-y,z
loop_
_atom_site_type_symbol
_atom_site_label
_atom_site_fract_x
_atom_site_fract_y
_atom_site_fract_z
Si Si1 0.693938 0.320566 0.143675
Si Si2 0.306164 0.819759 0.000000
Si Si3 0.500000 0.327778 0.219824
Si Si4 0.000000 0.169424 0.389392
Si Si5 0.104085 0.671129 0.221275
Si Si6 0.399228 0.832127 0.611364
Si Si7 0.297400 0.663276 0.582315
O O1 0.697789 0.500000 0.139601
O O2 0.750000 0.250000 0.155845
O O3 0.673278 0.248869 0.071400
O O4 0.652773 0.266436 0.199355
O O5 0.250000 0.750000 0.000000
O O6 0.305787 0.000000 0.000000
O O7 0.500000 0.500000 0.198378
O O8 0.500000 0.326813 0.304573
O O9 0.551369 0.245294 0.197225
O O10 0.050529 0.250266 0.412614
O O11 0.000000 0.000000 0.411272
O O12 0.108730 0.500000 0.197212
O O13 0.100864 0.667367 0.304785
O O14 0.348957 0.749731 0.589682
O O15 0.398743 0.000000 0.586635
O O16 0.288024 0.648426 0.500000
O O17 0.301619 0.500000 0.613341
O O18 0.250000 0.750000 0.613365
#
# Coordination Sequence:
#
# PCOD9484298 Si02
#       7
#    16   8   8   8  16  16  16
#     4  11  21  34  52  76 105 137 173 213 256 304
#     4  10  18  32  52  73 100 135 172 210 253 304
#     4   9  17  31  51  75 101 135 173 208 250 301
#     4   9  17  31  52  76 104 134 167 207 252 303
#     4  10  20  34  52  77 106 137 171 210 255 302
#     4  10  20  34  54  78 105 135 169 210 256 304
#     4  10  21  37  56  76 100 133 172 211 253 305
#
# _framework density 19.107303000000002
#
# number of rings (size 3 to 8) (size 9 to 14) (size 15 to 20)
#    0.000    2.000    0.000    5.727    0.000    6.182 
#    0.000    0.455    0.000    3.273    0.000    3.818 
#    0.000    0.000    0.000    0.000    0.000    0.000 
#
# Total GULP energy -245491.273052 kJ/mol
# GULP energy per Si atom -5579.347115 kJ/mol
# Density = 1.906381 g / cm^3
# Si number density = 19.107303 Si / 1000 Ang^3
#
#
#
# Elastic Constant Matrix: (Units=GPa)
#
#
# Indices 1 2 3 4 5 6 
#
# 1 160.8571 101.5385 9.3464 0.0000 0.0000 0.0000
# 2 101.5385 224.6240 16.8288 0.0000 0.0000 0.0000
# 3 9.3464 16.8288 28.4062 0.0000 0.0000 0.0000
# 4 0.0000 0.0000 0.0000 19.0365 0.0000 0.0000
# 5 0.0000 0.0000 0.0000 0.0000 20.0079 0.0000
# 6 0.0000 0.0000 0.0000 0.0000 0.0000 36.9508
#
#
#
# Elastic Compliance Matrix: (Units=1/GPa)
#
#
# Indices 1 2 3 4 5 6 
#
# 1 0.008707 -0.003894 -0.000558 0.000000 0.000000 0.000000
# 2 -0.003894 0.006400 -0.002510 0.000000 0.000000 0.000000
# 3 -0.000558 -0.002510 0.036874 0.000000 0.000000 0.000000
# 4 0.000000 0.000000 0.000000 0.052531 0.000000 0.000000
# 5 0.000000 0.000000 0.000000 0.000000 0.049980 0.000000
# 6 0.000000 0.000000 0.000000 0.000000 0.000000 0.027063
#
#
# Mechanical properties :
#
#
# Convention : Reuss Voigt Hill
#
# Bulk Modulus (GPa) = 26.27641 74.36831 50.32236
# Shear Modulus (GPa) = 24.01922 34.27727 29.14824
#
# Velocity S-wave (km/s) = 3.54936 4.24008 3.91001
# Velocity P-wave (km/s) = 5.52985 7.93580 6.83945
#
# Compressibility (1/GPa) = 0.03805695
#
# Stress axis : x y z
#
# Youngs Moduli (GPa) = 114.84645 156.24267 27.11905
#
# Poissons Ratio (x) = 0.60844 0.01513
# Poissons Ratio (y) = 0.44724 0.06808
# Poissons Ratio (z) = 0.06407 0.39224
#
# Static dielectric constant tensor:
#      x y z
#    x 1.635460 0.000000 0.000000 
#    y 0.000000 1.670580 0.000000 
#    z 0.000000 0.000000 1.729390 
# 
# From -- ./inp_files/65264.got.cif
#   From: 2010.05.17/outbox.cif.g08.bks.cpg/sg65_33_cif.got.tgz:65264.got - 2010.06.03 17:01:31.
