data_PCOD9484690
_publ_section_title
;
Structure prediction by ZEFSAII (Michael W. Deem and Ramdas Pophale) SiO2 
 PCOD9484690
Probable space group: C M M M
;
_chemical_formula_sum "Si O2"
_cell_formula_units_Z 72
_cell_length_a 7.534203
_cell_length_b 34.911476
_cell_length_c 16.484719
_cell_angle_alpha 90.000000
_cell_angle_beta 90.000000
_cell_angle_gamma 90.000000
_cell_volume 4335.978065
_symmetry_space_group_name_H-M "C M M M"
_symmetry_group_IT_number 65
_symmetry_cell_setting 'orthorhombic'
loop_
_space_group_symop_operation_xyz
x,y,z
-x,-y,z
x,-y,-z
-x,y,-z
-x,-y,-z
x,y,-z
-x,y,z
x,-y,z
1/2+x,1/2+y,z
1/2-x,1/2-y,z
1/2+x,1/2-y,-z
1/2-x,1/2+y,-z
1/2-x,1/2-y,-z
1/2+x,1/2+y,-z
1/2-x,1/2+y,z
1/2+x,1/2-y,z
loop_
_atom_site_type_symbol
_atom_site_label
_atom_site_fract_x
_atom_site_fract_y
_atom_site_fract_z
Si Si1 0.287513 0.795451 0.000000
Si Si2 0.285639 0.416640 0.593195
Si Si3 0.705578 0.500000 0.401379
Si Si4 0.712977 0.794949 0.500000
Si Si5 0.289021 0.835922 0.337855
Si Si6 0.286516 0.204663 0.823318
O O1 0.250000 0.750000 0.000000
O O2 0.219155 0.808730 0.087942
O O3 0.500000 0.801185 0.000000
O O4 0.224904 0.409436 0.500000
O O5 0.500000 0.418999 0.590121
O O6 0.218221 0.458496 0.620981
O O7 0.237474 0.380975 0.648763
O O8 0.500000 0.500000 0.374463
O O9 0.705393 0.500000 0.500000
O O10 0.500000 0.800331 0.500000
O O11 0.750000 0.750000 0.500000
O O12 0.783182 0.814716 0.581875
O O13 0.500000 0.828650 0.336665
O O14 0.217520 0.818580 0.254133
O O15 0.500000 0.200576 0.825485
O O16 0.250000 0.250000 0.813420
#
# Coordination Sequence:
#
# PCOD9484690 Si02
#       6
#     8  16   8   8  16  16
#     4   8  14  26  42  58  74  95 126 163 203 240
#     4   9  16  27  43  60  77 102 133 162 191 227
#     4   7  12  24  41  59  77  96 125 162 194 225
#     4  10  20  30  38  49  72 105 137 164 187 216
#     4  10  19  29  39  55  81 107 130 161 197 229
#     4   9  17  28  42  58  77 102 132 166 201 234
#
# _framework density 16.605250000000002
#
# number of rings (size 3 to 8) (size 9 to 14) (size 15 to 20)
#    0.000    3.000    1.111    2.000    0.000    1.778 
#    0.000    0.556    0.000    2.000    0.000    0.000 
#    0.000    0.889    0.000   11.111    0.000    0.889 
#
# Total GULP energy -200486.181284 kJ/mol
# GULP energy per Si atom -5569.060591 kJ/mol
# Density = 1.656746 g / cm^3
# Si number density = 16.605250 Si / 1000 Ang^3
#
#
#
# Elastic Constant Matrix: (Units=GPa)
#
#
# Indices 1 2 3 4 5 6 
#
# 1 41.7435 -7.9967 12.1601 0.0000 0.0000 0.0000
# 2 -7.9967 116.7144 81.1170 0.0000 0.0000 0.0000
# 3 12.1601 81.1170 157.9533 0.0000 0.0000 0.0000
# 4 0.0000 0.0000 0.0000 7.1586 0.0000 0.0000
# 5 0.0000 0.0000 0.0000 0.0000 34.3656 0.0000
# 6 0.0000 0.0000 0.0000 0.0000 0.0000 12.5294
#
#
#
# Elastic Compliance Matrix: (Units=1/GPa)
#
#
# Indices 1 2 3 4 5 6 
#
# 1 0.026243 0.004979 -0.004578 0.000000 0.000000 0.000000
# 2 0.004979 0.014268 -0.007711 0.000000 0.000000 0.000000
# 3 -0.004578 -0.007711 0.010643 0.000000 0.000000 0.000000
# 4 0.000000 0.000000 0.000000 0.139692 0.000000 0.000000
# 5 0.000000 0.000000 0.000000 0.000000 0.029099 0.000000
# 6 0.000000 0.000000 0.000000 0.000000 0.000000 0.079812
#
#
# Mechanical properties :
#
#
# Convention : Reuss Voigt Hill
#
# Bulk Modulus (GPa) = 27.36958 54.10799 40.73879
# Shear Modulus (GPa) = 15.31136 26.21944 20.76540
#
# Velocity S-wave (km/s) = 3.03987 3.97796 3.54012
# Velocity P-wave (km/s) = 5.37023 7.33174 6.42627
#
# Compressibility (1/GPa) = 0.03653691
#
# Stress axis : x y z
#
# Youngs Moduli (GPa) = 38.10510 70.08653 93.95640
#
# Poissons Ratio (x) = -0.34899 0.43009
# Poissons Ratio (y) = -0.18974 0.72447
# Poissons Ratio (z) = 0.17443 0.54042
#
# Static dielectric constant tensor:
#      x y z
#    x 1.631340 0.000000 0.000000 
#    y 0.000000 1.558540 0.000000 
#    z 0.000000 0.000000 1.589190 
# 
# From -- ./inp_files/51786.got.cif
#   From: 2010.05.17/outbox.cif.g08.bks.cpg/sg65_26_cif.got.tgz:51786.got - 2010.06.03 17:01:31.
