data_PCOD9484179
_publ_section_title
;
Structure prediction by ZEFSAII (Michael W. Deem and Ramdas Pophale) SiO2 
 PCOD9484179
Probable space group: C M M M
;
_chemical_formula_sum "Si O2"
_cell_formula_units_Z 88
_cell_length_a 17.097165
_cell_length_b 10.354481
_cell_length_c 27.439577
_cell_angle_alpha 90.000000
_cell_angle_beta 90.000000
_cell_angle_gamma 90.000000
_cell_volume 4857.690608
_symmetry_space_group_name_H-M "C M M M"
_symmetry_group_IT_number 65
_symmetry_cell_setting 'orthorhombic'
loop_
_space_group_symop_operation_xyz
x,y,z
-x,-y,z
x,-y,-z
-x,y,-z
-x,-y,-z
x,y,-z
-x,y,z
x,-y,z
1/2+x,1/2+y,z
1/2-x,1/2-y,z
1/2+x,1/2-y,-z
1/2-x,1/2+y,-z
1/2-x,1/2-y,-z
1/2+x,1/2+y,-z
1/2-x,1/2+y,z
1/2+x,1/2-y,z
loop_
_atom_site_type_symbol
_atom_site_label
_atom_site_fract_x
_atom_site_fract_y
_atom_site_fract_z
Si Si1 0.907133 0.650115 0.214899
Si Si2 0.845043 0.500000 0.944175
Si Si3 0.844601 0.249950 0.883441
Si Si4 0.905787 0.645911 0.418553
Si Si5 0.679801 0.849853 0.316241
Si Si6 0.654129 0.500000 0.056126
Si Si7 0.095567 0.849663 0.500000
O O1 0.888370 0.500000 0.202425
O O2 0.876901 0.737875 0.170935
O O3 0.867269 0.677498 0.266613
O O4 0.000000 0.661155 0.219641
O O5 0.869699 0.374130 0.914623
O O6 0.749635 0.500000 0.945396
O O7 0.871864 0.500000 0.000000
O O8 0.750000 0.250000 0.880664
O O9 0.869885 0.125084 0.913525
O O10 0.883041 0.500000 0.435440
O O11 0.873723 0.662285 0.364132
O O12 0.879752 0.762732 0.453570
O O13 0.000000 0.648325 0.417976
O O14 0.750000 0.750000 0.320136
O O15 0.706167 0.000000 0.314031
O O16 0.627630 0.500000 0.000000
O O17 0.000000 0.852641 0.500000
O O18 0.121461 0.000000 0.500000
#
# Coordination Sequence:
#
# PCOD9484179 Si02
#       7
#    16   8  16  16  16   8   8
#     4  10  20  36  57  78 102 135 177 220 262 312
#     4   9  16  28  49  77 105 135 175 214 251 302
#     4  10  18  31  52  78 106 136 172 215 260 307
#     4   9  17  32  55  81 109 145 188 225 260 309
#     4  10  21  37  57  81 108 139 176 221 271 319
#     4   9  18  30  49  77 107 137 169 212 261 308
#     4   9  17  29  50  81 116 149 181 223 270 313
#
# _framework density 18.115604999999999
#
# number of rings (size 3 to 8) (size 9 to 14) (size 15 to 20)
#    0.000    2.455    0.909    1.909    0.000    6.182 
#    1.636    0.909    0.000    4.364    0.000    0.000 
#    0.000    0.000    0.000    0.000    0.000    0.000 
#
# Total GULP energy -245399.742551 kJ/mol
# GULP energy per Si atom -5577.266876 kJ/mol
# Density = 1.807437 g / cm^3
# Si number density = 18.115605 Si / 1000 Ang^3
#
#
#
# Elastic Constant Matrix: (Units=GPa)
#
#
# Indices 1 2 3 4 5 6 
#
# 1 12.7051 28.8673 21.6276 0.0000 0.0000 0.0000
# 2 28.8673 157.6041 96.5081 0.0000 0.0000 0.0000
# 3 21.6276 96.5081 158.4284 0.0000 0.0000 0.0000
# 4 0.0000 0.0000 0.0000 24.5664 0.0000 0.0000
# 5 0.0000 0.0000 0.0000 0.0000 22.7521 0.0000
# 6 0.0000 0.0000 0.0000 0.0000 0.0000 16.2783
#
#
#
# Elastic Compliance Matrix: (Units=1/GPa)
#
#
# Indices 1 2 3 4 5 6 
#
# 1 0.137732 -0.021873 -0.005478 0.000000 0.000000 0.000000
# 2 -0.021873 0.013593 -0.005295 0.000000 0.000000 0.000000
# 3 -0.005478 -0.005295 0.010285 0.000000 0.000000 0.000000
# 4 0.000000 0.000000 0.000000 0.040706 0.000000 0.000000
# 5 0.000000 0.000000 0.000000 0.000000 0.043952 0.000000
# 6 0.000000 0.000000 0.000000 0.000000 0.000000 0.061432
#
#
# Mechanical properties :
#
#
# Convention : Reuss Voigt Hill
#
# Bulk Modulus (GPa) = 10.38218 69.19373 39.78795
# Shear Modulus (GPa) = 12.34271 24.83500 18.58886
#
# Velocity S-wave (km/s) = 2.61306 3.70661 3.20679
# Velocity P-wave (km/s) = 3.85326 7.52311 5.97682
#
# Compressibility (1/GPa) = 0.09631886
#
# Stress axis : x y z
#
# Youngs Moduli (GPa) = 7.26050 73.56468 97.22783
#
# Poissons Ratio (x) = 1.60907 0.53263
# Poissons Ratio (y) = 0.15881 0.51479
# Poissons Ratio (z) = 0.03977 0.38950
#
# Static dielectric constant tensor:
#      x y z
#    x 1.604440 0.000000 0.000000 
#    y 0.000000 1.629060 0.000000 
#    z 0.000000 0.000000 1.603380 
# 
# From -- ./inp_files/78036.got.cif
#   From: 2010.05.17/outbox.cif.g08.bks.cpg/sg65_40_cif.got.tgz:78036.got - 2010.06.03 17:01:31.
