data_PCOD9484568
_publ_section_title
;
Structure prediction by ZEFSAII (Michael W. Deem and Ramdas Pophale) SiO2 
 PCOD9484568
Probable space group: C M M M
;
_chemical_formula_sum "Si O2"
_cell_formula_units_Z 88
_cell_length_a 15.412487
_cell_length_b 28.245266
_cell_length_c 12.101422
_cell_angle_alpha 90.000000
_cell_angle_beta 90.000000
_cell_angle_gamma 90.000000
_cell_volume 5268.109559
_symmetry_space_group_name_H-M "C M M M"
_symmetry_group_IT_number 65
_symmetry_cell_setting 'orthorhombic'
loop_
_space_group_symop_operation_xyz
x,y,z
-x,-y,z
x,-y,-z
-x,y,-z
-x,-y,-z
x,y,-z
-x,y,z
x,-y,z
1/2+x,1/2+y,z
1/2-x,1/2-y,z
1/2+x,1/2-y,-z
1/2-x,1/2+y,-z
1/2-x,1/2-y,-z
1/2+x,1/2+y,-z
1/2-x,1/2+y,z
1/2+x,1/2-y,z
loop_
_atom_site_type_symbol
_atom_site_label
_atom_site_fract_x
_atom_site_fract_y
_atom_site_fract_z
Si Si1 0.749250 0.136266 0.369855
Si Si2 0.602956 0.190123 0.760014
Si Si3 0.100720 0.786260 0.628846
Si Si4 0.500000 0.557692 0.127109
Si Si5 0.316621 0.554701 0.779377
Si Si6 0.896236 0.346650 0.000000
Si Si7 0.700173 0.053392 0.000000
O O1 0.737148 0.131016 0.500000
O O2 0.663134 0.156768 0.313739
O O3 0.828711 0.173126 0.352084
O O4 0.774697 0.087572 0.311900
O O5 0.500000 0.179697 0.748879
O O6 0.615632 0.242978 0.712654
O O7 0.628572 0.180904 0.887622
O O8 0.110866 0.770126 0.500000
O O9 0.000000 0.801974 0.640561
O O10 0.500000 0.500000 0.123250
O O11 0.587183 0.572047 0.188963
O O12 0.500000 0.574041 0.000000
O O13 0.321896 0.500000 0.744185
O O14 0.260393 0.556231 0.891589
O O15 0.859763 0.400199 0.000000
O O16 0.000000 0.349514 0.000000
O O17 0.659801 0.000000 0.000000
#
# Coordination Sequence:
#
# PCOD9484568 Si02
#       7
#    16  16  16   8  16   8   8
#     4  11  22  35  55  79 107 144 187 226 264 316
#     4  10  20  36  57  79 107 139 176 222 271 324
#     4   9  19  36  56  78 105 140 183 225 263 311
#     4   9  16  30  53  77 101 137 178 215 261 319
#     4  10  20  34  54  80 110 141 178 223 271 320
#     4  10  20  35  55  81 109 137 172 218 276 327
#     4  10  18  34  57  79 105 139 181 222 267 320
#
# _framework density 16.704284000000001
#
# number of rings (size 3 to 8) (size 9 to 14) (size 15 to 20)
#    0.000    2.091    2.727    1.091    1.273    3.091 
#    0.000    2.727    0.000    2.182    0.000    1.273 
#    0.000    0.000    0.000    0.000    0.000    0.000 
#
# Total GULP energy -245351.606347 kJ/mol
# GULP energy per Si atom -5576.172872 kJ/mol
# Density = 1.666626 g / cm^3
# Si number density = 16.704284 Si / 1000 Ang^3
#
#
#
# Elastic Constant Matrix: (Units=GPa)
#
#
# Indices 1 2 3 4 5 6 
#
# 1 44.5278 36.0883 54.6367 0.0000 0.0000 0.0000
# 2 36.0883 79.8317 70.6550 0.0000 0.0000 0.0000
# 3 54.6367 70.6550 129.6045 0.0000 0.0000 0.0000
# 4 0.0000 0.0000 0.0000 33.9171 0.0000 0.0000
# 5 0.0000 0.0000 0.0000 0.0000 21.8560 0.0000
# 6 0.0000 0.0000 0.0000 0.0000 0.0000 23.3526
#
#
#
# Elastic Compliance Matrix: (Units=1/GPa)
#
#
# Indices 1 2 3 4 5 6 
#
# 1 0.048701 -0.007430 -0.016480 0.000000 0.000000 0.000000
# 2 -0.007430 0.025339 -0.010682 0.000000 0.000000 0.000000
# 3 -0.016480 -0.010682 0.020486 0.000000 0.000000 0.000000
# 4 0.000000 0.000000 0.000000 0.029484 0.000000 0.000000
# 5 0.000000 0.000000 0.000000 0.000000 0.045754 0.000000
# 6 0.000000 0.000000 0.000000 0.000000 0.000000 0.042822
#
#
# Mechanical properties :
#
#
# Convention : Reuss Voigt Hill
#
# Bulk Modulus (GPa) = 39.45832 64.08046 51.76939
# Shear Modulus (GPa) = 17.22852 21.99741 19.61296
#
# Velocity S-wave (km/s) = 3.21500 3.63281 3.43027
# Velocity P-wave (km/s) = 6.12002 7.48608 6.83725
#
# Compressibility (1/GPa) = 0.02534320
#
# Stress axis : x y z
#
# Youngs Moduli (GPa) = 20.53338 39.46541 48.81276
#
# Poissons Ratio (x) = 0.29322 0.80445
# Poissons Ratio (y) = 0.15256 0.52139
# Poissons Ratio (z) = 0.33840 0.42155
#
# Static dielectric constant tensor:
#      x y z
#    x 1.561720 0.000000 0.000000 
#    y 0.000000 1.544080 0.000000 
#    z 0.000000 0.000000 1.548080 
# 
# From -- ./inp_files/25238.got.cif
#   From: 2010.05.17/outbox.cif.g08.bks.cpg/sg65_13_cif.got.tgz:25238.got - 2010.06.03 17:01:31.
