data_PCOD9484308
_publ_section_title
;
Structure prediction by ZEFSAII (Michael W. Deem and Ramdas Pophale) SiO2 
 PCOD9484308
Probable space group: C M M M
;
_chemical_formula_sum "Si O2"
_cell_formula_units_Z 80
_cell_length_a 28.551300
_cell_length_b 8.668017
_cell_length_c 18.940838
_cell_angle_alpha 90.000000
_cell_angle_beta 90.000000
_cell_angle_gamma 90.000000
_cell_volume 4687.538323
_symmetry_space_group_name_H-M "C M M M"
_symmetry_group_IT_number 65
_symmetry_cell_setting 'orthorhombic'
loop_
_space_group_symop_operation_xyz
x,y,z
-x,-y,z
x,-y,-z
-x,y,-z
-x,-y,-z
x,y,-z
-x,y,z
x,-y,z
1/2+x,1/2+y,z
1/2-x,1/2-y,z
1/2+x,1/2-y,-z
1/2-x,1/2+y,-z
1/2-x,1/2-y,-z
1/2+x,1/2+y,-z
1/2-x,1/2+y,z
1/2+x,1/2-y,z
loop_
_atom_site_type_symbol
_atom_site_label
_atom_site_fract_x
_atom_site_fract_y
_atom_site_fract_z
Si Si1 0.056389 0.683025 0.579599
Si Si2 0.056801 0.680397 0.000000
Si Si3 0.303066 0.315460 0.500000
Si Si4 0.555330 0.186965 0.845234
Si Si5 0.697887 0.817023 0.352891
Si Si6 0.610790 0.682553 0.712678
O O1 0.069682 0.734543 0.500000
O O2 0.067392 0.500000 0.585202
O O3 0.080620 0.769491 0.643908
O O4 0.000000 0.697904 0.585058
O O5 0.071001 0.743224 0.076576
O O6 0.070245 0.500000 0.000000
O O7 0.000000 0.684122 0.000000
O O8 0.303267 0.500000 0.500000
O O9 0.250000 0.250000 0.500000
O O10 0.322245 0.250497 0.426809
O O11 0.500000 0.221403 0.837027
O O12 0.583961 0.260580 0.782009
O O13 0.559653 0.000000 0.843016
O O14 0.750000 0.750000 0.342206
O O15 0.661042 0.764834 0.294533
O O16 0.701049 0.000000 0.358748
O O17 0.617200 0.500000 0.713419
#
# Coordination Sequence:
#
# PCOD9484308 Si02
#       6
#    16   8   8  16  16  16
#     4   9  19  36  54  70  93 130 176 220 260 303
#     4   7  12  26  51  79 104 133 170 211 253 301
#     4  10  18  32  52  74  97 122 157 204 258 310
#     4   9  17  32  54  79 107 139 175 213 255 304
#     4  11  22  38  56  74  98 130 169 216 266 313
#     4  12  24  34  48  74 106 138 173 213 258 308
#
# _framework density 17.066526
#
# number of rings (size 3 to 8) (size 9 to 14) (size 15 to 20)
#    0.000    2.100    0.000    8.100    1.400    3.600 
#    0.000    1.500    0.000    1.800    0.000    0.700 
#    0.000    0.000    0.000    0.000    0.000    0.000 
#
# Total GULP energy -223230.039855 kJ/mol
# GULP energy per Si atom -5580.750996 kJ/mol
# Density = 1.702768 g / cm^3
# Si number density = 17.066526 Si / 1000 Ang^3
#
#
#
# Elastic Constant Matrix: (Units=GPa)
#
#
# Indices 1 2 3 4 5 6 
#
# 1 61.8138 39.4738 56.2163 0.0000 0.0000 0.0000
# 2 39.4738 107.0893 51.0149 0.0000 0.0000 0.0000
# 3 56.2163 51.0149 137.5861 0.0000 0.0000 0.0000
# 4 0.0000 0.0000 0.0000 6.8309 0.0000 0.0000
# 5 0.0000 0.0000 0.0000 0.0000 17.1708 0.0000
# 6 0.0000 0.0000 0.0000 0.0000 0.0000 22.8600
#
#
#
# Elastic Compliance Matrix: (Units=1/GPa)
#
#
# Indices 1 2 3 4 5 6 
#
# 1 0.028647 -0.006053 -0.009461 0.000000 0.000000 0.000000
# 2 -0.006053 0.012620 -0.002206 0.000000 0.000000 0.000000
# 3 -0.009461 -0.002206 0.011952 0.000000 0.000000 0.000000
# 4 0.000000 0.000000 0.000000 0.146393 0.000000 0.000000
# 5 0.000000 0.000000 0.000000 0.000000 0.058238 0.000000
# 6 0.000000 0.000000 0.000000 0.000000 0.000000 0.043744
#
#
# Mechanical properties :
#
#
# Convention : Reuss Voigt Hill
#
# Bulk Modulus (GPa) = 56.24426 66.65546 61.44986
# Shear Modulus (GPa) = 14.57900 20.02463 17.30181
#
# Velocity S-wave (km/s) = 2.92592 3.42910 3.18746
# Velocity P-wave (km/s) = 6.66649 7.40401 7.04491
#
# Compressibility (1/GPa) = 0.01777959
#
# Stress axis : x y z
#
# Youngs Moduli (GPa) = 34.90821 79.23903 83.66995
#
# Poissons Ratio (x) = 0.47960 0.79156
# Poissons Ratio (y) = 0.21128 0.18460
# Poissons Ratio (z) = 0.33025 0.17483
#
# Static dielectric constant tensor:
#      x y z
#    x 1.556910 0.000000 0.000000 
#    y 0.000000 1.574070 0.000000 
#    z 0.000000 0.000000 1.602320 
# 
# From -- ./inp_files/57269.got.cif
#   From: 2010.05.17/outbox.cif.g08.bks.cpg/sg65_29_cif.got.tgz:57269.got - 2010.06.03 17:01:31.
