data_PCOD9484529
_publ_section_title
;
Structure prediction by ZEFSAII (Michael W. Deem and Ramdas Pophale) SiO2 
 PCOD9484529
Probable space group: C M M M
;
_chemical_formula_sum "Si O2"
_cell_formula_units_Z 104
_cell_length_a 8.321119
_cell_length_b 22.740161
_cell_length_c 26.476773
_cell_angle_alpha 90.000000
_cell_angle_beta 90.000000
_cell_angle_gamma 90.000000
_cell_volume 5010.029926
_symmetry_space_group_name_H-M "C M M M"
_symmetry_group_IT_number 65
_symmetry_cell_setting 'orthorhombic'
loop_
_space_group_symop_operation_xyz
x,y,z
-x,-y,z
x,-y,-z
-x,y,-z
-x,-y,-z
x,y,-z
-x,y,z
x,-y,z
1/2+x,1/2+y,z
1/2-x,1/2-y,z
1/2+x,1/2-y,-z
1/2-x,1/2+y,-z
1/2-x,1/2-y,-z
1/2+x,1/2+y,-z
1/2-x,1/2+y,z
1/2+x,1/2-y,z
loop_
_atom_site_type_symbol
_atom_site_label
_atom_site_fract_x
_atom_site_fract_y
_atom_site_fract_z
Si Si1 0.810513 0.685989 0.607765
Si Si2 0.807257 0.315108 0.803542
Si Si3 0.193179 0.500000 0.175984
Si Si4 0.306464 0.064412 0.439681
Si Si5 0.307449 0.888844 0.106050
Si Si6 0.691052 0.500000 0.709847
Si Si7 0.307873 0.371642 0.703357
Si Si8 0.190461 0.932769 0.000000
O O1 0.750000 0.750000 0.590958
O O2 0.741994 0.625968 0.582521
O O3 0.771270 0.675767 0.666636
O O4 0.000000 0.685977 0.599361
O O5 0.750000 0.250000 0.791993
O O6 0.755251 0.333721 0.859964
O O7 0.735869 0.357581 0.760925
O O8 0.000000 0.319474 0.800866
O O9 0.234106 0.555883 0.141703
O O10 0.277722 0.500000 0.229907
O O11 0.000000 0.500000 0.184913
O O12 0.282622 0.066146 0.500000
O O13 0.500000 0.063933 0.430969
O O14 0.243949 0.000000 0.421744
O O15 0.500000 0.887325 0.101313
O O16 0.240244 0.899164 0.050684
O O17 0.500000 0.500000 0.701295
O O18 0.754523 0.562568 0.690300
O O19 0.500000 0.369611 0.697278
O O20 0.000000 0.937672 0.000000
O O21 0.258673 0.000000 0.000000
#
# Coordination Sequence:
#
# PCOD9484529 Si02
#       8
#    16  16   8  16  16   8  16   8
#     4  11  23  38  59  87 120 159 202 249 298 350
#     4  11  23  40  61  84 110 148 193 236 282 336
#     4  10  18  33  57  84 111 139 177 228 275 333
#     4   8  16  34  60  89 119 153 198 250 301 353
#     4  10  21  37  58  82 110 143 180 222 274 335
#     4  10  22  36  55  85 117 151 185 233 295 344
#     4  11  23  39  58  84 120 157 192 236 290 348
#     4  11  23  35  54  85 116 143 174 220 279 336
#
# _framework density 20.758358999999999
#
# number of rings (size 3 to 8) (size 9 to 14) (size 15 to 20)
#    0.000    1.769    2.308    2.538    1.077    3.077 
#    0.000    0.385    0.000    1.385    0.000    4.308 
#    0.000    0.000    0.000    0.000    0.000    0.000 
#
# Total GULP energy -290312.631620 kJ/mol
# GULP energy per Si atom -5582.935223 kJ/mol
# Density = 2.071111 g / cm^3
# Si number density = 20.758359 Si / 1000 Ang^3
#
#
#
# Elastic Constant Matrix: (Units=GPa)
#
#
# Indices 1 2 3 4 5 6 
#
# 1 20.5513 21.0373 -2.5997 0.0000 0.0000 0.0000
# 2 21.0373 155.2589 39.0295 0.0000 0.0000 0.0000
# 3 -2.5997 39.0295 55.0283 0.0000 0.0000 0.0000
# 4 0.0000 0.0000 0.0000 26.6310 0.0000 0.0000
# 5 0.0000 0.0000 0.0000 0.0000 7.2258 0.0000
# 6 0.0000 0.0000 0.0000 0.0000 0.0000 18.8587
#
#
#
# Elastic Compliance Matrix: (Units=1/GPa)
#
#
# Indices 1 2 3 4 5 6 
#
# 1 0.061257 -0.010987 0.010686 0.000000 0.000000 0.000000
# 2 -0.010987 0.009809 -0.007476 0.000000 0.000000 0.000000
# 3 0.010686 -0.007476 0.023980 0.000000 0.000000 0.000000
# 4 0.000000 0.000000 0.000000 0.037550 0.000000 0.000000
# 5 0.000000 0.000000 0.000000 0.000000 0.138393 0.000000
# 6 0.000000 0.000000 0.000000 0.000000 0.000000 0.053026
#
#
# Mechanical properties :
#
#
# Convention : Reuss Voigt Hill
#
# Bulk Modulus (GPa) = 12.57972 38.41918 25.49945
# Shear Modulus (GPa) = 13.65877 22.10118 17.87998
#
# Velocity S-wave (km/s) = 2.56791 3.26650 2.93804
# Velocity P-wave (km/s) = 3.85558 5.72492 4.88058
#
# Compressibility (1/GPa) = 0.07949301
#
# Stress axis : x y z
#
# Youngs Moduli (GPa) = 16.32467 101.94834 41.70169
#
# Poissons Ratio (x) = 1.12006 -0.44564
# Poissons Ratio (y) = 0.17935 0.31177
# Poissons Ratio (z) = -0.17445 0.76218
#
# Static dielectric constant tensor:
#      x y z
#    x 1.714860 0.000000 0.000000 
#    y 0.000000 1.783690 0.000000 
#    z 0.000000 0.000000 1.728820 
# 
# From -- ./inp_files/73405.got.cif
#   From: 2010.05.17/outbox.cif.g08.bks.cpg/sg65_37_cif.got.tgz:73405.got - 2010.06.03 17:01:31.
