data_PCOD9484346
_publ_section_title
;
Structure prediction by ZEFSAII (Michael W. Deem and Ramdas Pophale) SiO2 
 PCOD9484346
Probable space group: C M M M
;
_chemical_formula_sum "Si O2"
_cell_formula_units_Z 72
_cell_length_a 14.163379
_cell_length_b 29.933202
_cell_length_c 7.296828
_cell_angle_alpha 90.000000
_cell_angle_beta 90.000000
_cell_angle_gamma 90.000000
_cell_volume 3093.528791
_symmetry_space_group_name_H-M "C M M M"
_symmetry_group_IT_number 65
_symmetry_cell_setting 'orthorhombic'
loop_
_space_group_symop_operation_xyz
x,y,z
-x,-y,z
x,-y,-z
-x,y,-z
-x,-y,-z
x,y,-z
-x,y,z
x,-y,z
1/2+x,1/2+y,z
1/2-x,1/2-y,z
1/2+x,1/2-y,-z
1/2-x,1/2+y,-z
1/2-x,1/2-y,-z
1/2+x,1/2+y,-z
1/2-x,1/2+y,z
1/2+x,1/2-y,z
loop_
_atom_site_type_symbol
_atom_site_label
_atom_site_fract_x
_atom_site_fract_y
_atom_site_fract_z
Si Si1 0.838601 0.620930 0.702739
Si Si2 0.713040 0.700768 0.723266
Si Si3 0.797767 0.952877 0.221073
Si Si4 0.500000 0.575298 0.220606
Si Si5 0.500000 0.320815 0.291899
Si Si6 0.000000 0.552733 0.723901
O O1 0.875687 0.633062 0.500000
O O2 0.793164 0.665366 0.788556
O O3 0.747805 0.589704 0.691340
O O4 0.912619 0.584740 0.782477
O O5 0.711203 0.695747 0.500000
O O6 0.750000 0.750000 0.767056
O O7 0.604017 0.692753 0.785470
O O8 0.906682 0.950789 0.270514
O O9 0.753638 0.000000 0.277681
O O10 0.789783 0.949545 0.000000
O O11 0.500000 0.625531 0.292803
O O12 0.500000 0.579601 0.000000
O O13 0.500000 0.302975 0.500000
O O14 0.000000 0.500000 0.783474
O O15 0.000000 0.550578 0.500000
#
# Coordination Sequence:
#
# PCOD9484346 Si02
#       6
#    16  16  16   8   8   8
#     4  10  19  33  53  74 101 135 173 216 262 306
#     4   9  18  31  50  77 104 132 166 209 260 308
#     4  10  20  33  50  74 104 137 171 207 253 311
#     4  10  19  32  51  73 102 136 168 201 251 307
#     4  10  18  32  53  76 105 132 165 212 254 302
#     4   9  18  31  48  73 102 133 171 214 258 307
#
# _framework density 23.274393
#
# number of rings (size 3 to 8) (size 9 to 14) (size 15 to 20)
#    0.000    2.333    2.222    1.000    0.000    3.556 
#    0.000    5.000    0.000    6.667    0.000    0.000 
#    0.000    0.000    0.000    0.000    0.000    0.000 
#
# Total GULP energy -200618.274683 kJ/mol
# GULP energy per Si atom -5572.729852 kJ/mol
# Density = 2.322142 g / cm^3
# Si number density = 23.274393 Si / 1000 Ang^3
#
#
#
# Elastic Constant Matrix: (Units=GPa)
#
#
# Indices 1 2 3 4 5 6 
#
# 1 133.9955 76.7567 5.0843 0.0000 0.0000 0.0000
# 2 76.7567 212.3256 8.1609 0.0000 0.0000 0.0000
# 3 5.0843 8.1609 88.2168 0.0000 0.0000 0.0000
# 4 0.0000 0.0000 0.0000 -5.6094 0.0000 0.0000
# 5 0.0000 0.0000 0.0000 0.0000 -2.6573 0.0000
# 6 0.0000 0.0000 0.0000 0.0000 0.0000 28.9033
#
#
#
# Elastic Compliance Matrix: (Units=1/GPa)
#
#
# Indices 1 2 3 4 5 6 
#
# 1 0.009417 -0.003395 -0.000229 0.000000 0.000000 0.000000
# 2 -0.003395 0.005951 -0.000355 0.000000 0.000000 0.000000
# 3 -0.000229 -0.000355 0.011382 0.000000 0.000000 0.000000
# 4 0.000000 0.000000 0.000000 -0.178272 0.000000 0.000000
# 5 0.000000 0.000000 0.000000 0.000000 -0.376319 0.000000
# 6 0.000000 0.000000 0.000000 0.000000 0.000000 0.034598
#
#
# Mechanical properties :
#
#
# Convention : Reuss Voigt Hill
#
# Bulk Modulus (GPa) = 53.21545 68.28241 60.74893
# Shear Modulus (GPa) = -10.43792 27.09638 8.32923
#
# Velocity S-wave (km/s) = -2.12001 3.41576 1.89380
# Velocity P-wave (km/s) = 4.11356 6.70509 5.56236
#
# Compressibility (1/GPa) = 0.01879153
#
# Stress axis : x y z
#
# Youngs Moduli (GPa) = 106.19573 168.04407 87.86031
#
# Poissons Ratio (x) = 0.57057 0.02009
# Poissons Ratio (y) = 0.36057 0.03117
# Poissons Ratio (z) = 0.02428 0.05963
#
# Static dielectric constant tensor:
#      x y z
#    x 1.941780 0.000000 0.000000 
#    y 0.000000 1.799430 0.000000 
#    z 0.000000 0.000000 1.961670 
# 
# From -- ./inp_files/7434.got.cif
#   From: 2010.05.17/outbox.cif.g08.bks.cpg/sg65_4_cif.got.tgz:7434.got - 2010.06.03 17:01:31.
