data_PCOD9484661
_publ_section_title
;
Structure prediction by ZEFSAII (Michael W. Deem and Ramdas Pophale) SiO2 
 PCOD9484661
Probable space group: C M M M
;
_chemical_formula_sum "Si O2"
_cell_formula_units_Z 96
_cell_length_a 18.530258
_cell_length_b 27.527416
_cell_length_c 13.012621
_cell_angle_alpha 90.000000
_cell_angle_beta 90.000000
_cell_angle_gamma 90.000000
_cell_volume 6637.609415
_symmetry_space_group_name_H-M "C M M M"
_symmetry_group_IT_number 65
_symmetry_cell_setting 'orthorhombic'
loop_
_space_group_symop_operation_xyz
x,y,z
-x,-y,z
x,-y,-z
-x,y,-z
-x,-y,-z
x,y,-z
-x,y,z
x,-y,z
1/2+x,1/2+y,z
1/2-x,1/2-y,z
1/2+x,1/2-y,-z
1/2-x,1/2+y,-z
1/2-x,1/2-y,-z
1/2+x,1/2+y,-z
1/2-x,1/2+y,z
1/2+x,1/2-y,z
loop_
_atom_site_type_symbol
_atom_site_label
_atom_site_fract_x
_atom_site_fract_y
_atom_site_fract_z
Si Si1 0.416403 0.000000 0.124649
Si Si2 0.175050 0.404170 0.875006
Si Si3 0.917786 0.689038 0.875382
Si Si4 0.414403 0.700502 0.876276
Si Si5 0.415709 0.441939 0.619715
Si Si6 0.917320 0.941954 0.000000
Si Si7 0.337997 0.394069 0.807031
O O1 0.372206 0.048505 0.153590
O O2 0.500000 0.000000 0.160163
O O3 0.419156 0.000000 0.000000
O O4 0.133309 0.354964 0.845002
O O5 0.253665 0.402755 0.825193
O O6 0.183347 0.404737 0.000000
O O7 0.897016 0.743922 0.845994
O O8 0.000000 0.680125 0.841206
O O9 0.918912 0.689116 0.000000
O O10 0.500000 0.692138 0.855484
O O11 0.363701 0.661363 0.822524
O O12 0.405166 0.695915 0.000000
O O13 0.401946 0.430656 0.500000
O O14 0.500000 0.430755 0.641586
O O15 0.407088 0.500000 0.632812
O O16 0.365560 0.414142 0.698925
O O17 0.878704 0.922652 0.101499
O O18 0.000000 0.924739 0.000000
O O19 0.916279 0.000000 0.000000
#
# Coordination Sequence:
#
# PCOD9484661 Si02
#       7
#     8  16  16  16  16   8  16
#     4   9  18  30  44  58  85 128 165 191 220 268
#     4  10  19  28  41  65  95 125 154 192 232 271
#     4   8  15  28  44  59  85 127 168 193 217 266
#     4   9  16  27  42  62  90 125 159 188 219 269
#     4   9  19  35  51  64  83 119 165 202 225 259
#     4  11  22  30  40  59  92 134 154 166 211 286
#     4  12  20  28  44  68  97 121 145 190 233 279
#
# _framework density 14.463037999999999
#
# number of rings (size 3 to 8) (size 9 to 14) (size 15 to 20)
#    0.000    2.333    1.667    4.000    2.333    4.000 
#    0.000    2.500    0.000    0.000    0.000    2.333 
#    0.000    4.667    0.000    0.000    0.000    0.000 
#
# Total GULP energy -267562.310322 kJ/mol
# GULP energy per Si atom -5574.214798 kJ/mol
# Density = 1.443012 g / cm^3
# Si number density = 14.463038 Si / 1000 Ang^3
#
#
#
# Elastic Constant Matrix: (Units=GPa)
#
#
# Indices 1 2 3 4 5 6 
#
# 1 133.3949 86.4835 46.1581 0.0000 0.0000 0.0000
# 2 86.4835 111.9020 37.1862 0.0000 0.0000 0.0000
# 3 46.1581 37.1862 43.0715 0.0000 0.0000 0.0000
# 4 0.0000 0.0000 0.0000 -8.6291 0.0000 0.0000
# 5 0.0000 0.0000 0.0000 0.0000 16.3660 0.0000
# 6 0.0000 0.0000 0.0000 0.0000 0.0000 83.7449
#
#
#
# Elastic Compliance Matrix: (Units=1/GPa)
#
#
# Indices 1 2 3 4 5 6 
#
# 1 0.017644 -0.010311 -0.010006 0.000000 0.000000 0.000000
# 2 -0.010311 0.018557 -0.004972 0.000000 0.000000 0.000000
# 3 -0.010006 -0.004972 0.038233 0.000000 0.000000 0.000000
# 4 0.000000 0.000000 0.000000 -0.115887 0.000000 0.000000
# 5 0.000000 0.000000 0.000000 0.000000 0.061102 0.000000
# 6 0.000000 0.000000 0.000000 0.000000 0.000000 0.011941
#
#
# Mechanical properties :
#
#
# Convention : Reuss Voigt Hill
#
# Bulk Modulus (GPa) = 41.91783 69.78045 55.84914
# Shear Modulus (GPa) = 55.48161 26.19908 40.84034
#
# Velocity S-wave (km/s) = 6.20034 4.26073 5.31968
# Velocity P-wave (km/s) = 8.96129 8.51806 8.74248
#
# Compressibility (1/GPa) = 0.02385620
#
# Stress axis : x y z
#
# Youngs Moduli (GPa) = 56.67752 53.88713 26.15545
#
# Poissons Ratio (x) = 0.55562 0.26172
# Poissons Ratio (y) = 0.58439 0.13004
# Poissons Ratio (z) = 0.56712 0.26792
#
# Static dielectric constant tensor:
#      x y z
#    x 1.478250 0.000000 0.000000 
#    y 0.000000 1.498660 0.000000 
#    z 0.000000 0.000000 1.439120 
# 
# From -- ./inp_files/27433.got.cif
#   From: 2010.05.17/outbox.cif.g08.bks.cpg/sg65_14_cif.got.tgz:27433.got - 2010.06.03 17:01:31.
