data_PCOD9484287
_publ_section_title
;
Structure prediction by ZEFSAII (Michael W. Deem and Ramdas Pophale) SiO2 
 PCOD9484287
Probable space group: C M M M
;
_chemical_formula_sum "Si O2"
_cell_formula_units_Z 88
_cell_length_a 20.648566
_cell_length_b 30.793652
_cell_length_c 8.739571
_cell_angle_alpha 90.000000
_cell_angle_beta 90.000000
_cell_angle_gamma 90.000000
_cell_volume 5557.010387
_symmetry_space_group_name_H-M "C M M M"
_symmetry_group_IT_number 65
_symmetry_cell_setting 'orthorhombic'
loop_
_space_group_symop_operation_xyz
x,y,z
-x,-y,z
x,-y,-z
-x,y,-z
-x,-y,-z
x,y,-z
-x,y,z
x,-y,z
1/2+x,1/2+y,z
1/2-x,1/2-y,z
1/2+x,1/2-y,-z
1/2-x,1/2+y,-z
1/2-x,1/2-y,-z
1/2+x,1/2+y,-z
1/2-x,1/2+y,z
1/2+x,1/2-y,z
loop_
_atom_site_type_symbol
_atom_site_label
_atom_site_fract_x
_atom_site_fract_y
_atom_site_fract_z
Si Si1 0.197945 0.368824 0.320720
Si Si2 0.926936 0.328448 0.820821
Si Si3 0.070459 0.776104 0.181545
Si Si4 0.287085 0.705403 0.185519
Si Si5 0.000000 0.552747 0.325164
Si Si6 0.638554 0.949821 0.182815
O O1 0.209631 0.371333 0.500000
O O2 0.128228 0.347409 0.284751
O O3 0.249302 0.336690 0.243240
O O4 0.190915 0.416736 0.249885
O O5 0.925614 0.276201 0.808923
O O6 0.000000 0.342668 0.784052
O O7 0.913595 0.339231 0.000000
O O8 0.138535 0.793843 0.242028
O O9 0.000000 0.789465 0.246277
O O10 0.069154 0.786335 0.000000
O O11 0.250000 0.750000 0.232240
O O12 0.287116 0.705482 0.000000
O O13 0.933132 0.563850 0.240737
O O14 0.000000 0.500000 0.329622
O O15 0.000000 0.568745 0.500000
O O16 0.648975 0.000000 0.229756
O O17 0.638878 0.947810 0.000000
#
# Coordination Sequence:
#
# PCOD9484287 Si02
#       6
#    16  16  16  16   8  16
#     4  12  24  33  46  69 100 131 161 203 253 300
#     4   9  17  31  49  67  90 124 169 210 242 285
#     4   8  14  27  49  72  92 121 163 208 245 278
#     4  10  18  32  52  71  96 130 168 205 242 287
#     4   9  17  31  51  73  97 123 153 199 257 299
#     4  10  21  37  54  69  88 121 167 209 244 290
#
# _framework density 15.835853999999999
#
# number of rings (size 3 to 8) (size 9 to 14) (size 15 to 20)
#    0.000    2.273    1.818    3.545    1.273    2.909 
#    0.000    0.000    0.000    0.545    0.000    0.000 
#    0.000    0.727    0.000    8.364    0.000    2.364 
#
# Total GULP energy -245405.001408 kJ/mol
# GULP energy per Si atom -5577.386396 kJ/mol
# Density = 1.579981 g / cm^3
# Si number density = 15.835854 Si / 1000 Ang^3
#
#
#
# Elastic Constant Matrix: (Units=GPa)
#
#
# Indices 1 2 3 4 5 6 
#
# 1 111.9320 58.7075 22.8396 0.0000 0.0000 0.0000
# 2 58.7075 84.6311 18.3428 0.0000 0.0000 0.0000
# 3 22.8396 18.3428 33.3802 0.0000 0.0000 0.0000
# 4 0.0000 0.0000 0.0000 9.0015 0.0000 0.0000
# 5 0.0000 0.0000 0.0000 0.0000 1.8841 0.0000
# 6 0.0000 0.0000 0.0000 0.0000 0.0000 29.3082
#
#
#
# Elastic Compliance Matrix: (Units=1/GPa)
#
#
# Indices 1 2 3 4 5 6 
#
# 1 0.014765 -0.009141 -0.005079 0.000000 0.000000 0.000000
# 2 -0.009141 0.019073 -0.004226 0.000000 0.000000 0.000000
# 3 -0.005079 -0.004226 0.035756 0.000000 0.000000 0.000000
# 4 0.000000 0.000000 0.000000 0.111092 0.000000 0.000000
# 5 0.000000 0.000000 0.000000 0.000000 0.530758 0.000000
# 6 0.000000 0.000000 0.000000 0.000000 0.000000 0.034120
#
#
# Mechanical properties :
#
#
# Convention : Reuss Voigt Hill
#
# Bulk Modulus (GPa) = 30.58093 47.74700 39.16396
# Shear Modulus (GPa) = 6.30232 16.70901 11.50567
#
# Velocity S-wave (km/s) = 1.99710 3.25181 2.69840
# Velocity P-wave (km/s) = 4.96699 6.65700 5.87310
#
# Compressibility (1/GPa) = 0.03270012
#
# Stress axis : x y z
#
# Youngs Moduli (GPa) = 67.72762 52.42951 27.96764
#
# Poissons Ratio (x) = 0.47928 0.14206
# Poissons Ratio (y) = 0.61913 0.11820
# Poissons Ratio (z) = 0.34401 0.22157
#
# Static dielectric constant tensor:
#      x y z
#    x 1.542270 0.000000 0.000000 
#    y 0.000000 1.549410 0.000000 
#    z 0.000000 0.000000 1.528220 
# 
# From -- ./inp_files/12625.got.cif
#   From: 2010.05.17/outbox.cif.g08.bks.cpg/sg65_7_cif.got.tgz:12625.got - 2010.06.03 17:01:31.
