data_PCOD9484032
_publ_section_title
;
Structure prediction by ZEFSAII (Michael W. Deem and Ramdas Pophale) SiO2 
 PCOD9484032
Probable space group: C M M M
;
_chemical_formula_sum "Si O2"
_cell_formula_units_Z 104
_cell_length_a 15.598599
_cell_length_b 25.146807
_cell_length_c 17.548381
_cell_angle_alpha 90.000000
_cell_angle_beta 90.000000
_cell_angle_gamma 90.000000
_cell_volume 6883.439461
_symmetry_space_group_name_H-M "C M M M"
_symmetry_group_IT_number 65
_symmetry_cell_setting 'orthorhombic'
loop_
_space_group_symop_operation_xyz
x,y,z
-x,-y,z
x,-y,-z
-x,y,-z
-x,-y,-z
x,y,-z
-x,y,z
x,-y,z
1/2+x,1/2+y,z
1/2-x,1/2-y,z
1/2+x,1/2-y,-z
1/2-x,1/2+y,-z
1/2-x,1/2-y,-z
1/2+x,1/2+y,-z
1/2-x,1/2+y,z
1/2+x,1/2-y,z
loop_
_atom_site_type_symbol
_atom_site_label
_atom_site_fract_x
_atom_site_fract_y
_atom_site_fract_z
Si Si1 0.897217 0.941675 0.162880
Si Si2 0.603557 0.332106 0.085845
Si Si3 0.500000 0.866321 0.408269
Si Si4 0.500000 0.365028 0.590416
Si Si5 0.000000 0.250373 0.668095
Si Si6 0.167270 0.898185 0.680745
Si Si7 0.665306 0.715967 0.240424
Si Si8 0.334450 0.062512 0.408665
O O1 0.874262 0.893041 0.107802
O O2 0.855025 0.933443 0.245420
O O3 0.000000 0.938285 0.174360
O O4 0.876754 0.000000 0.132070
O O5 0.500000 0.327700 0.089610
O O6 0.642427 0.296907 0.153003
O O7 0.630739 0.319297 0.000000
O O8 0.500000 0.861463 0.500000
O O9 0.500000 0.807187 0.373429
O O10 0.584632 0.900415 0.387319
O O11 0.500000 0.369896 0.500000
O O12 0.500000 0.302260 0.613961
O O13 0.583949 0.392197 0.627069
O O14 0.915724 0.243952 0.719979
O O15 0.180484 0.839449 0.715598
O O16 0.249342 0.919125 0.635453
O O17 0.750000 0.750000 0.246300
O O18 0.321354 0.068036 0.500000
O O19 0.352055 0.000000 0.393768
#
# Coordination Sequence:
#
# PCOD9484032 Si02
#       8
#    16  16   8   8   8  16  16  16
#     4   9  16  27  44  65  90 121 151 179 214 258
#     4   9  17  30  46  66  93 119 146 181 218 261
#     4  10  20  34  50  66  86 115 155 202 242 272
#     4  10  19  30  46  67  94 125 153 184 227 274
#     4  10  19  33  49  69  92 118 153 193 230 270
#     4  10  18  31  46  66  94 121 152 188 222 269
#     4  10  19  31  49  70  92 121 151 182 225 271
#     4  10  20  33  48  66  89 119 155 195 237 274
#
# _framework density 15.108726000000001
#
# number of rings (size 3 to 8) (size 9 to 14) (size 15 to 20)
#    0.000    2.308    1.538    2.308    0.000    1.538 
#    0.000    1.538    0.000    9.231    0.000    0.000 
#    0.000    0.000    0.000    0.000    0.000   42.769 
#
# Total GULP energy -289857.399353 kJ/mol
# GULP energy per Si atom -5574.180757 kJ/mol
# Density = 1.507434 g / cm^3
# Si number density = 15.108726 Si / 1000 Ang^3
#
#
#
# Elastic Constant Matrix: (Units=GPa)
#
#
# Indices 1 2 3 4 5 6 
#
# 1 64.5501 27.6200 13.6546 0.0000 0.0000 0.0000
# 2 27.6200 57.9998 5.6380 0.0000 0.0000 0.0000
# 3 13.6546 5.6380 54.0989 0.0000 0.0000 0.0000
# 4 0.0000 0.0000 0.0000 5.9444 0.0000 0.0000
# 5 0.0000 0.0000 0.0000 0.0000 6.0374 0.0000
# 6 0.0000 0.0000 0.0000 0.0000 0.0000 22.3958
#
#
#
# Elastic Compliance Matrix: (Units=1/GPa)
#
#
# Indices 1 2 3 4 5 6 
#
# 1 0.020346 -0.009284 -0.004168 0.000000 0.000000 0.000000
# 2 -0.009284 0.021654 0.000087 0.000000 0.000000 0.000000
# 3 -0.004168 0.000087 0.019528 0.000000 0.000000 0.000000
# 4 0.000000 0.000000 0.000000 0.168227 0.000000 0.000000
# 5 0.000000 0.000000 0.000000 0.000000 0.165633 0.000000
# 6 0.000000 0.000000 0.000000 0.000000 0.000000 0.044651
#
#
# Mechanical properties :
#
#
# Convention : Reuss Voigt Hill
#
# Bulk Modulus (GPa) = 28.73772 30.05266 29.39519
# Shear Modulus (GPa) = 10.45221 15.52460 12.98840
#
# Velocity S-wave (km/s) = 2.63306 3.20898 2.93518
# Velocity P-wave (km/s) = 5.32033 5.80208 5.56642
#
# Compressibility (1/GPa) = 0.03479748
#
# Stress axis : x y z
#
# Youngs Moduli (GPa) = 49.15004 46.18075 51.20957
#
# Poissons Ratio (x) = 0.42873 0.21343
# Poissons Ratio (y) = 0.45630 -0.00443
# Poissons Ratio (z) = 0.20485 -0.00400
#
# Static dielectric constant tensor:
#      x y z
#    x 1.474930 0.000000 0.000000 
#    y 0.000000 1.503480 0.000000 
#    z 0.000000 0.000000 1.483210 
# 
# From -- ./inp_files/53523.got.cif
#   From: 2010.05.17/outbox.cif.g08.bks.cpg/sg65_27_cif.got.tgz:53523.got - 2010.06.03 17:01:31.
