data_PCOD9484472
_publ_section_title
;
Structure prediction by ZEFSAII (Michael W. Deem and Ramdas Pophale) SiO2 
 PCOD9484472
Probable space group: C M M M
;
_chemical_formula_sum "Si O2"
_cell_formula_units_Z 88
_cell_length_a 22.854719
_cell_length_b 14.065596
_cell_length_c 14.914641
_cell_angle_alpha 90.000000
_cell_angle_beta 90.000000
_cell_angle_gamma 90.000000
_cell_volume 4794.538710
_symmetry_space_group_name_H-M "C M M M"
_symmetry_group_IT_number 65
_symmetry_cell_setting 'orthorhombic'
loop_
_space_group_symop_operation_xyz
x,y,z
-x,-y,z
x,-y,-z
-x,y,-z
-x,-y,-z
x,y,-z
-x,y,z
x,-y,z
1/2+x,1/2+y,z
1/2-x,1/2-y,z
1/2+x,1/2-y,-z
1/2-x,1/2+y,-z
1/2-x,1/2-y,-z
1/2+x,1/2+y,-z
1/2-x,1/2+y,z
1/2+x,1/2-y,z
loop_
_atom_site_type_symbol
_atom_site_label
_atom_site_fract_x
_atom_site_fract_y
_atom_site_fract_z
Si Si1 0.343373 0.196111 0.358160
Si Si2 0.218067 0.106841 0.643587
Si Si3 0.430832 0.114027 0.500000
Si Si4 0.762467 0.861817 0.148665
Si Si5 0.569429 0.796740 0.000000
Si Si6 0.634267 0.893269 0.835231
Si Si7 0.359036 0.395404 0.000000
O O1 0.283839 0.138712 0.383729
O O2 0.326295 0.306376 0.376027
O O3 0.397340 0.159270 0.415609
O O4 0.357410 0.171512 0.253903
O O5 0.222185 0.105831 0.751593
O O6 0.204353 0.000000 0.611818
O O7 0.500000 0.133860 0.500000
O O8 0.423009 0.000000 0.500000
O O9 0.750000 0.750000 0.149272
O O10 0.699181 0.900971 0.122717
O O11 0.815242 0.885596 0.083896
O O12 0.593139 0.848941 0.089307
O O13 0.500000 0.795718 0.000000
O O14 0.596128 0.690942 0.000000
O O15 0.615595 0.000000 0.808549
O O16 0.386354 0.500000 0.000000
#
# Coordination Sequence:
#
# PCOD9484472 Si02
#       7
#    16  16   8  16   8  16   8
#     4  10  20  38  58  86 119 146 183 232 279 335
#     4  10  18  32  58  89 120 149 175 216 283 353
#     4  11  24  41  61  83 109 149 199 240 276 323
#     4  11  17  33  54  84 115 142 178 225 281 337
#     4  12  26  40  52  75 109 147 197 243 276 324
#     4  11  21  36  58  83 114 146 177 227 290 344
#     4  12  22  34  54  75 107 152 192 234 283 331
#
# _framework density 18.354216000000001
#
# number of rings (size 3 to 8) (size 9 to 14) (size 15 to 20)
#    0.000    1.182    5.455    5.455    0.000    3.091 
#    0.000    1.364    0.000    1.091    0.000    0.000 
#    0.000    0.000    0.000    0.000    0.000    0.000 
#
# Total GULP energy -245626.233625 kJ/mol
# GULP energy per Si atom -5582.414401 kJ/mol
# Density = 1.831244 g / cm^3
# Si number density = 18.354216 Si / 1000 Ang^3
#
#
#
# Elastic Constant Matrix: (Units=GPa)
#
#
# Indices 1 2 3 4 5 6 
#
# 1 137.9738 59.4125 52.8729 0.0000 0.0000 0.0000
# 2 59.4125 180.8815 29.4703 0.0000 0.0000 0.0000
# 3 52.8729 29.4703 70.0358 0.0000 0.0000 0.0000
# 4 0.0000 0.0000 0.0000 13.9783 0.0000 0.0000
# 5 0.0000 0.0000 0.0000 0.0000 -123.4622 0.0000
# 6 0.0000 0.0000 0.0000 0.0000 0.0000 33.5880
#
#
#
# Elastic Compliance Matrix: (Units=1/GPa)
#
#
# Indices 1 2 3 4 5 6 
#
# 1 0.011128 -0.002455 -0.007368 0.000000 0.000000 0.000000
# 2 -0.002455 0.006477 -0.000872 0.000000 0.000000 0.000000
# 3 -0.007368 -0.000872 0.020208 0.000000 0.000000 0.000000
# 4 0.000000 0.000000 0.000000 0.071539 0.000000 0.000000
# 5 0.000000 0.000000 0.000000 0.000000 -0.008100 0.000000
# 6 0.000000 0.000000 0.000000 0.000000 0.000000 0.029773
#
#
# Mechanical properties :
#
#
# Convention : Reuss Voigt Hill
#
# Bulk Modulus (GPa) = 60.89113 74.71138 67.80126
# Shear Modulus (GPa) = 31.66749 1.29651 16.48200
#
# Velocity S-wave (km/s) = 4.15824 0.84138 2.99991
# Velocity P-wave (km/s) = 7.50348 6.46046 7.00142
#
# Compressibility (1/GPa) = 0.01642275
#
# Stress axis : x y z
#
# Youngs Moduli (GPa) = 89.86008 154.39538 49.48512
#
# Poissons Ratio (x) = 0.37900 0.36462
# Poissons Ratio (y) = 0.22058 0.04316
# Poissons Ratio (z) = 0.66212 0.13467
#
# Static dielectric constant tensor:
#      x y z
#    x 1.586510 0.000000 0.000000 
#    y 0.000000 1.701770 0.000000 
#    z 0.000000 0.000000 1.657870 
# 
# From -- ./inp_files/44062.got.cif
#   From: 2010.05.17/outbox.cif.g08.bks.cpg/sg65_23_cif.got.tgz:44062.got - 2010.06.03 17:01:31.
