data_PCOD9484220
_publ_section_title
;
Structure prediction by ZEFSAII (Michael W. Deem and Ramdas Pophale) SiO2 
 PCOD9484220
Probable space group: C M M M
;
_chemical_formula_sum "Si O2"
_cell_formula_units_Z 104
_cell_length_a 28.956155
_cell_length_b 23.529831
_cell_length_c 7.648314
_cell_angle_alpha 90.000000
_cell_angle_beta 90.000000
_cell_angle_gamma 90.000000
_cell_volume 5211.052039
_symmetry_space_group_name_H-M "C M M M"
_symmetry_group_IT_number 65
_symmetry_cell_setting 'orthorhombic'
loop_
_space_group_symop_operation_xyz
x,y,z
-x,-y,z
x,-y,-z
-x,y,-z
-x,-y,-z
x,y,-z
-x,y,z
x,-y,z
1/2+x,1/2+y,z
1/2-x,1/2-y,z
1/2+x,1/2-y,-z
1/2-x,1/2+y,-z
1/2-x,1/2-y,-z
1/2+x,1/2+y,-z
1/2-x,1/2+y,z
1/2+x,1/2-y,z
loop_
_atom_site_type_symbol
_atom_site_label
_atom_site_fract_x
_atom_site_fract_y
_atom_site_fract_z
Si Si1 0.000000 0.930902 0.202245
Si Si2 0.237752 0.563276 0.714228
Si Si3 0.099818 0.065393 0.212661
Si Si4 0.682775 0.646901 0.296313
Si Si5 0.853891 0.620343 0.706460
Si Si6 0.947858 0.566420 0.713160
Si Si7 0.199668 0.733192 0.801553
O O1 0.049399 0.914817 0.278049
O O2 0.000000 0.000000 0.200235
O O3 0.000000 0.912101 0.000000
O O4 0.238664 0.564082 0.500000
O O5 0.251853 0.500000 0.769001
O O6 0.272768 0.612359 0.772376
O O7 0.186227 0.578424 0.773795
O O8 0.140056 0.105061 0.277231
O O9 0.107320 0.000000 0.266117
O O10 0.099018 0.066014 0.000000
O O11 0.690513 0.659395 0.500000
O O12 0.674220 0.706477 0.204017
O O13 0.856858 0.609442 0.500000
O O14 0.904962 0.605297 0.775345
O O15 0.831929 0.683230 0.725525
O O16 0.948989 0.568819 0.500000
O O17 0.939523 0.500000 0.758845
O O18 0.000000 0.581825 0.772253
O O19 0.250000 0.750000 0.721226
O O20 0.209054 0.715281 0.000000
#
# Coordination Sequence:
#
# PCOD9484220 Si02
#       7
#     8  16  16  16  16  16  16
#     4   7  12  26  49  73  97 131 169 199 234 293
#     4   9  17  28  45  73 105 133 161 197 245 303
#     4   9  17  31  52  77 105 136 169 205 251 306
#     4  11  21  33  51  74 103 134 171 216 258 304
#     4  10  18  31  54  78 103 137 176 211 249 302
#     4   8  14  26  49  84 118 141 166 207 259 312
#     4  11  23  38  54  71  97 133 176 220 262 308
#
# _framework density 19.957581999999999
#
# number of rings (size 3 to 8) (size 9 to 14) (size 15 to 20)
#    0.000    2.538    1.538    3.231    0.000    3.385 
#    0.000    0.385    1.692    4.615    0.000    1.077 
#    0.000    0.000    0.000    0.000    0.000    0.000 
#
# Total GULP energy -289894.629496 kJ/mol
# GULP energy per Si atom -5574.896721 kJ/mol
# Density = 1.991216 g / cm^3
# Si number density = 19.957582 Si / 1000 Ang^3
#
#
#
# Elastic Constant Matrix: (Units=GPa)
#
#
# Indices 1 2 3 4 5 6 
#
# 1 154.0697 46.1604 6.4478 0.0000 0.0000 0.0000
# 2 46.1604 85.4762 -0.5627 0.0000 0.0000 0.0000
# 3 6.4478 -0.5627 39.4615 0.0000 0.0000 0.0000
# 4 0.0000 0.0000 0.0000 -14.3593 0.0000 0.0000
# 5 0.0000 0.0000 0.0000 0.0000 10.8202 0.0000
# 6 0.0000 0.0000 0.0000 0.0000 0.0000 15.6572
#
#
#
# Elastic Compliance Matrix: (Units=1/GPa)
#
#
# Indices 1 2 3 4 5 6 
#
# 1 0.007813 -0.004228 -0.001337 0.000000 0.000000 0.000000
# 2 -0.004228 0.013988 0.000890 0.000000 0.000000 0.000000
# 3 -0.001337 0.000890 0.025572 0.000000 0.000000 0.000000
# 4 0.000000 0.000000 0.000000 -0.069641 0.000000 0.000000
# 5 0.000000 0.000000 0.000000 0.000000 0.092420 0.000000
# 6 0.000000 0.000000 0.000000 0.000000 0.000000 0.063868
#
#
# Mechanical properties :
#
#
# Convention : Reuss Voigt Hill
#
# Bulk Modulus (GPa) = 26.29896 42.56649 34.43272
# Shear Modulus (GPa) = 32.04187 17.55440 24.79813
#
# Velocity S-wave (km/s) = 4.01121 2.96900 3.52880
# Velocity P-wave (km/s) = 5.88720 5.75570 5.82182
#
# Compressibility (1/GPa) = 0.03802432
#
# Stress axis : x y z
#
# Youngs Moduli (GPa) = 127.98601 71.48740 39.10479
#
# Poissons Ratio (x) = 0.30227 0.05228
# Poissons Ratio (y) = 0.54116 -0.03482
# Poissons Ratio (z) = 0.17111 -0.06365
#
# Static dielectric constant tensor:
#      x y z
#    x 1.742980 0.000000 0.000000 
#    y 0.000000 1.684870 0.000000 
#    z 0.000000 0.000000 1.777880 
# 
# From -- ./inp_files/16784.got.cif
#   From: 2010.05.17/outbox.cif.g08.bks.cpg/sg65_9_cif.got.tgz:16784.got - 2010.06.03 17:01:31.
