data_PCOD9484832
_publ_section_title
;
Structure prediction by ZEFSAII (Michael W. Deem and Ramdas Pophale) SiO2 
 PCOD9484832
Probable space group: C M M M
;
_chemical_formula_sum "Si O2"
_cell_formula_units_Z 72
_cell_length_a 7.397306
_cell_length_b 16.207258
_cell_length_c 27.261272
_cell_angle_alpha 90.000000
_cell_angle_beta 90.000000
_cell_angle_gamma 90.000000
_cell_volume 3268.355177
_symmetry_space_group_name_H-M "C M M M"
_symmetry_group_IT_number 65
_symmetry_cell_setting 'orthorhombic'
loop_
_space_group_symop_operation_xyz
x,y,z
-x,-y,z
x,-y,-z
-x,y,-z
-x,-y,-z
x,y,-z
-x,y,z
x,-y,z
1/2+x,1/2+y,z
1/2-x,1/2-y,z
1/2+x,1/2-y,-z
1/2-x,1/2+y,-z
1/2-x,1/2-y,-z
1/2+x,1/2+y,-z
1/2-x,1/2+y,z
1/2+x,1/2-y,z
loop_
_atom_site_type_symbol
_atom_site_label
_atom_site_fract_x
_atom_site_fract_y
_atom_site_fract_z
Si Si1 0.215601 0.658323 0.792826
Si Si2 0.778581 0.500000 0.731476
Si Si3 0.778662 0.500000 0.618506
Si Si4 0.715544 0.153093 0.000000
Si Si5 0.780497 0.405242 0.894552
Si Si6 0.284064 0.843208 0.555986
O O1 0.250000 0.750000 0.773678
O O2 0.281597 0.582600 0.759738
O O3 0.284284 0.648948 0.848803
O O4 0.000000 0.648303 0.795321
O O5 0.722133 0.500000 0.674988
O O6 0.000000 0.500000 0.731981
O O7 0.718578 0.417555 0.589996
O O8 0.000000 0.500000 0.618371
O O9 0.750000 0.250000 0.000000
O O10 0.786575 0.117696 0.948657
O O11 0.500000 0.136944 0.000000
O O12 0.737465 0.500000 0.883401
O O13 0.000000 0.398451 0.896438
O O14 0.213843 0.849230 0.500000
O O15 0.500000 0.852483 0.553318
O O16 0.250000 0.750000 0.574008
#
# Coordination Sequence:
#
# PCOD9484832 Si02
#       6
#    16   8   8   8  16  16
#     4  10  19  33  53  73  95 125 161 200 242 287
#     4   9  18  33  51  71  96 129 165 200 238 288
#     4   9  17  30  50  72  95 128 169 202 234 282
#     4  10  19  29  45  69  95 120 152 191 233 281
#     4   9  16  29  49  70  91 120 159 196 229 278
#     4   9  17  30  49  73 100 129 162 200 240 284
#
# _framework density 22.029430000000001
#
# number of rings (size 3 to 8) (size 9 to 14) (size 15 to 20)
#    0.000    2.667    1.111    1.333    0.000    3.556 
#    0.000    1.111    0.000    6.667    0.000    0.000 
#    0.000    0.000    0.000    0.000    0.000    0.000 
#
# Total GULP energy -201039.254184 kJ/mol
# GULP energy per Si atom -5584.423727 kJ/mol
# Density = 2.197929 g / cm^3
# Si number density = 22.029430 Si / 1000 Ang^3
#
#
#
# Elastic Constant Matrix: (Units=GPa)
#
#
# Indices 1 2 3 4 5 6 
#
# 1 75.3854 -3.3302 9.2919 0.0000 0.0000 0.0000
# 2 -3.3302 196.8032 113.2846 0.0000 0.0000 0.0000
# 3 9.2919 113.2846 155.2174 0.0000 0.0000 0.0000
# 4 0.0000 0.0000 0.0000 1.9359 0.0000 0.0000
# 5 0.0000 0.0000 0.0000 0.0000 -6.9411 0.0000
# 6 0.0000 0.0000 0.0000 0.0000 0.0000 19.4882
#
#
#
# Elastic Compliance Matrix: (Units=1/GPa)
#
#
# Indices 1 2 3 4 5 6 
#
# 1 0.013526 0.001198 -0.001684 0.000000 0.000000 0.000000
# 2 0.001198 0.008869 -0.006544 0.000000 0.000000 0.000000
# 3 -0.001684 -0.006544 0.011320 0.000000 0.000000 0.000000
# 4 0.000000 0.000000 0.000000 0.516563 0.000000 0.000000
# 5 0.000000 0.000000 0.000000 0.000000 -0.144070 0.000000
# 6 0.000000 0.000000 0.000000 0.000000 0.000000 0.051313
#
#
# Mechanical properties :
#
#
# Convention : Reuss Voigt Hill
#
# Bulk Modulus (GPa) = 50.88175 73.98874 62.43524
# Shear Modulus (GPa) = 10.45734 23.44057 16.94896
#
# Velocity S-wave (km/s) = 2.18112 3.26553 2.77678
# Velocity P-wave (km/s) = 5.43050 6.91935 6.21964
#
# Compressibility (1/GPa) = 0.01965341
#
# Stress axis : x y z
#
# Youngs Moduli (GPa) = 73.93316 112.75662 88.34026
#
# Poissons Ratio (x) = -0.13513 0.14880
# Poissons Ratio (y) = -0.08860 0.57814
# Poissons Ratio (z) = 0.12453 0.73793
#
# Static dielectric constant tensor:
#      x y z
#    x 1.844950 0.000000 0.000000 
#    y 0.000000 1.769860 0.000000 
#    z 0.000000 0.000000 1.792810 
# 
# From -- ./inp_files/69683.got.cif
#   From: 2010.05.17/outbox.cif.g08.bks.cpg/sg65_35_cif.got.tgz:69683.got - 2010.06.03 17:01:31.
