data_PCOD9484052
_publ_section_title
;
Structure prediction by ZEFSAII (Michael W. Deem and Ramdas Pophale) SiO2 
 PCOD9484052
Probable space group: C M M M
;
_chemical_formula_sum "Si O2"
_cell_formula_units_Z 88
_cell_length_a 11.169183
_cell_length_b 30.816562
_cell_length_c 13.902228
_cell_angle_alpha 90.000000
_cell_angle_beta 90.000000
_cell_angle_gamma 90.000000
_cell_volume 4785.088772
_symmetry_space_group_name_H-M "C M M M"
_symmetry_group_IT_number 65
_symmetry_cell_setting 'orthorhombic'
loop_
_space_group_symop_operation_xyz
x,y,z
-x,-y,z
x,-y,-z
-x,y,-z
-x,-y,-z
x,y,-z
-x,y,z
x,-y,z
1/2+x,1/2+y,z
1/2-x,1/2-y,z
1/2+x,1/2-y,-z
1/2-x,1/2+y,-z
1/2-x,1/2-y,-z
1/2+x,1/2+y,-z
1/2-x,1/2+y,z
1/2+x,1/2-y,z
loop_
_atom_site_type_symbol
_atom_site_label
_atom_site_fract_x
_atom_site_fract_y
_atom_site_fract_z
Si Si1 0.859147 0.000000 0.107461
Si Si2 0.000000 0.632801 0.387957
Si Si3 0.860069 0.166161 0.109998
Si Si4 0.000000 0.448256 0.731419
Si Si5 0.364444 0.720718 0.701765
Si Si6 0.733572 0.363065 0.613569
Si Si7 0.254947 0.416776 0.791842
O O1 0.823554 0.042935 0.164158
O O2 0.000000 0.000000 0.097766
O O3 0.804333 0.000000 0.000000
O O4 0.870617 0.649475 0.353747
O O5 0.000000 0.641436 0.500000
O O6 0.000000 0.581211 0.365128
O O7 0.849267 0.204447 0.187913
O O8 0.779600 0.125971 0.144815
O O9 0.000000 0.151993 0.114550
O O10 0.833981 0.178477 0.000000
O O11 0.117948 0.432220 0.786223
O O12 0.000000 0.500000 0.717247
O O13 0.500000 0.738686 0.689781
O O14 0.250000 0.750000 0.676672
O O15 0.350957 0.677074 0.638511
O O16 0.733040 0.372794 0.500000
O O17 0.704435 0.403018 0.684015
#
# Coordination Sequence:
#
# PCOD9484052 Si02
#       7
#     8   8  16   8  16  16  16
#     4  11  22  35  54  78 101 131 179 231 271 313
#     4   8  16  31  54  80 102 138 186 224 260 307
#     4   9  18  36  59  79 103 139 183 225 267 319
#     4  10  18  31  48  72 112 148 170 216 270 318
#     4  10  22  37  57  84 112 143 176 220 275 327
#     4   9  19  36  57  80 108 142 181 220 263 318
#     4  10  19  34  54  77 107 142 179 219 269 316
#
# _framework density 18.390463
#
# number of rings (size 3 to 8) (size 9 to 14) (size 15 to 20)
#    0.000    2.455    0.909    1.091    1.273    3.455 
#    1.636    2.727    0.000    0.545    0.000    0.000 
#    0.000    0.000    0.000    0.000    0.000    0.000 
#
# Total GULP energy -245018.210739 kJ/mol
# GULP energy per Si atom -5568.595699 kJ/mol
# Density = 1.834861 g / cm^3
# Si number density = 18.390463 Si / 1000 Ang^3
#
#
#
# Elastic Constant Matrix: (Units=GPa)
#
#
# Indices 1 2 3 4 5 6 
#
# 1 67.9677 38.0922 15.2449 0.0000 0.0000 0.0000
# 2 38.0922 54.7459 13.1261 0.0000 0.0000 0.0000
# 3 15.2449 13.1261 92.9756 0.0000 0.0000 0.0000
# 4 0.0000 0.0000 0.0000 5.1836 0.0000 0.0000
# 5 0.0000 0.0000 0.0000 0.0000 22.1640 0.0000
# 6 0.0000 0.0000 0.0000 0.0000 0.0000 22.7188
#
#
#
# Elastic Compliance Matrix: (Units=1/GPa)
#
#
# Indices 1 2 3 4 5 6 
#
# 1 0.024362 -0.016554 -0.001658 0.000000 0.000000 0.000000
# 2 -0.016554 0.030154 -0.001543 0.000000 0.000000 0.000000
# 3 -0.001658 -0.001543 0.011245 0.000000 0.000000 0.000000
# 4 0.000000 0.000000 0.000000 0.192915 0.000000 0.000000
# 5 0.000000 0.000000 0.000000 0.000000 0.045118 0.000000
# 6 0.000000 0.000000 0.000000 0.000000 0.000000 0.044016
#
#
# Mechanical properties :
#
#
# Convention : Reuss Voigt Hill
#
# Bulk Modulus (GPa) = 38.09065 38.73507 38.41286
# Shear Modulus (GPa) = 12.62400 19.96167 16.29284
#
# Velocity S-wave (km/s) = 2.62285 3.29817 2.97970
# Velocity P-wave (km/s) = 5.47079 5.96760 5.72459
#
# Compressibility (1/GPa) = 0.02625316
#
# Stress axis : x y z
#
# Youngs Moduli (GPa) = 41.04731 33.16285 88.92759
#
# Poissons Ratio (x) = 0.54897 0.14740
# Poissons Ratio (y) = 0.67949 0.13720
# Poissons Ratio (z) = 0.06804 0.05116
#
# Static dielectric constant tensor:
#      x y z
#    x 1.696220 0.000000 0.000000 
#    y 0.000000 1.616790 0.000000 
#    z 0.000000 0.000000 1.642790 
# 
# From -- ./inp_files/38685.got.cif
#   From: 2010.05.17/outbox.cif.g08.bks.cpg/sg65_20_cif.got.tgz:38685.got - 2010.06.03 17:01:31.
