data_PCOD9484136
_publ_section_title
;
Structure prediction by ZEFSAII (Michael W. Deem and Ramdas Pophale) SiO2 
 PCOD9484136
Probable space group: C M M M
;
_chemical_formula_sum "Si O2"
_cell_formula_units_Z 72
_cell_length_a 20.514079
_cell_length_b 19.567525
_cell_length_c 10.818313
_cell_angle_alpha 90.000000
_cell_angle_beta 90.000000
_cell_angle_gamma 90.000000
_cell_volume 4342.576357
_symmetry_space_group_name_H-M "C M M M"
_symmetry_group_IT_number 65
_symmetry_cell_setting 'orthorhombic'
loop_
_space_group_symop_operation_xyz
x,y,z
-x,-y,z
x,-y,-z
-x,y,-z
-x,-y,-z
x,y,-z
-x,y,z
x,-y,z
1/2+x,1/2+y,z
1/2-x,1/2-y,z
1/2+x,1/2-y,-z
1/2-x,1/2+y,-z
1/2-x,1/2-y,-z
1/2+x,1/2+y,-z
1/2-x,1/2+y,z
1/2+x,1/2-y,z
loop_
_atom_site_type_symbol
_atom_site_label
_atom_site_fract_x
_atom_site_fract_y
_atom_site_fract_z
Si Si1 0.321366 0.779656 0.145855
Si Si2 0.576983 0.674449 0.234174
Si Si3 0.837923 0.077666 0.636748
Si Si4 0.078092 0.922533 0.000000
Si Si5 0.734621 0.078520 0.142080
O O1 0.250000 0.750000 0.182072
O O2 0.379240 0.741411 0.215229
O O3 0.317484 0.861292 0.160338
O O4 0.329181 0.764714 0.000000
O O5 0.500000 0.687574 0.237198
O O6 0.604542 0.631767 0.348588
O O7 0.592116 0.622946 0.119709
O O8 0.807637 0.084040 0.500000
O O9 0.786890 0.087350 0.748414
O O10 0.863172 0.000000 0.648652
O O11 0.000000 0.930366 0.000000
O O12 0.106191 0.000000 0.000000
O O13 0.711373 0.000000 0.148346
O O14 0.760471 0.088677 0.000000
#
# Coordination Sequence:
#
# PCOD9484136 Si02
#       5
#    16  16  16   8  16
#     4  10  18  31  51  77 105 132 167 217 266 302
#     4  11  21  33  49  73 104 139 174 208 252 307
#     4  10  21  35  51  75 108 142 173 209 258 310
#     4   9  18  30  45  70 101 131 167 206 239 287
#     4   9  18  33  55  78 101 134 177 219 258 306
#
# _framework density 16.580019
#
# number of rings (size 3 to 8) (size 9 to 14) (size 15 to 20)
#    0.000    2.111    3.333    0.667    1.556    1.778 
#    0.000    3.333    0.000    0.667    0.000    3.111 
#    0.000    0.000    0.000    7.556    0.000    5.556 
#
# Total GULP energy -200578.407828 kJ/mol
# GULP energy per Si atom -5571.622440 kJ/mol
# Density = 1.654228 g / cm^3
# Si number density = 16.580019 Si / 1000 Ang^3
#
#
#
# Elastic Constant Matrix: (Units=GPa)
#
#
# Indices 1 2 3 4 5 6 
#
# 1 80.5035 65.4435 33.6337 0.0000 0.0000 0.0000
# 2 65.4435 121.2167 39.2466 0.0000 0.0000 0.0000
# 3 33.6337 39.2466 78.6908 0.0000 0.0000 0.0000
# 4 0.0000 0.0000 0.0000 10.3358 0.0000 0.0000
# 5 0.0000 0.0000 0.0000 0.0000 10.1523 0.0000
# 6 0.0000 0.0000 0.0000 0.0000 0.0000 24.8837
#
#
#
# Elastic Compliance Matrix: (Units=1/GPa)
#
#
# Indices 1 2 3 4 5 6 
#
# 1 0.023351 -0.011181 -0.004404 0.000000 0.000000 0.000000
# 2 -0.011181 0.015192 -0.002798 0.000000 0.000000 0.000000
# 3 -0.004404 -0.002798 0.015986 0.000000 0.000000 0.000000
# 4 0.000000 0.000000 0.000000 0.096751 0.000000 0.000000
# 5 0.000000 0.000000 0.000000 0.000000 0.098500 0.000000
# 6 0.000000 0.000000 0.000000 0.000000 0.000000 0.040187
#
#
# Mechanical properties :
#
#
# Convention : Reuss Voigt Hill
#
# Bulk Modulus (GPa) = 56.29783 61.89539 59.09661
# Shear Modulus (GPa) = 15.03059 18.54684 16.78871
#
# Velocity S-wave (km/s) = 3.01416 3.34822 3.18557
# Velocity P-wave (km/s) = 6.79283 7.23600 7.01791
#
# Compressibility (1/GPa) = 0.01776267
#
# Stress axis : x y z
#
# Youngs Moduli (GPa) = 42.82409 65.82328 62.55523
#
# Poissons Ratio (x) = 0.73598 0.27551
# Poissons Ratio (y) = 0.47882 0.17503
# Poissons Ratio (z) = 0.18861 0.18417
#
# Static dielectric constant tensor:
#      x y z
#    x 1.544200 0.000000 0.000000 
#    y 0.000000 1.582630 0.000000 
#    z 0.000000 0.000000 1.592360 
# 
# From -- ./inp_files/13761.got.cif
#   From: 2010.05.17/outbox.cif.g08.bks.cpg/sg65_7_cif.got.tgz:13761.got - 2010.06.03 17:01:31.
