data_PCOD9484416
_publ_section_title
;
Structure prediction by ZEFSAII (Michael W. Deem and Ramdas Pophale) SiO2 
 PCOD9484416
Probable space group: C M M M
;
_chemical_formula_sum "Si O2"
_cell_formula_units_Z 104
_cell_length_a 24.129235
_cell_length_b 27.245994
_cell_length_c 8.174835
_cell_angle_alpha 90.000000
_cell_angle_beta 90.000000
_cell_angle_gamma 90.000000
_cell_volume 5374.340835
_symmetry_space_group_name_H-M "C M M M"
_symmetry_group_IT_number 65
_symmetry_cell_setting 'orthorhombic'
loop_
_space_group_symop_operation_xyz
x,y,z
-x,-y,z
x,-y,-z
-x,y,-z
-x,-y,-z
x,y,-z
-x,y,z
x,-y,z
1/2+x,1/2+y,z
1/2-x,1/2-y,z
1/2+x,1/2-y,-z
1/2-x,1/2+y,-z
1/2-x,1/2-y,-z
1/2+x,1/2+y,-z
1/2-x,1/2+y,z
1/2+x,1/2-y,z
loop_
_atom_site_type_symbol
_atom_site_label
_atom_site_fract_x
_atom_site_fract_y
_atom_site_fract_z
Si Si1 0.137434 0.590436 0.196761
Si Si2 0.937999 0.677411 0.302802
Si Si3 0.934139 0.943466 0.685544
Si Si4 0.062924 0.500000 0.200268
Si Si5 0.562045 0.709684 0.696253
Si Si6 0.760003 0.057115 0.200706
Si Si7 0.645270 0.370454 0.182512
O O1 0.110857 0.641987 0.246444
O O2 0.095683 0.548085 0.254564
O O3 0.199173 0.575920 0.250895
O O4 0.138883 0.588844 0.000000
O O5 0.938356 0.677441 0.500000
O O6 0.931110 0.733923 0.248481
O O7 0.000000 0.660816 0.248114
O O8 0.920632 0.926335 0.500000
O O9 0.903567 0.910512 0.814257
O O10 0.000000 0.941102 0.701580
O O11 0.917345 0.000000 0.699832
O O12 0.000000 0.500000 0.256193
O O13 0.062887 0.500000 0.000000
O O14 0.559513 0.709818 0.500000
O O15 0.500000 0.692487 0.752751
O O16 0.614321 0.676377 0.742531
O O17 0.804552 0.097722 0.259142
O O18 0.769130 0.000000 0.251707
O O19 0.762753 0.056431 0.000000
O O20 0.662723 0.356871 0.000000
#
# Coordination Sequence:
#
# PCOD9484416 Si02
#       7
#    16  16  16   8  16  16  16
#     4  10  18  32  55  79 104 137 175 212 248 297
#     4   9  19  36  56  78 106 137 166 205 263 320
#     4   9  18  32  48  67  95 131 168 208 260 321
#     4   9  16  26  47  81 109 127 160 207 248 294
#     4   9  19  37  57  74  99 138 176 210 259 322
#     4   9  18  34  52  72 104 145 178 207 253 308
#     4  11  21  31  49  76 102 131 173 222 265 302
#
# _framework density 19.351209000000001
#
# number of rings (size 3 to 8) (size 9 to 14) (size 15 to 20)
#    0.000    2.538    0.769    3.231    0.000    4.923 
#    0.000    5.000    0.000    7.846    0.000    0.000 
#    0.000    0.000    0.000    0.000    0.000    0.000 
#
# Total GULP energy -289768.203824 kJ/mol
# GULP energy per Si atom -5572.465458 kJ/mol
# Density = 1.930716 g / cm^3
# Si number density = 19.351209 Si / 1000 Ang^3
#
#
#
# Elastic Constant Matrix: (Units=GPa)
#
#
# Indices 1 2 3 4 5 6 
#
# 1 120.8347 84.6022 11.3682 0.0000 0.0000 0.0000
# 2 84.6022 113.6035 10.0230 0.0000 0.0000 0.0000
# 3 11.3682 10.0230 7.4196 0.0000 0.0000 0.0000
# 4 0.0000 0.0000 0.0000 26.7374 0.0000 0.0000
# 5 0.0000 0.0000 0.0000 0.0000 11.8479 0.0000
# 6 0.0000 0.0000 0.0000 0.0000 0.0000 34.6423
#
#
#
# Elastic Compliance Matrix: (Units=1/GPa)
#
#
# Indices 1 2 3 4 5 6 
#
# 1 0.018019 -0.012469 -0.010764 0.000000 0.000000 0.000000
# 2 -0.012469 0.018622 -0.006052 0.000000 0.000000 0.000000
# 3 -0.010764 -0.006052 0.159446 0.000000 0.000000 0.000000
# 4 0.000000 0.000000 0.000000 0.037401 0.000000 0.000000
# 5 0.000000 0.000000 0.000000 0.000000 0.084403 0.000000
# 6 0.000000 0.000000 0.000000 0.000000 0.000000 0.028866
#
#
# Mechanical properties :
#
#
# Convention : Reuss Voigt Hill
#
# Bulk Modulus (GPa) = 7.27178 50.42716 28.84947
# Shear Modulus (GPa) = 11.08241 23.70313 17.39277
#
# Velocity S-wave (km/s) = 2.39571 3.50364 3.00124
# Velocity P-wave (km/s) = 3.37913 6.51789 5.19140
#
# Compressibility (1/GPa) = 0.13751791
#
# Stress axis : x y z
#
# Youngs Moduli (GPa) = 55.49816 53.69875 6.27173
#
# Poissons Ratio (x) = 0.66957 0.06751
# Poissons Ratio (y) = 0.69201 0.03796
# Poissons Ratio (z) = 0.59736 0.32497
#
# Static dielectric constant tensor:
#      x y z
#    x 1.682470 0.000000 0.000000 
#    y 0.000000 1.679850 0.000000 
#    z 0.000000 0.000000 1.731210 
# 
# From -- ./inp_files/14746.got.cif
#   From: 2010.05.17/outbox.cif.g08.bks.cpg/sg65_8_cif.got.tgz:14746.got - 2010.06.03 17:01:31.
