data_PCOD9484745
_publ_section_title
;
Structure prediction by ZEFSAII (Michael W. Deem and Ramdas Pophale) SiO2 
 PCOD9484745
Probable space group: C M M M
;
_chemical_formula_sum "Si O2"
_cell_formula_units_Z 104
_cell_length_a 8.950690
_cell_length_b 28.321844
_cell_length_c 27.079050
_cell_angle_alpha 90.000000
_cell_angle_beta 90.000000
_cell_angle_gamma 90.000000
_cell_volume 6864.540417
_symmetry_space_group_name_H-M "C M M M"
_symmetry_group_IT_number 65
_symmetry_cell_setting 'orthorhombic'
loop_
_space_group_symop_operation_xyz
x,y,z
-x,-y,z
x,-y,-z
-x,y,-z
-x,-y,-z
x,y,-z
-x,y,z
x,-y,z
1/2+x,1/2+y,z
1/2-x,1/2-y,z
1/2+x,1/2-y,-z
1/2-x,1/2+y,-z
1/2-x,1/2-y,-z
1/2+x,1/2+y,-z
1/2-x,1/2+y,z
1/2+x,1/2-y,z
loop_
_atom_site_type_symbol
_atom_site_label
_atom_site_fract_x
_atom_site_fract_y
_atom_site_fract_z
Si Si1 0.681618 0.447062 0.297471
Si Si2 0.821335 0.444397 0.896981
Si Si3 0.180354 0.105041 0.803232
Si Si4 0.180336 0.145555 0.353374
Si Si5 0.320529 0.699285 0.747332
Si Si6 0.828282 0.942737 0.000000
Si Si7 0.678275 0.801427 0.443192
O O1 0.500000 0.447645 0.298336
O O2 0.735558 0.500000 0.306791
O O3 0.722436 0.428732 0.242865
O O4 0.726931 0.406921 0.336322
O O5 0.781321 0.500000 0.889408
O O6 0.755400 0.413675 0.852630
O O7 0.000000 0.441286 0.898289
O O8 0.754327 0.428847 0.949661
O O9 0.221731 0.158002 0.785952
O O10 0.000000 0.103293 0.808202
O O11 0.219760 0.179861 0.307327
O O12 0.255280 0.163179 0.403143
O O13 0.000000 0.146529 0.358234
O O14 0.500000 0.702994 0.748482
O O15 0.250000 0.750000 0.756778
O O16 0.000000 0.073095 0.000000
O O17 0.827646 0.000000 0.000000
O O18 0.712313 0.814904 0.500000
O O19 0.500000 0.798019 0.437954
O O20 0.750000 0.750000 0.434554
#
# Coordination Sequence:
#
# PCOD9484745 Si02
#       7
#    16  16  16  16  16   8  16
#     4   8  14  26  45  67  90 117 149 183 215 250
#     4  10  19  29  42  64  94 121 146 182 224 260
#     4   9  17  29  45  65  88 117 152 182 212 257
#     4   9  17  29  46  68  91 115 145 180 218 259
#     4   9  18  30  44  65  91 117 146 180 217 259
#     4   9  17  29  45  63  84 117 156 185 215 259
#     4  10  20  32  46  65  88 113 142 177 219 266
#
# _framework density 15.150321999999999
#
# number of rings (size 3 to 8) (size 9 to 14) (size 15 to 20)
#    0.000    2.846    0.000    3.923    0.000    5.846 
#    0.000    2.308    0.000    1.846    0.000    3.769 
#    0.000    0.000    0.000    0.000    0.000    0.000 
#
# Total GULP energy -289779.142736 kJ/mol
# GULP energy per Si atom -5572.675822 kJ/mol
# Density = 1.511584 g / cm^3
# Si number density = 15.150322 Si / 1000 Ang^3
#
#
#
# Elastic Constant Matrix: (Units=GPa)
#
#
# Indices 1 2 3 4 5 6 
#
# 1 35.5891 38.9776 49.5698 0.0000 0.0000 0.0000
# 2 38.9776 122.0875 83.6247 0.0000 0.0000 0.0000
# 3 49.5698 83.6247 143.0224 0.0000 0.0000 0.0000
# 4 0.0000 0.0000 0.0000 22.9281 0.0000 0.0000
# 5 0.0000 0.0000 0.0000 0.0000 23.2580 0.0000
# 6 0.0000 0.0000 0.0000 0.0000 0.0000 21.5472
#
#
#
# Elastic Compliance Matrix: (Units=1/GPa)
#
#
# Indices 1 2 3 4 5 6 
#
# 1 0.058671 -0.008011 -0.015650 0.000000 0.000000 0.000000
# 2 -0.008011 0.014757 -0.005851 0.000000 0.000000 0.000000
# 3 -0.015650 -0.005851 0.015837 0.000000 0.000000 0.000000
# 4 0.000000 0.000000 0.000000 0.043615 0.000000 0.000000
# 5 0.000000 0.000000 0.000000 0.000000 0.042996 0.000000
# 6 0.000000 0.000000 0.000000 0.000000 0.000000 0.046410
#
#
# Mechanical properties :
#
#
# Convention : Reuss Voigt Hill
#
# Bulk Modulus (GPa) = 33.07028 71.67148 52.37088
# Shear Modulus (GPa) = 17.15901 22.11513 19.63707
#
# Velocity S-wave (km/s) = 3.36904 3.82476 3.60411
# Velocity P-wave (km/s) = 6.08353 8.18014 7.20847
#
# Compressibility (1/GPa) = 0.03023863
#
# Stress axis : x y z
#
# Youngs Moduli (GPa) = 17.04408 67.76641 63.14129
#
# Poissons Ratio (x) = 0.54291 0.98819
# Poissons Ratio (y) = 0.13655 0.36947
# Poissons Ratio (z) = 0.26675 0.39653
#
# Static dielectric constant tensor:
#      x y z
#    x 1.507670 0.000000 0.000000 
#    y 0.000000 1.495660 0.000000 
#    z 0.000000 0.000000 1.486460 
# 
# From -- ./inp_files/68151.got.cif
#   From: 2010.05.17/outbox.cif.g08.bks.cpg/sg65_35_cif.got.tgz:68151.got - 2010.06.03 17:01:31.
