data_PCOD9484115
_publ_section_title
;
Structure prediction by ZEFSAII (Michael W. Deem and Ramdas Pophale) SiO2 
 PCOD9484115
Probable space group: C M M M
;
_chemical_formula_sum "Si O2"
_cell_formula_units_Z 96
_cell_length_a 14.770653
_cell_length_b 32.201980
_cell_length_c 11.119935
_cell_angle_alpha 90.000000
_cell_angle_beta 90.000000
_cell_angle_gamma 90.000000
_cell_volume 5289.133393
_symmetry_space_group_name_H-M "C M M M"
_symmetry_group_IT_number 65
_symmetry_cell_setting 'orthorhombic'
loop_
_space_group_symop_operation_xyz
x,y,z
-x,-y,z
x,-y,-z
-x,y,-z
-x,-y,-z
x,y,-z
-x,y,z
x,-y,z
1/2+x,1/2+y,z
1/2-x,1/2-y,z
1/2+x,1/2-y,-z
1/2-x,1/2+y,-z
1/2-x,1/2-y,-z
1/2+x,1/2+y,-z
1/2-x,1/2+y,z
1/2+x,1/2-y,z
loop_
_atom_site_type_symbol
_atom_site_label
_atom_site_fract_x
_atom_site_fract_y
_atom_site_fract_z
Si Si1 0.766880 0.203978 0.141599
Si Si2 0.101559 0.344723 0.763587
Si Si3 0.391909 0.874761 0.500000
Si Si4 0.894932 0.870731 0.854771
Si Si5 0.400433 0.061417 0.143255
Si Si6 0.201810 0.954329 0.763117
Si Si7 0.736962 0.953574 0.500000
O O1 0.750000 0.250000 0.194070
O O2 0.671862 0.181573 0.162119
O O3 0.841274 0.170677 0.188689
O O4 0.787445 0.209138 0.000000
O O5 0.129072 0.350764 0.623804
O O6 0.100022 0.390167 0.822617
O O7 0.000000 0.327474 0.766989
O O8 0.500000 0.882604 0.500000
O O9 0.337910 0.917800 0.500000
O O10 0.845956 0.913630 0.816554
O O11 0.000000 0.870459 0.816924
O O12 0.892113 0.869864 0.000000
O O13 0.500000 0.045909 0.184029
O O14 0.307960 0.045052 0.199633
O O15 0.395725 0.055552 0.000000
O O16 0.203383 0.950020 0.619440
O O17 0.163643 0.000000 0.797133
O O18 0.695937 0.000000 0.500000
#
# Coordination Sequence:
#
# PCOD9484115 Si02
#       7
#    16  16   8  16  16  16   8
#     4  10  20  35  57  84 112 142 176 218 275 335
#     4  10  19  32  53  79 108 141 178 218 263 321
#     4  10  18  31  51  74 103 145 186 219 262 317
#     4  10  21  38  58  80 109 143 182 229 276 324
#     4  10  19  31  50  76 107 143 178 215 267 325
#     4  11  22  36  55  78 108 146 187 230 276 325
#     4  10  20  33  51  75 104 140 184 232 275 316
#
# _framework density 18.150421999999999
#
# number of rings (size 3 to 8) (size 9 to 14) (size 15 to 20)
#    0.000    1.833    3.333    1.000    0.000    3.833 
#    0.000    5.833    0.000    1.500    0.000    0.000 
#    0.000    0.000    0.000    0.000    0.000    0.000 
#
# Total GULP energy -267472.446141 kJ/mol
# GULP energy per Si atom -5572.342628 kJ/mol
# Density = 1.810911 g / cm^3
# Si number density = 18.150422 Si / 1000 Ang^3
#
#
#
# Elastic Constant Matrix: (Units=GPa)
#
#
# Indices 1 2 3 4 5 6 
#
# 1 91.0048 55.5250 10.3446 0.0000 0.0000 0.0000
# 2 55.5250 125.7012 3.7430 0.0000 0.0000 0.0000
# 3 10.3446 3.7430 29.1429 0.0000 0.0000 0.0000
# 4 0.0000 0.0000 0.0000 -11.5186 0.0000 0.0000
# 5 0.0000 0.0000 0.0000 0.0000 12.4424 0.0000
# 6 0.0000 0.0000 0.0000 0.0000 0.0000 -11.2518
#
#
#
# Elastic Compliance Matrix: (Units=1/GPa)
#
#
# Indices 1 2 3 4 5 6 
#
# 1 0.015655 -0.006776 -0.004687 0.000000 0.000000 0.000000
# 2 -0.006776 0.010919 0.001003 0.000000 0.000000 0.000000
# 3 -0.004687 0.001003 0.035849 0.000000 0.000000 0.000000
# 4 0.000000 0.000000 0.000000 -0.086816 0.000000 0.000000
# 5 0.000000 0.000000 0.000000 0.000000 0.080370 0.000000
# 6 0.000000 0.000000 0.000000 0.000000 0.000000 -0.088875
#
#
# Mechanical properties :
#
#
# Convention : Reuss Voigt Hill
#
# Bulk Modulus (GPa) = 24.09469 42.78602 33.44036
# Shear Modulus (GPa) = 2695.13077 9.68349 1352.40713
#
# Velocity S-wave (km/s) = 38.57602 2.31230 27.32633
# Velocity P-wave (km/s) = 44.69284 5.54555 31.84496
#
# Compressibility (1/GPa) = 0.04150292
#
# Stress axis : x y z
#
# Youngs Moduli (GPa) = 63.87625 91.58766 27.89513
#
# Poissons Ratio (x) = 0.62057 0.13074
# Poissons Ratio (y) = 0.43281 -0.02797
# Poissons Ratio (z) = 0.29937 -0.09184
#
# Static dielectric constant tensor:
#      x y z
#    x 1.629130 0.000000 0.000000 
#    y 0.000000 1.649610 0.000000 
#    z 0.000000 0.000000 1.632840 
# 
# From -- ./inp_files/25478.got.cif
#   From: 2010.05.17/outbox.cif.g08.bks.cpg/sg65_13_cif.got.tgz:25478.got - 2010.06.03 17:01:31.
