data_PCOD9484964
_publ_section_title
;
Structure prediction by ZEFSAII (Michael W. Deem and Ramdas Pophale) SiO2 
 PCOD9484964
Probable space group: C M M M
;
_chemical_formula_sum "Si O2"
_cell_formula_units_Z 72
_cell_length_a 7.488859
_cell_length_b 18.897881
_cell_length_c 26.424370
_cell_angle_alpha 90.000000
_cell_angle_beta 90.000000
_cell_angle_gamma 90.000000
_cell_volume 3739.671077
_symmetry_space_group_name_H-M "C M M M"
_symmetry_group_IT_number 65
_symmetry_cell_setting 'orthorhombic'
loop_
_space_group_symop_operation_xyz
x,y,z
-x,-y,z
x,-y,-z
-x,y,-z
-x,-y,-z
x,y,-z
-x,y,z
x,-y,z
1/2+x,1/2+y,z
1/2-x,1/2-y,z
1/2+x,1/2-y,-z
1/2-x,1/2+y,-z
1/2-x,1/2-y,-z
1/2+x,1/2+y,-z
1/2-x,1/2+y,z
1/2+x,1/2-y,z
loop_
_atom_site_type_symbol
_atom_site_label
_atom_site_fract_x
_atom_site_fract_y
_atom_site_fract_z
Si Si1 0.295696 0.413752 0.636774
Si Si2 0.500000 0.086400 0.442091
Si Si3 0.782293 0.082061 0.056484
Si Si4 0.281852 0.581735 0.748761
Si Si5 0.713768 0.332840 0.153761
O O1 0.500000 0.390646 0.630274
O O2 0.296067 0.500000 0.637854
O O3 0.170967 0.391421 0.590818
O O4 0.227872 0.393069 0.692712
O O5 0.500000 0.110568 0.500000
O O6 0.500000 0.000000 0.443120
O O7 0.718530 0.130035 0.102595
O O8 0.000000 0.083802 0.056380
O O9 0.731866 0.000000 0.064197
O O10 0.724669 0.103999 0.000000
O O11 0.500000 0.581892 0.747799
O O12 0.227479 0.500000 0.755997
O O13 0.219738 0.629081 0.795362
O O14 0.500000 0.342881 0.153814
O O15 0.750000 0.250000 0.154025
#
# Coordination Sequence:
#
# PCOD9484964 Si02
#       5
#    16   8  16  16  16
#     4   8  14  25  40  59  84 117 157 195 232 278
#     4   9  16  24  36  60  94 126 153 185 232 287
#     4   8  14  26  46  69  88 113 157 202 231 266
#     4   8  14  27  47  64  80 114 159 195 227 270
#     4  10  19  30  44  65  94 121 146 189 239 286
#
# _framework density 19.253031
#
# number of rings (size 3 to 8) (size 9 to 14) (size 15 to 20)
#    0.000    3.444    0.000    2.667    0.000    3.556 
#    2.000    2.222    0.000    2.000    0.000    1.556 
#    0.000    0.889    0.444    0.000    0.000    0.000 
#
# Total GULP energy -200684.127617 kJ/mol
# GULP energy per Si atom -5574.559100 kJ/mol
# Density = 1.920921 g / cm^3
# Si number density = 19.253031 Si / 1000 Ang^3
#
#
#
# Elastic Constant Matrix: (Units=GPa)
#
#
# Indices 1 2 3 4 5 6 
#
# 1 68.0238 12.7321 52.7692 0.0000 0.0000 0.0000
# 2 12.7321 58.0616 85.3577 0.0000 0.0000 0.0000
# 3 52.7692 85.3577 246.5863 0.0000 0.0000 0.0000
# 4 0.0000 0.0000 0.0000 -2.6686 0.0000 0.0000
# 5 0.0000 0.0000 0.0000 0.0000 -55.0549 0.0000
# 6 0.0000 0.0000 0.0000 0.0000 0.0000 12.8573
#
#
#
# Elastic Compliance Matrix: (Units=1/GPa)
#
#
# Indices 1 2 3 4 5 6 
#
# 1 0.017967 0.003487 -0.005052 0.000000 0.000000 0.000000
# 2 0.003487 0.035747 -0.013120 0.000000 0.000000 0.000000
# 3 -0.005052 -0.013120 0.009678 0.000000 0.000000 0.000000
# 4 0.000000 0.000000 0.000000 -0.374729 0.000000 0.000000
# 5 0.000000 0.000000 0.000000 0.000000 -0.018164 0.000000
# 6 0.000000 0.000000 0.000000 0.000000 0.000000 0.077777
#
#
# Mechanical properties :
#
#
# Convention : Reuss Voigt Hill
#
# Bulk Modulus (GPa) = 29.39275 74.93217 52.16246
# Shear Modulus (GPa) = -23.69530 5.81427 -8.94052
#
# Velocity S-wave (km/s) = -3.51198 1.73968 -2.15726
# Velocity P-wave (km/s) = 1.07036 6.56045 4.57678
#
# Compressibility (1/GPa) = 0.03402200
#
# Stress axis : x y z
#
# Youngs Moduli (GPa) = 55.65702 27.97444 103.32472
#
# Poissons Ratio (x) = -0.09755 0.52201
# Poissons Ratio (y) = -0.19409 1.35566
# Poissons Ratio (z) = 0.28119 0.36703
#
# Static dielectric constant tensor:
#      x y z
#    x 1.786270 0.000000 0.000000 
#    y 0.000000 1.616480 0.000000 
#    z 0.000000 0.000000 1.678280 
# 
# From -- ./inp_files/67081.got.cif
#   From: 2010.05.17/outbox.cif.g08.bks.cpg/sg65_34_cif.got.tgz:67081.got - 2010.06.03 17:01:31.
