data_PCOD9484407
_publ_section_title
;
Structure prediction by ZEFSAII (Michael W. Deem and Ramdas Pophale) SiO2 
 PCOD9484407
Probable space group: C M M M
;
_chemical_formula_sum "Si O2"
_cell_formula_units_Z 64
_cell_length_a 28.440614
_cell_length_b 8.500386
_cell_length_c 13.453837
_cell_angle_alpha 90.000000
_cell_angle_beta 90.000000
_cell_angle_gamma 90.000000
_cell_volume 3252.548469
_symmetry_space_group_name_H-M "C M M M"
_symmetry_group_IT_number 65
_symmetry_cell_setting 'orthorhombic'
loop_
_space_group_symop_operation_xyz
x,y,z
-x,-y,z
x,-y,-z
-x,y,-z
-x,-y,-z
x,y,-z
-x,y,z
x,-y,z
1/2+x,1/2+y,z
1/2-x,1/2-y,z
1/2+x,1/2-y,-z
1/2-x,1/2+y,-z
1/2-x,1/2-y,-z
1/2+x,1/2+y,-z
1/2-x,1/2+y,z
1/2+x,1/2-y,z
loop_
_atom_site_type_symbol
_atom_site_label
_atom_site_fract_x
_atom_site_fract_y
_atom_site_fract_z
Si Si1 0.445322 0.311140 0.000000
Si Si2 0.108678 0.689230 0.193271
Si Si3 0.696933 0.687130 0.711604
Si Si4 0.055325 0.308992 0.390903
Si Si5 0.696347 0.812255 0.500000
O O1 0.418671 0.248731 0.902838
O O2 0.444290 0.500000 0.000000
O O3 0.500000 0.259935 0.000000
O O4 0.109434 0.500000 0.192931
O O5 0.161550 0.752713 0.204362
O O6 0.081668 0.746477 0.292780
O O7 0.698310 0.500000 0.707460
O O8 0.750000 0.750000 0.724541
O O9 0.677757 0.751630 0.605335
O O10 0.072330 0.254564 0.500000
O O11 0.059005 0.500000 0.391459
O O12 0.000000 0.271091 0.383616
O O13 0.750000 0.750000 0.500000
O O14 0.694702 0.000000 0.500000
#
# Coordination Sequence:
#
# PCOD9484407 Si02
#       5
#     8  16  16  16   8
#     4  11  25  45  66  89 122 163 207 259 313 363
#     4  11  22  37  62  92 120 158 207 256 309 370
#     4  11  22  38  58  86 124 165 207 254 308 367
#     4   8  15  29  51  83 120 153 188 237 297 360
#     4  10  18  32  54  82 117 160 207 252 300 354
#
# _framework density 19.676879
#
# number of rings (size 3 to 8) (size 9 to 14) (size 15 to 20)
#    0.000    1.875    0.000    7.500    1.750    2.000 
#    0.000    0.625    0.000    0.000    0.000    5.250 
#    0.000    0.000    0.000    0.000    0.000    0.000 
#
# Total GULP energy -178760.034884 kJ/mol
# GULP energy per Si atom -5586.251090 kJ/mol
# Density = 1.963209 g / cm^3
# Si number density = 19.676879 Si / 1000 Ang^3
#
#
#
# Elastic Constant Matrix: (Units=GPa)
#
#
# Indices 1 2 3 4 5 6 
#
# 1 130.9411 42.9656 98.0865 0.0000 0.0000 0.0000
# 2 42.9656 111.1646 46.9218 0.0000 0.0000 0.0000
# 3 98.0865 46.9218 157.7456 0.0000 0.0000 0.0000
# 4 0.0000 0.0000 0.0000 27.0892 0.0000 0.0000
# 5 0.0000 0.0000 0.0000 0.0000 39.4925 0.0000
# 6 0.0000 0.0000 0.0000 0.0000 0.0000 20.2741
#
#
#
# Elastic Compliance Matrix: (Units=1/GPa)
#
#
# Indices 1 2 3 4 5 6 
#
# 1 0.014707 -0.002086 -0.008524 0.000000 0.000000 0.000000
# 2 -0.002086 0.010583 -0.001851 0.000000 0.000000 0.000000
# 3 -0.008524 -0.001851 0.012190 0.000000 0.000000 0.000000
# 4 0.000000 0.000000 0.000000 0.036915 0.000000 0.000000
# 5 0.000000 0.000000 0.000000 0.000000 0.025321 0.000000
# 6 0.000000 0.000000 0.000000 0.000000 0.000000 0.049324
#
#
# Mechanical properties :
#
#
# Convention : Reuss Voigt Hill
#
# Bulk Modulus (GPa) = 79.63145 86.19991 82.91568
# Shear Modulus (GPa) = 28.06633 31.49632 29.78133
#
# Velocity S-wave (km/s) = 3.78082 4.00519 3.89462
# Velocity P-wave (km/s) = 7.72119 8.08032 7.90280
#
# Compressibility (1/GPa) = 0.01255785
#
# Stress axis : x y z
#
# Youngs Moduli (GPa) = 67.99454 94.48917 82.03274
#
# Poissons Ratio (x) = 0.19713 0.69927
# Poissons Ratio (y) = 0.14186 0.15182
# Poissons Ratio (z) = 0.57961 0.17488
#
# Static dielectric constant tensor:
#      x y z
#    x 1.706200 0.000000 0.000000 
#    y 0.000000 1.659260 0.000000 
#    z 0.000000 0.000000 1.692610 
# 
# From -- ./inp_files/33234.got.cif
#   From: 2010.05.17/outbox.cif.g08.bks.cpg/sg65_17_cif.got.tgz:33234.got - 2010.06.03 17:01:31.
