data_PCOD9484334
_publ_section_title
;
Structure prediction by ZEFSAII (Michael W. Deem and Ramdas Pophale) SiO2 
 PCOD9484334
Probable space group: C M M M
;
_chemical_formula_sum "Si O2"
_cell_formula_units_Z 88
_cell_length_a 8.825188
_cell_length_b 19.154980
_cell_length_c 29.463435
_cell_angle_alpha 90.000000
_cell_angle_beta 90.000000
_cell_angle_gamma 90.000000
_cell_volume 4980.684661
_symmetry_space_group_name_H-M "C M M M"
_symmetry_group_IT_number 65
_symmetry_cell_setting 'orthorhombic'
loop_
_space_group_symop_operation_xyz
x,y,z
-x,-y,z
x,-y,-z
-x,y,-z
-x,-y,-z
x,y,-z
-x,y,z
x,-y,z
1/2+x,1/2+y,z
1/2-x,1/2-y,z
1/2+x,1/2-y,-z
1/2-x,1/2+y,-z
1/2-x,1/2-y,-z
1/2+x,1/2+y,-z
1/2-x,1/2+y,z
1/2+x,1/2-y,z
loop_
_atom_site_type_symbol
_atom_site_label
_atom_site_fract_x
_atom_site_fract_y
_atom_site_fract_z
Si Si1 0.317803 0.328643 0.000000
Si Si2 0.819001 0.826911 0.551129
Si Si3 0.679676 0.917774 0.630715
Si Si4 0.681342 0.827917 0.093325
Si Si5 0.317396 0.582971 0.825846
Si Si6 0.824556 0.084773 0.275575
O O1 0.250000 0.250000 0.000000
O O2 0.253399 0.358963 0.953084
O O3 0.500000 0.327357 0.000000
O O4 0.777326 0.851131 0.500000
O O5 0.750000 0.750000 0.557014
O O6 0.758667 0.876627 0.590325
O O7 0.000000 0.822561 0.553547
O O8 0.500000 0.910619 0.626748
O O9 0.731849 0.892366 0.680516
O O10 0.718684 0.000000 0.627658
O O11 0.500000 0.823526 0.089087
O O12 0.750000 0.750000 0.098951
O O13 0.731919 0.874114 0.135829
O O14 0.500000 0.592273 0.829839
O O15 0.287618 0.500000 0.830163
O O16 0.273017 0.606347 0.774743
O O17 0.000000 0.105194 0.281329
O O18 0.820284 0.000000 0.274590
#
# Coordination Sequence:
#
# PCOD9484334 Si02
#       6
#     8  16  16  16  16  16
#     4  10  18  32  53  74  99 132 171 211 255 307
#     4  10  21  37  56  76 101 135 172 210 255 308
#     4  10  20  33  52  79 108 136 169 211 254 297
#     4  11  21  34  53  77 105 135 171 213 256 303
#     4   9  18  34  55  78 105 137 171 208 255 307
#     4   8  15  30  52  75 101 135 172 209 251 302
#
# _framework density 17.668253
#
# number of rings (size 3 to 8) (size 9 to 14) (size 15 to 20)
#    0.000    2.364    0.000    5.727    0.000    3.636 
#    0.000    5.000    0.000    7.091    0.000    0.000 
#    0.000    0.000    0.000    0.000    0.000    0.000 
#
# Total GULP energy -245378.091481 kJ/mol
# GULP energy per Si atom -5576.774806 kJ/mol
# Density = 1.762804 g / cm^3
# Si number density = 17.668253 Si / 1000 Ang^3
#
#
#
# Elastic Constant Matrix: (Units=GPa)
#
#
# Indices 1 2 3 4 5 6 
#
# 1 96.2477 42.8636 89.2068 0.0000 0.0000 0.0000
# 2 42.8636 35.8329 61.9126 0.0000 0.0000 0.0000
# 3 89.2068 61.9126 194.6595 0.0000 0.0000 0.0000
# 4 0.0000 0.0000 0.0000 39.5339 0.0000 0.0000
# 5 0.0000 0.0000 0.0000 0.0000 31.4429 0.0000
# 6 0.0000 0.0000 0.0000 0.0000 0.0000 24.3779
#
#
#
# Elastic Compliance Matrix: (Units=1/GPa)
#
#
# Indices 1 2 3 4 5 6 
#
# 1 0.023609 -0.021195 -0.004078 0.000000 0.000000 0.000000
# 2 -0.021195 0.080981 -0.016044 0.000000 0.000000 0.000000
# 3 -0.004078 -0.016044 0.012109 0.000000 0.000000 0.000000
# 4 0.000000 0.000000 0.000000 0.025295 0.000000 0.000000
# 5 0.000000 0.000000 0.000000 0.000000 0.031804 0.000000
# 6 0.000000 0.000000 0.000000 0.000000 0.000000 0.041021
#
#
# Mechanical properties :
#
#
# Convention : Reuss Voigt Hill
#
# Bulk Modulus (GPa) = 29.35507 79.41180 54.38343
# Shear Modulus (GPa) = 16.19145 27.92139 22.05642
#
# Velocity S-wave (km/s) = 3.03052 3.97963 3.53705
# Velocity P-wave (km/s) = 5.37550 8.13389 6.89406
#
# Compressibility (1/GPa) = 0.03406566
#
# Stress axis : x y z
#
# Youngs Moduli (GPa) = 42.35756 12.34861 82.58480
#
# Poissons Ratio (x) = 0.26172 0.33678
# Poissons Ratio (y) = 0.89775 1.32495
# Poissons Ratio (z) = 0.17274 0.19812
#
# Static dielectric constant tensor:
#      x y z
#    x 1.588600 0.000000 0.000000 
#    y 0.000000 1.583150 0.000000 
#    z 0.000000 0.000000 1.629680 
# 
# From -- ./inp_files/67520.got.cif
#   From: 2010.05.17/outbox.cif.g08.bks.cpg/sg65_34_cif.got.tgz:67520.got - 2010.06.03 17:01:31.
