data_PCOD9484516
_publ_section_title
;
Structure prediction by ZEFSAII (Michael W. Deem and Ramdas Pophale) SiO2 
 PCOD9484516
Probable space group: C M M M
;
_chemical_formula_sum "Si O2"
_cell_formula_units_Z 88
_cell_length_a 22.668737
_cell_length_b 24.369709
_cell_length_c 9.009153
_cell_angle_alpha 90.000000
_cell_angle_beta 90.000000
_cell_angle_gamma 90.000000
_cell_volume 4976.931113
_symmetry_space_group_name_H-M "C M M M"
_symmetry_group_IT_number 65
_symmetry_cell_setting 'orthorhombic'
loop_
_space_group_symop_operation_xyz
x,y,z
-x,-y,z
x,-y,-z
-x,y,-z
-x,-y,-z
x,y,-z
-x,y,z
x,-y,z
1/2+x,1/2+y,z
1/2-x,1/2-y,z
1/2+x,1/2-y,-z
1/2-x,1/2+y,-z
1/2-x,1/2-y,-z
1/2+x,1/2+y,-z
1/2-x,1/2+y,z
1/2+x,1/2-y,z
loop_
_atom_site_type_symbol
_atom_site_label
_atom_site_fract_x
_atom_site_fract_y
_atom_site_fract_z
Si Si1 0.728134 0.688982 0.679431
Si Si2 0.065242 0.735969 0.174741
Si Si3 0.097596 0.847792 0.320395
Si Si4 0.933107 0.565471 0.828668
Si Si5 0.500000 0.563833 0.319346
Si Si6 0.851629 0.647806 0.675853
O O1 0.723137 0.693671 0.500000
O O2 0.750000 0.750000 0.730575
O O3 0.665840 0.662878 0.728922
O O4 0.782907 0.649749 0.715651
O O5 0.066327 0.794034 0.256403
O O6 0.114415 0.697530 0.245288
O O7 0.000000 0.710969 0.193571
O O8 0.075594 0.743383 0.000000
O O9 0.096972 0.847050 0.500000
O O10 0.058699 0.901070 0.275115
O O11 0.927652 0.500000 0.827264
O O12 0.884974 0.593829 0.727977
O O13 0.000000 0.578698 0.781276
O O14 0.926362 0.584239 0.000000
O O15 0.500000 0.500000 0.269701
O O16 0.500000 0.562814 0.500000
O O17 0.856383 0.655593 0.500000
#
# Coordination Sequence:
#
# PCOD9484516 Si02
#       6
#    16  16  16  16   8  16
#     4   9  17  31  50  75 109 141 170 211 265 319
#     4  11  22  33  48  75 110 139 171 217 268 317
#     4  10  18  33  56  77 101 136 176 218 267 318
#     4   9  19  37  57  75 102 141 179 218 266 311
#     4   9  18  32  55  85 107 129 174 227 268 313
#     4  11  21  33  52  78 108 140 178 216 260 316
#
# _framework density 17.681577999999998
#
# number of rings (size 3 to 8) (size 9 to 14) (size 15 to 20)
#    0.000    2.091    2.727    2.182    0.000    4.000 
#    0.000    4.545    0.000    4.364    0.000    0.000 
#    0.000    0.000    0.000    0.000    0.000    0.000 
#
# Total GULP energy -245167.009629 kJ/mol
# GULP energy per Si atom -5571.977492 kJ/mol
# Density = 1.764133 g / cm^3
# Si number density = 17.681578 Si / 1000 Ang^3
#
#
#
# Elastic Constant Matrix: (Units=GPa)
#
#
# Indices 1 2 3 4 5 6 
#
# 1 162.3721 55.5487 31.4282 0.0000 0.0000 0.0000
# 2 55.5487 90.6461 12.2223 0.0000 0.0000 0.0000
# 3 31.4282 12.2223 15.0496 0.0000 0.0000 0.0000
# 4 0.0000 0.0000 0.0000 -6.8716 0.0000 0.0000
# 5 0.0000 0.0000 0.0000 0.0000 42.8158 0.0000
# 6 0.0000 0.0000 0.0000 0.0000 0.0000 -234.9028
#
#
#
# Elastic Compliance Matrix: (Units=1/GPa)
#
#
# Indices 1 2 3 4 5 6 
#
# 1 0.011686 -0.004347 -0.020874 0.000000 0.000000 0.000000
# 2 -0.004347 0.014005 -0.002297 0.000000 0.000000 0.000000
# 3 -0.020874 -0.002297 0.111904 0.000000 0.000000 0.000000
# 4 0.000000 0.000000 0.000000 -0.145527 0.000000 0.000000
# 5 0.000000 0.000000 0.000000 0.000000 0.023356 0.000000
# 6 0.000000 0.000000 0.000000 0.000000 0.000000 -0.004257
#
#
# Mechanical properties :
#
#
# Convention : Reuss Voigt Hill
#
# Bulk Modulus (GPa) = 12.11237 51.82957 31.97097
# Shear Modulus (GPa) = 53.34880 -28.53382 12.40749
#
# Velocity S-wave (km/s) = 5.49886 -4.02152 2.65187
# Velocity P-wave (km/s) = 6.86890 2.79515 5.24379
#
# Compressibility (1/GPa) = 0.08256022
#
# Stress axis : x y z
#
# Youngs Moduli (GPa) = 85.57203 71.40134 8.93623
#
# Poissons Ratio (x) = 0.31037 0.18654
# Poissons Ratio (y) = 0.37196 0.02052
# Poissons Ratio (z) = 1.78623 0.16399
#
# Static dielectric constant tensor:
#      x y z
#    x 1.646060 0.000000 0.000000 
#    y 0.000000 1.612150 0.000000 
#    z 0.000000 0.000000 1.584490 
# 
# From -- ./inp_files/11828.got.cif
#   From: 2010.05.17/outbox.cif.g08.bks.cpg/sg65_6_cif.got.tgz:11828.got - 2010.06.03 17:01:31.
