data_PCOD9484437
_publ_section_title
;
Structure prediction by ZEFSAII (Michael W. Deem and Ramdas Pophale) SiO2 
 PCOD9484437
Probable space group: C M M M
;
_chemical_formula_sum "Si O2"
_cell_formula_units_Z 104
_cell_length_a 14.171577
_cell_length_b 18.544213
_cell_length_c 17.759918
_cell_angle_alpha 90.000000
_cell_angle_beta 90.000000
_cell_angle_gamma 90.000000
_cell_volume 4667.319636
_symmetry_space_group_name_H-M "C M M M"
_symmetry_group_IT_number 65
_symmetry_cell_setting 'orthorhombic'
loop_
_space_group_symop_operation_xyz
x,y,z
-x,-y,z
x,-y,-z
-x,y,-z
-x,-y,-z
x,y,-z
-x,y,z
x,-y,z
1/2+x,1/2+y,z
1/2-x,1/2-y,z
1/2+x,1/2-y,-z
1/2-x,1/2+y,-z
1/2-x,1/2-y,-z
1/2+x,1/2+y,-z
1/2-x,1/2+y,z
1/2+x,1/2-y,z
loop_
_atom_site_type_symbol
_atom_site_label
_atom_site_fract_x
_atom_site_fract_y
_atom_site_fract_z
Si Si1 0.303838 0.581252 0.634843
Si Si2 0.106827 0.413012 0.000000
Si Si3 0.892538 0.722580 0.249779
Si Si4 0.114014 0.000000 0.085355
Si Si5 0.115944 0.882372 0.790893
Si Si6 0.500000 0.581422 0.587950
Si Si7 0.661850 0.196464 0.416427
Si Si8 0.384067 0.917556 0.834808
O O1 0.301766 0.500000 0.605457
O O2 0.326390 0.581348 0.723162
O O3 0.401316 0.618126 0.606662
O O4 0.211895 0.621124 0.605570
O O5 0.148679 0.395851 0.918916
O O6 0.099852 0.500000 0.000000
O O7 0.000000 0.383063 0.000000
O O8 0.855480 0.797919 0.216116
O O9 0.890407 0.720499 0.340421
O O10 0.853606 0.646527 0.219944
O O11 0.000000 0.722524 0.224036
O O12 0.136648 0.928346 0.134144
O O13 0.000000 0.000000 0.079714
O O14 0.153176 0.000000 0.000000
O O15 0.000000 0.887172 0.778225
O O16 0.500000 0.500000 0.623576
O O17 0.500000 0.572761 0.500000
O O18 0.616940 0.193845 0.500000
O O19 0.750000 0.250000 0.421582
O O20 0.500000 0.920591 0.835984
O O21 0.354513 0.000000 0.817221
#
# Coordination Sequence:
#
# PCOD9484437 Si02
#       8
#    16   8  16   8  16   8  16  16
#     4  11  20  34  58  83 109 149 190 237 294 354
#     4   7  10  20  42  74 107 133 165 220 283 321
#     4  10  21  37  57  83 112 152 199 240 285 347
#     4   9  18  32  54  88 128 160 189 232 285 343
#     4  10  18  32  55  83 115 150 190 232 279 342
#     4   9  18  30  50  84 116 138 173 233 298 349
#     4  11  24  40  55  77 113 148 187 240 293 348
#     4   8  14  27  49  77 108 142 183 233 282 331
#
# _framework density 22.282596000000002
#
# number of rings (size 3 to 8) (size 9 to 14) (size 15 to 20)
#    0.000    2.385    3.077    1.385    0.000    1.846 
#    1.385    0.000    0.000    0.000    2.000    4.846 
#    0.000    0.000    0.000    0.000    0.000    0.000 
#
# Total GULP energy -289853.595184 kJ/mol
# GULP energy per Si atom -5574.107600 kJ/mol
# Density = 2.223188 g / cm^3
# Si number density = 22.282596 Si / 1000 Ang^3
#
#
#
# Elastic Constant Matrix: (Units=GPa)
#
#
# Indices 1 2 3 4 5 6 
#
# 1 57.2878 16.7776 2.5020 0.0000 0.0000 0.0000
# 2 16.7776 148.4819 66.5006 0.0000 0.0000 0.0000
# 3 2.5020 66.5006 160.9381 0.0000 0.0000 0.0000
# 4 0.0000 0.0000 0.0000 13.4774 0.0000 0.0000
# 5 0.0000 0.0000 0.0000 0.0000 -78.0288 0.0000
# 6 0.0000 0.0000 0.0000 0.0000 0.0000 58.8204
#
#
#
# Elastic Compliance Matrix: (Units=1/GPa)
#
#
# Indices 1 2 3 4 5 6 
#
# 1 0.018116 -0.002357 0.000692 0.000000 0.000000 0.000000
# 2 -0.002357 0.008571 -0.003505 0.000000 0.000000 0.000000
# 3 0.000692 -0.003505 0.007651 0.000000 0.000000 0.000000
# 4 0.000000 0.000000 0.000000 0.074198 0.000000 0.000000
# 5 0.000000 0.000000 0.000000 0.000000 -0.012816 0.000000
# 6 0.000000 0.000000 0.000000 0.000000 0.000000 0.017001
#
#
# Mechanical properties :
#
#
# Convention : Reuss Voigt Hill
#
# Bulk Modulus (GPa) = 41.66934 59.80757 50.73845
# Shear Modulus (GPa) = 38.15053 17.58231 27.86642
#
# Velocity S-wave (km/s) = 4.14227 2.81207 3.54021
# Velocity P-wave (km/s) = 6.45127 6.11902 6.28734
#
# Compressibility (1/GPa) = 0.02399846
#
# Stress axis : x y z
#
# Youngs Moduli (GPa) = 55.20052 116.67386 130.70096
#
# Poissons Ratio (x) = 0.27501 -0.09049
# Poissons Ratio (y) = 0.13011 0.45809
# Poissons Ratio (z) = -0.03822 0.40893
#
# Static dielectric constant tensor:
#      x y z
#    x 1.918010 0.000000 0.000000 
#    y 0.000000 1.859240 0.000000 
#    z 0.000000 0.000000 1.871010 
# 
# From -- ./inp_files/54653.got.cif
#   From: 2010.05.17/outbox.cif.g08.bks.cpg/sg65_28_cif.got.tgz:54653.got - 2010.06.03 17:01:31.
