data_PCOD9484125
_publ_section_title
;
Structure prediction by ZEFSAII (Michael W. Deem and Ramdas Pophale) SiO2 
 PCOD9484125
Probable space group: C M M M
;
_chemical_formula_sum "Si O2"
_cell_formula_units_Z 80
_cell_length_a 7.938957
_cell_length_b 14.422484
_cell_length_c 30.660592
_cell_angle_alpha 90.000000
_cell_angle_beta 90.000000
_cell_angle_gamma 90.000000
_cell_volume 3510.621850
_symmetry_space_group_name_H-M "C M M M"
_symmetry_group_IT_number 65
_symmetry_cell_setting 'orthorhombic'
loop_
_space_group_symop_operation_xyz
x,y,z
-x,-y,z
x,-y,-z
-x,y,-z
-x,-y,-z
x,y,-z
-x,y,z
x,-y,z
1/2+x,1/2+y,z
1/2-x,1/2-y,z
1/2+x,1/2-y,-z
1/2-x,1/2+y,-z
1/2-x,1/2-y,-z
1/2+x,1/2+y,-z
1/2-x,1/2+y,z
1/2+x,1/2-y,z
loop_
_atom_site_type_symbol
_atom_site_label
_atom_site_fract_x
_atom_site_fract_y
_atom_site_fract_z
Si Si1 0.202108 0.641849 0.594472
Si Si2 0.000000 0.385597 0.257025
Si Si3 0.500000 0.886730 0.843202
Si Si4 0.796891 0.358867 0.500000
Si Si5 0.805588 0.886334 0.904366
Si Si6 0.204704 0.106212 0.000000
Si Si7 0.818980 0.893096 0.690262
O O1 0.250000 0.750000 0.594290
O O2 0.260544 0.604682 0.547142
O O3 0.281165 0.605175 0.638720
O O4 0.000000 0.630014 0.597188
O O5 0.000000 0.356521 0.206870
O O6 0.836105 0.353200 0.283218
O O7 0.000000 0.500000 0.258031
O O8 0.668223 0.857687 0.868967
O O9 0.500000 0.000000 0.843237
O O10 0.750000 0.250000 0.500000
O O11 0.000000 0.367052 0.500000
O O12 0.000000 0.858160 0.896337
O O13 0.807701 0.000000 0.905340
O O14 0.747636 0.855197 0.952834
O O15 0.000000 0.104581 0.000000
O O16 0.265583 0.000000 0.000000
O O17 0.000000 0.848300 0.697644
O O18 0.829795 0.000000 0.704381
#
# Coordination Sequence:
#
# PCOD9484125 Si02
#       7
#    16   8   8   8  16   8  16
#     4  10  18  31  51  75 101 125 154 189 227 273
#     4   9  18  32  45  59  83 113 147 193 239 275
#     4   9  16  23  34  51  67  92 133 177 224 267
#     4   8  16  28  45  70  99 127 148 178 224 270
#     4   8  13  20  29  43  65  91 124 169 216 262
#     4   7  10  17  27  39  60  91 121 158 213 262
#     4  10  20  34  51  69  91 123 159 193 236 283
#
# _framework density 22.787984999999999
#
# number of rings (size 3 to 8) (size 9 to 14) (size 15 to 20)
#    0.000    3.100    1.000    1.800    0.000    2.000 
#    0.000    6.500    0.000    3.000    0.000    0.000 
#    0.000    0.000    0.000    0.000    0.000    0.000 
#
# Total GULP energy -223199.003710 kJ/mol
# GULP energy per Si atom -5579.975093 kJ/mol
# Density = 2.273612 g / cm^3
# Si number density = 22.787985 Si / 1000 Ang^3
#
#
#
# Elastic Constant Matrix: (Units=GPa)
#
#
# Indices 1 2 3 4 5 6 
#
# 1 161.1269 10.3489 118.2004 0.0000 0.0000 0.0000
# 2 10.3489 70.7849 4.3729 0.0000 0.0000 0.0000
# 3 118.2004 4.3729 212.1268 0.0000 0.0000 0.0000
# 4 0.0000 0.0000 0.0000 4.8375 0.0000 0.0000
# 5 0.0000 0.0000 0.0000 0.0000 0.3671 0.0000
# 6 0.0000 0.0000 0.0000 0.0000 0.0000 7.5255
#
#
#
# Elastic Compliance Matrix: (Units=1/GPa)
#
#
# Indices 1 2 3 4 5 6 
#
# 1 0.010596 -0.001186 -0.005880 0.000000 0.000000 0.000000
# 2 -0.001186 0.014278 0.000366 0.000000 0.000000 0.000000
# 3 -0.005880 0.000366 0.007983 0.000000 0.000000 0.000000
# 4 0.000000 0.000000 0.000000 0.206717 0.000000 0.000000
# 5 0.000000 0.000000 0.000000 0.000000 2.724309 0.000000
# 6 0.000000 0.000000 0.000000 0.000000 0.000000 0.132881
#
#
# Mechanical properties :
#
#
# Convention : Reuss Voigt Hill
#
# Bulk Modulus (GPa) = 51.39157 78.87588 65.13372
# Shear Modulus (GPa) = 1.60429 23.28712 12.44570
#
# Velocity S-wave (km/s) = 0.83996 3.20019 2.33952
# Velocity P-wave (km/s) = 4.85198 6.95291 5.99520
#
# Compressibility (1/GPa) = 0.01945845
#
# Stress axis : x y z
#
# Youngs Moduli (GPa) = 94.37822 70.03754 125.26889
#
# Poissons Ratio (x) = 0.08306 0.73653
# Poissons Ratio (y) = 0.11192 -0.04591
# Poissons Ratio (z) = 0.55491 -0.02567
#
# Static dielectric constant tensor:
#      x y z
#    x 1.832560 0.000000 0.000000 
#    y 0.000000 1.895630 0.000000 
#    z 0.000000 0.000000 1.828690 
# 
# From -- ./inp_files/67409.got.cif
#   From: 2010.05.17/outbox.cif.g08.bks.cpg/sg65_34_cif.got.tgz:67409.got - 2010.06.03 17:01:31.
