data_PCOD9484527
_publ_section_title
;
Structure prediction by ZEFSAII (Michael W. Deem and Ramdas Pophale) SiO2 
 PCOD9484527
Probable space group: C M M M
;
_chemical_formula_sum "Si O2"
_cell_formula_units_Z 104
_cell_length_a 17.736386
_cell_length_b 28.406015
_cell_length_c 11.819387
_cell_angle_alpha 90.000000
_cell_angle_beta 90.000000
_cell_angle_gamma 90.000000
_cell_volume 5954.844111
_symmetry_space_group_name_H-M "C M M M"
_symmetry_group_IT_number 65
_symmetry_cell_setting 'orthorhombic'
loop_
_space_group_symop_operation_xyz
x,y,z
-x,-y,z
x,-y,-z
-x,y,-z
-x,-y,-z
x,y,-z
-x,y,z
x,-y,z
1/2+x,1/2+y,z
1/2-x,1/2-y,z
1/2+x,1/2-y,-z
1/2-x,1/2+y,-z
1/2-x,1/2-y,-z
1/2+x,1/2+y,-z
1/2-x,1/2+y,z
1/2+x,1/2-y,z
loop_
_atom_site_type_symbol
_atom_site_label
_atom_site_fract_x
_atom_site_fract_y
_atom_site_fract_z
Si Si1 0.590827 0.282737 0.366648
Si Si2 0.408865 0.810645 0.240705
Si Si3 0.728355 0.052470 0.248825
Si Si4 0.500000 0.446043 0.637276
Si Si5 0.852797 0.113694 0.363949
Si Si6 0.411773 0.907237 0.365672
Si Si7 0.826660 0.447011 0.000000
Si Si8 0.409286 0.849448 0.000000
O O1 0.603058 0.272636 0.500000
O O2 0.500000 0.288913 0.353061
O O3 0.617411 0.238709 0.292080
O O4 0.630606 0.331847 0.337955
O O5 0.500000 0.807139 0.235392
O O6 0.393365 0.854326 0.323912
O O7 0.382086 0.824428 0.115185
O O8 0.781033 0.091677 0.303389
O O9 0.644670 0.059148 0.299187
O O10 0.756339 0.000000 0.277844
O O11 0.721876 0.056993 0.114072
O O12 0.500000 0.500000 0.677267
O O13 0.500000 0.447050 0.500000
O O14 0.425559 0.417290 0.670083
O O15 0.844017 0.109922 0.500000
O O16 0.401368 0.911421 0.500000
O O17 0.500000 0.916055 0.339647
O O18 0.884291 0.403738 0.000000
O O19 0.860447 0.500000 0.000000
O O20 0.500000 0.847791 0.000000
#
# Coordination Sequence:
#
# PCOD9484527 Si02
#       8
#    16  16  16   8  16  16   8   8
#     4   9  16  30  53  81 113 146 179 217 268 333
#     4   9  17  30  52  79 108 142 178 222 271 320
#     4  11  23  38  56  77 107 146 186 231 280 327
#     4   9  16  28  50  81 113 141 175 222 275 332
#     4  10  19  33  54  83 114 144 180 224 277 335
#     4  10  20  34  53  79 110 144 181 219 270 336
#     4  10  22  39  57  74  99 145 194 232 277 326
#     4  10  18  33  57  83 106 136 187 243 280 319
#
# _framework density 17.464773000000001
#
# number of rings (size 3 to 8) (size 9 to 14) (size 15 to 20)
#    0.000    2.231    2.308    1.385    0.000    4.154 
#    0.000    3.846    0.000    4.154    0.000    2.154 
#    0.000    0.000    0.000    0.000    0.000    0.000 
#
# Total GULP energy -290007.860422 kJ/mol
# GULP energy per Si atom -5577.074239 kJ/mol
# Density = 1.742502 g / cm^3
# Si number density = 17.464773 Si / 1000 Ang^3
#
#
#
# Elastic Constant Matrix: (Units=GPa)
#
#
# Indices 1 2 3 4 5 6 
#
# 1 44.8876 28.2927 30.2653 0.0000 0.0000 0.0000
# 2 28.2927 123.3098 51.3712 0.0000 0.0000 0.0000
# 3 30.2653 51.3712 73.8186 0.0000 0.0000 0.0000
# 4 0.0000 0.0000 0.0000 25.6250 0.0000 0.0000
# 5 0.0000 0.0000 0.0000 0.0000 11.4227 0.0000
# 6 0.0000 0.0000 0.0000 0.0000 0.0000 16.5972
#
#
#
# Elastic Compliance Matrix: (Units=1/GPa)
#
#
# Indices 1 2 3 4 5 6 
#
# 1 0.031366 -0.002590 -0.011057 0.000000 0.000000 0.000000
# 2 -0.002590 0.011635 -0.007035 0.000000 0.000000 0.000000
# 3 -0.011057 -0.007035 0.022976 0.000000 0.000000 0.000000
# 4 0.000000 0.000000 0.000000 0.039024 0.000000 0.000000
# 5 0.000000 0.000000 0.000000 0.000000 0.087545 0.000000
# 6 0.000000 0.000000 0.000000 0.000000 0.000000 0.060251
#
#
# Mechanical properties :
#
#
# Convention : Reuss Voigt Hill
#
# Bulk Modulus (GPa) = 40.63101 51.31940 45.97521
# Shear Modulus (GPa) = 16.53628 19.53474 18.03551
#
# Velocity S-wave (km/s) = 3.08041 3.34806 3.21702
# Velocity P-wave (km/s) = 5.99724 6.66291 6.33882
#
# Compressibility (1/GPa) = 0.02461174
#
# Stress axis : x y z
#
# Youngs Moduli (GPa) = 31.88180 85.95024 43.52424
#
# Poissons Ratio (x) = 0.22263 0.48126
# Poissons Ratio (y) = 0.08258 0.30618
# Poissons Ratio (z) = 0.35253 0.60463
#
# Static dielectric constant tensor:
#      x y z
#    x 1.593600 0.000000 0.000000 
#    y 0.000000 1.593690 0.000000 
#    z 0.000000 0.000000 1.581900 
# 
# From -- ./inp_files/27523.got.cif
#   From: 2010.05.17/outbox.cif.g08.bks.cpg/sg65_14_cif.got.tgz:27523.got - 2010.06.03 17:01:31.
