data_PCOD9484329
_publ_section_title
;
Structure prediction by ZEFSAII (Michael W. Deem and Ramdas Pophale) SiO2 
 PCOD9484329
Probable space group: C M M M
;
_chemical_formula_sum "Si O2"
_cell_formula_units_Z 80
_cell_length_a 9.015468
_cell_length_b 14.839394
_cell_length_c 27.338820
_cell_angle_alpha 90.000000
_cell_angle_beta 90.000000
_cell_angle_gamma 90.000000
_cell_volume 3657.498930
_symmetry_space_group_name_H-M "C M M M"
_symmetry_group_IT_number 65
_symmetry_cell_setting 'orthorhombic'
loop_
_space_group_symop_operation_xyz
x,y,z
-x,-y,z
x,-y,-z
-x,y,-z
-x,-y,-z
x,y,-z
-x,y,z
x,-y,z
1/2+x,1/2+y,z
1/2-x,1/2-y,z
1/2+x,1/2-y,-z
1/2-x,1/2+y,-z
1/2-x,1/2-y,-z
1/2+x,1/2+y,-z
1/2-x,1/2+y,z
1/2+x,1/2-y,z
loop_
_atom_site_type_symbol
_atom_site_label
_atom_site_fract_x
_atom_site_fract_y
_atom_site_fract_z
Si Si1 0.679377 0.648373 0.000000
Si Si2 0.676916 0.848440 0.902975
Si Si3 0.332449 0.393456 0.804523
Si Si4 0.674346 0.609224 0.697533
Si Si5 0.830710 0.389593 0.401015
Si Si6 0.168757 0.110281 0.500000
O O1 0.750000 0.750000 0.000000
O O2 0.743485 0.606529 0.050049
O O3 0.500000 0.651294 0.000000
O O4 0.500000 0.847190 0.909784
O O5 0.750000 0.750000 0.901874
O O6 0.723389 0.883793 0.849981
O O7 0.500000 0.356856 0.815199
O O8 0.350009 0.500000 0.797904
O O9 0.277518 0.358978 0.751687
O O10 0.500000 0.629332 0.693365
O O11 0.689428 0.500000 0.696587
O O12 0.759334 0.641898 0.649796
O O13 0.827003 0.500000 0.400760
O O14 0.746966 0.361071 0.450013
O O15 0.000000 0.361019 0.403487
O O16 0.000000 0.140342 0.500000
O O17 0.170416 0.000000 0.500000
#
# Coordination Sequence:
#
# PCOD9484329 Si02
#       6
#     8  16  16  16  16   8
#     4  10  18  32  53  74  97 124 157 193 233 281
#     4  11  21  34  53  76 101 127 159 196 235 280
#     4   9  18  33  51  71  97 128 161 197 238 283
#     4   8  14  25  40  56  77 109 146 180 218 270
#     4   9  15  21  30  46  69  97 133 178 223 265
#     4   9  15  21  29  41  61  93 134 177 220 267
#
# _framework density 21.872871
#
# number of rings (size 3 to 8) (size 9 to 14) (size 15 to 20)
#    0.000    2.700    0.000    6.000    0.000    4.800 
#    0.000    2.500    0.000    3.000    0.000    0.000 
#    0.000    0.000    0.000    0.900    0.000   13.000 
#
# Total GULP energy -223125.629490 kJ/mol
# GULP energy per Si atom -5578.140737 kJ/mol
# Density = 2.182309 g / cm^3
# Si number density = 21.872871 Si / 1000 Ang^3
#
#
#
# Elastic Constant Matrix: (Units=GPa)
#
#
# Indices 1 2 3 4 5 6 
#
# 1 171.8645 12.0464 138.2004 0.0000 0.0000 0.0000
# 2 12.0464 42.4765 11.2598 0.0000 0.0000 0.0000
# 3 138.2004 11.2598 255.4732 0.0000 0.0000 0.0000
# 4 0.0000 0.0000 0.0000 1.4355 0.0000 0.0000
# 5 0.0000 0.0000 0.0000 0.0000 -757.3819 0.0000
# 6 0.0000 0.0000 0.0000 0.0000 0.0000 6.5872
#
#
#
# Elastic Compliance Matrix: (Units=1/GPa)
#
#
# Indices 1 2 3 4 5 6 
#
# 1 0.010389 -0.001474 -0.005555 0.000000 0.000000 0.000000
# 2 -0.001474 0.024030 -0.000262 0.000000 0.000000 0.000000
# 3 -0.005555 -0.000262 0.006931 0.000000 0.000000 0.000000
# 4 0.000000 0.000000 0.000000 0.696598 0.000000 0.000000
# 5 0.000000 0.000000 0.000000 0.000000 -0.001320 0.000000
# 6 0.000000 0.000000 0.000000 0.000000 0.000000 0.151809
#
#
# Mechanical properties :
#
#
# Convention : Reuss Voigt Hill
#
# Bulk Modulus (GPa) = 37.35764 88.09193 62.72478
# Shear Modulus (GPa) = 5.48282 -129.31798 -61.91758
#
# Velocity S-wave (km/s) = 1.58497 -7.69746 -5.32629
# Velocity P-wave (km/s) = 4.52394 6.21605 3.01440
#
# Compressibility (1/GPa) = 0.02676829
#
# Stress axis : x y z
#
# Youngs Moduli (GPa) = 96.25903 41.61503 144.28353
#
# Poissons Ratio (x) = 0.06133 0.80148
# Poissons Ratio (y) = 0.14186 0.03778
# Poissons Ratio (z) = 0.53471 0.01090
#
# Static dielectric constant tensor:
#      x y z
#    x 1.747420 0.000000 0.000000 
#    y 0.000000 1.957330 0.000000 
#    z 0.000000 0.000000 1.865950 
# 
# From -- ./inp_files/67770.got.cif
#   From: 2010.05.17/outbox.cif.g08.bks.cpg/sg65_34_cif.got.tgz:67770.got - 2010.06.03 17:01:31.
