data_PCOD9484158
_publ_section_title
;
Structure prediction by ZEFSAII (Michael W. Deem and Ramdas Pophale) SiO2 
 PCOD9484158
Probable space group: C M M M
;
_chemical_formula_sum "Si O2"
_cell_formula_units_Z 72
_cell_length_a 21.757713
_cell_length_b 14.472152
_cell_length_c 10.588804
_cell_angle_alpha 90.000000
_cell_angle_beta 90.000000
_cell_angle_gamma 90.000000
_cell_volume 3334.212448
_symmetry_space_group_name_H-M "C M M M"
_symmetry_group_IT_number 65
_symmetry_cell_setting 'orthorhombic'
loop_
_space_group_symop_operation_xyz
x,y,z
-x,-y,z
x,-y,-z
-x,y,-z
-x,-y,-z
x,y,-z
-x,y,z
x,-y,z
1/2+x,1/2+y,z
1/2-x,1/2-y,z
1/2+x,1/2-y,-z
1/2-x,1/2+y,-z
1/2-x,1/2-y,-z
1/2+x,1/2+y,-z
1/2-x,1/2+y,z
1/2+x,1/2-y,z
loop_
_atom_site_type_symbol
_atom_site_label
_atom_site_fract_x
_atom_site_fract_y
_atom_site_fract_z
Si Si1 0.571662 0.886741 0.000000
Si Si2 0.240150 0.858947 0.641409
Si Si3 0.571709 0.113497 0.500000
Si Si4 0.403318 0.609817 0.356536
Si Si5 0.500000 0.386891 0.147811
Si Si6 0.864793 0.393241 0.249284
O O1 0.606924 0.852101 0.123494
O O2 0.500000 0.863174 0.000000
O O3 0.574732 0.000000 0.000000
O O4 0.253868 0.895860 0.500000
O O5 0.250000 0.750000 0.637374
O O6 0.169299 0.878625 0.667954
O O7 0.291498 0.892949 0.738099
O O8 0.500000 0.136617 0.500000
O O9 0.606299 0.149009 0.375763
O O10 0.575624 0.000000 0.500000
O O11 0.416868 0.646008 0.500000
O O12 0.415693 0.500000 0.363628
O O13 0.442750 0.643246 0.236917
O O14 0.500000 0.500000 0.142010
O O15 0.500000 0.356628 0.000000
O O16 0.884888 0.500000 0.249813
#
# Coordination Sequence:
#
# PCOD9484158 Si02
#       6
#     8  16   8  16   8  16
#     4   9  18  32  51  76 106 137 169 210 254 296
#     4  10  20  34  53  75 106 136 171 214 261 303
#     4   9  16  26  47  76 100 125 163 212 252 286
#     4   9  17  31  55  80 102 133 171 209 255 312
#     4   9  17  31  53  83 109 127 160 215 266 304
#     4  10  18  31  52  76 102 132 173 212 251 302
#
# _framework density 21.594307000000001
#
# number of rings (size 3 to 8) (size 9 to 14) (size 15 to 20)
#    0.000    2.556    1.111    1.667    0.000    4.889 
#    2.000    0.556    4.889    0.000    0.000    0.000 
#    0.000    0.000    0.000    0.000    0.000    0.000 
#
# Total GULP energy -200921.088663 kJ/mol
# GULP energy per Si atom -5581.141352 kJ/mol
# Density = 2.154516 g / cm^3
# Si number density = 21.594307 Si / 1000 Ang^3
#
#
#
# Elastic Constant Matrix: (Units=GPa)
#
#
# Indices 1 2 3 4 5 6 
#
# 1 155.7018 -11.7908 124.7998 0.0000 0.0000 0.0000
# 2 -11.7908 49.1945 13.6214 0.0000 0.0000 0.0000
# 3 124.7998 13.6214 225.1139 0.0000 0.0000 0.0000
# 4 0.0000 0.0000 0.0000 20.2175 0.0000 0.0000
# 5 0.0000 0.0000 0.0000 0.0000 36.1969 0.0000
# 6 0.0000 0.0000 0.0000 0.0000 0.0000 -50.6625
#
#
#
# Elastic Compliance Matrix: (Units=1/GPa)
#
#
# Indices 1 2 3 4 5 6 
#
# 1 0.012694 0.005076 -0.007344 0.000000 0.000000 0.000000
# 2 0.005076 0.022704 -0.004188 0.000000 0.000000 0.000000
# 3 -0.007344 -0.004188 0.008767 0.000000 0.000000 0.000000
# 4 0.000000 0.000000 0.000000 0.049462 0.000000 0.000000
# 5 0.000000 0.000000 0.000000 0.000000 0.027627 0.000000
# 6 0.000000 0.000000 0.000000 0.000000 0.000000 -0.019738
#
#
# Mechanical properties :
#
#
# Convention : Reuss Voigt Hill
#
# Bulk Modulus (GPa) = 31.99790 75.91901 53.95846
# Shear Modulus (GPa) = 40.04992 21.37570 30.71281
#
# Velocity S-wave (km/s) = 4.31124 3.14964 3.77538
# Velocity P-wave (km/s) = 6.29542 6.96134 6.63674
#
# Compressibility (1/GPa) = 0.03125205
#
# Stress axis : x y z
#
# Youngs Moduli (GPa) = 78.78012 44.04585 114.06231
#
# Poissons Ratio (x) = -0.22357 0.83770
# Poissons Ratio (y) = -0.39988 0.47767
# Poissons Ratio (z) = 0.57858 0.18445
#
# Static dielectric constant tensor:
#      x y z
#    x 1.757160 0.000000 0.000000 
#    y 0.000000 1.858750 0.000000 
#    z 0.000000 0.000000 1.805580 
# 
# From -- ./inp_files/11285.got.cif
#   From: 2010.05.17/outbox.cif.g08.bks.cpg/sg65_6_cif.got.tgz:11285.got - 2010.06.03 17:01:31.
