data_PCOD9484572
_publ_section_title
;
Structure prediction by ZEFSAII (Michael W. Deem and Ramdas Pophale) SiO2 
 PCOD9484572
Probable space group: C M M M
;
_chemical_formula_sum "Si O2"
_cell_formula_units_Z 72
_cell_length_a 7.776697
_cell_length_b 24.347343
_cell_length_c 18.345403
_cell_angle_alpha 90.000000
_cell_angle_beta 90.000000
_cell_angle_gamma 90.000000
_cell_volume 3473.553630
_symmetry_space_group_name_H-M "C M M M"
_symmetry_group_IT_number 65
_symmetry_cell_setting 'orthorhombic'
loop_
_space_group_symop_operation_xyz
x,y,z
-x,-y,z
x,-y,-z
-x,y,-z
-x,-y,-z
x,y,-z
-x,y,z
x,-y,z
1/2+x,1/2+y,z
1/2-x,1/2-y,z
1/2+x,1/2-y,-z
1/2-x,1/2+y,-z
1/2-x,1/2-y,-z
1/2+x,1/2+y,-z
1/2-x,1/2+y,z
1/2+x,1/2-y,z
loop_
_atom_site_type_symbol
_atom_site_label
_atom_site_fract_x
_atom_site_fract_y
_atom_site_fract_z
Si Si1 0.704061 0.313603 0.214498
Si Si2 0.209256 0.500000 0.158878
Si Si3 0.796593 0.000000 0.328896
Si Si4 0.294470 0.888279 0.081845
Si Si5 0.711588 0.621026 0.356954
Si Si6 0.793417 0.185976 0.500000
O O1 0.500000 0.318108 0.216737
O O2 0.750000 0.250000 0.222206
O O3 0.761092 0.339371 0.138070
O O4 0.771076 0.349592 0.282495
O O5 0.271488 0.500000 0.241806
O O6 0.269257 0.554860 0.117570
O O7 0.000000 0.500000 0.160209
O O8 0.728631 0.057896 0.358539
O O9 0.000000 0.000000 0.344444
O O10 0.500000 0.894043 0.076546
O O11 0.226912 0.879754 0.000000
O O12 0.500000 0.620735 0.356081
O O13 0.768080 0.655566 0.427012
O O14 0.750000 0.250000 0.500000
O O15 0.000000 0.181509 0.500000
#
# Coordination Sequence:
#
# PCOD9484572 Si02
#       6
#    16   8   8  16  16   8
#     4  11  22  37  56  80 109 146 188 232 278 330
#     4  10  19  34  57  85 112 142 180 225 276 331
#     4  10  18  34  57  83 113 144 178 226 275 328
#     4  10  21  37  57  82 111 144 183 228 278 332
#     4   9  19  34  57  84 112 143 183 226 272 327
#     4  10  20  37  57  83 113 148 187 226 270 319
#
# _framework density 20.728051000000001
#
# number of rings (size 3 to 8) (size 9 to 14) (size 15 to 20)
#    0.000    2.000    2.222    1.667    0.000    2.667 
#    0.000    4.444    0.000    2.000    0.000    1.556 
#    0.000    0.000    0.000    0.000    0.000    0.000 
#
# Total GULP energy -201108.435508 kJ/mol
# GULP energy per Si atom -5586.345431 kJ/mol
# Density = 2.068087 g / cm^3
# Si number density = 20.728051 Si / 1000 Ang^3
#
#
#
# Elastic Constant Matrix: (Units=GPa)
#
#
# Indices 1 2 3 4 5 6 
#
# 1 22.3767 -3.2975 -7.3236 0.0000 0.0000 0.0000
# 2 -3.2975 198.1724 90.7606 0.0000 0.0000 0.0000
# 3 -7.3236 90.7606 139.6131 0.0000 0.0000 0.0000
# 4 0.0000 0.0000 0.0000 22.0340 0.0000 0.0000
# 5 0.0000 0.0000 0.0000 0.0000 -16.1285 0.0000
# 6 0.0000 0.0000 0.0000 0.0000 0.0000 -11.1099
#
#
#
# Elastic Compliance Matrix: (Units=1/GPa)
#
#
# Indices 1 2 3 4 5 6 
#
# 1 0.045502 -0.000478 0.002698 0.000000 0.000000 0.000000
# 2 -0.000478 0.007190 -0.004700 0.000000 0.000000 0.000000
# 3 0.002698 -0.004700 0.010359 0.000000 0.000000 0.000000
# 4 0.000000 0.000000 0.000000 0.045384 0.000000 0.000000
# 5 0.000000 0.000000 0.000000 0.000000 -0.062002 0.000000
# 6 0.000000 0.000000 0.000000 0.000000 0.000000 -0.090010
#
#
# Mechanical properties :
#
#
# Convention : Reuss Voigt Hill
#
# Bulk Modulus (GPa) = 17.21428 57.82679 37.52053
# Shear Modulus (GPa) = -259.71072 17.62731 -121.04170
#
# Velocity S-wave (km/s) = -11.20564 2.91934 -7.64996
# Velocity P-wave (km/s) = 12.61344 6.27071 7.73877
#
# Compressibility (1/GPa) = 0.05809131
#
# Stress axis : x y z
#
# Youngs Moduli (GPa) = 21.97718 139.07284 96.53184
#
# Poissons Ratio (x) = 0.06654 -0.26043
# Poissons Ratio (y) = 0.01052 0.45365
# Poissons Ratio (z) = -0.05929 0.65358
#
# Static dielectric constant tensor:
#      x y z
#    x 1.784660 0.000000 0.000000 
#    y 0.000000 1.686620 0.000000 
#    z 0.000000 0.000000 1.726950 
# 
# From -- ./inp_files/36656.got.cif
#   From: 2010.05.17/outbox.cif.g08.bks.cpg/sg65_19_cif.got.tgz:36656.got - 2010.06.03 17:01:31.
