data_PCOD9484111
_publ_section_title
;
Structure prediction by ZEFSAII (Michael W. Deem and Ramdas Pophale) SiO2 
 PCOD9484111
Probable space group: C M M M
;
_chemical_formula_sum "Si O2"
_cell_formula_units_Z 104
_cell_length_a 8.460259
_cell_length_b 26.378363
_cell_length_c 26.906708
_cell_angle_alpha 90.000000
_cell_angle_beta 90.000000
_cell_angle_gamma 90.000000
_cell_volume 6004.710372
_symmetry_space_group_name_H-M "C M M M"
_symmetry_group_IT_number 65
_symmetry_cell_setting 'orthorhombic'
loop_
_space_group_symop_operation_xyz
x,y,z
-x,-y,z
x,-y,-z
-x,y,-z
-x,-y,-z
x,y,-z
-x,y,z
x,-y,z
1/2+x,1/2+y,z
1/2-x,1/2-y,z
1/2+x,1/2-y,-z
1/2-x,1/2+y,-z
1/2-x,1/2-y,-z
1/2+x,1/2+y,-z
1/2-x,1/2+y,z
1/2+x,1/2-y,z
loop_
_atom_site_type_symbol
_atom_site_label
_atom_site_fract_x
_atom_site_fract_y
_atom_site_fract_z
Si Si1 0.807145 0.500000 0.216283
Si Si2 0.809211 0.599757 0.156527
Si Si3 0.810556 0.694063 0.336060
Si Si4 0.192647 0.058893 0.500000
Si Si5 0.809415 0.058659 0.943902
Si Si6 0.809229 0.694354 0.221443
Si Si7 0.310379 0.596382 0.607304
Si Si8 0.189951 0.500000 0.331044
O O1 0.754975 0.550309 0.187344
O O2 0.757162 0.500000 0.273603
O O3 0.000000 0.500000 0.216113
O O4 0.754605 0.593129 0.100092
O O5 0.753920 0.650246 0.184641
O O6 0.000000 0.599820 0.157366
O O7 0.750000 0.750000 0.350006
O O8 0.759321 0.684534 0.278651
O O9 0.748064 0.649389 0.370678
O O10 0.000000 0.693953 0.337147
O O11 0.243775 0.085855 0.449237
O O12 0.000000 0.058595 0.500000
O O13 0.243099 0.000000 0.500000
O O14 0.000000 0.059312 0.942695
O O15 0.759121 0.000000 0.935219
O O16 0.759833 0.072686 0.000000
O O17 0.750000 0.750000 0.207291
O O18 0.000000 0.694504 0.221134
O O19 0.500000 0.595633 0.607814
O O20 0.249864 0.549988 0.640973
O O21 0.000000 0.500000 0.331657
#
# Coordination Sequence:
#
# PCOD9484111 Si02
#       8
#     8  16  16   8  16  16  16   8
#     4   9  18  31  47  71 105 137 161 200 259 312
#     4  10  18  31  51  74 100 132 170 210 251 302
#     4  10  20  37  58  81 109 141 176 217 265 316
#     4   9  18  36  57  76 105 142 177 219 266 310
#     4   9  18  32  48  69 101 137 169 206 256 307
#     4   9  19  34  53  76 104 138 174 210 254 306
#     4  11  21  36  57  80 105 139 180 220 265 316
#     4  11  21  34  52  76 109 144 175 212 263 318
#
# _framework density 17.319737
#
# number of rings (size 3 to 8) (size 9 to 14) (size 15 to 20)
#    0.000    2.231    1.538    2.538    0.000    4.000 
#    0.000    6.154    0.000    0.462    0.000    0.000 
#    0.000    0.000    0.000    0.000    0.000    0.000 
#
# Total GULP energy -290187.502289 kJ/mol
# GULP energy per Si atom -5580.528890 kJ/mol
# Density = 1.728032 g / cm^3
# Si number density = 17.319737 Si / 1000 Ang^3
#
#
#
# Elastic Constant Matrix: (Units=GPa)
#
#
# Indices 1 2 3 4 5 6 
#
# 1 23.3919 27.1964 24.4520 0.0000 0.0000 0.0000
# 2 27.1964 160.2526 110.2493 0.0000 0.0000 0.0000
# 3 24.4520 110.2493 160.0003 0.0000 0.0000 0.0000
# 4 0.0000 0.0000 0.0000 19.8380 0.0000 0.0000
# 5 0.0000 0.0000 0.0000 0.0000 21.1129 0.0000
# 6 0.0000 0.0000 0.0000 0.0000 0.0000 29.8199
#
#
#
# Elastic Compliance Matrix: (Units=1/GPa)
#
#
# Indices 1 2 3 4 5 6 
#
# 1 0.054393 -0.006678 -0.003711 0.000000 0.000000 0.000000
# 2 -0.006678 0.012684 -0.007720 0.000000 0.000000 0.000000
# 3 -0.003711 -0.007720 0.012136 0.000000 0.000000 0.000000
# 4 0.000000 0.000000 0.000000 0.050408 0.000000 0.000000
# 5 0.000000 0.000000 0.000000 0.000000 0.047364 0.000000
# 6 0.000000 0.000000 0.000000 0.000000 0.000000 0.033535
#
#
# Mechanical properties :
#
#
# Convention : Reuss Voigt Hill
#
# Bulk Modulus (GPa) = 23.25768 74.16003 48.70885
# Shear Modulus (GPa) = 19.15187 26.27064 22.71125
#
# Velocity S-wave (km/s) = 3.32894 3.89884 3.62511
# Velocity P-wave (km/s) = 5.31351 7.94853 6.76064
#
# Compressibility (1/GPa) = 0.04299655
#
# Stress axis : x y z
#
# Youngs Moduli (GPa) = 18.38464 78.83689 82.39613
#
# Poissons Ratio (x) = 0.52646 0.30579
# Poissons Ratio (y) = 0.12277 0.63608
# Poissons Ratio (z) = 0.06823 0.60860
#
# Static dielectric constant tensor:
#      x y z
#    x 1.598480 0.000000 0.000000 
#    y 0.000000 1.526710 0.000000 
#    z 0.000000 0.000000 1.585680 
# 
# From -- ./inp_files/68314.got.cif
#   From: 2010.05.17/outbox.cif.g08.bks.cpg/sg65_35_cif.got.tgz:68314.got - 2010.06.03 17:01:31.
