data_PCOD9484251
_publ_section_title
;
Structure prediction by ZEFSAII (Michael W. Deem and Ramdas Pophale) SiO2 
 PCOD9484251
Probable space group: C M M M
;
_chemical_formula_sum "Si O2"
_cell_formula_units_Z 74
_cell_length_a 14.297327
_cell_length_b 19.420608
_cell_length_c 14.806518
_cell_angle_alpha 90.000000
_cell_angle_beta 90.000000
_cell_angle_gamma 90.000000
_cell_volume 4111.218996
_symmetry_space_group_name_H-M "C M M M"
_symmetry_group_IT_number 65
_symmetry_cell_setting 'orthorhombic'
loop_
_space_group_symop_operation_xyz
x,y,z
-x,-y,z
x,-y,-z
-x,y,-z
-x,-y,-z
x,y,-z
-x,y,z
x,-y,z
1/2+x,1/2+y,z
1/2-x,1/2-y,z
1/2+x,1/2-y,-z
1/2-x,1/2+y,-z
1/2-x,1/2-y,-z
1/2+x,1/2+y,-z
1/2-x,1/2+y,z
1/2+x,1/2-y,z
loop_
_atom_site_type_symbol
_atom_site_label
_atom_site_fract_x
_atom_site_fract_y
_atom_site_fract_z
Si Si1 0.500000 0.000000 0.000000
Si Si2 0.500000 0.730350 0.197931
Si Si3 0.000000 0.605281 0.171199
Si Si4 0.292518 0.079345 0.766201
Si Si5 0.000000 0.729403 0.600149
Si Si6 0.207026 0.324391 0.397306
Si Si7 0.687813 0.681047 0.894160
O O1 0.500000 0.938912 0.079153
O O2 0.500000 0.810998 0.166346
O O3 0.500000 0.727847 0.307099
O O4 0.408046 0.695062 0.158140
O O5 0.095638 0.585720 0.221688
O O6 0.265017 0.119496 0.675444
O O7 0.244789 0.119075 0.849190
O O8 0.265967 0.000000 0.764172
O O9 0.094887 0.685242 0.603713
O O10 0.000000 0.764058 0.500000
O O11 0.236300 0.339989 0.500000
O O12 0.250000 0.250000 0.372617
O O13 0.750000 0.750000 0.885021
O O14 0.670827 0.669104 0.000000
#
# Coordination Sequence:
#
# PCOD9484251 Si02
#       7
#     2   8   8  16   8  16  16
#     4  12  28  36  52  96 126 162 198 240 328 372
#     4  12  21  40  63  86 123 149 209 258 297 347
#     4  12  24  36  60  86 122 156 196 251 303 360
#     4  12  23  39  58  87 124 162 195 244 306 368
#     4  10  18  31  58  87 116 150 185 235 296 356
#     4  10  20  36  59  88 119 154 198 245 295 353
#     4  11  24  38  60  86 114 157 204 255 302 350
#
# _framework density 17.999528000000002
#
# number of rings (size 3 to 8) (size 9 to 14) (size 15 to 20)
#    0.000    0.865    5.405    2.270    3.027    0.865 
#    0.000    0.541    0.000    4.541    0.000    0.000 
#    0.000   12.108    0.000    0.000    0.000    0.000 
#
# Total GULP energy -206371.740410 kJ/mol
# GULP energy per Si atom -5577.614606 kJ/mol
# Density = 1.795856 g / cm^3
# Si number density = 17.999528 Si / 1000 Ang^3
#
#
#
# Elastic Constant Matrix: (Units=GPa)
#
#
# Indices 1 2 3 4 5 6 
#
# 1 58.2636 22.3851 35.7479 0.0000 0.0000 0.0000
# 2 22.3851 121.9631 74.7003 0.0000 0.0000 0.0000
# 3 35.7479 74.7003 168.5514 0.0000 0.0000 0.0000
# 4 0.0000 0.0000 0.0000 11.7904 0.0000 0.0000
# 5 0.0000 0.0000 0.0000 0.0000 -71.6668 0.0000
# 6 0.0000 0.0000 0.0000 0.0000 0.0000 -2.8388
#
#
#
# Elastic Compliance Matrix: (Units=1/GPa)
#
#
# Indices 1 2 3 4 5 6 
#
# 1 0.019920 -0.001467 -0.003575 0.000000 0.000000 0.000000
# 2 -0.001467 0.011362 -0.004724 0.000000 0.000000 0.000000
# 3 -0.003575 -0.004724 0.008785 0.000000 0.000000 0.000000
# 4 0.000000 0.000000 0.000000 0.084815 0.000000 0.000000
# 5 0.000000 0.000000 0.000000 0.000000 -0.013953 0.000000
# 6 0.000000 0.000000 0.000000 0.000000 0.000000 -0.352262
#
#
# Mechanical properties :
#
#
# Convention : Reuss Voigt Hill
#
# Bulk Modulus (GPa) = 48.69668 68.27161 58.48414
# Shear Modulus (GPa) = -23.26056 1.85328 -10.70364
#
# Velocity S-wave (km/s) = -3.59874 1.01581 -2.44122
# Velocity P-wave (km/s) = 3.13771 6.27597 4.96151
#
# Compressibility (1/GPa) = 0.02053528
#
# Stress axis : x y z
#
# Youngs Moduli (GPa) = 50.20020 88.01224 113.83105
#
# Poissons Ratio (x) = 0.12908 0.40693
# Poissons Ratio (y) = 0.07362 0.53779
# Poissons Ratio (z) = 0.17946 0.41581
#
# Static dielectric constant tensor:
#      x y z
#    x 1.634760 0.000000 0.000000 
#    y 0.000000 1.588280 0.000000 
#    z 0.000000 0.000000 1.639890 
# 
# From -- ./inp_files/39907.got.cif
#   From: 2010.05.17/outbox.cif.g08.bks.cpg/sg65_20_cif.got.tgz:39907.got - 2010.06.03 17:01:31.
