data_PCOD9484997
_publ_section_title
;
Structure prediction by ZEFSAII (Michael W. Deem and Ramdas Pophale) SiO2 
 PCOD9484997
Probable space group: C M M M
;
_chemical_formula_sum "Si O2"
_cell_formula_units_Z 88
_cell_length_a 7.343804
_cell_length_b 17.433687
_cell_length_c 31.361362
_cell_angle_alpha 90.000000
_cell_angle_beta 90.000000
_cell_angle_gamma 90.000000
_cell_volume 4015.182015
_symmetry_space_group_name_H-M "C M M M"
_symmetry_group_IT_number 65
_symmetry_cell_setting 'orthorhombic'
loop_
_space_group_symop_operation_xyz
x,y,z
-x,-y,z
x,-y,-z
-x,y,-z
-x,-y,-z
x,y,-z
-x,y,z
x,-y,z
1/2+x,1/2+y,z
1/2-x,1/2-y,z
1/2+x,1/2-y,-z
1/2-x,1/2+y,-z
1/2-x,1/2-y,-z
1/2+x,1/2+y,-z
1/2-x,1/2+y,z
1/2+x,1/2-y,z
loop_
_atom_site_type_symbol
_atom_site_label
_atom_site_fract_x
_atom_site_fract_y
_atom_site_fract_z
Si Si1 0.783401 0.339281 0.633927
Si Si2 0.221768 0.500000 0.950458
Si Si3 0.283591 0.161607 0.807751
Si Si4 0.279157 0.911651 0.721308
Si Si5 0.779260 0.409879 0.546010
Si Si6 0.781883 0.340592 0.095474
O O1 0.750000 0.250000 0.631585
O O2 0.711901 0.368122 0.679425
O O3 0.710904 0.374990 0.590086
O O4 0.000000 0.356049 0.634459
O O5 0.280605 0.417422 0.929997
O O6 0.000000 0.500000 0.947797
O O7 0.272932 0.500000 0.000000
O O8 0.500000 0.146959 0.810582
O O9 0.250000 0.250000 0.797069
O O10 0.211613 0.114684 0.767604
O O11 0.212792 0.150442 0.855781
O O12 0.500000 0.902036 0.722792
O O13 0.238899 0.000000 0.715049
O O14 0.716928 0.377894 0.500000
O O15 0.737832 0.500000 0.546460
O O16 0.000000 0.402558 0.546142
O O17 0.750000 0.250000 0.082179
O O18 0.000000 0.345782 0.095555
#
# Coordination Sequence:
#
# PCOD9484997 Si02
#       6
#    16   8  16  16  16  16
#     4  10  19  30  45  65  89 116 144 179 221 264
#     4   9  18  32  51  75 101 131 169 209 246 290
#     4   9  17  29  47  69  93 120 151 188 231 277
#     4   9  17  28  45  68  89 113 150 191 223 258
#     4   8  14  26  45  66  85 108 143 184 219 254
#     4   9  18  32  51  74 100 131 165 204 248 294
#
# _framework density 21.916813000000001
#
# number of rings (size 3 to 8) (size 9 to 14) (size 15 to 20)
#    0.000    3.000    0.000    1.636    1.273    2.909 
#    0.000    0.455    0.000    4.364    0.000    1.273 
#    0.000    0.000    0.000    0.000    0.000    0.000 
#
# Total GULP energy -245217.411781 kJ/mol
# GULP energy per Si atom -5573.122995 kJ/mol
# Density = 2.186693 g / cm^3
# Si number density = 21.916813 Si / 1000 Ang^3
#
#
#
# Elastic Constant Matrix: (Units=GPa)
#
#
# Indices 1 2 3 4 5 6 
#
# 1 85.1166 -2.1385 6.9476 0.0000 0.0000 0.0000
# 2 -2.1385 135.3990 109.2211 0.0000 0.0000 0.0000
# 3 6.9476 109.2211 154.4450 0.0000 0.0000 0.0000
# 4 0.0000 0.0000 0.0000 87.2163 0.0000 0.0000
# 5 0.0000 0.0000 0.0000 0.0000 -24.3097 0.0000
# 6 0.0000 0.0000 0.0000 0.0000 0.0000 18.4564
#
#
#
# Elastic Compliance Matrix: (Units=1/GPa)
#
#
# Indices 1 2 3 4 5 6 
#
# 1 0.011912 0.001444 -0.001557 0.000000 0.000000 0.000000
# 2 0.001444 0.017369 -0.012348 0.000000 0.000000 0.000000
# 3 -0.001557 -0.012348 0.015277 0.000000 0.000000 0.000000
# 4 0.000000 0.000000 0.000000 0.011466 0.000000 0.000000
# 5 0.000000 0.000000 0.000000 0.000000 -0.041136 0.000000
# 6 0.000000 0.000000 0.000000 0.000000 0.000000 0.054182
#
#
# Mechanical properties :
#
#
# Convention : Reuss Voigt Hill
#
# Bulk Modulus (GPa) = 50.92628 67.00232 58.96430
# Shear Modulus (GPa) = 49.73248 33.66795 41.70022
#
# Velocity S-wave (km/s) = 4.76872 3.92365 4.36668
# Velocity P-wave (km/s) = 7.32172 7.15292 7.23781
#
# Compressibility (1/GPa) = 0.01963623
#
# Stress axis : x y z
#
# Youngs Moduli (GPa) = 83.94902 57.57314 65.45655
#
# Poissons Ratio (x) = -0.08315 0.10193
# Poissons Ratio (y) = -0.12125 0.80827
# Poissons Ratio (z) = 0.13073 0.71093
#
# Static dielectric constant tensor:
#      x y z
#    x 1.872640 0.000000 0.000000 
#    y 0.000000 1.749510 0.000000 
#    z 0.000000 0.000000 1.820510 
# 
# From -- ./inp_files/74225.got.cif
#   From: 2010.05.17/outbox.cif.g08.bks.cpg/sg65_38_cif.got.tgz:74225.got - 2010.06.03 17:01:31.
