data_PCOD9484762
_publ_section_title
;
Structure prediction by ZEFSAII (Michael W. Deem and Ramdas Pophale) SiO2 
 PCOD9484762
Probable space group: C M M M
;
_chemical_formula_sum "Si O2"
_cell_formula_units_Z 88
_cell_length_a 18.798537
_cell_length_b 7.345071
_cell_length_c 30.740937
_cell_angle_alpha 90.000000
_cell_angle_beta 90.000000
_cell_angle_gamma 90.000000
_cell_volume 4244.603722
_symmetry_space_group_name_H-M "C M M M"
_symmetry_group_IT_number 65
_symmetry_cell_setting 'orthorhombic'
loop_
_space_group_symop_operation_xyz
x,y,z
-x,-y,z
x,-y,-z
-x,y,-z
-x,-y,-z
x,y,-z
-x,y,z
x,-y,z
1/2+x,1/2+y,z
1/2-x,1/2-y,z
1/2+x,1/2-y,-z
1/2-x,1/2+y,-z
1/2-x,1/2-y,-z
1/2+x,1/2+y,-z
1/2-x,1/2+y,z
1/2+x,1/2-y,z
loop_
_atom_site_type_symbol
_atom_site_label
_atom_site_fract_x
_atom_site_fract_y
_atom_site_fract_z
Si Si1 0.334290 0.782374 0.735017
Si Si2 0.917248 0.721751 0.915617
Si Si3 0.335215 0.782546 0.359419
Si Si4 0.833598 0.717220 0.000000
Si Si5 0.082755 0.721552 0.180745
Si Si6 0.835348 0.282283 0.546880
O O1 0.250000 0.750000 0.738290
O O2 0.360184 0.712912 0.687664
O O3 0.373191 0.712248 0.777922
O O4 0.345013 0.000000 0.734190
O O5 0.915733 0.500000 0.915548
O O6 0.892836 0.779993 0.867418
O O7 0.000000 0.773270 0.921119
O O8 0.870609 0.786378 0.955987
O O9 0.250000 0.750000 0.359332
O O10 0.362202 0.712549 0.406252
O O11 0.346490 0.000000 0.359647
O O12 0.750000 0.750000 0.000000
O O13 0.844950 0.500000 0.000000
O O14 0.085882 0.500000 0.180850
O O15 0.000000 0.771140 0.185137
O O16 0.862157 0.212652 0.500000
O O17 0.846084 0.500000 0.546842
O O18 0.750000 0.250000 0.546912
#
# Coordination Sequence:
#
# PCOD9484762 Si02
#       6
#    16  16  16   8  16  16
#     4   9  16  25  38  56  77 100 124 152 189 230
#     4   8  14  26  44  62  78 101 135 167 189 215
#     4   8  13  20  29  43  64  88 114 143 176 216
#     4  10  19  29  43  65  89 108 128 158 194 228
#     4   8  14  25  41  60  79  99 128 165 195 217
#     4   8  12  17  25  37  55  81 111 140 170 206
#
# _framework density 20.732205
#
# number of rings (size 3 to 8) (size 9 to 14) (size 15 to 20)
#    0.000    3.636    0.000    1.364    0.000    1.818 
#    0.000    0.000    0.000    1.636    0.000    2.545 
#    0.000    0.727    0.000   10.182    0.000    3.455 
#
# Total GULP energy -244966.333774 kJ/mol
# GULP energy per Si atom -5567.416677 kJ/mol
# Density = 2.068502 g / cm^3
# Si number density = 20.732205 Si / 1000 Ang^3
#
#
#
# Elastic Constant Matrix: (Units=GPa)
#
#
# Indices 1 2 3 4 5 6 
#
# 1 37.1872 -1.4810 85.9191 0.0000 0.0000 0.0000
# 2 -1.4810 82.6947 13.6630 0.0000 0.0000 0.0000
# 3 85.9191 13.6630 315.0758 0.0000 0.0000 0.0000
# 4 0.0000 0.0000 0.0000 -4.7191 0.0000 0.0000
# 5 0.0000 0.0000 0.0000 0.0000 -31.5784 0.0000
# 6 0.0000 0.0000 0.0000 0.0000 0.0000 6.0330
#
#
#
# Elastic Compliance Matrix: (Units=1/GPa)
#
#
# Indices 1 2 3 4 5 6 
#
# 1 0.074475 0.004723 -0.020514 0.000000 0.000000 0.000000
# 2 0.004723 0.012479 -0.001829 0.000000 0.000000 0.000000
# 3 -0.020514 -0.001829 0.008847 0.000000 0.000000 0.000000
# 4 0.000000 0.000000 0.000000 -0.211905 0.000000 0.000000
# 5 0.000000 0.000000 0.000000 0.000000 -0.031667 0.000000
# 6 0.000000 0.000000 0.000000 0.000000 0.000000 0.165756
#
#
# Mechanical properties :
#
#
# Convention : Reuss Voigt Hill
#
# Bulk Modulus (GPa) = 16.51200 70.12889 43.32045
# Shear Modulus (GPa) = 68.10965 16.40420 42.25693
#
# Velocity S-wave (km/s) = 5.73789 2.81596 4.51957
# Velocity P-wave (km/s) = 7.20275 6.66876 6.94089
#
# Compressibility (1/GPa) = 0.06056200
#
# Stress axis : x y z
#
# Youngs Moduli (GPa) = 13.42737 80.13161 113.03160
#
# Poissons Ratio (x) = -0.37847 2.31868
# Poissons Ratio (y) = -0.06342 0.20675
# Poissons Ratio (z) = 0.27544 0.14657
#
# Static dielectric constant tensor:
#      x y z
#    x 1.687160 0.000000 0.000000 
#    y 0.000000 1.796270 0.000000 
#    z 0.000000 0.000000 1.825410 
# 
# From -- ./inp_files/76763.got.cif
#   From: 2010.05.17/outbox.cif.g08.bks.cpg/sg65_39_cif.got.tgz:76763.got - 2010.06.03 17:01:31.
