data_PCOD9484017
_publ_section_title
;
Structure prediction by ZEFSAII (Michael W. Deem and Ramdas Pophale) SiO2 
 PCOD9484017
Probable space group: C M M M
;
_chemical_formula_sum "Si O2"
_cell_formula_units_Z 54
_cell_length_a 9.785706
_cell_length_b 26.545191
_cell_length_c 11.521860
_cell_angle_alpha 90.000000
_cell_angle_beta 90.000000
_cell_angle_gamma 90.000000
_cell_volume 2992.957929
_symmetry_space_group_name_H-M "C M M M"
_symmetry_group_IT_number 65
_symmetry_cell_setting 'orthorhombic'
loop_
_space_group_symop_operation_xyz
x,y,z
-x,-y,z
x,-y,-z
-x,y,-z
-x,-y,-z
x,y,-z
-x,y,z
x,-y,z
1/2+x,1/2+y,z
1/2-x,1/2-y,z
1/2+x,1/2-y,-z
1/2-x,1/2+y,-z
1/2-x,1/2-y,-z
1/2+x,1/2+y,-z
1/2-x,1/2+y,z
1/2+x,1/2-y,z
loop_
_atom_site_type_symbol
_atom_site_label
_atom_site_fract_x
_atom_site_fract_y
_atom_site_fract_z
Si Si1 0.273840 0.863117 0.254134
Si Si2 0.500000 0.249386 0.000000
Si Si3 0.000000 0.555194 0.756774
Si Si4 0.656675 0.348071 0.000000
Si Si5 0.500000 0.783109 0.744792
Si Si6 0.000000 0.828464 0.363614
Si Si7 0.500000 0.000000 0.000000
O O1 0.367554 0.911773 0.273553
O O2 0.233492 0.861538 0.117808
O O3 0.366198 0.814778 0.288261
O O4 0.133708 0.858585 0.323550
O O5 0.627182 0.288137 0.000000
O O6 0.500000 0.217990 0.115781
O O7 0.000000 0.500000 0.700217
O O8 0.000000 0.543033 0.895159
O O9 0.500000 0.369564 0.000000
O O10 0.500000 0.725968 0.700640
O O11 0.000000 0.819796 0.500000
#
# Coordination Sequence:
#
# PCOD9484017 Si02
#       7
#    16   4   8   8   8   8   2
#     4  11  21  38  58  84 121 158 188 236 292 345
#     4  10  18  31  48  84 122 156 188 227 274 354
#     4   9  21  39  63  88 118 142 185 234 295 361
#     4  10  18  30  53  83 119 157 188 224 280 361
#     4  11  22  34  56  84 119 163 197 228 281 344
#     4  12  25  39  57  83 119 157 205 247 281 331
#     4   8  16  38  64  98 118 144 172 236 308 350
#
# _framework density 18.042352000000001
#
# number of rings (size 3 to 8) (size 9 to 14) (size 15 to 20)
#    0.889    0.593    4.444    2.667    0.000    5.926 
#    0.000    2.963    0.000    4.444    0.000    0.000 
#    0.000    0.000    0.000    0.000    0.000    0.000 
#
# Total GULP energy -150333.704822 kJ/mol
# GULP energy per Si atom -5567.914993 kJ/mol
# Density = 1.800129 g / cm^3
# Si number density = 18.042352 Si / 1000 Ang^3
#
#
#
# Elastic Constant Matrix: (Units=GPa)
#
#
# Indices 1 2 3 4 5 6 
#
# 1 150.1112 65.1337 26.7656 0.0000 0.0000 0.0000
# 2 65.1337 105.3916 4.9327 0.0000 0.0000 0.0000
# 3 26.7656 4.9327 57.5550 0.0000 0.0000 0.0000
# 4 0.0000 0.0000 0.0000 -5.6839 0.0000 0.0000
# 5 0.0000 0.0000 0.0000 0.0000 -11.3806 0.0000
# 6 0.0000 0.0000 0.0000 0.0000 0.0000 -44.9260
#
#
#
# Elastic Compliance Matrix: (Units=1/GPa)
#
#
# Indices 1 2 3 4 5 6 
#
# 1 0.009996 -0.005984 -0.004136 0.000000 0.000000 0.000000
# 2 -0.005984 0.013109 0.001659 0.000000 0.000000 0.000000
# 3 -0.004136 0.001659 0.019156 0.000000 0.000000 0.000000
# 4 0.000000 0.000000 0.000000 -0.175935 0.000000 0.000000
# 5 0.000000 0.000000 0.000000 0.000000 -0.087868 0.000000
# 6 0.000000 0.000000 0.000000 0.000000 0.000000 -0.022259
#
#
# Mechanical properties :
#
#
# Convention : Reuss Voigt Hill
#
# Bulk Modulus (GPa) = 39.46345 56.30242 47.88293
# Shear Modulus (GPa) = -22.89008 2.01693 -10.43657
#
# Velocity S-wave (km/s) = -3.56573 1.05845 -2.40771
# Velocity P-wave (km/s) = 2.22882 5.72426 4.34366
#
# Compressibility (1/GPa) = 0.02533990
#
# Stress axis : x y z
#
# Youngs Moduli (GPa) = 100.04482 76.28426 52.20380
#
# Poissons Ratio (x) = 0.45647 0.21589
# Poissons Ratio (y) = 0.59865 -0.08662
# Poissons Ratio (z) = 0.41374 -0.12658
#
# Static dielectric constant tensor:
#      x y z
#    x 1.651000 0.000000 0.000000 
#    y 0.000000 1.607810 0.000000 
#    z 0.000000 0.000000 1.604130 
# 
# From -- ./inp_files/20409.got.cif
#   From: 2010.05.17/outbox.cif.g08.bks.cpg/sg65_11_cif.got.tgz:20409.got - 2010.06.03 17:01:31.
