data_PCOD9484493
_publ_section_title
;
Structure prediction by ZEFSAII (Michael W. Deem and Ramdas Pophale) SiO2 
 PCOD9484493
Probable space group: C M M M
;
_chemical_formula_sum "Si O2"
_cell_formula_units_Z 120
_cell_length_a 18.957472
_cell_length_b 20.689078
_cell_length_c 18.935211
_cell_angle_alpha 90.000000
_cell_angle_beta 90.000000
_cell_angle_gamma 90.000000
_cell_volume 7426.628658
_symmetry_space_group_name_H-M "C M M M"
_symmetry_group_IT_number 65
_symmetry_cell_setting 'orthorhombic'
loop_
_space_group_symop_operation_xyz
x,y,z
-x,-y,z
x,-y,-z
-x,y,-z
-x,-y,-z
x,y,-z
-x,y,z
x,-y,z
1/2+x,1/2+y,z
1/2-x,1/2-y,z
1/2+x,1/2-y,-z
1/2-x,1/2+y,-z
1/2-x,1/2-y,-z
1/2+x,1/2+y,-z
1/2-x,1/2+y,z
1/2+x,1/2-y,z
loop_
_atom_site_type_symbol
_atom_site_label
_atom_site_fract_x
_atom_site_fract_y
_atom_site_fract_z
Si Si1 0.840934 0.620682 0.349143
Si Si2 0.417204 0.241950 0.417246
Si Si3 0.194049 0.574480 0.194168
Si Si4 0.917479 0.233394 0.918127
Si Si5 0.581492 0.111068 0.082004
Si Si6 0.300761 0.687180 0.187904
Si Si7 0.418851 0.000000 0.415773
Si Si8 0.798439 0.813954 0.353389
O O1 0.885961 0.684132 0.369369
O O2 0.837428 0.606008 0.265783
O O3 0.878244 0.562159 0.387829
O O4 0.758752 0.630873 0.370578
O O5 0.409125 0.224553 0.500000
O O6 0.500000 0.252058 0.403461
O O7 0.367621 0.303192 0.399790
O O8 0.214699 0.500000 0.207601
O O9 0.134850 0.577314 0.134343
O O10 0.257410 0.622018 0.171690
O O11 0.910330 0.311145 0.910003
O O12 0.866534 0.198597 0.863139
O O13 0.000000 0.217977 0.907025
O O14 0.899711 0.218332 0.000000
O O15 0.500000 0.095166 0.097472
O O16 0.594977 0.095422 0.000000
O O17 0.250000 0.750000 0.180015
O O18 0.319541 0.682984 0.271011
O O19 0.500000 0.000000 0.390571
O O20 0.419753 0.000000 0.500000
O O21 0.750000 0.750000 0.362014
#
# Coordination Sequence:
#
# PCOD9484493 Si02
#       8
#    16  16  16  16  16  16   8  16
#     4  10  20  36  50  70 103 141 173 204 250 307
#     4  10  20  33  51  78 107 131 163 214 264 305
#     4  11  22  36  52  74 105 141 176 216 258 303
#     4   9  18  32  52  79 106 133 169 215 265 314
#     4   9  19  34  50  73 106 140 174 210 250 304
#     4  10  18  33  53  77 101 132 175 220 259 301
#     4  11  22  34  50  74 102 134 176 215 244 290
#     4   8  18  32  49  71  99 132 168 207 254 307
#
# _framework density 16.158072000000001
#
# number of rings (size 3 to 8) (size 9 to 14) (size 15 to 20)
#    0.000    2.333    2.000    2.400    0.000    6.933 
#    0.000    0.667    0.000    0.400    0.000    1.400 
#    0.000    1.600    0.000    0.000    0.000    0.000 
#
# Total GULP energy -334419.349666 kJ/mol
# GULP energy per Si atom -5573.655828 kJ/mol
# Density = 1.612130 g / cm^3
# Si number density = 16.158072 Si / 1000 Ang^3
#
#
#
# Elastic Constant Matrix: (Units=GPa)
#
#
# Indices 1 2 3 4 5 6 
#
# 1 102.4247 46.6118 52.9842 0.0000 0.0000 0.0000
# 2 46.6118 59.7619 27.0956 0.0000 0.0000 0.0000
# 3 52.9842 27.0956 44.6305 0.0000 0.0000 0.0000
# 4 0.0000 0.0000 0.0000 19.1566 0.0000 0.0000
# 5 0.0000 0.0000 0.0000 0.0000 34.9143 0.0000
# 6 0.0000 0.0000 0.0000 0.0000 0.0000 36.4783
#
#
#
# Elastic Compliance Matrix: (Units=1/GPa)
#
#
# Indices 1 2 3 4 5 6 
#
# 1 0.028814 -0.009609 -0.028373 0.000000 0.000000 0.000000
# 2 -0.009609 0.026293 -0.004555 0.000000 0.000000 0.000000
# 3 -0.028373 -0.004555 0.058855 0.000000 0.000000 0.000000
# 4 0.000000 0.000000 0.000000 0.052201 0.000000 0.000000
# 5 0.000000 0.000000 0.000000 0.000000 0.028642 0.000000
# 6 0.000000 0.000000 0.000000 0.000000 0.000000 0.027414
#
#
# Mechanical properties :
#
#
# Convention : Reuss Voigt Hill
#
# Bulk Modulus (GPa) = 34.61677 51.13336 42.87507
# Shear Modulus (GPa) = 15.77679 23.45156 19.61417
#
# Velocity S-wave (km/s) = 3.12813 3.81384 3.48788
# Velocity P-wave (km/s) = 5.87514 7.14900 6.54315
#
# Compressibility (1/GPa) = 0.02888773
#
# Stress axis : x y z
#
# Youngs Moduli (GPa) = 34.70580 38.03290 16.99088
#
# Poissons Ratio (x) = 0.36547 0.48208
# Poissons Ratio (y) = 0.33350 0.07739
# Poissons Ratio (z) = 0.98471 0.17323
#
# Static dielectric constant tensor:
#      x y z
#    x 1.537440 0.000000 0.000000 
#    y 0.000000 1.555170 0.000000 
#    z 0.000000 0.000000 1.542920 
# 
# From -- ./inp_files/54946.got.cif
#   From: 2010.05.17/outbox.cif.g08.bks.cpg/sg65_28_cif.got.tgz:54946.got - 2010.06.03 17:01:31.
