data_PCOD9484210
_publ_section_title
;
Structure prediction by ZEFSAII (Michael W. Deem and Ramdas Pophale) SiO2 
 PCOD9484210
Probable space group: C M M M
;
_chemical_formula_sum "Si O2"
_cell_formula_units_Z 88
_cell_length_a 24.260989
_cell_length_b 8.656037
_cell_length_c 23.186533
_cell_angle_alpha 90.000000
_cell_angle_beta 90.000000
_cell_angle_gamma 90.000000
_cell_volume 4869.265104
_symmetry_space_group_name_H-M "C M M M"
_symmetry_group_IT_number 65
_symmetry_cell_setting 'orthorhombic'
loop_
_space_group_symop_operation_xyz
x,y,z
-x,-y,z
x,-y,-z
-x,y,-z
-x,-y,-z
x,y,-z
-x,y,z
x,-y,z
1/2+x,1/2+y,z
1/2-x,1/2-y,z
1/2+x,1/2-y,-z
1/2-x,1/2+y,-z
1/2-x,1/2-y,-z
1/2+x,1/2+y,-z
1/2-x,1/2+y,z
1/2+x,1/2-y,z
loop_
_atom_site_type_symbol
_atom_site_label
_atom_site_fract_x
_atom_site_fract_y
_atom_site_fract_z
Si Si1 0.811591 0.313733 0.221996
Si Si2 0.117694 0.185988 0.327046
Si Si3 0.000000 0.824678 0.288820
Si Si4 0.500000 0.835044 0.180692
Si Si5 0.063693 0.314542 0.567824
Si Si6 0.614056 0.824637 0.886067
Si Si7 0.935026 0.183377 0.000000
O O1 0.812613 0.500000 0.222864
O O2 0.750000 0.250000 0.218367
O O3 0.839080 0.254361 0.281661
O O4 0.845669 0.263281 0.164559
O O5 0.111504 0.238215 0.393429
O O6 0.057872 0.246479 0.305792
O O7 0.120974 0.000000 0.323621
O O8 0.000000 0.813583 0.220371
O O9 0.000000 0.000000 0.310317
O O10 0.445519 0.833734 0.143642
O O11 0.500000 0.000000 0.214315
O O12 0.071247 0.282093 0.500000
O O13 0.065202 0.500000 0.575577
O O14 0.000000 0.263412 0.582102
O O15 0.600341 0.734930 0.944420
O O16 0.632244 0.000000 0.900333
O O17 0.000000 0.243196 0.000000
O O18 0.939572 0.000000 0.000000
#
# Coordination Sequence:
#
# PCOD9484210 Si02
#       7
#    16  16   8   8  16  16   8
#     4  11  24  42  62  84 109 146 193 242 289 335
#     4  11  21  34  54  83 117 152 188 232 284 339
#     4  10  20  30  46  80 118 147 178 224 283 336
#     4  10  18  31  53  81 110 144 181 223 277 338
#     4   9  18  32  51  79 117 158 195 231 276 335
#     4  10  21  37  58  82 112 148 185 224 274 335
#     4  11  23  35  54  87 122 151 180 220 275 334
#
# _framework density 18.072543
#
# number of rings (size 3 to 8) (size 9 to 14) (size 15 to 20)
#    0.000    1.727    3.636    1.909    0.000    3.636 
#    0.000    1.364    0.000    0.545    0.000    0.000 
#    0.000    0.000    0.000    0.000    0.000    0.000 
#
# Total GULP energy -244951.741108 kJ/mol
# GULP energy per Si atom -5567.085025 kJ/mol
# Density = 1.803141 g / cm^3
# Si number density = 18.072543 Si / 1000 Ang^3
#
#
#
# Elastic Constant Matrix: (Units=GPa)
#
#
# Indices 1 2 3 4 5 6 
#
# 1 115.6188 28.4105 66.1510 0.0000 0.0000 0.0000
# 2 28.4105 51.0600 46.4337 0.0000 0.0000 0.0000
# 3 66.1510 46.4337 129.2270 0.0000 0.0000 0.0000
# 4 0.0000 0.0000 0.0000 19.3940 0.0000 0.0000
# 5 0.0000 0.0000 0.0000 0.0000 224.8300 0.0000
# 6 0.0000 0.0000 0.0000 0.0000 0.0000 -2.7029
#
#
#
# Elastic Compliance Matrix: (Units=1/GPa)
#
#
# Indices 1 2 3 4 5 6 
#
# 1 0.012326 -0.001664 -0.005712 0.000000 0.000000 0.000000
# 2 -0.001664 0.029315 -0.009682 0.000000 0.000000 0.000000
# 3 -0.005712 -0.009682 0.014141 0.000000 0.000000 0.000000
# 4 0.000000 0.000000 0.000000 0.051562 0.000000 0.000000
# 5 0.000000 0.000000 0.000000 0.000000 0.004448 0.000000
# 6 0.000000 0.000000 0.000000 0.000000 0.000000 -0.369971
#
#
# Mechanical properties :
#
#
# Convention : Reuss Voigt Hill
#
# Bulk Modulus (GPa) = 46.15289 64.21068 55.18178
# Shear Modulus (GPa) = -23.05831 58.63158 17.78663
#
# Velocity S-wave (km/s) = -3.57581 5.70200 3.14057
# Velocity P-wave (km/s) = 2.92308 8.88577 6.61443
#
# Compressibility (1/GPa) = 0.02166712
#
# Stress axis : x y z
#
# Youngs Moduli (GPa) = 81.12958 34.11205 70.71696
#
# Poissons Ratio (x) = 0.05677 0.40391
# Poissons Ratio (y) = 0.13502 0.68465
# Poissons Ratio (z) = 0.46338 0.33026
#
# Static dielectric constant tensor:
#      x y z
#    x 1.608010 0.000000 0.000000 
#    y 0.000000 1.668220 0.000000 
#    z 0.000000 0.000000 1.689730 
# 
# From -- ./inp_files/65244.got.cif
#   From: 2010.05.17/outbox.cif.g08.bks.cpg/sg65_33_cif.got.tgz:65244.got - 2010.06.03 17:01:31.
