data_PCOD9484148
_publ_section_title
;
Structure prediction by ZEFSAII (Michael W. Deem and Ramdas Pophale) SiO2 
 PCOD9484148
Probable space group: C M M M
;
_chemical_formula_sum "Si O2"
_cell_formula_units_Z 104
_cell_length_a 22.130209
_cell_length_b 28.627545
_cell_length_c 7.366619
_cell_angle_alpha 90.000000
_cell_angle_beta 90.000000
_cell_angle_gamma 90.000000
_cell_volume 4667.000316
_symmetry_space_group_name_H-M "C M M M"
_symmetry_group_IT_number 65
_symmetry_cell_setting 'orthorhombic'
loop_
_space_group_symop_operation_xyz
x,y,z
-x,-y,z
x,-y,-z
-x,y,-z
-x,-y,-z
x,y,-z
-x,y,z
x,-y,z
1/2+x,1/2+y,z
1/2-x,1/2-y,z
1/2+x,1/2-y,-z
1/2-x,1/2+y,-z
1/2-x,1/2-y,-z
1/2+x,1/2+y,-z
1/2-x,1/2+y,z
1/2+x,1/2-y,z
loop_
_atom_site_type_symbol
_atom_site_label
_atom_site_fract_x
_atom_site_fract_y
_atom_site_fract_z
Si Si1 0.377071 0.807114 0.782417
Si Si2 0.198561 0.779226 0.296609
Si Si3 0.866471 0.586910 0.291059
Si Si4 0.264842 0.553400 0.279188
Si Si5 0.500000 0.236029 0.216569
Si Si6 0.500000 0.055652 0.718232
Si Si7 0.500000 0.653084 0.711157
Si Si8 0.365822 0.628166 0.277387
O O1 0.349240 0.761573 0.693294
O O2 0.356810 0.857428 0.716611
O O3 0.445465 0.797390 0.735868
O O4 0.368333 0.805431 0.000000
O O5 0.220631 0.792580 0.500000
O O6 0.250000 0.750000 0.197653
O O7 0.168867 0.824870 0.217207
O O8 0.869019 0.570462 0.500000
O O9 0.803363 0.566283 0.214856
O O10 0.934191 0.575375 0.215487
O O11 0.262918 0.557364 0.500000
O O12 0.277253 0.500000 0.231283
O O13 0.320995 0.586287 0.222361
O O14 0.500000 0.289858 0.282844
O O15 0.500000 0.242615 0.000000
O O16 0.500000 0.063730 0.500000
O O17 0.500000 0.000000 0.752018
O O18 0.500000 0.640121 0.500000
O O19 0.564114 0.633012 0.784132
O O20 0.367978 0.628799 0.500000
#
# Coordination Sequence:
#
# PCOD9484148 Si02
#       8
#    16  16  16  16   8   8   8  16
#     4  11  22  34  49  72 105 140 174 213 256 307
#     4  10  19  32  51  74 102 136 173 213 256 312
#     4  10  19  32  52  77 105 139 176 216 263 313
#     4   9  17  31  52  77 105 135 167 210 267 322
#     4  10  21  35  49  70 103 141 178 211 253 310
#     4   9  17  30  51  80 105 128 175 234 273 310
#     4  10  18  31  52  74  99 133 173 217 262 306
#     4   9  17  29  47  74 102 131 171 215 259 312
#
# _framework density 22.284120999999999
#
# number of rings (size 3 to 8) (size 9 to 14) (size 15 to 20)
#    0.000    2.231    1.538    2.308    0.000    5.231 
#    0.000    0.385    0.000    4.615    0.000    0.000 
#    0.000    0.615    0.000    0.000    0.000    0.000 
#
# Total GULP energy -289708.342836 kJ/mol
# GULP energy per Si atom -5571.314285 kJ/mol
# Density = 2.223340 g / cm^3
# Si number density = 22.284121 Si / 1000 Ang^3
#
#
#
# Elastic Constant Matrix: (Units=GPa)
#
#
# Indices 1 2 3 4 5 6 
#
# 1 156.7661 90.8457 9.4687 0.0000 0.0000 0.0000
# 2 90.8457 161.7673 -4.1414 0.0000 0.0000 0.0000
# 3 9.4687 -4.1414 78.1896 0.0000 0.0000 0.0000
# 4 0.0000 0.0000 0.0000 -151.5464 0.0000 0.0000
# 5 0.0000 0.0000 0.0000 0.0000 -7.4192 0.0000
# 6 0.0000 0.0000 0.0000 0.0000 0.0000 54.1526
#
#
#
# Elastic Compliance Matrix: (Units=1/GPa)
#
#
# Indices 1 2 3 4 5 6 
#
# 1 0.009618 -0.005439 -0.001453 0.000000 0.000000 0.000000
# 2 -0.005439 0.009265 0.001149 0.000000 0.000000 0.000000
# 3 -0.001453 0.001149 0.013026 0.000000 0.000000 0.000000
# 4 0.000000 0.000000 0.000000 -0.006599 0.000000 0.000000
# 5 0.000000 0.000000 0.000000 0.000000 -0.134785 0.000000
# 6 0.000000 0.000000 0.000000 0.000000 0.000000 0.018466
#
#
# Mechanical properties :
#
#
# Convention : Reuss Voigt Hill
#
# Bulk Modulus (GPa) = 48.95796 65.45213 57.20505
# Shear Modulus (GPa) = -68.76208 -0.92595 -34.84402
#
# Velocity S-wave (km/s) = -5.56093 -0.64531 -3.95856
# Velocity P-wave (km/s) = 4.38342 5.37403 2.19839
#
# Compressibility (1/GPa) = 0.02042569
#
# Stress axis : x y z
#
# Youngs Moduli (GPa) = 103.96719 107.92793 76.76815
#
# Poissons Ratio (x) = 0.58699 0.11153
# Poissons Ratio (y) = 0.56545 -0.08824
# Poissons Ratio (z) = 0.15105 -0.12405
#
# Static dielectric constant tensor:
#      x y z
#    x 1.483790 0.000000 0.000000 
#    y 0.000000 1.709490 0.000000 
#    z 0.000000 0.000000 1.892780 
# 
# From -- ./inp_files/12884.got.cif
#   From: 2010.05.17/outbox.cif.g08.bks.cpg/sg65_7_cif.got.tgz:12884.got - 2010.06.03 17:01:31.
