data_PCOD9484224
_publ_section_title
;
Structure prediction by ZEFSAII (Michael W. Deem and Ramdas Pophale) SiO2 
 PCOD9484224
Probable space group: C M M M
;
_chemical_formula_sum "Si O2"
_cell_formula_units_Z 104
_cell_length_a 26.258899
_cell_length_b 8.576581
_cell_length_c 26.888558
_cell_angle_alpha 90.000000
_cell_angle_beta 90.000000
_cell_angle_gamma 90.000000
_cell_volume 6055.614476
_symmetry_space_group_name_H-M "C M M M"
_symmetry_group_IT_number 65
_symmetry_cell_setting 'orthorhombic'
loop_
_space_group_symop_operation_xyz
x,y,z
-x,-y,z
x,-y,-z
-x,y,-z
-x,-y,-z
x,y,-z
-x,y,z
x,-y,z
1/2+x,1/2+y,z
1/2-x,1/2-y,z
1/2+x,1/2-y,-z
1/2-x,1/2+y,-z
1/2-x,1/2-y,-z
1/2+x,1/2+y,-z
1/2-x,1/2+y,z
1/2+x,1/2-y,z
loop_
_atom_site_type_symbol
_atom_site_label
_atom_site_fract_x
_atom_site_fract_y
_atom_site_fract_z
Si Si1 0.194018 0.186637 0.666045
Si Si2 0.440797 0.190155 0.500000
Si Si3 0.601095 0.186558 0.843961
Si Si4 0.805985 0.813360 0.219448
Si Si5 0.000000 0.310010 0.670767
Si Si6 0.598353 0.188708 0.392861
Si Si7 0.940771 0.188021 0.056494
Si Si8 0.000000 0.309882 0.214940
O O1 0.250000 0.250000 0.653249
O O2 0.182945 0.236207 0.723314
O O3 0.150362 0.248805 0.630044
O O4 0.194997 0.000000 0.664704
O O5 0.500000 0.239428 0.500000
O O6 0.413275 0.239277 0.550702
O O7 0.441469 0.000000 0.500000
O O8 0.650905 0.251535 0.817180
O O9 0.593564 0.241371 0.900445
O O10 0.550841 0.240914 0.813664
O O11 0.602402 0.000000 0.842243
O O12 0.750000 0.750000 0.206779
O O13 0.805099 0.000000 0.218132
O O14 0.949365 0.261344 0.641413
O O15 0.000000 0.500000 0.670841
O O16 0.000000 0.257813 0.727854
O O17 0.599791 0.000000 0.392240
O O18 0.000000 0.234560 0.064788
O O19 0.938868 0.000000 0.059118
O O20 0.927104 0.233708 0.000000
O O21 0.000000 0.500000 0.214932
#
# Coordination Sequence:
#
# PCOD9484224 Si02
#       8
#    16   8  16  16   8  16  16   8
#     4  10  21  37  56  78 105 136 176 219 265 317
#     4   9  16  30  52  81 108 135 178 218 255 310
#     4  11  20  32  51  78 112 143 176 220 264 315
#     4  10  21  37  56  78 104 139 179 220 265 318
#     4   9  16  27  47  73 103 138 173 206 249 310
#     4  10  18  31  54  79 105 138 175 217 261 310
#     4   9  18  33  52  74 104 144 186 225 267 314
#     4   9  18  28  41  72 110 139 167 206 259 310
#
# _framework density 17.174146
#
# number of rings (size 3 to 8) (size 9 to 14) (size 15 to 20)
#    0.000    2.231    1.538    2.769    0.000    3.385 
#    0.000    1.923    0.000    3.692    0.000    0.000 
#    0.000    0.000    0.000    0.000    0.000    0.000 
#
# Total GULP energy -290219.668579 kJ/mol
# GULP energy per Si atom -5581.147473 kJ/mol
# Density = 1.713506 g / cm^3
# Si number density = 17.174146 Si / 1000 Ang^3
#
#
#
# Elastic Constant Matrix: (Units=GPa)
#
#
# Indices 1 2 3 4 5 6 
#
# 1 151.9324 35.2868 110.4108 0.0000 0.0000 0.0000
# 2 35.2868 26.4863 34.0881 0.0000 0.0000 0.0000
# 3 110.4108 34.0881 161.4473 0.0000 0.0000 0.0000
# 4 0.0000 0.0000 0.0000 20.1341 0.0000 0.0000
# 5 0.0000 0.0000 0.0000 0.0000 22.6042 0.0000
# 6 0.0000 0.0000 0.0000 0.0000 0.0000 20.6920
#
#
#
# Elastic Compliance Matrix: (Units=1/GPa)
#
#
# Indices 1 2 3 4 5 6 
#
# 1 0.014495 -0.008998 -0.008013 0.000000 0.000000 0.000000
# 2 -0.008998 0.057429 -0.005972 0.000000 0.000000 0.000000
# 3 -0.008013 -0.005972 0.012935 0.000000 0.000000 0.000000
# 4 0.000000 0.000000 0.000000 0.049667 0.000000 0.000000
# 5 0.000000 0.000000 0.000000 0.000000 0.044240 0.000000
# 6 0.000000 0.000000 0.000000 0.000000 0.000000 0.048328
#
#
# Mechanical properties :
#
#
# Convention : Reuss Voigt Hill
#
# Bulk Modulus (GPa) = 25.71171 77.71527 51.71349
# Shear Modulus (GPa) = 17.48110 23.35809 20.41959
#
# Velocity S-wave (km/s) = 3.19387 3.69192 3.45189
# Velocity P-wave (km/s) = 5.34834 7.97015 6.78705
#
# Compressibility (1/GPa) = 0.03889278
#
# Stress axis : x y z
#
# Youngs Moduli (GPa) = 68.99071 17.41271 77.31170
#
# Poissons Ratio (x) = 0.15668 0.61948
# Poissons Ratio (y) = 0.62080 0.46170
# Poissons Ratio (z) = 0.55281 0.10399
#
# Static dielectric constant tensor:
#      x y z
#    x 1.547690 0.000000 0.000000 
#    y 0.000000 1.582450 0.000000 
#    z 0.000000 0.000000 1.578220 
# 
# From -- ./inp_files/71935.got.cif
#   From: 2010.05.17/outbox.cif.g08.bks.cpg/sg65_36_cif.got.tgz:71935.got - 2010.06.03 17:01:31.
