data_PCOD9484616
_publ_section_title
;
Structure prediction by ZEFSAII (Michael W. Deem and Ramdas Pophale) SiO2 
 PCOD9484616
Probable space group: C M M M
;
_chemical_formula_sum "Si O2"
_cell_formula_units_Z 52
_cell_length_a 24.717908
_cell_length_b 14.837664
_cell_length_c 7.583493
_cell_angle_alpha 90.000000
_cell_angle_beta 90.000000
_cell_angle_gamma 90.000000
_cell_volume 2781.291663
_symmetry_space_group_name_H-M "C M M M"
_symmetry_group_IT_number 65
_symmetry_cell_setting 'orthorhombic'
loop_
_space_group_symop_operation_xyz
x,y,z
-x,-y,z
x,-y,-z
-x,y,-z
-x,-y,-z
x,y,-z
-x,y,z
x,-y,z
1/2+x,1/2+y,z
1/2-x,1/2-y,z
1/2+x,1/2-y,-z
1/2-x,1/2+y,-z
1/2-x,1/2-y,-z
1/2+x,1/2+y,-z
1/2-x,1/2+y,z
1/2+x,1/2-y,z
loop_
_atom_site_type_symbol
_atom_site_label
_atom_site_fract_x
_atom_site_fract_y
_atom_site_fract_z
Si Si1 0.641715 0.000000 0.286810
Si Si2 0.803887 0.195411 0.286012
Si Si3 0.000000 0.283711 0.500000
Si Si4 0.232581 0.000000 0.714936
Si Si5 0.409394 0.191964 0.802919
O O1 0.612120 0.089945 0.223766
O O2 0.640780 0.000000 0.500000
O O3 0.704523 0.000000 0.230324
O O4 0.806276 0.198074 0.500000
O O5 0.750000 0.250000 0.233796
O O6 0.857267 0.243608 0.217449
O O7 0.796274 0.092003 0.229685
O O8 0.047205 0.286861 0.653986
O O9 0.233170 0.000000 0.500000
O O10 0.431317 0.201159 0.000000
#
# Coordination Sequence:
#
# PCOD9484616 Si02
#       5
#     8  16   4   8  16
#     4  11  19  39  62  93 131 171 199 250 311 371
#     4  10  18  36  63  95 130 167 203 249 314 377
#     4  12  26  49  64  83 124 172 218 265 314 357
#     4   9  18  31  63  96 132 172 200 237 314 388
#     4  12  25  41  65  93 124 165 215 261 311 371
#
# _framework density 18.696348
#
# number of rings (size 3 to 8) (size 9 to 14) (size 15 to 20)
#    0.000    1.231    6.154    0.923    0.000    1.846 
#    0.000    2.308    0.000    1.846    0.000    2.154 
#    0.000    0.000    0.000    0.000    0.000    0.000 
#
# Total GULP energy -144805.852331 kJ/mol
# GULP energy per Si atom -5569.455859 kJ/mol
# Density = 1.865379 g / cm^3
# Si number density = 18.696348 Si / 1000 Ang^3
#
#
#
# Elastic Constant Matrix: (Units=GPa)
#
#
# Indices 1 2 3 4 5 6 
#
# 1 151.9250 55.6332 63.6585 0.0000 0.0000 0.0000
# 2 55.6332 122.1220 30.6935 0.0000 0.0000 0.0000
# 3 63.6585 30.6935 146.7614 0.0000 0.0000 0.0000
# 4 0.0000 0.0000 0.0000 7.7303 0.0000 0.0000
# 5 0.0000 0.0000 0.0000 0.0000 -60.9472 0.0000
# 6 0.0000 0.0000 0.0000 0.0000 0.0000 -5.0602
#
#
#
# Elastic Compliance Matrix: (Units=1/GPa)
#
#
# Indices 1 2 3 4 5 6 
#
# 1 0.009188 -0.003361 -0.003283 0.000000 0.000000 0.000000
# 2 -0.003361 0.009872 -0.000607 0.000000 0.000000 0.000000
# 3 -0.003283 -0.000607 0.008365 0.000000 0.000000 0.000000
# 4 0.000000 0.000000 0.000000 0.129362 0.000000 0.000000
# 5 0.000000 0.000000 0.000000 0.000000 -0.016408 0.000000
# 6 0.000000 0.000000 0.000000 0.000000 0.000000 -0.197619
#
#
# Mechanical properties :
#
#
# Convention : Reuss Voigt Hill
#
# Bulk Modulus (GPa) = 77.37282 80.08655 78.72968
# Shear Modulus (GPa) = -130.10206 6.39944 -61.85131
#
# Velocity S-wave (km/s) = -8.35093 1.85210 -5.75794
# Velocity P-wave (km/s) = 7.17706 6.89217 1.41565
#
# Compressibility (1/GPa) = 0.01292444
#
# Stress axis : x y z
#
# Youngs Moduli (GPa) = 108.83382 101.29588 119.55207
#
# Poissons Ratio (x) = 0.34043 0.39244
# Poissons Ratio (y) = 0.36576 0.07256
# Poissons Ratio (z) = 0.35726 0.06148
#
# Static dielectric constant tensor:
#      x y z
#    x 1.593290 0.000000 0.000000 
#    y 0.000000 1.631010 0.000000 
#    z 0.000000 0.000000 1.676760 
# 
# From -- ./inp_files/6498.got.cif
#   From: 2010.05.17/outbox.cif.g08.bks.cpg/sg65_4_cif.got.tgz:6498.got - 2010.06.03 17:01:31.
