data_PCOD9484623
_publ_section_title
;
Structure prediction by ZEFSAII (Michael W. Deem and Ramdas Pophale) SiO2 
 PCOD9484623
Probable space group: C M M M
;
_chemical_formula_sum "Si O2"
_cell_formula_units_Z 64
_cell_length_a 15.968874
_cell_length_b 11.337631
_cell_length_c 17.837148
_cell_angle_alpha 90.000000
_cell_angle_beta 90.000000
_cell_angle_gamma 90.000000
_cell_volume 3229.401392
_symmetry_space_group_name_H-M "C M M M"
_symmetry_group_IT_number 65
_symmetry_cell_setting 'orthorhombic'
loop_
_space_group_symop_operation_xyz
x,y,z
-x,-y,z
x,-y,-z
-x,y,-z
-x,-y,-z
x,y,-z
-x,y,z
x,-y,z
1/2+x,1/2+y,z
1/2-x,1/2-y,z
1/2+x,1/2-y,-z
1/2-x,1/2+y,-z
1/2-x,1/2-y,-z
1/2+x,1/2+y,-z
1/2-x,1/2+y,z
1/2+x,1/2-y,z
loop_
_atom_site_type_symbol
_atom_site_label
_atom_site_fract_x
_atom_site_fract_y
_atom_site_fract_z
Si Si1 0.402347 0.753647 0.164416
Si Si2 0.596986 0.500000 0.693848
Si Si3 0.653116 0.746296 0.666311
Si Si4 0.353126 0.000000 0.911327
Si Si5 0.000000 0.361180 0.583671
Si Si6 0.162283 0.000000 0.141378
O O1 0.500000 0.741951 0.183351
O O2 0.353494 0.763778 0.243403
O O3 0.376960 0.630050 0.123083
O O4 0.388969 0.876442 0.120815
O O5 0.500000 0.500000 0.717780
O O6 0.618060 0.616546 0.649976
O O7 0.654075 0.500000 0.768329
O O8 0.750000 0.750000 0.643829
O O9 0.585135 0.828701 0.627316
O O10 0.255399 0.000000 0.889512
O O11 0.364773 0.000000 0.000000
O O12 0.000000 0.500000 0.577048
O O13 0.000000 0.307654 0.500000
#
# Coordination Sequence:
#
# PCOD9484623 Si02
#       6
#    16   8  16   8   8   8
#     4  11  22  40  66  95 124 165 218 274 321 383
#     4  10  18  38  63  99 125 153 215 285 306 365
#     4  11  22  39  68  97 128 168 220 265 320 379
#     4  12  27  42  58  91 131 168 218 274 327 393
#     4  11  26  45  63  95 141 178 212 260 321 386
#     4  10  20  39  62  89 123 161 206 264 331 378
#
# _framework density 19.817914999999999
#
# number of rings (size 3 to 8) (size 9 to 14) (size 15 to 20)
#    0.000    1.125    2.500    6.750    3.500    3.500 
#    0.000    1.250    0.000    4.125    0.000    0.000 
#    0.000    0.000    0.000    0.000    0.000    0.000 
#
# Total GULP energy -178451.459672 kJ/mol
# GULP energy per Si atom -5576.608115 kJ/mol
# Density = 1.977281 g / cm^3
# Si number density = 19.817915 Si / 1000 Ang^3
#
#
#
# Elastic Constant Matrix: (Units=GPa)
#
#
# Indices 1 2 3 4 5 6 
#
# 1 120.8852 37.6928 39.3232 0.0000 0.0000 0.0000
# 2 37.6928 162.0426 39.2896 0.0000 0.0000 0.0000
# 3 39.3232 39.2896 52.6132 0.0000 0.0000 0.0000
# 4 0.0000 0.0000 0.0000 -294.1636 0.0000 0.0000
# 5 0.0000 0.0000 0.0000 0.0000 25.0263 0.0000
# 6 0.0000 0.0000 0.0000 0.0000 0.0000 27.9920
#
#
#
# Elastic Compliance Matrix: (Units=1/GPa)
#
#
# Indices 1 2 3 4 5 6 
#
# 1 0.010992 -0.000690 -0.007701 0.000000 0.000000 0.000000
# 2 -0.000690 0.007579 -0.005144 0.000000 0.000000 0.000000
# 3 -0.007701 -0.005144 0.028604 0.000000 0.000000 0.000000
# 4 0.000000 0.000000 0.000000 -0.003399 0.000000 0.000000
# 5 0.000000 0.000000 0.000000 0.000000 0.039958 0.000000
# 6 0.000000 0.000000 0.000000 0.000000 0.000000 0.035724
#
#
# Mechanical properties :
#
#
# Convention : Reuss Voigt Hill
#
# Bulk Modulus (GPa) = 49.73691 63.12804 56.43247
# Shear Modulus (GPa) = 32.63094 -33.61338 -0.49122
#
# Velocity S-wave (km/s) = 4.06216 -4.12285 -0.49840
# Velocity P-wave (km/s) = 6.86680 3.04291 5.31094
#
# Compressibility (1/GPa) = 0.02010579
#
# Stress axis : x y z
#
# Youngs Moduli (GPa) = 90.97235 131.94456 34.96071
#
# Poissons Ratio (x) = 0.09102 0.26922
# Poissons Ratio (y) = 0.06275 0.17984
# Poissons Ratio (z) = 0.70054 0.67874
#
# Static dielectric constant tensor:
#      x y z
#    x 1.662790 0.000000 0.000000 
#    y 0.000000 1.900070 0.000000 
#    z 0.000000 0.000000 1.671480 
# 
# From -- ./inp_files/52583.got.cif
#   From: 2010.05.17/outbox.cif.g08.bks.cpg/sg65_27_cif.got.tgz:52583.got - 2010.06.03 17:01:31.
