data_PCOD9484124
_publ_section_title
;
Structure prediction by ZEFSAII (Michael W. Deem and Ramdas Pophale) SiO2 
 PCOD9484124
Probable space group: C M M M
;
_chemical_formula_sum "Si O2"
_cell_formula_units_Z 104
_cell_length_a 30.913938
_cell_length_b 7.792479
_cell_length_c 20.733464
_cell_angle_alpha 90.000000
_cell_angle_beta 90.000000
_cell_angle_gamma 90.000000
_cell_volume 4994.612953
_symmetry_space_group_name_H-M "C M M M"
_symmetry_group_IT_number 65
_symmetry_cell_setting 'orthorhombic'
loop_
_space_group_symop_operation_xyz
x,y,z
-x,-y,z
x,-y,-z
-x,y,-z
-x,-y,-z
x,y,-z
-x,y,z
x,-y,z
1/2+x,1/2+y,z
1/2-x,1/2-y,z
1/2+x,1/2-y,-z
1/2-x,1/2+y,-z
1/2-x,1/2-y,-z
1/2+x,1/2+y,-z
1/2-x,1/2+y,z
1/2+x,1/2-y,z
loop_
_atom_site_type_symbol
_atom_site_label
_atom_site_fract_x
_atom_site_fract_y
_atom_site_fract_z
Si Si1 0.796825 0.793045 0.710333
Si Si2 0.635613 0.298989 0.815508
Si Si3 0.587542 0.790479 0.631155
Si Si4 0.000000 0.691897 0.575075
Si Si5 0.701227 0.795220 0.073583
Si Si6 0.450353 0.203468 0.232306
Si Si7 0.178789 0.201141 0.572636
O O1 0.750000 0.750000 0.738446
O O2 0.835580 0.725351 0.755602
O O3 0.798525 0.723481 0.636724
O O4 0.800985 0.000000 0.707379
O O5 0.631497 0.500000 0.803705
O O6 0.665037 0.272157 0.878164
O O7 0.586500 0.232293 0.821331
O O8 0.544765 0.729083 0.594763
O O9 0.575458 0.735566 0.703775
O O10 0.629005 0.716708 0.595321
O O11 0.591947 0.000000 0.628585
O O12 0.000000 0.500000 0.606383
O O13 0.000000 0.672711 0.500000
O O14 0.750000 0.750000 0.094771
O O15 0.697786 0.000000 0.072728
O O16 0.696182 0.730428 0.000000
O O17 0.500000 0.271181 0.226041
O O18 0.454931 0.000000 0.239853
O O19 0.185391 0.273325 0.500000
O O20 0.190366 0.000000 0.568844
#
# Coordination Sequence:
#
# PCOD9484124 Si02
#       7
#    16  16  16   8  16  16  16
#     4  10  22  37  53  77 105 139 184 231 281 335
#     4  11  22  37  59  86 118 155 193 234 282 336
#     4  10  18  31  51  74  98 131 177 228 282 341
#     4   9  16  26  43  69  99 127 164 221 282 337
#     4  10  21  38  62  94 130 163 194 229 273 329
#     4  10  20  35  56  82 112 147 189 237 289 342
#     4  10  21  37  52  68  99 139 178 228 288 343
#
# _framework density 20.822434999999999
#
# number of rings (size 3 to 8) (size 9 to 14) (size 15 to 20)
#    0.000    1.923    2.308    1.846    0.000    5.538 
#    0.000    0.385    0.000    1.846    0.000    3.231 
#    0.000    0.000    0.000    0.000    0.000    0.000 
#
# Total GULP energy -289891.015449 kJ/mol
# GULP energy per Si atom -5574.827220 kJ/mol
# Density = 2.077504 g / cm^3
# Si number density = 20.822435 Si / 1000 Ang^3
#
#
#
# Elastic Constant Matrix: (Units=GPa)
#
#
# Indices 1 2 3 4 5 6 
#
# 1 133.5718 -5.0815 49.6791 0.0000 0.0000 0.0000
# 2 -5.0815 36.1268 4.6824 0.0000 0.0000 0.0000
# 3 49.6791 4.6824 92.1943 0.0000 0.0000 0.0000
# 4 0.0000 0.0000 0.0000 -2.4609 0.0000 0.0000
# 5 0.0000 0.0000 0.0000 0.0000 32.0673 0.0000
# 6 0.0000 0.0000 0.0000 0.0000 0.0000 26.1760
#
#
#
# Elastic Compliance Matrix: (Units=1/GPa)
#
#
# Indices 1 2 3 4 5 6 
#
# 1 0.009507 0.002014 -0.005225 0.000000 0.000000 0.000000
# 2 0.002014 0.028291 -0.002522 0.000000 0.000000 0.000000
# 3 -0.005225 -0.002522 0.013790 0.000000 0.000000 0.000000
# 4 0.000000 0.000000 0.000000 -0.406353 0.000000 0.000000
# 5 0.000000 0.000000 0.000000 0.000000 0.031184 0.000000
# 6 0.000000 0.000000 0.000000 0.000000 0.000000 0.038203
#
#
# Mechanical properties :
#
#
# Convention : Reuss Voigt Hill
#
# Bulk Modulus (GPa) = 24.92422 40.05034 32.48728
# Shear Modulus (GPa) = -19.19100 25.33066 3.06983
#
# Velocity S-wave (km/s) = -3.03916 3.49163 1.21552
# Velocity P-wave (km/s) = 0.56522 5.96081 4.19594
#
# Compressibility (1/GPa) = 0.04012161
#
# Stress axis : x y z
#
# Youngs Moduli (GPa) = 105.19069 35.34750 72.51506
#
# Poissons Ratio (x) = -0.07120 0.37889
# Poissons Ratio (y) = -0.21189 0.18290
# Poissons Ratio (z) = 0.54961 0.08916
#
# Static dielectric constant tensor:
#      x y z
#    x 1.784910 0.000000 0.000000 
#    y 0.000000 1.787690 0.000000 
#    z 0.000000 0.000000 1.793740 
# 
# From -- ./inp_files/66397.got.cif
#   From: 2010.05.17/outbox.cif.g08.bks.cpg/sg65_34_cif.got.tgz:66397.got - 2010.06.03 17:01:31.
