data_PCOD9484435
_publ_section_title
;
Structure prediction by ZEFSAII (Michael W. Deem and Ramdas Pophale) SiO2 
 PCOD9484435
Probable space group: C M M M
;
_chemical_formula_sum "Si O2"
_cell_formula_units_Z 64
_cell_length_a 18.296360
_cell_length_b 8.694848
_cell_length_c 21.227571
_cell_angle_alpha 90.000000
_cell_angle_beta 90.000000
_cell_angle_gamma 90.000000
_cell_volume 3376.968373
_symmetry_space_group_name_H-M "C M M M"
_symmetry_group_IT_number 65
_symmetry_cell_setting 'orthorhombic'
loop_
_space_group_symop_operation_xyz
x,y,z
-x,-y,z
x,-y,-z
-x,y,-z
-x,-y,-z
x,y,-z
-x,y,z
x,-y,z
1/2+x,1/2+y,z
1/2-x,1/2-y,z
1/2+x,1/2-y,-z
1/2-x,1/2+y,-z
1/2-x,1/2-y,-z
1/2+x,1/2+y,-z
1/2-x,1/2+y,z
1/2+x,1/2-y,z
loop_
_atom_site_type_symbol
_atom_site_label
_atom_site_fract_x
_atom_site_fract_y
_atom_site_fract_z
Si Si1 0.914498 0.684432 0.000000
Si Si2 0.085815 0.815472 0.250323
Si Si3 0.332785 0.316207 0.500000
Si Si4 0.832033 0.682988 0.369881
Si Si5 0.168348 0.815380 0.878731
O O1 0.875406 0.750197 0.938199
O O2 0.908538 0.500000 0.000000
O O3 0.000000 0.726752 0.000000
O O4 0.121018 0.731489 0.309824
O O5 0.127634 0.773022 0.186181
O O6 0.000000 0.781141 0.244514
O O7 0.093872 0.000000 0.259044
O O8 0.331404 0.500000 0.500000
O O9 0.250000 0.250000 0.500000
O O10 0.364517 0.253632 0.434508
O O11 0.827164 0.500000 0.376044
O O12 0.750000 0.750000 0.361814
O O13 0.250000 0.750000 0.878607
O O14 0.170602 0.000000 0.882907
#
# Coordination Sequence:
#
# PCOD9484435 Si02
#       5
#     8  16   8  16  16
#     4  11  24  41  62  89 121 155 192 237 288 341
#     4  10  22  40  60  84 115 151 191 236 289 345
#     4  10  18  32  55  82 113 148 189 237 287 339
#     4  11  21  35  57  85 116 150 191 237 286 341
#     4  11  23  40  63  89 118 153 194 239 285 338
#
# _framework density 18.951910000000002
#
# number of rings (size 3 to 8) (size 9 to 14) (size 15 to 20)
#    0.000    1.375    0.000    7.875    0.000    6.500 
#    0.000    0.625    0.000    3.750    0.000    0.000 
#    0.000    0.000    0.000    0.000    0.000    0.000 
#
# Total GULP energy -178926.148342 kJ/mol
# GULP energy per Si atom -5591.442136 kJ/mol
# Density = 1.890877 g / cm^3
# Si number density = 18.951910 Si / 1000 Ang^3
#
#
#
# Elastic Constant Matrix: (Units=GPa)
#
#
# Indices 1 2 3 4 5 6 
#
# 1 130.5179 69.7481 97.0687 0.0000 0.0000 0.0000
# 2 69.7481 117.5175 95.2204 0.0000 0.0000 0.0000
# 3 97.0687 95.2204 214.7774 0.0000 0.0000 0.0000
# 4 0.0000 0.0000 0.0000 73.5380 0.0000 0.0000
# 5 0.0000 0.0000 0.0000 0.0000 15.9304 0.0000
# 6 0.0000 0.0000 0.0000 0.0000 0.0000 18.0310
#
#
#
# Elastic Compliance Matrix: (Units=1/GPa)
#
#
# Indices 1 2 3 4 5 6 
#
# 1 0.012958 -0.004597 -0.003818 0.000000 0.000000 0.000000
# 2 -0.004597 0.014911 -0.004533 0.000000 0.000000 0.000000
# 3 -0.003818 -0.004533 0.008391 0.000000 0.000000 0.000000
# 4 0.000000 0.000000 0.000000 0.013598 0.000000 0.000000
# 5 0.000000 0.000000 0.000000 0.000000 0.062773 0.000000
# 6 0.000000 0.000000 0.000000 0.000000 0.000000 0.055460
#
#
# Mechanical properties :
#
#
# Convention : Reuss Voigt Hill
#
# Bulk Modulus (GPa) = 96.49187 109.65415 103.07301
# Shear Modulus (GPa) = 25.32376 34.88490 30.10433
#
# Velocity S-wave (km/s) = 3.65939 4.29500 3.98987
# Velocity P-wave (km/s) = 8.29936 9.08740 8.70230
#
# Compressibility (1/GPa) = 0.01036357
#
# Stress axis : x y z
#
# Youngs Moduli (GPa) = 77.17125 67.06640 119.16967
#
# Poissons Ratio (x) = 0.30830 0.45504
# Poissons Ratio (y) = 0.35475 0.54019
# Poissons Ratio (z) = 0.29467 0.30401
#
# Static dielectric constant tensor:
#      x y z
#    x 1.629100 0.000000 0.000000 
#    y 0.000000 1.601960 0.000000 
#    z 0.000000 0.000000 1.652610 
# 
# From -- ./inp_files/63234.got.cif
#   From: 2010.05.17/outbox.cif.g08.bks.cpg/sg65_32_cif.got.tgz:63234.got - 2010.06.03 17:01:31.
