data_PCOD9484950
_publ_section_title
;
Structure prediction by ZEFSAII (Michael W. Deem and Ramdas Pophale) SiO2 
 PCOD9484950
Probable space group: C M M M
;
_chemical_formula_sum "Si O2"
_cell_formula_units_Z 104
_cell_length_a 7.918961
_cell_length_b 28.337325
_cell_length_c 27.703935
_cell_angle_alpha 90.000000
_cell_angle_beta 90.000000
_cell_angle_gamma 90.000000
_cell_volume 6216.823174
_symmetry_space_group_name_H-M "C M M M"
_symmetry_group_IT_number 65
_symmetry_cell_setting 'orthorhombic'
loop_
_space_group_symop_operation_xyz
x,y,z
-x,-y,z
x,-y,-z
-x,y,-z
-x,-y,-z
x,y,-z
-x,y,z
x,-y,z
1/2+x,1/2+y,z
1/2-x,1/2-y,z
1/2+x,1/2-y,-z
1/2-x,1/2+y,-z
1/2-x,1/2-y,-z
1/2+x,1/2+y,-z
1/2-x,1/2+y,z
1/2+x,1/2-y,z
loop_
_atom_site_type_symbol
_atom_site_label
_atom_site_fract_x
_atom_site_fract_y
_atom_site_fract_z
Si Si1 0.701713 0.696626 0.244393
Si Si2 0.202696 0.945663 0.395547
Si Si3 0.295982 0.195510 0.054067
Si Si4 0.703104 0.394222 0.300481
Si Si5 0.701214 0.946002 0.500000
Si Si6 0.704390 0.947065 0.796014
Si Si7 0.701953 0.855985 0.851547
O O1 0.500000 0.693485 0.243111
O O2 0.750000 0.750000 0.255928
O O3 0.765665 0.656868 0.282032
O O4 0.765382 0.681040 0.191543
O O5 0.267792 0.914246 0.351253
O O6 0.242851 0.925700 0.448653
O O7 0.000000 0.948075 0.391373
O O8 0.267211 0.000000 0.392436
O O9 0.500000 0.192530 0.053729
O O10 0.250000 0.250000 0.063199
O O11 0.230943 0.163258 0.097703
O O12 0.235607 0.183155 0.000000
O O13 0.500000 0.391064 0.304168
O O14 0.744901 0.430496 0.257503
O O15 0.500000 0.947629 0.500000
O O16 0.769767 0.000000 0.500000
O O17 0.500000 0.947101 0.797954
O O18 0.767291 0.906416 0.832421
O O19 0.764147 0.000000 0.806112
O O20 0.500000 0.860501 0.856499
#
# Coordination Sequence:
#
# PCOD9484950 Si02
#       7
#    16  16  16  16   8  16  16
#     4  10  19  30  44  63  87 112 139 171 208 250
#     4   9  16  27  43  61  83 111 140 169 202 240
#     4   9  17  28  42  60  81 105 134 170 211 252
#     4   9  18  30  44  63  85 111 143 175 206 244
#     4   9  17  27  39  59  86 113 140 169 202 241
#     4   9  17  28  42  61  85 112 140 170 206 247
#     4   9  17  29  44  61  83 111 140 170 206 249
#
# _framework density 16.728801000000001
#
# number of rings (size 3 to 8) (size 9 to 14) (size 15 to 20)
#    0.000    2.846    0.000    1.615    0.000    4.923 
#    0.000    1.538    0.000    0.462    0.000    3.769 
#    0.000    0.000    0.000   11.538    0.000   12.000 
#
# Total GULP energy -289715.549410 kJ/mol
# GULP energy per Si atom -5571.452873 kJ/mol
# Density = 1.669073 g / cm^3
# Si number density = 16.728801 Si / 1000 Ang^3
#
#
#
# Elastic Constant Matrix: (Units=GPa)
#
#
# Indices 1 2 3 4 5 6 
#
# 1 9.8564 3.2490 5.6239 0.0000 0.0000 0.0000
# 2 3.2490 108.4581 81.3584 0.0000 0.0000 0.0000
# 3 5.6239 81.3584 169.7397 0.0000 0.0000 0.0000
# 4 0.0000 0.0000 0.0000 11.0894 0.0000 0.0000
# 5 0.0000 0.0000 0.0000 0.0000 13.9736 0.0000
# 6 0.0000 0.0000 0.0000 0.0000 0.0000 10.6274
#
#
#
# Elastic Compliance Matrix: (Units=1/GPa)
#
#
# Indices 1 2 3 4 5 6 
#
# 1 0.103459 -0.000824 -0.003033 0.000000 0.000000 0.000000
# 2 -0.000824 0.014403 -0.006876 0.000000 0.000000 0.000000
# 3 -0.003033 -0.006876 0.009288 0.000000 0.000000 0.000000
# 4 0.000000 0.000000 0.000000 0.090176 0.000000 0.000000
# 5 0.000000 0.000000 0.000000 0.000000 0.071564 0.000000
# 6 0.000000 0.000000 0.000000 0.000000 0.000000 0.094097
#
#
# Mechanical properties :
#
#
# Convention : Reuss Voigt Hill
#
# Bulk Modulus (GPa) = 9.46225 52.05742 30.75984
# Shear Modulus (GPa) = 11.37190 20.32626 15.84908
#
# Velocity S-wave (km/s) = 2.61009 3.48953 3.08135
# Velocity P-wave (km/s) = 3.84083 6.88635 5.57556
#
# Compressibility (1/GPa) = 0.10568310
#
# Stress axis : x y z
#
# Youngs Moduli (GPa) = 9.66568 69.43034 107.66914
#
# Poissons Ratio (x) = 0.05722 0.32654
# Poissons Ratio (y) = 0.00797 0.74035
# Poissons Ratio (z) = 0.02931 0.47742
#
# Static dielectric constant tensor:
#      x y z
#    x 1.600390 0.000000 0.000000 
#    y 0.000000 1.667850 0.000000 
#    z 0.000000 0.000000 1.577850 
# 
# From -- ./inp_files/73800.got.cif
#   From: 2010.05.17/outbox.cif.g08.bks.cpg/sg65_37_cif.got.tgz:73800.got - 2010.06.03 17:01:31.
