data_PCOD9484194
_publ_section_title
;
Structure prediction by ZEFSAII (Michael W. Deem and Ramdas Pophale) SiO2 
 PCOD9484194
Probable space group: C M M M
;
_chemical_formula_sum "Si O2"
_cell_formula_units_Z 96
_cell_length_a 14.507668
_cell_length_b 19.060746
_cell_length_c 20.773459
_cell_angle_alpha 90.000000
_cell_angle_beta 90.000000
_cell_angle_gamma 90.000000
_cell_volume 5744.421773
_symmetry_space_group_name_H-M "C M M M"
_symmetry_group_IT_number 65
_symmetry_cell_setting 'orthorhombic'
loop_
_space_group_symop_operation_xyz
x,y,z
-x,-y,z
x,-y,-z
-x,y,-z
-x,-y,-z
x,y,-z
-x,y,z
x,-y,z
1/2+x,1/2+y,z
1/2-x,1/2-y,z
1/2+x,1/2-y,-z
1/2-x,1/2+y,-z
1/2-x,1/2-y,-z
1/2+x,1/2+y,-z
1/2-x,1/2+y,z
1/2+x,1/2-y,z
loop_
_atom_site_type_symbol
_atom_site_label
_atom_site_fract_x
_atom_site_fract_y
_atom_site_fract_z
Si Si1 0.606470 0.691058 0.756857
Si Si2 0.734173 0.869091 0.069949
Si Si3 0.612043 0.919310 0.572919
Si Si4 0.262064 0.918965 0.786679
Si Si5 0.611011 0.832277 0.304268
Si Si6 0.606444 0.262063 0.096568
O O1 0.500000 0.671050 0.745804
O O2 0.673221 0.625012 0.762880
O O3 0.636001 0.750856 0.706477
O O4 0.611092 0.730191 0.826071
O O5 0.731602 0.912672 0.135748
O O6 0.654629 0.809958 0.075969
O O7 0.829854 0.825199 0.071543
O O8 0.726109 0.904402 0.000000
O O9 0.641861 0.902269 0.500000
O O10 0.500000 0.918374 0.572796
O O11 0.642187 0.866174 0.628359
O O12 0.639155 0.000000 0.587354
O O13 0.346394 0.879375 0.752388
O O14 0.258307 0.000000 0.768246
O O15 0.500000 0.835408 0.300719
O O16 0.500000 0.266362 0.077356
#
# Coordination Sequence:
#
# PCOD9484194 Si02
#       6
#    16  16  16  16  16  16
#     4   9  18  33  53  72  92 122 164 210 246 280
#     4  10  20  31  45  68  93 119 158 202 245 297
#     4   8  14  25  43  72 109 140 162 188 230 286
#     4  11  22  34  49  69  97 131 164 202 248 298
#     4  10  18  31  53  77 101 130 162 197 237 284
#     4   9  16  30  50  70  90 116 154 200 245 289
#
# _framework density 16.711863999999998
#
# number of rings (size 3 to 8) (size 9 to 14) (size 15 to 20)
#    0.000    2.500    1.667    2.500    0.000    3.000 
#    0.000    0.000    0.000    2.000    0.000    7.000 
#    0.000    0.000    0.000   10.000    0.000    0.167 
#
# Total GULP energy -267470.887950 kJ/mol
# GULP energy per Si atom -5572.310166 kJ/mol
# Density = 1.667383 g / cm^3
# Si number density = 16.711864 Si / 1000 Ang^3
#
#
#
# Elastic Constant Matrix: (Units=GPa)
#
#
# Indices 1 2 3 4 5 6 
#
# 1 61.6976 8.0164 -4.3049 0.0000 0.0000 0.0000
# 2 8.0164 58.7909 -0.9597 0.0000 0.0000 0.0000
# 3 -4.3049 -0.9597 40.7585 0.0000 0.0000 0.0000
# 4 0.0000 0.0000 0.0000 -7.1940 0.0000 0.0000
# 5 0.0000 0.0000 0.0000 0.0000 10.2164 0.0000
# 6 0.0000 0.0000 0.0000 0.0000 0.0000 13.1828
#
#
#
# Elastic Compliance Matrix: (Units=1/GPa)
#
#
# Indices 1 2 3 4 5 6 
#
# 1 0.016618 -0.002238 0.001702 0.000000 0.000000 0.000000
# 2 -0.002238 0.017317 0.000171 0.000000 0.000000 0.000000
# 3 0.001702 0.000171 0.024719 0.000000 0.000000 0.000000
# 4 0.000000 0.000000 0.000000 -0.139006 0.000000 0.000000
# 5 0.000000 0.000000 0.000000 0.000000 0.097882 0.000000
# 6 0.000000 0.000000 0.000000 0.000000 0.000000 0.075856
#
#
# Mechanical properties :
#
#
# Convention : Reuss Voigt Hill
#
# Bulk Modulus (GPa) = 17.26365 18.52784 17.89575
# Shear Modulus (GPa) = 44.08259 13.80740 28.94499
#
# Velocity S-wave (km/s) = 5.14153 2.87749 4.16625
# Velocity P-wave (km/s) = 6.75275 4.70645 5.82024
#
# Compressibility (1/GPa) = 0.05792517
#
# Stress axis : x y z
#
# Youngs Moduli (GPa) = 60.17688 57.74540 40.45530
#
# Poissons Ratio (x) = 0.12924 -0.06887
# Poissons Ratio (y) = 0.13468 -0.00693
# Poissons Ratio (z) = -0.10245 -0.00990
#
# Static dielectric constant tensor:
#      x y z
#    x 1.562630 0.000000 0.000000 
#    y 0.000000 1.540580 0.000000 
#    z 0.000000 0.000000 1.598810 
# 
# From -- ./inp_files/62954.got.cif
#   From: 2010.05.17/outbox.cif.g08.bks.cpg/sg65_32_cif.got.tgz:62954.got - 2010.06.03 17:01:31.
