data_PCOD9484396
_publ_section_title
;
Structure prediction by ZEFSAII (Michael W. Deem and Ramdas Pophale) SiO2 
 PCOD9484396
Probable space group: C M M M
;
_chemical_formula_sum "Si O2"
_cell_formula_units_Z 100
_cell_length_a 18.252388
_cell_length_b 33.975564
_cell_length_c 7.414978
_cell_angle_alpha 90.000000
_cell_angle_beta 90.000000
_cell_angle_gamma 90.000000
_cell_volume 4598.288692
_symmetry_space_group_name_H-M "C M M M"
_symmetry_group_IT_number 65
_symmetry_cell_setting 'orthorhombic'
loop_
_space_group_symop_operation_xyz
x,y,z
-x,-y,z
x,-y,-z
-x,y,-z
-x,-y,-z
x,y,-z
-x,y,z
x,-y,z
1/2+x,1/2+y,z
1/2-x,1/2-y,z
1/2+x,1/2-y,-z
1/2-x,1/2+y,-z
1/2-x,1/2-y,-z
1/2+x,1/2+y,-z
1/2-x,1/2+y,z
1/2+x,1/2-y,z
loop_
_atom_site_type_symbol
_atom_site_label
_atom_site_fract_x
_atom_site_fract_y
_atom_site_fract_z
Si Si1 0.391878 0.000000 0.000000
Si Si2 0.660746 0.783488 0.212848
Si Si3 0.676563 0.696794 0.779788
Si Si4 0.084534 0.878940 0.779537
Si Si5 0.827833 0.044111 0.218269
Si Si6 0.419710 0.139042 0.284692
Si Si7 0.342003 0.062382 0.710503
O O1 0.385900 0.033939 0.157899
O O2 0.644559 0.739335 0.278084
O O3 0.738672 0.800390 0.280838
O O4 0.600658 0.816514 0.239472
O O5 0.671660 0.778791 0.000000
O O6 0.632444 0.658529 0.718822
O O7 0.675392 0.694680 0.000000
O O8 0.121199 0.920039 0.721072
O O9 0.000000 0.875846 0.724181
O O10 0.085396 0.879015 0.000000
O O11 0.743758 0.052390 0.270080
O O12 0.848437 0.000000 0.279021
O O13 0.829529 0.043681 0.000000
O O14 0.422085 0.137226 0.500000
O O15 0.500000 0.128264 0.214506
O O16 0.359180 0.107134 0.230678
O O17 0.362121 0.057256 0.500000
#
# Coordination Sequence:
#
# PCOD9484396 Si02
#       7
#     4  16  16  16  16  16  16
#     4  12  22  40  65  92 117 144 196 250 284 346
#     4   9  17  31  55  81 105 143 193 242 288 337
#     4   8  15  29  48  77 113 143 186 246 293 338
#     4   9  17  27  44  74 113 154 190 234 297 355
#     4  10  18  32  54  80 110 144 192 247 287 342
#     4  10  23  40  55  79 117 154 187 229 285 347
#     4  11  22  39  63  88 117 153 191 239 297 344
#
# _framework density 21.747222000000001
#
# number of rings (size 3 to 8) (size 9 to 14) (size 15 to 20)
#    0.000    2.400    1.600    2.160    1.120    2.560 
#    0.000    5.600    0.000    3.360    0.000    1.120 
#    0.000    0.000    0.000    0.000    0.000    0.000 
#
# Total GULP energy -278571.539332 kJ/mol
# GULP energy per Si atom -5571.430787 kJ/mol
# Density = 2.169772 g / cm^3
# Si number density = 21.747222 Si / 1000 Ang^3
#
#
#
# Elastic Constant Matrix: (Units=GPa)
#
#
# Indices 1 2 3 4 5 6 
#
# 1 61.3838 78.2631 4.9542 0.0000 0.0000 0.0000
# 2 78.2631 204.1416 16.4826 0.0000 0.0000 0.0000
# 3 4.9542 16.4826 88.1280 0.0000 0.0000 0.0000
# 4 0.0000 0.0000 0.0000 27.7681 0.0000 0.0000
# 5 0.0000 0.0000 0.0000 0.0000 3.7602 0.0000
# 6 0.0000 0.0000 0.0000 0.0000 0.0000 -35.7574
#
#
#
# Elastic Compliance Matrix: (Units=1/GPa)
#
#
# Indices 1 2 3 4 5 6 
#
# 1 0.031890 -0.012266 0.000501 0.000000 0.000000 0.000000
# 2 -0.012266 0.009692 -0.001123 0.000000 0.000000 0.000000
# 3 0.000501 -0.001123 0.011529 0.000000 0.000000 0.000000
# 4 0.000000 0.000000 0.000000 0.036013 0.000000 0.000000
# 5 0.000000 0.000000 0.000000 0.000000 0.265945 0.000000
# 6 0.000000 0.000000 0.000000 0.000000 0.000000 -0.027966
#
#
# Mechanical properties :
#
#
# Convention : Reuss Voigt Hill
#
# Bulk Modulus (GPa) = 36.58357 61.45036 49.01697
# Shear Modulus (GPa) = 13.81258 16.08441 14.94850
#
# Velocity S-wave (km/s) = 2.52294 2.72252 2.62463
# Velocity P-wave (km/s) = 5.03445 6.18068 5.63678
#
# Compressibility (1/GPa) = 0.02733467
#
# Stress axis : x y z
#
# Youngs Moduli (GPa) = 31.35817 103.17980 86.73779
#
# Poissons Ratio (x) = 1.26563 -0.04349
# Poissons Ratio (y) = 0.38465 0.09742
# Poissons Ratio (z) = -0.01572 0.11588
#
# Static dielectric constant tensor:
#      x y z
#    x 1.765810 0.000000 0.000000 
#    y 0.000000 1.807320 0.000000 
#    z 0.000000 0.000000 1.824680 
# 
# From -- ./inp_files/12783.got.cif
#   From: 2010.05.17/outbox.cif.g08.bks.cpg/sg65_7_cif.got.tgz:12783.got - 2010.06.03 17:01:31.
