data_PCOD9484135
_publ_section_title
;
Structure prediction by ZEFSAII (Michael W. Deem and Ramdas Pophale) SiO2 
 PCOD9484135
Probable space group: C M M M
;
_chemical_formula_sum "Si O2"
_cell_formula_units_Z 80
_cell_length_a 29.777078
_cell_length_b 7.802292
_cell_length_c 16.188262
_cell_angle_alpha 90.000000
_cell_angle_beta 90.000000
_cell_angle_gamma 90.000000
_cell_volume 3761.010128
_symmetry_space_group_name_H-M "C M M M"
_symmetry_group_IT_number 65
_symmetry_cell_setting 'orthorhombic'
loop_
_space_group_symop_operation_xyz
x,y,z
-x,-y,z
x,-y,-z
-x,y,-z
-x,-y,-z
x,y,-z
-x,y,z
x,-y,z
1/2+x,1/2+y,z
1/2-x,1/2-y,z
1/2+x,1/2-y,-z
1/2-x,1/2+y,-z
1/2-x,1/2-y,-z
1/2+x,1/2+y,-z
1/2-x,1/2+y,z
1/2+x,1/2-y,z
loop_
_atom_site_type_symbol
_atom_site_label
_atom_site_fract_x
_atom_site_fract_y
_atom_site_fract_z
Si Si1 0.891730 0.209364 0.907954
Si Si2 0.551866 0.289974 0.750040
Si Si3 0.603939 0.300636 0.589322
Si Si4 0.298744 0.704806 0.171270
Si Si5 0.700005 0.195794 0.362335
O O1 0.924414 0.266556 0.834658
O O2 0.840994 0.258768 0.883239
O O3 0.892826 0.000000 0.908684
O O4 0.903408 0.267875 0.000000
O O5 0.500000 0.239980 0.745736
O O6 0.553665 0.500000 0.750591
O O7 0.579584 0.227832 0.670178
O O8 0.592797 0.222799 0.500000
O O9 0.590499 0.500000 0.586461
O O10 0.657528 0.294945 0.602236
O O11 0.301211 0.500000 0.182787
O O12 0.250000 0.750000 0.135753
O O13 0.301554 0.784574 0.262756
O O14 0.750000 0.250000 0.388348
O O15 0.693381 0.000000 0.385497
#
# Coordination Sequence:
#
# PCOD9484135 Si02
#       5
#    16  16  16  16  16
#     4   9  17  29  48  76 110 143 175 217 267 316
#     4   9  17  31  52  78 108 140 176 221 271 319
#     4  10  20  35  55  80 110 142 177 219 267 317
#     4  10  18  31  51  76 109 144 181 219 262 315
#     4  11  21  34  55  80 109 144 182 219 263 315
#
# _framework density 21.270883000000001
#
# number of rings (size 3 to 8) (size 9 to 14) (size 15 to 20)
#    0.000    2.200    2.000    3.600    0.000    2.000 
#    0.000    4.000    0.000    2.400    0.000    1.400 
#    0.000    1.600    0.000    0.000    0.000    0.000 
#
# Total GULP energy -223358.408053 kJ/mol
# GULP energy per Si atom -5583.960201 kJ/mol
# Density = 2.122247 g / cm^3
# Si number density = 21.270883 Si / 1000 Ang^3
#
#
#
# Elastic Constant Matrix: (Units=GPa)
#
#
# Indices 1 2 3 4 5 6 
#
# 1 144.6852 -7.4315 96.1449 0.0000 0.0000 0.0000
# 2 -7.4315 35.9255 -1.9111 0.0000 0.0000 0.0000
# 3 96.1449 -1.9111 181.2274 0.0000 0.0000 0.0000
# 4 0.0000 0.0000 0.0000 -0.0723 0.0000 0.0000
# 5 0.0000 0.0000 0.0000 0.0000 -27.2894 0.0000
# 6 0.0000 0.0000 0.0000 0.0000 0.0000 15.0847
#
#
#
# Elastic Compliance Matrix: (Units=1/GPa)
#
#
# Indices 1 2 3 4 5 6 
#
# 1 0.010807 0.001932 -0.005713 0.000000 0.000000 0.000000
# 2 0.001932 0.028196 -0.000727 0.000000 0.000000 0.000000
# 3 -0.005713 -0.000727 0.008541 0.000000 0.000000 0.000000
# 4 0.000000 0.000000 0.000000-13.831298 0.000000 0.000000
# 5 0.000000 0.000000 0.000000 0.000000 -0.036644 0.000000
# 6 0.000000 0.000000 0.000000 0.000000 0.000000 0.066292
#
#
# Mechanical properties :
#
#
# Convention : Reuss Voigt Hill
#
# Bulk Modulus (GPa) = 25.95593 59.49364 42.72478
# Shear Modulus (GPa) = -0.36411 15.88032 7.75811
#
# Velocity S-wave (km/s) = -0.41418 2.73532 1.91186
# Velocity P-wave (km/s) = 3.46415 6.16492 5.00033
#
# Compressibility (1/GPa) = 0.03852684
#
# Stress axis : x y z
#
# Youngs Moduli (GPa) = 92.53128 35.46572 117.08028
#
# Poissons Ratio (x) = -0.06851 0.66889
# Poissons Ratio (y) = -0.17874 0.08517
# Poissons Ratio (z) = 0.52864 0.02580
#
# Static dielectric constant tensor:
#      x y z
#    x 1.755350 0.000000 0.000000 
#    y 0.000000 1.791820 0.000000 
#    z 0.000000 0.000000 1.773290 
# 
# From -- ./inp_files/57230.got.cif
#   From: 2010.05.17/outbox.cif.g08.bks.cpg/sg65_29_cif.got.tgz:57230.got - 2010.06.03 17:01:31.
