data_PCOD9484873
_publ_section_title
;
Structure prediction by ZEFSAII (Michael W. Deem and Ramdas Pophale) SiO2 
 PCOD9484873
Probable space group: C M M M
;
_chemical_formula_sum "Si O2"
_cell_formula_units_Z 64
_cell_length_a 7.523287
_cell_length_b 15.770411
_cell_length_c 25.006468
_cell_angle_alpha 90.000000
_cell_angle_beta 90.000000
_cell_angle_gamma 90.000000
_cell_volume 2966.900600
_symmetry_space_group_name_H-M "C M M M"
_symmetry_group_IT_number 65
_symmetry_cell_setting 'orthorhombic'
loop_
_space_group_symop_operation_xyz
x,y,z
-x,-y,z
x,-y,-z
-x,y,-z
-x,-y,-z
x,y,-z
-x,y,z
x,-y,z
1/2+x,1/2+y,z
1/2-x,1/2-y,z
1/2+x,1/2-y,-z
1/2-x,1/2+y,-z
1/2-x,1/2-y,-z
1/2+x,1/2+y,-z
1/2-x,1/2+y,z
1/2+x,1/2-y,z
loop_
_atom_site_type_symbol
_atom_site_label
_atom_site_fract_x
_atom_site_fract_y
_atom_site_fract_z
Si Si1 0.786082 0.000000 0.703582
Si Si2 0.211775 0.500000 0.421605
Si Si3 0.212668 0.849219 0.000000
Si Si4 0.787296 0.157397 0.772646
Si Si5 0.286785 0.401738 0.884309
Si Si6 0.286864 0.147928 0.500000
O O1 0.719407 0.917047 0.734773
O O2 0.746155 0.000000 0.641140
O O3 0.000000 0.000000 0.708096
O O4 0.275520 0.412355 0.450224
O O5 0.000000 0.500000 0.429393
O O6 0.250000 0.750000 0.000000
O O7 0.284049 0.883840 0.056354
O O8 0.000000 0.866507 0.000000
O O9 0.750000 0.250000 0.750735
O O10 0.716517 0.149689 0.833517
O O11 0.000000 0.146929 0.776458
O O12 0.500000 0.386483 0.887608
O O13 0.260621 0.500000 0.871184
O O14 0.500000 0.145845 0.500000
O O15 0.250000 0.250000 0.500000
#
# Coordination Sequence:
#
# PCOD9484873 Si02
#       6
#     8   8   8  16  16   8
#     4  10  21  37  55  77 108 146 185 222 262 312
#     4   9  20  38  58  82 115 149 180 220 266 309
#     4  10  19  29  47  73  97 124 164 213 265 321
#     4  10  20  35  54  75 103 139 178 222 270 319
#     4   9  16  30  51  72  95 128 172 217 261 317
#     4   9  19  37  60  86 116 149 181 217 264 312
#
# _framework density 21.571332999999999
#
# number of rings (size 3 to 8) (size 9 to 14) (size 15 to 20)
#    0.000    2.500    1.250    1.875    0.000    4.500 
#    0.000    6.250    0.000    3.000    0.000    0.000 
#    0.000    0.000    0.000    0.000    0.000    0.000 
#
# Total GULP energy -178466.379847 kJ/mol
# GULP energy per Si atom -5577.074370 kJ/mol
# Density = 2.152224 g / cm^3
# Si number density = 21.571333 Si / 1000 Ang^3
#
#
#
# Elastic Constant Matrix: (Units=GPa)
#
#
# Indices 1 2 3 4 5 6 
#
# 1 57.4005 4.6187 6.5057 0.0000 0.0000 0.0000
# 2 4.6187 164.5186 112.2181 0.0000 0.0000 0.0000
# 3 6.5057 112.2181 166.2953 0.0000 0.0000 0.0000
# 4 0.0000 0.0000 0.0000 -5.0015 0.0000 0.0000
# 5 0.0000 0.0000 0.0000 0.0000 143.4647 0.0000
# 6 0.0000 0.0000 0.0000 0.0000 0.0000 22.7352
#
#
#
# Elastic Compliance Matrix: (Units=1/GPa)
#
#
# Indices 1 2 3 4 5 6 
#
# 1 0.017499 -0.000045 -0.000654 0.000000 0.000000 0.000000
# 2 -0.000045 0.011262 -0.007598 0.000000 0.000000 0.000000
# 3 -0.000654 -0.007598 0.011166 0.000000 0.000000 0.000000
# 4 0.000000 0.000000 0.000000 -0.199939 0.000000 0.000000
# 5 0.000000 0.000000 0.000000 0.000000 0.006970 0.000000
# 6 0.000000 0.000000 0.000000 0.000000 0.000000 0.043985
#
#
# Mechanical properties :
#
#
# Convention : Reuss Voigt Hill
#
# Bulk Modulus (GPa) = 42.85771 70.54438 56.70104
# Shear Modulus (GPa) = -59.04305 49.89782 -4.57262
#
# Velocity S-wave (km/s) = -5.23741 4.81474 -1.45752
# Velocity P-wave (km/s) = 4.08203 7.98015 4.84871
#
# Compressibility (1/GPa) = 0.02333302
#
# Stress axis : x y z
#
# Youngs Moduli (GPa) = 57.14540 88.79155 89.55479
#
# Poissons Ratio (x) = 0.00400 0.05859
# Poissons Ratio (y) = 0.00257 0.68045
# Poissons Ratio (z) = 0.03738 0.67466
#
# Static dielectric constant tensor:
#      x y z
#    x 1.823680 0.000000 0.000000 
#    y 0.000000 1.769380 0.000000 
#    z 0.000000 0.000000 1.803130 
# 
# From -- ./inp_files/66886.got.cif
#   From: 2010.05.17/outbox.cif.g08.bks.cpg/sg65_34_cif.got.tgz:66886.got - 2010.06.03 17:01:31.
