data_PCOD9484173
_publ_section_title
;
Structure prediction by ZEFSAII (Michael W. Deem and Ramdas Pophale) SiO2 
 PCOD9484173
Probable space group: C M M M
;
_chemical_formula_sum "Si O2"
_cell_formula_units_Z 48
_cell_length_a 8.647653
_cell_length_b 14.666135
_cell_length_c 19.860574
_cell_angle_alpha 90.000000
_cell_angle_beta 90.000000
_cell_angle_gamma 90.000000
_cell_volume 2518.869855
_symmetry_space_group_name_H-M "C M M M"
_symmetry_group_IT_number 65
_symmetry_cell_setting 'orthorhombic'
loop_
_space_group_symop_operation_xyz
x,y,z
-x,-y,z
x,-y,-z
-x,y,-z
-x,-y,-z
x,y,-z
-x,y,z
x,-y,z
1/2+x,1/2+y,z
1/2-x,1/2-y,z
1/2+x,1/2-y,-z
1/2-x,1/2+y,-z
1/2-x,1/2-y,-z
1/2+x,1/2+y,-z
1/2-x,1/2+y,z
1/2+x,1/2-y,z
loop_
_atom_site_type_symbol
_atom_site_label
_atom_site_fract_x
_atom_site_fract_y
_atom_site_fract_z
Si Si1 0.315536 0.146507 0.500000
Si Si2 0.184989 0.851719 0.360216
Si Si3 0.184049 0.500000 0.899085
Si Si4 0.185566 0.000000 0.750437
Si Si5 0.185367 0.852582 0.000000
O O1 0.500000 0.146827 0.500000
O O2 0.250000 0.250000 0.500000
O O3 0.253620 0.108187 0.570370
O O4 0.250000 0.750000 0.351692
O O5 0.223656 0.913165 0.296072
O O6 0.000000 0.848270 0.367340
O O7 0.228877 0.500000 0.821111
O O8 0.254451 0.588616 0.936360
O O9 0.000000 0.500000 0.908314
O O10 0.000000 0.000000 0.762168
O O11 0.250000 0.750000 0.000000
O O12 0.000000 0.851012 0.000000
#
# Coordination Sequence:
#
# PCOD9484173 Si02
#       5
#     8  16   8   8   8
#     4  10  18  31  52  77 106 140 184 237 289 339
#     4  10  20  36  56  78 107 145 190 237 287 341
#     4  11  23  40  62  91 125 156 192 237 285 340
#     4  10  23  40  57  80 115 156 191 230 285 344
#     4  11  22  41  68  94 122 155 194 235 280 336
#
# _framework density 19.056163999999999
#
# number of rings (size 3 to 8) (size 9 to 14) (size 15 to 20)
#    0.000    1.667    0.000    8.500    0.000    4.667 
#    0.000    6.667    0.000    0.000    0.000    0.000 
#    0.000    0.000    0.000    0.000    0.000    0.000 
#
# Total GULP energy -134107.949257 kJ/mol
# GULP energy per Si atom -5587.831219 kJ/mol
# Density = 1.901279 g / cm^3
# Si number density = 19.056164 Si / 1000 Ang^3
#
#
#
# Elastic Constant Matrix: (Units=GPa)
#
#
# Indices 1 2 3 4 5 6 
#
# 1 153.4221 67.9139 93.4156 0.0000 0.0000 0.0000
# 2 67.9139 148.4550 81.1303 0.0000 0.0000 0.0000
# 3 93.4156 81.1303 183.8114 0.0000 0.0000 0.0000
# 4 0.0000 0.0000 0.0000 10.8859 0.0000 0.0000
# 5 0.0000 0.0000 0.0000 0.0000 34.6594 0.0000
# 6 0.0000 0.0000 0.0000 0.0000 0.0000 23.8634
#
#
#
# Elastic Compliance Matrix: (Units=1/GPa)
#
#
# Indices 1 2 3 4 5 6 
#
# 1 0.010037 -0.002378 -0.004052 0.000000 0.000000 0.000000
# 2 -0.002378 0.009441 -0.002959 0.000000 0.000000 0.000000
# 3 -0.004052 -0.002959 0.008805 0.000000 0.000000 0.000000
# 4 0.000000 0.000000 0.000000 0.091862 0.000000 0.000000
# 5 0.000000 0.000000 0.000000 0.000000 0.028852 0.000000
# 6 0.000000 0.000000 0.000000 0.000000 0.000000 0.041905
#
#
# Mechanical properties :
#
#
# Convention : Reuss Voigt Hill
#
# Bulk Modulus (GPa) = 105.17883 107.84534 106.51209
# Shear Modulus (GPa) = 23.49098 30.09699 26.79399
#
# Velocity S-wave (km/s) = 3.51483 3.97846 3.75381
# Velocity P-wave (km/s) = 8.47266 8.82159 8.64888
#
# Compressibility (1/GPa) = 0.00950762
#
# Stress axis : x y z
#
# Youngs Moduli (GPa) = 99.62674 105.92603 113.56711
#
# Poissons Ratio (x) = 0.25185 0.46015
# Poissons Ratio (y) = 0.23687 0.33599
# Poissons Ratio (z) = 0.40367 0.31339
#
# Static dielectric constant tensor:
#      x y z
#    x 1.638440 0.000000 0.000000 
#    y 0.000000 1.661000 0.000000 
#    z 0.000000 0.000000 1.655600 
# 
# From -- ./inp_files/48496.got.cif
#   From: 2010.05.17/outbox.cif.g08.bks.cpg/sg65_25_cif.got.tgz:48496.got - 2010.06.03 17:01:31.
