data_PCOD9484727
_publ_section_title
;
Structure prediction by ZEFSAII (Michael W. Deem and Ramdas Pophale) SiO2 
 PCOD9484727
Probable space group: C M M M
;
_chemical_formula_sum "Si O2"
_cell_formula_units_Z 64
_cell_length_a 13.891049
_cell_length_b 35.271626
_cell_length_c 8.839312
_cell_angle_alpha 90.000000
_cell_angle_beta 90.000000
_cell_angle_gamma 90.000000
_cell_volume 4330.908292
_symmetry_space_group_name_H-M "C M M M"
_symmetry_group_IT_number 65
_symmetry_cell_setting 'orthorhombic'
loop_
_space_group_symop_operation_xyz
x,y,z
-x,-y,z
x,-y,-z
-x,y,-z
-x,-y,-z
x,y,-z
-x,y,z
x,-y,z
1/2+x,1/2+y,z
1/2-x,1/2-y,z
1/2+x,1/2-y,-z
1/2-x,1/2+y,-z
1/2-x,1/2-y,-z
1/2+x,1/2+y,-z
1/2-x,1/2+y,z
1/2+x,1/2-y,z
loop_
_atom_site_type_symbol
_atom_site_label
_atom_site_fract_x
_atom_site_fract_y
_atom_site_fract_z
Si Si1 0.614924 0.120578 0.178864
Si Si2 0.116670 0.458140 0.677130
Si Si3 0.291762 0.806094 0.319659
Si Si4 0.888539 0.767552 0.181183
O O1 0.500000 0.123798 0.209916
O O2 0.647199 0.078595 0.229709
O O3 0.670039 0.153222 0.268308
O O4 0.628825 0.125608 0.000000
O O5 0.141812 0.453691 0.500000
O O6 0.149910 0.500000 0.728469
O O7 0.000000 0.458797 0.684803
O O8 0.292986 0.802328 0.500000
O O9 0.185638 0.796834 0.256125
O O10 0.359126 0.773546 0.246456
O O11 0.000000 0.775546 0.213717
O O12 0.874879 0.767215 0.000000
#
# Coordination Sequence:
#
# PCOD9484727 Si02
#       4
#    16  16  16  16
#     4  10  19  29  42  61  87 118 150 183 216 253
#     4   8  14  25  40  58  82 112 144 177 214 256
#     4  11  21  31  46  66  88 114 145 181 216 255
#     4  10  20  34  50  65  85 113 143 178 219 260
#
# _framework density 14.7775
#
# number of rings (size 3 to 8) (size 9 to 14) (size 15 to 20)
#    0.000    2.250    0.000    6.750    0.000    7.000 
#    0.000    2.500    0.000    0.000    0.000    0.000 
#    0.000    1.000    0.000   10.500    0.000    5.000 
#
# Total GULP energy -178427.310999 kJ/mol
# GULP energy per Si atom -5575.853469 kJ/mol
# Density = 1.474387 g / cm^3
# Si number density = 14.777500 Si / 1000 Ang^3
#
#
#
# Elastic Constant Matrix: (Units=GPa)
#
#
# Indices 1 2 3 4 5 6 
#
# 1 58.4351 33.3825 39.1786 0.0000 0.0000 0.0000
# 2 33.3825 100.6072 49.0845 0.0000 0.0000 0.0000
# 3 39.1786 49.0845 83.0554 0.0000 0.0000 0.0000
# 4 0.0000 0.0000 0.0000 41.8701 0.0000 0.0000
# 5 0.0000 0.0000 0.0000 0.0000 9.4377 0.0000
# 6 0.0000 0.0000 0.0000 0.0000 0.0000 17.2662
#
#
#
# Elastic Compliance Matrix: (Units=1/GPa)
#
#
# Indices 1 2 3 4 5 6 
#
# 1 0.025979 -0.003711 -0.010061 0.000000 0.000000 0.000000
# 2 -0.003711 0.014497 -0.006817 0.000000 0.000000 0.000000
# 3 -0.010061 -0.006817 0.020815 0.000000 0.000000 0.000000
# 4 0.000000 0.000000 0.000000 0.023883 0.000000 0.000000
# 5 0.000000 0.000000 0.000000 0.000000 0.105958 0.000000
# 6 0.000000 0.000000 0.000000 0.000000 0.000000 0.057917
#
#
# Mechanical properties :
#
#
# Convention : Reuss Voigt Hill
#
# Bulk Modulus (GPa) = 49.72198 53.93210 51.82704
# Shear Modulus (GPa) = 16.83886 21.74492 19.29189
#
# Velocity S-wave (km/s) = 3.37930 3.84016 3.61708
# Velocity P-wave (km/s) = 6.99617 7.49918 7.25204
#
# Compressibility (1/GPa) = 0.02011183
#
# Stress axis : x y z
#
# Youngs Moduli (GPa) = 38.49266 68.98038 48.04247
#
# Poissons Ratio (x) = 0.25601 0.48338
# Poissons Ratio (y) = 0.14286 0.32749
# Poissons Ratio (z) = 0.38729 0.47022
#
# Static dielectric constant tensor:
#      x y z
#    x 1.470280 0.000000 0.000000 
#    y 0.000000 1.494140 0.000000 
#    z 0.000000 0.000000 1.492960 
# 
# From -- ./inp_files/7568.got.cif
#   From: 2010.05.17/outbox.cif.g08.bks.cpg/sg65_4_cif.got.tgz:7568.got - 2010.06.03 17:01:31.
