data_PCOD9484166
_publ_section_title
;
Structure prediction by ZEFSAII (Michael W. Deem and Ramdas Pophale) SiO2 
 PCOD9484166
Probable space group: C M M M
;
_chemical_formula_sum "Si O2"
_cell_formula_units_Z 56
_cell_length_a 8.361078
_cell_length_b 15.338177
_cell_length_c 22.753685
_cell_angle_alpha 90.000000
_cell_angle_beta 90.000000
_cell_angle_gamma 90.000000
_cell_volume 2918.016623
_symmetry_space_group_name_H-M "C M M M"
_symmetry_group_IT_number 65
_symmetry_cell_setting 'orthorhombic'
loop_
_space_group_symop_operation_xyz
x,y,z
-x,-y,z
x,-y,-z
-x,y,-z
-x,-y,-z
x,y,-z
-x,y,z
x,-y,z
1/2+x,1/2+y,z
1/2-x,1/2-y,z
1/2+x,1/2-y,-z
1/2-x,1/2+y,-z
1/2-x,1/2-y,-z
1/2+x,1/2+y,-z
1/2-x,1/2+y,z
1/2+x,1/2-y,z
loop_
_atom_site_type_symbol
_atom_site_label
_atom_site_fract_x
_atom_site_fract_y
_atom_site_fract_z
Si Si1 0.304126 0.000000 0.152458
Si Si2 0.808729 0.349571 0.374751
Si Si3 0.195503 0.500000 0.712842
Si Si4 0.809840 0.850242 0.500000
Si Si5 0.693008 0.847802 0.933545
O O1 0.252051 0.084314 0.115445
O O2 0.500000 0.000000 0.153083
O O3 0.250534 0.000000 0.219803
O O4 0.750000 0.250000 0.367608
O O5 0.753983 0.414219 0.323267
O O6 0.752740 0.385763 0.438147
O O7 0.000000 0.347373 0.375281
O O8 0.000000 0.500000 0.713090
O O9 0.750000 0.750000 0.500000
O O10 0.000000 0.852402 0.500000
O O11 0.500000 0.848827 0.933523
O O12 0.750000 0.750000 0.921929
O O13 0.744937 0.872204 0.000000
#
# Coordination Sequence:
#
# PCOD9484166 Si02
#       5
#     8  16   8   8  16
#     4   9  17  32  51  71  98 134 173 204 236 290
#     4  10  19  34  53  74  99 128 163 204 249 294
#     4   9  20  34  50  72  99 134 171 202 240 295
#     4  10  18  31  52  77 100 126 160 201 251 297
#     4   9  17  30  51  77 102 129 164 206 249 291
#
# _framework density 19.191119
#
# number of rings (size 3 to 8) (size 9 to 14) (size 15 to 20)
#    0.000    2.571    0.000    4.286    0.000    3.429 
#    0.000    6.429    0.000    8.571    0.000    0.000 
#    0.000    0.000    0.000    0.000    0.000    0.000 
#
# Total GULP energy -156208.058409 kJ/mol
# GULP energy per Si atom -5578.859229 kJ/mol
# Density = 1.914744 g / cm^3
# Si number density = 19.191119 Si / 1000 Ang^3
#
#
#
# Elastic Constant Matrix: (Units=GPa)
#
#
# Indices 1 2 3 4 5 6 
#
# 1 37.0842 18.2149 25.9059 0.0000 0.0000 0.0000
# 2 18.2149 119.9011 120.4172 0.0000 0.0000 0.0000
# 3 25.9059 120.4172 223.8780 0.0000 0.0000 0.0000
# 4 0.0000 0.0000 0.0000 -22.7685 0.0000 0.0000
# 5 0.0000 0.0000 0.0000 0.0000 15.1210 0.0000
# 6 0.0000 0.0000 0.0000 0.0000 0.0000 20.9167
#
#
#
# Elastic Compliance Matrix: (Units=1/GPa)
#
#
# Indices 1 2 3 4 5 6 
#
# 1 0.029626 -0.002300 -0.002191 0.000000 0.000000 0.000000
# 2 -0.002300 0.018317 -0.009586 0.000000 0.000000 0.000000
# 3 -0.002191 -0.009586 0.009876 0.000000 0.000000 0.000000
# 4 0.000000 0.000000 0.000000 -0.043920 0.000000 0.000000
# 5 0.000000 0.000000 0.000000 0.000000 0.066133 0.000000
# 6 0.000000 0.000000 0.000000 0.000000 0.000000 0.047809
#
#
# Mechanical properties :
#
#
# Convention : Reuss Voigt Hill
#
# Bulk Modulus (GPa) = 33.70998 78.88216 56.29607
# Shear Modulus (GPa) = 30.14170 17.07553 23.60861
#
# Velocity S-wave (km/s) = 3.96739 2.98612 3.51120
# Velocity P-wave (km/s) = 6.21212 7.28574 6.77024
#
# Compressibility (1/GPa) = 0.02966480
#
# Stress axis : x y z
#
# Youngs Moduli (GPa) = 33.75410 54.59462 101.25366
#
# Poissons Ratio (x) = 0.12559 0.22183
# Poissons Ratio (y) = 0.07765 0.97061
# Poissons Ratio (z) = 0.07395 0.52334
#
# Static dielectric constant tensor:
#      x y z
#    x 1.666090 0.000000 0.000000 
#    y 0.000000 1.658210 0.000000 
#    z 0.000000 0.000000 1.677000 
# 
# From -- ./inp_files/53954.got.cif
#   From: 2010.05.17/outbox.cif.g08.bks.cpg/sg65_27_cif.got.tgz:53954.got - 2010.06.03 17:01:31.
