data_PCOD9484916
_publ_section_title
;
Structure prediction by ZEFSAII (Michael W. Deem and Ramdas Pophale) SiO2 
 PCOD9484916
Probable space group: C M M M
;
_chemical_formula_sum "Si O2"
_cell_formula_units_Z 96
_cell_length_a 31.749105
_cell_length_b 7.279202
_cell_length_c 18.632738
_cell_angle_alpha 90.000000
_cell_angle_beta 90.000000
_cell_angle_gamma 90.000000
_cell_volume 4306.177583
_symmetry_space_group_name_H-M "C M M M"
_symmetry_group_IT_number 65
_symmetry_cell_setting 'orthorhombic'
loop_
_space_group_symop_operation_xyz
x,y,z
-x,-y,z
x,-y,-z
-x,y,-z
-x,-y,-z
x,y,-z
-x,y,z
x,-y,z
1/2+x,1/2+y,z
1/2-x,1/2-y,z
1/2+x,1/2-y,-z
1/2-x,1/2+y,-z
1/2-x,1/2-y,-z
1/2+x,1/2+y,-z
1/2-x,1/2+y,z
1/2+x,1/2-y,z
loop_
_atom_site_type_symbol
_atom_site_label
_atom_site_fract_x
_atom_site_fract_y
_atom_site_fract_z
Si Si1 0.796890 0.718850 0.838170
Si Si2 0.200729 0.281315 0.419914
Si Si3 0.857619 0.275492 0.709681
Si Si4 0.302984 0.789904 0.000000
Si Si5 0.098056 0.288068 0.000000
Si Si6 0.546522 0.223486 0.290190
Si Si7 0.454187 0.220687 0.126201
O O1 0.803535 0.500000 0.845746
O O2 0.750000 0.750000 0.806017
O O3 0.834558 0.782232 0.784815
O O4 0.794359 0.791591 0.920576
O O5 0.191101 0.209899 0.500000
O O6 0.194212 0.500000 0.422122
O O7 0.250000 0.250000 0.406112
O O8 0.172374 0.213871 0.354946
O O9 0.858110 0.500000 0.713484
O O10 0.905711 0.220828 0.689779
O O11 0.352888 0.795794 0.000000
O O12 0.285616 0.000000 0.000000
O O13 0.080599 0.206753 0.926999
O O14 0.082205 0.500000 0.000000
O O15 0.500000 0.280563 0.320481
O O16 0.546226 0.284554 0.207192
O O17 0.545997 0.000000 0.294824
O O18 0.500000 0.257049 0.093922
O O19 0.449422 0.000000 0.133971
#
# Coordination Sequence:
#
# PCOD9484916 Si02
#       7
#    16  16  16   8   8  16  16
#     4  10  19  30  43  59  81 108 139 173 207 244
#     4   9  17  29  45  65  89 114 139 170 208 247
#     4   9  16  26  41  60  82 110 141 170 203 245
#     4   9  17  26  36  51  73 104 136 166 201 239
#     4   9  13  17  26  40  61  90 125 160 195 236
#     4   8  13  21  33  50  74 104 135 163 194 238
#     4   8  12  16  23  38  61  90 124 160 195 232
#
# _framework density 22.293552999999999
#
# number of rings (size 3 to 8) (size 9 to 14) (size 15 to 20)
#    0.000    3.167    0.000    3.000    0.000    5.000 
#    0.000    0.000    0.000    0.500    0.000    3.500 
#    0.000    2.667    0.000    4.167    0.000   26.167 
#
# Total GULP energy -267266.449595 kJ/mol
# GULP energy per Si atom -5568.051033 kJ/mol
# Density = 2.224281 g / cm^3
# Si number density = 22.293553 Si / 1000 Ang^3
#
#
#
# Elastic Constant Matrix: (Units=GPa)
#
#
# Indices 1 2 3 4 5 6 
#
# 1 140.4372 4.1960 79.5007 0.0000 0.0000 0.0000
# 2 4.1960 93.9607 6.7581 0.0000 0.0000 0.0000
# 3 79.5007 6.7581 107.0733 0.0000 0.0000 0.0000
# 4 0.0000 0.0000 0.0000 13.5986 0.0000 0.0000
# 5 0.0000 0.0000 0.0000 0.0000 37.9929 0.0000
# 6 0.0000 0.0000 0.0000 0.0000 0.0000 117.4717
#
#
#
# Elastic Compliance Matrix: (Units=1/GPa)
#
#
# Indices 1 2 3 4 5 6 
#
# 1 0.012285 0.000108 -0.009128 0.000000 0.000000 0.000000
# 2 0.000108 0.010692 -0.000755 0.000000 0.000000 0.000000
# 3 -0.009128 -0.000755 0.016165 0.000000 0.000000 0.000000
# 4 0.000000 0.000000 0.000000 0.073537 0.000000 0.000000
# 5 0.000000 0.000000 0.000000 0.000000 0.026321 0.000000
# 6 0.000000 0.000000 0.000000 0.000000 0.000000 0.008513
#
#
# Mechanical properties :
#
#
# Convention : Reuss Voigt Hill
#
# Bulk Modulus (GPa) = 51.04328 58.04231 54.54279
# Shear Modulus (GPa) = 28.80307 50.54706 39.67507
#
# Velocity S-wave (km/s) = 3.59833 4.76682 4.22318
# Velocity P-wave (km/s) = 6.34111 7.50925 6.94976
#
# Compressibility (1/GPa) = 0.01959122
#
# Stress axis : x y z
#
# Youngs Moduli (GPa) = 81.40158 93.52582 61.86368
#
# Poissons Ratio (x) = -0.01010 0.56470
# Poissons Ratio (y) = -0.00879 0.04671
# Poissons Ratio (z) = 0.74304 0.07061
#
# Static dielectric constant tensor:
#      x y z
#    x 1.863980 0.000000 0.000000 
#    y 0.000000 1.275700 0.000000 
#    z 0.000000 0.000000 1.804650 
# 
# From -- ./inp_files/66022.got.cif
#   From: 2010.05.17/outbox.cif.g08.bks.cpg/sg65_34_cif.got.tgz:66022.got - 2010.06.03 17:01:31.
