data_PCOD9484570
_publ_section_title
;
Structure prediction by ZEFSAII (Michael W. Deem and Ramdas Pophale) SiO2 
 PCOD9484570
Probable space group: C M M M
;
_chemical_formula_sum "Si O2"
_cell_formula_units_Z 104
_cell_length_a 8.195641
_cell_length_b 22.556884
_cell_length_c 27.464394
_cell_angle_alpha 90.000000
_cell_angle_beta 90.000000
_cell_angle_gamma 90.000000
_cell_volume 5077.290978
_symmetry_space_group_name_H-M "C M M M"
_symmetry_group_IT_number 65
_symmetry_cell_setting 'orthorhombic'
loop_
_space_group_symop_operation_xyz
x,y,z
-x,-y,z
x,-y,-z
-x,y,-z
-x,-y,-z
x,y,-z
-x,y,z
x,-y,z
1/2+x,1/2+y,z
1/2-x,1/2-y,z
1/2+x,1/2-y,-z
1/2-x,1/2+y,-z
1/2-x,1/2-y,-z
1/2+x,1/2+y,-z
1/2-x,1/2+y,z
1/2+x,1/2-y,z
loop_
_atom_site_type_symbol
_atom_site_label
_atom_site_fract_x
_atom_site_fract_y
_atom_site_fract_z
Si Si1 0.302740 0.500000 0.234422
Si Si2 0.698208 0.565828 0.057380
Si Si3 0.304907 0.684937 0.310968
Si Si4 0.190541 0.381522 0.597547
Si Si5 0.808908 0.818480 0.500000
Si Si6 0.301555 0.000000 0.651917
Si Si7 0.198587 0.873230 0.211780
Si Si8 0.302791 0.315808 0.886056
O O1 0.500000 0.500000 0.234517
O O2 0.253383 0.500000 0.291625
O O3 0.248406 0.558968 0.206582
O O4 0.500000 0.565454 0.061989
O O5 0.753315 0.500000 0.074801
O O6 0.753951 0.626203 0.083670
O O7 0.736386 0.569625 0.000000
O O8 0.500000 0.680919 0.316955
O O9 0.250000 0.750000 0.297256
O O10 0.220112 0.666793 0.360744
O O11 0.252135 0.644407 0.266050
O O12 0.258448 0.355589 0.547622
O O13 0.256907 0.442125 0.621968
O O14 0.000000 0.391489 0.589519
O O15 0.750000 0.750000 0.500000
O O16 0.000000 0.813885 0.500000
O O17 0.500000 0.000000 0.652846
O O18 0.253914 0.829638 0.169263
O O19 0.000000 0.871572 0.210662
O O20 0.500000 0.316094 0.887298
O O21 0.250000 0.250000 0.901807
#
# Coordination Sequence:
#
# PCOD9484570 Si02
#       8
#     8  16  16  16   8   8  16  16
#     4  10  18  34  57  81 109 142 187 236 275 326
#     4   8  15  29  51  79 108 141 188 244 293 339
#     4  11  21  35  54  79 108 144 185 226 273 328
#     4  11  23  41  62  86 115 147 181 222 271 327
#     4  12  26  45  66  89 115 146 184 226 271 320
#     4  10  22  39  61  88 117 145 179 221 273 326
#     4   9  19  32  52  80 109 143 183 229 280 330
#     4  10  20  34  52  79 113 149 188 234 289 345
#
# _framework density 20.483364000000002
#
# number of rings (size 3 to 8) (size 9 to 14) (size 15 to 20)
#    0.000    2.000    1.538    3.000    1.077    1.231 
#    0.000    3.077    0.000    0.462    0.000    1.077 
#    0.000    0.000    0.000    0.000    0.000    0.000 
#
# Total GULP energy -290092.351015 kJ/mol
# GULP energy per Si atom -5578.699058 kJ/mol
# Density = 2.043674 g / cm^3
# Si number density = 20.483364 Si / 1000 Ang^3
#
#
#
# Elastic Constant Matrix: (Units=GPa)
#
#
# Indices 1 2 3 4 5 6 
#
# 1 20.0698 4.8520 4.0106 0.0000 0.0000 0.0000
# 2 4.8520 135.6619 34.7362 0.0000 0.0000 0.0000
# 3 4.0106 34.7362 70.6465 0.0000 0.0000 0.0000
# 4 0.0000 0.0000 0.0000 22.5748 0.0000 0.0000
# 5 0.0000 0.0000 0.0000 0.0000 -0.9600 0.0000
# 6 0.0000 0.0000 0.0000 0.0000 0.0000 15.7169
#
#
#
# Elastic Compliance Matrix: (Units=1/GPa)
#
#
# Indices 1 2 3 4 5 6 
#
# 1 0.050576 -0.001228 -0.002267 0.000000 0.000000 0.000000
# 2 -0.001228 0.008463 -0.004091 0.000000 0.000000 0.000000
# 3 -0.002267 -0.004091 0.016295 0.000000 0.000000 0.000000
# 4 0.000000 0.000000 0.000000 0.044297 0.000000 0.000000
# 5 0.000000 0.000000 0.000000 0.000000 -1.041716 0.000000
# 6 0.000000 0.000000 0.000000 0.000000 0.000000 0.063626
#
#
# Mechanical properties :
#
#
# Convention : Reuss Voigt Hill
#
# Bulk Modulus (GPa) = 16.62223 34.84174 25.73198
# Shear Modulus (GPa) = -6.07363 19.65164 6.78901
#
# Velocity S-wave (km/s) = -1.72383 3.10077 1.82252
# Velocity P-wave (km/s) = 2.04218 5.46502 4.12534
#
# Compressibility (1/GPa) = 0.06016039
#
# Stress axis : x y z
#
# Youngs Moduli (GPa) = 19.77221 118.16444 61.36712
#
# Poissons Ratio (x) = 0.14515 0.13913
# Poissons Ratio (y) = 0.02429 0.25107
# Poissons Ratio (z) = 0.04483 0.48345
#
# Static dielectric constant tensor:
#      x y z
#    x 1.752200 0.000000 0.000000 
#    y 0.000000 1.796200 0.000000 
#    z 0.000000 0.000000 1.718690 
# 
# From -- ./inp_files/73399.got.cif
#   From: 2010.05.17/outbox.cif.g08.bks.cpg/sg65_37_cif.got.tgz:73399.got - 2010.06.03 17:01:31.
