data_PCOD9484260
_publ_section_title
;
Structure prediction by ZEFSAII (Michael W. Deem and Ramdas Pophale) SiO2 
 PCOD9484260
Probable space group: C M M M
;
_chemical_formula_sum "Si O2"
_cell_formula_units_Z 52
_cell_length_a 30.935754
_cell_length_b 5.405481
_cell_length_c 18.956663
_cell_angle_alpha 90.000000
_cell_angle_beta 90.000000
_cell_angle_gamma 90.000000
_cell_volume 3169.983052
_symmetry_space_group_name_H-M "C M M M"
_symmetry_group_IT_number 65
_symmetry_cell_setting 'orthorhombic'
loop_
_space_group_symop_operation_xyz
x,y,z
-x,-y,z
x,-y,-z
-x,y,-z
-x,-y,-z
x,y,-z
-x,y,z
x,-y,z
1/2+x,1/2+y,z
1/2-x,1/2-y,z
1/2+x,1/2-y,-z
1/2-x,1/2+y,-z
1/2-x,1/2-y,-z
1/2+x,1/2+y,-z
1/2-x,1/2+y,z
1/2+x,1/2-y,z
loop_
_atom_site_type_symbol
_atom_site_label
_atom_site_fract_x
_atom_site_fract_y
_atom_site_fract_z
Si Si1 0.938185 0.000000 0.581487
Si Si2 0.341605 0.500000 0.628535
Si Si3 0.047189 0.500000 0.669975
Si Si4 0.223148 0.000000 0.500000
Si Si5 0.355077 0.000000 0.284334
Si Si6 0.694055 0.000000 0.864096
Si Si7 0.289827 0.500000 0.080878
O O1 0.886460 0.000000 0.586191
O O2 0.951496 0.748439 0.621920
O O3 0.951677 0.000000 0.500000
O O4 0.304627 0.500000 0.571028
O O5 0.341410 0.250445 0.674967
O O6 0.091910 0.500000 0.715216
O O7 0.000000 0.500000 0.706907
O O8 0.250000 0.750000 0.500000
O O9 0.329867 0.000000 0.210357
O O10 0.683600 0.746126 0.903696
O O11 0.747063 0.000000 0.868986
O O12 0.274478 0.500000 0.000000
#
# Coordination Sequence:
#
# PCOD9484260 Si02
#       7
#     8   8   8   4   8   8   8
#     4  10  19  33  54  68  92 125 156 209 271 321
#     4  10  21  39  51  67  96 130 172 217 266 303
#     4  10  21  33  49  74  99 125 160 209 259 310
#     4  12  24  40  52  72  87 128 181 230 264 308
#     4  10  21  36  54  72 101 136 166 209 255 309
#     4  10  18  32  49  74 104 136 164 186 238 297
#     4  10  19  33  53  79 109 130 157 204 239 277
#
# _framework density 16.403870999999999
#
# number of rings (size 3 to 8) (size 9 to 14) (size 15 to 20)
#    0.000    1.846    0.769    5.077    0.000    1.846 
#   16.615    0.000    0.000    0.000    0.000    0.000 
#    0.000    6.769    0.000    0.000    0.000    0.000 
#
# Total GULP energy -144798.864704 kJ/mol
# GULP energy per Si atom -5569.187104 kJ/mol
# Density = 1.636654 g / cm^3
# Si number density = 16.403871 Si / 1000 Ang^3
#
#
#
# Elastic Constant Matrix: (Units=GPa)
#
#
# Indices 1 2 3 4 5 6 
#
# 1 106.5419 43.6440 62.8526 0.0000 0.0000 0.0000
# 2 43.6440 173.9962 45.7349 0.0000 0.0000 0.0000
# 3 62.8526 45.7349 98.2259 0.0000 0.0000 0.0000
# 4 0.0000 0.0000 0.0000 22.8260 0.0000 0.0000
# 5 0.0000 0.0000 0.0000 0.0000 -13.5201 0.0000
# 6 0.0000 0.0000 0.0000 0.0000 0.0000 26.9035
#
#
#
# Elastic Compliance Matrix: (Units=1/GPa)
#
#
# Indices 1 2 3 4 5 6 
#
# 1 0.015392 -0.001449 -0.009174 0.000000 0.000000 0.000000
# 2 -0.001449 0.006685 -0.002185 0.000000 0.000000 0.000000
# 3 -0.009174 -0.002185 0.017068 0.000000 0.000000 0.000000
# 4 0.000000 0.000000 0.000000 0.043810 0.000000 0.000000
# 5 0.000000 0.000000 0.000000 0.000000 -0.073964 0.000000
# 6 0.000000 0.000000 0.000000 0.000000 0.000000 0.037170
#
#
# Mechanical properties :
#
#
# Convention : Reuss Voigt Hill
#
# Bulk Modulus (GPa) = 73.92076 75.91411 74.91744
# Shear Modulus (GPa) = 65.54124 22.34403 43.94264
#
# Velocity S-wave (km/s) = 6.32783 3.69469 5.18132
# Velocity P-wave (km/s) = 9.92721 8.03615 9.03131
#
# Compressibility (1/GPa) = 0.01352800
#
# Stress axis : x y z
#
# Youngs Moduli (GPa) = 64.96990 149.58414 58.58801
#
# Poissons Ratio (x) = 0.21680 0.53749
# Poissons Ratio (y) = 0.09417 0.12803
# Poissons Ratio (z) = 0.59603 0.32688
#
# Static dielectric constant tensor:
#      x y z
#    x 1.564040 0.000000 0.000000 
#    y 0.000000 1.613180 0.000000 
#    z 0.000000 0.000000 1.528380 
# 
# From -- ./inp_files/47317.got.cif
#   From: 2010.05.17/outbox.cif.g08.bks.cpg/sg65_24_cif.got.tgz:47317.got - 2010.06.03 17:01:31.
