data_PCOD9484632
_publ_section_title
;
Structure prediction by ZEFSAII (Michael W. Deem and Ramdas Pophale) SiO2 
 PCOD9484632
Probable space group: C M M M
;
_chemical_formula_sum "Si O2"
_cell_formula_units_Z 128
_cell_length_a 22.921112
_cell_length_b 17.791989
_cell_length_c 19.678654
_cell_angle_alpha 90.000000
_cell_angle_beta 90.000000
_cell_angle_gamma 90.000000
_cell_volume 8025.194641
_symmetry_space_group_name_H-M "C M M M"
_symmetry_group_IT_number 65
_symmetry_cell_setting 'orthorhombic'
loop_
_space_group_symop_operation_xyz
x,y,z
-x,-y,z
x,-y,-z
-x,y,-z
-x,-y,-z
x,y,-z
-x,y,z
x,-y,z
1/2+x,1/2+y,z
1/2-x,1/2-y,z
1/2+x,1/2-y,-z
1/2-x,1/2+y,-z
1/2-x,1/2-y,-z
1/2+x,1/2+y,-z
1/2-x,1/2+y,z
1/2+x,1/2-y,z
loop_
_atom_site_type_symbol
_atom_site_label
_atom_site_fract_x
_atom_site_fract_y
_atom_site_fract_z
Si Si1 0.833297 0.683624 0.575514
Si Si2 0.065462 0.587550 0.823836
Si Si3 0.703898 0.585237 0.718600
Si Si4 0.737430 0.084750 0.078155
Si Si5 0.656791 0.088157 0.704916
Si Si6 0.124167 0.309219 0.921366
Si Si7 0.306403 0.303792 0.829853
Si Si8 0.305138 0.354668 0.575031
O O1 0.856371 0.664269 0.500000
O O2 0.857785 0.638807 0.639657
O O3 0.764363 0.662722 0.574609
O O4 0.835569 0.773525 0.583973
O O5 0.073776 0.500000 0.844210
O O6 0.115154 0.605917 0.768377
O O7 0.072834 0.643872 0.886631
O O8 0.000000 0.593839 0.795262
O O9 0.691829 0.500000 0.742029
O O10 0.774515 0.597564 0.723034
O O11 0.676021 0.653255 0.761348
O O12 0.685661 0.593857 0.640129
O O13 0.677975 0.131769 0.079261
O O14 0.783232 0.129325 0.122608
O O15 0.727751 0.000000 0.102569
O O16 0.756990 0.082867 0.000000
O O17 0.649083 0.000000 0.688345
O O18 0.145678 0.242603 0.871818
O O19 0.114644 0.286758 0.000000
O O20 0.250000 0.250000 0.817247
O O21 0.320072 0.384709 0.500000
#
# Coordination Sequence:
#
# PCOD9484632 Si02
#       8
#    16  16  16  16  16  16  16  16
#     4   8  14  24  40  61  87 120 158 190 217 255
#     4  10  21  35  49  65  86 114 148 192 240 272
#     4  10  19  27  41  65  92 125 158 182 209 255
#     4   9  16  27  43  62  89 120 145 172 208 256
#     4   9  17  28  43  63  90 122 159 193 221 261
#     4  10  20  32  46  65  85 112 149 185 221 268
#     4  10  19  27  41  61  88 118 146 180 214 261
#     4   8  15  25  38  58  88 123 156 187 215 247
#
# _framework density 15.949768000000001
#
# number of rings (size 3 to 8) (size 9 to 14) (size 15 to 20)
#    0.000    2.750    0.000    3.375    5.250    4.000 
#    0.000    3.125    0.000    0.375    0.000    1.750 
#    0.000    2.000    0.000    6.125    0.000    4.125 
#
# Total GULP energy -356431.249865 kJ/mol
# GULP energy per Si atom -5569.238279 kJ/mol
# Density = 1.591347 g / cm^3
# Si number density = 15.949768 Si / 1000 Ang^3
#
#
#
# Elastic Constant Matrix: (Units=GPa)
#
#
# Indices 1 2 3 4 5 6 
#
# 1 20.0293 8.8900 22.2641 0.0000 0.0000 0.0000
# 2 8.8900 66.3846 50.7590 0.0000 0.0000 0.0000
# 3 22.2641 50.7590 98.0108 0.0000 0.0000 0.0000
# 4 0.0000 0.0000 0.0000 31.5056 0.0000 0.0000
# 5 0.0000 0.0000 0.0000 0.0000 7.1744 0.0000
# 6 0.0000 0.0000 0.0000 0.0000 0.0000 12.0306
#
#
#
# Elastic Compliance Matrix: (Units=1/GPa)
#
#
# Indices 1 2 3 4 5 6 
#
# 1 0.067577 0.004450 -0.017655 0.000000 0.000000 0.000000
# 2 0.004450 0.025233 -0.014079 0.000000 0.000000 0.000000
# 3 -0.017655 -0.014079 0.021505 0.000000 0.000000 0.000000
# 4 0.000000 0.000000 0.000000 0.031740 0.000000 0.000000
# 5 0.000000 0.000000 0.000000 0.000000 0.139384 0.000000
# 6 0.000000 0.000000 0.000000 0.000000 0.000000 0.083121
#
#
# Mechanical properties :
#
#
# Convention : Reuss Voigt Hill
#
# Bulk Modulus (GPa) = 16.73745 38.69454 27.71600
# Shear Modulus (GPa) = 11.28558 16.97623 14.13090
#
# Velocity S-wave (km/s) = 2.66290 3.26599 2.97974
# Velocity P-wave (km/s) = 4.46893 6.20767 5.40863
#
# Compressibility (1/GPa) = 0.05974626
#
# Stress axis : x y z
#
# Youngs Moduli (GPa) = 14.79794 39.63136 46.50154
#
# Poissons Ratio (x) = -0.17635 0.82100
# Poissons Ratio (y) = -0.06585 0.65467
# Poissons Ratio (z) = 0.26126 0.55795
#
# Static dielectric constant tensor:
#      x y z
#    x 1.500210 0.000000 0.000000 
#    y 0.000000 1.541280 0.000000 
#    z 0.000000 0.000000 1.593800 
# 
# From -- ./inp_files/65588.got.cif
#   From: 2010.05.17/outbox.cif.g08.bks.cpg/sg65_33_cif.got.tgz:65588.got - 2010.06.03 17:01:31.
