data_PCOD9484602
_publ_section_title
;
Structure prediction by ZEFSAII (Michael W. Deem and Ramdas Pophale) SiO2 
 PCOD9484602
Probable space group: C M M M
;
_chemical_formula_sum "Si O2"
_cell_formula_units_Z 72
_cell_length_a 14.839367
_cell_length_b 30.447940
_cell_length_c 8.640453
_cell_angle_alpha 90.000000
_cell_angle_beta 90.000000
_cell_angle_gamma 90.000000
_cell_volume 3903.999946
_symmetry_space_group_name_H-M "C M M M"
_symmetry_group_IT_number 65
_symmetry_cell_setting 'orthorhombic'
loop_
_space_group_symop_operation_xyz
x,y,z
-x,-y,z
x,-y,-z
-x,y,-z
-x,-y,-z
x,y,-z
-x,y,z
x,-y,z
1/2+x,1/2+y,z
1/2-x,1/2-y,z
1/2+x,1/2-y,-z
1/2-x,1/2+y,-z
1/2-x,1/2-y,-z
1/2+x,1/2+y,-z
1/2-x,1/2+y,z
1/2+x,1/2-y,z
loop_
_atom_site_type_symbol
_atom_site_label
_atom_site_fract_x
_atom_site_fract_y
_atom_site_fract_z
Si Si1 0.308149 0.051522 0.184704
Si Si2 0.000000 0.161451 0.184579
Si Si3 0.000000 0.446583 0.678208
Si Si4 0.186145 0.874454 0.314203
Si Si5 0.000000 0.260938 0.687961
Si Si6 0.193059 0.292582 0.311787
O O1 0.406820 0.067175 0.242160
O O2 0.229928 0.080121 0.260714
O O3 0.299761 0.000000 0.226231
O O4 0.304208 0.055207 0.000000
O O5 0.910676 0.136832 0.243768
O O6 0.000000 0.211021 0.251860
O O7 0.000000 0.163453 0.000000
O O8 0.000000 0.500000 0.682566
O O9 0.000000 0.432238 0.500000
O O10 0.179228 0.873074 0.500000
O O11 0.255760 0.836290 0.262046
O O12 0.909562 0.285816 0.738339
O O13 0.000000 0.258612 0.500000
O O14 0.192812 0.293004 0.500000
O O15 0.250000 0.250000 0.263010
#
# Coordination Sequence:
#
# PCOD9484602 Si02
#       6
#    16   8   8  16   8  16
#     4  10  21  38  59  86 123 160 191 236 298 351
#     4  12  24  38  56  82 114 151 193 237 297 357
#     4   9  17  32  57  86 114 150 196 237 276 335
#     4  11  22  38  61  86 113 150 199 246 288 344
#     4  10  18  35  59  81 113 152 193 233 282 345
#     4   9  17  31  55  85 112 144 186 234 284 334
#
# _framework density 18.442623000000001
#
# number of rings (size 3 to 8) (size 9 to 14) (size 15 to 20)
#    0.000    1.889    2.222    2.667    0.000    3.556 
#    0.000    6.111    0.000    3.333    0.000    0.000 
#    0.000    0.000    0.000    0.000    0.000    0.000 
#
# Total GULP energy -201023.690916 kJ/mol
# GULP energy per Si atom -5583.991414 kJ/mol
# Density = 1.840065 g / cm^3
# Si number density = 18.442623 Si / 1000 Ang^3
#
#
#
# Elastic Constant Matrix: (Units=GPa)
#
#
# Indices 1 2 3 4 5 6 
#
# 1 193.6575 69.3737 47.9672 0.0000 0.0000 0.0000
# 2 69.3737 76.3316 33.8195 0.0000 0.0000 0.0000
# 3 47.9672 33.8195 54.8989 0.0000 0.0000 0.0000
# 4 0.0000 0.0000 0.0000 17.1886 0.0000 0.0000
# 5 0.0000 0.0000 0.0000 0.0000 25.0700 0.0000
# 6 0.0000 0.0000 0.0000 0.0000 0.0000 25.1506
#
#
#
# Elastic Compliance Matrix: (Units=1/GPa)
#
#
# Indices 1 2 3 4 5 6 
#
# 1 0.008119 -0.005826 -0.003505 0.000000 0.000000 0.000000
# 2 -0.005826 0.022199 -0.008585 0.000000 0.000000 0.000000
# 3 -0.003505 -0.008585 0.026566 0.000000 0.000000 0.000000
# 4 0.000000 0.000000 0.000000 0.058178 0.000000 0.000000
# 5 0.000000 0.000000 0.000000 0.000000 0.039888 0.000000
# 6 0.000000 0.000000 0.000000 0.000000 0.000000 0.039760
#
#
# Mechanical properties :
#
#
# Convention : Reuss Voigt Hill
#
# Bulk Modulus (GPa) = 47.49978 69.68988 58.59483
# Shear Modulus (GPa) = 21.04722 25.06366 23.05544
#
# Velocity S-wave (km/s) = 3.38187 3.69047 3.53954
# Velocity P-wave (km/s) = 6.40787 7.48524 6.96741
#
# Compressibility (1/GPa) = 0.02105273
#
# Stress axis : x y z
#
# Youngs Moduli (GPa) = 123.16924 45.04619 37.64166
#
# Poissons Ratio (x) = 0.26244 0.13193
# Poissons Ratio (y) = 0.71759 0.32316
# Poissons Ratio (z) = 0.43168 0.38673
#
# Static dielectric constant tensor:
#      x y z
#    x 1.619990 0.000000 0.000000 
#    y 0.000000 1.626010 0.000000 
#    z 0.000000 0.000000 1.621680 
# 
# From -- ./inp_files/7399.got.cif
#   From: 2010.05.17/outbox.cif.g08.bks.cpg/sg65_4_cif.got.tgz:7399.got - 2010.06.03 17:01:31.
