data_PCOD9484915
_publ_section_title
;
Structure prediction by ZEFSAII (Michael W. Deem and Ramdas Pophale) SiO2 
 PCOD9484915
Probable space group: C M M M
;
_chemical_formula_sum "Si O2"
_cell_formula_units_Z 96
_cell_length_a 7.306262
_cell_length_b 29.819449
_cell_length_c 21.521316
_cell_angle_alpha 90.000000
_cell_angle_beta 90.000000
_cell_angle_gamma 90.000000
_cell_volume 4688.821292
_symmetry_space_group_name_H-M "C M M M"
_symmetry_group_IT_number 65
_symmetry_cell_setting 'orthorhombic'
loop_
_space_group_symop_operation_xyz
x,y,z
-x,-y,z
x,-y,-z
-x,y,-z
-x,-y,-z
x,y,-z
-x,y,z
x,-y,z
1/2+x,1/2+y,z
1/2-x,1/2-y,z
1/2+x,1/2-y,-z
1/2-x,1/2+y,-z
1/2-x,1/2-y,-z
1/2+x,1/2+y,-z
1/2-x,1/2+y,z
1/2+x,1/2-y,z
loop_
_atom_site_type_symbol
_atom_site_label
_atom_site_fract_x
_atom_site_fract_y
_atom_site_fract_z
Si Si1 0.276576 0.645238 0.431892
Si Si2 0.724062 0.643348 0.811615
Si Si3 0.717793 0.302862 0.689996
Si Si4 0.777710 0.049583 0.239639
Si Si5 0.781723 0.197797 0.930142
Si Si6 0.722364 0.549603 0.384622
O O1 0.218986 0.661171 0.500000
O O2 0.500000 0.645764 0.431188
O O3 0.213320 0.674693 0.373601
O O4 0.219781 0.593573 0.421428
O O5 0.500000 0.644010 0.812206
O O6 0.784550 0.672435 0.752074
O O7 0.781445 0.592156 0.800066
O O8 0.786885 0.665945 0.875440
O O9 0.500000 0.310136 0.689731
O O10 0.750000 0.250000 0.691990
O O11 0.726008 0.055279 0.312095
O O12 0.000000 0.049669 0.239137
O O13 0.718332 0.000000 0.219225
O O14 0.750000 0.250000 0.914408
O O15 0.000000 0.191626 0.932829
O O16 0.710071 0.189919 0.000000
O O17 0.500000 0.549227 0.386527
O O18 0.782255 0.500000 0.405550
#
# Coordination Sequence:
#
# PCOD9484915 Si02
#       6
#    16  16  16  16  16  16
#     4   9  16  25  36  52  77 106 132 162 203 243
#     4   9  15  25  41  59  81 108 135 164 200 239
#     4  10  19  30  43  59  79 105 137 169 200 236
#     4   8  12  19  34  55  78 104 132 160 193 238
#     4   9  17  28  42  61  85 111 138 168 202 238
#     4   8  12  19  32  51  76 103 129 158 196 242
#
# _framework density 20.474228
#
# number of rings (size 3 to 8) (size 9 to 14) (size 15 to 20)
#    0.000    3.167    1.667    1.500    0.000    0.667 
#    0.000    1.667    0.000    0.500    0.000    3.500 
#    0.000    4.667    0.000    5.667    0.000    6.000 
#
# Total GULP energy -267870.792710 kJ/mol
# GULP energy per Si atom -5580.641515 kJ/mol
# Density = 2.042763 g / cm^3
# Si number density = 20.474228 Si / 1000 Ang^3
#
#
#
# Elastic Constant Matrix: (Units=GPa)
#
#
# Indices 1 2 3 4 5 6 
#
# 1 83.6362 -2.0605 7.5125 0.0000 0.0000 0.0000
# 2 -2.0605 155.2992 97.8422 0.0000 0.0000 0.0000
# 3 7.5125 97.8422 141.5070 0.0000 0.0000 0.0000
# 4 0.0000 0.0000 0.0000 27.9114 0.0000 0.0000
# 5 0.0000 0.0000 0.0000 0.0000 -14.9840 0.0000
# 6 0.0000 0.0000 0.0000 0.0000 0.0000 4.4957
#
#
#
# Elastic Compliance Matrix: (Units=1/GPa)
#
#
# Indices 1 2 3 4 5 6 
#
# 1 0.012101 0.001002 -0.001335 0.000000 0.000000 0.000000
# 2 0.001002 0.011492 -0.007999 0.000000 0.000000 0.000000
# 3 -0.001335 -0.007999 0.012669 0.000000 0.000000 0.000000
# 4 0.000000 0.000000 0.000000 0.035828 0.000000 0.000000
# 5 0.000000 0.000000 0.000000 0.000000 -0.066738 0.000000
# 6 0.000000 0.000000 0.000000 0.000000 0.000000 0.222433
#
#
# Mechanical properties :
#
#
# Convention : Reuss Voigt Hill
#
# Bulk Modulus (GPa) = 51.02897 65.22566 58.12731
# Shear Modulus (GPa) = 19.92172 21.96117 20.94144
#
# Velocity S-wave (km/s) = 3.12270 3.27865 3.20162
# Velocity P-wave (km/s) = 6.16274 6.80142 6.48994
#
# Compressibility (1/GPa) = 0.01959671
#
# Stress axis : x y z
#
# Youngs Moduli (GPa) = 82.63685 87.01582 78.93560
#
# Poissons Ratio (x) = -0.08716 0.10538
# Poissons Ratio (y) = -0.08277 0.63142
# Poissons Ratio (z) = 0.11032 0.69606
#
# Static dielectric constant tensor:
#      x y z
#    x 1.839440 0.000000 0.000000 
#    y 0.000000 1.708410 0.000000 
#    z 0.000000 0.000000 1.705670 
# 
# From -- ./inp_files/61735.got.cif
#   From: 2010.05.17/outbox.cif.g08.bks.cpg/sg65_31_cif.got.tgz:61735.got - 2010.06.03 17:01:31.
