data_PCOD9484852
_publ_section_title
;
Structure prediction by ZEFSAII (Michael W. Deem and Ramdas Pophale) SiO2 
 PCOD9484852
Probable space group: C M M M
;
_chemical_formula_sum "Si O2"
_cell_formula_units_Z 104
_cell_length_a 7.790281
_cell_length_b 28.839548
_cell_length_c 22.510765
_cell_angle_alpha 90.000000
_cell_angle_beta 90.000000
_cell_angle_gamma 90.000000
_cell_volume 5057.452667
_symmetry_space_group_name_H-M "C M M M"
_symmetry_group_IT_number 65
_symmetry_cell_setting 'orthorhombic'
loop_
_space_group_symop_operation_xyz
x,y,z
-x,-y,z
x,-y,-z
-x,y,-z
-x,-y,-z
x,y,-z
-x,y,z
x,-y,z
1/2+x,1/2+y,z
1/2-x,1/2-y,z
1/2+x,1/2-y,-z
1/2-x,1/2+y,-z
1/2-x,1/2-y,-z
1/2+x,1/2+y,-z
1/2-x,1/2+y,z
1/2+x,1/2-y,z
loop_
_atom_site_type_symbol
_atom_site_label
_atom_site_fract_x
_atom_site_fract_y
_atom_site_fract_z
Si Si1 0.203309 0.051495 0.752075
Si Si2 0.799902 0.550213 0.111369
Si Si3 0.197025 0.151958 0.117618
Si Si4 0.707578 0.303069 0.000000
Si Si5 0.702058 0.195978 0.242807
Si Si6 0.209193 0.552575 0.430451
Si Si7 0.695774 0.873050 0.337967
O O1 0.281262 0.049095 0.817403
O O2 0.302220 0.088273 0.713507
O O3 0.000000 0.063450 0.756601
O O4 0.216042 0.000000 0.725986
O O5 0.734297 0.500000 0.089287
O O6 0.707317 0.598140 0.098567
O O7 0.000000 0.553885 0.094941
O O8 0.265787 0.166334 0.182467
O O9 0.000000 0.166213 0.121956
O O10 0.279840 0.177299 0.061626
O O11 0.750000 0.250000 0.000000
O O12 0.500000 0.311421 0.000000
O O13 0.500000 0.194746 0.251818
O O14 0.750000 0.250000 0.235312
O O15 0.776739 0.170669 0.302247
O O16 0.249027 0.558610 0.500000
O O17 0.266606 0.500000 0.413614
O O18 0.274345 0.596359 0.391800
O O19 0.000000 0.552412 0.424501
O O20 0.500000 0.861060 0.355626
#
# Coordination Sequence:
#
# PCOD9484852 Si02
#       7
#    16  16  16   8  16  16  16
#     4  10  19  29  45  73 107 141 175 211 257 314
#     4  10  20  34  53  79 111 145 180 217 260 316
#     4  11  22  39  61  84 112 143 179 224 276 332
#     4  10  24  42  61  86 109 139 182 229 279 330
#     4  11  23  37  54  78 107 140 180 227 282 333
#     4   8  14  26  47  77 110 142 177 219 267 318
#     4  10  19  31  50  76 105 138 179 224 271 322
#
# _framework density 20.563713
#
# number of rings (size 3 to 8) (size 9 to 14) (size 15 to 20)
#    0.000    2.000    1.538    3.231    0.000    5.538 
#    0.000    0.385    0.000    3.231    0.000    2.154 
#    0.000    0.000    0.000    0.000    0.000    0.154 
#
# Total GULP energy -289627.953120 kJ/mol
# GULP energy per Si atom -5569.768329 kJ/mol
# Density = 2.051691 g / cm^3
# Si number density = 20.563713 Si / 1000 Ang^3
#
#
#
# Elastic Constant Matrix: (Units=GPa)
#
#
# Indices 1 2 3 4 5 6 
#
# 1 37.5647 -4.5845 0.0199 0.0000 0.0000 0.0000
# 2 -4.5845 118.1905 51.8223 0.0000 0.0000 0.0000
# 3 0.0199 51.8223 89.7411 0.0000 0.0000 0.0000
# 4 0.0000 0.0000 0.0000 24.8420 0.0000 0.0000
# 5 0.0000 0.0000 0.0000 0.0000 6.1868 0.0000
# 6 0.0000 0.0000 0.0000 0.0000 0.0000 19.0997
#
#
#
# Elastic Compliance Matrix: (Units=1/GPa)
#
#
# Indices 1 2 3 4 5 6 
#
# 1 0.026791 0.001395 -0.000812 0.000000 0.000000 0.000000
# 2 0.001395 0.011402 -0.006585 0.000000 0.000000 0.000000
# 3 -0.000812 -0.006585 0.014946 0.000000 0.000000 0.000000
# 4 0.000000 0.000000 0.000000 0.040254 0.000000 0.000000
# 5 0.000000 0.000000 0.000000 0.000000 0.161634 0.000000
# 6 0.000000 0.000000 0.000000 0.000000 0.000000 0.052357
#
#
# Mechanical properties :
#
#
# Convention : Reuss Voigt Hill
#
# Bulk Modulus (GPa) = 24.30898 37.77908 31.04403
# Shear Modulus (GPa) = 15.01053 23.24159 19.12606
#
# Velocity S-wave (km/s) = 2.70469 3.36553 3.05304
# Velocity P-wave (km/s) = 4.64766 5.78912 5.24951
#
# Compressibility (1/GPa) = 0.04113707
#
# Stress axis : x y z
#
# Youngs Moduli (GPa) = 37.32536 87.70255 66.90860
#
# Poissons Ratio (x) = -0.12235 0.05430
# Poissons Ratio (y) = -0.05207 0.44057
# Poissons Ratio (z) = 0.03029 0.57749
#
# Static dielectric constant tensor:
#      x y z
#    x 1.675040 0.000000 0.000000 
#    y 0.000000 1.805240 0.000000 
#    z 0.000000 0.000000 1.759550 
# 
# From -- ./inp_files/60817.got.cif
#   From: 2010.05.17/outbox.cif.g08.bks.cpg/sg65_31_cif.got.tgz:60817.got - 2010.06.03 17:01:31.
