data_PCOD9484018
_publ_section_title
;
Structure prediction by ZEFSAII (Michael W. Deem and Ramdas Pophale) SiO2 
 PCOD9484018
Probable space group: C M M M
;
_chemical_formula_sum "Si O2"
_cell_formula_units_Z 90
_cell_length_a 19.967891
_cell_length_b 26.179577
_cell_length_c 9.583374
_cell_angle_alpha 90.000000
_cell_angle_beta 90.000000
_cell_angle_gamma 90.000000
_cell_volume 5009.717767
_symmetry_space_group_name_H-M "C M M M"
_symmetry_group_IT_number 65
_symmetry_cell_setting 'orthorhombic'
loop_
_space_group_symop_operation_xyz
x,y,z
-x,-y,z
x,-y,-z
-x,y,-z
-x,-y,-z
x,y,-z
-x,y,z
x,-y,z
1/2+x,1/2+y,z
1/2-x,1/2-y,z
1/2+x,1/2-y,-z
1/2-x,1/2+y,-z
1/2-x,1/2-y,-z
1/2+x,1/2+y,-z
1/2-x,1/2+y,z
1/2+x,1/2-y,z
loop_
_atom_site_type_symbol
_atom_site_label
_atom_site_fract_x
_atom_site_fract_y
_atom_site_fract_z
Si Si1 0.000000 0.202133 0.269180
Si Si2 0.852249 0.336114 0.660628
Si Si3 0.500000 0.500000 0.000000
Si Si4 0.848798 0.213814 0.346710
Si Si5 0.000000 0.686855 0.667773
Si Si6 0.270790 0.365863 0.165987
Si Si7 0.000000 0.909268 0.231364
Si Si8 0.358575 0.560843 0.657128
O O1 0.927699 0.200168 0.343820
O O2 0.000000 0.262866 0.232773
O O3 0.000000 0.149902 0.178693
O O4 0.838361 0.350781 0.500000
O O5 0.842097 0.274600 0.670704
O O6 0.802714 0.362941 0.767079
O O7 0.931228 0.343109 0.688426
O O8 0.500000 0.545601 0.880873
O O9 0.821455 0.200224 0.500000
O O10 0.810823 0.182913 0.227986
O O11 0.000000 0.703042 0.500000
O O12 0.310943 0.413688 0.228967
O O13 0.270169 0.365806 0.000000
O O14 0.067009 0.917606 0.320329
O O15 0.335808 0.573273 0.500000
O O16 0.360634 0.500000 0.672661
#
# Coordination Sequence:
#
# PCOD9484018 Si02
#       8
#     8  16   2  16   8  16   8  16
#     4  10  18  30  53  84 102 139 191 233 276 318
#     4   9  18  35  57  81 108 141 181 224 273 325
#     4  12  28  40  54  76 116 152 190 242 296 344
#     4  10  19  33  54  78 107 143 185 235 274 317
#     4   8  16  32  59  87 110 135 176 233 277 317
#     4  12  25  35  51  76 110 149 182 220 279 339
#     4  12  23  36  60  77 108 149 187 236 283 332
#     4  11  24  41  60  82 103 137 192 246 284 321
#
# _framework density 17.965084000000001
#
# number of rings (size 3 to 8) (size 9 to 14) (size 15 to 20)
#    0.000    1.600    2.667    4.267    1.244    5.333 
#    0.000    0.444    1.956    0.000    0.000    0.622 
#    0.000    4.978    0.000    0.000    0.000    0.000 
#
# Total GULP energy -250677.446630 kJ/mol
# GULP energy per Si atom -5570.609925 kJ/mol
# Density = 1.792419 g / cm^3
# Si number density = 17.965084 Si / 1000 Ang^3
#
#
#
# Elastic Constant Matrix: (Units=GPa)
#
#
# Indices 1 2 3 4 5 6 
#
# 1 131.3135 27.8137 62.3048 0.0000 0.0000 0.0000
# 2 27.8137 47.3403 29.5815 0.0000 0.0000 0.0000
# 3 62.3048 29.5815 125.1757 0.0000 0.0000 0.0000
# 4 0.0000 0.0000 0.0000 20.0470 0.0000 0.0000
# 5 0.0000 0.0000 0.0000 0.0000 -247.4378 0.0000
# 6 0.0000 0.0000 0.0000 0.0000 0.0000 11.3857
#
#
#
# Elastic Compliance Matrix: (Units=1/GPa)
#
#
# Indices 1 2 3 4 5 6 
#
# 1 0.010411 -0.003377 -0.004384 0.000000 0.000000 0.000000
# 2 -0.003377 0.025879 -0.004435 0.000000 0.000000 0.000000
# 3 -0.004384 -0.004435 0.011219 0.000000 0.000000 0.000000
# 4 0.000000 0.000000 0.000000 0.049883 0.000000 0.000000
# 5 0.000000 0.000000 0.000000 0.000000 -0.004041 0.000000
# 6 0.000000 0.000000 0.000000 0.000000 0.000000 0.087829
#
#
# Mechanical properties :
#
#
# Convention : Reuss Voigt Hill
#
# Bulk Modulus (GPa) = 43.25816 60.35882 51.80849
# Shear Modulus (GPa) = 23.44378 -30.92573 -3.74098
#
# Velocity S-wave (km/s) = 3.61635 -4.15352 -1.44460
# Velocity P-wave (km/s) = 6.44737 3.26627 5.11063
#
# Compressibility (1/GPa) = 0.02311702
#
# Stress axis : x y z
#
# Youngs Moduli (GPa) = 96.05546 38.64128 89.13688
#
# Poissons Ratio (x) = 0.13050 0.39075
# Poissons Ratio (y) = 0.32441 0.39530
# Poissons Ratio (z) = 0.42107 0.17136
#
# Static dielectric constant tensor:
#      x y z
#    x 1.641870 0.000000 0.000000 
#    y 0.000000 1.616310 0.000000 
#    z 0.000000 0.000000 1.603560 
# 
# From -- ./inp_files/11928.got.cif
#   From: 2010.05.17/outbox.cif.g08.bks.cpg/sg65_6_cif.got.tgz:11928.got - 2010.06.03 17:01:31.
