data_PCOD9484815
_publ_section_title
;
Structure prediction by ZEFSAII (Michael W. Deem and Ramdas Pophale) SiO2 
 PCOD9484815
Probable space group: C M M M
;
_chemical_formula_sum "Si O2"
_cell_formula_units_Z 104
_cell_length_a 16.252123
_cell_length_b 28.995032
_cell_length_c 13.592748
_cell_angle_alpha 90.000000
_cell_angle_beta 90.000000
_cell_angle_gamma 90.000000
_cell_volume 6405.321874
_symmetry_space_group_name_H-M "C M M M"
_symmetry_group_IT_number 65
_symmetry_cell_setting 'orthorhombic'
loop_
_space_group_symop_operation_xyz
x,y,z
-x,-y,z
x,-y,-z
-x,y,-z
-x,-y,-z
x,y,-z
-x,y,z
x,-y,z
1/2+x,1/2+y,z
1/2-x,1/2-y,z
1/2+x,1/2-y,-z
1/2-x,1/2+y,-z
1/2-x,1/2-y,-z
1/2+x,1/2+y,-z
1/2-x,1/2+y,z
1/2+x,1/2-y,z
loop_
_atom_site_type_symbol
_atom_site_label
_atom_site_fract_x
_atom_site_fract_y
_atom_site_fract_z
Si Si1 0.590068 0.555240 0.704423
Si Si2 0.840250 0.398305 0.798194
Si Si3 0.164787 0.895034 0.115058
Si Si4 0.736115 0.055085 0.385793
Si Si5 0.405589 0.297525 0.118889
Si Si6 0.000000 0.444984 0.112538
Si Si7 0.400129 0.194572 0.884724
O O1 0.500000 0.570733 0.669301
O O2 0.589082 0.500000 0.710339
O O3 0.608311 0.575544 0.812171
O O4 0.668334 0.567053 0.636959
O O5 0.758741 0.408341 0.862529
O O6 0.817608 0.414591 0.688690
O O7 0.862374 0.345007 0.817390
O O8 0.918547 0.426360 0.835891
O O9 0.149853 0.841364 0.143285
O O10 0.145403 0.900728 0.000000
O O11 0.717382 0.062481 0.500000
O O12 0.725531 0.000000 0.364579
O O13 0.500000 0.305123 0.152736
O O14 0.377108 0.246401 0.147961
O O15 0.408698 0.295471 0.000000
O O16 0.000000 0.500000 0.112677
O O17 0.000000 0.427785 0.000000
O O18 0.500000 0.192080 0.882415
O O19 0.375511 0.187529 0.000000
#
# Coordination Sequence:
#
# PCOD9484815 Si02
#       7
#    16  16  16  16  16   8  16
#     4   9  18  31  48  72  98 127 164 197 232 287
#     4  11  20  32  49  70  93 123 166 204 248 293
#     4  10  19  29  44  69 104 138 165 197 236 285
#     4   9  19  36  54  71  94 121 153 204 259 296
#     4   8  15  27  43  66  97 134 167 194 231 280
#     4  11  22  34  49  69  97 133 168 200 236 288
#     4   9  16  28  47  69  97 129 162 201 238 280
#
# _framework density 16.236498000000001
#
# number of rings (size 3 to 8) (size 9 to 14) (size 15 to 20)
#    0.000    2.538    0.769    3.231    0.000    2.769 
#    0.000    5.000    0.000    1.385    0.000    8.615 
#    0.000    4.923    0.000    0.000    0.000    0.000 
#
# Total GULP energy -289775.188041 kJ/mol
# GULP energy per Si atom -5572.599770 kJ/mol
# Density = 1.619954 g / cm^3
# Si number density = 16.236498 Si / 1000 Ang^3
#
#
#
# Elastic Constant Matrix: (Units=GPa)
#
#
# Indices 1 2 3 4 5 6 
#
# 1 82.8958 34.1207 30.7598 0.0000 0.0000 0.0000
# 2 34.1207 31.1375 26.3457 0.0000 0.0000 0.0000
# 3 30.7598 26.3457 75.3645 0.0000 0.0000 0.0000
# 4 0.0000 0.0000 0.0000 9.8218 0.0000 0.0000
# 5 0.0000 0.0000 0.0000 0.0000 9.1942 0.0000
# 6 0.0000 0.0000 0.0000 0.0000 0.0000 14.3535
#
#
#
# Elastic Compliance Matrix: (Units=1/GPa)
#
#
# Indices 1 2 3 4 5 6 
#
# 1 0.022008 -0.023453 -0.000784 0.000000 0.000000 0.000000
# 2 -0.023453 0.070598 -0.015107 0.000000 0.000000 0.000000
# 3 -0.000784 -0.015107 0.018870 0.000000 0.000000 0.000000
# 4 0.000000 0.000000 0.000000 0.101814 0.000000 0.000000
# 5 0.000000 0.000000 0.000000 0.000000 0.108764 0.000000
# 6 0.000000 0.000000 0.000000 0.000000 0.000000 0.069669
#
#
# Mechanical properties :
#
#
# Convention : Reuss Voigt Hill
#
# Bulk Modulus (GPa) = 30.49935 41.31668 35.90801
# Shear Modulus (GPa) = 10.38769 13.21868 11.80318
#
# Velocity S-wave (km/s) = 2.53212 2.85640 2.69913
# Velocity P-wave (km/s) = 5.23202 6.03164 5.64601
#
# Compressibility (1/GPa) = 0.03278759
#
# Stress axis : x y z
#
# Youngs Moduli (GPa) = 45.43881 14.16480 52.99479
#
# Poissons Ratio (x) = 0.33221 0.04154
# Poissons Ratio (y) = 1.06567 0.80059
# Poissons Ratio (z) = 0.03561 0.21399
#
# Static dielectric constant tensor:
#      x y z
#    x 1.572410 0.000000 0.000000 
#    y 0.000000 1.560430 0.000000 
#    z 0.000000 0.000000 1.513320 
# 
# From -- ./inp_files/25542.got.cif
#   From: 2010.05.17/outbox.cif.g08.bks.cpg/sg65_13_cif.got.tgz:25542.got - 2010.06.03 17:01:31.
