data_PCOD9484280
_publ_section_title
;
Structure prediction by ZEFSAII (Michael W. Deem and Ramdas Pophale) SiO2 
 PCOD9484280
Probable space group: C M M M
;
_chemical_formula_sum "Si O2"
_cell_formula_units_Z 68
_cell_length_a 11.912469
_cell_length_b 23.067787
_cell_length_c 12.419928
_cell_angle_alpha 90.000000
_cell_angle_beta 90.000000
_cell_angle_gamma 90.000000
_cell_volume 3412.925390
_symmetry_space_group_name_H-M "C M M M"
_symmetry_group_IT_number 65
_symmetry_cell_setting 'orthorhombic'
loop_
_space_group_symop_operation_xyz
x,y,z
-x,-y,z
x,-y,-z
-x,y,-z
-x,-y,-z
x,y,-z
-x,y,z
x,-y,z
1/2+x,1/2+y,z
1/2-x,1/2-y,z
1/2+x,1/2-y,-z
1/2-x,1/2+y,-z
1/2-x,1/2-y,-z
1/2+x,1/2+y,-z
1/2-x,1/2+y,z
1/2+x,1/2-y,z
loop_
_atom_site_type_symbol
_atom_site_label
_atom_site_fract_x
_atom_site_fract_y
_atom_site_fract_z
Si Si1 0.375318 0.903477 0.189109
Si Si2 0.279397 0.570207 0.623804
Si Si3 0.000000 0.930598 0.249372
Si Si4 0.216610 0.936449 0.000000
Si Si5 0.500000 0.606879 0.000000
Si Si6 0.125037 0.268553 0.871136
O O1 0.500000 0.927703 0.179656
O O2 0.327506 0.909861 0.308537
O O3 0.379166 0.836557 0.154893
O O4 0.291693 0.933619 0.105660
O O5 0.281601 0.589201 0.500000
O O6 0.280472 0.500000 0.624252
O O7 0.388934 0.590785 0.689659
O O8 0.000000 0.000000 0.259882
O O9 0.000000 0.917413 0.123149
O O10 0.133908 0.880617 0.000000
O O11 0.156793 0.000000 0.000000
O O12 0.250000 0.250000 0.830733
O O13 0.000000 0.243894 0.835180
O O14 0.125391 0.260090 0.000000
#
# Coordination Sequence:
#
# PCOD9484280 Si02
#       6
#    16  16   8   8   4  16
#     4  11  22  36  54  79 112 148 183 228 280 330
#     4  10  21  36  54  77 109 152 196 232 269 321
#     4  10  18  32  51  73 106 146 186 231 279 316
#     4  12  22  34  50  78 117 149 182 222 276 335
#     4  12  21  32  52  78 112 148 182 232 278 314
#     4   9  18  36  57  80 111 143 180 227 285 348
#
# _framework density 19.924257000000001
#
# number of rings (size 3 to 8) (size 9 to 14) (size 15 to 20)
#    0.000    1.647    3.529    2.471    0.000    4.235 
#    4.235    1.176    0.000    0.706    0.000    0.000 
#    0.000    0.000    0.000    0.000    0.000    0.000 
#
# Total GULP energy -189329.563869 kJ/mol
# GULP energy per Si atom -5568.516584 kJ/mol
# Density = 1.987891 g / cm^3
# Si number density = 19.924257 Si / 1000 Ang^3
#
#
#
# Elastic Constant Matrix: (Units=GPa)
#
#
# Indices 1 2 3 4 5 6 
#
# 1 143.4672 13.5220 39.7083 0.0000 0.0000 0.0000
# 2 13.5220 32.8076 7.8728 0.0000 0.0000 0.0000
# 3 39.7083 7.8728 106.7060 0.0000 0.0000 0.0000
# 4 0.0000 0.0000 0.0000 11.2593 0.0000 0.0000
# 5 0.0000 0.0000 0.0000 0.0000 17.3545 0.0000
# 6 0.0000 0.0000 0.0000 0.0000 0.0000 29.2423
#
#
#
# Elastic Compliance Matrix: (Units=1/GPa)
#
#
# Indices 1 2 3 4 5 6 
#
# 1 0.007987 -0.002625 -0.002778 0.000000 0.000000 0.000000
# 2 -0.002625 0.031893 -0.001376 0.000000 0.000000 0.000000
# 3 -0.002778 -0.001376 0.010507 0.000000 0.000000 0.000000
# 4 0.000000 0.000000 0.000000 0.088816 0.000000 0.000000
# 5 0.000000 0.000000 0.000000 0.000000 0.057622 0.000000
# 6 0.000000 0.000000 0.000000 0.000000 0.000000 0.034197
#
#
# Mechanical properties :
#
#
# Convention : Reuss Voigt Hill
#
# Bulk Modulus (GPa) = 27.15381 45.02078 36.08729
# Shear Modulus (GPa) = 19.46616 26.36308 22.91462
#
# Velocity S-wave (km/s) = 3.12910 3.64148 3.39497
# Velocity P-wave (km/s) = 5.16848 6.35024 5.78959
#
# Compressibility (1/GPa) = 0.03682725
#
# Stress axis : x y z
#
# Youngs Moduli (GPa) = 125.20919 31.35496 95.17475
#
# Poissons Ratio (x) = 0.08231 0.26443
# Poissons Ratio (y) = 0.32868 0.13098
# Poissons Ratio (z) = 0.34788 0.04315
#
# Static dielectric constant tensor:
#      x y z
#    x 1.800890 0.000000 0.000000 
#    y 0.000000 1.784830 0.000000 
#    z 0.000000 0.000000 1.646270 
# 
# From -- ./inp_files/22529.got.cif
#   From: 2010.05.17/outbox.cif.g08.bks.cpg/sg65_12_cif.got.tgz:22529.got - 2010.06.03 17:01:31.
