data_PCOD9484467
_publ_section_title
;
Structure prediction by ZEFSAII (Michael W. Deem and Ramdas Pophale) SiO2 
 PCOD9484467
Probable space group: C M M M
;
_chemical_formula_sum "Si O2"
_cell_formula_units_Z 88
_cell_length_a 20.828683
_cell_length_b 8.367085
_cell_length_c 25.886620
_cell_angle_alpha 90.000000
_cell_angle_beta 90.000000
_cell_angle_gamma 90.000000
_cell_volume 4511.400048
_symmetry_space_group_name_H-M "C M M M"
_symmetry_group_IT_number 65
_symmetry_cell_setting 'orthorhombic'
loop_
_space_group_symop_operation_xyz
x,y,z
-x,-y,z
x,-y,-z
-x,y,-z
-x,-y,-z
x,y,-z
-x,y,z
x,-y,z
1/2+x,1/2+y,z
1/2-x,1/2-y,z
1/2+x,1/2-y,-z
1/2-x,1/2+y,-z
1/2-x,1/2-y,-z
1/2+x,1/2+y,-z
1/2-x,1/2+y,z
1/2+x,1/2-y,z
loop_
_atom_site_type_symbol
_atom_site_label
_atom_site_fract_x
_atom_site_fract_y
_atom_site_fract_z
Si Si1 0.868433 0.307317 0.389985
Si Si2 0.179838 0.690957 0.500000
Si Si3 0.675391 0.190525 0.888216
Si Si4 0.000000 0.306554 0.438137
Si Si5 0.075395 0.806631 0.198580
Si Si6 0.323307 0.308955 0.000000
Si Si7 0.320828 0.310480 0.281438
O O1 0.861530 0.500000 0.386003
O O2 0.843535 0.249636 0.445204
O O3 0.834351 0.234196 0.340717
O O4 0.941612 0.264302 0.400687
O O5 0.168383 0.500000 0.500000
O O6 0.250000 0.750000 0.500000
O O7 0.750000 0.250000 0.880025
O O8 0.622141 0.255735 0.848481
O O9 0.677982 0.000000 0.884920
O O10 0.652274 0.242958 0.945488
O O11 0.000000 0.500000 0.443708
O O12 0.000000 0.251635 0.500000
O O13 0.118039 0.750926 0.247981
O O14 0.000000 0.751988 0.196998
O O15 0.072779 0.000000 0.199436
O O16 0.250000 0.250000 0.000000
O O17 0.173617 0.000000 0.000000
O O18 0.319016 0.500000 0.275843
O O19 0.250000 0.250000 0.265269
#
# Coordination Sequence:
#
# PCOD9484467 Si02
#       7
#    16   8  16   8  16   8  16
#     4  10  20  35  57  83 111 144 184 231 283 344
#     4  10  20  33  51  75 105 140 179 226 281 338
#     4  11  21  36  61  93 127 162 205 253 297 346
#     4   9  16  32  57  83 111 145 183 224 277 344
#     4  10  23  43  63  85 118 158 197 243 302 360
#     4  10  18  32  57  90 127 166 207 249 297 349
#     4  11  24  41  62  86 115 150 192 242 293 350
#
# _framework density 19.506138
#
# number of rings (size 3 to 8) (size 9 to 14) (size 15 to 20)
#    0.000    1.727    0.909    5.182    1.273    5.455 
#    0.000    0.455    0.000    3.273    0.000    0.000 
#    0.000    0.000    0.000    0.000    0.000    0.000 
#
# Total GULP energy -244961.259826 kJ/mol
# GULP energy per Si atom -5567.301360 kJ/mol
# Density = 1.946174 g / cm^3
# Si number density = 19.506138 Si / 1000 Ang^3
#
#
#
# Elastic Constant Matrix: (Units=GPa)
#
#
# Indices 1 2 3 4 5 6 
#
# 1 161.0606 27.1150 66.2813 0.0000 0.0000 0.0000
# 2 27.1150 34.4682 12.7234 0.0000 0.0000 0.0000
# 3 66.2813 12.7234 130.7705 0.0000 0.0000 0.0000
# 4 0.0000 0.0000 0.0000 21.7030 0.0000 0.0000
# 5 0.0000 0.0000 0.0000 0.0000 34.4425 0.0000
# 6 0.0000 0.0000 0.0000 0.0000 0.0000 4.2412
#
#
#
# Elastic Compliance Matrix: (Units=1/GPa)
#
#
# Indices 1 2 3 4 5 6 
#
# 1 0.008725 -0.005426 -0.003894 0.000000 0.000000 0.000000
# 2 -0.005426 0.033468 -0.000506 0.000000 0.000000 0.000000
# 3 -0.003894 -0.000506 0.009670 0.000000 0.000000 0.000000
# 4 0.000000 0.000000 0.000000 0.046077 0.000000 0.000000
# 5 0.000000 0.000000 0.000000 0.000000 0.029034 0.000000
# 6 0.000000 0.000000 0.000000 0.000000 0.000000 0.235782
#
#
# Mechanical properties :
#
#
# Convention : Reuss Voigt Hill
#
# Bulk Modulus (GPa) = 31.04655 59.83761 45.44208
# Shear Modulus (GPa) = 12.71796 26.75598 19.73697
#
# Velocity S-wave (km/s) = 2.55619 3.70762 3.18438
# Velocity P-wave (km/s) = 4.96619 7.00511 6.07184
#
# Compressibility (1/GPa) = 0.03220970
#
# Stress axis : x y z
#
# Youngs Moduli (GPa) = 114.61344 29.87967 103.41186
#
# Poissons Ratio (x) = 0.16213 0.40272
# Poissons Ratio (y) = 0.62191 0.05233
# Poissons Ratio (z) = 0.44634 0.01512
#
# Static dielectric constant tensor:
#      x y z
#    x 1.638120 0.000000 0.000000 
#    y 0.000000 1.674550 0.000000 
#    z 0.000000 0.000000 1.685460 
# 
# From -- ./inp_files/71038.got.cif
#   From: 2010.05.17/outbox.cif.g08.bks.cpg/sg65_36_cif.got.tgz:71038.got - 2010.06.03 17:01:31.
