data_PCOD9484116
_publ_section_title
;
Structure prediction by ZEFSAII (Michael W. Deem and Ramdas Pophale) SiO2 
 PCOD9484116
Probable space group: C M M M
;
_chemical_formula_sum "Si O2"
_cell_formula_units_Z 88
_cell_length_a 30.114145
_cell_length_b 13.736625
_cell_length_c 10.263170
_cell_angle_alpha 90.000000
_cell_angle_beta 90.000000
_cell_angle_gamma 90.000000
_cell_volume 4245.531841
_symmetry_space_group_name_H-M "C M M M"
_symmetry_group_IT_number 65
_symmetry_cell_setting 'orthorhombic'
loop_
_space_group_symop_operation_xyz
x,y,z
-x,-y,z
x,-y,-z
-x,y,-z
-x,-y,-z
x,y,-z
-x,y,z
x,-y,z
1/2+x,1/2+y,z
1/2-x,1/2-y,z
1/2+x,1/2-y,-z
1/2-x,1/2+y,-z
1/2-x,1/2-y,-z
1/2+x,1/2+y,-z
1/2-x,1/2+y,z
1/2+x,1/2-y,z
loop_
_atom_site_type_symbol
_atom_site_label
_atom_site_fract_x
_atom_site_fract_y
_atom_site_fract_z
Si Si1 0.548988 0.116542 0.500000
Si Si2 0.180502 0.618153 0.650082
Si Si3 0.950678 0.801029 0.852513
Si Si4 0.718254 0.381612 0.649653
Si Si5 0.641698 0.617322 0.848319
Si Si6 0.592580 0.115067 0.224465
O O1 0.500000 0.160575 0.500000
O O2 0.574754 0.137170 0.369284
O O3 0.544660 0.000000 0.500000
O O4 0.169722 0.647822 0.500000
O O5 0.179315 0.500000 0.646030
O O6 0.230949 0.648037 0.678519
O O7 0.144385 0.642006 0.760725
O O8 0.906685 0.850758 0.794593
O O9 0.937118 0.687355 0.858694
O O10 0.000000 0.812857 0.793901
O O11 0.953105 0.839747 0.000000
O O12 0.708152 0.353495 0.500000
O O13 0.718365 0.500000 0.651878
O O14 0.681388 0.349889 0.753180
O O15 0.642758 0.500000 0.851281
O O16 0.646446 0.650929 0.000000
O O17 0.587777 0.000000 0.194932
#
# Coordination Sequence:
#
# PCOD9484116 Si02
#       6
#     8  16  16  16  16  16
#     4   9  16  26  44  70  96 127 169 211 248 285
#     4   8  13  25  47  75 105 138 172 205 245 297
#     4  10  22  38  53  72  99 131 172 218 260 310
#     4   8  14  27  51  80 107 135 168 208 257 310
#     4   9  18  35  58  79 100 131 171 216 265 313
#     4  10  18  31  51  74 104 138 170 208 250 295
#
# _framework density 20.727674
#
# number of rings (size 3 to 8) (size 9 to 14) (size 15 to 20)
#    0.000    3.000    0.909    1.636    0.000    1.818 
#    1.636    4.545    0.000    7.636    0.000    2.545 
#    0.000    0.000    0.000    0.000    0.000    0.000 
#
# Total GULP energy -245120.528850 kJ/mol
# GULP energy per Si atom -5570.921110 kJ/mol
# Density = 2.068050 g / cm^3
# Si number density = 20.727674 Si / 1000 Ang^3
#
#
#
# Elastic Constant Matrix: (Units=GPa)
#
#
# Indices 1 2 3 4 5 6 
#
# 1 160.4689 1.3446 45.1320 0.0000 0.0000 0.0000
# 2 1.3446 31.9961 -6.1513 0.0000 0.0000 0.0000
# 3 45.1320 -6.1513 57.2079 0.0000 0.0000 0.0000
# 4 0.0000 0.0000 0.0000 3.6808 0.0000 0.0000
# 5 0.0000 0.0000 0.0000 0.0000 35.2936 0.0000
# 6 0.0000 0.0000 0.0000 0.0000 0.0000 27.8400
#
#
#
# Elastic Compliance Matrix: (Units=1/GPa)
#
#
# Indices 1 2 3 4 5 6 
#
# 1 0.008088 -0.001600 -0.006553 0.000000 0.000000 0.000000
# 2 -0.001600 0.032230 0.004728 0.000000 0.000000 0.000000
# 3 -0.006553 0.004728 0.023158 0.000000 0.000000 0.000000
# 4 0.000000 0.000000 0.000000 0.271679 0.000000 0.000000
# 5 0.000000 0.000000 0.000000 0.000000 0.028334 0.000000
# 6 0.000000 0.000000 0.000000 0.000000 0.000000 0.035920
#
#
# Mechanical properties :
#
#
# Convention : Reuss Voigt Hill
#
# Bulk Modulus (GPa) = 17.65970 36.70262 27.18116
# Shear Modulus (GPa) = 11.76100 27.31938 19.54019
#
# Velocity S-wave (km/s) = 2.38461 3.63439 3.07369
# Velocity P-wave (km/s) = 4.01500 5.94619 5.07333
#
# Compressibility (1/GPa) = 0.05662609
#
# Stress axis : x y z
#
# Youngs Moduli (GPa) = 123.63791 31.02711 43.18152
#
# Poissons Ratio (x) = 0.04963 0.28296
# Poissons Ratio (y) = 0.19778 -0.20414
# Poissons Ratio (z) = 0.81018 -0.14668
#
# Static dielectric constant tensor:
#      x y z
#    x 1.787510 0.000000 0.000000 
#    y 0.000000 1.805170 0.000000 
#    z 0.000000 0.000000 1.309340 
# 
# From -- ./inp_files/24841.got.cif
#   From: 2010.05.17/outbox.cif.g08.bks.cpg/sg65_13_cif.got.tgz:24841.got - 2010.06.03 17:01:31.
