data_PCOD9484812
_publ_section_title
;
Structure prediction by ZEFSAII (Michael W. Deem and Ramdas Pophale) SiO2 
 PCOD9484812
Probable space group: C M M M
;
_chemical_formula_sum "Si O2"
_cell_formula_units_Z 96
_cell_length_a 15.329574
_cell_length_b 27.012758
_cell_length_c 14.234781
_cell_angle_alpha 90.000000
_cell_angle_beta 90.000000
_cell_angle_gamma 90.000000
_cell_volume 5894.538438
_symmetry_space_group_name_H-M "C M M M"
_symmetry_group_IT_number 65
_symmetry_cell_setting 'orthorhombic'
loop_
_space_group_symop_operation_xyz
x,y,z
-x,-y,z
x,-y,-z
-x,y,-z
-x,-y,-z
x,y,-z
-x,y,z
x,-y,z
1/2+x,1/2+y,z
1/2-x,1/2-y,z
1/2+x,1/2-y,-z
1/2-x,1/2+y,-z
1/2-x,1/2-y,-z
1/2+x,1/2+y,-z
1/2-x,1/2+y,z
1/2+x,1/2-y,z
loop_
_atom_site_type_symbol
_atom_site_label
_atom_site_fract_x
_atom_site_fract_y
_atom_site_fract_z
Si Si1 0.602892 0.113872 0.895384
Si Si2 0.403150 0.228154 0.307986
Si Si3 0.785521 0.358519 0.612055
Si Si4 0.344405 0.775491 0.104459
Si Si5 0.595660 0.336999 0.612098
Si Si6 0.103602 0.442236 0.704289
O O1 0.500000 0.128231 0.888409
O O2 0.656912 0.164671 0.887582
O O3 0.620297 0.076776 0.810667
O O4 0.616132 0.092880 0.000000
O O5 0.500000 0.207094 0.325414
O O6 0.331753 0.188206 0.338209
O O7 0.394538 0.240725 0.197770
O O8 0.394175 0.278827 0.365043
O O9 0.786960 0.350216 0.500000
O O10 0.684926 0.362405 0.644929
O O11 0.840082 0.406959 0.638241
O O12 0.250000 0.750000 0.108191
O O13 0.381728 0.764955 0.000000
O O14 0.592839 0.343259 0.500000
O O15 0.500000 0.352521 0.649725
O O16 0.124124 0.500000 0.694286
O O17 0.000000 0.435727 0.686385
#
# Coordination Sequence:
#
# PCOD9484812 Si02
#       6
#    16  16  16  16  16  16
#     4   9  17  31  50  70  95 129 166 200 236 280
#     4  11  20  30  47  72 102 134 166 197 232 283
#     4  11  21  33  51  71  96 131 165 197 241 294
#     4  10  19  29  44  68  98 132 167 198 231 277
#     4   9  19  34  51  73  98 124 160 205 243 279
#     4  10  21  35  50  72 100 127 160 203 246 290
#
# _framework density 16.286263000000002
#
# number of rings (size 3 to 8) (size 9 to 14) (size 15 to 20)
#    0.000    2.000    1.667    3.000    0.000    5.000 
#    0.000    2.500    0.000    0.500    0.000    2.333 
#    0.000    0.000    0.000    1.500    0.000    0.167 
#
# Total GULP energy -267495.926397 kJ/mol
# GULP energy per Si atom -5572.831800 kJ/mol
# Density = 1.624919 g / cm^3
# Si number density = 16.286263 Si / 1000 Ang^3
#
#
#
# Elastic Constant Matrix: (Units=GPa)
#
#
# Indices 1 2 3 4 5 6 
#
# 1 96.0729 35.8725 26.2419 0.0000 0.0000 0.0000
# 2 35.8725 44.7310 2.2996 0.0000 0.0000 0.0000
# 3 26.2419 2.2996 39.5267 0.0000 0.0000 0.0000
# 4 0.0000 0.0000 0.0000 11.9916 0.0000 0.0000
# 5 0.0000 0.0000 0.0000 0.0000 20.5588 0.0000
# 6 0.0000 0.0000 0.0000 0.0000 0.0000 29.1395
#
#
#
# Elastic Compliance Matrix: (Units=1/GPa)
#
#
# Indices 1 2 3 4 5 6 
#
# 1 0.019157 -0.014754 -0.011860 0.000000 0.000000 0.000000
# 2 -0.014754 0.033785 0.007829 0.000000 0.000000 0.000000
# 3 -0.011860 0.007829 0.032718 0.000000 0.000000 0.000000
# 4 0.000000 0.000000 0.000000 0.083392 0.000000 0.000000
# 5 0.000000 0.000000 0.000000 0.000000 0.048641 0.000000
# 6 0.000000 0.000000 0.000000 0.000000 0.000000 0.034318
#
#
# Mechanical properties :
#
#
# Convention : Reuss Voigt Hill
#
# Bulk Modulus (GPa) = 20.79376 34.35098 27.57237
# Shear Modulus (GPa) = 16.36077 20.06577 18.21327
#
# Velocity S-wave (km/s) = 3.17294 3.51389 3.34776
# Velocity P-wave (km/s) = 5.12043 6.13197 5.64889
#
# Compressibility (1/GPa) = 0.04809136
#
# Stress axis : x y z
#
# Youngs Moduli (GPa) = 52.20000 29.59888 30.56440
#
# Poissons Ratio (x) = 0.43669 0.36250
# Poissons Ratio (y) = 0.77013 -0.23930
# Poissons Ratio (z) = 0.61910 -0.23174
#
# Static dielectric constant tensor:
#      x y z
#    x 1.584870 0.000000 0.000000 
#    y 0.000000 1.507730 0.000000 
#    z 0.000000 0.000000 1.584620 
# 
# From -- ./inp_files/41284.got.cif
#   From: 2010.05.17/outbox.cif.g08.bks.cpg/sg65_21_cif.got.tgz:41284.got - 2010.06.03 17:01:31.
