data_PCOD9484113
_publ_section_title
;
Structure prediction by ZEFSAII (Michael W. Deem and Ramdas Pophale) SiO2 
 PCOD9484113
Probable space group: C M M M
;
_chemical_formula_sum "Si O2"
_cell_formula_units_Z 96
_cell_length_a 26.254776
_cell_length_b 24.416576
_cell_length_c 8.005270
_cell_angle_alpha 90.000000
_cell_angle_beta 90.000000
_cell_angle_gamma 90.000000
_cell_volume 5131.792211
_symmetry_space_group_name_H-M "C M M M"
_symmetry_group_IT_number 65
_symmetry_cell_setting 'orthorhombic'
loop_
_space_group_symop_operation_xyz
x,y,z
-x,-y,z
x,-y,-z
-x,y,-z
-x,-y,-z
x,y,-z
-x,y,z
x,-y,z
1/2+x,1/2+y,z
1/2-x,1/2-y,z
1/2+x,1/2-y,-z
1/2-x,1/2+y,-z
1/2-x,1/2-y,-z
1/2+x,1/2+y,-z
1/2-x,1/2+y,z
1/2+x,1/2-y,z
loop_
_atom_site_type_symbol
_atom_site_label
_atom_site_fract_x
_atom_site_fract_y
_atom_site_fract_z
Si Si1 0.653222 0.117860 0.698357
Si Si2 0.941862 0.812632 0.204125
Si Si3 0.442467 0.188038 0.798999
Si Si4 0.310224 0.000000 0.198278
Si Si5 0.807118 0.000000 0.794936
Si Si6 0.750113 0.687171 0.702338
Si Si7 0.347776 0.616607 0.200914
O O1 0.656361 0.119891 0.500000
O O2 0.600091 0.144960 0.748762
O O3 0.661444 0.055326 0.750324
O O4 0.700332 0.154348 0.765355
O O5 0.929485 0.750162 0.256843
O O6 0.899587 0.855298 0.263776
O O7 0.000000 0.824792 0.254742
O O8 0.941169 0.812985 0.000000
O O9 0.500000 0.175381 0.740224
O O10 0.443914 0.189412 0.000000
O O11 0.251790 0.000000 0.263044
O O12 0.306462 0.000000 0.000000
O O13 0.834803 0.944495 0.738872
O O14 0.806629 0.000000 0.000000
O O15 0.751303 0.687615 0.500000
O O16 0.750000 0.750000 0.760135
O O17 0.699636 0.655481 0.756695
O O18 0.351666 0.613494 0.000000
#
# Coordination Sequence:
#
# PCOD9484113 Si02
#       7
#    16  16  16   8   8  16  16
#     4  11  22  35  53  78 106 135 173 214 258 310
#     4   8  15  29  51  78 106 136 172 216 261 305
#     4   9  18  34  55  78 104 136 173 211 257 311
#     4  11  21  37  56  73 103 141 176 216 259 303
#     4   9  18  31  48  74 103 133 173 218 252 291
#     4  10  21  34  48  72 106 135 162 207 263 312
#     4  10  18  31  51  74 101 135 177 215 251 301
#
# _framework density 18.706914000000001
#
# number of rings (size 3 to 8) (size 9 to 14) (size 15 to 20)
#    0.000    2.333    1.667    2.750    0.000    1.333 
#    0.000    1.250    0.000    6.500    0.000    0.000 
#    0.000    1.333    0.000    0.000    0.000    0.000 
#
# Total GULP energy -267884.499730 kJ/mol
# GULP energy per Si atom -5580.927078 kJ/mol
# Density = 1.866434 g / cm^3
# Si number density = 18.706914 Si / 1000 Ang^3
#
#
#
# Elastic Constant Matrix: (Units=GPa)
#
#
# Indices 1 2 3 4 5 6 
#
# 1 165.6520 128.0784 10.0926 0.0000 0.0000 0.0000
# 2 128.0784 203.5952 11.9531 0.0000 0.0000 0.0000
# 3 10.0926 11.9531 14.9992 0.0000 0.0000 0.0000
# 4 0.0000 0.0000 0.0000 -3.4810 0.0000 0.0000
# 5 0.0000 0.0000 0.0000 0.0000 6.7296 0.0000
# 6 0.0000 0.0000 0.0000 0.0000 0.0000 22.4547
#
#
#
# Elastic Compliance Matrix: (Units=1/GPa)
#
#
# Indices 1 2 3 4 5 6 
#
# 1 0.011818 -0.007310 -0.002127 0.000000 0.000000 0.000000
# 2 -0.007310 0.009674 -0.002791 0.000000 0.000000 0.000000
# 3 -0.002127 -0.002791 0.070325 0.000000 0.000000 0.000000
# 4 0.000000 0.000000 0.000000 -0.287276 0.000000 0.000000
# 5 0.000000 0.000000 0.000000 0.000000 0.148597 0.000000
# 6 0.000000 0.000000 0.000000 0.000000 0.000000 0.044534
#
#
# Mechanical properties :
#
#
# Convention : Reuss Voigt Hill
#
# Bulk Modulus (GPa) = 14.84502 76.05497 45.45000
# Shear Modulus (GPa) = 112.15542 20.74882 66.45212
#
# Velocity S-wave (km/s) = 7.75140 3.33401 5.96656
# Velocity P-wave (km/s) = 9.38430 7.45420 8.47438
#
# Compressibility (1/GPa) = 0.06736265
#
# Stress axis : x y z
#
# Youngs Moduli (GPa) = 84.61688 103.37069 14.21961
#
# Poissons Ratio (x) = 0.75560 0.03024
# Poissons Ratio (y) = 0.61852 0.03968
# Poissons Ratio (z) = 0.17997 0.28849
#
# Static dielectric constant tensor:
#      x y z
#    x 1.643610 0.000000 0.000000 
#    y 0.000000 1.593760 0.000000 
#    z 0.000000 0.000000 1.659740 
# 
# From -- ./inp_files/14352.got.cif
#   From: 2010.05.17/outbox.cif.g08.bks.cpg/sg65_8_cif.got.tgz:14352.got - 2010.06.03 17:01:31.
