data_PCOD9484285
_publ_section_title
;
Structure prediction by ZEFSAII (Michael W. Deem and Ramdas Pophale) SiO2 
 PCOD9484285
Probable space group: C M M M
;
_chemical_formula_sum "Si O2"
_cell_formula_units_Z 96
_cell_length_a 7.427082
_cell_length_b 24.199153
_cell_length_c 26.728147
_cell_angle_alpha 90.000000
_cell_angle_beta 90.000000
_cell_angle_gamma 90.000000
_cell_volume 4803.825636
_symmetry_space_group_name_H-M "C M M M"
_symmetry_group_IT_number 65
_symmetry_cell_setting 'orthorhombic'
loop_
_space_group_symop_operation_xyz
x,y,z
-x,-y,z
x,-y,-z
-x,y,-z
-x,-y,-z
x,y,-z
-x,y,z
x,-y,z
1/2+x,1/2+y,z
1/2-x,1/2-y,z
1/2+x,1/2-y,-z
1/2-x,1/2+y,-z
1/2-x,1/2-y,-z
1/2+x,1/2+y,-z
1/2-x,1/2+y,z
1/2+x,1/2-y,z
loop_
_atom_site_type_symbol
_atom_site_label
_atom_site_fract_x
_atom_site_fract_y
_atom_site_fract_z
Si Si1 0.780028 0.936173 0.556700
Si Si2 0.782378 0.000000 0.181805
Si Si3 0.705707 0.616464 0.345084
Si Si4 0.715380 0.314852 0.055597
Si Si5 0.784449 0.815046 0.252628
Si Si6 0.720468 0.379218 0.846970
Si Si7 0.208601 0.500000 0.701054
O O1 0.726571 0.922375 0.500000
O O2 0.714671 0.895385 0.600140
O O3 0.000000 0.935988 0.558207
O O4 0.726448 0.000000 0.566786
O O5 0.723847 0.942928 0.156742
O O6 0.723514 0.000000 0.239309
O O7 0.000000 0.000000 0.182006
O O8 0.500000 0.635017 0.353246
O O9 0.787491 0.657392 0.303797
O O10 0.705128 0.555826 0.319761
O O11 0.500000 0.322288 0.054237
O O12 0.750000 0.250000 0.064043
O O13 0.783269 0.349803 0.102426
O O14 0.785000 0.329041 0.000000
O O15 0.750000 0.750000 0.249927
O O16 0.719511 0.846506 0.202827
O O17 0.000000 0.823608 0.253439
O O18 0.500000 0.377730 0.846936
O O19 0.000000 0.500000 0.686345
#
# Coordination Sequence:
#
# PCOD9484285 Si02
#       7
#    16   8  16  16  16  16   8
#     4   8  13  22  43  74  96 113 151 201 233 263
#     4  10  18  34  53  67  93 130 162 188 232 300
#     4  10  18  32  52  69  94 132 162 189 234 292
#     4   9  17  30  48  71  97 125 160 199 236 275
#     4  10  20  32  48  69  92 124 162 198 238 279
#     4   9  17  30  50  72  93 123 159 194 233 283
#     4  12  22  30  45  74 103 126 156 197 240 280
#
# _framework density 19.984072999999999
#
# number of rings (size 3 to 8) (size 9 to 14) (size 15 to 20)
#    0.000    2.500    2.500    1.750    0.000    0.667 
#    0.000    1.250    0.000    4.000    0.000    0.000 
#    0.000    3.333    0.000    0.000    0.000    0.000 
#
# Total GULP energy -267861.370965 kJ/mol
# GULP energy per Si atom -5580.445228 kJ/mol
# Density = 1.993859 g / cm^3
# Si number density = 19.984073 Si / 1000 Ang^3
#
#
#
# Elastic Constant Matrix: (Units=GPa)
#
#
# Indices 1 2 3 4 5 6 
#
# 1 69.0899 -2.9076 7.8478 0.0000 0.0000 0.0000
# 2 -2.9076 129.9007 101.1286 0.0000 0.0000 0.0000
# 3 7.8478 101.1286 210.5882 0.0000 0.0000 0.0000
# 4 0.0000 0.0000 0.0000 21.3999 0.0000 0.0000
# 5 0.0000 0.0000 0.0000 0.0000 -9.2800 0.0000
# 6 0.0000 0.0000 0.0000 0.0000 0.0000 9.7538
#
#
#
# Elastic Compliance Matrix: (Units=1/GPa)
#
#
# Indices 1 2 3 4 5 6 
#
# 1 0.014652 0.001203 -0.001124 0.000000 0.000000 0.000000
# 2 0.001203 0.012393 -0.005996 0.000000 0.000000 0.000000
# 3 -0.001124 -0.005996 0.007670 0.000000 0.000000 0.000000
# 4 0.000000 0.000000 0.000000 0.046729 0.000000 0.000000
# 5 0.000000 0.000000 0.000000 0.000000 -0.107759 0.000000
# 6 0.000000 0.000000 0.000000 0.000000 0.000000 0.102524
#
#
# Mechanical properties :
#
#
# Convention : Reuss Voigt Hill
#
# Bulk Modulus (GPa) = 43.70435 69.07958 56.39197
# Shear Modulus (GPa) = 52.26220 24.60874 38.43547
#
# Velocity S-wave (km/s) = 5.11944 3.51296 4.39031
# Velocity P-wave (km/s) = 7.54069 7.14821 7.34707
#
# Compressibility (1/GPa) = 0.02288102
#
# Stress axis : x y z
#
# Youngs Moduli (GPa) = 68.24942 80.68883 130.37762
#
# Poissons Ratio (x) = -0.09704 0.14649
# Poissons Ratio (y) = -0.08208 0.78179
# Poissons Ratio (z) = 0.07668 0.48384
#
# Static dielectric constant tensor:
#      x y z
#    x 1.768330 0.000000 0.000000 
#    y 0.000000 1.657340 0.000000 
#    z 0.000000 0.000000 1.723600 
# 
# From -- ./inp_files/73529.got.cif
#   From: 2010.05.17/outbox.cif.g08.bks.cpg/sg65_37_cif.got.tgz:73529.got - 2010.06.03 17:01:31.
