data_PCOD9484216
_publ_section_title
;
Structure prediction by ZEFSAII (Michael W. Deem and Ramdas Pophale) SiO2 
 PCOD9484216
Probable space group: C M M M
;
_chemical_formula_sum "Si O2"
_cell_formula_units_Z 80
_cell_length_a 7.674516
_cell_length_b 27.399493
_cell_length_c 20.873997
_cell_angle_alpha 90.000000
_cell_angle_beta 90.000000
_cell_angle_gamma 90.000000
_cell_volume 4389.339156
_symmetry_space_group_name_H-M "C M M M"
_symmetry_group_IT_number 65
_symmetry_cell_setting 'orthorhombic'
loop_
_space_group_symop_operation_xyz
x,y,z
-x,-y,z
x,-y,-z
-x,y,-z
-x,-y,-z
x,y,-z
-x,y,z
x,-y,z
1/2+x,1/2+y,z
1/2-x,1/2-y,z
1/2+x,1/2-y,-z
1/2-x,1/2+y,-z
1/2-x,1/2-y,-z
1/2+x,1/2+y,-z
1/2-x,1/2+y,z
1/2+x,1/2-y,z
loop_
_atom_site_type_symbol
_atom_site_label
_atom_site_fract_x
_atom_site_fract_y
_atom_site_fract_z
Si Si1 0.208526 0.805626 0.230374
Si Si2 0.795250 0.845586 0.634606
Si Si3 0.500000 0.558426 0.924433
Si Si4 0.210307 0.445391 0.695520
Si Si5 0.799066 0.596403 0.165699
Si Si6 0.709922 0.307093 0.500000
O O1 0.250000 0.750000 0.214200
O O2 0.276204 0.817957 0.302395
O O3 0.285321 0.846327 0.183202
O O4 0.000000 0.812562 0.229967
O O5 0.775781 0.902826 0.649344
O O6 0.720930 0.830112 0.566147
O O7 0.000000 0.833457 0.632974
O O8 0.500000 0.500000 0.915224
O O9 0.331049 0.580873 0.889820
O O10 0.500000 0.568519 0.000000
O O11 0.270735 0.500000 0.680721
O O12 0.257386 0.430662 0.768316
O O13 0.000000 0.444572 0.692904
O O14 0.000000 0.583669 0.152328
O O15 0.500000 0.314034 0.500000
O O16 0.750000 0.250000 0.500000
#
# Coordination Sequence:
#
# PCOD9484216 Si02
#       6
#    16  16   8  16  16   8
#     4  10  18  31  53  84 112 143 185 236 286 334
#     4   9  19  32  47  71 104 137 179 224 272 327
#     4  11  24  40  60  88 120 153 189 227 270 333
#     4   9  18  32  52  77 103 133 175 224 272 323
#     4  10  20  37  58  85 117 150 186 232 281 329
#     4  10  20  34  49  68  97 137 176 215 267 332
#
# _framework density 18.225977
#
# number of rings (size 3 to 8) (size 9 to 14) (size 15 to 20)
#    0.000    2.300    1.000    1.800    1.400    3.600 
#    0.000    1.500    0.000    3.600    0.000    0.000 
#    0.000    0.000    0.000    0.000    0.000    0.000 
#
# Total GULP energy -223249.540878 kJ/mol
# GULP energy per Si atom -5581.238522 kJ/mol
# Density = 1.818449 g / cm^3
# Si number density = 18.225977 Si / 1000 Ang^3
#
#
#
# Elastic Constant Matrix: (Units=GPa)
#
#
# Indices 1 2 3 4 5 6 
#
# 1 65.6023 7.1506 41.6389 0.0000 0.0000 0.0000
# 2 7.1506 110.1136 64.6077 0.0000 0.0000 0.0000
# 3 41.6389 64.6077 134.8322 0.0000 0.0000 0.0000
# 4 0.0000 0.0000 0.0000 18.4862 0.0000 0.0000
# 5 0.0000 0.0000 0.0000 0.0000 5.9364 0.0000
# 6 0.0000 0.0000 0.0000 0.0000 0.0000 25.7222
#
#
#
# Elastic Compliance Matrix: (Units=1/GPa)
#
#
# Indices 1 2 3 4 5 6 
#
# 1 0.019734 0.003192 -0.007624 0.000000 0.000000 0.000000
# 2 0.003192 0.013150 -0.007287 0.000000 0.000000 0.000000
# 3 -0.007624 -0.007287 0.013262 0.000000 0.000000 0.000000
# 4 0.000000 0.000000 0.000000 0.054094 0.000000 0.000000
# 5 0.000000 0.000000 0.000000 0.000000 0.168453 0.000000
# 6 0.000000 0.000000 0.000000 0.000000 0.000000 0.038877
#
#
# Mechanical properties :
#
#
# Convention : Reuss Voigt Hill
#
# Bulk Modulus (GPa) = 44.03512 59.70473 51.86992
# Shear Modulus (GPa) = 14.76766 23.17235 18.97001
#
# Velocity S-wave (km/s) = 2.84958 3.56953 3.22968
# Velocity P-wave (km/s) = 5.91945 7.05818 6.51375
#
# Compressibility (1/GPa) = 0.02270915
#
# Stress axis : x y z
#
# Youngs Moduli (GPa) = 50.67294 76.04836 75.40075
#
# Poissons Ratio (x) = -0.24271 0.57483
# Poissons Ratio (y) = -0.16173 0.54941
# Poissons Ratio (z) = 0.38632 0.55413
#
# Static dielectric constant tensor:
#      x y z
#    x 1.688360 0.000000 0.000000 
#    y 0.000000 1.615400 0.000000 
#    z 0.000000 0.000000 1.609860 
# 
# From -- ./inp_files/60086.got.cif
#   From: 2010.05.17/outbox.cif.g08.bks.cpg/sg65_31_cif.got.tgz:60086.got - 2010.06.03 17:01:31.
