data_PCOD9484804
_publ_section_title
;
Structure prediction by ZEFSAII (Michael W. Deem and Ramdas Pophale) SiO2 
 PCOD9484804
Probable space group: C M M M
;
_chemical_formula_sum "Si O2"
_cell_formula_units_Z 72
_cell_length_a 19.807065
_cell_length_b 14.487168
_cell_length_c 9.803439
_cell_angle_alpha 90.000000
_cell_angle_beta 90.000000
_cell_angle_gamma 90.000000
_cell_volume 2813.079942
_symmetry_space_group_name_H-M "C M M M"
_symmetry_group_IT_number 65
_symmetry_cell_setting 'orthorhombic'
loop_
_space_group_symop_operation_xyz
x,y,z
-x,-y,z
x,-y,-z
-x,y,-z
-x,-y,-z
x,y,-z
-x,y,z
x,-y,z
1/2+x,1/2+y,z
1/2-x,1/2-y,z
1/2+x,1/2-y,-z
1/2-x,1/2+y,-z
1/2-x,1/2-y,-z
1/2+x,1/2+y,-z
1/2-x,1/2+y,z
1/2+x,1/2-y,z
loop_
_atom_site_type_symbol
_atom_site_label
_atom_site_fract_x
_atom_site_fract_y
_atom_site_fract_z
Si Si1 0.431599 0.342933 0.000000
Si Si2 0.221725 0.894192 0.699643
Si Si3 0.573485 0.393805 0.306996
Si Si4 0.125914 0.612223 0.655360
Si Si5 0.500000 0.109332 0.164386
Si Si6 0.207214 0.161613 0.000000
O O1 0.428889 0.397010 0.141397
O O2 0.500000 0.288581 0.000000
O O3 0.364855 0.287896 0.000000
O O4 0.147733 0.853799 0.656887
O O5 0.295811 0.853359 0.667505
O O6 0.221986 0.000000 0.650826
O O7 0.218170 0.894504 0.863573
O O8 0.500000 0.352888 0.347157
O O9 0.573702 0.500000 0.352257
O O10 0.102997 0.629515 0.500000
O O11 0.131130 0.500000 0.673368
O O12 0.069022 0.646768 0.762833
O O13 0.500000 0.000000 0.201325
O O14 0.500000 0.109647 0.000000
O O15 0.250000 0.250000 0.000000
#
# Coordination Sequence:
#
# PCOD9484804 Si02
#       6
#     8  16  16  16   8   8
#     4   8  13  22  37  55  78 115 153 187 234 291
#     4   9  17  28  46  69  94 127 165 204 250 304
#     4   8  12  19  34  60  89 113 144 188 235 284
#     4   9  17  29  46  68  97 132 168 206 250 304
#     4   9  17  27  43  69  99 129 163 209 261 304
#     4  10  19  29  44  66  97 130 160 208 258 300
#
# _framework density 25.594721
#
# number of rings (size 3 to 8) (size 9 to 14) (size 15 to 20)
#    0.000    3.222    0.000    1.000    1.556    5.333 
#    0.000    0.000    2.444    1.333    0.000    4.667 
#    0.000    0.000    0.000    0.000    0.000    0.000 
#
# Total GULP energy -200511.160973 kJ/mol
# GULP energy per Si atom -5569.754471 kJ/mol
# Density = 2.553647 g / cm^3
# Si number density = 25.594721 Si / 1000 Ang^3
#
#
#
# Elastic Constant Matrix: (Units=GPa)
#
#
# Indices 1 2 3 4 5 6 
#
# 1 310.2380 34.7056 68.2847 0.0000 0.0000 0.0000
# 2 34.7056 48.8531 -9.5570 0.0000 0.0000 0.0000
# 3 68.2847 -9.5570 177.4597 0.0000 0.0000 0.0000
# 4 0.0000 0.0000 0.0000 -12.1974 0.0000 0.0000
# 5 0.0000 0.0000 0.0000 0.0000 301.9915 0.0000
# 6 0.0000 0.0000 0.0000 0.0000 0.0000 19.3044
#
#
#
# Elastic Compliance Matrix: (Units=1/GPa)
#
#
# Indices 1 2 3 4 5 6 
#
# 1 0.003945 -0.003133 -0.001687 0.000000 0.000000 0.000000
# 2 -0.003133 0.023175 0.002453 0.000000 0.000000 0.000000
# 3 -0.001687 0.002453 0.006416 0.000000 0.000000 0.000000
# 4 0.000000 0.000000 0.000000 -0.081985 0.000000 0.000000
# 5 0.000000 0.000000 0.000000 0.000000 0.003311 0.000000
# 6 0.000000 0.000000 0.000000 0.000000 0.000000 0.051802
#
#
# Mechanical properties :
#
#
# Convention : Reuss Voigt Hill
#
# Bulk Modulus (GPa) = 34.71677 80.37970 57.54823
# Shear Modulus (GPa) = 238.12406 91.36088 164.74247
#
# Velocity S-wave (km/s) = 9.65600 5.98103 8.03153
# Velocity P-wave (km/s) = 11.74356 8.89775 10.41828
#
# Compressibility (1/GPa) = 0.02880453
#
# Stress axis : x y z
#
# Youngs Moduli (GPa) = 253.48469 43.15021 155.85459
#
# Poissons Ratio (x) = 0.13517 0.26288
# Poissons Ratio (y) = 0.79405 -0.38238
# Poissons Ratio (z) = 0.42755 -0.10587
#
# Static dielectric constant tensor:
#      x y z
#    x 2.093760 0.000000 0.000000 
#    y 0.000000 1.950220 0.000000 
#    z 0.000000 0.000000 1.998490 
# 
# From -- ./inp_files/11348.got.cif
#   From: 2010.05.17/outbox.cif.g08.bks.cpg/sg65_6_cif.got.tgz:11348.got - 2010.06.03 17:01:31.
