data_PCOD9484339
_publ_section_title
;
Structure prediction by ZEFSAII (Michael W. Deem and Ramdas Pophale) SiO2 
 PCOD9484339
Probable space group: C M M M
;
_chemical_formula_sum "Si O2"
_cell_formula_units_Z 72
_cell_length_a 13.588203
_cell_length_b 17.266959
_cell_length_c 17.337028
_cell_angle_alpha 90.000000
_cell_angle_beta 90.000000
_cell_angle_gamma 90.000000
_cell_volume 4067.733899
_symmetry_space_group_name_H-M "C M M M"
_symmetry_group_IT_number 65
_symmetry_cell_setting 'orthorhombic'
loop_
_space_group_symop_operation_xyz
x,y,z
-x,-y,z
x,-y,-z
-x,y,-z
-x,-y,-z
x,y,-z
-x,y,z
x,-y,z
1/2+x,1/2+y,z
1/2-x,1/2-y,z
1/2+x,1/2-y,-z
1/2-x,1/2+y,-z
1/2-x,1/2-y,-z
1/2+x,1/2+y,-z
1/2-x,1/2+y,z
1/2+x,1/2-y,z
loop_
_atom_site_type_symbol
_atom_site_label
_atom_site_fract_x
_atom_site_fract_y
_atom_site_fract_z
Si Si1 0.188458 0.128860 0.704829
Si Si2 0.618655 0.753559 0.916916
Si Si3 0.380936 0.416655 0.872509
Si Si4 0.384266 0.798722 0.255625
Si Si5 0.118083 0.000000 0.410331
O O1 0.153818 0.089077 0.784224
O O2 0.305586 0.143590 0.707306
O O3 0.136935 0.213509 0.708894
O O4 0.157017 0.075605 0.634320
O O5 0.500000 0.753410 0.916461
O O6 0.650482 0.663563 0.911607
O O7 0.644178 0.792839 0.835601
O O8 0.648988 0.786558 0.000000
O O9 0.500000 0.415775 0.873968
O O10 0.348811 0.500000 0.904853
O O11 0.500000 0.816961 0.262409
O O12 0.146172 0.000000 0.500000
O O13 0.000000 0.000000 0.404898
#
# Coordination Sequence:
#
# PCOD9484339 Si02
#       5
#    16  16  16  16   8
#     4  10  18  32  53  76 102 134 170 212 249 306
#     4   8  14  25  42  67  98 131 172 220 262 295
#     4   9  15  24  42  65  93 131 167 207 260 308
#     4   9  18  32  51  75 103 142 181 212 252 300
#     4  11  22  36  59  87 108 127 155 201 259 308
#
# _framework density 17.700271999999998
#
# number of rings (size 3 to 8) (size 9 to 14) (size 15 to 20)
#    0.000    2.778    1.111    3.333    0.000    0.444 
#    0.000   13.889    0.000    2.667    0.000    0.000 
#    0.000    3.556    0.000    0.000    0.000    0.000 
#
# Total GULP energy -200580.143216 kJ/mol
# GULP energy per Si atom -5571.670645 kJ/mol
# Density = 1.765999 g / cm^3
# Si number density = 17.700272 Si / 1000 Ang^3
#
#
#
# Elastic Constant Matrix: (Units=GPa)
#
#
# Indices 1 2 3 4 5 6 
#
# 1 86.9522 6.3087 30.3600 0.0000 0.0000 0.0000
# 2 6.3087 33.0479 36.0086 0.0000 0.0000 0.0000
# 3 30.3600 36.0086 126.0519 0.0000 0.0000 0.0000
# 4 0.0000 0.0000 0.0000 -11.3347 0.0000 0.0000
# 5 0.0000 0.0000 0.0000 0.0000 13.6523 0.0000
# 6 0.0000 0.0000 0.0000 0.0000 0.0000 22.7969
#
#
#
# Elastic Compliance Matrix: (Units=1/GPa)
#
#
# Indices 1 2 3 4 5 6 
#
# 1 0.012595 0.001308 -0.003407 0.000000 0.000000 0.000000
# 2 0.001308 0.044070 -0.012904 0.000000 0.000000 0.000000
# 3 -0.003407 -0.012904 0.012440 0.000000 0.000000 0.000000
# 4 0.000000 0.000000 0.000000 -0.088225 0.000000 0.000000
# 5 0.000000 0.000000 0.000000 0.000000 0.073248 0.000000
# 6 0.000000 0.000000 0.000000 0.000000 0.000000 0.043866
#
#
# Mechanical properties :
#
#
# Convention : Reuss Voigt Hill
#
# Bulk Modulus (GPa) = 25.57646 43.48963 34.53304
# Shear Modulus (GPa) = 35.45265 16.58123 26.01694
#
# Velocity S-wave (km/s) = 4.48028 3.06400 3.83804
# Velocity P-wave (km/s) = 6.42223 6.09433 6.26043
#
# Compressibility (1/GPa) = 0.03909845
#
# Stress axis : x y z
#
# Youngs Moduli (GPa) = 79.39440 22.69133 80.38457
#
# Poissons Ratio (x) = -0.02968 0.27390
# Poissons Ratio (y) = -0.10386 1.03730
# Poissons Ratio (z) = 0.27052 0.29281
#
# Static dielectric constant tensor:
#      x y z
#    x 1.629010 0.000000 0.000000 
#    y 0.000000 1.623660 0.000000 
#    z 0.000000 0.000000 1.599030 
# 
# From -- ./inp_files/39816.got.cif
#   From: 2010.05.17/outbox.cif.g08.bks.cpg/sg65_20_cif.got.tgz:39816.got - 2010.06.03 17:01:31.
