data_PCOD9484881
_publ_section_title
;
Structure prediction by ZEFSAII (Michael W. Deem and Ramdas Pophale) SiO2 
 PCOD9484881
Probable space group: C M M M
;
_chemical_formula_sum "Si O2"
_cell_formula_units_Z 88
_cell_length_a 15.037799
_cell_length_b 30.765170
_cell_length_c 10.049375
_cell_angle_alpha 90.000000
_cell_angle_beta 90.000000
_cell_angle_gamma 90.000000
_cell_volume 4649.247298
_symmetry_space_group_name_H-M "C M M M"
_symmetry_group_IT_number 65
_symmetry_cell_setting 'orthorhombic'
loop_
_space_group_symop_operation_xyz
x,y,z
-x,-y,z
x,-y,-z
-x,y,-z
-x,-y,-z
x,y,-z
-x,y,z
x,-y,z
1/2+x,1/2+y,z
1/2-x,1/2-y,z
1/2+x,1/2-y,-z
1/2-x,1/2+y,-z
1/2-x,1/2-y,-z
1/2+x,1/2+y,-z
1/2-x,1/2+y,z
1/2+x,1/2-y,z
loop_
_atom_site_type_symbol
_atom_site_label
_atom_site_fract_x
_atom_site_fract_y
_atom_site_fract_z
Si Si1 0.106728 0.450436 0.146083
Si Si2 0.362314 0.297744 0.151806
Si Si3 0.354322 0.199140 0.152449
Si Si4 0.629355 0.625929 0.346890
Si Si5 0.500000 0.549819 0.339063
Si Si6 0.156548 0.622853 0.653075
O O1 0.138276 0.500000 0.161913
O O2 0.132280 0.420266 0.267211
O O3 0.000000 0.451551 0.141381
O O4 0.137978 0.434126 0.000000
O O5 0.386031 0.247908 0.184768
O O6 0.253945 0.299465 0.153149
O O7 0.395890 0.334186 0.252023
O O8 0.389904 0.306397 0.000000
O O9 0.379763 0.163199 0.260143
O O10 0.381276 0.188637 0.000000
O O11 0.602690 0.633995 0.500000
O O12 0.584323 0.580433 0.303763
O O13 0.736078 0.624058 0.345802
O O14 0.500000 0.500000 0.288094
O O15 0.500000 0.546452 0.500000
O O16 0.126700 0.623666 0.500000
#
# Coordination Sequence:
#
# PCOD9484881 Si02
#       6
#    16  16  16  16   8  16
#     4   9  19  36  55  72  93 127 166 198 236 294
#     4   8  14  26  46  70  95 125 161 201 242 289
#     4   8  14  26  45  69  97 130 164 194 234 292
#     4   9  18  31  49  73  98 129 169 210 252 296
#     4   9  18  34  53  69  93 135 179 213 250 301
#     4  10  19  29  47  78 107 128 158 206 256 295
#
# _framework density 18.927795
#
# number of rings (size 3 to 8) (size 9 to 14) (size 15 to 20)
#    0.000    3.182    0.000    2.182    0.000    2.909 
#    0.000    6.818    2.000    1.091    0.000    0.000 
#    0.000    0.000    0.000    0.000    0.000    0.000 
#
# Total GULP energy -245193.779226 kJ/mol
# GULP energy per Si atom -5572.585891 kJ/mol
# Density = 1.888471 g / cm^3
# Si number density = 18.927795 Si / 1000 Ang^3
#
#
#
# Elastic Constant Matrix: (Units=GPa)
#
#
# Indices 1 2 3 4 5 6 
#
# 1 33.3599 17.6113 16.6211 0.0000 0.0000 0.0000
# 2 17.6113 160.9664 112.6280 0.0000 0.0000 0.0000
# 3 16.6211 112.6280 145.5521 0.0000 0.0000 0.0000
# 4 0.0000 0.0000 0.0000 34.4564 0.0000 0.0000
# 5 0.0000 0.0000 0.0000 0.0000 -5.7205 0.0000
# 6 0.0000 0.0000 0.0000 0.0000 0.0000 62.9131
#
#
#
# Elastic Compliance Matrix: (Units=1/GPa)
#
#
# Indices 1 2 3 4 5 6 
#
# 1 0.032096 -0.002065 -0.002067 0.000000 0.000000 0.000000
# 2 -0.002065 0.013680 -0.010350 0.000000 0.000000 0.000000
# 3 -0.002067 -0.010350 0.015115 0.000000 0.000000 0.000000
# 4 0.000000 0.000000 0.000000 0.029022 0.000000 0.000000
# 5 0.000000 0.000000 0.000000 0.000000 -0.174811 0.000000
# 6 0.000000 0.000000 0.000000 0.000000 0.000000 0.015895
#
#
# Mechanical properties :
#
#
# Convention : Reuss Voigt Hill
#
# Bulk Modulus (GPa) = 31.32128 70.39992 50.86060
# Shear Modulus (GPa) = -170.09681 31.19767 -69.44957
#
# Velocity S-wave (km/s) = -9.49006 4.06426 -6.06395
# Velocity P-wave (km/s) = 10.17339 7.70058 4.70101
#
# Compressibility (1/GPa) = 0.03192718
#
# Stress axis : x y z
#
# Youngs Moduli (GPa) = 31.15621 73.09788 66.15856
#
# Poissons Ratio (x) = 0.15097 0.13675
# Poissons Ratio (y) = 0.06435 0.68474
# Poissons Ratio (z) = 0.06440 0.75656
#
# Static dielectric constant tensor:
#      x y z
#    x 1.719550 0.000000 0.000000 
#    y 0.000000 1.649570 0.000000 
#    z 0.000000 0.000000 1.644570 
# 
# From -- ./inp_files/10133.got.cif
#   From: 2010.05.17/outbox.cif.g08.bks.cpg/sg65_6_cif.got.tgz:10133.got - 2010.06.03 17:01:31.
