data_PCOD9484372
_publ_section_title
;
Structure prediction by ZEFSAII (Michael W. Deem and Ramdas Pophale) SiO2 
 PCOD9484372
Probable space group: C M M M
;
_chemical_formula_sum "Si O2"
_cell_formula_units_Z 80
_cell_length_a 22.963845
_cell_length_b 17.229694
_cell_length_c 10.854463
_cell_angle_alpha 90.000000
_cell_angle_beta 90.000000
_cell_angle_gamma 90.000000
_cell_volume 4294.677074
_symmetry_space_group_name_H-M "C M M M"
_symmetry_group_IT_number 65
_symmetry_cell_setting 'orthorhombic'
loop_
_space_group_symop_operation_xyz
x,y,z
-x,-y,z
x,-y,-z
-x,y,-z
-x,-y,-z
x,y,-z
-x,y,z
x,-y,z
1/2+x,1/2+y,z
1/2-x,1/2-y,z
1/2+x,1/2-y,-z
1/2-x,1/2+y,-z
1/2-x,1/2-y,-z
1/2+x,1/2+y,-z
1/2-x,1/2+y,z
1/2+x,1/2-y,z
loop_
_atom_site_type_symbol
_atom_site_label
_atom_site_fract_x
_atom_site_fract_y
_atom_site_fract_z
Si Si1 0.069899 0.913064 0.000000
Si Si2 0.630244 0.157239 0.145870
Si Si3 0.655022 0.409010 0.363597
Si Si4 0.930494 0.809235 0.760955
Si Si5 0.933215 0.500000 0.149714
Si Si6 0.258232 0.593100 0.139778
O O1 0.082843 0.863928 0.120973
O O2 0.000000 0.921387 0.000000
O O3 0.095916 0.000000 0.000000
O O4 0.603271 0.229139 0.217704
O O5 0.599221 0.078004 0.187869
O O6 0.699052 0.141797 0.155611
O O7 0.617226 0.168943 0.000000
O O8 0.681216 0.398824 0.500000
O O9 0.639873 0.500000 0.349796
O O10 0.598067 0.356477 0.349965
O O11 0.698540 0.389380 0.251684
O O12 0.000000 0.798044 0.752852
O O13 0.000000 0.500000 0.189240
O O14 0.931924 0.500000 0.000000
O O15 0.245027 0.500000 0.144203
O O16 0.280824 0.608553 0.000000
#
# Coordination Sequence:
#
# PCOD9484372 Si02
#       6
#     8  16  16  16   8  16
#     4   9  18  32  50  74 109 149 187 229 277 333
#     4  10  18  32  53  84 123 157 192 238 289 344
#     4  10  23  42  62  84 112 150 198 249 300 354
#     4  11  22  35  54  84 119 152 191 239 290 347
#     4   9  16  26  48  80 119 163 196 227 282 348
#     4   9  18  35  60  87 116 152 195 243 291 345
#
# _framework density 18.62771
#
# number of rings (size 3 to 8) (size 9 to 14) (size 15 to 20)
#    0.000    2.200    2.000    1.200    1.400    3.200 
#    0.000    5.000    0.000    0.000    0.000    0.000 
#    0.000    3.200    0.000    0.000    0.000    0.000 
#
# Total GULP energy -223205.709637 kJ/mol
# GULP energy per Si atom -5580.142741 kJ/mol
# Density = 1.858531 g / cm^3
# Si number density = 18.627710 Si / 1000 Ang^3
#
#
#
# Elastic Constant Matrix: (Units=GPa)
#
#
# Indices 1 2 3 4 5 6 
#
# 1 95.0108 47.2494 53.0427 0.0000 0.0000 0.0000
# 2 47.2494 96.9059 41.7347 0.0000 0.0000 0.0000
# 3 53.0427 41.7347 93.5948 0.0000 0.0000 0.0000
# 4 0.0000 0.0000 0.0000 12.9086 0.0000 0.0000
# 5 0.0000 0.0000 0.0000 0.0000 11.6350 0.0000
# 6 0.0000 0.0000 0.0000 0.0000 0.0000 15.7602
#
#
#
# Elastic Compliance Matrix: (Units=1/GPa)
#
#
# Indices 1 2 3 4 5 6 
#
# 1 0.017290 -0.005211 -0.007475 0.000000 0.000000 0.000000
# 2 -0.005211 0.014342 -0.003442 0.000000 0.000000 0.000000
# 3 -0.007475 -0.003442 0.016456 0.000000 0.000000 0.000000
# 4 0.000000 0.000000 0.000000 0.077468 0.000000 0.000000
# 5 0.000000 0.000000 0.000000 0.000000 0.085947 0.000000
# 6 0.000000 0.000000 0.000000 0.000000 0.000000 0.063451
#
#
# Mechanical properties :
#
#
# Convention : Reuss Voigt Hill
#
# Bulk Modulus (GPa) = 63.16519 63.28499 63.22509
# Shear Modulus (GPa) = 16.00067 17.62642 16.81355
#
# Velocity S-wave (km/s) = 2.93400 3.07945 3.00761
# Velocity P-wave (km/s) = 6.74245 6.83311 6.78793
#
# Compressibility (1/GPa) = 0.01583150
#
# Stress axis : x y z
#
# Youngs Moduli (GPa) = 57.83819 69.72287 60.76970
#
# Poissons Ratio (x) = 0.36331 0.45425
# Poissons Ratio (y) = 0.30138 0.20919
# Poissons Ratio (z) = 0.43234 0.24001
#
# Static dielectric constant tensor:
#      x y z
#    x 1.647390 0.000000 0.000000 
#    y 0.000000 1.641850 0.000000 
#    z 0.000000 0.000000 1.637150 
# 
# From -- ./inp_files/30452.got.cif
#   From: 2010.05.17/outbox.cif.g08.bks.cpg/sg65_16_cif.got.tgz:30452.got - 2010.06.03 17:01:31.
