data_PCOD9484889
_publ_section_title
;
Structure prediction by ZEFSAII (Michael W. Deem and Ramdas Pophale) SiO2 
 PCOD9484889
Probable space group: C M M M
;
_chemical_formula_sum "Si O2"
_cell_formula_units_Z 72
_cell_length_a 7.635849
_cell_length_b 29.873078
_cell_length_c 16.212006
_cell_angle_alpha 90.000000
_cell_angle_beta 90.000000
_cell_angle_gamma 90.000000
_cell_volume 3698.060911
_symmetry_space_group_name_H-M "C M M M"
_symmetry_group_IT_number 65
_symmetry_cell_setting 'orthorhombic'
loop_
_space_group_symop_operation_xyz
x,y,z
-x,-y,z
x,-y,-z
-x,y,-z
-x,-y,-z
x,y,-z
-x,y,z
x,-y,z
1/2+x,1/2+y,z
1/2-x,1/2-y,z
1/2+x,1/2-y,-z
1/2-x,1/2+y,-z
1/2-x,1/2-y,-z
1/2+x,1/2+y,-z
1/2-x,1/2+y,z
1/2+x,1/2-y,z
loop_
_atom_site_type_symbol
_atom_site_label
_atom_site_fract_x
_atom_site_fract_y
_atom_site_fract_z
Si Si1 0.209852 0.891320 0.250455
Si Si2 0.210485 0.802051 0.319431
Si Si3 0.710256 0.050590 0.092224
Si Si4 0.209304 0.802893 0.500000
Si Si5 0.213612 0.052307 0.591974
O O1 0.272512 0.839981 0.256547
O O2 0.246456 0.915917 0.165252
O O3 0.276013 0.919313 0.329812
O O4 0.000000 0.890468 0.258717
O O5 0.250000 0.750000 0.303693
O O6 0.276030 0.817264 0.410556
O O7 0.000000 0.803549 0.322977
O O8 0.500000 0.048528 0.088575
O O9 0.773890 0.000000 0.110632
O O10 0.772627 0.063002 0.000000
O O11 0.250000 0.750000 0.500000
O O12 0.000000 0.810987 0.500000
O O13 0.268240 0.067827 0.500000
O O14 0.000000 0.053862 0.592180
O O15 0.262550 0.000000 0.600741
#
# Coordination Sequence:
#
# PCOD9484889 Si02
#       5
#    16  16  16   8  16
#     4  10  19  29  48  76 100 124 161 207 247 282
#     4   9  18  30  45  67  96 130 166 205 245 284
#     4   9  19  36  55  74  98 128 159 192 239 300
#     4   8  14  26  42  60  87 124 163 201 238 275
#     4   8  14  24  39  63  96 129 157 187 228 281
#
# _framework density 19.469664000000002
#
# number of rings (size 3 to 8) (size 9 to 14) (size 15 to 20)
#    0.000    3.111    0.000    2.000    1.556    2.667 
#    0.000    1.111    0.000    1.333    0.000    3.111 
#    0.000    0.000    0.000    0.000    0.000    0.000 
#
# Total GULP energy -200595.087241 kJ/mol
# GULP energy per Si atom -5572.085757 kJ/mol
# Density = 1.942535 g / cm^3
# Si number density = 19.469664 Si / 1000 Ang^3
#
#
#
# Elastic Constant Matrix: (Units=GPa)
#
#
# Indices 1 2 3 4 5 6 
#
# 1 35.7300 8.7166 6.8576 0.0000 0.0000 0.0000
# 2 8.7166 140.5703 120.2336 0.0000 0.0000 0.0000
# 3 6.8576 120.2336 158.7175 0.0000 0.0000 0.0000
# 4 0.0000 0.0000 0.0000 27.2362 0.0000 0.0000
# 5 0.0000 0.0000 0.0000 0.0000 58.0258 0.0000
# 6 0.0000 0.0000 0.0000 0.0000 0.0000 12.4335
#
#
#
# Elastic Compliance Matrix: (Units=1/GPa)
#
#
# Indices 1 2 3 4 5 6 
#
# 1 0.028423 -0.002023 0.000304 0.000000 0.000000 0.000000
# 2 -0.002023 0.020350 -0.015329 0.000000 0.000000 0.000000
# 3 0.000304 -0.015329 0.017899 0.000000 0.000000 0.000000
# 4 0.000000 0.000000 0.000000 0.036716 0.000000 0.000000
# 5 0.000000 0.000000 0.000000 0.000000 0.017234 0.000000
# 6 0.000000 0.000000 0.000000 0.000000 0.000000 0.080428
#
#
# Mechanical properties :
#
#
# Convention : Reuss Voigt Hill
#
# Bulk Modulus (GPa) = 30.69539 67.40371 49.04955
# Shear Modulus (GPa) = 20.32497 32.81977 26.57237
#
# Velocity S-wave (km/s) = 3.23450 4.11017 3.69834
# Velocity P-wave (km/s) = 5.45429 7.56437 6.59427
#
# Compressibility (1/GPa) = 0.03257818
#
# Stress axis : x y z
#
# Youngs Moduli (GPa) = 35.18307 49.13954 55.86838
#
# Poissons Ratio (x) = 0.09939 -0.01699
# Poissons Ratio (y) = 0.07116 0.85638
# Poissons Ratio (z) = -0.01070 0.75324
#
# Static dielectric constant tensor:
#      x y z
#    x 1.753830 0.000000 0.000000 
#    y 0.000000 1.699270 0.000000 
#    z 0.000000 0.000000 1.688250 
# 
# From -- ./inp_files/36957.got.cif
#   From: 2010.05.17/outbox.cif.g08.bks.cpg/sg65_19_cif.got.tgz:36957.got - 2010.06.03 17:01:31.
