data_PCOD9484299
_publ_section_title
;
Structure prediction by ZEFSAII (Michael W. Deem and Ramdas Pophale) SiO2 
 PCOD9484299
Probable space group: C M M M
;
_chemical_formula_sum "Si O2"
_cell_formula_units_Z 80
_cell_length_a 20.245050
_cell_length_b 25.451340
_cell_length_c 9.304850
_cell_angle_alpha 90.000000
_cell_angle_beta 90.000000
_cell_angle_gamma 90.000000
_cell_volume 4794.450982
_symmetry_space_group_name_H-M "C M M M"
_symmetry_group_IT_number 65
_symmetry_cell_setting 'orthorhombic'
loop_
_space_group_symop_operation_xyz
x,y,z
-x,-y,z
x,-y,-z
-x,y,-z
-x,-y,-z
x,y,-z
-x,y,z
x,-y,z
1/2+x,1/2+y,z
1/2-x,1/2-y,z
1/2+x,1/2-y,-z
1/2-x,1/2+y,-z
1/2-x,1/2-y,-z
1/2+x,1/2+y,-z
1/2-x,1/2+y,z
1/2+x,1/2-y,z
loop_
_atom_site_type_symbol
_atom_site_label
_atom_site_fract_x
_atom_site_fract_y
_atom_site_fract_z
Si Si1 0.231061 0.396145 0.668330
Si Si2 0.075595 0.212418 0.168059
Si Si3 0.318170 0.218199 0.329233
Si Si4 0.606966 0.500000 0.833301
Si Si5 0.109400 0.893838 0.669518
Si Si6 0.267916 0.000000 0.164061
O O1 0.218023 0.405030 0.500000
O O2 0.196218 0.342017 0.711838
O O3 0.310567 0.389955 0.681974
O O4 0.210588 0.447042 0.756974
O O5 0.125246 0.253629 0.239369
O O6 0.081787 0.157462 0.252640
O O7 0.000000 0.230714 0.178078
O O8 0.091758 0.204053 0.000000
O O9 0.333619 0.220382 0.500000
O O10 0.250000 0.250000 0.309273
O O11 0.587306 0.447183 0.749059
O O12 0.687437 0.500000 0.832718
O O13 0.585685 0.500000 0.000000
O O14 0.093256 0.895201 0.500000
O O15 0.289121 0.000000 0.000000
#
# Coordination Sequence:
#
# PCOD9484299 Si02
#       6
#    16  16  16   8  16   8
#     4   9  17  30  50  75 104 133 165 211 259 302
#     4  11  24  38  51  73 106 141 175 215 264 314
#     4  10  19  35  56  80 104 132 175 220 260 309
#     4   9  17  29  46  72 103 134 170 215 262 307
#     4  10  18  32  52  73  99 135 177 218 259 305
#     4   9  17  27  43  72 107 136 167 202 246 308
#
# _framework density 16.685956000000001
#
# number of rings (size 3 to 8) (size 9 to 14) (size 15 to 20)
#    0.000    2.200    2.000    1.800    0.000    6.000 
#    0.000    0.500    0.000    3.000    0.000    0.700 
#    0.000    5.600    0.000    0.000    0.000    0.000 
#
# Total GULP energy -223259.066341 kJ/mol
# GULP energy per Si atom -5581.476659 kJ/mol
# Density = 1.664798 g / cm^3
# Si number density = 16.685956 Si / 1000 Ang^3
#
#
#
# Elastic Constant Matrix: (Units=GPa)
#
#
# Indices 1 2 3 4 5 6 
#
# 1 49.0473 48.1513 52.7850 0.0000 0.0000 0.0000
# 2 48.1513 153.8818 88.2642 0.0000 0.0000 0.0000
# 3 52.7850 88.2642 117.5785 0.0000 0.0000 0.0000
# 4 0.0000 0.0000 0.0000 23.6829 0.0000 0.0000
# 5 0.0000 0.0000 0.0000 0.0000 17.3539 0.0000
# 6 0.0000 0.0000 0.0000 0.0000 0.0000 2.5082
#
#
#
# Elastic Compliance Matrix: (Units=1/GPa)
#
#
# Indices 1 2 3 4 5 6 
#
# 1 0.040782 -0.003968 -0.015329 0.000000 0.000000 0.000000
# 2 -0.003968 0.011799 -0.007075 0.000000 0.000000 0.000000
# 3 -0.015329 -0.007075 0.020698 0.000000 0.000000 0.000000
# 4 0.000000 0.000000 0.000000 0.042225 0.000000 0.000000
# 5 0.000000 0.000000 0.000000 0.000000 0.057624 0.000000
# 6 0.000000 0.000000 0.000000 0.000000 0.000000 0.398698
#
#
# Mechanical properties :
#
#
# Convention : Reuss Voigt Hill
#
# Bulk Modulus (GPa) = 48.70376 77.65650 63.18013
# Shear Modulus (GPa) = 7.91871 17.46280 12.69076
#
# Velocity S-wave (km/s) = 2.18083 3.23856 2.76083
# Velocity P-wave (km/s) = 5.96601 7.78624 6.93609
#
# Compressibility (1/GPa) = 0.02053230
#
# Stress axis : x y z
#
# Youngs Moduli (GPa) = 24.52071 84.75547 48.31322
#
# Poissons Ratio (x) = 0.33634 0.74061
# Poissons Ratio (y) = 0.09731 0.34184
# Poissons Ratio (z) = 0.37589 0.59969
#
# Static dielectric constant tensor:
#      x y z
#    x 1.548440 0.000000 0.000000 
#    y 0.000000 1.546950 0.000000 
#    z 0.000000 0.000000 1.556570 
# 
# From -- ./inp_files/11556.got.cif
#   From: 2010.05.17/outbox.cif.g08.bks.cpg/sg65_6_cif.got.tgz:11556.got - 2010.06.03 17:01:31.
