data_PCOD9484359
_publ_section_title
;
Structure prediction by ZEFSAII (Michael W. Deem and Ramdas Pophale) SiO2 
 PCOD9484359
Probable space group: C M M M
;
_chemical_formula_sum "Si O2"
_cell_formula_units_Z 104
_cell_length_a 8.729453
_cell_length_b 19.876071
_cell_length_c 34.013331
_cell_angle_alpha 90.000000
_cell_angle_beta 90.000000
_cell_angle_gamma 90.000000
_cell_volume 5901.558764
_symmetry_space_group_name_H-M "C M M M"
_symmetry_group_IT_number 65
_symmetry_cell_setting 'orthorhombic'
loop_
_space_group_symop_operation_xyz
x,y,z
-x,-y,z
x,-y,-z
-x,y,-z
-x,-y,-z
x,y,-z
-x,y,z
x,-y,z
1/2+x,1/2+y,z
1/2-x,1/2-y,z
1/2+x,1/2-y,-z
1/2-x,1/2+y,-z
1/2-x,1/2-y,-z
1/2+x,1/2+y,-z
1/2-x,1/2+y,z
1/2+x,1/2-y,z
loop_
_atom_site_type_symbol
_atom_site_label
_atom_site_fract_x
_atom_site_fract_y
_atom_site_fract_z
Si Si1 0.816888 0.174395 0.081706
Si Si2 0.683671 0.174058 0.000000
Si Si3 0.816988 0.579160 0.148434
Si Si4 0.817098 0.324007 0.609855
Si Si5 0.315439 0.421599 0.455543
Si Si6 0.317592 0.578965 0.765911
Si Si7 0.316145 0.175523 0.699804
O O1 0.750000 0.250000 0.087169
O O2 0.765526 0.126922 0.117243
O O3 0.000000 0.178782 0.078686
O O4 0.747552 0.145493 0.040865
O O5 0.750000 0.250000 0.000000
O O6 0.500000 0.174720 0.000000
O O7 0.781363 0.500000 0.141464
O O8 0.761126 0.595480 0.192481
O O9 0.000000 0.587730 0.145589
O O10 0.750000 0.250000 0.602404
O O11 0.755547 0.375667 0.577860
O O12 0.774578 0.343164 0.654757
O O13 0.000000 0.320728 0.607845
O O14 0.269054 0.401667 0.500000
O O15 0.500000 0.417138 0.453663
O O16 0.274032 0.500000 0.450150
O O17 0.500000 0.588391 0.769458
O O18 0.287983 0.500000 0.757972
O O19 0.252077 0.624228 0.731155
O O20 0.500000 0.177083 0.702863
O O21 0.250000 0.250000 0.706938
#
# Coordination Sequence:
#
# PCOD9484359 Si02
#       7
#    16   8  16  16  16  16  16
#     4  11  21  35  56  82 111 142 181 224 267 317
#     4  10  18  32  53  78 109 142 179 221 269 319
#     4  10  21  38  58  80 109 143 178 220 270 319
#     4  10  21  36  55  79 107 140 177 218 264 315
#     4   9  19  36  56  78 106 140 177 218 264 313
#     4  10  21  37  57  81 108 140 178 217 261 316
#     4  10  21  37  56  79 108 140 176 219 266 314
#
# _framework density 17.622461999999999
#
# number of rings (size 3 to 8) (size 9 to 14) (size 15 to 20)
#    0.000    2.000    0.000    5.308    0.000    5.846 
#    0.000    7.308    0.000    2.308    0.000    0.000 
#    0.000    0.000    0.000    0.000    0.000    0.000 
#
# Total GULP energy -290327.958272 kJ/mol
# GULP energy per Si atom -5583.229967 kJ/mol
# Density = 1.758235 g / cm^3
# Si number density = 17.622462 Si / 1000 Ang^3
#
#
#
# Elastic Constant Matrix: (Units=GPa)
#
#
# Indices 1 2 3 4 5 6 
#
# 1 102.1362 54.8916 75.3981 0.0000 0.0000 0.0000
# 2 54.8916 78.5308 101.2513 0.0000 0.0000 0.0000
# 3 75.3981 101.2513 171.1993 0.0000 0.0000 0.0000
# 4 0.0000 0.0000 0.0000 45.8938 0.0000 0.0000
# 5 0.0000 0.0000 0.0000 0.0000 35.7722 0.0000
# 6 0.0000 0.0000 0.0000 0.0000 0.0000 29.7604
#
#
#
# Elastic Compliance Matrix: (Units=1/GPa)
#
#
# Indices 1 2 3 4 5 6 
#
# 1 0.015812 -0.008733 -0.001799 0.000000 0.000000 0.000000
# 2 -0.008733 0.058447 -0.030721 0.000000 0.000000 0.000000
# 3 -0.001799 -0.030721 0.024802 0.000000 0.000000 0.000000
# 4 0.000000 0.000000 0.000000 0.021789 0.000000 0.000000
# 5 0.000000 0.000000 0.000000 0.000000 0.027955 0.000000
# 6 0.000000 0.000000 0.000000 0.000000 0.000000 0.033602
#
#
# Mechanical properties :
#
#
# Convention : Reuss Voigt Hill
#
# Bulk Modulus (GPa) = 60.40071 90.54979 75.47525
# Shear Modulus (GPa) = 18.48894 30.30698 24.39796
#
# Velocity S-wave (km/s) = 3.24260 4.15154 3.72490
# Velocity P-wave (km/s) = 6.95475 8.62989 7.83721
#
# Compressibility (1/GPa) = 0.01655610
#
# Stress axis : x y z
#
# Youngs Moduli (GPa) = 63.24174 17.10952 40.31865
#
# Poissons Ratio (x) = 0.14942 0.07253
# Poissons Ratio (y) = 0.55229 1.23862
# Poissons Ratio (z) = 0.11377 0.52562
#
# Static dielectric constant tensor:
#      x y z
#    x 1.589340 0.000000 0.000000 
#    y 0.000000 1.574430 0.000000 
#    z 0.000000 0.000000 1.598410 
# 
# From -- ./inp_files/73347.got.cif
#   From: 2010.05.17/outbox.cif.g08.bks.cpg/sg65_37_cif.got.tgz:73347.got - 2010.06.03 17:01:31.
