data_PCOD9484274
_publ_section_title
;
Structure prediction by ZEFSAII (Michael W. Deem and Ramdas Pophale) SiO2 
 PCOD9484274
Probable space group: C M M M
;
_chemical_formula_sum "Si O2"
_cell_formula_units_Z 64
_cell_length_a 19.063095
_cell_length_b 8.403694
_cell_length_c 22.918791
_cell_angle_alpha 90.000000
_cell_angle_beta 90.000000
_cell_angle_gamma 90.000000
_cell_volume 3671.599877
_symmetry_space_group_name_H-M "C M M M"
_symmetry_group_IT_number 65
_symmetry_cell_setting 'orthorhombic'
loop_
_space_group_symop_operation_xyz
x,y,z
-x,-y,z
x,-y,-z
-x,y,-z
-x,-y,-z
x,y,-z
-x,y,z
x,-y,z
1/2+x,1/2+y,z
1/2-x,1/2-y,z
1/2+x,1/2-y,-z
1/2-x,1/2+y,-z
1/2-x,1/2-y,-z
1/2+x,1/2+y,-z
1/2-x,1/2+y,z
1/2+x,1/2-y,z
loop_
_atom_site_type_symbol
_atom_site_label
_atom_site_fract_x
_atom_site_fract_y
_atom_site_fract_z
Si Si1 0.585455 0.183220 0.137574
Si Si2 0.830371 0.312038 0.500000
Si Si3 0.080461 0.690471 0.271351
Si Si4 0.170634 0.812646 0.378152
Si Si5 0.585460 0.500000 0.932266
O O1 0.500000 0.179514 0.135943
O O2 0.605130 0.217796 0.204889
O O3 0.608141 0.334040 0.098523
O O4 0.607661 0.000000 0.122396
O O5 0.828980 0.500000 0.500000
O O6 0.750000 0.250000 0.500000
O O7 0.861289 0.254255 0.438622
O O8 0.080423 0.500000 0.279241
O O9 0.127186 0.765300 0.321419
O O10 0.000000 0.747296 0.275761
O O11 0.250000 0.750000 0.372159
O O12 0.174021 0.000000 0.384109
O O13 0.500000 0.500000 0.929638
O O14 0.605968 0.500000 0.000000
#
# Coordination Sequence:
#
# PCOD9484274 Si02
#       5
#    16   8  16  16   8
#     4   8  15  27  42  61  90 127 161 196 242 293
#     4  10  18  32  51  68  93 126 161 197 247 299
#     4   9  18  33  51  71  97 131 166 201 248 300
#     4  11  21  33  51  74  99 127 161 205 246 294
#     4   9  16  24  38  62  92 125 163 201 236 287
#
# _framework density 17.431094999999999
#
# number of rings (size 3 to 8) (size 9 to 14) (size 15 to 20)
#    0.000    2.625    0.000    6.375    1.750    1.000 
#    0.000    3.125    0.000    3.750    0.000    0.000 
#    0.000    1.000    0.500    0.000    0.000    0.000 
#
# Total GULP energy -178241.048548 kJ/mol
# GULP energy per Si atom -5570.032767 kJ/mol
# Density = 1.739142 g / cm^3
# Si number density = 17.431095 Si / 1000 Ang^3
#
#
#
# Elastic Constant Matrix: (Units=GPa)
#
#
# Indices 1 2 3 4 5 6 
#
# 1 17.4457 23.9705 30.8105 0.0000 0.0000 0.0000
# 2 23.9705 157.3024 113.5689 0.0000 0.0000 0.0000
# 3 30.8105 113.5689 145.1685 0.0000 0.0000 0.0000
# 4 0.0000 0.0000 0.0000 35.7431 0.0000 0.0000
# 5 0.0000 0.0000 0.0000 0.0000 55.7480 0.0000
# 6 0.0000 0.0000 0.0000 0.0000 0.0000 16.2183
#
#
#
# Elastic Compliance Matrix: (Units=1/GPa)
#
#
# Indices 1 2 3 4 5 6 
#
# 1 0.091691 0.000179 -0.019600 0.000000 0.000000 0.000000
# 2 0.000179 0.014609 -0.011467 0.000000 0.000000 0.000000
# 3 -0.019600 -0.011467 0.020019 0.000000 0.000000 0.000000
# 4 0.000000 0.000000 0.000000 0.027977 0.000000 0.000000
# 5 0.000000 0.000000 0.000000 0.000000 0.017938 0.000000
# 6 0.000000 0.000000 0.000000 0.000000 0.000000 0.061659
#
#
# Mechanical properties :
#
#
# Convention : Reuss Voigt Hill
#
# Bulk Modulus (GPa) = 15.49370 72.95737 44.22553
# Shear Modulus (GPa) = 15.76376 31.64632 23.70504
#
# Velocity S-wave (km/s) = 3.01050 4.26550 3.69172
# Velocity P-wave (km/s) = 4.58170 8.13664 6.60291
#
# Compressibility (1/GPa) = 0.06454238
#
# Stress axis : x y z
#
# Youngs Moduli (GPa) = 10.90619 68.45290 49.95230
#
# Poissons Ratio (x) = -0.01223 0.97908
# Poissons Ratio (y) = -0.00195 0.57278
# Poissons Ratio (z) = 0.21376 0.78492
#
# Static dielectric constant tensor:
#      x y z
#    x 1.575810 0.000000 0.000000 
#    y 0.000000 1.590090 0.000000 
#    z 0.000000 0.000000 1.614090 
# 
# From -- ./inp_files/49092.got.cif
#   From: 2010.05.17/outbox.cif.g08.bks.cpg/sg65_25_cif.got.tgz:49092.got - 2010.06.03 17:01:31.
