data_PCOD9484117
_publ_section_title
;
Structure prediction by ZEFSAII (Michael W. Deem and Ramdas Pophale) SiO2 
 PCOD9484117
Probable space group: C M M M
;
_chemical_formula_sum "Si O2"
_cell_formula_units_Z 120
_cell_length_a 8.743216
_cell_length_b 28.925305
_cell_length_c 25.010261
_cell_angle_alpha 90.000000
_cell_angle_beta 90.000000
_cell_angle_gamma 90.000000
_cell_volume 6325.099746
_symmetry_space_group_name_H-M "C M M M"
_symmetry_group_IT_number 65
_symmetry_cell_setting 'orthorhombic'
loop_
_space_group_symop_operation_xyz
x,y,z
-x,-y,z
x,-y,-z
-x,y,-z
-x,-y,-z
x,y,-z
-x,y,z
x,-y,z
1/2+x,1/2+y,z
1/2-x,1/2-y,z
1/2+x,1/2-y,-z
1/2-x,1/2+y,-z
1/2-x,1/2-y,-z
1/2+x,1/2+y,-z
1/2-x,1/2+y,z
1/2+x,1/2-y,z
loop_
_atom_site_type_symbol
_atom_site_label
_atom_site_fract_x
_atom_site_fract_y
_atom_site_fract_z
Si Si1 0.817005 0.703385 0.869151
Si Si2 0.317113 0.200574 0.361809
Si Si3 0.172788 0.079152 0.738737
Si Si4 0.816414 0.616729 0.060506
Si Si5 0.327413 0.688406 0.753140
Si Si6 0.686153 0.000000 0.437808
Si Si7 0.673150 0.446523 0.146739
Si Si8 0.816712 0.592877 0.374630
O O1 0.750000 0.750000 0.892622
O O2 0.766431 0.662036 0.907252
O O3 0.750938 0.699089 0.809301
O O4 0.000000 0.704173 0.866072
O O5 0.500000 0.202369 0.367525
O O6 0.250000 0.250000 0.384020
O O7 0.268755 0.200902 0.299364
O O8 0.266133 0.147871 0.381687
O O9 0.160268 0.133372 0.750365
O O10 0.239617 0.058954 0.793481
O O11 0.268562 0.076524 0.684720
O O12 0.000000 0.060294 0.730437
O O13 0.765584 0.576193 0.099419
O O14 0.000000 0.617770 0.057760
O O15 0.757013 0.613728 0.000000
O O16 0.500000 0.708181 0.750478
O O17 0.736351 0.950467 0.411812
O O18 0.500000 0.000000 0.433606
O O19 0.728097 0.000000 0.500000
O O20 0.500000 0.426396 0.148961
O O21 0.661337 0.500000 0.135643
O O22 0.000000 0.595009 0.378881
#
# Coordination Sequence:
#
# PCOD9484117 Si02
#       8
#    16  16  16  16  16   8  16  16
#     4  11  22  35  53  75 100 131 170 217 270 326
#     4  10  19  31  48  75 112 148 185 226 273 328
#     4   9  18  32  52  78 111 145 175 215 268 323
#     4  10  23  42  59  75  99 132 174 224 275 327
#     4  10  18  31  51  74 104 142 180 215 264 326
#     4   9  18  36  61  87 117 153 194 239 280 319
#     4  10  21  37  57  82 109 138 174 215 266 329
#     4   9  19  33  53  83 113 146 189 233 273 322
#
# _framework density 18.972033
#
# number of rings (size 3 to 8) (size 9 to 14) (size 15 to 20)
#    0.000    2.200    1.333    1.600    0.933    3.200 
#    0.000    1.333    0.000    1.200    0.000    0.000 
#    0.000    0.000    0.000    0.000    0.000    0.400 
#
# Total GULP energy -334079.499266 kJ/mol
# GULP energy per Si atom -5567.991654 kJ/mol
# Density = 1.892885 g / cm^3
# Si number density = 18.972033 Si / 1000 Ang^3
#
#
#
# Elastic Constant Matrix: (Units=GPa)
#
#
# Indices 1 2 3 4 5 6 
#
# 1 20.3868 20.3822 11.4266 0.0000 0.0000 0.0000
# 2 20.3822 136.3819 67.9107 0.0000 0.0000 0.0000
# 3 11.4266 67.9107 92.2161 0.0000 0.0000 0.0000
# 4 0.0000 0.0000 0.0000 -23.3574 0.0000 0.0000
# 5 0.0000 0.0000 0.0000 0.0000 4.8397 0.0000
# 6 0.0000 0.0000 0.0000 0.0000 0.0000 17.0511
#
#
#
# Elastic Compliance Matrix: (Units=1/GPa)
#
#
# Indices 1 2 3 4 5 6 
#
# 1 0.057761 -0.008003 -0.001263 0.000000 0.000000 0.000000
# 2 -0.008003 0.012687 -0.008351 0.000000 0.000000 0.000000
# 3 -0.001263 -0.008351 0.017151 0.000000 0.000000 0.000000
# 4 0.000000 0.000000 0.000000 -0.042813 0.000000 0.000000
# 5 0.000000 0.000000 0.000000 0.000000 0.206624 0.000000
# 6 0.000000 0.000000 0.000000 0.000000 0.000000 0.058647
#
#
# Mechanical properties :
#
#
# Convention : Reuss Voigt Hill
#
# Bulk Modulus (GPa) = 19.09757 49.82485 34.46121
# Shear Modulus (GPa) = 13.78372 9.65771 11.72072
#
# Velocity S-wave (km/s) = 2.69834 2.25866 2.48823
# Velocity P-wave (km/s) = 4.44928 5.75511 5.14380
#
# Compressibility (1/GPa) = 0.05236268
#
# Stress axis : x y z
#
# Youngs Moduli (GPa) = 17.31276 78.82128 58.30619
#
# Poissons Ratio (x) = 0.63082 0.07367
# Poissons Ratio (y) = 0.13856 0.48694
# Poissons Ratio (z) = 0.02187 0.65826
#
# Static dielectric constant tensor:
#      x y z
#    x 1.768730 0.000000 0.000000 
#    y 0.000000 1.729880 0.000000 
#    z 0.000000 0.000000 1.633490 
# 
# From -- ./inp_files/74020.got.cif
#   From: 2010.05.17/outbox.cif.g08.bks.cpg/sg65_38_cif.got.tgz:74020.got - 2010.06.03 17:01:31.
