data_PCOD9484462
_publ_section_title
;
Structure prediction by ZEFSAII (Michael W. Deem and Ramdas Pophale) SiO2 
 PCOD9484462
Probable space group: C M M M
;
_chemical_formula_sum "Si O2"
_cell_formula_units_Z 72
_cell_length_a 23.231527
_cell_length_b 19.787295
_cell_length_c 7.674854
_cell_angle_alpha 90.000000
_cell_angle_beta 90.000000
_cell_angle_gamma 90.000000
_cell_volume 3528.046559
_symmetry_space_group_name_H-M "C M M M"
_symmetry_group_IT_number 65
_symmetry_cell_setting 'orthorhombic'
loop_
_space_group_symop_operation_xyz
x,y,z
-x,-y,z
x,-y,-z
-x,y,-z
-x,-y,-z
x,y,-z
-x,y,z
x,-y,z
1/2+x,1/2+y,z
1/2-x,1/2-y,z
1/2+x,1/2-y,-z
1/2-x,1/2+y,-z
1/2-x,1/2-y,-z
1/2+x,1/2+y,-z
1/2-x,1/2+y,z
1/2+x,1/2-y,z
loop_
_atom_site_type_symbol
_atom_site_label
_atom_site_fract_x
_atom_site_fract_y
_atom_site_fract_z
Si Si1 0.000000 0.422422 0.786638
Si Si2 0.434302 0.677271 0.786617
Si Si3 0.337042 0.575841 0.793985
Si Si4 0.103855 0.673021 0.789687
Si Si5 0.735795 0.174958 0.705353
O O1 0.056700 0.381334 0.730499
O O2 0.000000 0.500000 0.729719
O O3 0.000000 0.422380 0.000000
O O4 0.500000 0.664882 0.733766
O O5 0.389321 0.621319 0.723195
O O6 0.414154 0.751867 0.730519
O O7 0.433310 0.677703 0.000000
O O8 0.333290 0.500000 0.721371
O O9 0.278625 0.618366 0.775759
O O10 0.347952 0.569809 0.000000
O O11 0.169115 0.658971 0.736509
O O12 0.102111 0.673498 0.000000
O O13 0.746631 0.177607 0.500000
O O14 0.750000 0.250000 0.778418
#
# Coordination Sequence:
#
# PCOD9484462 Si02
#       5
#     8  16  16  16  16
#     4   9  18  32  53  85 116 138 171 222 275 328
#     4   9  16  29  53  83 110 138 176 222 273 325
#     4  10  21  36  56  83 112 143 181 226 275 325
#     4  10  18  32  57  82 107 143 182 223 271 323
#     4  11  23  37  55  80 110 147 188 228 273 323
#
# _framework density 20.407893999999999
#
# number of rings (size 3 to 8) (size 9 to 14) (size 15 to 20)
#    0.000    2.111    3.333    0.667    0.000    2.667 
#    0.000    5.000    0.000    2.667    0.000    1.556 
#    0.000    0.000    0.000    0.000    0.000    0.000 
#
# Total GULP energy -201065.682849 kJ/mol
# GULP energy per Si atom -5585.157857 kJ/mol
# Density = 2.036144 g / cm^3
# Si number density = 20.407894 Si / 1000 Ang^3
#
#
#
# Elastic Constant Matrix: (Units=GPa)
#
#
# Indices 1 2 3 4 5 6 
#
# 1 180.2054 105.1752 -13.1691 0.0000 0.0000 0.0000
# 2 105.1752 205.6252 5.6655 0.0000 0.0000 0.0000
# 3 -13.1691 5.6655 33.8909 0.0000 0.0000 0.0000
# 4 0.0000 0.0000 0.0000 3.4824 0.0000 0.0000
# 5 0.0000 0.0000 0.0000 0.0000 -40.5828 0.0000
# 6 0.0000 0.0000 0.0000 0.0000 0.0000 29.7220
#
#
#
# Elastic Compliance Matrix: (Units=1/GPa)
#
#
# Indices 1 2 3 4 5 6 
#
# 1 0.008421 -0.004418 0.004010 0.000000 0.000000 0.000000
# 2 -0.004418 0.007203 -0.002921 0.000000 0.000000 0.000000
# 3 0.004010 -0.002921 0.031553 0.000000 0.000000 0.000000
# 4 0.000000 0.000000 0.000000 0.287160 0.000000 0.000000
# 5 0.000000 0.000000 0.000000 0.000000 -0.024641 0.000000
# 6 0.000000 0.000000 0.000000 0.000000 0.000000 0.033645
#
#
# Mechanical properties :
#
#
# Convention : Reuss Voigt Hill
#
# Bulk Modulus (GPa) = 24.67835 68.34053 46.50944
# Shear Modulus (GPa) = 13.75503 19.99430 16.87466
#
# Velocity S-wave (km/s) = 2.59898 3.13347 2.87865
# Velocity P-wave (km/s) = 4.59620 6.83019 5.82136
#
# Compressibility (1/GPa) = 0.04052135
#
# Stress axis : x y z
#
# Youngs Moduli (GPa) = 118.75710 138.82706 31.69263
#
# Poissons Ratio (x) = 0.61327 -0.12710
# Poissons Ratio (y) = 0.52461 0.09256
# Poissons Ratio (z) = -0.47627 0.40547
#
# Static dielectric constant tensor:
#      x y z
#    x 1.681270 0.000000 0.000000 
#    y 0.000000 1.716880 0.000000 
#    z 0.000000 0.000000 1.746530 
# 
# From -- ./inp_files/9201.got.cif
#   From: 2010.05.17/outbox.cif.g08.bks.cpg/sg65_5_cif.got.tgz:9201.got - 2010.06.03 17:01:31.
