data_PCOD9484044
_publ_section_title
;
Structure prediction by ZEFSAII (Michael W. Deem and Ramdas Pophale) SiO2 
 PCOD9484044
Probable space group: C M M M
;
_chemical_formula_sum "Si O2"
_cell_formula_units_Z 128
_cell_length_a 22.315563
_cell_length_b 27.525806
_cell_length_c 13.153857
_cell_angle_alpha 90.000000
_cell_angle_beta 90.000000
_cell_angle_gamma 90.000000
_cell_volume 8079.807409
_symmetry_space_group_name_H-M "C M M M"
_symmetry_group_IT_number 65
_symmetry_cell_setting 'orthorhombic'
loop_
_space_group_symop_operation_xyz
x,y,z
-x,-y,z
x,-y,-z
-x,y,-z
-x,-y,-z
x,y,-z
-x,y,z
x,-y,z
1/2+x,1/2+y,z
1/2-x,1/2-y,z
1/2+x,1/2-y,-z
1/2-x,1/2+y,-z
1/2-x,1/2-y,-z
1/2+x,1/2+y,-z
1/2-x,1/2+y,z
1/2+x,1/2-y,z
loop_
_atom_site_type_symbol
_atom_site_label
_atom_site_fract_x
_atom_site_fract_y
_atom_site_fract_z
Si Si1 0.571271 0.443586 0.122115
Si Si2 0.742886 0.354431 0.620582
Si Si3 0.068400 0.613978 0.376955
Si Si4 0.322591 0.947192 0.377162
Si Si5 0.932676 0.792914 0.612795
Si Si6 0.178119 0.242106 0.884074
Si Si7 0.145477 0.705934 0.683950
Si Si8 0.368544 0.648065 0.227662
O O1 0.500000 0.436385 0.143033
O O2 0.585768 0.500000 0.149313
O O3 0.610540 0.402451 0.177972
O O4 0.578961 0.438971 0.000000
O O5 0.730371 0.354272 0.500000
O O6 0.778781 0.403441 0.649474
O O7 0.789143 0.310782 0.645272
O O8 0.684379 0.354476 0.689148
O O9 0.070174 0.618640 0.500000
O O10 0.110208 0.568536 0.348957
O O11 0.100891 0.661220 0.333128
O O12 0.000000 0.609447 0.345295
O O13 0.321124 0.949102 0.500000
O O14 0.306073 0.000000 0.336952
O O15 0.926991 0.815275 0.500000
O O16 0.882721 0.751341 0.624535
O O17 0.922567 0.829233 0.706023
O O18 0.000000 0.771810 0.619225
O O19 0.250000 0.250000 0.876255
O O20 0.150113 0.277769 0.800508
O O21 0.155867 0.188052 0.852850
O O22 0.160769 0.252199 0.000000
#
# Coordination Sequence:
#
# PCOD9484044 Si02
#       8
#    16  16  16  16  16  16  16  16
#     4   9  19  37  59  79  97 120 158 211 262 298
#     4  10  19  30  45  69  98 132 166 195 231 285
#     4   9  16  26  44  68  94 125 161 200 238 278
#     4   8  15  27  41  60  91 127 161 197 233 270
#     4  10  20  31  46  69  98 131 166 205 241 278
#     4  10  20  34  48  68  96 125 157 192 237 288
#     4  10  18  31  48  67  92 130 166 198 238 284
#     4  11  20  32  51  75  99 129 157 196 239 299
#
# _framework density 15.841962000000001
#
# number of rings (size 3 to 8) (size 9 to 14) (size 15 to 20)
#    0.000    2.375    1.250    3.750    0.000    1.750 
#    0.000    3.125    0.000    8.625    0.000    4.375 
#    0.000    4.500    0.000    4.500    0.000    0.500 
#
# Total GULP energy -356475.935484 kJ/mol
# GULP energy per Si atom -5569.936492 kJ/mol
# Density = 1.580590 g / cm^3
# Si number density = 15.841962 Si / 1000 Ang^3
#
#
#
# Elastic Constant Matrix: (Units=GPa)
#
#
# Indices 1 2 3 4 5 6 
#
# 1 76.0758 27.1828 26.7471 0.0000 0.0000 0.0000
# 2 27.1828 82.2704 23.4490 0.0000 0.0000 0.0000
# 3 26.7471 23.4490 70.6723 0.0000 0.0000 0.0000
# 4 0.0000 0.0000 0.0000 17.6961 0.0000 0.0000
# 5 0.0000 0.0000 0.0000 0.0000 14.7252 0.0000
# 6 0.0000 0.0000 0.0000 0.0000 0.0000 16.5262
#
#
#
# Elastic Compliance Matrix: (Units=1/GPa)
#
#
# Indices 1 2 3 4 5 6 
#
# 1 0.016273 -0.003999 -0.004832 0.000000 0.000000 0.000000
# 2 -0.003999 0.014408 -0.003267 0.000000 0.000000 0.000000
# 3 -0.004832 -0.003267 0.017062 0.000000 0.000000 0.000000
# 4 0.000000 0.000000 0.000000 0.056510 0.000000 0.000000
# 5 0.000000 0.000000 0.000000 0.000000 0.067911 0.000000
# 6 0.000000 0.000000 0.000000 0.000000 0.000000 0.060510
#
#
# Mechanical properties :
#
#
# Convention : Reuss Voigt Hill
#
# Bulk Modulus (GPa) = 42.46857 42.64181 42.55519
# Shear Modulus (GPa) = 18.88803 19.89879 19.39341
#
# Velocity S-wave (km/s) = 3.45668 3.54797 3.50262
# Velocity P-wave (km/s) = 6.54197 6.61510 6.57864
#
# Compressibility (1/GPa) = 0.02354683
#
# Stress axis : x y z
#
# Youngs Moduli (GPa) = 61.45316 69.40782 58.60874
#
# Poissons Ratio (x) = 0.27759 0.28317
# Poissons Ratio (y) = 0.24578 0.19146
# Poissons Ratio (z) = 0.29692 0.22674
#
# Static dielectric constant tensor:
#      x y z
#    x 1.543790 0.000000 0.000000 
#    y 0.000000 1.546100 0.000000 
#    z 0.000000 0.000000 1.512260 
# 
# From -- ./inp_files/31459.got.cif
#   From: 2010.05.17/outbox.cif.g08.bks.cpg/sg65_16_cif.got.tgz:31459.got - 2010.06.03 17:01:31.
