data_PCOD9484443
_publ_section_title
;
Structure prediction by ZEFSAII (Michael W. Deem and Ramdas Pophale) SiO2 
 PCOD9484443
Probable space group: C M M M
;
_chemical_formula_sum "Si O2"
_cell_formula_units_Z 82
_cell_length_a 24.392487
_cell_length_b 7.877910
_cell_length_c 21.132444
_cell_angle_alpha 90.000000
_cell_angle_beta 90.000000
_cell_angle_gamma 90.000000
_cell_volume 4060.848842
_symmetry_space_group_name_H-M "C M M M"
_symmetry_group_IT_number 65
_symmetry_cell_setting 'orthorhombic'
loop_
_space_group_symop_operation_xyz
x,y,z
-x,-y,z
x,-y,-z
-x,y,-z
-x,-y,-z
x,y,-z
-x,y,z
x,-y,z
1/2+x,1/2+y,z
1/2-x,1/2-y,z
1/2+x,1/2-y,-z
1/2-x,1/2+y,-z
1/2-x,1/2-y,-z
1/2+x,1/2+y,-z
1/2-x,1/2+y,z
1/2+x,1/2-y,z
loop_
_atom_site_type_symbol
_atom_site_label
_atom_site_fract_x
_atom_site_fract_y
_atom_site_fract_z
Si Si1 0.000000 0.000000 0.000000
Si Si2 0.813321 0.298024 0.743263
Si Si3 0.000000 0.190277 0.150523
Si Si4 0.390503 0.202079 0.366256
Si Si5 0.598025 0.197104 0.000000
Si Si6 0.937047 0.199509 0.500000
Si Si7 0.000000 0.298091 0.287857
Si Si8 0.120391 0.796304 0.130561
O O1 0.049530 0.843676 0.000000
O O2 0.817355 0.500000 0.739923
O O3 0.750000 0.250000 0.746582
O O4 0.842612 0.228051 0.679436
O O5 0.845270 0.248026 0.807319
O O6 0.000000 0.184773 0.225973
O O7 0.942219 0.272557 0.135735
O O8 0.000000 0.000000 0.119090
O O9 0.402337 0.258086 0.437476
O O10 0.446442 0.236835 0.328443
O O11 0.383249 0.000000 0.369793
O O12 0.635660 0.227544 0.937938
O O13 0.578232 0.000000 0.000000
O O14 0.000000 0.275397 0.500000
O O15 0.944413 0.000000 0.500000
O O16 0.000000 0.500000 0.270684
O O17 0.117716 0.000000 0.129172
#
# Coordination Sequence:
#
# PCOD9484443 Si02
#       8
#     2  16   8  16   8   8   8  16
#     4  12  22  44  60  98 144 180 226 262 336 396
#     4  11  24  43  66  93 120 162 218 272 329 383
#     4  10  21  32  55  89 126 164 197 247 316 378
#     4  10  21  38  60  87 123 162 205 251 308 380
#     4  12  25  41  64  93 136 186 224 267 327 404
#     4  11  23  35  56  91 130 163 200 244 307 382
#     4  10  18  32  55  86 121 156 197 252 302 370
#     4  11  22  40  64  92 132 170 214 267 322 391
#
# _framework density 20.192820999999999
#
# number of rings (size 3 to 8) (size 9 to 14) (size 15 to 20)
#    0.000    1.268    3.902    2.195    1.366    3.512 
#    0.000    0.976    0.000    0.000    0.000    0.000 
#    0.000    0.000    0.000    0.000    0.000    0.000 
#
# Total GULP energy -228471.109486 kJ/mol
# GULP energy per Si atom -5572.466085 kJ/mol
# Density = 2.014686 g / cm^3
# Si number density = 20.192821 Si / 1000 Ang^3
#
#
#
# Elastic Constant Matrix: (Units=GPa)
#
#
# Indices 1 2 3 4 5 6 
#
# 1 120.2768 25.4423 75.1388 0.0000 0.0000 0.0000
# 2 25.4423 68.4303 28.3384 0.0000 0.0000 0.0000
# 3 75.1388 28.3384 175.6892 0.0000 0.0000 0.0000
# 4 0.0000 0.0000 0.0000 30.4385 0.0000 0.0000
# 5 0.0000 0.0000 0.0000 0.0000 8.3088 0.0000
# 6 0.0000 0.0000 0.0000 0.0000 0.0000 13.9299
#
#
#
# Elastic Compliance Matrix: (Units=1/GPa)
#
#
# Indices 1 2 3 4 5 6 
#
# 1 0.011715 -0.002444 -0.004616 0.000000 0.000000 0.000000
# 2 -0.002444 0.016169 -0.001563 0.000000 0.000000 0.000000
# 3 -0.004616 -0.001563 0.007918 0.000000 0.000000 0.000000
# 4 0.000000 0.000000 0.000000 0.032853 0.000000 0.000000
# 5 0.000000 0.000000 0.000000 0.000000 0.120354 0.000000
# 6 0.000000 0.000000 0.000000 0.000000 0.000000 0.071788
#
#
# Mechanical properties :
#
#
# Convention : Reuss Voigt Hill
#
# Bulk Modulus (GPa) = 53.88917 69.13726 61.51321
# Shear Modulus (GPa) = 17.59148 26.23389 21.91269
#
# Velocity S-wave (km/s) = 2.95477 3.60831 3.29777
# Velocity P-wave (km/s) = 6.19565 7.18837 6.71040
#
# Compressibility (1/GPa) = 0.01855661
#
# Stress axis : x y z
#
# Youngs Moduli (GPa) = 85.36209 61.84571 126.29259
#
# Poissons Ratio (x) = 0.15115 0.58296
# Poissons Ratio (y) = 0.20862 0.19738
# Poissons Ratio (z) = 0.39403 0.09666
#
# Static dielectric constant tensor:
#      x y z
#    x 1.746730 0.000000 0.000000 
#    y 0.000000 1.743710 0.000000 
#    z 0.000000 0.000000 1.746970 
# 
# From -- ./inp_files/65138.got.cif
#   From: 2010.05.17/outbox.cif.g08.bks.cpg/sg65_33_cif.got.tgz:65138.got - 2010.06.03 17:01:31.
