data_PCOD9484023
_publ_section_title
;
Structure prediction by ZEFSAII (Michael W. Deem and Ramdas Pophale) SiO2 
 PCOD9484023
Probable space group: C M M M
;
_chemical_formula_sum "Si O2"
_cell_formula_units_Z 112
_cell_length_a 24.779130
_cell_length_b 14.009852
_cell_length_c 14.119050
_cell_angle_alpha 90.000000
_cell_angle_beta 90.000000
_cell_angle_gamma 90.000000
_cell_volume 4901.455655
_symmetry_space_group_name_H-M "C M M M"
_symmetry_group_IT_number 65
_symmetry_cell_setting 'orthorhombic'
loop_
_space_group_symop_operation_xyz
x,y,z
-x,-y,z
x,-y,-z
-x,y,-z
-x,-y,-z
x,y,-z
-x,y,z
x,-y,z
1/2+x,1/2+y,z
1/2-x,1/2-y,z
1/2+x,1/2-y,-z
1/2-x,1/2+y,-z
1/2-x,1/2-y,-z
1/2+x,1/2+y,-z
1/2-x,1/2+y,z
1/2+x,1/2-y,z
loop_
_atom_site_type_symbol
_atom_site_label
_atom_site_fract_x
_atom_site_fract_y
_atom_site_fract_z
Si Si1 0.058281 0.614622 0.338466
Si Si2 0.728242 0.357440 0.607025
Si Si3 0.155525 0.110398 0.886242
Si Si4 0.778619 0.616996 0.107601
Si Si5 0.395137 0.613470 0.389151
Si Si6 0.059203 0.218036 0.786390
Si Si7 0.666479 0.894158 0.712630
O O1 0.054768 0.500000 0.343841
O O2 0.059731 0.668240 0.236121
O O3 0.121007 0.640532 0.362838
O O4 0.000000 0.646505 0.380970
O O5 0.726943 0.394177 0.500000
O O6 0.750000 0.250000 0.604911
O O7 0.667092 0.366866 0.641776
O O8 0.775313 0.403716 0.666217
O O9 0.217048 0.141841 0.865040
O O10 0.107493 0.174268 0.846226
O O11 0.149044 0.000000 0.852551
O O12 0.152609 0.108869 0.000000
O O13 0.779570 0.500000 0.106602
O O14 0.819852 0.653881 0.187027
O O15 0.790055 0.648681 0.000000
O O16 0.400897 0.640902 0.500000
O O17 0.404677 0.500000 0.382439
O O18 0.432972 0.670743 0.317867
O O19 0.000000 0.193349 0.824461
O O20 0.647391 0.000000 0.738588
#
# Coordination Sequence:
#
# PCOD9484023 Si02
#       7
#    16  16  16  16  16  16  16
#     4   9  20  39  59  79 105 139 182 234 287 329
#     4  10  20  33  51  77 109 144 181 219 260 312
#     4   9  18  33  53  80 116 149 175 214 267 321
#     4   8  15  29  50  78 110 141 172 207 255 318
#     4  10  21  36  54  81 119 153 179 219 275 328
#     4  11  22  36  57  79 103 144 192 231 271 329
#     4  10  18  30  54  79  99 132 174 217 265 317
#
# _framework density 22.850355
#
# number of rings (size 3 to 8) (size 9 to 14) (size 15 to 20)
#    0.000    2.429    0.000    3.429    0.000    3.714 
#    0.000    2.143    0.000    7.286    0.000   13.000 
#    0.000    0.000    0.000    0.000    0.000    0.000 
#
# Total GULP energy -311957.151296 kJ/mol
# GULP energy per Si atom -5570.663416 kJ/mol
# Density = 2.279835 g / cm^3
# Si number density = 22.850355 Si / 1000 Ang^3
#
#
#
# Elastic Constant Matrix: (Units=GPa)
#
#
# Indices 1 2 3 4 5 6 
#
# 1 109.1334 -5.0094 23.6788 0.0000 0.0000 0.0000
# 2 -5.0094 79.0741 -3.6442 0.0000 0.0000 0.0000
# 3 23.6788 -3.6442 47.9275 0.0000 0.0000 0.0000
# 4 0.0000 0.0000 0.0000 13.8686 0.0000 0.0000
# 5 0.0000 0.0000 0.0000 0.0000 61.3676 0.0000
# 6 0.0000 0.0000 0.0000 0.0000 0.0000 21.6343
#
#
#
# Elastic Compliance Matrix: (Units=1/GPa)
#
#
# Indices 1 2 3 4 5 6 
#
# 1 0.010277 0.000419 -0.005046 0.000000 0.000000 0.000000
# 2 0.000419 0.012708 0.000759 0.000000 0.000000 0.000000
# 3 -0.005046 0.000759 0.023415 0.000000 0.000000 0.000000
# 4 0.000000 0.000000 0.000000 0.072105 0.000000 0.000000
# 5 0.000000 0.000000 0.000000 0.000000 0.016295 0.000000
# 6 0.000000 0.000000 0.000000 0.000000 0.000000 0.046223
#
#
# Mechanical properties :
#
#
# Convention : Reuss Voigt Hill
#
# Bulk Modulus (GPa) = 25.86311 29.57618 27.71964
# Shear Modulus (GPa) = 24.79578 34.11475 29.45526
#
# Velocity S-wave (km/s) = 3.29772 3.86808 3.59423
# Velocity P-wave (km/s) = 5.08360 5.73768 5.42051
#
# Compressibility (1/GPa) = 0.03866511
#
# Stress axis : x y z
#
# Youngs Moduli (GPa) = 97.30404 78.69136 42.70689
#
# Poissons Ratio (x) = -0.03293 0.21548
# Poissons Ratio (y) = -0.04072 -0.03243
# Poissons Ratio (z) = 0.49096 -0.05976
#
# Static dielectric constant tensor:
#      x y z
#    x 1.895080 0.000000 0.000000 
#    y 0.000000 2.115460 0.000000 
#    z 0.000000 0.000000 1.858150 
# 
# From -- ./inp_files/45733.got.cif
#   From: 2010.05.17/outbox.cif.g08.bks.cpg/sg65_23_cif.got.tgz:45733.got - 2010.06.03 17:01:31.
