data_PCOD9484276
_publ_section_title
;
Structure prediction by ZEFSAII (Michael W. Deem and Ramdas Pophale) SiO2 
 PCOD9484276
Probable space group: C M M M
;
_chemical_formula_sum "Si O2"
_cell_formula_units_Z 104
_cell_length_a 8.669629
_cell_length_b 24.399481
_cell_length_c 28.909008
_cell_angle_alpha 90.000000
_cell_angle_beta 90.000000
_cell_angle_gamma 90.000000
_cell_volume 6115.251051
_symmetry_space_group_name_H-M "C M M M"
_symmetry_group_IT_number 65
_symmetry_cell_setting 'orthorhombic'
loop_
_space_group_symop_operation_xyz
x,y,z
-x,-y,z
x,-y,-z
-x,y,-z
-x,-y,-z
x,y,-z
-x,y,z
x,-y,z
1/2+x,1/2+y,z
1/2-x,1/2-y,z
1/2+x,1/2-y,-z
1/2-x,1/2+y,-z
1/2-x,1/2-y,-z
1/2+x,1/2+y,-z
1/2-x,1/2+y,z
1/2+x,1/2-y,z
loop_
_atom_site_type_symbol
_atom_site_label
_atom_site_fract_x
_atom_site_fract_y
_atom_site_fract_z
Si Si1 0.322812 0.433576 0.000000
Si Si2 0.682024 0.387426 0.810670
Si Si3 0.181724 0.500000 0.656881
Si Si4 0.313819 0.188840 0.448517
Si Si5 0.184369 0.435992 0.098341
Si Si6 0.814916 0.311359 0.267984
Si Si7 0.188750 0.620777 0.640567
Si Si8 0.320534 0.500000 0.244927
O O1 0.240452 0.417750 0.952348
O O2 0.320938 0.500000 0.000000
O O3 0.500000 0.415431 0.000000
O O4 0.500000 0.376685 0.813687
O O5 0.750239 0.397608 0.861412
O O6 0.759174 0.341467 0.778608
O O7 0.704764 0.445543 0.784689
O O8 0.245238 0.558119 0.639816
O O9 0.208161 0.500000 0.711730
O O10 0.000000 0.500000 0.646211
O O11 0.268831 0.168831 0.500000
O O12 0.500000 0.190930 0.447179
O O13 0.250000 0.250000 0.443245
O O14 0.261708 0.152372 0.405501
O O15 0.236000 0.500000 0.105385
O O16 0.000000 0.435949 0.099985
O O17 0.750000 0.250000 0.271380
O O18 0.763785 0.347473 0.312642
O O19 0.000000 0.309356 0.268418
O O20 0.000000 0.619876 0.641321
O O21 0.500000 0.500000 0.260558
#
# Coordination Sequence:
#
# PCOD9484276 Si02
#       8
#     8  16   8  16  16  16  16   8
#     4   9  17  29  45  67 100 139 176 215 259 304
#     4  11  21  34  51  74 103 135 171 211 255 306
#     4  10  18  32  51  70  97 133 168 200 245 306
#     4   9  17  31  50  72  97 126 164 209 254 300
#     4  10  19  30  47  72 103 138 175 213 256 307
#     4  11  22  36  52  73 100 132 169 210 257 305
#     4   9  18  31  50  74  99 129 165 205 249 302
#     4  10  20  32  48  72 102 131 168 210 250 296
#
# _framework density 17.00666
#
# number of rings (size 3 to 8) (size 9 to 14) (size 15 to 20)
#    0.000    2.077    2.308    2.077    0.000    2.154 
#    0.000    1.923    0.000    2.308    0.000    0.538 
#    0.000    3.077    0.000    0.000    0.000    0.000 
#
# Total GULP energy -290014.660554 kJ/mol
# GULP energy per Si atom -5577.205011 kJ/mol
# Density = 1.696795 g / cm^3
# Si number density = 17.006660 Si / 1000 Ang^3
#
#
#
# Elastic Constant Matrix: (Units=GPa)
#
#
# Indices 1 2 3 4 5 6 
#
# 1 30.6579 29.5270 35.6880 0.0000 0.0000 0.0000
# 2 29.5270 110.3913 73.5703 0.0000 0.0000 0.0000
# 3 35.6880 73.5703 158.4984 0.0000 0.0000 0.0000
# 4 0.0000 0.0000 0.0000 12.1852 0.0000 0.0000
# 5 0.0000 0.0000 0.0000 0.0000 16.4038 0.0000
# 6 0.0000 0.0000 0.0000 0.0000 0.0000 19.5590
#
#
#
# Elastic Compliance Matrix: (Units=1/GPa)
#
#
# Indices 1 2 3 4 5 6 
#
# 1 0.048975 -0.008326 -0.007163 0.000000 0.000000 0.000000
# 2 -0.008326 0.014532 -0.004870 0.000000 0.000000 0.000000
# 3 -0.007163 -0.004870 0.010183 0.000000 0.000000 0.000000
# 4 0.000000 0.000000 0.000000 0.082067 0.000000 0.000000
# 5 0.000000 0.000000 0.000000 0.000000 0.060961 0.000000
# 6 0.000000 0.000000 0.000000 0.000000 0.000000 0.051127
#
#
# Mechanical properties :
#
#
# Convention : Reuss Voigt Hill
#
# Bulk Modulus (GPa) = 30.32986 64.12424 47.22705
# Shear Modulus (GPa) = 15.64685 20.34708 17.99697
#
# Velocity S-wave (km/s) = 3.03651 3.46268 3.25657
# Velocity P-wave (km/s) = 5.49242 7.33308 6.47846
#
# Compressibility (1/GPa) = 0.03297081
#
# Stress axis : x y z
#
# Youngs Moduli (GPa) = 20.41876 68.81556 98.20604
#
# Poissons Ratio (x) = 0.57296 0.70341
# Poissons Ratio (y) = 0.17001 0.47831
# Poissons Ratio (z) = 0.14625 0.33516
#
# Static dielectric constant tensor:
#      x y z
#    x 1.579220 0.000000 0.000000 
#    y 0.000000 1.566630 0.000000 
#    z 0.000000 0.000000 1.571390 
# 
# From -- ./inp_files/73611.got.cif
#   From: 2010.05.17/outbox.cif.g08.bks.cpg/sg65_37_cif.got.tgz:73611.got - 2010.06.03 17:01:31.
