data_PCOD9484123
_publ_section_title
;
Structure prediction by ZEFSAII (Michael W. Deem and Ramdas Pophale) SiO2 
 PCOD9484123
Probable space group: C M M M
;
_chemical_formula_sum "Si O2"
_cell_formula_units_Z 88
_cell_length_a 26.062128
_cell_length_b 21.549500
_cell_length_c 7.491320
_cell_angle_alpha 90.000000
_cell_angle_beta 90.000000
_cell_angle_gamma 90.000000
_cell_volume 4207.318793
_symmetry_space_group_name_H-M "C M M M"
_symmetry_group_IT_number 65
_symmetry_cell_setting 'orthorhombic'
loop_
_space_group_symop_operation_xyz
x,y,z
-x,-y,z
x,-y,-z
-x,y,-z
-x,-y,-z
x,y,-z
-x,y,z
x,-y,z
1/2+x,1/2+y,z
1/2-x,1/2-y,z
1/2+x,1/2-y,-z
1/2-x,1/2+y,-z
1/2-x,1/2-y,-z
1/2+x,1/2+y,-z
1/2-x,1/2+y,z
1/2+x,1/2-y,z
loop_
_atom_site_type_symbol
_atom_site_label
_atom_site_fract_x
_atom_site_fract_y
_atom_site_fract_z
Si Si1 0.389465 0.570195 0.712004
Si Si2 0.693791 0.329719 0.717616
Si Si3 0.500000 0.628995 0.786952
Si Si4 0.808513 0.313235 0.284183
Si Si5 0.500000 0.770872 0.781715
Si Si6 0.561035 0.000000 0.203978
Si Si7 0.584219 0.132636 0.206864
O O1 0.380297 0.566681 0.500000
O O2 0.384097 0.500000 0.783831
O O3 0.348099 0.620581 0.781741
O O4 0.447567 0.594447 0.734755
O O5 0.692286 0.330229 0.500000
O O6 0.753119 0.339768 0.770919
O O7 0.683945 0.258472 0.772608
O O8 0.500000 0.699996 0.717928
O O9 0.500000 0.631309 0.000000
O O10 0.808962 0.313319 0.500000
O O11 0.856645 0.350825 0.217019
O O12 0.549324 0.811056 0.722729
O O13 0.500000 0.766870 0.000000
O O14 0.575927 0.934800 0.290050
O O15 0.500000 0.000000 0.192681
O O16 0.582719 0.000000 0.000000
O O17 0.567642 0.126787 0.000000
#
# Coordination Sequence:
#
# PCOD9484123 Si02
#       7
#    16  16   8  16   8   8  16
#     4  10  20  35  54  73  95 129 172 204 228 281
#     4   8  16  33  54  73  97 131 166 199 240 291
#     4  11  22  34  50  76 105 128 153 198 258 298
#     4   9  17  32  53  75 100 128 160 202 251 292
#     4   9  18  31  50  74  99 128 165 204 238 287
#     4   9  16  30  51  69  93 135 173 196 231 288
#     4  10  18  31  51  74  98 128 168 205 238 285
#
# _framework density 20.915932999999999
#
# number of rings (size 3 to 8) (size 9 to 14) (size 15 to 20)
#    0.000    2.636    0.909    2.727    0.000    1.455 
#    1.636    4.545    0.000    0.545    0.000    0.000 
#    0.000    0.000    0.000    0.000    0.000    0.000 
#
# Total GULP energy -245470.483903 kJ/mol
# GULP energy per Si atom -5578.874634 kJ/mol
# Density = 2.086833 g / cm^3
# Si number density = 20.915933 Si / 1000 Ang^3
#
#
#
# Elastic Constant Matrix: (Units=GPa)
#
#
# Indices 1 2 3 4 5 6 
#
# 1 157.0921 98.9203 -4.9767 0.0000 0.0000 0.0000
# 2 98.9203 162.3813 5.6002 0.0000 0.0000 0.0000
# 3 -4.9767 5.6002 57.7008 0.0000 0.0000 0.0000
# 4 0.0000 0.0000 0.0000 -0.8528 0.0000 0.0000
# 5 0.0000 0.0000 0.0000 0.0000 15.6202 0.0000
# 6 0.0000 0.0000 0.0000 0.0000 0.0000 14.8399
#
#
#
# Elastic Compliance Matrix: (Units=1/GPa)
#
#
# Indices 1 2 3 4 5 6 
#
# 1 0.010459 -0.006424 0.001526 0.000000 0.000000 0.000000
# 2 -0.006424 0.010125 -0.001537 0.000000 0.000000 0.000000
# 3 0.001526 -0.001537 0.017612 0.000000 0.000000 0.000000
# 4 0.000000 0.000000 0.000000 -1.172600 0.000000 0.000000
# 5 0.000000 0.000000 0.000000 0.000000 0.064020 0.000000
# 6 0.000000 0.000000 0.000000 0.000000 0.000000 0.067386
#
#
# Mechanical properties :
#
#
# Convention : Reuss Voigt Hill
#
# Bulk Modulus (GPa) = 39.48680 64.02910 51.75795
# Shear Modulus (GPa) = -5.09328 24.43015 9.66844
#
# Velocity S-wave (km/s) = -1.56218 3.42133 2.15234
# Velocity P-wave (km/s) = 3.95802 6.80341 5.56562
#
# Compressibility (1/GPa) = 0.02532492
#
# Stress axis : x y z
#
# Youngs Moduli (GPa) = 95.60779 98.76591 56.78103
#
# Poissons Ratio (x) = 0.63450 -0.08663
# Poissons Ratio (y) = 0.61422 0.08726
# Poissons Ratio (z) = -0.14586 0.15178
#
# Static dielectric constant tensor:
#      x y z
#    x 1.711700 0.000000 0.000000 
#    y 0.000000 1.758540 0.000000 
#    z 0.000000 0.000000 1.830950 
# 
# From -- ./inp_files/14080.got.cif
#   From: 2010.05.17/outbox.cif.g08.bks.cpg/sg65_8_cif.got.tgz:14080.got - 2010.06.03 17:01:31.
