data_PCOD9484177
_publ_section_title
;
Structure prediction by ZEFSAII (Michael W. Deem and Ramdas Pophale) SiO2 
 PCOD9484177
Probable space group: C M M M
;
_chemical_formula_sum "Si O2"
_cell_formula_units_Z 128
_cell_length_a 20.389207
_cell_length_b 19.644173
_cell_length_c 18.661746
_cell_angle_alpha 90.000000
_cell_angle_beta 90.000000
_cell_angle_gamma 90.000000
_cell_volume 7474.572510
_symmetry_space_group_name_H-M "C M M M"
_symmetry_group_IT_number 65
_symmetry_cell_setting 'orthorhombic'
loop_
_space_group_symop_operation_xyz
x,y,z
-x,-y,z
x,-y,-z
-x,y,-z
-x,-y,-z
x,y,-z
-x,y,z
x,-y,z
1/2+x,1/2+y,z
1/2-x,1/2-y,z
1/2+x,1/2-y,-z
1/2-x,1/2+y,-z
1/2-x,1/2-y,-z
1/2+x,1/2+y,-z
1/2-x,1/2+y,z
1/2+x,1/2-y,z
loop_
_atom_site_type_symbol
_atom_site_label
_atom_site_fract_x
_atom_site_fract_y
_atom_site_fract_z
Si Si1 0.572918 0.884784 0.414827
Si Si2 0.196726 0.426194 0.328301
Si Si3 0.168215 0.423922 0.842546
Si Si4 0.576054 0.200389 0.159310
Si Si5 0.926476 0.250383 0.676858
Si Si6 0.185917 0.920956 0.835000
Si Si7 0.293214 0.682714 0.703839
Si Si8 0.075899 0.843804 0.914581
O O1 0.580856 0.886051 0.500000
O O2 0.500000 0.912046 0.397543
O O3 0.631743 0.921935 0.375279
O O4 0.574734 0.808382 0.383306
O O5 0.228584 0.500000 0.338375
O O6 0.176639 0.421149 0.244377
O O7 0.245413 0.364120 0.343795
O O8 0.144184 0.500000 0.860478
O O9 0.121510 0.362200 0.862577
O O10 0.242291 0.415759 0.871314
O O11 0.500000 0.185203 0.143822
O O12 0.581392 0.214409 0.244732
O O13 0.593384 0.270617 0.119717
O O14 0.862257 0.204200 0.669650
O O15 0.000000 0.218728 0.676659
O O16 0.189049 0.866047 0.770758
O O17 0.125908 0.899343 0.884597
O O18 0.179824 0.000000 0.811331
O O19 0.250000 0.750000 0.723627
O O20 0.000000 0.858103 0.894204
O O21 0.079492 0.839813 0.000000
#
# Coordination Sequence:
#
# PCOD9484177 Si02
#       8
#    16  16  16  16  16  16  16  16
#     4  10  20  34  52  78 114 150 182 221 272 328
#     4  10  20  33  49  75 109 144 181 223 269 318
#     4   9  18  32  51  77 108 139 176 224 270 314
#     4  10  18  32  55  79 105 139 182 227 264 313
#     4  10  18  31  52  78 105 137 182 229 268 312
#     4  10  21  34  52  79 110 140 174 219 266 318
#     4  11  18  32  57  80 102 142 183 224 271 314
#     4  10  22  38  56  80 108 141 180 223 273 326
#
# _framework density 17.124725000000002
#
# number of rings (size 3 to 8) (size 9 to 14) (size 15 to 20)
#    0.000    2.000    3.750    1.875    0.000    1.250 
#    0.000    5.000    0.000    2.250    0.000    1.750 
#    0.000    0.000    0.000   13.625    0.000    0.000 
#
# Total GULP energy -356619.022179 kJ/mol
# GULP energy per Si atom -5572.172222 kJ/mol
# Density = 1.708575 g / cm^3
# Si number density = 17.124725 Si / 1000 Ang^3
#
#
#
# Elastic Constant Matrix: (Units=GPa)
#
#
# Indices 1 2 3 4 5 6 
#
# 1 114.5327 73.3285 24.2613 0.0000 0.0000 0.0000
# 2 73.3285 111.5847 15.1400 0.0000 0.0000 0.0000
# 3 24.2613 15.1400 27.4428 0.0000 0.0000 0.0000
# 4 0.0000 0.0000 0.0000 -108.4096 0.0000 0.0000
# 5 0.0000 0.0000 0.0000 0.0000 18.9868 0.0000
# 6 0.0000 0.0000 0.0000 0.0000 0.0000 23.6057
#
#
#
# Elastic Compliance Matrix: (Units=1/GPa)
#
#
# Indices 1 2 3 4 5 6 
#
# 1 0.017160 -0.009964 -0.009673 0.000000 0.000000 0.000000
# 2 -0.009964 0.015473 0.000273 0.000000 0.000000 0.000000
# 3 -0.009673 0.000273 0.044841 0.000000 0.000000 0.000000
# 4 0.000000 0.000000 0.000000 -0.009224 0.000000 0.000000
# 5 0.000000 0.000000 0.000000 0.000000 0.052668 0.000000
# 6 0.000000 0.000000 0.000000 0.000000 0.000000 0.042363
#
#
# Mechanical properties :
#
#
# Convention : Reuss Voigt Hill
#
# Bulk Modulus (GPa) = 25.81043 53.22441 39.51742
# Shear Modulus (GPa) = 23.26414 -3.77474 9.74470
#
# Velocity S-wave (km/s) = 3.68980 -1.48629 2.38805
# Velocity P-wave (km/s) = 5.76694 5.31061 5.54347
#
# Compressibility (1/GPa) = 0.03874402
#
# Stress axis : x y z
#
# Youngs Moduli (GPa) = 58.27662 64.62986 22.30121
#
# Poissons Ratio (x) = 0.64397 0.21572
# Poissons Ratio (y) = 0.58067 -0.00608
# Poissons Ratio (z) = 0.56372 -0.01762
#
# Static dielectric constant tensor:
#      x y z
#    x 1.611360 0.000000 0.000000 
#    y 0.000000 1.590600 0.000000 
#    z 0.000000 0.000000 1.562510 
# 
# From -- ./inp_files/64887.got.cif
#   From: 2010.05.17/outbox.cif.g08.bks.cpg/sg65_33_cif.got.tgz:64887.got - 2010.06.03 17:01:31.
