data_PCOD9484085
_publ_section_title
;
Structure prediction by ZEFSAII (Michael W. Deem and Ramdas Pophale) SiO2 
 PCOD9484085
Probable space group: C M M M
;
_chemical_formula_sum "Si O2"
_cell_formula_units_Z 90
_cell_length_a 30.384524
_cell_length_b 19.749053
_cell_length_c 8.289500
_cell_angle_alpha 90.000000
_cell_angle_beta 90.000000
_cell_angle_gamma 90.000000
_cell_volume 4974.243583
_symmetry_space_group_name_H-M "C M M M"
_symmetry_group_IT_number 65
_symmetry_cell_setting 'orthorhombic'
loop_
_space_group_symop_operation_xyz
x,y,z
-x,-y,z
x,-y,-z
-x,y,-z
-x,-y,-z
x,y,-z
-x,y,z
x,-y,z
1/2+x,1/2+y,z
1/2-x,1/2-y,z
1/2+x,1/2-y,-z
1/2-x,1/2+y,-z
1/2-x,1/2-y,-z
1/2+x,1/2+y,-z
1/2-x,1/2+y,z
1/2+x,1/2-y,z
loop_
_atom_site_type_symbol
_atom_site_label
_atom_site_fract_x
_atom_site_fract_y
_atom_site_fract_z
Si Si1 0.500000 0.358699 0.323686
Si Si2 0.765796 0.645750 0.302936
Si Si3 0.679558 0.726872 0.694255
Si Si4 0.500000 0.500000 0.500000
Si Si5 0.894767 0.500000 0.195742
Si Si6 0.705237 0.000000 0.305840
Si Si7 0.949427 0.368822 0.802941
Si Si8 0.918103 0.221174 0.808113
O O1 0.500000 0.324667 0.500000
O O2 0.500000 0.438711 0.361714
O O3 0.455604 0.332232 0.240754
O O4 0.766179 0.645565 0.500000
O O5 0.718864 0.676792 0.253575
O O6 0.804254 0.698164 0.252492
O O7 0.773692 0.569858 0.245205
O O8 0.679252 0.726996 0.500000
O O9 0.631323 0.706781 0.751045
O O10 0.845765 0.500000 0.261506
O O11 0.920248 0.567651 0.248781
O O12 0.893613 0.500000 0.000000
O O13 0.709645 0.000000 0.500000
O O14 0.931580 0.296142 0.747094
O O15 0.000000 0.377196 0.753379
O O16 0.948918 0.368264 0.000000
O O17 0.917731 0.224351 0.000000
#
# Coordination Sequence:
#
# PCOD9484085 Si02
#       8
#     8  16  16   2   8   8  16  16
#     4  10  21  41  63  82 104 135 171 221 258 323
#     4   8  16  31  51  72 100 141 187 229 271 315
#     4   9  17  32  52  75 104 141 184 226 266 319
#     4   8  24  44  66  80 100 122 178 220 260 332
#     4  10  19  30  48  73 105 149 193 222 251 299
#     4  10  18  31  50  70  97 133 175 222 274 316
#     4   9  17  30  48  73 106 147 187 218 251 304
#     4  11  20  33  56  86 114 140 174 221 279 328
#
# _framework density 18.093202999999999
#
# number of rings (size 3 to 8) (size 9 to 14) (size 15 to 20)
#    0.267    2.311    0.889    3.200    0.000    1.067 
#    0.000    5.333    1.956    0.533    0.000    0.000 
#    0.000    0.000    0.000    0.000    0.000    0.000 
#
# Total GULP energy -250564.989262 kJ/mol
# GULP energy per Si atom -5568.110872 kJ/mol
# Density = 1.805202 g / cm^3
# Si number density = 18.093203 Si / 1000 Ang^3
#
#
#
# Elastic Constant Matrix: (Units=GPa)
#
#
# Indices 1 2 3 4 5 6 
#
# 1 142.9719 89.4238 16.4582 0.0000 0.0000 0.0000
# 2 89.4238 156.2357 13.8108 0.0000 0.0000 0.0000
# 3 16.4582 13.8108 12.7968 0.0000 0.0000 0.0000
# 4 0.0000 0.0000 0.0000 13.6837 0.0000 0.0000
# 5 0.0000 0.0000 0.0000 0.0000 37.2713 0.0000
# 6 0.0000 0.0000 0.0000 0.0000 0.0000 28.7226
#
#
#
# Elastic Compliance Matrix: (Units=1/GPa)
#
#
# Indices 1 2 3 4 5 6 
#
# 1 0.011700 -0.005933 -0.008645 0.000000 0.000000 0.000000
# 2 -0.005933 0.010084 -0.003253 0.000000 0.000000 0.000000
# 3 -0.008645 -0.003253 0.092774 0.000000 0.000000 0.000000
# 4 0.000000 0.000000 0.000000 0.073080 0.000000 0.000000
# 5 0.000000 0.000000 0.000000 0.000000 0.026830 0.000000
# 6 0.000000 0.000000 0.000000 0.000000 0.000000 0.034816
#
#
# Mechanical properties :
#
#
# Convention : Reuss Voigt Hill
#
# Bulk Modulus (GPa) = 12.67477 61.26557 36.97017
# Shear Modulus (GPa) = 16.06457 28.75628 22.41043
#
# Velocity S-wave (km/s) = 2.98296 3.99098 3.52321
# Velocity P-wave (km/s) = 4.34564 7.42777 6.08508
#
# Compressibility (1/GPa) = 0.07889690
#
# Stress axis : x y z
#
# Youngs Moduli (GPa) = 85.46880 99.16985 10.77887
#
# Poissons Ratio (x) = 0.58833 0.09319
# Poissons Ratio (y) = 0.50705 0.03506
# Poissons Ratio (z) = 0.73890 0.32258
#
# Static dielectric constant tensor:
#      x y z
#    x 1.640340 0.000000 0.000000 
#    y 0.000000 1.624160 0.000000 
#    z 0.000000 0.000000 1.635120 
# 
# From -- ./inp_files/18592.got.cif
#   From: 2010.05.17/outbox.cif.g08.bks.cpg/sg65_10_cif.got.tgz:18592.got - 2010.06.03 17:01:31.
