data_PCOD9484240
_publ_section_title
;
Structure prediction by ZEFSAII (Michael W. Deem and Ramdas Pophale) SiO2 
 PCOD9484240
Probable space group: C M M M
;
_chemical_formula_sum "Si O2"
_cell_formula_units_Z 72
_cell_length_a 19.640801
_cell_length_b 23.545378
_cell_length_c 7.410728
_cell_angle_alpha 90.000000
_cell_angle_beta 90.000000
_cell_angle_gamma 90.000000
_cell_volume 3427.091784
_symmetry_space_group_name_H-M "C M M M"
_symmetry_group_IT_number 65
_symmetry_cell_setting 'orthorhombic'
loop_
_space_group_symop_operation_xyz
x,y,z
-x,-y,z
x,-y,-z
-x,y,-z
-x,-y,-z
x,y,-z
-x,y,z
x,-y,z
1/2+x,1/2+y,z
1/2-x,1/2-y,z
1/2+x,1/2-y,-z
1/2-x,1/2+y,-z
1/2-x,1/2-y,-z
1/2+x,1/2+y,-z
1/2-x,1/2+y,z
1/2+x,1/2-y,z
loop_
_atom_site_type_symbol
_atom_site_label
_atom_site_fract_x
_atom_site_fract_y
_atom_site_fract_z
Si Si1 0.825795 0.230182 0.279857
Si Si2 0.576696 0.500000 0.786040
Si Si3 0.827035 0.436041 0.720563
Si Si4 0.578054 0.832297 0.720465
Si Si5 0.322042 0.397341 0.713940
O O1 0.827159 0.230709 0.500000
O O2 0.750000 0.250000 0.227462
O O3 0.881042 0.276289 0.221042
O O4 0.838294 0.165776 0.217635
O O5 0.500000 0.500000 0.710720
O O6 0.619942 0.555830 0.738252
O O7 0.571472 0.500000 0.000000
O O8 0.826505 0.435959 0.500000
O O9 0.843846 0.500000 0.777302
O O10 0.880135 0.388009 0.777087
O O11 0.750832 0.419742 0.782136
O O12 0.578102 0.832246 0.500000
O O13 0.500000 0.832742 0.779076
O O14 0.312566 0.390852 0.500000
#
# Coordination Sequence:
#
# PCOD9484240 Si02
#       5
#    16   8  16  16  16
#     4   9  15  25  44  71 102 135 166 204 254 299
#     4  11  25  41  53  71 104 137 164 210 273 315
#     4   9  15  24  41  66  94 127 165 201 240 286
#     4   9  16  24  35  60 101 137 161 195 248 300
#     4  10  18  31  55  79  98 129 173 212 247 300
#
# _framework density 21.009067999999999
#
# number of rings (size 3 to 8) (size 9 to 14) (size 15 to 20)
#    0.000    2.556    3.333    0.333    0.000    2.222 
#    0.000    4.444    0.000    0.667    0.000    0.000 
#    0.000    1.778    0.000    0.000    0.000    0.000 
#
# Total GULP energy -201052.493194 kJ/mol
# GULP energy per Si atom -5584.791478 kJ/mol
# Density = 2.096125 g / cm^3
# Si number density = 21.009068 Si / 1000 Ang^3
#
#
#
# Elastic Constant Matrix: (Units=GPa)
#
#
# Indices 1 2 3 4 5 6 
#
# 1 212.8382 140.3579 -1.7432 0.0000 0.0000 0.0000
# 2 140.3579 263.5014 2.3635 0.0000 0.0000 0.0000
# 3 -1.7432 2.3635 65.5197 0.0000 0.0000 0.0000
# 4 0.0000 0.0000 0.0000 -141.4811 0.0000 0.0000
# 5 0.0000 0.0000 0.0000 0.0000 91.6819 0.0000
# 6 0.0000 0.0000 0.0000 0.0000 0.0000 36.3719
#
#
#
# Elastic Compliance Matrix: (Units=1/GPa)
#
#
# Indices 1 2 3 4 5 6 
#
# 1 0.007250 -0.003865 0.000332 0.000000 0.000000 0.000000
# 2 -0.003865 0.005856 -0.000314 0.000000 0.000000 0.000000
# 3 0.000332 -0.000314 0.015283 0.000000 0.000000 0.000000
# 4 0.000000 0.000000 0.000000 -0.007068 0.000000 0.000000
# 5 0.000000 0.000000 0.000000 0.000000 0.010907 0.000000
# 6 0.000000 0.000000 0.000000 0.000000 0.000000 0.027494
#
#
# Mechanical properties :
#
#
# Convention : Reuss Voigt Hill
#
# Bulk Modulus (GPa) = 48.31846 91.53508 69.92677
# Shear Modulus (GPa) = 67.28262 24.03993 45.66127
#
# Velocity S-wave (km/s) = 5.66525 3.38637 4.66704
# Velocity P-wave (km/s) = 8.11432 7.67814 7.89924
#
# Compressibility (1/GPa) = 0.02069602
#
# Stress axis : x y z
#
# Youngs Moduli (GPa) = 137.93683 170.75274 65.43319
#
# Poissons Ratio (x) = 0.65990 -0.02174
# Poissons Ratio (y) = 0.53308 0.02055
# Poissons Ratio (z) = -0.04583 0.05363
#
# Static dielectric constant tensor:
#      x y z
#    x 1.708870 0.000000 0.000000 
#    y 0.000000 1.596800 0.000000 
#    z 0.000000 0.000000 1.797270 
# 
# From -- ./inp_files/9260.got.cif
#   From: 2010.05.17/outbox.cif.g08.bks.cpg/sg65_5_cif.got.tgz:9260.got - 2010.06.03 17:01:31.
