data_PCOD9484481
_publ_section_title
;
Structure prediction by ZEFSAII (Michael W. Deem and Ramdas Pophale) SiO2 
 PCOD9484481
Probable space group: C M M M
;
_chemical_formula_sum "Si O2"
_cell_formula_units_Z 88
_cell_length_a 27.742152
_cell_length_b 9.875028
_cell_length_c 17.172111
_cell_angle_alpha 90.000000
_cell_angle_beta 90.000000
_cell_angle_gamma 90.000000
_cell_volume 4704.377560
_symmetry_space_group_name_H-M "C M M M"
_symmetry_group_IT_number 65
_symmetry_cell_setting 'orthorhombic'
loop_
_space_group_symop_operation_xyz
x,y,z
-x,-y,z
x,-y,-z
-x,y,-z
-x,-y,-z
x,y,-z
-x,y,z
x,-y,z
1/2+x,1/2+y,z
1/2-x,1/2-y,z
1/2+x,1/2-y,-z
1/2-x,1/2+y,-z
1/2-x,1/2-y,-z
1/2+x,1/2+y,-z
1/2-x,1/2+y,z
1/2+x,1/2-y,z
loop_
_atom_site_type_symbol
_atom_site_label
_atom_site_fract_x
_atom_site_fract_y
_atom_site_fract_z
Si Si1 0.557443 0.000000 0.592867
Si Si2 0.092736 0.000000 0.914396
Si Si3 0.853850 0.500000 0.909835
Si Si4 0.898657 0.279481 0.298146
Si Si5 0.944688 0.000000 0.258956
Si Si6 0.205398 0.158046 0.258184
Si Si7 0.320548 0.708253 0.090225
Si Si8 0.057415 0.500000 0.817343
O O1 0.585670 0.130347 0.627721
O O2 0.500000 0.000000 0.618026
O O3 0.558033 0.000000 0.500000
O O4 0.063428 0.000000 0.834779
O O5 0.128590 0.128850 0.911267
O O6 0.068531 0.000000 0.000000
O O7 0.829628 0.638009 0.883701
O O8 0.910815 0.500000 0.894626
O O9 0.845517 0.500000 0.000000
O O10 0.922482 0.133538 0.295433
O O11 0.842786 0.241569 0.282827
O O12 0.922693 0.369984 0.229648
O O13 0.000000 0.000000 0.275177
O O14 0.250000 0.250000 0.284788
O O15 0.207798 0.148543 0.163275
O O16 0.204103 0.000000 0.285337
O O17 0.302398 0.697731 0.000000
O O18 0.000000 0.500000 0.824851
#
# Coordination Sequence:
#
# PCOD9484481 Si02
#       8
#     8   8   8  16   8  16  16   8
#     4  10  23  44  72 105 134 165 201 234 293 379
#     4  10  18  33  51  71 113 165 206 257 311 357
#     4  10  19  30  49  73 107 153 199 256 313 364
#     4  11  21  40  61  89 128 160 193 251 307 358
#     4  12  20  33  58  89 120 161 212 252 302 366
#     4  12  25  39  61  91 118 159 215 263 313 369
#     4  10  19  35  53  72 111 159 205 265 327 366
#     4  11  20  32  56  84 113 159 205 244 304 373
#
# _framework density 18.705981000000001
#
# number of rings (size 3 to 8) (size 9 to 14) (size 15 to 20)
#    0.000    1.182    5.455    2.182    3.818    0.727 
#    0.000    0.455    0.000    7.636    0.000    0.000 
#    0.000    0.000    0.000    0.000    0.000    0.000 
#
# Total GULP energy -245159.455610 kJ/mol
# GULP energy per Si atom -5571.805809 kJ/mol
# Density = 1.866341 g / cm^3
# Si number density = 18.705981 Si / 1000 Ang^3
#
#
#
# Elastic Constant Matrix: (Units=GPa)
#
#
# Indices 1 2 3 4 5 6 
#
# 1 136.2851 57.5664 17.0751 0.0000 0.0000 0.0000
# 2 57.5664 173.3076 28.4536 0.0000 0.0000 0.0000
# 3 17.0751 28.4536 54.4885 0.0000 0.0000 0.0000
# 4 0.0000 0.0000 0.0000 0.8774 0.0000 0.0000
# 5 0.0000 0.0000 0.0000 0.0000 0.8856 0.0000
# 6 0.0000 0.0000 0.0000 0.0000 0.0000 24.9348
#
#
#
# Elastic Compliance Matrix: (Units=1/GPa)
#
#
# Indices 1 2 3 4 5 6 
#
# 1 0.008621 -0.002647 -0.001319 0.000000 0.000000 0.000000
# 2 -0.002647 0.007124 -0.002891 0.000000 0.000000 0.000000
# 3 -0.001319 -0.002891 0.020275 0.000000 0.000000 0.000000
# 4 0.000000 0.000000 0.000000 1.139789 0.000000 0.000000
# 5 0.000000 0.000000 0.000000 0.000000 1.129203 0.000000
# 6 0.000000 0.000000 0.000000 0.000000 0.000000 0.040105
#
#
# Mechanical properties :
#
#
# Convention : Reuss Voigt Hill
#
# Bulk Modulus (GPa) = 44.83000 63.36349 54.09675
# Shear Modulus (GPa) = 2.11303 22.73862 12.42583
#
# Velocity S-wave (km/s) = 1.06398 3.49030 2.58014
# Velocity P-wave (km/s) = 5.05243 7.08448 6.15292
#
# Compressibility (1/GPa) = 0.02230649
#
# Stress axis : x y z
#
# Youngs Moduli (GPa) = 115.99694 140.37292 49.32085
#
# Poissons Ratio (x) = 0.37156 0.06507
# Poissons Ratio (y) = 0.30704 0.14257
# Poissons Ratio (z) = 0.15304 0.40576
#
# Static dielectric constant tensor:
#      x y z
#    x 1.663380 0.000000 0.000000 
#    y 0.000000 1.570260 0.000000 
#    z 0.000000 0.000000 1.649910 
# 
# From -- ./inp_files/58126.got.cif
#   From: 2010.05.17/outbox.cif.g08.bks.cpg/sg65_30_cif.got.tgz:58126.got - 2010.06.03 17:01:31.
