data_PCOD9484266
_publ_section_title
;
Structure prediction by ZEFSAII (Michael W. Deem and Ramdas Pophale) SiO2 
 PCOD9484266
Probable space group: C M M M
;
_chemical_formula_sum "Si O2"
_cell_formula_units_Z 76
_cell_length_a 25.422037
_cell_length_b 14.484023
_cell_length_c 10.810086
_cell_angle_alpha 90.000000
_cell_angle_beta 90.000000
_cell_angle_gamma 90.000000
_cell_volume 3980.418181
_symmetry_space_group_name_H-M "C M M M"
_symmetry_group_IT_number 65
_symmetry_cell_setting 'orthorhombic'
loop_
_space_group_symop_operation_xyz
x,y,z
-x,-y,z
x,-y,-z
-x,y,-z
-x,-y,-z
x,y,-z
-x,y,z
x,-y,z
1/2+x,1/2+y,z
1/2-x,1/2-y,z
1/2+x,1/2-y,-z
1/2-x,1/2+y,-z
1/2-x,1/2-y,-z
1/2+x,1/2+y,-z
1/2-x,1/2+y,z
1/2+x,1/2-y,z
loop_
_atom_site_type_symbol
_atom_site_label
_atom_site_fract_x
_atom_site_fract_y
_atom_site_fract_z
Si Si1 0.897887 0.678119 0.249436
Si Si2 0.664816 0.000000 0.146782
Si Si3 0.163552 0.111129 0.000000
Si Si4 0.925887 0.393961 0.500000
Si Si5 0.325604 0.000000 0.500000
Si Si6 0.261635 0.500000 0.299483
Si Si7 0.197370 0.810005 0.740118
Si Si8 0.060853 0.227145 0.000000
O O1 0.864212 0.588894 0.205555
O O2 0.934606 0.653811 0.367568
O O3 0.854598 0.753194 0.292323
O O4 0.926766 0.715279 0.125920
O O5 0.728028 0.000000 0.170980
O O6 0.656279 0.000000 0.000000
O O7 0.189871 0.159223 0.117828
O O8 0.102450 0.143040 0.000000
O O9 0.167184 0.000000 0.000000
O O10 0.945529 0.500000 0.500000
O O11 0.862898 0.411668 0.500000
O O12 0.288439 0.000000 0.614384
O O13 0.294500 0.408456 0.323678
O O14 0.250000 0.750000 0.723320
O O15 0.000000 0.199721 0.000000
#
# Coordination Sequence:
#
# PCOD9484266 Si02
#       8
#    16   8   8   8   4   8  16   8
#     4  11  21  37  59  81 114 154 191 237 289 340
#     4  12  20  32  52  80 109 152 193 224 283 338
#     4  10  21  36  57  84 116 148 189 245 295 337
#     4  10  18  35  59  82 112 154 198 230 276 344
#     4  10  18  32  50  72 113 160 201 218 256 322
#     4  12  22  32  48  78 118 163 196 238 260 327
#     4  11  21  32  49  82 120 158 196 231 273 322
#     4  10  24  43  62  87 111 140 190 244 308 370
#
# _framework density 19.093471000000001
#
# number of rings (size 3 to 8) (size 9 to 14) (size 15 to 20)
#    0.316    0.842    7.368    0.316    1.474    1.053 
#    0.000    3.684    0.000    0.632    0.000    0.000 
#    0.000    3.789    0.000    0.000    0.000    0.000 
#
# Total GULP energy -211866.579487 kJ/mol
# GULP energy per Si atom -5575.436302 kJ/mol
# Density = 1.905001 g / cm^3
# Si number density = 19.093471 Si / 1000 Ang^3
#
#
#
# Elastic Constant Matrix: (Units=GPa)
#
#
# Indices 1 2 3 4 5 6 
#
# 1 72.9750 23.5852 13.0920 0.0000 0.0000 0.0000
# 2 23.5852 111.2816 18.3815 0.0000 0.0000 0.0000
# 3 13.0920 18.3815 95.3407 0.0000 0.0000 0.0000
# 4 0.0000 0.0000 0.0000 19.6412 0.0000 0.0000
# 5 0.0000 0.0000 0.0000 0.0000 -23.7067 0.0000
# 6 0.0000 0.0000 0.0000 0.0000 0.0000 -13.4102
#
#
#
# Elastic Compliance Matrix: (Units=1/GPa)
#
#
# Indices 1 2 3 4 5 6 
#
# 1 0.014912 -0.002915 -0.001486 0.000000 0.000000 0.000000
# 2 -0.002915 0.009852 -0.001499 0.000000 0.000000 0.000000
# 3 -0.001486 -0.001499 0.010982 0.000000 0.000000 0.000000
# 4 0.000000 0.000000 0.000000 0.050913 0.000000 0.000000
# 5 0.000000 0.000000 0.000000 0.000000 -0.042182 0.000000
# 6 0.000000 0.000000 0.000000 0.000000 0.000000 -0.074570
#
#
# Mechanical properties :
#
#
# Convention : Reuss Voigt Hill
#
# Bulk Modulus (GPa) = 41.76110 43.30164 42.53137
# Shear Modulus (GPa) = -484.87024 11.47410 -236.69807
#
# Velocity S-wave (km/s) = -15.95296 2.45408 -11.14617
# Velocity P-wave (km/s) = 17.81600 5.54599 11.97188
#
# Compressibility (1/GPa) = 0.02394573
#
# Stress axis : x y z
#
# Youngs Moduli (GPa) = 67.06015 101.50578 91.06035
#
# Poissons Ratio (x) = 0.29590 0.13528
# Poissons Ratio (y) = 0.19548 0.13651
# Poissons Ratio (z) = 0.09963 0.15217
#
# Static dielectric constant tensor:
#      x y z
#    x 1.642300 0.000000 0.000000 
#    y 0.000000 1.679660 0.000000 
#    z 0.000000 0.000000 1.864550 
# 
# From -- ./inp_files/30498.got.cif
#   From: 2010.05.17/outbox.cif.g08.bks.cpg/sg65_16_cif.got.tgz:30498.got - 2010.06.03 17:01:31.
