data_PCOD9484854
_publ_section_title
;
Structure prediction by ZEFSAII (Michael W. Deem and Ramdas Pophale) SiO2 
 PCOD9484854
Probable space group: C M M M
;
_chemical_formula_sum "Si O2"
_cell_formula_units_Z 128
_cell_length_a 17.191609
_cell_length_b 17.200825
_cell_length_c 24.347479
_cell_angle_alpha 90.000000
_cell_angle_beta 90.000000
_cell_angle_gamma 90.000000
_cell_volume 7199.789555
_symmetry_space_group_name_H-M "C M M M"
_symmetry_group_IT_number 65
_symmetry_cell_setting 'orthorhombic'
loop_
_space_group_symop_operation_xyz
x,y,z
-x,-y,z
x,-y,-z
-x,y,-z
-x,-y,-z
x,y,-z
-x,y,z
x,-y,z
1/2+x,1/2+y,z
1/2-x,1/2-y,z
1/2+x,1/2-y,-z
1/2-x,1/2+y,-z
1/2-x,1/2-y,-z
1/2+x,1/2+y,-z
1/2-x,1/2+y,z
1/2+x,1/2-y,z
loop_
_atom_site_type_symbol
_atom_site_label
_atom_site_fract_x
_atom_site_fract_y
_atom_site_fract_z
Si Si1 0.321909 0.193931 0.865184
Si Si2 0.130088 0.088829 0.251722
Si Si3 0.277152 0.589474 0.936410
Si Si4 0.182586 0.410462 0.761318
Si Si5 0.239005 0.844579 0.438917
Si Si6 0.911229 0.157839 0.370517
Si Si7 0.912836 0.157093 0.137205
Si Si8 0.325620 0.806695 0.339418
O O1 0.250000 0.250000 0.846473
O O2 0.290076 0.148776 0.918132
O O3 0.336193 0.130569 0.818580
O O4 0.391998 0.253037 0.873826
O O5 0.223595 0.091159 0.246642
O O6 0.105669 0.116036 0.312331
O O7 0.097414 0.140400 0.202110
O O8 0.104560 0.000000 0.243130
O O9 0.253253 0.500000 0.928391
O O10 0.349437 0.607690 0.896407
O O11 0.298172 0.600714 0.000000
O O12 0.157784 0.500000 0.759235
O O13 0.151431 0.356718 0.712592
O O14 0.252885 0.875508 0.500000
O O15 0.250000 0.750000 0.442342
O O16 0.153177 0.864233 0.416152
O O17 0.297413 0.862424 0.389011
O O18 0.892409 0.248420 0.358789
O O19 0.000000 0.144815 0.386945
O O20 0.000000 0.137578 0.120710
O O21 0.250000 0.750000 0.326303
#
# Coordination Sequence:
#
# PCOD9484854 Si02
#       8
#    16  16  16  16  16  16  16  16
#     4  10  19  33  54  75 101 130 169 208 244 286
#     4  11  20  31  48  73 102 129 162 201 241 290
#     4  10  21  37  57  79 102 132 171 211 247 286
#     4  11  18  29  52  75  93 124 166 206 242 283
#     4   8  15  28  45  65  90 120 156 201 243 279
#     4  10  19  29  46  69  94 127 158 190 239 292
#     4  11  23  35  52  78 108 138 164 198 250 302
#     4   9  16  30  47  66  93 122 157 200 241 284
#
# _framework density 17.778296999999998
#
# number of rings (size 3 to 8) (size 9 to 14) (size 15 to 20)
#    0.000    2.250    5.000    2.250    0.000    4.500 
#    0.000    0.625    0.000    4.125    0.000    1.750 
#    0.000    0.000    0.000   12.500    0.000    0.000 
#
# Total GULP energy -356695.863348 kJ/mol
# GULP energy per Si atom -5573.372865 kJ/mol
# Density = 1.773783 g / cm^3
# Si number density = 17.778297 Si / 1000 Ang^3
#
#
#
# Elastic Constant Matrix: (Units=GPa)
#
#
# Indices 1 2 3 4 5 6 
#
# 1 29.3888 0.2826 0.0937 0.0000 0.0000 0.0000
# 2 0.2826 54.6239 15.1641 0.0000 0.0000 0.0000
# 3 0.0937 15.1641 72.3217 0.0000 0.0000 0.0000
# 4 0.0000 0.0000 0.0000 0.3161 0.0000 0.0000
# 5 0.0000 0.0000 0.0000 0.0000 5.7500 0.0000
# 6 0.0000 0.0000 0.0000 0.0000 0.0000 6.4688
#
#
#
# Elastic Compliance Matrix: (Units=1/GPa)
#
#
# Indices 1 2 3 4 5 6 
#
# 1 0.034028 -0.000174 -0.000008 0.000000 0.000000 0.000000
# 2 -0.000174 0.019439 -0.004076 0.000000 0.000000 0.000000
# 3 -0.000008 -0.004076 0.014682 0.000000 0.000000 0.000000
# 4 0.000000 0.000000 0.000000 3.163855 0.000000 0.000000
# 5 0.000000 0.000000 0.000000 0.000000 0.173914 0.000000
# 6 0.000000 0.000000 0.000000 0.000000 0.000000 0.154589
#
#
# Mechanical properties :
#
#
# Convention : Reuss Voigt Hill
#
# Bulk Modulus (GPa) = 16.76874 20.82392 18.79633
# Shear Modulus (GPa) = 1.39318 11.89323 6.64321
#
# Velocity S-wave (km/s) = 0.88620 2.58926 1.93515
# Velocity P-wave (km/s) = 3.24033 4.54726 3.94825
#
# Compressibility (1/GPa) = 0.05963479
#
# Stress axis : x y z
#
# Youngs Moduli (GPa) = 29.38731 51.44198 68.11200
#
# Poissons Ratio (x) = 0.00895 0.00052
# Poissons Ratio (y) = 0.00511 0.27761
# Poissons Ratio (z) = 0.00022 0.20966
#
# Static dielectric constant tensor:
#      x y z
#    x 1.612020 0.000000 0.000000 
#    y 0.000000 1.623910 0.000000 
#    z 0.000000 0.000000 1.619050 
# 
# From -- ./inp_files/70703.got.cif
#   From: 2010.05.17/outbox.cif.g08.bks.cpg/sg65_36_cif.got.tgz:70703.got - 2010.06.03 17:01:31.
