data_PCOD9484297
_publ_section_title
;
Structure prediction by ZEFSAII (Michael W. Deem and Ramdas Pophale) SiO2 
 PCOD9484297
Probable space group: C M M M
;
_chemical_formula_sum "Si O2"
_cell_formula_units_Z 88
_cell_length_a 34.600762
_cell_length_b 8.616359
_cell_length_c 16.601559
_cell_angle_alpha 90.000000
_cell_angle_beta 90.000000
_cell_angle_gamma 90.000000
_cell_volume 4949.465734
_symmetry_space_group_name_H-M "C M M M"
_symmetry_group_IT_number 65
_symmetry_cell_setting 'orthorhombic'
loop_
_space_group_symop_operation_xyz
x,y,z
-x,-y,z
x,-y,-z
-x,y,-z
-x,-y,-z
x,y,-z
-x,y,z
x,-y,z
1/2+x,1/2+y,z
1/2-x,1/2-y,z
1/2+x,1/2-y,-z
1/2-x,1/2+y,-z
1/2-x,1/2-y,-z
1/2+x,1/2+y,-z
1/2-x,1/2+y,z
1/2+x,1/2-y,z
loop_
_atom_site_type_symbol
_atom_site_label
_atom_site_fract_x
_atom_site_fract_y
_atom_site_fract_z
Si Si1 0.308178 0.333307 0.000000
Si Si2 0.883198 0.677905 0.000000
Si Si3 0.853092 0.682849 0.722693
Si Si4 0.288869 0.323918 0.821534
Si Si5 0.579721 0.189101 0.164714
Si Si6 0.000000 0.186788 0.903255
Si Si7 0.206876 0.185842 0.592810
O O1 0.337615 0.193397 0.000000
O O2 0.285578 0.331821 0.082550
O O3 0.330380 0.500000 0.000000
O O4 0.898227 0.745550 0.083723
O O5 0.896007 0.500000 0.000000
O O6 0.855755 0.500000 0.706993
O O7 0.824698 0.718168 0.797540
O O8 0.895142 0.737681 0.756374
O O9 0.828351 0.758112 0.649887
O O10 0.294679 0.500000 0.791939
O O11 0.250000 0.250000 0.788478
O O12 0.537014 0.250665 0.146067
O O13 0.579260 0.000000 0.166954
O O14 0.000000 0.000000 0.903824
O O15 0.000000 0.235782 0.000000
O O16 0.199144 0.232737 0.500000
O O17 0.250000 0.250000 0.612437
O O18 0.208858 0.000000 0.596675
#
# Coordination Sequence:
#
# PCOD9484297 Si02
#       7
#     8   8  16  16  16   8  16
#     4  10  21  33  46  65  91 130 176 223 267 304
#     4  10  18  32  52  72  97 134 179 222 264 315
#     4  11  22  36  55  79 106 138 176 219 269 322
#     4  11  22  34  47  66  95 133 177 222 264 308
#     4  10  21  36  55  77 104 142 182 222 269 322
#     4  11  23  35  53  81 110 143 184 231 277 320
#     4  10  21  38  60  85 113 145 180 221 271 326
#
# _framework density 17.779698
#
# number of rings (size 3 to 8) (size 9 to 14) (size 15 to 20)
#    0.000    1.545    2.727    2.727    0.000    4.364 
#    0.000    0.000    0.000    0.000    0.000    0.636 
#    0.000    5.091    0.000    0.000    0.000    0.000 
#
# Total GULP energy -245029.162723 kJ/mol
# GULP energy per Si atom -5568.844607 kJ/mol
# Density = 1.773923 g / cm^3
# Si number density = 17.779698 Si / 1000 Ang^3
#
#
#
# Elastic Constant Matrix: (Units=GPa)
#
#
# Indices 1 2 3 4 5 6 
#
# 1 123.0784 26.0953 51.8143 0.0000 0.0000 0.0000
# 2 26.0953 29.2658 25.3079 0.0000 0.0000 0.0000
# 3 51.8143 25.3079 128.1134 0.0000 0.0000 0.0000
# 4 0.0000 0.0000 0.0000 13.4968 0.0000 0.0000
# 5 0.0000 0.0000 0.0000 0.0000 32.1935 0.0000
# 6 0.0000 0.0000 0.0000 0.0000 0.0000 19.9193
#
#
#
# Elastic Compliance Matrix: (Units=1/GPa)
#
#
# Indices 1 2 3 4 5 6 
#
# 1 0.010898 -0.007123 -0.003001 0.000000 0.000000 0.000000
# 2 -0.007123 0.045864 -0.006179 0.000000 0.000000 0.000000
# 3 -0.003001 -0.006179 0.010240 0.000000 0.000000 0.000000
# 4 0.000000 0.000000 0.000000 0.074091 0.000000 0.000000
# 5 0.000000 0.000000 0.000000 0.000000 0.031062 0.000000
# 6 0.000000 0.000000 0.000000 0.000000 0.000000 0.050202
#
#
# Mechanical properties :
#
#
# Convention : Reuss Voigt Hill
#
# Bulk Modulus (GPa) = 29.07247 54.09918 41.58583
# Shear Modulus (GPa) = 18.76665 24.93794 21.85229
#
# Velocity S-wave (km/s) = 3.25239 3.74920 3.50960
# Velocity P-wave (km/s) = 5.52187 7.01681 6.31374
#
# Compressibility (1/GPa) = 0.03439680
#
# Stress axis : x y z
#
# Youngs Moduli (GPa) = 91.75720 21.80340 97.65722
#
# Poissons Ratio (x) = 0.15530 0.29304
# Poissons Ratio (y) = 0.65357 0.60347
# Poissons Ratio (z) = 0.27533 0.13473
#
# Static dielectric constant tensor:
#      x y z
#    x 1.650060 0.000000 0.000000 
#    y 0.000000 1.657310 0.000000 
#    z 0.000000 0.000000 1.651210 
# 
# From -- ./inp_files/58100.got.cif
#   From: 2010.05.17/outbox.cif.g08.bks.cpg/sg65_30_cif.got.tgz:58100.got - 2010.06.03 17:01:31.
