data_PCOD9484805
_publ_section_title
;
Structure prediction by ZEFSAII (Michael W. Deem and Ramdas Pophale) SiO2 
 PCOD9484805
Probable space group: C M M M
;
_chemical_formula_sum "Si O2"
_cell_formula_units_Z 72
_cell_length_a 7.330375
_cell_length_b 16.606588
_cell_length_c 25.839577
_cell_angle_alpha 90.000000
_cell_angle_beta 90.000000
_cell_angle_gamma 90.000000
_cell_volume 3145.516760
_symmetry_space_group_name_H-M "C M M M"
_symmetry_group_IT_number 65
_symmetry_cell_setting 'orthorhombic'
loop_
_space_group_symop_operation_xyz
x,y,z
-x,-y,z
x,-y,-z
-x,y,-z
-x,-y,-z
x,y,-z
-x,y,z
x,-y,z
1/2+x,1/2+y,z
1/2-x,1/2-y,z
1/2+x,1/2-y,-z
1/2-x,1/2+y,-z
1/2-x,1/2-y,-z
1/2+x,1/2+y,-z
1/2-x,1/2+y,z
1/2+x,1/2-y,z
loop_
_atom_site_type_symbol
_atom_site_label
_atom_site_fract_x
_atom_site_fract_y
_atom_site_fract_z
Si Si1 0.783072 0.656581 0.834311
Si Si2 0.220998 0.405017 0.943960
Si Si3 0.778256 0.408700 0.726094
Si Si4 0.723011 0.000000 0.440163
Si Si5 0.717428 0.159473 0.620753
O O1 0.750000 0.750000 0.825146
O O2 0.710604 0.633918 0.891031
O O3 0.712229 0.610766 0.783761
O O4 0.000000 0.640409 0.836460
O O5 0.262673 0.500000 0.941968
O O6 0.000000 0.397916 0.944301
O O7 0.284656 0.373163 0.000000
O O8 0.731887 0.500000 0.711727
O O9 0.715251 0.350918 0.679945
O O10 0.000000 0.403722 0.728158
O O11 0.783512 0.082768 0.412284
O O12 0.500000 0.000000 0.438524
O O13 0.776914 0.000000 0.500000
O O14 0.500000 0.150415 0.622531
O O15 0.750000 0.250000 0.601180
#
# Coordination Sequence:
#
# PCOD9484805 Si02
#       5
#    16  16  16   8  16
#     4  10  19  29  44  67  93 119 150 190 236 284
#     4   8  14  26  44  64  84 110 150 195 231 268
#     4   9  16  29  50  72  93 123 165 204 237 283
#     4   9  18  34  55  77 103 139 178 208 242 297
#     4  10  19  33  54  78 104 134 170 211 253 297
#
# _framework density 22.889721000000002
#
# number of rings (size 3 to 8) (size 9 to 14) (size 15 to 20)
#    0.000    2.778    1.111    2.000    0.000    3.556 
#    0.000    0.556    0.000    4.667    0.000    1.556 
#    0.000    0.000    0.000    0.000    0.000    0.000 
#
# Total GULP energy -200960.149933 kJ/mol
# GULP energy per Si atom -5582.226387 kJ/mol
# Density = 2.283762 g / cm^3
# Si number density = 22.889721 Si / 1000 Ang^3
#
#
#
# Elastic Constant Matrix: (Units=GPa)
#
#
# Indices 1 2 3 4 5 6 
#
# 1 89.8518 -5.7311 10.3440 0.0000 0.0000 0.0000
# 2 -5.7311 126.6370 72.3910 0.0000 0.0000 0.0000
# 3 10.3440 72.3910 163.8997 0.0000 0.0000 0.0000
# 4 0.0000 0.0000 0.0000 18.2066 0.0000 0.0000
# 5 0.0000 0.0000 0.0000 0.0000 -17.9078 0.0000
# 6 0.0000 0.0000 0.0000 0.0000 0.0000 1.3454
#
#
#
# Elastic Compliance Matrix: (Units=1/GPa)
#
#
# Indices 1 2 3 4 5 6 
#
# 1 0.011354 0.001235 -0.001262 0.000000 0.000000 0.000000
# 2 0.001235 0.010698 -0.004803 0.000000 0.000000 0.000000
# 3 -0.001262 -0.004803 0.008302 0.000000 0.000000 0.000000
# 4 0.000000 0.000000 0.000000 0.054925 0.000000 0.000000
# 5 0.000000 0.000000 0.000000 0.000000 -0.055842 0.000000
# 6 0.000000 0.000000 0.000000 0.000000 0.000000 0.743263
#
#
# Mechanical properties :
#
#
# Convention : Reuss Voigt Hill
#
# Bulk Modulus (GPa) = 48.32277 59.37736 53.85007
# Shear Modulus (GPa) = 6.33506 20.55449 13.44478
#
# Velocity S-wave (km/s) = 1.66543 2.99988 2.42620
# Velocity P-wave (km/s) = 4.98549 6.16409 5.60585
#
# Compressibility (1/GPa) = 0.02069418
#
# Stress axis : x y z
#
# Youngs Moduli (GPa) = 88.07831 93.47415 120.44747
#
# Poissons Ratio (x) = -0.11547 0.15202
# Poissons Ratio (y) = -0.10881 0.57852
# Poissons Ratio (z) = 0.11117 0.44897
#
# Static dielectric constant tensor:
#      x y z
#    x 1.912480 0.000000 0.000000 
#    y 0.000000 1.803900 0.000000 
#    z 0.000000 0.000000 1.855600 
# 
# From -- ./inp_files/69663.got.cif
#   From: 2010.05.17/outbox.cif.g08.bks.cpg/sg65_35_cif.got.tgz:69663.got - 2010.06.03 17:01:31.
