data_PCOD9484206
_publ_section_title
;
Structure prediction by ZEFSAII (Michael W. Deem and Ramdas Pophale) SiO2 
 PCOD9484206
Probable space group: C M M M
;
_chemical_formula_sum "Si O2"
_cell_formula_units_Z 104
_cell_length_a 28.506522
_cell_length_b 9.917716
_cell_length_c 22.465818
_cell_angle_alpha 90.000000
_cell_angle_beta 90.000000
_cell_angle_gamma 90.000000
_cell_volume 6351.526839
_symmetry_space_group_name_H-M "C M M M"
_symmetry_group_IT_number 65
_symmetry_cell_setting 'orthorhombic'
loop_
_space_group_symop_operation_xyz
x,y,z
-x,-y,z
x,-y,-z
-x,y,-z
-x,-y,-z
x,y,-z
-x,y,z
x,-y,z
1/2+x,1/2+y,z
1/2-x,1/2-y,z
1/2+x,1/2-y,-z
1/2-x,1/2+y,-z
1/2-x,1/2-y,-z
1/2+x,1/2+y,-z
1/2-x,1/2+y,z
1/2+x,1/2-y,z
loop_
_atom_site_type_symbol
_atom_site_label
_atom_site_fract_x
_atom_site_fract_y
_atom_site_fract_z
Si Si1 0.882498 0.338307 0.387467
Si Si2 0.054517 0.657957 0.271491
Si Si3 0.203333 0.839460 0.428585
Si Si4 0.447151 0.162547 0.500000
Si Si5 0.553792 0.655706 0.158952
Si Si6 0.786706 0.000000 0.928044
Si Si7 0.820000 0.500000 0.072229
Si Si8 0.363280 0.718812 0.928464
O O1 0.870412 0.500000 0.392546
O O2 0.910406 0.318556 0.326051
O O3 0.838329 0.239875 0.395245
O O4 0.917917 0.303581 0.441281
O O5 0.057553 0.500000 0.255447
O O6 0.065237 0.749045 0.214539
O O7 0.000000 0.683774 0.289293
O O8 0.194238 0.833508 0.500000
O O9 0.250000 0.750000 0.417929
O O10 0.207769 0.000000 0.413429
O O11 0.500000 0.217437 0.500000
O O12 0.450663 0.000000 0.500000
O O13 0.500000 0.684660 0.140388
O O14 0.555920 0.500000 0.178069
O O15 0.590382 0.675726 0.105891
O O16 0.733611 0.000000 0.905288
O O17 0.818526 0.127307 0.911920
O O18 0.783321 0.000000 0.000000
O O19 0.848663 0.631355 0.088832
O O20 0.816982 0.500000 0.000000
O O21 0.369576 0.708473 0.000000
#
# Coordination Sequence:
#
# PCOD9484206 Si02
#       8
#    16  16  16   8  16   8   8  16
#     4  10  18  31  53  80 106 134 170 211 261 308
#     4   9  19  35  55  78 103 136 176 213 251 305
#     4  10  20  33  51  76 107 140 177 215 256 309
#     4   9  16  26  46  77 110 135 160 203 254 307
#     4  10  21  36  53  74 101 139 182 216 254 307
#     4   9  16  30  51  75 105 137 166 203 253 314
#     4   9  18  30  49  77 107 135 166 205 259 320
#     4  10  19  32  51  79 108 134 169 214 265 314
#
# _framework density 16.374015
#
# number of rings (size 3 to 8) (size 9 to 14) (size 15 to 20)
#    0.000    2.385    1.538    1.385    1.077    5.231 
#    0.000    0.769    0.000    5.077    0.000    0.000 
#    0.000    0.000    0.000    0.000    0.000    0.000 
#
# Total GULP energy -289720.889133 kJ/mol
# GULP energy per Si atom -5571.555560 kJ/mol
# Density = 1.633675 g / cm^3
# Si number density = 16.374015 Si / 1000 Ang^3
#
#
#
# Elastic Constant Matrix: (Units=GPa)
#
#
# Indices 1 2 3 4 5 6 
#
# 1 98.0920 50.2368 47.4247 0.0000 0.0000 0.0000
# 2 50.2368 100.3588 36.6510 0.0000 0.0000 0.0000
# 3 47.4247 36.6510 55.5515 0.0000 0.0000 0.0000
# 4 0.0000 0.0000 0.0000 12.9993 0.0000 0.0000
# 5 0.0000 0.0000 0.0000 0.0000 8.3248 0.0000
# 6 0.0000 0.0000 0.0000 0.0000 0.0000 15.9108
#
#
#
# Elastic Compliance Matrix: (Units=1/GPa)
#
#
# Indices 1 2 3 4 5 6 
#
# 1 0.018906 -0.004703 -0.013038 0.000000 0.000000 0.000000
# 2 -0.004703 0.014297 -0.005418 0.000000 0.000000 0.000000
# 3 -0.013038 -0.005418 0.032706 0.000000 0.000000 0.000000
# 4 0.000000 0.000000 0.000000 0.076927 0.000000 0.000000
# 5 0.000000 0.000000 0.000000 0.000000 0.120124 0.000000
# 6 0.000000 0.000000 0.000000 0.000000 0.000000 0.062850
#
#
# Mechanical properties :
#
#
# Convention : Reuss Voigt Hill
#
# Bulk Modulus (GPa) = 51.03916 58.06972 54.55444
# Shear Modulus (GPa) = 13.20452 15.42630 14.31541
#
# Velocity S-wave (km/s) = 2.84285 3.07273 2.96002
# Velocity P-wave (km/s) = 6.48184 6.93761 6.71359
#
# Compressibility (1/GPa) = 0.01959280
#
# Stress axis : x y z
#
# Youngs Moduli (GPa) = 52.89245 69.94537 30.57503
#
# Poissons Ratio (x) = 0.32892 0.39863
# Poissons Ratio (y) = 0.24873 0.16566
# Poissons Ratio (z) = 0.68960 0.37896
#
# Static dielectric constant tensor:
#      x y z
#    x 1.547400 0.000000 0.000000 
#    y 0.000000 1.578400 0.000000 
#    z 0.000000 0.000000 1.518320 
# 
# From -- ./inp_files/71874.got.cif
#   From: 2010.05.17/outbox.cif.g08.bks.cpg/sg65_36_cif.got.tgz:71874.got - 2010.06.03 17:01:31.
