data_PCOD9484160
_publ_section_title
;
Structure prediction by ZEFSAII (Michael W. Deem and Ramdas Pophale) SiO2 
 PCOD9484160
Probable space group: C M M M
;
_chemical_formula_sum "Si O2"
_cell_formula_units_Z 72
_cell_length_a 22.480644
_cell_length_b 20.358769
_cell_length_c 7.662214
_cell_angle_alpha 90.000000
_cell_angle_beta 90.000000
_cell_angle_gamma 90.000000
_cell_volume 3506.828604
_symmetry_space_group_name_H-M "C M M M"
_symmetry_group_IT_number 65
_symmetry_cell_setting 'orthorhombic'
loop_
_space_group_symop_operation_xyz
x,y,z
-x,-y,z
x,-y,-z
-x,y,-z
-x,-y,-z
x,y,-z
-x,y,z
x,-y,z
1/2+x,1/2+y,z
1/2-x,1/2-y,z
1/2+x,1/2-y,-z
1/2-x,1/2+y,-z
1/2-x,1/2-y,-z
1/2+x,1/2+y,-z
1/2-x,1/2+y,z
1/2+x,1/2-y,z
loop_
_atom_site_type_symbol
_atom_site_label
_atom_site_fract_x
_atom_site_fract_y
_atom_site_fract_z
Si Si1 0.612673 0.660264 0.208961
Si Si2 0.774882 0.073760 0.292167
Si Si3 0.500000 0.424545 0.213843
Si Si4 0.139002 0.573334 0.794194
Si Si5 0.569148 0.199652 0.213829
O O1 0.675346 0.626594 0.247041
O O2 0.558815 0.614064 0.272540
O O3 0.602957 0.734472 0.272786
O O4 0.606713 0.662917 0.000000
O O5 0.770212 0.071280 0.500000
O O6 0.709070 0.088479 0.222792
O O7 0.791896 0.000000 0.229161
O O8 0.500000 0.500000 0.270449
O O9 0.500000 0.424600 0.000000
O O10 0.129140 0.500000 0.719619
O O11 0.100125 0.632999 0.722457
O O12 0.125360 0.569484 0.000000
O O13 0.500000 0.203477 0.263137
O O14 0.571020 0.198929 0.000000
#
# Coordination Sequence:
#
# PCOD9484160 Si02
#       5
#    16  16   8  16  16
#     4  10  18  31  52  76 103 134 168 208 252 302
#     4  10  21  36  52  72 102 137 172 213 257 299
#     4   9  16  26  45  73  98 126 166 205 241 289
#     4   9  18  33  54  78 102 132 171 211 252 303
#     4   9  17  31  52  79 108 133 163 209 260 302
#
# _framework density 20.531371
#
# number of rings (size 3 to 8) (size 9 to 14) (size 15 to 20)
#    0.000    2.556    1.111    1.333    0.000    3.556 
#    0.000    8.333    0.000    4.000    0.000    3.111 
#    0.000    0.000    0.000    0.000    0.000    0.000 
#
# Total GULP energy -200943.480003 kJ/mol
# GULP energy per Si atom -5581.763333 kJ/mol
# Density = 2.048464 g / cm^3
# Si number density = 20.531371 Si / 1000 Ang^3
#
#
#
# Elastic Constant Matrix: (Units=GPa)
#
#
# Indices 1 2 3 4 5 6 
#
# 1 69.3104 84.0618 -5.3625 0.0000 0.0000 0.0000
# 2 84.0618 177.7211 9.4963 0.0000 0.0000 0.0000
# 3 -5.3625 9.4963 35.8531 0.0000 0.0000 0.0000
# 4 0.0000 0.0000 0.0000 1.5197 0.0000 0.0000
# 5 0.0000 0.0000 0.0000 0.0000 -69.0724 0.0000
# 6 0.0000 0.0000 0.0000 0.0000 0.0000 41.7086
#
#
#
# Elastic Compliance Matrix: (Units=1/GPa)
#
#
# Indices 1 2 3 4 5 6 
#
# 1 0.037311 -0.018204 0.010402 0.000000 0.000000 0.000000
# 2 -0.018204 0.014589 -0.006587 0.000000 0.000000 0.000000
# 3 0.010402 -0.006587 0.031192 0.000000 0.000000 0.000000
# 4 0.000000 0.000000 0.000000 0.658015 0.000000 0.000000
# 5 0.000000 0.000000 0.000000 0.000000 -0.014478 0.000000
# 6 0.000000 0.000000 0.000000 0.000000 0.000000 0.023976
#
#
# Mechanical properties :
#
#
# Convention : Reuss Voigt Hill
#
# Bulk Modulus (GPa) = 18.41119 51.03066 34.72093
# Shear Modulus (GPa) = 6.26970 7.81046 7.04008
#
# Velocity S-wave (km/s) = 1.74938 1.95254 1.85375
# Velocity P-wave (km/s) = 3.61487 5.47651 4.64001
#
# Compressibility (1/GPa) = 0.05431479
#
# Stress axis : x y z
#
# Youngs Moduli (GPa) = 26.80194 68.54432 32.05943
#
# Poissons Ratio (x) = 1.24776 -0.33348
# Poissons Ratio (y) = 0.48790 0.21117
# Poissons Ratio (z) = -0.27880 0.45149
#
# Static dielectric constant tensor:
#      x y z
#    x 1.684750 0.000000 0.000000 
#    y 0.000000 1.807300 0.000000 
#    z 0.000000 0.000000 1.765300 
# 
# From -- ./inp_files/9211.got.cif
#   From: 2010.05.17/outbox.cif.g08.bks.cpg/sg65_5_cif.got.tgz:9211.got - 2010.06.03 17:01:31.
