data_PCOD9484954
_publ_section_title
;
Structure prediction by ZEFSAII (Michael W. Deem and Ramdas Pophale) SiO2 
 PCOD9484954
Probable space group: C M M M
;
_chemical_formula_sum "Si O2"
_cell_formula_units_Z 104
_cell_length_a 28.117422
_cell_length_b 8.502306
_cell_length_c 27.631672
_cell_angle_alpha 90.000000
_cell_angle_beta 90.000000
_cell_angle_gamma 90.000000
_cell_volume 6605.708352
_symmetry_space_group_name_H-M "C M M M"
_symmetry_group_IT_number 65
_symmetry_cell_setting 'orthorhombic'
loop_
_space_group_symop_operation_xyz
x,y,z
-x,-y,z
x,-y,-z
-x,y,-z
-x,-y,-z
x,y,-z
-x,y,z
x,-y,z
1/2+x,1/2+y,z
1/2-x,1/2-y,z
1/2+x,1/2-y,-z
1/2-x,1/2+y,-z
1/2-x,1/2-y,-z
1/2+x,1/2+y,-z
1/2-x,1/2+y,z
1/2+x,1/2-y,z
loop_
_atom_site_type_symbol
_atom_site_label
_atom_site_fract_x
_atom_site_fract_y
_atom_site_fract_z
Si Si1 0.105953 0.188157 0.747188
Si Si2 0.555391 0.809601 0.842328
Si Si3 0.697321 0.811790 0.697236
Si Si4 0.854378 0.689686 0.598738
Si Si5 0.803971 0.309403 0.500000
Si Si6 0.945950 0.810105 0.648505
Si Si7 0.942493 0.312742 0.947949
O O1 0.085481 0.250115 0.797378
O O2 0.158495 0.249336 0.735001
O O3 0.072835 0.239813 0.701750
O O4 0.106083 0.000000 0.747736
O O5 0.500000 0.762010 0.836367
O O6 0.573085 0.752253 0.895333
O O7 0.556224 0.000000 0.843069
O O8 0.750000 0.750000 0.705869
O O9 0.678437 0.759638 0.644122
O O10 0.697336 0.000000 0.698123
O O11 0.855525 0.500000 0.598563
O O12 0.831644 0.742925 0.548323
O O13 0.907232 0.749832 0.610275
O O14 0.803021 0.500000 0.500000
O O15 0.750000 0.250000 0.500000
O O16 0.000000 0.756430 0.640428
O O17 0.945602 0.000000 0.647613
O O18 0.932274 0.500000 0.948646
O O19 0.000000 0.298952 0.947377
O O20 0.925871 0.246681 0.000000
#
# Coordination Sequence:
#
# PCOD9484954 Si02
#       7
#    16  16  16  16   8  16  16
#     4  10  19  30  44  63  88 117 148 182 220 261
#     4   9  16  25  39  61  88 117 150 187 222 256
#     4  10  19  32  49  68  89 113 142 175 215 261
#     4   9  19  33  49  70  93 116 143 175 211 257
#     4  10  20  34  51  72  95 115 140 175 217 262
#     4   9  18  32  48  65  87 117 152 185 215 252
#     4   7  10  18  33  53  78 110 147 183 217 253
#
# _framework density 15.743957999999999
#
# number of rings (size 3 to 8) (size 9 to 14) (size 15 to 20)
#    0.000    2.923    0.000    3.231    0.000    3.077 
#    0.000    0.385    0.000    2.769    0.000    2.154 
#    0.000    0.615    0.000    1.692    0.000    2.462 
#
# Total GULP energy -289637.497385 kJ/mol
# GULP energy per Si atom -5569.951873 kJ/mol
# Density = 1.570812 g / cm^3
# Si number density = 15.743958 Si / 1000 Ang^3
#
#
#
# Elastic Constant Matrix: (Units=GPa)
#
#
# Indices 1 2 3 4 5 6 
#
# 1 126.9879 20.1089 81.0770 0.0000 0.0000 0.0000
# 2 20.1089 11.4964 23.5898 0.0000 0.0000 0.0000
# 3 81.0770 23.5898 158.6163 0.0000 0.0000 0.0000
# 4 0.0000 0.0000 0.0000 10.9416 0.0000 0.0000
# 5 0.0000 0.0000 0.0000 0.0000 16.5983 0.0000
# 6 0.0000 0.0000 0.0000 0.0000 0.0000 23.1381
#
#
#
# Elastic Compliance Matrix: (Units=1/GPa)
#
#
# Indices 1 2 3 4 5 6 
#
# 1 0.012915 -0.013017 -0.004666 0.000000 0.000000 0.000000
# 2 -0.013017 0.138307 -0.013916 0.000000 0.000000 0.000000
# 3 -0.004666 -0.013916 0.010759 0.000000 0.000000 0.000000
# 4 0.000000 0.000000 0.000000 0.091394 0.000000 0.000000
# 5 0.000000 0.000000 0.000000 0.000000 0.060247 0.000000
# 6 0.000000 0.000000 0.000000 0.000000 0.000000 0.043219
#
#
# Mechanical properties :
#
#
# Convention : Reuss Voigt Hill
#
# Bulk Modulus (GPa) = 10.12305 60.73914 35.43110
# Shear Modulus (GPa) = 11.03839 21.62392 16.33115
#
# Velocity S-wave (km/s) = 2.65074 3.71006 3.22420
# Velocity P-wave (km/s) = 3.97647 7.55088 6.03441
#
# Compressibility (1/GPa) = 0.09878441
#
# Stress axis : x y z
#
# Youngs Moduli (GPa) = 77.43087 7.23031 92.94597
#
# Poissons Ratio (x) = 0.09411 0.43364
# Poissons Ratio (y) = 1.00788 1.29343
# Poissons Ratio (z) = 0.36126 0.10062
#
# Static dielectric constant tensor:
#      x y z
#    x 1.495170 0.000000 0.000000 
#    y 0.000000 1.535850 0.000000 
#    z 0.000000 0.000000 1.552000 
# 
# From -- ./inp_files/73795.got.cif
#   From: 2010.05.17/outbox.cif.g08.bks.cpg/sg65_37_cif.got.tgz:73795.got - 2010.06.03 17:01:31.
