data_PCOD9484320
_publ_section_title
;
Structure prediction by ZEFSAII (Michael W. Deem and Ramdas Pophale) SiO2 
 PCOD9484320
Probable space group: C M M M
;
_chemical_formula_sum "Si O2"
_cell_formula_units_Z 104
_cell_length_a 8.621453
_cell_length_b 29.154487
_cell_length_c 23.976042
_cell_angle_alpha 90.000000
_cell_angle_beta 90.000000
_cell_angle_gamma 90.000000
_cell_volume 6026.475006
_symmetry_space_group_name_H-M "C M M M"
_symmetry_group_IT_number 65
_symmetry_cell_setting 'orthorhombic'
loop_
_space_group_symop_operation_xyz
x,y,z
-x,-y,z
x,-y,-z
-x,y,-z
-x,-y,-z
x,y,-z
-x,y,z
x,-y,z
1/2+x,1/2+y,z
1/2-x,1/2-y,z
1/2+x,1/2-y,-z
1/2-x,1/2+y,-z
1/2-x,1/2-y,-z
1/2+x,1/2+y,-z
1/2-x,1/2+y,z
1/2+x,1/2-y,z
loop_
_atom_site_type_symbol
_atom_site_label
_atom_site_fract_x
_atom_site_fract_y
_atom_site_fract_z
Si Si1 0.686916 0.143439 0.938570
Si Si2 0.185429 0.197948 0.500000
Si Si3 0.314152 0.551745 0.109546
Si Si4 0.687035 0.198572 0.828661
Si Si5 0.814753 0.552490 0.235089
Si Si6 0.314786 0.801861 0.616605
Si Si7 0.184647 0.143950 0.278015
O O1 0.500000 0.141969 0.937200
O O2 0.749278 0.092356 0.928020
O O3 0.736751 0.175198 0.887005
O O4 0.735797 0.159822 0.000000
O O5 0.500000 0.301631 0.500000
O O6 0.250000 0.250000 0.500000
O O7 0.248881 0.178554 0.441817
O O8 0.500000 0.555046 0.112711
O O9 0.273949 0.500000 0.090639
O O10 0.244855 0.557785 0.171580
O O11 0.500000 0.198571 0.825830
O O12 0.750000 0.250000 0.825180
O O13 0.752502 0.169274 0.777313
O O14 0.781043 0.500000 0.251967
O O15 0.734347 0.591071 0.272067
O O16 0.000000 0.559270 0.235552
O O17 0.500000 0.799509 0.613862
O O18 0.250000 0.750000 0.623598
O O19 0.259666 0.831964 0.668471
O O20 0.000000 0.148324 0.280476
#
# Coordination Sequence:
#
# PCOD9484320 Si02
#       7
#    16   8  16  16  16  16  16
#     4  10  22  39  57  76 101 136 178 220 267 327
#     4  10  18  32  52  78 113 152 193 232 274 318
#     4  10  20  34  54  80 107 135 169 213 265 322
#     4  11  23  39  57  77 104 137 177 223 273 325
#     4  10  20  35  56  81 109 141 175 215 267 326
#     4  11  21  35  54  80 115 154 194 231 273 319
#     4  12  23  36  56  83 113 143 181 225 272 321
#
# _framework density 17.257185
#
# number of rings (size 3 to 8) (size 9 to 14) (size 15 to 20)
#    0.000    1.385    1.538    6.231    0.000    3.385 
#    0.000    1.538    0.000    0.000    0.000    0.538 
#    0.000    4.308    0.000    0.000    0.000    0.000 
#
# Total GULP energy -290524.304786 kJ/mol
# GULP energy per Si atom -5587.005861 kJ/mol
# Density = 1.721791 g / cm^3
# Si number density = 17.257185 Si / 1000 Ang^3
#
#
#
# Elastic Constant Matrix: (Units=GPa)
#
#
# Indices 1 2 3 4 5 6 
#
# 1 98.5229 35.9946 52.7340 0.0000 0.0000 0.0000
# 2 35.9946 84.1008 53.6368 0.0000 0.0000 0.0000
# 3 52.7340 53.6368 137.2209 0.0000 0.0000 0.0000
# 4 0.0000 0.0000 0.0000 19.4638 0.0000 0.0000
# 5 0.0000 0.0000 0.0000 0.0000 21.1851 0.0000
# 6 0.0000 0.0000 0.0000 0.0000 0.0000 28.3206
#
#
#
# Elastic Compliance Matrix: (Units=1/GPa)
#
#
# Indices 1 2 3 4 5 6 
#
# 1 0.013421 -0.003270 -0.003880 0.000000 0.000000 0.000000
# 2 -0.003270 0.016636 -0.005246 0.000000 0.000000 0.000000
# 3 -0.003880 -0.005246 0.010829 0.000000 0.000000 0.000000
# 4 0.000000 0.000000 0.000000 0.051377 0.000000 0.000000
# 5 0.000000 0.000000 0.000000 0.000000 0.047203 0.000000
# 6 0.000000 0.000000 0.000000 0.000000 0.000000 0.035310
#
#
# Mechanical properties :
#
#
# Convention : Reuss Voigt Hill
#
# Bulk Modulus (GPa) = 62.13129 67.17504 64.65317
# Shear Modulus (GPa) = 24.39836 25.62586 25.01211
#
# Velocity S-wave (km/s) = 3.76414 3.85767 3.81119
# Velocity P-wave (km/s) = 7.41438 7.67154 7.54405
#
# Compressibility (1/GPa) = 0.01609495
#
# Stress axis : x y z
#
# Youngs Moduli (GPa) = 74.50968 60.11189 92.34486
#
# Poissons Ratio (x) = 0.19656 0.35826
# Poissons Ratio (y) = 0.24363 0.48443
# Poissons Ratio (z) = 0.28907 0.31534
#
# Static dielectric constant tensor:
#      x y z
#    x 1.558190 0.000000 0.000000 
#    y 0.000000 1.594860 0.000000 
#    z 0.000000 0.000000 1.592450 
# 
# From -- ./inp_files/60785.got.cif
#   From: 2010.05.17/outbox.cif.g08.bks.cpg/sg65_31_cif.got.tgz:60785.got - 2010.06.03 17:01:31.
