data_PCOD9484860
_publ_section_title
;
Structure prediction by ZEFSAII (Michael W. Deem and Ramdas Pophale) SiO2 
 PCOD9484860
Probable space group: C M M M
;
_chemical_formula_sum "Si O2"
_cell_formula_units_Z 80
_cell_length_a 7.784195
_cell_length_b 28.574126
_cell_length_c 19.356446
_cell_angle_alpha 90.000000
_cell_angle_beta 90.000000
_cell_angle_gamma 90.000000
_cell_volume 4305.387867
_symmetry_space_group_name_H-M "C M M M"
_symmetry_group_IT_number 65
_symmetry_cell_setting 'orthorhombic'
loop_
_space_group_symop_operation_xyz
x,y,z
-x,-y,z
x,-y,-z
-x,y,-z
-x,-y,-z
x,y,-z
-x,y,z
x,-y,z
1/2+x,1/2+y,z
1/2-x,1/2-y,z
1/2+x,1/2-y,-z
1/2-x,1/2+y,-z
1/2-x,1/2-y,-z
1/2+x,1/2+y,-z
1/2-x,1/2+y,z
1/2+x,1/2-y,z
loop_
_atom_site_type_symbol
_atom_site_label
_atom_site_fract_x
_atom_site_fract_y
_atom_site_fract_z
Si Si1 0.704831 0.195654 0.349878
Si Si2 0.203743 0.895430 0.285628
Si Si3 0.793637 0.305264 0.500000
Si Si4 0.206091 0.053640 0.149319
Si Si5 0.291103 0.555321 0.424234
Si Si6 0.296095 0.053265 0.000000
O O1 0.500000 0.192605 0.352000
O O2 0.750000 0.250000 0.340002
O O3 0.770225 0.159867 0.292978
O O4 0.774054 0.178732 0.425481
O O5 0.272679 0.917616 0.215024
O O6 0.275168 0.918893 0.355906
O O7 0.000000 0.904867 0.286230
O O8 0.750000 0.250000 0.500000
O O9 0.000000 0.310962 0.500000
O O10 0.244438 0.074302 0.073616
O O11 0.000000 0.051402 0.154652
O O12 0.272257 0.000000 0.151740
O O13 0.230051 0.572468 0.500000
O O14 0.500000 0.559009 0.424856
O O15 0.251567 0.500000 0.419414
O O16 0.500000 0.050293 0.000000
O O17 0.222017 0.000000 0.000000
#
# Coordination Sequence:
#
# PCOD9484860 Si02
#       6
#    16  16   8  16  16   8
#     4  10  20  34  49  66  90 121 158 203 251 295
#     4  10  19  29  46  72  97 124 160 199 240 284
#     4   8  16  30  46  62  81 110 149 195 244 289
#     4   9  17  30  48  71 101 133 162 193 232 281
#     4   8  14  25  41  63  92 125 161 198 231 267
#     4   9  17  29  47  71  98 127 160 197 237 281
#
# _framework density 18.58137
#
# number of rings (size 3 to 8) (size 9 to 14) (size 15 to 20)
#    0.000    2.900    0.000    2.100    1.400    5.200 
#    0.000    0.000    0.000    1.800    0.000    2.100 
#    0.000    0.000    0.000    0.000    0.000    0.000 
#
# Total GULP energy -222934.139157 kJ/mol
# GULP energy per Si atom -5573.353479 kJ/mol
# Density = 1.853908 g / cm^3
# Si number density = 18.581370 Si / 1000 Ang^3
#
#
#
# Elastic Constant Matrix: (Units=GPa)
#
#
# Indices 1 2 3 4 5 6 
#
# 1 31.3898 -3.3838 11.4045 0.0000 0.0000 0.0000
# 2 -3.3838 63.1127 75.4835 0.0000 0.0000 0.0000
# 3 11.4045 75.4835 182.1736 0.0000 0.0000 0.0000
# 4 0.0000 0.0000 0.0000 17.7229 0.0000 0.0000
# 5 0.0000 0.0000 0.0000 0.0000 5.0819 0.0000
# 6 0.0000 0.0000 0.0000 0.0000 0.0000 10.0609
#
#
#
# Elastic Compliance Matrix: (Units=1/GPa)
#
#
# Indices 1 2 3 4 5 6 
#
# 1 0.034952 0.008903 -0.005877 0.000000 0.000000 0.000000
# 2 0.008903 0.033679 -0.014512 0.000000 0.000000 0.000000
# 3 -0.005877 -0.014512 0.011870 0.000000 0.000000 0.000000
# 4 0.000000 0.000000 0.000000 0.056424 0.000000 0.000000
# 5 0.000000 0.000000 0.000000 0.000000 0.196778 0.000000
# 6 0.000000 0.000000 0.000000 0.000000 0.000000 0.099395
#
#
# Mechanical properties :
#
#
# Convention : Reuss Voigt Hill
#
# Bulk Modulus (GPa) = 17.38249 49.29825 33.34037
# Shear Modulus (GPa) = 10.52084 19.45126 14.98605
#
# Velocity S-wave (km/s) = 2.38208 3.23896 2.84299
# Velocity P-wave (km/s) = 4.11593 6.36996 5.36271
#
# Compressibility (1/GPa) = 0.05752915
#
# Stress axis : x y z
#
# Youngs Moduli (GPa) = 28.61029 29.69249 84.24433
#
# Poissons Ratio (x) = -0.26435 0.49511
# Poissons Ratio (y) = -0.25472 1.22256
# Poissons Ratio (z) = 0.16814 0.43090
#
# Static dielectric constant tensor:
#      x y z
#    x 1.675070 0.000000 0.000000 
#    y 0.000000 1.635110 0.000000 
#    z 0.000000 0.000000 1.688880 
# 
# From -- ./inp_files/50167.got.cif
#   From: 2010.05.17/outbox.cif.g08.bks.cpg/sg65_26_cif.got.tgz:50167.got - 2010.06.03 17:01:31.
