data_PCOD9484150
_publ_section_title
;
Structure prediction by ZEFSAII (Michael W. Deem and Ramdas Pophale) SiO2 
 PCOD9484150
Probable space group: C M M M
;
_chemical_formula_sum "Si O2"
_cell_formula_units_Z 96
_cell_length_a 19.462568
_cell_length_b 14.431268
_cell_length_c 20.304873
_cell_angle_alpha 90.000000
_cell_angle_beta 90.000000
_cell_angle_gamma 90.000000
_cell_volume 5703.020233
_symmetry_space_group_name_H-M "C M M M"
_symmetry_group_IT_number 65
_symmetry_cell_setting 'orthorhombic'
loop_
_space_group_symop_operation_xyz
x,y,z
-x,-y,z
x,-y,-z
-x,y,-z
-x,-y,-z
x,y,-z
-x,y,z
x,-y,z
1/2+x,1/2+y,z
1/2-x,1/2-y,z
1/2+x,1/2-y,-z
1/2-x,1/2+y,-z
1/2-x,1/2-y,-z
1/2+x,1/2+y,-z
1/2-x,1/2+y,z
1/2+x,1/2-y,z
loop_
_atom_site_type_symbol
_atom_site_label
_atom_site_fract_x
_atom_site_fract_y
_atom_site_fract_z
Si Si1 0.686725 0.111575 0.925174
Si Si2 0.169133 0.894627 0.132702
Si Si3 0.779395 0.105708 0.283688
Si Si4 0.582558 0.894022 0.425711
Si Si5 0.079886 0.275331 0.160680
Si Si6 0.639816 0.218073 0.695040
O O1 0.765669 0.138742 0.909850
O O2 0.632407 0.154495 0.874747
O O3 0.685334 0.000000 0.918895
O O4 0.668918 0.136984 0.000000
O O5 0.198667 0.895611 0.207155
O O6 0.105841 0.824513 0.134280
O O7 0.151121 0.000000 0.114026
O O8 0.704868 0.152270 0.288668
O O9 0.831430 0.178392 0.316969
O O10 0.780521 0.000000 0.308070
O O11 0.606126 0.870318 0.500000
O O12 0.500000 0.895008 0.426693
O O13 0.605887 0.824797 0.369298
O O14 0.605225 0.000000 0.411299
O O15 0.093168 0.279778 0.239412
O O16 0.000000 0.292471 0.146584
#
# Coordination Sequence:
#
# PCOD9484150 Si02
#       6
#    16  16  16  16  16  16
#     4  10  21  37  56  75  98 134 176 213 253 306
#     4   9  18  35  55  73  98 134 176 214 248 297
#     4   9  17  30  50  75 101 130 168 211 252 297
#     4   9  18  32  50  73 101 134 170 207 252 306
#     4  11  22  33  50  80 109 133 166 210 263 312
#     4  10  18  31  52  75 101 134 168 208 256 304
#
# _framework density 16.833185
#
# number of rings (size 3 to 8) (size 9 to 14) (size 15 to 20)
#    0.000    2.333    1.667    2.000    0.000    3.000 
#    0.000    2.500    0.000    3.000    0.000    4.667 
#    0.000    0.000    0.000    0.000    0.000    0.000 
#
# Total GULP energy -267553.167690 kJ/mol
# GULP energy per Si atom -5574.024327 kJ/mol
# Density = 1.679487 g / cm^3
# Si number density = 16.833185 Si / 1000 Ang^3
#
#
#
# Elastic Constant Matrix: (Units=GPa)
#
#
# Indices 1 2 3 4 5 6 
#
# 1 48.9030 11.4623 23.2397 0.0000 0.0000 0.0000
# 2 11.4623 85.1442 31.8544 0.0000 0.0000 0.0000
# 3 23.2397 31.8544 57.4226 0.0000 0.0000 0.0000
# 4 0.0000 0.0000 0.0000 18.7343 0.0000 0.0000
# 5 0.0000 0.0000 0.0000 0.0000 17.8205 0.0000
# 6 0.0000 0.0000 0.0000 0.0000 0.0000 14.3518
#
#
#
# Elastic Compliance Matrix: (Units=1/GPa)
#
#
# Indices 1 2 3 4 5 6 
#
# 1 0.025337 0.000537 -0.010552 0.000000 0.000000 0.000000
# 2 0.000537 0.014832 -0.008445 0.000000 0.000000 0.000000
# 3 -0.010552 -0.008445 0.026370 0.000000 0.000000 0.000000
# 4 0.000000 0.000000 0.000000 0.053378 0.000000 0.000000
# 5 0.000000 0.000000 0.000000 0.000000 0.056115 0.000000
# 6 0.000000 0.000000 0.000000 0.000000 0.000000 0.069678
#
#
# Mechanical properties :
#
#
# Convention : Reuss Voigt Hill
#
# Bulk Modulus (GPa) = 33.76251 36.06474 34.91362
# Shear Modulus (GPa) = 17.09375 18.50887 17.80131
#
# Velocity S-wave (km/s) = 3.19012 3.31954 3.25547
# Velocity P-wave (km/s) = 5.80257 6.01363 5.90904
#
# Compressibility (1/GPa) = 0.02961865
#
# Stress axis : x y z
#
# Youngs Moduli (GPa) = 39.46723 67.42167 37.92155
#
# Poissons Ratio (x) = -0.03619 0.40016
# Poissons Ratio (y) = -0.02119 0.32025
# Poissons Ratio (z) = 0.41647 0.56939
#
# Static dielectric constant tensor:
#      x y z
#    x 1.551120 0.000000 0.000000 
#    y 0.000000 1.598350 0.000000 
#    z 0.000000 0.000000 1.558470 
# 
# From -- ./inp_files/64638.got.cif
#   From: 2010.05.17/outbox.cif.g08.bks.cpg/sg65_33_cif.got.tgz:64638.got - 2010.06.03 17:01:31.
