data_PCOD9484476
_publ_section_title
;
Structure prediction by ZEFSAII (Michael W. Deem and Ramdas Pophale) SiO2 
 PCOD9484476
Probable space group: C M M M
;
_chemical_formula_sum "Si O2"
_cell_formula_units_Z 88
_cell_length_a 11.593788
_cell_length_b 23.500110
_cell_length_c 16.940297
_cell_angle_alpha 90.000000
_cell_angle_beta 90.000000
_cell_angle_gamma 90.000000
_cell_volume 4615.473588
_symmetry_space_group_name_H-M "C M M M"
_symmetry_group_IT_number 65
_symmetry_cell_setting 'orthorhombic'
loop_
_space_group_symop_operation_xyz
x,y,z
-x,-y,z
x,-y,-z
-x,y,-z
-x,-y,-z
x,y,-z
-x,y,z
x,-y,z
1/2+x,1/2+y,z
1/2-x,1/2-y,z
1/2+x,1/2-y,-z
1/2-x,1/2+y,-z
1/2-x,1/2-y,-z
1/2+x,1/2+y,-z
1/2-x,1/2+y,z
1/2+x,1/2-y,z
loop_
_atom_site_type_symbol
_atom_site_label
_atom_site_fract_x
_atom_site_fract_y
_atom_site_fract_z
Si Si1 0.696113 0.617914 0.135059
Si Si2 0.870972 0.500000 0.262050
Si Si3 0.000000 0.067547 0.755640
Si Si4 0.363988 0.292598 0.000000
Si Si5 0.000000 0.121620 0.410634
Si Si6 0.862349 0.375879 0.731902
Si Si7 0.254334 0.317714 0.413061
Si Si8 0.800581 0.500000 0.085187
O O1 0.606089 0.598708 0.201674
O O2 0.806060 0.640331 0.184527
O O3 0.728590 0.558702 0.091392
O O4 0.650678 0.665609 0.075662
O O5 0.817887 0.559631 0.285783
O O6 0.872172 0.500000 0.166381
O O7 0.000000 0.500000 0.293635
O O8 0.000000 0.078360 0.662231
O O9 0.000000 0.000000 0.772415
O O10 0.250000 0.250000 0.000000
O O11 0.500000 0.270670 0.000000
O O12 0.884845 0.159760 0.403209
O O13 0.000000 0.097233 0.500000
O O14 0.821846 0.338684 0.659295
O O15 0.000000 0.377099 0.739279
O O16 0.213741 0.337911 0.500000
O O17 0.250000 0.250000 0.413356
O O18 0.860275 0.500000 0.000000
#
# Coordination Sequence:
#
# PCOD9484476 Si02
#       8
#    16   8   8   8   8  16  16   8
#     4  11  22  40  63  96 125 160 210 263 320 376
#     4   8  18  35  54  83 124 157 194 247 305 375
#     4  12  22  38  70  98 127 165 209 263 326 393
#     4  12  28  47  67  91 133 178 221 274 326 386
#     4  10  22  41  61  93 134 165 205 264 324 386
#     4  10  21  38  61  90 123 162 204 254 313 383
#     4  10  22  39  61  88 119 159 210 264 313 366
#     4  10  18  32  62  93 118 151 196 259 318 372
#
# _framework density 19.066299000000001
#
# number of rings (size 3 to 8) (size 9 to 14) (size 15 to 20)
#    0.000    1.636    4.545    0.000    1.273    2.182 
#    0.000    1.818    0.000    1.636    0.000    0.000 
#    0.000    0.000    0.000    0.000    0.000    0.000 
#
# Total GULP energy -245149.585630 kJ/mol
# GULP energy per Si atom -5571.581492 kJ/mol
# Density = 1.902290 g / cm^3
# Si number density = 19.066299 Si / 1000 Ang^3
#
#
#
# Elastic Constant Matrix: (Units=GPa)
#
#
# Indices 1 2 3 4 5 6 
#
# 1 105.0329 27.8654 41.1936 0.0000 0.0000 0.0000
# 2 27.8654 66.6709 43.0178 0.0000 0.0000 0.0000
# 3 41.1936 43.0178 123.6360 0.0000 0.0000 0.0000
# 4 0.0000 0.0000 0.0000 8.6092 0.0000 0.0000
# 5 0.0000 0.0000 0.0000 0.0000 17.7437 0.0000
# 6 0.0000 0.0000 0.0000 0.0000 0.0000 17.1571
#
#
#
# Elastic Compliance Matrix: (Units=1/GPa)
#
#
# Indices 1 2 3 4 5 6 
#
# 1 0.011394 -0.002982 -0.002759 0.000000 0.000000 0.000000
# 2 -0.002982 0.020122 -0.006007 0.000000 0.000000 0.000000
# 3 -0.002759 -0.006007 0.011098 0.000000 0.000000 0.000000
# 4 0.000000 0.000000 0.000000 0.116155 0.000000 0.000000
# 5 0.000000 0.000000 0.000000 0.000000 0.056358 0.000000
# 6 0.000000 0.000000 0.000000 0.000000 0.000000 0.058285
#
#
# Mechanical properties :
#
#
# Convention : Reuss Voigt Hill
#
# Bulk Modulus (GPa) = 52.31070 57.72152 55.01611
# Shear Modulus (GPa) = 16.48640 20.91953 18.70296
#
# Velocity S-wave (km/s) = 2.94375 3.31599 3.13540
# Velocity P-wave (km/s) = 6.24900 6.70827 6.48270
#
# Compressibility (1/GPa) = 0.01911655
#
# Stress axis : x y z
#
# Youngs Moduli (GPa) = 87.76590 49.69766 90.10918
#
# Poissons Ratio (x) = 0.14821 0.24858
# Poissons Ratio (y) = 0.26173 0.54133
# Poissons Ratio (z) = 0.24212 0.29856
#
# Static dielectric constant tensor:
#      x y z
#    x 1.688470 0.000000 0.000000 
#    y 0.000000 1.655830 0.000000 
#    z 0.000000 0.000000 1.652220 
# 
# From -- ./inp_files/38472.got.cif
#   From: 2010.05.17/outbox.cif.g08.bks.cpg/sg65_20_cif.got.tgz:38472.got - 2010.06.03 17:01:31.
