data_PCOD9484893
_publ_section_title
;
Structure prediction by ZEFSAII (Michael W. Deem and Ramdas Pophale) SiO2 
 PCOD9484893
Probable space group: C M M M
;
_chemical_formula_sum "Si O2"
_cell_formula_units_Z 88
_cell_length_a 15.188867
_cell_length_b 7.224865
_cell_length_c 31.244057
_cell_angle_alpha 90.000000
_cell_angle_beta 90.000000
_cell_angle_gamma 90.000000
_cell_volume 3428.645129
_symmetry_space_group_name_H-M "C M M M"
_symmetry_group_IT_number 65
_symmetry_cell_setting 'orthorhombic'
loop_
_space_group_symop_operation_xyz
x,y,z
-x,-y,z
x,-y,-z
-x,y,-z
-x,-y,-z
x,y,-z
-x,y,z
x,-y,z
1/2+x,1/2+y,z
1/2-x,1/2-y,z
1/2+x,1/2-y,-z
1/2-x,1/2+y,-z
1/2-x,1/2-y,-z
1/2+x,1/2+y,-z
1/2-x,1/2+y,z
1/2+x,1/2-y,z
loop_
_atom_site_type_symbol
_atom_site_label
_atom_site_fract_x
_atom_site_fract_y
_atom_site_fract_z
Si Si1 0.896057 0.226962 0.813563
Si Si2 0.104779 0.289906 0.500000
Si Si3 0.851956 0.281652 0.592864
Si Si4 0.353043 0.718794 0.000000
Si Si5 0.104579 0.792544 0.092590
Si Si6 0.596798 0.774173 0.314790
Si Si7 0.250000 0.750000 0.254071
O O1 0.867891 0.285547 0.861657
O O2 0.825890 0.306834 0.780257
O O3 0.000000 0.274171 0.806663
O O4 0.890464 0.000000 0.811182
O O5 0.142899 0.500000 0.500000
O O6 0.130367 0.204522 0.454480
O O7 0.000000 0.300539 0.500000
O O8 0.873358 0.500000 0.589805
O O9 0.750000 0.250000 0.601844
O O10 0.900456 0.217398 0.635466
O O11 0.250000 0.750000 0.000000
O O12 0.382613 0.794287 0.953985
O O13 0.379330 0.500000 0.000000
O O14 0.000000 0.809189 0.097647
O O15 0.144297 0.000000 0.089859
O O16 0.500000 0.731059 0.297069
O O17 0.676948 0.687260 0.289039
O O18 0.608677 0.000000 0.312858
#
# Coordination Sequence:
#
# PCOD9484893 Si02
#       7
#    16   8  16   8  16  16   8
#     4   9  19  34  51  74 103 134 171 217 264 311
#     4   9  17  30  53  81 106 139 180 215 253 316
#     4  10  19  34  55  80 107 138 178 221 266 315
#     4  10  19  29  49  77 103 130 164 206 254 306
#     4   8  15  30  50  71  95 127 170 211 246 297
#     4  10  21  36  53  75 105 140 179 221 263 317
#     4  12  20  32  54  76 102 132 176 220 272 318
#
# _framework density 25.666115000000001
#
# number of rings (size 3 to 8) (size 9 to 14) (size 15 to 20)
#    0.000    2.455    0.909    3.273    1.273    3.273 
#    0.000    0.000    0.000    4.909    0.000    2.545 
#    0.000    0.000    0.000    0.000    0.000    0.000 
#
# Total GULP energy -245126.596833 kJ/mol
# GULP energy per Si atom -5571.059019 kJ/mol
# Density = 2.560770 g / cm^3
# Si number density = 25.666115 Si / 1000 Ang^3
#
#
#
# Elastic Constant Matrix: (Units=GPa)
#
#
# Indices 1 2 3 4 5 6 
#
# 1 158.3980 10.0197 73.2436 0.0000 0.0000 0.0000
# 2 10.0197 136.7409 25.8727 0.0000 0.0000 0.0000
# 3 73.2436 25.8727 268.2754 0.0000 0.0000 0.0000
# 4 0.0000 0.0000 0.0000 -29.2250 0.0000 0.0000
# 5 0.0000 0.0000 0.0000 0.0000 62.3869 0.0000
# 6 0.0000 0.0000 0.0000 0.0000 0.0000 422.3738
#
#
#
# Elastic Compliance Matrix: (Units=1/GPa)
#
#
# Indices 1 2 3 4 5 6 
#
# 1 0.007229 -0.000159 -0.001958 0.000000 0.000000 0.000000
# 2 -0.000159 0.007453 -0.000675 0.000000 0.000000 0.000000
# 3 -0.001958 -0.000675 0.004327 0.000000 0.000000 0.000000
# 4 0.000000 0.000000 0.000000 -0.034217 0.000000 0.000000
# 5 0.000000 0.000000 0.000000 0.000000 0.016029 0.000000
# 6 0.000000 0.000000 0.000000 0.000000 0.000000 0.002368
#
#
# Mechanical properties :
#
#
# Convention : Reuss Voigt Hill
#
# Bulk Modulus (GPa) = 74.49771 86.85403 80.67587
# Shear Modulus (GPa) = 377.42617 121.39236 249.40926
#
# Velocity S-wave (km/s) = 12.13967 6.88472 9.86841
# Velocity P-wave (km/s) = 15.01946 9.85457 12.70230
#
# Compressibility (1/GPa) = 0.01342323
#
# Stress axis : x y z
#
# Youngs Moduli (GPa) = 138.33620 134.18254 231.09296
#
# Poissons Ratio (x) = 0.02136 0.45253
# Poissons Ratio (y) = 0.02202 0.15605
# Poissons Ratio (z) = 0.27089 0.09061
#
# Static dielectric constant tensor:
#      x y z
#    x 1.909860 0.000000 0.000000 
#    y 0.000000 2.040670 0.000000 
#    z 0.000000 0.000000 2.054180 
# 
# From -- ./inp_files/78037.got.cif
#   From: 2010.05.17/outbox.cif.g08.bks.cpg/sg65_40_cif.got.tgz:78037.got - 2010.06.03 17:01:31.
