data_PCOD9484806
_publ_section_title
;
Structure prediction by ZEFSAII (Michael W. Deem and Ramdas Pophale) SiO2 
 PCOD9484806
Probable space group: C M M M
;
_chemical_formula_sum "Si O2"
_cell_formula_units_Z 88
_cell_length_a 7.348558
_cell_length_b 18.733686
_cell_length_c 31.337519
_cell_angle_alpha 90.000000
_cell_angle_beta 90.000000
_cell_angle_gamma 90.000000
_cell_volume 4314.097670
_symmetry_space_group_name_H-M "C M M M"
_symmetry_group_IT_number 65
_symmetry_cell_setting 'orthorhombic'
loop_
_space_group_symop_operation_xyz
x,y,z
-x,-y,z
x,-y,-z
-x,y,-z
-x,-y,-z
x,y,-z
-x,y,z
x,-y,z
1/2+x,1/2+y,z
1/2-x,1/2-y,z
1/2+x,1/2-y,-z
1/2-x,1/2+y,-z
1/2-x,1/2-y,-z
1/2+x,1/2+y,-z
1/2-x,1/2+y,z
1/2+x,1/2-y,z
loop_
_atom_site_type_symbol
_atom_site_label
_atom_site_fract_x
_atom_site_fract_y
_atom_site_fract_z
Si Si1 0.215141 0.165519 0.892517
Si Si2 0.279070 0.417545 0.808319
Si Si3 0.500000 0.915752 0.050933
Si Si4 0.721480 0.417233 0.286985
Si Si5 0.282905 0.333749 0.630299
Si Si6 0.278446 0.417052 0.452614
O O1 0.250000 0.250000 0.894559
O O2 0.276037 0.133704 0.846688
O O3 0.327108 0.123391 0.928212
O O4 0.000000 0.152732 0.897158
O O5 0.500000 0.417599 0.807813
O O6 0.223260 0.500000 0.815769
O O7 0.219348 0.395813 0.760707
O O8 0.500000 0.000000 0.061480
O O9 0.500000 0.908369 0.000000
O O10 0.500000 0.414803 0.286716
O O11 0.771649 0.500000 0.293538
O O12 0.786619 0.369769 0.326231
O O13 0.500000 0.345532 0.630341
O O14 0.250000 0.250000 0.629984
O O15 0.213424 0.370693 0.587117
O O16 0.219947 0.393410 0.500000
O O17 0.500000 0.415053 0.452715
O O18 0.227513 0.500000 0.447101
#
# Coordination Sequence:
#
# PCOD9484806 Si02
#       6
#    16  16   8  16  16  16
#     4  11  22  40  63  94 128 166 205 250 309 365
#     4   8  15  29  53  81 109 143 185 233 281 334
#     4  11  26  46  68  96 127 163 211 261 307 363
#     4   8  14  27  48  73  97 130 178 222 260 310
#     4  10  19  29  44  67  95 127 161 202 258 314
#     4   8  14  26  45  67  87 112 156 211 254 295
#
# _framework density 20.398240999999999
#
# number of rings (size 3 to 8) (size 9 to 14) (size 15 to 20)
#    0.000    2.818    0.909    2.727    0.000    5.091 
#    0.000    0.909    2.000    2.182    0.000    1.273 
#    0.000    0.000    0.000    0.000    0.000    0.000 
#
# Total GULP energy -245663.645346 kJ/mol
# GULP energy per Si atom -5583.264667 kJ/mol
# Density = 2.035181 g / cm^3
# Si number density = 20.398241 Si / 1000 Ang^3
#
#
#
# Elastic Constant Matrix: (Units=GPa)
#
#
# Indices 1 2 3 4 5 6 
#
# 1 96.7525 23.3065 37.0707 0.0000 0.0000 0.0000
# 2 23.3065 140.1758 127.2423 0.0000 0.0000 0.0000
# 3 37.0707 127.2423 198.9354 0.0000 0.0000 0.0000
# 4 0.0000 0.0000 0.0000 -6.7395 0.0000 0.0000
# 5 0.0000 0.0000 0.0000 0.0000 -110.4842 0.0000
# 6 0.0000 0.0000 0.0000 0.0000 0.0000 4.1884
#
#
#
# Elastic Compliance Matrix: (Units=1/GPa)
#
#
# Indices 1 2 3 4 5 6 
#
# 1 0.011131 0.000077 -0.002123 0.000000 0.000000 0.000000
# 2 0.000077 0.017010 -0.010894 0.000000 0.000000 0.000000
# 3 -0.002123 -0.010894 0.012391 0.000000 0.000000 0.000000
# 4 0.000000 0.000000 0.000000 -0.148380 0.000000 0.000000
# 5 0.000000 0.000000 0.000000 0.000000 -0.009051 0.000000
# 6 0.000000 0.000000 0.000000 0.000000 0.000000 0.238756
#
#
# Mechanical properties :
#
#
# Convention : Reuss Voigt Hill
#
# Bulk Modulus (GPa) = 68.26031 90.12253 79.19142
# Shear Modulus (GPa) = 32.76068 -6.05743 13.35162
#
# Velocity S-wave (km/s) = 4.01191 -1.72512 2.56119
# Velocity P-wave (km/s) = 7.41600 6.34897 6.90313
#
# Compressibility (1/GPa) = 0.01464980
#
# Stress axis : x y z
#
# Youngs Moduli (GPa) = 89.84180 58.78770 80.70622
#
# Poissons Ratio (x) = -0.00450 0.17135
# Poissons Ratio (y) = -0.00688 0.87924
# Poissons Ratio (z) = 0.19075 0.64046
#
# Static dielectric constant tensor:
#      x y z
#    x 1.780440 0.000000 0.000000 
#    y 0.000000 1.669590 0.000000 
#    z 0.000000 0.000000 1.715870 
# 
# From -- ./inp_files/76553.got.cif
#   From: 2010.05.17/outbox.cif.g08.bks.cpg/sg65_39_cif.got.tgz:76553.got - 2010.06.03 17:01:31.
