data_PCOD9484415
_publ_section_title
;
Structure prediction by ZEFSAII (Michael W. Deem and Ramdas Pophale) SiO2 
 PCOD9484415
Probable space group: C M M M
;
_chemical_formula_sum "Si O2"
_cell_formula_units_Z 96
_cell_length_a 29.921649
_cell_length_b 7.690378
_cell_length_c 21.124417
_cell_angle_alpha 90.000000
_cell_angle_beta 90.000000
_cell_angle_gamma 90.000000
_cell_volume 4860.914061
_symmetry_space_group_name_H-M "C M M M"
_symmetry_group_IT_number 65
_symmetry_cell_setting 'orthorhombic'
loop_
_space_group_symop_operation_xyz
x,y,z
-x,-y,z
x,-y,-z
-x,y,-z
-x,-y,-z
x,y,-z
-x,y,z
x,-y,z
1/2+x,1/2+y,z
1/2-x,1/2-y,z
1/2+x,1/2-y,-z
1/2-x,1/2+y,-z
1/2-x,1/2-y,-z
1/2+x,1/2+y,-z
1/2-x,1/2+y,z
1/2+x,1/2-y,z
loop_
_atom_site_type_symbol
_atom_site_label
_atom_site_fract_x
_atom_site_fract_y
_atom_site_fract_z
Si Si1 0.700948 0.208556 0.111339
Si Si2 0.551008 0.294620 0.804023
Si Si3 0.201042 0.709041 0.743289
Si Si4 0.610959 0.203195 0.685573
Si Si5 0.551128 0.212657 0.571891
Si Si6 0.395780 0.789393 0.930887
O O1 0.750000 0.250000 0.084550
O O2 0.699423 0.274563 0.184056
O O3 0.655765 0.269619 0.077822
O O4 0.698335 0.000000 0.112734
O O5 0.500000 0.228812 0.804702
O O6 0.549939 0.500000 0.791531
O O7 0.580174 0.213106 0.747980
O O8 0.574825 0.266826 0.871399
O O9 0.196669 0.500000 0.747024
O O10 0.250000 0.750000 0.717292
O O11 0.159165 0.778583 0.703976
O O12 0.584513 0.277844 0.625741
O O13 0.618265 0.000000 0.670824
O O14 0.562483 0.264012 0.500000
O O15 0.500000 0.266185 0.585250
O O16 0.551114 0.000000 0.573326
O O17 0.395703 0.000000 0.930124
O O18 0.412321 0.732305 0.000000
#
# Coordination Sequence:
#
# PCOD9484415 Si02
#       6
#    16  16  16  16  16  16
#     4   9  17  31  49  73 101 127 160 203 249 300
#     4  11  24  38  52  74 103 132 166 210 256 302
#     4   9  17  29  47  72 100 129 164 205 250 296
#     4  10  18  32  55  79 102 133 172 211 249 295
#     4   8  14  25  45  77 110 134 162 206 256 298
#     4  10  21  38  57  75  98 130 169 211 253 301
#
# _framework density 19.749372000000001
#
# number of rings (size 3 to 8) (size 9 to 14) (size 15 to 20)
#    0.000    2.500    1.667    1.500    0.000    4.333 
#    0.000    1.667    0.000    1.000    0.000    2.333 
#    0.000    0.000    0.000    0.000    0.000    0.000 
#
# Total GULP energy -267822.178056 kJ/mol
# GULP energy per Si atom -5579.628710 kJ/mol
# Density = 1.970442 g / cm^3
# Si number density = 19.749372 Si / 1000 Ang^3
#
#
#
# Elastic Constant Matrix: (Units=GPa)
#
#
# Indices 1 2 3 4 5 6 
#
# 1 136.8916 -6.5800 62.9061 0.0000 0.0000 0.0000
# 2 -6.5800 31.5717 -8.0666 0.0000 0.0000 0.0000
# 3 62.9061 -8.0666 105.3318 0.0000 0.0000 0.0000
# 4 0.0000 0.0000 0.0000 -1.3105 0.0000 0.0000
# 5 0.0000 0.0000 0.0000 0.0000 -13.4932 0.0000
# 6 0.0000 0.0000 0.0000 0.0000 0.0000 17.9113
#
#
#
# Elastic Compliance Matrix: (Units=1/GPa)
#
#
# Indices 1 2 3 4 5 6 
#
# 1 0.010078 0.000574 -0.005975 0.000000 0.000000 0.000000
# 2 0.000574 0.032339 0.002134 0.000000 0.000000 0.000000
# 3 -0.005975 0.002134 0.013226 0.000000 0.000000 0.000000
# 4 0.000000 0.000000 0.000000 -0.763052 0.000000 0.000000
# 5 0.000000 0.000000 0.000000 0.000000 -0.074111 0.000000
# 6 0.000000 0.000000 0.000000 0.000000 0.000000 0.055831
#
#
# Mechanical properties :
#
#
# Convention : Reuss Voigt Hill
#
# Bulk Modulus (GPa) = 20.36322 41.14599 30.75460
# Shear Modulus (GPa) = -7.11454 15.65722 4.27134
#
# Velocity S-wave (km/s) = -1.90006 2.81872 1.47223
# Velocity P-wave (km/s) = 2.34937 5.61007 4.30072
#
# Compressibility (1/GPa) = 0.04910815
#
# Stress axis : x y z
#
# Youngs Moduli (GPa) = 99.22252 30.92265 75.61073
#
# Poissons Ratio (x) = -0.01775 0.45178
# Poissons Ratio (y) = -0.05694 -0.16134
# Poissons Ratio (z) = 0.59286 -0.06599
#
# Static dielectric constant tensor:
#      x y z
#    x 1.705160 0.000000 0.000000 
#    y 0.000000 1.733100 0.000000 
#    z 0.000000 0.000000 1.681770 
# 
# From -- ./inp_files/60173.got.cif
#   From: 2010.05.17/outbox.cif.g08.bks.cpg/sg65_31_cif.got.tgz:60173.got - 2010.06.03 17:01:31.
