data_PCOD9484254
_publ_section_title
;
Structure prediction by ZEFSAII (Michael W. Deem and Ramdas Pophale) SiO2 
 PCOD9484254
Probable space group: C M M M
;
_chemical_formula_sum "Si O2"
_cell_formula_units_Z 104
_cell_length_a 33.808546
_cell_length_b 8.671607
_cell_length_c 21.223352
_cell_angle_alpha 90.000000
_cell_angle_beta 90.000000
_cell_angle_gamma 90.000000
_cell_volume 6222.144001
_symmetry_space_group_name_H-M "C M M M"
_symmetry_group_IT_number 65
_symmetry_cell_setting 'orthorhombic'
loop_
_space_group_symop_operation_xyz
x,y,z
-x,-y,z
x,-y,-z
-x,y,-z
-x,-y,-z
x,y,-z
-x,y,z
x,-y,z
1/2+x,1/2+y,z
1/2-x,1/2-y,z
1/2+x,1/2-y,-z
1/2-x,1/2+y,-z
1/2-x,1/2-y,-z
1/2+x,1/2+y,-z
1/2-x,1/2+y,z
1/2+x,1/2-y,z
loop_
_atom_site_type_symbol
_atom_site_label
_atom_site_fract_x
_atom_site_fract_y
_atom_site_fract_z
Si Si1 0.412517 0.314748 0.868558
Si Si2 0.925936 0.185377 0.631535
Si Si3 0.500000 0.686858 0.849121
Si Si4 0.335660 0.814212 0.069756
Si Si5 0.368635 0.685186 0.739176
Si Si6 0.000000 0.315578 0.291710
Si Si7 0.546677 0.814935 0.500000
Si Si8 0.707062 0.815625 0.803784
O O1 0.409902 0.500000 0.874696
O O2 0.458029 0.268736 0.879799
O O3 0.379951 0.239383 0.913322
O O4 0.398829 0.275530 0.796778
O O5 0.887304 0.229698 0.672197
O O6 0.962266 0.248217 0.672482
O O7 0.931721 0.252909 0.562204
O O8 0.927665 0.000000 0.628782
O O9 0.500000 0.500000 0.843651
O O10 0.500000 0.757440 0.779580
O O11 0.307594 0.760477 0.126781
O O12 0.334882 0.000000 0.070136
O O13 0.324226 0.759874 0.000000
O O14 0.364349 0.500000 0.740324
O O15 0.327031 0.760847 0.756250
O O16 0.000000 0.500000 0.294774
O O17 0.500000 0.766185 0.500000
O O18 0.546953 0.000000 0.500000
O O19 0.750000 0.750000 0.789279
O O20 0.708529 0.000000 0.804258
#
# Coordination Sequence:
#
# PCOD9484254 Si02
#       8
#    16  16   8  16  16   8   8  16
#     4   9  17  30  49  71  94 124 166 213 254 295
#     4  11  21  35  53  72 100 143 182 214 256 303
#     4  10  18  32  48  68  96 129 169 216 260 300
#     4   9  19  35  51  69  98 133 165 201 249 304
#     4   9  18  33  53  75  99 128 167 210 253 302
#     4  12  22  29  45  73 103 134 172 217 259 302
#     4  11  23  35  47  73 109 144 183 226 258 292
#     4  10  20  34  54  79 105 130 159 200 252 306
#
# _framework density 16.714496
#
# number of rings (size 3 to 8) (size 9 to 14) (size 15 to 20)
#    0.000    2.077    2.308    1.846    0.000    3.385 
#    0.000    0.385    0.000    2.308    0.000    0.538 
#    0.000    0.000    0.000    0.000    0.000    0.000 
#
# Total GULP energy -290069.544986 kJ/mol
# GULP energy per Si atom -5578.260481 kJ/mol
# Density = 1.667645 g / cm^3
# Si number density = 16.714496 Si / 1000 Ang^3
#
#
#
# Elastic Constant Matrix: (Units=GPa)
#
#
# Indices 1 2 3 4 5 6 
#
# 1 127.1912 30.2796 39.3611 0.0000 0.0000 0.0000
# 2 30.2796 23.2733 22.2060 0.0000 0.0000 0.0000
# 3 39.3611 22.2060 78.2121 0.0000 0.0000 0.0000
# 4 0.0000 0.0000 0.0000 19.1025 0.0000 0.0000
# 5 0.0000 0.0000 0.0000 0.0000 11.7817 0.0000
# 6 0.0000 0.0000 0.0000 0.0000 0.0000 23.8266
#
#
#
# Elastic Compliance Matrix: (Units=1/GPa)
#
#
# Indices 1 2 3 4 5 6 
#
# 1 0.011645 -0.013111 -0.002138 0.000000 0.000000 0.000000
# 2 -0.013111 0.073693 -0.014325 0.000000 0.000000 0.000000
# 3 -0.002138 -0.014325 0.017929 0.000000 0.000000 0.000000
# 4 0.000000 0.000000 0.000000 0.052349 0.000000 0.000000
# 5 0.000000 0.000000 0.000000 0.000000 0.084877 0.000000
# 6 0.000000 0.000000 0.000000 0.000000 0.000000 0.041970
#
#
# Mechanical properties :
#
#
# Convention : Reuss Voigt Hill
#
# Bulk Modulus (GPa) = 22.66560 45.81889 34.24225
# Shear Modulus (GPa) = 14.03246 20.06417 17.04832
#
# Velocity S-wave (km/s) = 2.90062 3.46845 3.19716
# Velocity P-wave (km/s) = 4.98077 6.59639 5.84467
#
# Compressibility (1/GPa) = 0.04411972
#
# Stress axis : x y z
#
# Youngs Moduli (GPa) = 85.87380 13.56982 55.77584
#
# Poissons Ratio (x) = 0.17791 0.11926
# Poissons Ratio (y) = 1.12585 0.79898
# Poissons Ratio (z) = 0.18361 0.19439
#
# Static dielectric constant tensor:
#      x y z
#    x 1.539000 0.000000 0.000000 
#    y 0.000000 1.561610 0.000000 
#    z 0.000000 0.000000 1.569570 
# 
# From -- ./inp_files/66460.got.cif
#   From: 2010.05.17/outbox.cif.g08.bks.cpg/sg65_34_cif.got.tgz:66460.got - 2010.06.03 17:01:31.
