data_PCOD9484134
_publ_section_title
;
Structure prediction by ZEFSAII (Michael W. Deem and Ramdas Pophale) SiO2 
 PCOD9484134
Probable space group: C M M M
;
_chemical_formula_sum "Si O2"
_cell_formula_units_Z 88
_cell_length_a 14.733738
_cell_length_b 17.205749
_cell_length_c 18.992297
_cell_angle_alpha 90.000000
_cell_angle_beta 90.000000
_cell_angle_gamma 90.000000
_cell_volume 4814.642210
_symmetry_space_group_name_H-M "C M M M"
_symmetry_group_IT_number 65
_symmetry_cell_setting 'orthorhombic'
loop_
_space_group_symop_operation_xyz
x,y,z
-x,-y,z
x,-y,-z
-x,y,-z
-x,-y,-z
x,y,-z
-x,y,z
x,-y,z
1/2+x,1/2+y,z
1/2-x,1/2-y,z
1/2+x,1/2-y,-z
1/2-x,1/2+y,-z
1/2-x,1/2-y,-z
1/2+x,1/2+y,-z
1/2-x,1/2+y,z
1/2+x,1/2-y,z
loop_
_atom_site_type_symbol
_atom_site_label
_atom_site_fract_x
_atom_site_fract_y
_atom_site_fract_z
Si Si1 0.602775 0.905820 0.919429
Si Si2 0.774093 0.594047 0.790514
Si Si3 0.649900 0.287529 0.581055
Si Si4 0.610461 0.000000 0.578228
Si Si5 0.601251 0.144445 0.670151
Si Si6 0.394735 0.407578 0.699322
O O1 0.500000 0.881607 0.896761
O O2 0.684389 0.885391 0.866547
O O3 0.600916 0.000000 0.920690
O O4 0.616691 0.879553 0.000000
O O5 0.790125 0.500000 0.780519
O O6 0.833117 0.644181 0.735974
O O7 0.670560 0.608451 0.766410
O O8 0.620448 0.299533 0.500000
O O9 0.750000 0.250000 0.578889
O O10 0.597069 0.221485 0.624150
O O11 0.641856 0.362760 0.630434
O O12 0.636893 0.076409 0.619587
O O13 0.500000 0.000000 0.574323
O O14 0.647423 0.000000 0.500000
O O15 0.500000 0.122832 0.694032
O O16 0.500000 0.385713 0.711243
O O17 0.391012 0.500000 0.686890
#
# Coordination Sequence:
#
# PCOD9484134 Si02
#       6
#    16  16  16   8  16  16
#     4   8  14  25  45  77 115 149 176 207 257 321
#     4  10  18  31  51  76 108 142 178 221 263 312
#     4  11  23  39  56  76 104 137 180 235 290 333
#     4   9  18  30  44  68 102 136 168 199 248 326
#     4  11  20  31  50  76 104 138 174 212 271 336
#     4  10  22  40  59  77 100 140 193 238 276 319
#
# _framework density 18.277577999999998
#
# number of rings (size 3 to 8) (size 9 to 14) (size 15 to 20)
#    0.000    2.091    2.727    2.182    0.000    3.273 
#    0.000    0.909    0.000    0.545    0.000    6.364 
#    0.000    2.909    0.000    0.182    0.000    0.000 
#
# Total GULP energy -245163.310004 kJ/mol
# GULP energy per Si atom -5571.893409 kJ/mol
# Density = 1.823598 g / cm^3
# Si number density = 18.277578 Si / 1000 Ang^3
#
#
#
# Elastic Constant Matrix: (Units=GPa)
#
#
# Indices 1 2 3 4 5 6 
#
# 1 120.7133 21.0627 64.8714 0.0000 0.0000 0.0000
# 2 21.0627 33.1038 23.3138 0.0000 0.0000 0.0000
# 3 64.8714 23.3138 124.9604 0.0000 0.0000 0.0000
# 4 0.0000 0.0000 0.0000 19.2018 0.0000 0.0000
# 5 0.0000 0.0000 0.0000 0.0000 18.4209 0.0000
# 6 0.0000 0.0000 0.0000 0.0000 0.0000 16.6021
#
#
#
# Elastic Compliance Matrix: (Units=1/GPa)
#
#
# Indices 1 2 3 4 5 6 
#
# 1 0.011870 -0.003699 -0.005472 0.000000 0.000000 0.000000
# 2 -0.003699 0.035930 -0.004783 0.000000 0.000000 0.000000
# 3 -0.005472 -0.004783 0.011736 0.000000 0.000000 0.000000
# 4 0.000000 0.000000 0.000000 0.052078 0.000000 0.000000
# 5 0.000000 0.000000 0.000000 0.000000 0.054286 0.000000
# 6 0.000000 0.000000 0.000000 0.000000 0.000000 0.060233
#
#
# Mechanical properties :
#
#
# Convention : Reuss Voigt Hill
#
# Bulk Modulus (GPa) = 31.61791 55.25258 43.43524
# Shear Modulus (GPa) = 18.89753 22.14695 20.52224
#
# Velocity S-wave (km/s) = 3.21895 3.48473 3.35447
# Velocity P-wave (km/s) = 5.58138 6.81809 6.23050
#
# Compressibility (1/GPa) = 0.03162764
#
# Stress axis : x y z
#
# Youngs Moduli (GPa) = 84.24448 27.83183 85.20966
#
# Poissons Ratio (x) = 0.10294 0.46628
# Poissons Ratio (y) = 0.31160 0.40758
# Poissons Ratio (z) = 0.46100 0.13313
#
# Static dielectric constant tensor:
#      x y z
#    x 1.690230 0.000000 0.000000 
#    y 0.000000 1.654460 0.000000 
#    z 0.000000 0.000000 1.628040 
# 
# From -- ./inp_files/52982.got.cif
#   From: 2010.05.17/outbox.cif.g08.bks.cpg/sg65_27_cif.got.tgz:52982.got - 2010.06.03 17:01:31.
