data_PCOD9484093
_publ_section_title
;
Structure prediction by ZEFSAII (Michael W. Deem and Ramdas Pophale) SiO2 
 PCOD9484093
Probable space group: C M M M
;
_chemical_formula_sum "Si O2"
_cell_formula_units_Z 80
_cell_length_a 13.328377
_cell_length_b 19.252857
_cell_length_c 18.603648
_cell_angle_alpha 90.000000
_cell_angle_beta 90.000000
_cell_angle_gamma 90.000000
_cell_volume 4773.869768
_symmetry_space_group_name_H-M "C M M M"
_symmetry_group_IT_number 65
_symmetry_cell_setting 'orthorhombic'
loop_
_space_group_symop_operation_xyz
x,y,z
-x,-y,z
x,-y,-z
-x,y,-z
-x,-y,-z
x,y,-z
-x,y,z
x,-y,z
1/2+x,1/2+y,z
1/2-x,1/2-y,z
1/2+x,1/2-y,-z
1/2-x,1/2+y,-z
1/2-x,1/2-y,-z
1/2+x,1/2+y,-z
1/2-x,1/2+y,z
1/2+x,1/2-y,z
loop_
_atom_site_type_symbol
_atom_site_label
_atom_site_fract_x
_atom_site_fract_y
_atom_site_fract_z
Si Si1 0.887018 0.581654 0.366995
Si Si2 0.620649 0.079578 0.919327
Si Si3 0.387622 0.693123 0.269862
Si Si4 0.202693 0.173343 0.578728
Si Si5 0.324987 0.150575 0.774565
O O1 0.880300 0.500000 0.381832
O O2 0.796284 0.622496 0.404571
O O3 0.871386 0.596338 0.282060
O O4 0.000000 0.605545 0.387178
O O5 0.500000 0.078347 0.920807
O O6 0.650411 0.130558 0.855528
O O7 0.654082 0.000000 0.904690
O O8 0.654986 0.098912 0.000000
O O9 0.500000 0.675625 0.247042
O O10 0.372938 0.676451 0.354428
O O11 0.366643 0.774456 0.251923
O O12 0.295127 0.653307 0.233703
O O13 0.159826 0.157581 0.500000
O O14 0.250000 0.250000 0.577319
#
# Coordination Sequence:
#
# PCOD9484093 Si02
#       5
#    16  16  16  16  16
#     4  10  19  31  51  79 106 131 163 210 266 313
#     4   9  17  29  49  78 106 131 159 192 240 304
#     4  10  19  33  51  72  96 128 175 215 245 292
#     4  10  20  34  49  70  99 135 173 205 250 310
#     4  10  18  31  50  74 101 133 164 204 251 296
#
# _framework density 16.757894
#
# number of rings (size 3 to 8) (size 9 to 14) (size 15 to 20)
#    0.000    2.200    4.000    3.000    0.000    2.800 
#    0.000    5.000    0.000   16.800    0.000    7.000 
#    0.000    0.000    0.000    0.000    0.000    0.000 
#
# Total GULP energy -222820.308482 kJ/mol
# GULP energy per Si atom -5570.507712 kJ/mol
# Density = 1.671975 g / cm^3
# Si number density = 16.757894 Si / 1000 Ang^3
#
#
#
# Elastic Constant Matrix: (Units=GPa)
#
#
# Indices 1 2 3 4 5 6 
#
# 1 84.5549 20.9823 16.6184 0.0000 0.0000 0.0000
# 2 20.9823 52.8834 28.4866 0.0000 0.0000 0.0000
# 3 16.6184 28.4866 113.5791 0.0000 0.0000 0.0000
# 4 0.0000 0.0000 0.0000 26.4675 0.0000 0.0000
# 5 0.0000 0.0000 0.0000 0.0000 7.5903 0.0000
# 6 0.0000 0.0000 0.0000 0.0000 0.0000 15.1200
#
#
#
# Elastic Compliance Matrix: (Units=1/GPa)
#
#
# Indices 1 2 3 4 5 6 
#
# 1 0.013168 -0.004841 -0.000713 0.000000 0.000000 0.000000
# 2 -0.004841 0.023643 -0.005222 0.000000 0.000000 0.000000
# 3 -0.000713 -0.005222 0.010218 0.000000 0.000000 0.000000
# 4 0.000000 0.000000 0.000000 0.037782 0.000000 0.000000
# 5 0.000000 0.000000 0.000000 0.000000 0.131747 0.000000
# 6 0.000000 0.000000 0.000000 0.000000 0.000000 0.066138
#
#
# Mechanical properties :
#
#
# Convention : Reuss Voigt Hill
#
# Bulk Modulus (GPa) = 39.24747 42.57689 40.91218
# Shear Modulus (GPa) = 15.98778 22.16423 19.07600
#
# Velocity S-wave (km/s) = 3.09211 3.64072 3.37757
# Velocity P-wave (km/s) = 6.01825 6.56775 6.29900
#
# Compressibility (1/GPa) = 0.02547935
#
# Stress axis : x y z
#
# Youngs Moduli (GPa) = 75.94211 42.29608 97.86360
#
# Poissons Ratio (x) = 0.20474 0.06974
# Poissons Ratio (y) = 0.36762 0.51100
# Poissons Ratio (z) = 0.05411 0.22085
#
# Static dielectric constant tensor:
#      x y z
#    x 1.556420 0.000000 0.000000 
#    y 0.000000 1.562210 0.000000 
#    z 0.000000 0.000000 1.592500 
# 
# From -- ./inp_files/52875.got.cif
#   From: 2010.05.17/outbox.cif.g08.bks.cpg/sg65_27_cif.got.tgz:52875.got - 2010.06.03 17:01:31.
