data_PCOD9484483
_publ_section_title
;
Structure prediction by ZEFSAII (Michael W. Deem and Ramdas Pophale) SiO2 
 PCOD9484483
Probable space group: C M M M
;
_chemical_formula_sum "Si O2"
_cell_formula_units_Z 76
_cell_length_a 32.806038
_cell_length_b 16.904407
_cell_length_c 7.664372
_cell_angle_alpha 90.000000
_cell_angle_beta 90.000000
_cell_angle_gamma 90.000000
_cell_volume 4250.404862
_symmetry_space_group_name_H-M "C M M M"
_symmetry_group_IT_number 65
_symmetry_cell_setting 'orthorhombic'
loop_
_space_group_symop_operation_xyz
x,y,z
-x,-y,z
x,-y,-z
-x,y,-z
-x,-y,-z
x,y,-z
-x,y,z
x,-y,z
1/2+x,1/2+y,z
1/2-x,1/2-y,z
1/2+x,1/2-y,-z
1/2-x,1/2+y,-z
1/2-x,1/2-y,-z
1/2+x,1/2+y,-z
1/2-x,1/2+y,z
1/2+x,1/2-y,z
loop_
_atom_site_type_symbol
_atom_site_label
_atom_site_fract_x
_atom_site_fract_y
_atom_site_fract_z
Si Si1 0.088889 0.590300 0.792353
Si Si2 0.831468 0.880498 0.305255
Si Si3 0.000000 0.409847 0.707703
Si Si4 0.238257 0.589715 0.211242
Si Si5 0.355158 0.500000 0.000000
Si Si6 0.663279 0.198343 0.212366
O O1 0.090578 0.500000 0.721312
O O2 0.124842 0.646148 0.727026
O O3 0.043534 0.624270 0.762271
O O4 0.094630 0.584327 0.000000
O O5 0.844437 0.903064 0.500000
O O6 0.782852 0.895574 0.286761
O O7 0.852011 0.931369 0.153654
O O8 0.838357 0.787342 0.278161
O O9 0.000000 0.500000 0.780059
O O10 0.000000 0.413218 0.500000
O O11 0.224923 0.500000 0.253230
O O12 0.204698 0.653289 0.265283
O O13 0.242514 0.593794 0.000000
O O14 0.663267 0.200570 0.000000
#
# Coordination Sequence:
#
# PCOD9484483 Si02
#       6
#    16  16   8  16   4  16
#     4   9  17  31  51  77 105 143 184 213 249 310
#     4  12  23  37  57  77 100 136 180 224 273 319
#     4   9  17  29  47  69 101 143 178 215 260 297
#     4  10  18  33  52  73 104 144 179 217 263 311
#     4  12  22  44  58  74  98 137 174 233 266 330
#     4  10  20  33  51  76 109 141 173 220 271 308
#
# _framework density 17.880649999999999
#
# number of rings (size 3 to 8) (size 9 to 14) (size 15 to 20)
#    0.000    1.789    3.158    1.895    0.000    8.000 
#    0.000    0.000    0.000    3.789    0.000    0.000 
#    0.000    1.684    0.000    3.053    0.000    0.105 
#
# Total GULP energy -211593.888280 kJ/mol
# GULP energy per Si atom -5568.260218 kJ/mol
# Density = 1.783995 g / cm^3
# Si number density = 17.880650 Si / 1000 Ang^3
#
#
#
# Elastic Constant Matrix: (Units=GPa)
#
#
# Indices 1 2 3 4 5 6 
#
# 1 22.2462 12.7460 2.9107 0.0000 0.0000 0.0000
# 2 12.7460 112.0387 29.1543 0.0000 0.0000 0.0000
# 3 2.9107 29.1543 89.9294 0.0000 0.0000 0.0000
# 4 0.0000 0.0000 0.0000 -11.2657 0.0000 0.0000
# 5 0.0000 0.0000 0.0000 0.0000 180.7457 0.0000
# 6 0.0000 0.0000 0.0000 0.0000 0.0000 35.4697
#
#
#
# Elastic Compliance Matrix: (Units=1/GPa)
#
#
# Indices 1 2 3 4 5 6 
#
# 1 0.048090 -0.005533 0.000237 0.000000 0.000000 0.000000
# 2 -0.005533 0.010384 -0.003187 0.000000 0.000000 0.000000
# 3 0.000237 -0.003187 0.012145 0.000000 0.000000 0.000000
# 4 0.000000 0.000000 0.000000 -0.088765 0.000000 0.000000
# 5 0.000000 0.000000 0.000000 0.000000 0.005533 0.000000
# 6 0.000000 0.000000 0.000000 0.000000 0.000000 0.028193
#
#
# Mechanical properties :
#
#
# Convention : Reuss Voigt Hill
#
# Bulk Modulus (GPa) = 18.63784 34.87069 26.75427
# Shear Modulus (GPa) = 99.14444 52.95016 76.04730
#
# Velocity S-wave (km/s) = 7.45441 5.44770 6.52862
# Velocity P-wave (km/s) = 9.19441 7.68857 8.47500
#
# Compressibility (1/GPa) = 0.05365430
#
# Stress axis : x y z
#
# Youngs Moduli (GPa) = 20.79415 96.29888 82.33506
#
# Poissons Ratio (x) = 0.53279 -0.01953
# Poissons Ratio (y) = 0.11505 0.26244
# Poissons Ratio (z) = -0.00493 0.30695
#
# Static dielectric constant tensor:
#      x y z
#    x 1.606260 0.000000 0.000000 
#    y 0.000000 1.605960 0.000000 
#    z 0.000000 0.000000 1.661510 
# 
# From -- ./inp_files/18203.got.cif
#   From: 2010.05.17/outbox.cif.g08.bks.cpg/sg65_10_cif.got.tgz:18203.got - 2010.06.03 17:01:31.
