data_PCOD9484183
_publ_section_title
;
Structure prediction by ZEFSAII (Michael W. Deem and Ramdas Pophale) SiO2 
 PCOD9484183
Probable space group: C M M M
;
_chemical_formula_sum "Si O2"
_cell_formula_units_Z 64
_cell_length_a 13.719462
_cell_length_b 13.345059
_cell_length_c 17.441163
_cell_angle_alpha 90.000000
_cell_angle_beta 90.000000
_cell_angle_gamma 90.000000
_cell_volume 3193.250731
_symmetry_space_group_name_H-M "C M M M"
_symmetry_group_IT_number 65
_symmetry_cell_setting 'orthorhombic'
loop_
_space_group_symop_operation_xyz
x,y,z
-x,-y,z
x,-y,-z
-x,y,-z
-x,-y,-z
x,y,-z
-x,y,z
x,-y,z
1/2+x,1/2+y,z
1/2-x,1/2-y,z
1/2+x,1/2-y,-z
1/2-x,1/2+y,-z
1/2-x,1/2-y,-z
1/2+x,1/2+y,-z
1/2-x,1/2+y,z
1/2+x,1/2-y,z
loop_
_atom_site_type_symbol
_atom_site_label
_atom_site_fract_x
_atom_site_fract_y
_atom_site_fract_z
Si Si1 0.888726 0.881389 0.235787
Si Si2 0.614858 0.195584 0.337274
Si Si3 0.810051 0.382911 0.820263
Si Si4 0.618849 0.117106 0.500000
Si Si5 0.000000 0.622478 0.088556
O O1 0.875807 0.810739 0.310114
O O2 0.802918 0.849398 0.177271
O O3 0.000000 0.866140 0.208587
O O4 0.877701 0.000000 0.252066
O O5 0.500000 0.171038 0.335698
O O6 0.662819 0.132723 0.268942
O O7 0.652032 0.169321 0.421441
O O8 0.806576 0.500000 0.839432
O O9 0.901361 0.343045 0.868873
O O10 0.500000 0.122117 0.500000
O O11 0.645675 0.000000 0.500000
O O12 0.000000 0.500000 0.091745
O O13 0.000000 0.652142 0.000000
#
# Coordination Sequence:
#
# PCOD9484183 Si02
#       5
#    16  16  16   8   8
#     4   9  19  34  51  73 102 144 195 230 256 308
#     4  10  18  31  52  78 107 143 182 227 275 322
#     4  10  18  31  54  81 108 137 174 220 274 331
#     4   9  18  30  48  79 118 148 178 226 283 334
#     4   9  18  32  54  87 118 138 163 213 284 346
#
# _framework density 20.042272000000001
#
# number of rings (size 3 to 8) (size 9 to 14) (size 15 to 20)
#    0.000    2.500    1.250    1.500    0.000    1.000 
#    0.000    3.125    0.000   10.500    0.000    5.250 
#    0.000    0.000    0.000    0.000    0.000    0.000 
#
# Total GULP energy -178308.911580 kJ/mol
# GULP energy per Si atom -5572.153487 kJ/mol
# Density = 1.999666 g / cm^3
# Si number density = 20.042272 Si / 1000 Ang^3
#
#
#
# Elastic Constant Matrix: (Units=GPa)
#
#
# Indices 1 2 3 4 5 6 
#
# 1 160.8267 47.5403 87.0934 0.0000 0.0000 0.0000
# 2 47.5403 69.4822 10.5249 0.0000 0.0000 0.0000
# 3 87.0934 10.5249 101.7960 0.0000 0.0000 0.0000
# 4 0.0000 0.0000 0.0000 14.4108 0.0000 0.0000
# 5 0.0000 0.0000 0.0000 0.0000 5.1747 0.0000
# 6 0.0000 0.0000 0.0000 0.0000 0.0000 28.4270
#
#
#
# Elastic Compliance Matrix: (Units=1/GPa)
#
#
# Indices 1 2 3 4 5 6 
#
# 1 0.015480 -0.008722 -0.012342 0.000000 0.000000 0.000000
# 2 -0.008722 0.019535 0.005442 0.000000 0.000000 0.000000
# 3 -0.012342 0.005442 0.019821 0.000000 0.000000 0.000000
# 4 0.000000 0.000000 0.000000 0.069392 0.000000 0.000000
# 5 0.000000 0.000000 0.000000 0.000000 0.193248 0.000000
# 6 0.000000 0.000000 0.000000 0.000000 0.000000 0.035178
#
#
# Mechanical properties :
#
#
# Convention : Reuss Voigt Hill
#
# Bulk Modulus (GPa) = 42.38697 69.15799 55.77248
# Shear Modulus (GPa) = 12.76287 22.06559 17.41423
#
# Velocity S-wave (km/s) = 2.52622 3.32166 2.95087
# Velocity P-wave (km/s) = 5.45012 7.02084 6.28474
#
# Compressibility (1/GPa) = 0.02359215
#
# Stress axis : x y z
#
# Youngs Moduli (GPa) = 64.60006 51.18922 50.45265
#
# Poissons Ratio (x) = 0.44647 0.62270
# Poissons Ratio (y) = 0.56343 -0.27458
# Poissons Ratio (z) = 0.79731 -0.27859
#
# Static dielectric constant tensor:
#      x y z
#    x 1.782450 0.000000 0.000000 
#    y 0.000000 1.739130 0.000000 
#    z 0.000000 0.000000 1.659840 
# 
# From -- ./inp_files/52675.got.cif
#   From: 2010.05.17/outbox.cif.g08.bks.cpg/sg65_27_cif.got.tgz:52675.got - 2010.06.03 17:01:31.
