data_PCOD9484236
_publ_section_title
;
Structure prediction by ZEFSAII (Michael W. Deem and Ramdas Pophale) SiO2 
 PCOD9484236
Probable space group: C M M M
;
_chemical_formula_sum "Si O2"
_cell_formula_units_Z 96
_cell_length_a 8.499275
_cell_length_b 29.613879
_cell_length_c 21.224405
_cell_angle_alpha 90.000000
_cell_angle_beta 90.000000
_cell_angle_gamma 90.000000
_cell_volume 5342.108484
_symmetry_space_group_name_H-M "C M M M"
_symmetry_group_IT_number 65
_symmetry_cell_setting 'orthorhombic'
loop_
_space_group_symop_operation_xyz
x,y,z
-x,-y,z
x,-y,-z
-x,y,-z
-x,-y,-z
x,y,-z
-x,y,z
x,-y,z
1/2+x,1/2+y,z
1/2-x,1/2-y,z
1/2+x,1/2-y,-z
1/2-x,1/2+y,-z
1/2-x,1/2-y,-z
1/2+x,1/2+y,-z
1/2-x,1/2+y,z
1/2+x,1/2-y,z
loop_
_atom_site_type_symbol
_atom_site_label
_atom_site_fract_x
_atom_site_fract_y
_atom_site_fract_z
Si Si1 0.687281 0.298839 0.384465
Si Si2 0.308991 0.610518 0.189778
Si Si3 0.191693 0.051814 0.928698
Si Si4 0.687334 0.797969 0.241683
Si Si5 0.811853 0.606959 0.569723
Si Si6 0.689755 0.448259 0.311202
O O1 0.500000 0.299653 0.389004
O O2 0.750000 0.250000 0.405833
O O3 0.737137 0.304025 0.311153
O O4 0.758305 0.341424 0.420428
O O5 0.500000 0.613443 0.190089
O O6 0.257786 0.585802 0.125758
O O7 0.239065 0.659974 0.199649
O O8 0.260535 0.580005 0.249744
O O9 0.000000 0.051962 0.928303
O O10 0.239355 0.000000 0.915181
O O11 0.241550 0.063271 0.000000
O O12 0.500000 0.796331 0.248866
O O13 0.750000 0.750000 0.217185
O O14 0.761501 0.591560 0.500000
O O15 0.743608 0.576947 0.625860
O O16 0.000000 0.605220 0.573185
O O17 0.500000 0.448896 0.310486
O O18 0.745665 0.500000 0.308905
#
# Coordination Sequence:
#
# PCOD9484236 Si02
#       6
#    16  16  16  16  16  16
#     4  11  21  36  58  82 108 138 173 218 271 327
#     4  10  18  31  54  83 113 144 180 223 268 314
#     4   8  14  26  48  81 118 152 185 220 260 311
#     4  11  21  34  54  80 110 141 177 220 269 323
#     4  11  24  40  56  76 105 142 182 225 273 323
#     4  10  21  36  55  79 106 139 181 227 272 321
#
# _framework density 17.970431999999999
#
# number of rings (size 3 to 8) (size 9 to 14) (size 15 to 20)
#    0.000    1.833    1.667    5.500    0.000    4.333 
#    0.000    1.667    0.000    2.500    0.000    1.167 
#    0.000    0.000    0.000    0.000    0.000    0.000 
#
# Total GULP energy -268071.031703 kJ/mol
# GULP energy per Si atom -5584.813160 kJ/mol
# Density = 1.792953 g / cm^3
# Si number density = 17.970432 Si / 1000 Ang^3
#
#
#
# Elastic Constant Matrix: (Units=GPa)
#
#
# Indices 1 2 3 4 5 6 
#
# 1 14.0160 8.6236 9.7298 0.0000 0.0000 0.0000
# 2 8.6236 130.1679 72.2767 0.0000 0.0000 0.0000
# 3 9.7298 72.2767 115.3201 0.0000 0.0000 0.0000
# 4 0.0000 0.0000 0.0000 64.4792 0.0000 0.0000
# 5 0.0000 0.0000 0.0000 0.0000 8.2281 0.0000
# 6 0.0000 0.0000 0.0000 0.0000 0.0000 23.2769
#
#
#
# Elastic Compliance Matrix: (Units=1/GPa)
#
#
# Indices 1 2 3 4 5 6 
#
# 1 0.076220 -0.002268 -0.005009 0.000000 0.000000 0.000000
# 2 -0.002268 0.011850 -0.007236 0.000000 0.000000 0.000000
# 3 -0.005009 -0.007236 0.013629 0.000000 0.000000 0.000000
# 4 0.000000 0.000000 0.000000 0.015509 0.000000 0.000000
# 5 0.000000 0.000000 0.000000 0.000000 0.121535 0.000000
# 6 0.000000 0.000000 0.000000 0.000000 0.000000 0.042961
#
#
# Mechanical properties :
#
#
# Convention : Reuss Voigt Hill
#
# Bulk Modulus (GPa) = 13.76028 48.97380 31.36704
# Shear Modulus (GPa) = 14.92736 30.45510 22.69123
#
# Velocity S-wave (km/s) = 2.88525 4.12118 3.55730
# Velocity P-wave (km/s) = 4.33282 7.06803 5.86219
#
# Compressibility (1/GPa) = 0.07267296
#
# Stress axis : x y z
#
# Youngs Moduli (GPa) = 13.11995 84.38520 73.37168
#
# Poissons Ratio (x) = 0.19139 0.36754
# Poissons Ratio (y) = 0.02976 0.53091
# Poissons Ratio (z) = 0.06572 0.61060
#
# Static dielectric constant tensor:
#      x y z
#    x 1.613090 0.000000 0.000000 
#    y 0.000000 1.608990 0.000000 
#    z 0.000000 0.000000 1.611170 
# 
# From -- ./inp_files/60168.got.cif
#   From: 2010.05.17/outbox.cif.g08.bks.cpg/sg65_31_cif.got.tgz:60168.got - 2010.06.03 17:01:31.
