data_PCOD9484742
_publ_section_title
;
Structure prediction by ZEFSAII (Michael W. Deem and Ramdas Pophale) SiO2 
 PCOD9484742
Probable space group: C M M M
;
_chemical_formula_sum "Si O2"
_cell_formula_units_Z 72
_cell_length_a 9.057842
_cell_length_b 26.271417
_cell_length_c 19.984914
_cell_angle_alpha 90.000000
_cell_angle_beta 90.000000
_cell_angle_gamma 90.000000
_cell_volume 4755.656986
_symmetry_space_group_name_H-M "C M M M"
_symmetry_group_IT_number 65
_symmetry_cell_setting 'orthorhombic'
loop_
_space_group_symop_operation_xyz
x,y,z
-x,-y,z
x,-y,-z
-x,y,-z
-x,-y,-z
x,y,-z
-x,y,z
x,-y,z
1/2+x,1/2+y,z
1/2-x,1/2-y,z
1/2+x,1/2-y,-z
1/2-x,1/2+y,-z
1/2-x,1/2-y,-z
1/2+x,1/2+y,-z
1/2-x,1/2+y,z
1/2+x,1/2-y,z
loop_
_atom_site_type_symbol
_atom_site_label
_atom_site_fract_x
_atom_site_fract_y
_atom_site_fract_z
Si Si1 0.674220 0.500000 0.419968
Si Si2 0.822638 0.405496 0.344986
Si Si3 0.322840 0.803152 0.422214
Si Si4 0.327831 0.061745 0.925730
Si Si5 0.674207 0.561237 0.210641
O O1 0.500000 0.500000 0.403062
O O2 0.689910 0.500000 0.500000
O O3 0.750390 0.450488 0.388442
O O4 0.781311 0.351289 0.377165
O O5 0.762869 0.412181 0.270054
O O6 0.000000 0.410456 0.346427
O O7 0.281356 0.812832 0.500000
O O8 0.500000 0.797983 0.419767
O O9 0.250000 0.750000 0.401527
O O10 0.500000 0.075642 0.916655
O O11 0.232119 0.077783 0.862297
O O12 0.322376 0.000000 0.926657
O O13 0.279669 0.078935 0.000000
O O14 0.500000 0.570224 0.217232
O O15 0.698601 0.500000 0.216740
#
# Coordination Sequence:
#
# PCOD9484742 Si02
#       5
#     8  16  16  16  16
#     4  11  23  35  47  67  94 123 156 193 235 281
#     4  11  21  33  50  69  93 125 159 194 232 281
#     4   9  19  35  53  72  91 115 152 196 242 287
#     4   8  14  25  41  60  84 118 159 195 227 269
#     4  10  19  29  42  63  94 126 158 194 233 276
#
# _framework density 15.139863
#
# number of rings (size 3 to 8) (size 9 to 14) (size 15 to 20)
#    0.000    2.333    1.111    3.000    0.000    4.889 
#    0.000    4.444    0.000    0.000    0.000    0.000 
#    0.000    0.889    0.000    2.889    0.000    3.556 
#
# Total GULP energy -200733.128892 kJ/mol
# GULP energy per Si atom -5575.920247 kJ/mol
# Density = 1.510540 g / cm^3
# Si number density = 15.139863 Si / 1000 Ang^3
#
#
#
# Elastic Constant Matrix: (Units=GPa)
#
#
# Indices 1 2 3 4 5 6 
#
# 1 63.8441 48.3439 62.4776 0.0000 0.0000 0.0000
# 2 48.3439 90.2050 63.5347 0.0000 0.0000 0.0000
# 3 62.4776 63.5347 121.1316 0.0000 0.0000 0.0000
# 4 0.0000 0.0000 0.0000 11.5332 0.0000 0.0000
# 5 0.0000 0.0000 0.0000 0.0000 25.6423 0.0000
# 6 0.0000 0.0000 0.0000 0.0000 0.0000 20.8464
#
#
#
# Elastic Compliance Matrix: (Units=1/GPa)
#
#
# Indices 1 2 3 4 5 6 
#
# 1 0.036556 -0.010009 -0.013605 0.000000 0.000000 0.000000
# 2 -0.010009 0.020321 -0.005496 0.000000 0.000000 0.000000
# 3 -0.013605 -0.005496 0.018156 0.000000 0.000000 0.000000
# 4 0.000000 0.000000 0.000000 0.086706 0.000000 0.000000
# 5 0.000000 0.000000 0.000000 0.000000 0.038998 0.000000
# 6 0.000000 0.000000 0.000000 0.000000 0.000000 0.047970
#
#
# Mechanical properties :
#
#
# Convention : Reuss Voigt Hill
#
# Bulk Modulus (GPa) = 59.48085 69.32145 64.40115
# Shear Modulus (GPa) = 15.99836 18.32600 17.16218
#
# Velocity S-wave (km/s) = 3.25423 3.48292 3.37051
# Velocity P-wave (km/s) = 7.31388 7.87789 7.60112
#
# Compressibility (1/GPa) = 0.01681213
#
# Stress axis : x y z
#
# Youngs Moduli (GPa) = 27.35518 49.20959 55.07942
#
# Poissons Ratio (x) = 0.49254 0.74936
# Poissons Ratio (y) = 0.27380 0.30273
# Poissons Ratio (z) = 0.37217 0.27047
#
# Static dielectric constant tensor:
#      x y z
#    x 1.503110 0.000000 0.000000 
#    y 0.000000 1.468840 0.000000 
#    z 0.000000 0.000000 1.514230 
# 
# From -- ./inp_files/59258.got.cif
#   From: 2010.05.17/outbox.cif.g08.bks.cpg/sg65_30_cif.got.tgz:59258.got - 2010.06.03 17:01:31.
