data_PCOD9484737
_publ_section_title
;
Structure prediction by ZEFSAII (Michael W. Deem and Ramdas Pophale) SiO2 
 PCOD9484737
Probable space group: C M M M
;
_chemical_formula_sum "Si O2"
_cell_formula_units_Z 112
_cell_length_a 16.041279
_cell_length_b 26.912068
_cell_length_c 14.865456
_cell_angle_alpha 90.000000
_cell_angle_beta 90.000000
_cell_angle_gamma 90.000000
_cell_volume 6417.476687
_symmetry_space_group_name_H-M "C M M M"
_symmetry_group_IT_number 65
_symmetry_cell_setting 'orthorhombic'
loop_
_space_group_symop_operation_xyz
x,y,z
-x,-y,z
x,-y,-z
-x,y,-z
-x,-y,-z
x,y,-z
-x,y,z
x,-y,z
1/2+x,1/2+y,z
1/2-x,1/2-y,z
1/2+x,1/2-y,-z
1/2-x,1/2+y,-z
1/2-x,1/2-y,-z
1/2+x,1/2+y,-z
1/2-x,1/2+y,z
1/2+x,1/2-y,z
loop_
_atom_site_type_symbol
_atom_site_label
_atom_site_fract_x
_atom_site_fract_y
_atom_site_fract_z
Si Si1 0.100198 0.410940 0.397828
Si Si2 0.401103 0.848865 0.101076
Si Si3 0.652106 0.054540 0.207879
Si Si4 0.102551 0.253509 0.786121
Si Si5 0.674600 0.445859 0.894222
Si Si6 0.599902 0.660297 0.101553
Si Si7 0.398964 0.206896 0.401632
O O1 0.121966 0.426613 0.500000
O O2 0.143905 0.437704 0.314724
O O3 0.117884 0.351877 0.390193
O O4 0.000000 0.417361 0.387883
O O5 0.500000 0.841383 0.093196
O O6 0.389060 0.898756 0.158217
O O7 0.369354 0.800465 0.153856
O O8 0.365993 0.853385 0.000000
O O9 0.745795 0.054919 0.170216
O O10 0.616183 0.000000 0.184988
O O11 0.130883 0.201976 0.829767
O O12 0.130793 0.262679 0.684231
O O13 0.000000 0.253803 0.785783
O O14 0.632177 0.500000 0.882906
O O15 0.623027 0.396231 0.876303
O O16 0.700305 0.443569 0.000000
O O17 0.500000 0.663971 0.100055
O O18 0.629985 0.671250 0.000000
O O19 0.368230 0.222834 0.500000
O O20 0.500000 0.210636 0.402880
#
# Coordination Sequence:
#
# PCOD9484737 Si02
#       7
#    16  16  16  16  16  16  16
#     4   9  17  30  48  70  94 122 163 210 245 272
#     4  10  19  29  42  62  90 126 164 197 229 267
#     4  11  21  32  46  63  89 128 166 197 236 282
#     4   9  15  26  45  69  96 122 149 188 238 283
#     4   9  19  35  51  68  94 126 158 194 237 285
#     4   9  17  30  51  77  98 117 148 192 240 290
#     4   8  13  23  42  66  91 120 153 189 231 276
#
# _framework density 17.452342000000002
#
# number of rings (size 3 to 8) (size 9 to 14) (size 15 to 20)
#    0.000    2.714    1.429    2.143    0.000    4.286 
#    0.000    3.571    0.000    3.429    0.000    2.000 
#    0.000    0.000    0.000    8.714    0.000    0.286 
#
# Total GULP energy -311932.225256 kJ/mol
# GULP energy per Si atom -5570.218308 kJ/mol
# Density = 1.741262 g / cm^3
# Si number density = 17.452342 Si / 1000 Ang^3
#
#
#
# Elastic Constant Matrix: (Units=GPa)
#
#
# Indices 1 2 3 4 5 6 
#
# 1 3.3475 8.8766 11.6366 0.0000 0.0000 0.0000
# 2 8.8766 129.5152 78.1649 0.0000 0.0000 0.0000
# 3 11.6366 78.1649 130.5719 0.0000 0.0000 0.0000
# 4 0.0000 0.0000 0.0000 8.5399 0.0000 0.0000
# 5 0.0000 0.0000 0.0000 0.0000 12.7248 0.0000
# 6 0.0000 0.0000 0.0000 0.0000 0.0000 27.5071
#
#
#
# Elastic Compliance Matrix: (Units=1/GPa)
#
#
# Indices 1 2 3 4 5 6 
#
# 1 0.441253 -0.010191 -0.033224 0.000000 0.000000 0.000000
# 2 -0.010191 0.012324 -0.006469 0.000000 0.000000 0.000000
# 3 -0.033224 -0.006469 0.014492 0.000000 0.000000 0.000000
# 4 0.000000 0.000000 0.000000 0.117097 0.000000 0.000000
# 5 0.000000 0.000000 0.000000 0.000000 0.078587 0.000000
# 6 0.000000 0.000000 0.000000 0.000000 0.000000 0.036354
#
#
# Mechanical properties :
#
#
# Convention : Reuss Voigt Hill
#
# Bulk Modulus (GPa) = 2.71517 51.19899 26.95708
# Shear Modulus (GPa) = 5.41921 20.73812 13.07866
#
# Velocity S-wave (km/s) = 1.76405 3.45087 2.74047
# Velocity P-wave (km/s) = 2.38921 6.72890 5.04908
#
# Compressibility (1/GPa) = 0.36830110
#
# Stress axis : x y z
#
# Youngs Moduli (GPa) = 2.26627 81.14306 69.00200
#
# Poissons Ratio (x) = 0.82691 2.29254
# Poissons Ratio (y) = 0.02310 0.44640
# Poissons Ratio (z) = 0.07530 0.52494
#
# Static dielectric constant tensor:
#      x y z
#    x 1.592080 0.000000 0.000000 
#    y 0.000000 1.610060 0.000000 
#    z 0.000000 0.000000 1.611760 
# 
# From -- ./inp_files/41118.got.cif
#   From: 2010.05.17/outbox.cif.g08.bks.cpg/sg65_21_cif.got.tgz:41118.got - 2010.06.03 17:01:31.
