data_PCOD9484380
_publ_section_title
;
Structure prediction by ZEFSAII (Michael W. Deem and Ramdas Pophale) SiO2 
 PCOD9484380
Probable space group: C M M M
;
_chemical_formula_sum "Si O2"
_cell_formula_units_Z 96
_cell_length_a 30.479009
_cell_length_b 20.499407
_cell_length_c 8.751032
_cell_angle_alpha 90.000000
_cell_angle_beta 90.000000
_cell_angle_gamma 90.000000
_cell_volume 5467.658887
_symmetry_space_group_name_H-M "C M M M"
_symmetry_group_IT_number 65
_symmetry_cell_setting 'orthorhombic'
loop_
_space_group_symop_operation_xyz
x,y,z
-x,-y,z
x,-y,-z
-x,y,-z
-x,-y,-z
x,y,-z
-x,y,z
x,-y,z
1/2+x,1/2+y,z
1/2-x,1/2-y,z
1/2+x,1/2-y,-z
1/2-x,1/2+y,-z
1/2-x,1/2-y,-z
1/2+x,1/2+y,-z
1/2-x,1/2+y,z
1/2+x,1/2-y,z
loop_
_atom_site_type_symbol
_atom_site_label
_atom_site_fract_x
_atom_site_fract_y
_atom_site_fract_z
Si Si1 0.551183 0.712375 0.184868
Si Si2 0.704011 0.713001 0.816029
Si Si3 0.053276 0.930011 0.819138
Si Si4 0.374514 0.798052 0.319090
Si Si5 0.664500 0.073848 0.816367
Si Si6 0.267456 0.427604 0.814262
O O1 0.500000 0.719453 0.225778
O O2 0.567517 0.640572 0.240679
O O3 0.581138 0.768766 0.250047
O O4 0.553728 0.711953 0.000000
O O5 0.750000 0.750000 0.785454
O O6 0.664848 0.751959 0.739470
O O7 0.707482 0.637530 0.764955
O O8 0.697704 0.714276 0.000000
O O9 0.000000 0.929261 0.810475
O O10 0.068239 0.000000 0.753573
O O11 0.064161 0.930928 0.000000
O O12 0.376365 0.797095 0.500000
O O13 0.363623 0.870302 0.260616
O O14 0.716022 0.080578 0.774070
O O15 0.651050 0.000000 0.778086
O O16 0.662402 0.081374 0.000000
O O17 0.282027 0.500000 0.762613
O O18 0.269261 0.428124 0.000000
#
# Coordination Sequence:
#
# PCOD9484380 Si02
#       6
#    16  16  16  16  16  16
#     4   9  18  34  56  78 100 132 178 226 266 309
#     4  10  18  32  54  76 101 135 176 220 260 301
#     4   7  10  20  43  74  99 117 150 208 266 303
#     4  12  24  34  49  76 112 145 172 207 259 322
#     4   9  17  33  57  80 101 129 172 220 259 303
#     4   8  14  27  50  77 101 129 170 220 266 301
#
# _framework density 17.557789
#
# number of rings (size 3 to 8) (size 9 to 14) (size 15 to 20)
#    0.000    2.833    1.667    4.000    0.000    1.000 
#    0.000    0.833    0.000    6.500    0.000    5.833 
#    0.000    0.000    0.000    0.000    0.000    0.000 
#
# Total GULP energy -267428.591315 kJ/mol
# GULP energy per Si atom -5571.428986 kJ/mol
# Density = 1.751783 g / cm^3
# Si number density = 17.557789 Si / 1000 Ang^3
#
#
#
# Elastic Constant Matrix: (Units=GPa)
#
#
# Indices 1 2 3 4 5 6 
#
# 1 55.9108 57.5137 30.3801 0.0000 0.0000 0.0000
# 2 57.5137 159.8217 39.5655 0.0000 0.0000 0.0000
# 3 30.3801 39.5655 20.8695 0.0000 0.0000 0.0000
# 4 0.0000 0.0000 0.0000 -0.2374 0.0000 0.0000
# 5 0.0000 0.0000 0.0000 0.0000 88.6741 0.0000
# 6 0.0000 0.0000 0.0000 0.0000 0.0000 21.9243
#
#
#
# Elastic Compliance Matrix: (Units=1/GPa)
#
#
# Indices 1 2 3 4 5 6 
#
# 1 0.085574 0.000083 -0.124729 0.000000 0.000000 0.000000
# 2 0.000083 0.011791 -0.022475 0.000000 0.000000 0.000000
# 3 -0.124729 -0.022475 0.272097 0.000000 0.000000 0.000000
# 4 0.000000 0.000000 0.000000 -4.211949 0.000000 0.000000
# 5 0.000000 0.000000 0.000000 0.000000 0.011277 0.000000
# 6 0.000000 0.000000 0.000000 0.000000 0.000000 0.045612
#
#
# Mechanical properties :
#
#
# Convention : Reuss Voigt Hill
#
# Bulk Modulus (GPa) = 13.29442 54.61339 33.95390
# Shear Modulus (GPa) = -1.44247 29.34839 13.95296
#
# Velocity S-wave (km/s) = -0.90738 4.09287 2.82208
# Velocity P-wave (km/s) = 2.54764 7.31491 5.47715
#
# Compressibility (1/GPa) = 0.07521956
#
# Stress axis : x y z
#
# Youngs Moduli (GPa) = 11.68582 84.81094 3.67516
#
# Poissons Ratio (x) = -0.00706 0.45840
# Poissons Ratio (y) = -0.00097 0.08260
# Poissons Ratio (z) = 1.45756 1.90613
#
# Static dielectric constant tensor:
#      x y z
#    x 1.582980 0.000000 0.000000 
#    y 0.000000 1.638530 0.000000 
#    z 0.000000 0.000000 1.580360 
# 
# From -- ./inp_files/16335.got.cif
#   From: 2010.05.17/outbox.cif.g08.bks.cpg/sg65_9_cif.got.tgz:16335.got - 2010.06.03 17:01:31.
