data_PCOD9484440
_publ_section_title
;
Structure prediction by ZEFSAII (Michael W. Deem and Ramdas Pophale) SiO2 
 PCOD9484440
Probable space group: C M M M
;
_chemical_formula_sum "Si O2"
_cell_formula_units_Z 64
_cell_length_a 8.564704
_cell_length_b 14.945796
_cell_length_c 25.472388
_cell_angle_alpha 90.000000
_cell_angle_beta 90.000000
_cell_angle_gamma 90.000000
_cell_volume 3260.626619
_symmetry_space_group_name_H-M "C M M M"
_symmetry_group_IT_number 65
_symmetry_cell_setting 'orthorhombic'
loop_
_space_group_symop_operation_xyz
x,y,z
-x,-y,z
x,-y,-z
-x,y,-z
-x,-y,-z
x,y,-z
-x,y,z
x,-y,z
1/2+x,1/2+y,z
1/2-x,1/2-y,z
1/2+x,1/2-y,-z
1/2-x,1/2+y,-z
1/2-x,1/2-y,-z
1/2+x,1/2+y,-z
1/2-x,1/2+y,z
1/2+x,1/2-y,z
loop_
_atom_site_type_symbol
_atom_site_label
_atom_site_fract_x
_atom_site_fract_y
_atom_site_fract_z
Si Si1 0.813439 0.647967 0.748085
Si Si2 0.309839 0.500000 0.059791
Si Si3 0.312444 0.649189 0.858238
Si Si4 0.313658 0.648853 0.637708
Si Si5 0.687419 0.000000 0.438725
O O1 0.750000 0.750000 0.748439
O O2 0.751448 0.610633 0.803091
O O3 0.749039 0.610871 0.693382
O O4 0.000000 0.647020 0.747464
O O5 0.500000 0.500000 0.058352
O O6 0.263723 0.413231 0.093443
O O7 0.253380 0.500000 0.000000
O O8 0.500000 0.651644 0.855142
O O9 0.250000 0.750000 0.864569
O O10 0.500000 0.651277 0.639381
O O11 0.250000 0.750000 0.631869
O O12 0.254244 0.586321 0.591140
O O13 0.500000 0.000000 0.434408
O O14 0.729843 0.000000 0.500000
#
# Coordination Sequence:
#
# PCOD9484440 Si02
#       5
#    16   8  16  16   8
#     4  10  18  32  55  84 117 148 184 228 281 341
#     4   9  20  37  55  76 105 144 188 229 272 331
#     4  10  19  34  56  81 110 143 182 227 279 335
#     4  11  22  39  63  90 121 155 193 237 290 346
#     4  11  25  44  63  86 117 154 200 247 288 337
#
# _framework density 19.628129000000001
#
# number of rings (size 3 to 8) (size 9 to 14) (size 15 to 20)
#    0.000    1.750    0.000    8.625    0.000    3.000 
#    0.000    6.250    0.000    5.250    0.000    0.000 
#    0.000    0.000    0.000    0.000    0.000    0.000 
#
# Total GULP energy -178790.762331 kJ/mol
# GULP energy per Si atom -5587.211323 kJ/mol
# Density = 1.958345 g / cm^3
# Si number density = 19.628129 Si / 1000 Ang^3
#
#
#
# Elastic Constant Matrix: (Units=GPa)
#
#
# Indices 1 2 3 4 5 6 
#
# 1 140.4528 40.7503 77.8208 0.0000 0.0000 0.0000
# 2 40.7503 114.5589 89.8963 0.0000 0.0000 0.0000
# 3 77.8208 89.8963 227.2106 0.0000 0.0000 0.0000
# 4 0.0000 0.0000 0.0000 24.9659 0.0000 0.0000
# 5 0.0000 0.0000 0.0000 0.0000 25.1215 0.0000
# 6 0.0000 0.0000 0.0000 0.0000 0.0000 11.7398
#
#
#
# Elastic Compliance Matrix: (Units=1/GPa)
#
#
# Indices 1 2 3 4 5 6 
#
# 1 0.008886 -0.001120 -0.002600 0.000000 0.000000 0.000000
# 2 -0.001120 0.012801 -0.004681 0.000000 0.000000 0.000000
# 3 -0.002600 -0.004681 0.007144 0.000000 0.000000 0.000000
# 4 0.000000 0.000000 0.000000 0.040055 0.000000 0.000000
# 5 0.000000 0.000000 0.000000 0.000000 0.039806 0.000000
# 6 0.000000 0.000000 0.000000 0.000000 0.000000 0.085180
#
#
# Mechanical properties :
#
#
# Convention : Reuss Voigt Hill
#
# Bulk Modulus (GPa) = 83.14376 99.90633 91.52505
# Shear Modulus (GPa) = 23.29010 30.61578 26.95294
#
# Velocity S-wave (km/s) = 3.44840 3.95370 3.70966
# Velocity P-wave (km/s) = 7.63588 8.47658 8.06719
#
# Compressibility (1/GPa) = 0.01202736
#
# Stress axis : x y z
#
# Youngs Moduli (GPa) = 112.54284 78.11946 139.98242
#
# Poissons Ratio (x) = 0.08753 0.36396
# Poissons Ratio (y) = 0.12609 0.65525
# Poissons Ratio (z) = 0.29262 0.36567
#
# Static dielectric constant tensor:
#      x y z
#    x 1.655520 0.000000 0.000000 
#    y 0.000000 1.683360 0.000000 
#    z 0.000000 0.000000 1.699460 
# 
# From -- ./inp_files/66767.got.cif
#   From: 2010.05.17/outbox.cif.g08.bks.cpg/sg65_34_cif.got.tgz:66767.got - 2010.06.03 17:01:31.
