data_PCOD9484131
_publ_section_title
;
Structure prediction by ZEFSAII (Michael W. Deem and Ramdas Pophale) SiO2 
 PCOD9484131
Probable space group: C M M M
;
_chemical_formula_sum "Si O2"
_cell_formula_units_Z 72
_cell_length_a 17.666336
_cell_length_b 10.443654
_cell_length_c 22.456298
_cell_angle_alpha 90.000000
_cell_angle_beta 90.000000
_cell_angle_gamma 90.000000
_cell_volume 4143.211697
_symmetry_space_group_name_H-M "C M M M"
_symmetry_group_IT_number 65
_symmetry_cell_setting 'orthorhombic'
loop_
_space_group_symop_operation_xyz
x,y,z
-x,-y,z
x,-y,-z
-x,y,-z
-x,-y,-z
x,y,-z
-x,y,z
x,-y,z
1/2+x,1/2+y,z
1/2-x,1/2-y,z
1/2+x,1/2-y,-z
1/2-x,1/2+y,-z
1/2-x,1/2-y,-z
1/2+x,1/2+y,-z
1/2-x,1/2+y,z
1/2+x,1/2-y,z
loop_
_atom_site_type_symbol
_atom_site_label
_atom_site_fract_x
_atom_site_fract_y
_atom_site_fract_z
Si Si1 0.180202 0.347244 0.882088
Si Si2 0.342987 0.500000 0.568583
Si Si3 0.158390 0.250190 0.642091
Si Si4 0.910509 0.350403 0.240382
Si Si5 0.658628 0.000000 0.568018
Si Si6 0.914376 0.654476 0.000000
O O1 0.200796 0.500000 0.886041
O O2 0.250000 0.250000 0.879289
O O3 0.130787 0.331158 0.822428
O O4 0.131064 0.312822 0.940325
O O5 0.369206 0.500000 0.500000
O O6 0.365224 0.374819 0.605502
O O7 0.250776 0.500000 0.566331
O O8 0.250000 0.250000 0.647479
O O9 0.123253 0.263782 0.707307
O O10 0.135600 0.373775 0.603515
O O11 0.897886 0.500000 0.257227
O O12 0.000000 0.330620 0.234047
O O13 0.631960 0.000000 0.500000
O O14 0.919523 0.500000 0.000000
O O15 0.000000 0.705502 0.000000
#
# Coordination Sequence:
#
# PCOD9484131 Si02
#       6
#    16   8  16  16   8   8
#     4  10  20  35  57  84 112 143 182 226 268 310
#     4   9  18  30  49  77 105 132 165 214 269 319
#     4  10  18  31  51  76 103 132 171 215 264 317
#     4  10  20  35  54  75 102 138 181 224 265 311
#     4   9  16  28  49  75 101 130 169 214 257 309
#     4   9  17  32  57  87 116 149 188 222 258 307
#
# _framework density 17.377822999999999
#
# number of rings (size 3 to 8) (size 9 to 14) (size 15 to 20)
#    0.000    2.333    1.111    2.333    0.000    5.333 
#    2.000    0.556    0.000    6.667    0.000    0.000 
#    0.000    0.000    0.000    0.000    0.000    0.000 
#
# Total GULP energy -200783.133202 kJ/mol
# GULP energy per Si atom -5577.309256 kJ/mol
# Density = 1.733827 g / cm^3
# Si number density = 17.377823 Si / 1000 Ang^3
#
#
#
# Elastic Constant Matrix: (Units=GPa)
#
#
# Indices 1 2 3 4 5 6 
#
# 1 68.1825 49.1768 61.0959 0.0000 0.0000 0.0000
# 2 49.1768 116.6399 80.4507 0.0000 0.0000 0.0000
# 3 61.0959 80.4507 179.4026 0.0000 0.0000 0.0000
# 4 0.0000 0.0000 0.0000 22.2635 0.0000 0.0000
# 5 0.0000 0.0000 0.0000 0.0000 -20.9487 0.0000
# 6 0.0000 0.0000 0.0000 0.0000 0.0000 18.3272
#
#
#
# Elastic Compliance Matrix: (Units=1/GPa)
#
#
# Indices 1 2 3 4 5 6 
#
# 1 0.024103 -0.006516 -0.005286 0.000000 0.000000 0.000000
# 2 -0.006516 0.014174 -0.004137 0.000000 0.000000 0.000000
# 3 -0.005286 -0.004137 0.009230 0.000000 0.000000 0.000000
# 4 0.000000 0.000000 0.000000 0.044917 0.000000 0.000000
# 5 0.000000 0.000000 0.000000 0.000000 -0.047736 0.000000
# 6 0.000000 0.000000 0.000000 0.000000 0.000000 0.054564
#
#
# Mechanical properties :
#
#
# Convention : Reuss Voigt Hill
#
# Bulk Modulus (GPa) = 63.98840 82.85243 73.42042
# Shear Modulus (GPa) = 36.67307 15.49517 26.08412
#
# Velocity S-wave (km/s) = 4.59882 2.98931 3.87848
# Velocity P-wave (km/s) = 8.06850 7.72627 7.89924
#
# Compressibility (1/GPa) = 0.01562783
#
# Stress axis : x y z
#
# Youngs Moduli (GPa) = 41.48848 70.55080 108.34698
#
# Poissons Ratio (x) = 0.45971 0.57276
# Poissons Ratio (y) = 0.27034 0.44825
# Poissons Ratio (z) = 0.21932 0.29188
#
# Static dielectric constant tensor:
#      x y z
#    x 1.576280 0.000000 0.000000 
#    y 0.000000 1.581920 0.000000 
#    z 0.000000 0.000000 1.574930 
# 
# From -- ./inp_files/59349.got.cif
#   From: 2010.05.17/outbox.cif.g08.bks.cpg/sg65_30_cif.got.tgz:59349.got - 2010.06.03 17:01:31.
