data_PCOD9484431
_publ_section_title
;
Structure prediction by ZEFSAII (Michael W. Deem and Ramdas Pophale) SiO2 
 PCOD9484431
Probable space group: C M M M
;
_chemical_formula_sum "Si O2"
_cell_formula_units_Z 72
_cell_length_a 20.845337
_cell_length_b 20.710454
_cell_length_c 7.480049
_cell_angle_alpha 90.000000
_cell_angle_beta 90.000000
_cell_angle_gamma 90.000000
_cell_volume 3229.259774
_symmetry_space_group_name_H-M "C M M M"
_symmetry_group_IT_number 65
_symmetry_cell_setting 'orthorhombic'
loop_
_space_group_symop_operation_xyz
x,y,z
-x,-y,z
x,-y,-z
-x,y,-z
-x,-y,-z
x,y,-z
-x,y,z
x,-y,z
1/2+x,1/2+y,z
1/2-x,1/2-y,z
1/2+x,1/2-y,-z
1/2-x,1/2+y,-z
1/2-x,1/2-y,-z
1/2+x,1/2+y,-z
1/2-x,1/2+y,z
1/2+x,1/2-y,z
loop_
_atom_site_type_symbol
_atom_site_label
_atom_site_fract_x
_atom_site_fract_y
_atom_site_fract_z
Si Si1 0.616618 0.500000 0.294590
Si Si2 0.677074 0.256598 0.782947
Si Si3 0.733065 0.000000 0.782898
Si Si4 0.928185 0.142426 0.208962
Si Si5 0.637390 0.887394 0.217475
Si Si6 0.500000 0.076450 0.797168
O O1 0.597460 0.500000 0.500000
O O2 0.693768 0.500000 0.278744
O O3 0.589824 0.433120 0.217342
O O4 0.750000 0.250000 0.717310
O O5 0.630216 0.313715 0.717237
O O6 0.648150 0.186914 0.742396
O O7 0.681461 0.264273 0.000000
O O8 0.692972 0.063221 0.724377
O O9 0.735634 0.000000 0.000000
O O10 0.000000 0.152776 0.284971
O O11 0.932178 0.160110 0.000000
O O12 0.567378 0.905492 0.286913
O O13 0.636681 0.894476 0.000000
O O14 0.500000 0.000000 0.813233
O O15 0.500000 0.104854 0.000000
#
# Coordination Sequence:
#
# PCOD9484431 Si02
#       6
#     8  16   8  16  16   8
#     4  12  25  39  57  78 103 137 178 229 283 328
#     4   9  17  29  47  75 111 145 175 212 260 311
#     4  10  18  32  55  82 110 146 184 219 262 314
#     4  10  21  37  58  83 109 140 179 222 268 321
#     4   9  16  25  45  76 112 147 176 213 263 314
#     4   9  14  22  36  68 114 147 170 205 259 316
#
# _framework density 22.296129000000001
#
# number of rings (size 3 to 8) (size 9 to 14) (size 15 to 20)
#    0.000    2.333    1.111    2.667    1.556    5.333 
#    0.000    0.000    0.000    6.000    0.000    1.556 
#    0.000    0.000    0.000    0.000    0.000    0.000 
#
# Total GULP energy -200940.599385 kJ/mol
# GULP energy per Si atom -5581.683316 kJ/mol
# Density = 2.224538 g / cm^3
# Si number density = 22.296129 Si / 1000 Ang^3
#
#
#
# Elastic Constant Matrix: (Units=GPa)
#
#
# Indices 1 2 3 4 5 6 
#
# 1 200.4923 79.8715 2.4583 0.0000 0.0000 0.0000
# 2 79.8715 117.8562 -0.2249 0.0000 0.0000 0.0000
# 3 2.4583 -0.2249 61.4107 0.0000 0.0000 0.0000
# 4 0.0000 0.0000 0.0000 -42.7004 0.0000 0.0000
# 5 0.0000 0.0000 0.0000 0.0000 -33.7039 0.0000
# 6 0.0000 0.0000 0.0000 0.0000 0.0000 7.8150
#
#
#
# Elastic Compliance Matrix: (Units=1/GPa)
#
#
# Indices 1 2 3 4 5 6 
#
# 1 0.006838 -0.004634 -0.000291 0.000000 0.000000 0.000000
# 2 -0.004634 0.011626 0.000228 0.000000 0.000000 0.000000
# 3 -0.000291 0.000228 0.016296 0.000000 0.000000 0.000000
# 4 0.000000 0.000000 0.000000 -0.023419 0.000000 0.000000
# 5 0.000000 0.000000 0.000000 0.000000 -0.029670 0.000000
# 6 0.000000 0.000000 0.000000 0.000000 0.000000 0.127958
#
#
# Mechanical properties :
#
#
# Convention : Reuss Voigt Hill
#
# Bulk Modulus (GPa) = 39.42292 60.44101 49.93196
# Shear Modulus (GPa) = 39.22232 6.12576 22.67404
#
# Velocity S-wave (km/s) = 4.19878 1.65934 3.19242
# Velocity P-wave (km/s) = 6.42076 5.55323 6.00269
#
# Compressibility (1/GPa) = 0.02536596
#
# Stress axis : x y z
#
# Youngs Moduli (GPa) = 146.25215 86.01359 61.36371
#
# Poissons Ratio (x) = 0.39862 0.01784
# Poissons Ratio (y) = 0.67778 -0.01400
# Poissons Ratio (z) = 0.04251 -0.01962
#
# Static dielectric constant tensor:
#      x y z
#    x 1.803940 0.000000 0.000000 
#    y 0.000000 1.745620 0.000000 
#    z 0.000000 0.000000 1.868710 
# 
# From -- ./inp_files/11309.got.cif
#   From: 2010.05.17/outbox.cif.g08.bks.cpg/sg65_6_cif.got.tgz:11309.got - 2010.06.03 17:01:31.
