data_PCOD9484043
_publ_section_title
;
Structure prediction by ZEFSAII (Michael W. Deem and Ramdas Pophale) SiO2 
 PCOD9484043
Probable space group: C M M M
;
_chemical_formula_sum "Si O2"
_cell_formula_units_Z 88
_cell_length_a 13.621130
_cell_length_b 29.391146
_cell_length_c 14.368992
_cell_angle_alpha 90.000000
_cell_angle_beta 90.000000
_cell_angle_gamma 90.000000
_cell_volume 5752.491173
_symmetry_space_group_name_H-M "C M M M"
_symmetry_group_IT_number 65
_symmetry_cell_setting 'orthorhombic'
loop_
_space_group_symop_operation_xyz
x,y,z
-x,-y,z
x,-y,-z
-x,y,-z
-x,-y,-z
x,y,-z
-x,y,z
x,-y,z
1/2+x,1/2+y,z
1/2-x,1/2-y,z
1/2+x,1/2-y,-z
1/2-x,1/2+y,-z
1/2-x,1/2-y,-z
1/2+x,1/2+y,-z
1/2-x,1/2+y,z
1/2+x,1/2-y,z
loop_
_atom_site_type_symbol
_atom_site_label
_atom_site_fract_x
_atom_site_fract_y
_atom_site_fract_z
Si Si1 0.881712 0.760250 0.103436
Si Si2 0.881091 0.094103 0.297216
Si Si3 0.885081 0.725340 0.300051
Si Si4 0.880516 0.000000 0.392088
Si Si5 0.698648 0.684366 0.610555
Si Si6 0.880597 0.865701 0.103400
O O1 0.855125 0.729800 0.191509
O O2 0.850525 0.812863 0.116101
O O3 0.000000 0.761716 0.104984
O O4 0.853578 0.744283 0.000000
O O5 0.849563 0.045755 0.338797
O O6 0.841206 0.135765 0.358047
O O7 0.849576 0.104083 0.190811
O O8 0.000000 0.095528 0.299818
O O9 0.809061 0.692897 0.352518
O O10 0.866385 0.775594 0.343031
O O11 0.000000 0.713641 0.308065
O O12 0.849075 0.000000 0.500000
O O13 0.000000 0.000000 0.392476
O O14 0.695596 0.689519 0.500000
O O15 0.000000 0.865858 0.103258
O O16 0.848805 0.880438 0.000000
#
# Coordination Sequence:
#
# PCOD9484043 Si02
#       6
#    16  16  16   8  16  16
#     4   8  13  24  43  63  84 114 148 179 212 252
#     4  10  18  31  48  66  89 115 143 182 226 265
#     4  10  19  32  45  62  90 119 148 183 217 253
#     4   9  18  30  45  65  86 112 147 182 219 263
#     4  11  22  31  43  64  87 117 155 185 216 261
#     4   8  13  23  41  63  86 114 145 175 212 261
#
# _framework density 15.297720999999999
#
# number of rings (size 3 to 8) (size 9 to 14) (size 15 to 20)
#    0.000    2.636    1.818    3.273    0.000    3.273 
#    0.000    3.182    0.000    2.727    0.000    0.636 
#    0.000    2.182    0.000    0.000    0.000    9.545 
#
# Total GULP energy -245189.580509 kJ/mol
# GULP energy per Si atom -5572.490466 kJ/mol
# Density = 1.526290 g / cm^3
# Si number density = 15.297721 Si / 1000 Ang^3
#
#
#
# Elastic Constant Matrix: (Units=GPa)
#
#
# Indices 1 2 3 4 5 6 
#
# 1 48.7063 7.0675 7.5390 0.0000 0.0000 0.0000
# 2 7.0675 54.6835 30.2200 0.0000 0.0000 0.0000
# 3 7.5390 30.2200 137.4159 0.0000 0.0000 0.0000
# 4 0.0000 0.0000 0.0000 16.7134 0.0000 0.0000
# 5 0.0000 0.0000 0.0000 0.0000 -12.7551 0.0000
# 6 0.0000 0.0000 0.0000 0.0000 0.0000 10.2529
#
#
#
# Elastic Compliance Matrix: (Units=1/GPa)
#
#
# Indices 1 2 3 4 5 6 
#
# 1 0.020972 -0.002362 -0.000631 0.000000 0.000000 0.000000
# 2 -0.002362 0.021083 -0.004507 0.000000 0.000000 0.000000
# 3 -0.000631 -0.004507 0.008303 0.000000 0.000000 0.000000
# 4 0.000000 0.000000 0.000000 0.059832 0.000000 0.000000
# 5 0.000000 0.000000 0.000000 0.000000 -0.078400 0.000000
# 6 0.000000 0.000000 0.000000 0.000000 0.000000 0.097533
#
#
# Mechanical properties :
#
#
# Convention : Reuss Voigt Hill
#
# Bulk Modulus (GPa) = 28.28212 36.71763 32.49987
# Shear Modulus (GPa) = 32.02901 15.90752 23.96827
#
# Velocity S-wave (km/s) = 4.58067 3.22819 3.96256
# Velocity P-wave (km/s) = 6.81943 6.16028 6.49822
#
# Compressibility (1/GPa) = 0.03535803
#
# Stress axis : x y z
#
# Youngs Moduli (GPa) = 47.68350 47.43171 120.43910
#
# Poissons Ratio (x) = 0.11202 0.07602
# Poissons Ratio (y) = 0.11261 0.54281
# Poissons Ratio (z) = 0.03010 0.21377
#
# Static dielectric constant tensor:
#      x y z
#    x 1.521280 0.000000 0.000000 
#    y 0.000000 1.481230 0.000000 
#    z 0.000000 0.000000 1.550560 
# 
# From -- ./inp_files/40942.got.cif
#   From: 2010.05.17/outbox.cif.g08.bks.cpg/sg65_21_cif.got.tgz:40942.got - 2010.06.03 17:01:31.
