data_PCOD9484830
_publ_section_title
;
Structure prediction by ZEFSAII (Michael W. Deem and Ramdas Pophale) SiO2 
 PCOD9484830
Probable space group: C M M M
;
_chemical_formula_sum "Si O2"
_cell_formula_units_Z 104
_cell_length_a 27.298050
_cell_length_b 17.045706
_cell_length_c 13.857318
_cell_angle_alpha 90.000000
_cell_angle_beta 90.000000
_cell_angle_gamma 90.000000
_cell_volume 6448.011477
_symmetry_space_group_name_H-M "C M M M"
_symmetry_group_IT_number 65
_symmetry_cell_setting 'orthorhombic'
loop_
_space_group_symop_operation_xyz
x,y,z
-x,-y,z
x,-y,-z
-x,y,-z
-x,-y,-z
x,y,-z
-x,y,z
x,-y,z
1/2+x,1/2+y,z
1/2-x,1/2-y,z
1/2+x,1/2-y,-z
1/2-x,1/2+y,-z
1/2-x,1/2-y,-z
1/2+x,1/2+y,-z
1/2-x,1/2+y,z
1/2+x,1/2-y,z
loop_
_atom_site_type_symbol
_atom_site_label
_atom_site_fract_x
_atom_site_fract_y
_atom_site_fract_z
Si Si1 0.187401 0.866626 0.107602
Si Si2 0.286441 0.094134 0.799119
Si Si3 0.269538 0.595494 0.392810
Si Si4 0.368441 0.411024 0.295826
Si Si5 0.558795 0.588387 0.000000
Si Si6 0.134753 0.699807 0.113048
Si Si7 0.441729 0.690713 0.191179
O O1 0.244835 0.877285 0.126191
O O2 0.160624 0.911923 0.193655
O O3 0.170320 0.776441 0.116815
O O4 0.174570 0.893364 0.000000
O O5 0.266372 0.120433 0.693712
O O6 0.337278 0.131755 0.830863
O O7 0.288232 0.000000 0.800618
O O8 0.255659 0.621765 0.500000
O O9 0.269369 0.500000 0.391314
O O10 0.325802 0.617348 0.368048
O O11 0.383678 0.500000 0.319470
O O12 0.413852 0.353285 0.278265
O O13 0.569661 0.637290 0.096159
O O14 0.578337 0.500000 0.000000
O O15 0.500000 0.581896 0.000000
O O16 0.085209 0.728225 0.165467
O O17 0.126434 0.681904 0.000000
O O18 0.500000 0.696052 0.203185
#
# Coordination Sequence:
#
# PCOD9484830 Si02
#       7
#    16  16  16  16   8  16  16
#     4   9  17  28  41  60  90 126 148 170 214 275
#     4  10  19  29  45  69  90 113 152 194 229 267
#     4   8  15  30  49  68  93 120 144 180 232 285
#     4   9  17  26  42  69  93 116 149 183 221 270
#     4   9  16  26  42  64  86 111 149 193 226 254
#     4  10  19  30  44  62  90 128 159 185 220 275
#     4  10  19  31  44  61  89 125 159 191 228 268
#
# _framework density 16.129003000000001
#
# number of rings (size 3 to 8) (size 9 to 14) (size 15 to 20)
#    0.000    2.692    0.769    2.769    1.077    4.308 
#    0.000    0.000    0.000   17.538    0.000    3.231 
#    0.000    0.000    0.000    3.846    0.000    0.000 
#
# Total GULP energy -289760.951362 kJ/mol
# GULP energy per Si atom -5572.325988 kJ/mol
# Density = 1.609229 g / cm^3
# Si number density = 16.129003 Si / 1000 Ang^3
#
#
#
# Elastic Constant Matrix: (Units=GPa)
#
#
# Indices 1 2 3 4 5 6 
#
# 1 77.6754 17.2361 11.6092 0.0000 0.0000 0.0000
# 2 17.2361 21.2434 11.1876 0.0000 0.0000 0.0000
# 3 11.6092 11.1876 55.7498 0.0000 0.0000 0.0000
# 4 0.0000 0.0000 0.0000 8.4471 0.0000 0.0000
# 5 0.0000 0.0000 0.0000 0.0000 14.6631 0.0000
# 6 0.0000 0.0000 0.0000 0.0000 0.0000 20.7490
#
#
#
# Elastic Compliance Matrix: (Units=1/GPa)
#
#
# Indices 1 2 3 4 5 6 
#
# 1 0.015733 -0.012344 -0.000799 0.000000 0.000000 0.000000
# 2 -0.012344 0.062322 -0.009936 0.000000 0.000000 0.000000
# 3 -0.000799 -0.009936 0.020098 0.000000 0.000000 0.000000
# 4 0.000000 0.000000 0.000000 0.118384 0.000000 0.000000
# 5 0.000000 0.000000 0.000000 0.000000 0.068198 0.000000
# 6 0.000000 0.000000 0.000000 0.000000 0.000000 0.048195
#
#
# Mechanical properties :
#
#
# Convention : Reuss Voigt Hill
#
# Bulk Modulus (GPa) = 19.23301 26.08157 22.65729
# Shear Modulus (GPa) = 12.61294 16.41423 14.51359
#
# Velocity S-wave (km/s) = 2.79947 3.19358 3.00299
# Velocity P-wave (km/s) = 4.73284 5.45933 5.10901
#
# Compressibility (1/GPa) = 0.05199394
#
# Stress axis : x y z
#
# Youngs Moduli (GPa) = 63.56209 16.04579 49.75739
#
# Poissons Ratio (x) = 0.19807 0.03975
# Poissons Ratio (y) = 0.78462 0.49438
# Poissons Ratio (z) = 0.05078 0.15943
#
# Static dielectric constant tensor:
#      x y z
#    x 1.562190 0.000000 0.000000 
#    y 0.000000 1.554860 0.000000 
#    z 0.000000 0.000000 1.557000 
# 
# From -- ./inp_files/45945.got.cif
#   From: 2010.05.17/outbox.cif.g08.bks.cpg/sg65_23_cif.got.tgz:45945.got - 2010.06.03 17:01:31.
