data_PCOD9484292
_publ_section_title
;
Structure prediction by ZEFSAII (Michael W. Deem and Ramdas Pophale) SiO2 
 PCOD9484292
Probable space group: C M M M
;
_chemical_formula_sum "Si O2"
_cell_formula_units_Z 64
_cell_length_a 36.753522
_cell_length_b 8.735365
_cell_length_c 12.910838
_cell_angle_alpha 90.000000
_cell_angle_beta 90.000000
_cell_angle_gamma 90.000000
_cell_volume 4145.094642
_symmetry_space_group_name_H-M "C M M M"
_symmetry_group_IT_number 65
_symmetry_cell_setting 'orthorhombic'
loop_
_space_group_symop_operation_xyz
x,y,z
-x,-y,z
x,-y,-z
-x,y,-z
-x,-y,-z
x,y,-z
-x,y,z
x,-y,z
1/2+x,1/2+y,z
1/2-x,1/2-y,z
1/2+x,1/2-y,-z
1/2-x,1/2+y,-z
1/2-x,1/2-y,-z
1/2+x,1/2+y,-z
1/2-x,1/2+y,z
1/2+x,1/2-y,z
loop_
_atom_site_type_symbol
_atom_site_label
_atom_site_fract_x
_atom_site_fract_y
_atom_site_fract_z
Si Si1 0.420987 0.822256 0.874001
Si Si2 0.790525 0.681823 0.713701
Si Si3 0.655412 0.680910 0.122405
Si Si4 0.000000 0.686927 0.880136
Si Si5 0.791060 0.816946 0.500000
O O1 0.385678 0.725646 0.845636
O O2 0.460721 0.767840 0.835195
O O3 0.415634 0.000000 0.844042
O O4 0.423143 0.820089 0.000000
O O5 0.787714 0.500000 0.702120
O O6 0.750000 0.750000 0.728636
O O7 0.815879 0.727653 0.809100
O O8 0.806654 0.753961 0.607696
O O9 0.661202 0.500000 0.135645
O O10 0.659198 0.717203 0.000000
O O11 0.000000 0.500000 0.881310
O O12 0.000000 0.738345 0.000000
O O13 0.750000 0.750000 0.500000
O O14 0.790358 0.000000 0.500000
#
# Coordination Sequence:
#
# PCOD9484292 Si02
#       5
#    16  16  16   8   8
#     4   8  13  23  39  58  81 112 148 183 219 260
#     4  11  21  34  51  69  89 115 149 186 225 267
#     4  10  20  32  44  62  91 124 155 187 224 266
#     4   7  10  18  35  57  79 106 143 182 217 257
#     4  10  18  32  52  72  92 111 138 179 226 268
#
# _framework density 15.439937
#
# number of rings (size 3 to 8) (size 9 to 14) (size 15 to 20)
#    0.000    2.625    0.000    7.125    0.000    2.000 
#    0.000    0.625    0.000    3.750    0.000    0.000 
#    0.000    1.000    0.000   10.750    0.000    7.750 
#
# Total GULP energy -178159.157049 kJ/mol
# GULP energy per Si atom -5567.473658 kJ/mol
# Density = 1.540480 g / cm^3
# Si number density = 15.439937 Si / 1000 Ang^3
#
#
#
# Elastic Constant Matrix: (Units=GPa)
#
#
# Indices 1 2 3 4 5 6 
#
# 1 86.5315 39.1206 34.8589 0.0000 0.0000 0.0000
# 2 39.1206 99.2001 38.2737 0.0000 0.0000 0.0000
# 3 34.8589 38.2737 47.6486 0.0000 0.0000 0.0000
# 4 0.0000 0.0000 0.0000 20.3621 0.0000 0.0000
# 5 0.0000 0.0000 0.0000 0.0000 -1.6357 0.0000
# 6 0.0000 0.0000 0.0000 0.0000 0.0000 21.8020
#
#
#
# Elastic Compliance Matrix: (Units=1/GPa)
#
#
# Indices 1 2 3 4 5 6 
#
# 1 0.016885 -0.002743 -0.010150 0.000000 0.000000 0.000000
# 2 -0.002743 0.015053 -0.010085 0.000000 0.000000 0.000000
# 3 -0.010150 -0.010085 0.036513 0.000000 0.000000 0.000000
# 4 0.000000 0.000000 0.000000 0.049111 0.000000 0.000000
# 5 0.000000 0.000000 0.000000 0.000000 -0.611350 0.000000
# 6 0.000000 0.000000 0.000000 0.000000 0.000000 0.045867
#
#
# Mechanical properties :
#
#
# Convention : Reuss Voigt Hill
#
# Bulk Modulus (GPa) = 44.45124 50.87627 47.66376
# Shear Modulus (GPa) = -12.67538 16.18082 1.75272
#
# Velocity S-wave (km/s) = -2.86833 3.24077 1.06661
# Velocity P-wave (km/s) = 4.22878 6.85756 5.69687
#
# Compressibility (1/GPa) = 0.02249656
#
# Stress axis : x y z
#
# Youngs Moduli (GPa) = 59.22291 66.43047 27.38738
#
# Poissons Ratio (x) = 0.18221 0.27798
# Poissons Ratio (y) = 0.16244 0.27620
# Poissons Ratio (z) = 0.60110 0.66995
#
# Static dielectric constant tensor:
#      x y z
#    x 1.544650 0.000000 0.000000 
#    y 0.000000 1.521500 0.000000 
#    z 0.000000 0.000000 1.517320 
# 
# From -- ./inp_files/47382.got.cif
#   From: 2010.05.17/outbox.cif.g08.bks.cpg/sg65_24_cif.got.tgz:47382.got - 2010.06.03 17:01:31.
