data_PCOD9484145
_publ_section_title
;
Structure prediction by ZEFSAII (Michael W. Deem and Ramdas Pophale) SiO2 
 PCOD9484145
Probable space group: C M M M
;
_chemical_formula_sum "Si O2"
_cell_formula_units_Z 96
_cell_length_a 7.600571
_cell_length_b 26.689002
_cell_length_c 24.105379
_cell_angle_alpha 90.000000
_cell_angle_beta 90.000000
_cell_angle_gamma 90.000000
_cell_volume 4889.816015
_symmetry_space_group_name_H-M "C M M M"
_symmetry_group_IT_number 65
_symmetry_cell_setting 'orthorhombic'
loop_
_space_group_symop_operation_xyz
x,y,z
-x,-y,z
x,-y,-z
-x,y,-z
-x,-y,-z
x,y,-z
-x,y,z
x,-y,z
1/2+x,1/2+y,z
1/2-x,1/2-y,z
1/2+x,1/2-y,-z
1/2-x,1/2+y,-z
1/2-x,1/2-y,-z
1/2+x,1/2+y,-z
1/2-x,1/2+y,z
1/2+x,1/2-y,z
loop_
_atom_site_type_symbol
_atom_site_label
_atom_site_fract_x
_atom_site_fract_y
_atom_site_fract_z
Si Si1 0.287432 0.095031 0.437192
Si Si2 0.298473 0.000000 0.235849
Si Si3 0.783963 0.600246 0.823016
Si Si4 0.211148 0.306350 0.374579
Si Si5 0.214173 0.441889 0.938029
Si Si6 0.297143 0.500000 0.360871
Si Si7 0.289077 0.806225 0.247854
O O1 0.223801 0.087100 0.500000
O O2 0.500000 0.096942 0.439203
O O3 0.223957 0.147870 0.412049
O O4 0.241494 0.049009 0.397353
O O5 0.223719 0.948518 0.211597
O O6 0.299899 0.000000 0.302165
O O7 0.500000 0.000000 0.215554
O O8 0.728660 0.591833 0.886533
O O9 0.722980 0.650445 0.792553
O O10 0.000000 0.601585 0.822371
O O11 0.250000 0.250000 0.394485
O O12 0.278395 0.311208 0.311213
O O13 0.000000 0.310725 0.372599
O O14 0.265061 0.500000 0.928224
O O15 0.000000 0.441348 0.938363
O O16 0.272510 0.427477 0.000000
O O17 0.500000 0.500000 0.345602
O O18 0.500000 0.811335 0.251039
O O19 0.250000 0.750000 0.228658
#
# Coordination Sequence:
#
# PCOD9484145 Si02
#       7
#    16   8  16  16  16   8  16
#     4  10  21  38  58  76  96 128 167 200 236 291
#     4  10  18  31  52  74  96 123 155 194 243 296
#     4   9  15  25  44  69  94 124 160 195 235 287
#     4   9  18  33  52  75  99 124 157 200 247 292
#     4   8  12  19  34  62  99 127 148 187 244 291
#     4  12  25  37  50  72 103 133 163 202 247 290
#     4   9  17  29  45  65  91 123 159 193 230 277
#
# _framework density 19.632639000000001
#
# number of rings (size 3 to 8) (size 9 to 14) (size 15 to 20)
#    0.000    2.667    0.833    2.500    0.000    5.000 
#    0.000    4.167    0.000    0.500    0.000    0.000 
#    0.000    2.667    0.000    0.000    0.000    0.000 
#
# Total GULP energy -267831.021267 kJ/mol
# GULP energy per Si atom -5579.812943 kJ/mol
# Density = 1.958795 g / cm^3
# Si number density = 19.632639 Si / 1000 Ang^3
#
#
#
# Elastic Constant Matrix: (Units=GPa)
#
#
# Indices 1 2 3 4 5 6 
#
# 1 41.8629 -3.0508 -5.6020 0.0000 0.0000 0.0000
# 2 -3.0508 121.0562 58.5154 0.0000 0.0000 0.0000
# 3 -5.6020 58.5154 97.3568 0.0000 0.0000 0.0000
# 4 0.0000 0.0000 0.0000 -24.0280 0.0000 0.0000
# 5 0.0000 0.0000 0.0000 0.0000 -7.8999 0.0000
# 6 0.0000 0.0000 0.0000 0.0000 0.0000 17.0916
#
#
#
# Elastic Compliance Matrix: (Units=1/GPa)
#
#
# Indices 1 2 3 4 5 6 
#
# 1 0.024074 -0.000089 0.001439 0.000000 0.000000 0.000000
# 2 -0.000089 0.011644 -0.007003 0.000000 0.000000 0.000000
# 3 0.001439 -0.007003 0.014564 0.000000 0.000000 0.000000
# 4 0.000000 0.000000 0.000000 -0.041618 0.000000 0.000000
# 5 0.000000 0.000000 0.000000 0.000000 -0.126584 0.000000
# 6 0.000000 0.000000 0.000000 0.000000 0.000000 0.058508
#
#
# Mechanical properties :
#
#
# Convention : Reuss Voigt Hill
#
# Bulk Modulus (GPa) = 25.65835 40.00012 32.82923
# Shear Modulus (GPa) = -142.39286 11.06028 -65.66629
#
# Velocity S-wave (km/s) = -8.52561 2.37610 -5.78966
# Velocity P-wave (km/s) = 9.15517 5.28643 5.28540
#
# Compressibility (1/GPa) = 0.03897367
#
# Stress axis : x y z
#
# Youngs Moduli (GPa) = 41.53940 85.88370 68.66436
#
# Poissons Ratio (x) = 0.00761 -0.09877
# Poissons Ratio (y) = 0.00368 0.48088
# Poissons Ratio (z) = -0.05975 0.60148
#
# Static dielectric constant tensor:
#      x y z
#    x 1.755950 0.000000 0.000000 
#    y 0.000000 1.662850 0.000000 
#    z 0.000000 0.000000 1.689890 
# 
# From -- ./inp_files/68091.got.cif
#   From: 2010.05.17/outbox.cif.g08.bks.cpg/sg65_35_cif.got.tgz:68091.got - 2010.06.03 17:01:31.
