data_PCOD9484389
_publ_section_title
;
Structure prediction by ZEFSAII (Michael W. Deem and Ramdas Pophale) SiO2 
 PCOD9484389
Probable space group: C M M M
;
_chemical_formula_sum "Si O2"
_cell_formula_units_Z 56
_cell_length_a 8.570374
_cell_length_b 24.017696
_cell_length_c 15.919060
_cell_angle_alpha 90.000000
_cell_angle_beta 90.000000
_cell_angle_gamma 90.000000
_cell_volume 3276.789456
_symmetry_space_group_name_H-M "C M M M"
_symmetry_group_IT_number 65
_symmetry_cell_setting 'orthorhombic'
loop_
_space_group_symop_operation_xyz
x,y,z
-x,-y,z
x,-y,-z
-x,y,-z
-x,-y,-z
x,y,-z
-x,y,z
x,-y,z
1/2+x,1/2+y,z
1/2-x,1/2-y,z
1/2+x,1/2-y,-z
1/2-x,1/2+y,-z
1/2-x,1/2-y,-z
1/2+x,1/2+y,-z
1/2-x,1/2+y,z
1/2+x,1/2-y,z
loop_
_atom_site_type_symbol
_atom_site_label
_atom_site_fract_x
_atom_site_fract_y
_atom_site_fract_z
Si Si1 0.313814 0.313198 0.500000
Si Si2 0.812280 0.812091 0.000000
Si Si3 0.185875 0.686793 0.323350
Si Si4 0.189186 0.880389 0.834729
Si Si5 0.309893 0.500000 0.902097
O O1 0.500000 0.313098 0.500000
O O2 0.250000 0.250000 0.500000
O O3 0.250962 0.336325 0.587995
O O4 0.750000 0.750000 0.000000
O O5 0.763685 0.844629 0.916360
O O6 0.000000 0.811112 0.000000
O O7 0.250000 0.750000 0.311128
O O8 0.239880 0.647912 0.247294
O O9 0.000000 0.690257 0.327615
O O10 0.000000 0.878829 0.828161
O O11 0.237010 0.943818 0.854259
O O12 0.500000 0.500000 0.904987
O O13 0.258716 0.500000 0.000000
#
# Coordination Sequence:
#
# PCOD9484389 Si02
#       5
#     8   8  16  16   8
#     4  10  18  32  54  79 106 137 172 212 258 314
#     4  10  20  31  47  71 103 136 171 212 259 308
#     4  11  21  34  52  78 110 142 174 213 262 316
#     4  10  19  33  53  77 103 137 178 221 262 310
#     4   9  16  32  57  78  99 134 183 227 264 306
#
# _framework density 17.0899
#
# number of rings (size 3 to 8) (size 9 to 14) (size 15 to 20)
#    0.000    1.857    1.429    6.429    0.000    3.429 
#    0.000    0.714    0.000    1.714    0.000    6.000 
#    0.000    0.000    0.000    0.000    0.000    0.000 
#
# Total GULP energy -156265.438151 kJ/mol
# GULP energy per Si atom -5580.908505 kJ/mol
# Density = 1.705100 g / cm^3
# Si number density = 17.089900 Si / 1000 Ang^3
#
#
#
# Elastic Constant Matrix: (Units=GPa)
#
#
# Indices 1 2 3 4 5 6 
#
# 1 86.6470 39.2358 61.2947 0.0000 0.0000 0.0000
# 2 39.2358 133.4405 90.0676 0.0000 0.0000 0.0000
# 3 61.2947 90.0676 198.1802 0.0000 0.0000 0.0000
# 4 0.0000 0.0000 0.0000 -0.2396 0.0000 0.0000
# 5 0.0000 0.0000 0.0000 0.0000 27.8672 0.0000
# 6 0.0000 0.0000 0.0000 0.0000 0.0000 18.6704
#
#
#
# Elastic Compliance Matrix: (Units=1/GPa)
#
#
# Indices 1 2 3 4 5 6 
#
# 1 0.015085 -0.001856 -0.003822 0.000000 0.000000 0.000000
# 2 -0.001856 0.011038 -0.004443 0.000000 0.000000 0.000000
# 3 -0.003822 -0.004443 0.008247 0.000000 0.000000 0.000000
# 4 0.000000 0.000000 0.000000 -4.172857 0.000000 0.000000
# 5 0.000000 0.000000 0.000000 0.000000 0.035884 0.000000
# 6 0.000000 0.000000 0.000000 0.000000 0.000000 0.053561
#
#
# Mechanical properties :
#
#
# Convention : Reuss Voigt Hill
#
# Bulk Modulus (GPa) = 70.77416 88.82933 79.80175
# Shear Modulus (GPa) = -1.24252 24.43758 11.59753
#
# Velocity S-wave (km/s) = -0.85360 3.78556 2.60786
# Velocity P-wave (km/s) = 6.36642 8.43788 7.47426
#
# Compressibility (1/GPa) = 0.01412945
#
# Stress axis : x y z
#
# Youngs Moduli (GPa) = 66.28960 90.59432 121.25331
#
# Poissons Ratio (x) = 0.16811 0.46348
# Poissons Ratio (y) = 0.12301 0.53869
# Poissons Ratio (z) = 0.25338 0.40248
#
# Static dielectric constant tensor:
#      x y z
#    x 1.585420 0.000000 0.000000 
#    y 0.000000 1.553510 0.000000 
#    z 0.000000 0.000000 1.589860 
# 
# From -- ./inp_files/35565.got.cif
#   From: 2010.05.17/outbox.cif.g08.bks.cpg/sg65_18_cif.got.tgz:35565.got - 2010.06.03 17:01:31.
