data_PCOD9484861
_publ_section_title
;
Structure prediction by ZEFSAII (Michael W. Deem and Ramdas Pophale) SiO2 
 PCOD9484861
Probable space group: C M M M
;
_chemical_formula_sum "Si O2"
_cell_formula_units_Z 112
_cell_length_a 15.600702
_cell_length_b 16.037442
_cell_length_c 23.418940
_cell_angle_alpha 90.000000
_cell_angle_beta 90.000000
_cell_angle_gamma 90.000000
_cell_volume 5859.309972
_symmetry_space_group_name_H-M "C M M M"
_symmetry_group_IT_number 65
_symmetry_cell_setting 'orthorhombic'
loop_
_space_group_symop_operation_xyz
x,y,z
-x,-y,z
x,-y,-z
-x,y,-z
-x,-y,-z
x,y,-z
-x,y,z
x,-y,z
1/2+x,1/2+y,z
1/2-x,1/2-y,z
1/2+x,1/2-y,-z
1/2-x,1/2+y,-z
1/2-x,1/2-y,-z
1/2+x,1/2+y,-z
1/2-x,1/2+y,z
1/2+x,1/2-y,z
loop_
_atom_site_type_symbol
_atom_site_label
_atom_site_fract_x
_atom_site_fract_y
_atom_site_fract_z
Si Si1 0.899368 0.095523 0.158010
Si Si2 0.895118 0.768973 0.934655
Si Si3 0.326072 0.593085 0.432950
Si Si4 0.404347 0.273499 0.355496
Si Si5 0.163492 0.593212 0.348447
Si Si6 0.101488 0.411242 0.930702
Si Si7 0.718872 0.663557 0.254644
O O1 0.872693 0.156989 0.107307
O O2 0.838845 0.111461 0.211857
O O3 0.000000 0.112609 0.172182
O O4 0.893827 0.000000 0.139476
O O5 0.863842 0.678499 0.912516
O O6 0.000000 0.764945 0.936360
O O7 0.866465 0.781953 0.000000
O O8 0.308335 0.601571 0.500000
O O9 0.365074 0.500000 0.423695
O O10 0.382169 0.669895 0.410205
O O11 0.239627 0.594179 0.395381
O O12 0.500000 0.291473 0.336641
O O13 0.392594 0.174367 0.362847
O O14 0.339317 0.303389 0.306910
O O15 0.125204 0.500000 0.348862
O O16 0.206468 0.611809 0.286366
O O17 0.139172 0.500000 0.910916
O O18 0.000000 0.412675 0.916255
O O19 0.105612 0.409978 0.000000
O O20 0.750000 0.750000 0.226269
#
# Coordination Sequence:
#
# PCOD9484861 Si02
#       7
#    16  16  16  16  16  16  16
#     4  10  19  29  46  73 100 125 155 196 243 287
#     4   8  14  24  38  61  95 128 154 185 232 291
#     4   9  18  33  52  73 100 136 174 207 239 280
#     4  10  20  32  49  75 103 128 157 201 252 295
#     4   9  18  33  53  74  96 129 169 202 237 288
#     4   7   9  15  30  51  75 108 148 182 212 252
#     4   9  18  34  53  69  90 123 164 205 244 288
#
# _framework density 19.114878999999998
#
# number of rings (size 3 to 8) (size 9 to 14) (size 15 to 20)
#    0.000    3.143    0.000    3.429    0.000    2.857 
#    0.000    2.143    0.000    4.714    0.000    7.000 
#    0.000    0.000    0.000    0.000    0.000    0.000 
#
# Total GULP energy -311826.531130 kJ/mol
# GULP energy per Si atom -5568.330913 kJ/mol
# Density = 1.907137 g / cm^3
# Si number density = 19.114879 Si / 1000 Ang^3
#
#
#
# Elastic Constant Matrix: (Units=GPa)
#
#
# Indices 1 2 3 4 5 6 
#
# 1 19.0678 5.9571 2.1482 0.0000 0.0000 0.0000
# 2 5.9571 127.5433 52.6962 0.0000 0.0000 0.0000
# 3 2.1482 52.6962 52.4516 0.0000 0.0000 0.0000
# 4 0.0000 0.0000 0.0000 28.7885 0.0000 0.0000
# 5 0.0000 0.0000 0.0000 0.0000 4.8750 0.0000
# 6 0.0000 0.0000 0.0000 0.0000 0.0000 4.5673
#
#
#
# Elastic Compliance Matrix: (Units=1/GPa)
#
#
# Indices 1 2 3 4 5 6 
#
# 1 0.053230 -0.002711 0.000543 0.000000 0.000000 0.000000
# 2 -0.002711 0.013543 -0.013495 0.000000 0.000000 0.000000
# 3 0.000543 -0.013495 0.032601 0.000000 0.000000 0.000000
# 4 0.000000 0.000000 0.000000 0.034736 0.000000 0.000000
# 5 0.000000 0.000000 0.000000 0.000000 0.205129 0.000000
# 6 0.000000 0.000000 0.000000 0.000000 0.000000 0.218946
#
#
# Mechanical properties :
#
#
# Convention : Reuss Voigt Hill
#
# Bulk Modulus (GPa) = 14.69530 35.62953 25.16242
# Shear Modulus (GPa) = 8.16737 16.86357 12.51547
#
# Velocity S-wave (km/s) = 2.06931 2.97344 2.56158
# Velocity P-wave (km/s) = 3.66251 5.51984 4.68416
#
# Compressibility (1/GPa) = 0.06804895
#
# Stress axis : x y z
#
# Youngs Moduli (GPa) = 18.78635 73.84089 30.67421
#
# Poissons Ratio (x) = 0.20015 -0.01666
# Poissons Ratio (y) = 0.05092 0.41394
# Poissons Ratio (z) = -0.01020 0.99647
#
# Static dielectric constant tensor:
#      x y z
#    x 1.660810 0.000000 0.000000 
#    y 0.000000 1.718270 0.000000 
#    z 0.000000 0.000000 1.633560 
# 
# From -- ./inp_files/70009.got.cif
#   From: 2010.05.17/outbox.cif.g08.bks.cpg/sg65_36_cif.got.tgz:70009.got - 2010.06.03 17:01:31.
