data_PCOD9484662
_publ_section_title
;
Structure prediction by ZEFSAII (Michael W. Deem and Ramdas Pophale) SiO2 
 PCOD9484662
Probable space group: C M M M
;
_chemical_formula_sum "Si O2"
_cell_formula_units_Z 96
_cell_length_a 9.065515
_cell_length_b 27.655679
_cell_length_c 24.607849
_cell_angle_alpha 90.000000
_cell_angle_beta 90.000000
_cell_angle_gamma 90.000000
_cell_volume 6169.506977
_symmetry_space_group_name_H-M "C M M M"
_symmetry_group_IT_number 65
_symmetry_cell_setting 'orthorhombic'
loop_
_space_group_symop_operation_xyz
x,y,z
-x,-y,z
x,-y,-z
-x,y,-z
-x,-y,-z
x,y,-z
-x,y,z
x,-y,z
1/2+x,1/2+y,z
1/2-x,1/2-y,z
1/2+x,1/2-y,-z
1/2-x,1/2+y,-z
1/2-x,1/2-y,-z
1/2+x,1/2+y,-z
1/2-x,1/2+y,z
1/2+x,1/2-y,z
loop_
_atom_site_type_symbol
_atom_site_label
_atom_site_fract_x
_atom_site_fract_y
_atom_site_fract_z
Si Si1 0.672076 0.558657 0.439680
Si Si2 0.822459 0.854733 0.061277
Si Si3 0.324007 0.699869 0.830903
Si Si4 0.823432 0.901578 0.777481
Si Si5 0.323567 0.055379 0.883407
Si Si6 0.826415 0.441822 0.670890
O O1 0.720335 0.574949 0.500000
O O2 0.500000 0.571827 0.432412
O O3 0.677703 0.500000 0.440379
O O4 0.767266 0.574166 0.388159
O O5 0.778346 0.817107 0.108307
O O6 0.746778 0.905496 0.076201
O O7 0.000000 0.860764 0.065348
O O8 0.786069 0.839716 0.000000
O O9 0.500000 0.705966 0.830879
O O10 0.250000 0.750000 0.815643
O O11 0.289214 0.654216 0.792428
O O12 0.746132 0.933181 0.824462
O O13 0.762718 0.917015 0.719304
O O14 0.000000 0.907870 0.780654
O O15 0.500000 0.061572 0.880913
O O16 0.291846 0.000000 0.898752
O O17 0.805101 0.500000 0.674950
O O18 0.000000 0.432161 0.676197
#
# Coordination Sequence:
#
# PCOD9484662 Si02
#       6
#    16  16  16  16  16  16
#     4   8  14  25  40  58  84 122 164 197 224 258
#     4   9  19  35  51  68  91 117 147 179 211 259
#     4   9  19  34  51  70  89 111 140 178 225 272
#     4  10  20  33  48  66  89 117 151 186 220 267
#     4  10  20  32  46  66  92 119 148 184 223 260
#     4  10  19  28  41  65  95 125 157 192 228 262
#
# _framework density 15.5604
#
# number of rings (size 3 to 8) (size 9 to 14) (size 15 to 20)
#    0.000    2.667    0.000    3.500    0.000    9.000 
#    0.000    3.333    0.000    0.000    0.000    0.000 
#    0.000    0.667    0.000    2.167    0.000    2.667 
#
# Total GULP energy -267547.584233 kJ/mol
# GULP energy per Si atom -5573.908005 kJ/mol
# Density = 1.552498 g / cm^3
# Si number density = 15.560400 Si / 1000 Ang^3
#
#
#
# Elastic Constant Matrix: (Units=GPa)
#
#
# Indices 1 2 3 4 5 6 
#
# 1 31.6860 17.4021 22.7314 0.0000 0.0000 0.0000
# 2 17.4021 39.7851 1.1380 0.0000 0.0000 0.0000
# 3 22.7314 1.1380 78.0519 0.0000 0.0000 0.0000
# 4 0.0000 0.0000 0.0000 8.5892 0.0000 0.0000
# 5 0.0000 0.0000 0.0000 0.0000 12.3444 0.0000
# 6 0.0000 0.0000 0.0000 0.0000 0.0000 23.9845
#
#
#
# Elastic Compliance Matrix: (Units=1/GPa)
#
#
# Indices 1 2 3 4 5 6 
#
# 1 0.056376 -0.024199 -0.016066 0.000000 0.000000 0.000000
# 2 -0.024199 0.035533 0.006530 0.000000 0.000000 0.000000
# 3 -0.016066 0.006530 0.017396 0.000000 0.000000 0.000000
# 4 0.000000 0.000000 0.000000 0.116425 0.000000 0.000000
# 5 0.000000 0.000000 0.000000 0.000000 0.081008 0.000000
# 6 0.000000 0.000000 0.000000 0.000000 0.000000 0.041694
#
#
# Mechanical properties :
#
#
# Convention : Reuss Voigt Hill
#
# Bulk Modulus (GPa) = 23.90423 25.78510 24.84467
# Shear Modulus (GPa) = 11.63205 16.20038 13.91622
#
# Velocity S-wave (km/s) = 2.73709 3.23015 2.99379
# Velocity P-wave (km/s) = 5.03830 5.52438 5.28693
#
# Compressibility (1/GPa) = 0.04183359
#
# Stress axis : x y z
#
# Youngs Moduli (GPa) = 17.73817 28.14275 57.48558
#
# Poissons Ratio (x) = 0.68104 0.92354
# Poissons Ratio (y) = 0.42925 -0.37536
# Poissons Ratio (z) = 0.28498 -0.18376
#
# Static dielectric constant tensor:
#      x y z
#    x 1.518230 0.000000 0.000000 
#    y 0.000000 1.493630 0.000000 
#    z 0.000000 0.000000 1.526720 
# 
# From -- ./inp_files/67829.got.cif
#   From: 2010.05.17/outbox.cif.g08.bks.cpg/sg65_34_cif.got.tgz:67829.got - 2010.06.03 17:01:31.
