data_PCOD9484906
_publ_section_title
;
Structure prediction by ZEFSAII (Michael W. Deem and Ramdas Pophale) SiO2 
 PCOD9484906
Probable space group: C M M M
;
_chemical_formula_sum "Si O2"
_cell_formula_units_Z 104
_cell_length_a 29.671988
_cell_length_b 7.310745
_cell_length_c 24.554958
_cell_angle_alpha 90.000000
_cell_angle_beta 90.000000
_cell_angle_gamma 90.000000
_cell_volume 5326.568007
_symmetry_space_group_name_H-M "C M M M"
_symmetry_group_IT_number 65
_symmetry_cell_setting 'orthorhombic'
loop_
_space_group_symop_operation_xyz
x,y,z
-x,-y,z
x,-y,-z
-x,y,-z
-x,-y,-z
x,y,-z
-x,y,z
x,-y,z
1/2+x,1/2+y,z
1/2-x,1/2-y,z
1/2+x,1/2-y,-z
1/2-x,1/2+y,-z
1/2-x,1/2-y,-z
1/2+x,1/2+y,-z
1/2-x,1/2+y,z
1/2+x,1/2-y,z
loop_
_atom_site_type_symbol
_atom_site_label
_atom_site_fract_x
_atom_site_fract_y
_atom_site_fract_z
Si Si1 0.196937 0.782369 0.666714
Si Si2 0.549920 0.277756 0.603805
Si Si3 0.854855 0.223311 0.559817
Si Si4 0.696252 0.717720 0.000000
Si Si5 0.644469 0.723880 0.774379
Si Si6 0.303601 0.718632 0.881172
Si Si7 0.950012 0.777820 0.269269
O O1 0.250000 0.750000 0.668812
O O2 0.174929 0.713409 0.610734
O O3 0.172302 0.715264 0.721169
O O4 0.189436 0.000000 0.666473
O O5 0.500000 0.217969 0.585979
O O6 0.549593 0.500000 0.602497
O O7 0.593389 0.220159 0.570174
O O8 0.556182 0.225720 0.667268
O O9 0.839378 0.281537 0.500000
O O10 0.854184 0.000000 0.560207
O O11 0.750000 0.750000 0.000000
O O12 0.681343 0.788828 0.940852
O O13 0.688100 0.500000 0.000000
O O14 0.645279 0.500000 0.774911
O O15 0.668347 0.786681 0.829629
O O16 0.592726 0.780670 0.765818
O O17 0.309238 0.500000 0.882560
O O18 0.250000 0.750000 0.874024
O O19 0.000000 0.718411 0.251898
O O20 0.950028 0.000000 0.268887
#
# Coordination Sequence:
#
# PCOD9484906 Si02
#       7
#    16  16  16   8  16  16  16
#     4  10  19  30  42  56  76 101 129 159 189 221
#     4   8  12  19  32  50  73  98 120 146 186 233
#     4   9  16  25  36  51  73 100 126 152 188 231
#     4   8  14  24  36  52  75 103 131 159 188 220
#     4   9  15  24  38  56  77 101 127 156 190 226
#     4   9  16  25  38  56  79 105 132 159 189 223
#     4   8  12  19  33  52  74  98 122 150 186 227
#
# _framework density 19.524767000000001
#
# number of rings (size 3 to 8) (size 9 to 14) (size 15 to 20)
#    0.000    3.231    1.538    1.385    0.000    0.615 
#    0.000    1.538    0.000    0.000    0.000    0.538 
#    0.000    8.615    0.000    1.385    0.000   28.462 
#
# Total GULP energy -290010.087716 kJ/mol
# GULP energy per Si atom -5577.117071 kJ/mol
# Density = 1.948033 g / cm^3
# Si number density = 19.524767 Si / 1000 Ang^3
#
#
#
# Elastic Constant Matrix: (Units=GPa)
#
#
# Indices 1 2 3 4 5 6 
#
# 1 127.3003 -1.4419 94.5575 0.0000 0.0000 0.0000
# 2 -1.4419 79.8265 10.3706 0.0000 0.0000 0.0000
# 3 94.5575 10.3706 188.3628 0.0000 0.0000 0.0000
# 4 0.0000 0.0000 0.0000 -12.0570 0.0000 0.0000
# 5 0.0000 0.0000 0.0000 0.0000 19.4980 0.0000
# 6 0.0000 0.0000 0.0000 0.0000 0.0000 2.4575
#
#
#
# Elastic Compliance Matrix: (Units=1/GPa)
#
#
# Indices 1 2 3 4 5 6 
#
# 1 0.012614 0.001058 -0.006391 0.000000 0.000000 0.000000
# 2 0.001058 0.012706 -0.001231 0.000000 0.000000 0.000000
# 3 -0.006391 -0.001231 0.008585 0.000000 0.000000 0.000000
# 4 0.000000 0.000000 0.000000 -0.082939 0.000000 0.000000
# 5 0.000000 0.000000 0.000000 0.000000 0.051287 0.000000
# 6 0.000000 0.000000 0.000000 0.000000 0.000000 0.406915
#
#
# Mechanical properties :
#
#
# Convention : Reuss Voigt Hill
#
# Bulk Modulus (GPa) = 48.12611 66.94021 57.53316
# Shear Modulus (GPa) = 11.64902 21.44661 16.54781
#
# Velocity S-wave (km/s) = 2.44525 3.31785 2.91439
# Velocity P-wave (km/s) = 5.71617 7.00262 6.39184
#
# Compressibility (1/GPa) = 0.02077874
#
# Stress axis : x y z
#
# Youngs Moduli (GPa) = 79.27517 78.70195 116.48615
#
# Poissons Ratio (x) = -0.08327 0.74441
# Poissons Ratio (y) = -0.08388 0.14336
# Poissons Ratio (z) = 0.50661 0.09686
#
# Static dielectric constant tensor:
#      x y z
#    x 1.667500 0.000000 0.000000 
#    y 0.000000 1.797090 0.000000 
#    z 0.000000 0.000000 1.688190 
# 
# From -- ./inp_files/72128.got.cif
#   From: 2010.05.17/outbox.cif.g08.bks.cpg/sg65_37_cif.got.tgz:72128.got - 2010.06.03 17:01:31.
