data_PCOD9484872
_publ_section_title
;
Structure prediction by ZEFSAII (Michael W. Deem and Ramdas Pophale) SiO2 
 PCOD9484872
Probable space group: C M M M
;
_chemical_formula_sum "Si O2"
_cell_formula_units_Z 50
_cell_length_a 16.229328
_cell_length_b 7.289606
_cell_length_c 19.894099
_cell_angle_alpha 90.000000
_cell_angle_beta 90.000000
_cell_angle_gamma 90.000000
_cell_volume 2353.579474
_symmetry_space_group_name_H-M "C M M M"
_symmetry_group_IT_number 65
_symmetry_cell_setting 'orthorhombic'
loop_
_space_group_symop_operation_xyz
x,y,z
-x,-y,z
x,-y,-z
-x,y,-z
-x,-y,-z
x,y,-z
-x,y,z
x,-y,z
1/2+x,1/2+y,z
1/2-x,1/2-y,z
1/2+x,1/2-y,-z
1/2-x,1/2+y,-z
1/2-x,1/2-y,-z
1/2+x,1/2+y,-z
1/2-x,1/2+y,z
1/2+x,1/2-y,z
loop_
_atom_site_type_symbol
_atom_site_label
_atom_site_fract_x
_atom_site_fract_y
_atom_site_fract_z
Si Si1 0.847010 0.282059 0.500000
Si Si2 0.500000 0.775370 0.872962
Si Si3 0.594789 0.222516 0.355451
Si Si4 0.500000 0.500000 0.000000
Si Si5 0.157781 0.282547 0.216047
O O1 0.864377 0.500000 0.500000
O O2 0.750000 0.250000 0.500000
O O3 0.881825 0.209839 0.429529
O O4 0.500000 0.661288 0.941101
O O5 0.417899 0.723332 0.830615
O O6 0.500000 0.000000 0.882140
O O7 0.500000 0.265672 0.340732
O O8 0.648221 0.289102 0.292409
O O9 0.601950 0.000000 0.358100
O O10 0.147473 0.500000 0.220792
O O11 0.250000 0.250000 0.190034
#
# Coordination Sequence:
#
# PCOD9484872 Si02
#       5
#     8   8  16   2  16
#     4  10  19  29  47  73 111 152 206 259 309 369
#     4  10  23  45  69  97 133 171 203 259 318 377
#     4   9  16  30  51  79 110 157 208 259 308 366
#     4  12  26  44  80  98 132 164 214 252 312 398
#     4  10  20  36  62  89 124 162 209 258 313 372
#
# _framework density 21.244237999999999
#
# number of rings (size 3 to 8) (size 9 to 14) (size 15 to 20)
#    0.000    2.240    1.600    1.680    2.240    1.920 
#    0.000    0.800    0.000    3.840    0.000    0.000 
#    0.000    0.000    0.000    0.000    0.000    0.000 
#
# Total GULP energy -139311.857154 kJ/mol
# GULP energy per Si atom -5572.474286 kJ/mol
# Density = 2.119588 g / cm^3
# Si number density = 21.244238 Si / 1000 Ang^3
#
#
#
# Elastic Constant Matrix: (Units=GPa)
#
#
# Indices 1 2 3 4 5 6 
#
# 1 147.0232 5.1703 82.0138 0.0000 0.0000 0.0000
# 2 5.1703 106.1586 36.0974 0.0000 0.0000 0.0000
# 3 82.0138 36.0974 181.8650 0.0000 0.0000 0.0000
# 4 0.0000 0.0000 0.0000 -35.7367 0.0000 0.0000
# 5 0.0000 0.0000 0.0000 0.0000 -2.1641 0.0000
# 6 0.0000 0.0000 0.0000 0.0000 0.0000 16.9612
#
#
#
# Elastic Compliance Matrix: (Units=1/GPa)
#
#
# Indices 1 2 3 4 5 6 
#
# 1 0.009192 0.001031 -0.004350 0.000000 0.000000 0.000000
# 2 0.001031 0.010217 -0.002493 0.000000 0.000000 0.000000
# 3 -0.004350 -0.002493 0.007955 0.000000 0.000000 0.000000
# 4 0.000000 0.000000 0.000000 -0.027982 0.000000 0.000000
# 5 0.000000 0.000000 0.000000 0.000000 -0.462084 0.000000
# 6 0.000000 0.000000 0.000000 0.000000 0.000000 0.058958
#
#
# Mechanical properties :
#
#
# Convention : Reuss Voigt Hill
#
# Bulk Modulus (GPa) = 63.52779 75.73440 69.63109
# Shear Modulus (GPa) = -12.92411 16.59644 1.83616
#
# Velocity S-wave (km/s) = -2.46917 2.79807 0.93069
# Velocity P-wave (km/s) = 4.67326 6.79453 5.83117
#
# Compressibility (1/GPa) = 0.01574114
#
# Stress axis : x y z
#
# Youngs Moduli (GPa) = 108.79183 97.87241 125.70630
#
# Poissons Ratio (x) = -0.10095 0.54681
# Poissons Ratio (y) = -0.11221 0.31340
# Poissons Ratio (z) = 0.47323 0.24401
#
# Static dielectric constant tensor:
#      x y z
#    x 1.767250 0.000000 0.000000 
#    y 0.000000 1.811820 0.000000 
#    z 0.000000 0.000000 1.752010 
# 
# From -- ./inp_files/48701.got.cif
#   From: 2010.05.17/outbox.cif.g08.bks.cpg/sg65_25_cif.got.tgz:48701.got - 2010.06.03 17:01:31.
