data_PCOD9484391
_publ_section_title
;
Structure prediction by ZEFSAII (Michael W. Deem and Ramdas Pophale) SiO2 
 PCOD9484391
Probable space group: C M M M
;
_chemical_formula_sum "Si O2"
_cell_formula_units_Z 76
_cell_length_a 7.521556
_cell_length_b 26.833943
_cell_length_c 18.455684
_cell_angle_alpha 90.000000
_cell_angle_beta 90.000000
_cell_angle_gamma 90.000000
_cell_volume 3724.966161
_symmetry_space_group_name_H-M "C M M M"
_symmetry_group_IT_number 65
_symmetry_cell_setting 'orthorhombic'
loop_
_space_group_symop_operation_xyz
x,y,z
-x,-y,z
x,-y,-z
-x,y,-z
-x,-y,-z
x,y,-z
-x,y,z
x,-y,z
1/2+x,1/2+y,z
1/2-x,1/2-y,z
1/2+x,1/2-y,-z
1/2-x,1/2+y,-z
1/2-x,1/2-y,-z
1/2+x,1/2+y,-z
1/2-x,1/2+y,z
1/2+x,1/2-y,z
loop_
_atom_site_type_symbol
_atom_site_label
_atom_site_fract_x
_atom_site_fract_y
_atom_site_fract_z
Si Si1 0.000000 0.574458 0.500000
Si Si2 0.214073 0.055127 0.784653
Si Si3 0.296275 0.590569 0.623093
Si Si4 0.787700 0.693411 0.690447
Si Si5 0.204549 0.659234 0.154333
Si Si6 0.713033 0.808315 0.000000
O O1 0.844186 0.576010 0.437059
O O2 0.252738 0.065817 0.700248
O O3 0.290304 0.100459 0.830461
O O4 0.000000 0.057325 0.791524
O O5 0.274532 0.000000 0.805064
O O6 0.500000 0.577032 0.605366
O O7 0.287774 0.650181 0.639193
O O8 0.750000 0.750000 0.668303
O O9 0.717753 0.684243 0.772699
O O10 0.000000 0.685652 0.691117
O O11 0.284973 0.671011 0.076247
O O12 0.000000 0.676805 0.151807
O O13 0.750000 0.750000 0.000000
O O14 0.500000 0.818262 0.000000
#
# Coordination Sequence:
#
# PCOD9484391 Si02
#       6
#     4  16  16  16  16   8
#     4  12  22  40  59  84 118 146 184 228 291 364
#     4   9  19  37  60  84 108 141 189 235 280 336
#     4  10  21  38  59  81 113 150 183 235 289 338
#     4  10  18  32  54  79 107 143 196 238 278 337
#     4   9  19  33  52  80 112 150 188 235 282 334
#     4  10  20  34  51  80 121 155 192 231 281 334
#
# _framework density 20.402871000000001
#
# number of rings (size 3 to 8) (size 9 to 14) (size 15 to 20)
#    0.000    2.316    1.053    1.579    1.474    2.105 
#    0.000    2.105    0.000    5.684    0.000    0.000 
#    0.000    0.000    0.000    0.000    0.000    0.000 
#
# Total GULP energy -211605.942565 kJ/mol
# GULP energy per Si atom -5568.577436 kJ/mol
# Density = 2.035643 g / cm^3
# Si number density = 20.402871 Si / 1000 Ang^3
#
#
#
# Elastic Constant Matrix: (Units=GPa)
#
#
# Indices 1 2 3 4 5 6 
#
# 1 88.5388 -12.5663 35.6331 0.0000 0.0000 0.0000
# 2 -12.5663 59.5950 -4.5140 0.0000 0.0000 0.0000
# 3 35.6331 -4.5140 88.2936 0.0000 0.0000 0.0000
# 4 0.0000 0.0000 0.0000 34.4215 0.0000 0.0000
# 5 0.0000 0.0000 0.0000 0.0000 5.1701 0.0000
# 6 0.0000 0.0000 0.0000 0.0000 0.0000 15.3763
#
#
#
# Elastic Compliance Matrix: (Units=1/GPa)
#
#
# Indices 1 2 3 4 5 6 
#
# 1 0.013848 0.002506 -0.005460 0.000000 0.000000 0.000000
# 2 0.002506 0.017299 -0.000127 0.000000 0.000000 0.000000
# 3 -0.005460 -0.000127 0.013523 0.000000 0.000000 0.000000
# 4 0.000000 0.000000 0.000000 0.029052 0.000000 0.000000
# 5 0.000000 0.000000 0.000000 0.000000 0.193420 0.000000
# 6 0.000000 0.000000 0.000000 0.000000 0.000000 0.065035
#
#
# Mechanical properties :
#
#
# Convention : Reuss Voigt Hill
#
# Bulk Modulus (GPa) = 25.96915 30.39255 28.18085
# Shear Modulus (GPa) = 14.23793 25.51856 19.87825
#
# Velocity S-wave (km/s) = 2.64453 3.54041 3.12474
# Velocity P-wave (km/s) = 4.69899 5.62505 5.18275
#
# Compressibility (1/GPa) = 0.03850724
#
# Stress axis : x y z
#
# Youngs Moduli (GPa) = 72.21352 57.80747 73.94774
#
# Poissons Ratio (x) = -0.14489 0.40379
# Poissons Ratio (y) = -0.18099 0.00940
# Poissons Ratio (z) = 0.39432 0.00735
#
# Static dielectric constant tensor:
#      x y z
#    x 1.796930 0.000000 0.000000 
#    y 0.000000 1.720990 0.000000 
#    z 0.000000 0.000000 1.711320 
# 
# From -- ./inp_files/49909.got.cif
#   From: 2010.05.17/outbox.cif.g08.bks.cpg/sg65_25_cif.got.tgz:49909.got - 2010.06.03 17:01:31.
