data_PCOD9484788
_publ_section_title
;
Structure prediction by ZEFSAII (Michael W. Deem and Ramdas Pophale) SiO2 
 PCOD9484788
Probable space group: C M M M
;
_chemical_formula_sum "Si O2"
_cell_formula_units_Z 104
_cell_length_a 8.694558
_cell_length_b 27.599013
_cell_length_c 22.862244
_cell_angle_alpha 90.000000
_cell_angle_beta 90.000000
_cell_angle_gamma 90.000000
_cell_volume 5486.051946
_symmetry_space_group_name_H-M "C M M M"
_symmetry_group_IT_number 65
_symmetry_cell_setting 'orthorhombic'
loop_
_space_group_symop_operation_xyz
x,y,z
-x,-y,z
x,-y,-z
-x,y,-z
-x,-y,-z
x,y,-z
-x,y,z
x,-y,z
1/2+x,1/2+y,z
1/2-x,1/2-y,z
1/2+x,1/2-y,-z
1/2-x,1/2+y,-z
1/2-x,1/2-y,-z
1/2+x,1/2+y,-z
1/2-x,1/2+y,z
1/2+x,1/2-y,z
loop_
_atom_site_type_symbol
_atom_site_label
_atom_site_fract_x
_atom_site_fract_y
_atom_site_fract_z
Si Si1 0.315885 0.903345 0.123846
Si Si2 0.823659 0.000000 0.930315
Si Si3 0.821473 0.199226 0.747599
Si Si4 0.676591 0.301426 0.111101
Si Si5 0.312351 0.944572 0.247192
Si Si6 0.316584 0.302249 0.567678
Si Si7 0.819841 0.373461 0.661226
O O1 0.500000 0.901335 0.124278
O O2 0.259815 0.951233 0.090645
O O3 0.255572 0.852830 0.096995
O O4 0.261350 0.913096 0.191011
O O5 0.000000 0.000000 0.908541
O O6 0.825948 0.000000 0.000000
O O7 0.750000 0.250000 0.728984
O O8 0.818213 0.198617 0.817815
O O9 0.712199 0.160816 0.716933
O O10 0.000000 0.193316 0.729170
O O11 0.500000 0.302464 0.092113
O O12 0.750000 0.250000 0.091991
O O13 0.500000 0.943237 0.246971
O O14 0.263621 0.923986 0.310515
O O15 0.264612 0.000000 0.238331
O O16 0.268392 0.309376 0.500000
O O17 0.500000 0.299096 0.569928
O O18 0.250000 0.250000 0.586857
O O19 0.262002 0.346501 0.607938
O O20 0.000000 0.376673 0.647898
#
# Coordination Sequence:
#
# PCOD9484788 Si02
#       7
#    16   8  16  16  16  16  16
#     4  11  20  36  62  88 119 157 199 246 297 352
#     4  11  25  43  63  91 125 159 200 249 296 343
#     4  10  19  29  43  67 103 141 178 215 258 317
#     4  10  20  33  51  79 117 158 197 236 284 347
#     4   9  18  33  53  80 110 143 180 227 284 339
#     4  10  21  37  55  75 103 139 182 230 279 333
#     4  11  20  31  51  75 104 138 177 223 276 335
#
# _framework density 18.957166000000001
#
# number of rings (size 3 to 8) (size 9 to 14) (size 15 to 20)
#    0.000    1.769    2.308    3.000    0.000    2.769 
#    0.000    0.000    0.000    0.923    0.000    3.231 
#    0.000    0.000    0.000    0.000    0.000    0.000 
#
# Total GULP energy -289967.279512 kJ/mol
# GULP energy per Si atom -5576.293837 kJ/mol
# Density = 1.891402 g / cm^3
# Si number density = 18.957166 Si / 1000 Ang^3
#
#
#
# Elastic Constant Matrix: (Units=GPa)
#
#
# Indices 1 2 3 4 5 6 
#
# 1 61.0585 39.1156 11.7305 0.0000 0.0000 0.0000
# 2 39.1156 144.6620 19.7049 0.0000 0.0000 0.0000
# 3 11.7305 19.7049 35.4242 0.0000 0.0000 0.0000
# 4 0.0000 0.0000 0.0000 9.3004 0.0000 0.0000
# 5 0.0000 0.0000 0.0000 0.0000 11.1629 0.0000
# 6 0.0000 0.0000 0.0000 0.0000 0.0000 23.2308
#
#
#
# Elastic Compliance Matrix: (Units=1/GPa)
#
#
# Indices 1 2 3 4 5 6 
#
# 1 0.020313 -0.004951 -0.003972 0.000000 0.000000 0.000000
# 2 -0.004951 0.008686 -0.003192 0.000000 0.000000 0.000000
# 3 -0.003972 -0.003192 0.031320 0.000000 0.000000 0.000000
# 4 0.000000 0.000000 0.000000 0.107522 0.000000 0.000000
# 5 0.000000 0.000000 0.000000 0.000000 0.089582 0.000000
# 6 0.000000 0.000000 0.000000 0.000000 0.000000 0.043046
#
#
# Mechanical properties :
#
#
# Convention : Reuss Voigt Hill
#
# Bulk Modulus (GPa) = 27.71011 42.47186 35.09098
# Shear Modulus (GPa) = 14.84867 20.11176 17.48022
#
# Velocity S-wave (km/s) = 2.80174 3.26069 3.03989
# Velocity P-wave (km/s) = 5.01152 6.05218 5.55626
#
# Compressibility (1/GPa) = 0.03608791
#
# Stress axis : x y z
#
# Youngs Moduli (GPa) = 49.22992 115.12367 31.92812
#
# Poissons Ratio (x) = 0.57002 0.12683
# Poissons Ratio (y) = 0.24376 0.10192
# Poissons Ratio (z) = 0.19555 0.36750
#
# Static dielectric constant tensor:
#      x y z
#    x 1.654220 0.000000 0.000000 
#    y 0.000000 1.602460 0.000000 
#    z 0.000000 0.000000 1.676880 
# 
# From -- ./inp_files/68259.got.cif
#   From: 2010.05.17/outbox.cif.g08.bks.cpg/sg65_35_cif.got.tgz:68259.got - 2010.06.03 17:01:31.
