data_PCOD9484187
_publ_section_title
;
Structure prediction by ZEFSAII (Michael W. Deem and Ramdas Pophale) SiO2 
 PCOD9484187
Probable space group: C M M M
;
_chemical_formula_sum "Si O2"
_cell_formula_units_Z 68
_cell_length_a 8.358523
_cell_length_b 21.642075
_cell_length_c 17.694137
_cell_angle_alpha 90.000000
_cell_angle_beta 90.000000
_cell_angle_gamma 90.000000
_cell_volume 3200.794743
_symmetry_space_group_name_H-M "C M M M"
_symmetry_group_IT_number 65
_symmetry_cell_setting 'orthorhombic'
loop_
_space_group_symop_operation_xyz
x,y,z
-x,-y,z
x,-y,-z
-x,y,-z
-x,-y,-z
x,y,-z
-x,y,z
x,-y,z
1/2+x,1/2+y,z
1/2-x,1/2-y,z
1/2+x,1/2-y,-z
1/2-x,1/2+y,-z
1/2-x,1/2-y,-z
1/2+x,1/2+y,-z
1/2-x,1/2+y,z
1/2+x,1/2-y,z
loop_
_atom_site_type_symbol
_atom_site_label
_atom_site_fract_x
_atom_site_fract_y
_atom_site_fract_z
Si Si1 0.691697 0.684894 0.684146
Si Si2 0.688951 0.136544 0.838897
Si Si3 0.694719 0.432043 0.411971
Si Si4 0.760804 0.000000 0.000000
Si Si5 0.176084 0.000000 0.828268
Si Si6 0.809418 0.129401 0.000000
O O1 0.500000 0.683763 0.685309
O O2 0.750000 0.750000 0.651922
O O3 0.755199 0.677326 0.768967
O O4 0.750632 0.625896 0.636432
O O5 0.500000 0.139476 0.848523
O O6 0.738340 0.065640 0.816273
O O7 0.771731 0.156968 0.917921
O O8 0.740610 0.426497 0.500000
O O9 0.500000 0.431663 0.410034
O O10 0.746494 0.500000 0.383758
O O11 0.842925 0.000000 0.919131
O O12 0.691964 0.068704 0.000000
O O13 0.000000 0.000000 0.791680
O O14 0.500000 0.386222 0.000000
#
# Coordination Sequence:
#
# PCOD9484187 Si02
#       6
#    16  16  16   4   8   8
#     4  11  23  39  60  87 123 166 208 254 307 367
#     4  11  22  36  55  84 119 157 203 258 312 366
#     4   8  16  34  62  95 125 156 201 252 300 359
#     4   8  13  24  45  72 103 136 179 234 287 348
#     4  10  18  31  52  79 110 150 196 244 303 366
#     4  10  18  33  55  80 111 154 204 254 309 371
#
# _framework density 21.244724000000001
#
# number of rings (size 3 to 8) (size 9 to 14) (size 15 to 20)
#    0.000    2.118    0.000    6.706    1.647    0.471 
#    0.000    4.118    0.000    2.118    0.000    6.588 
#    0.000    0.000    0.000    0.000    0.000    0.000 
#
# Total GULP energy -189514.006621 kJ/mol
# GULP energy per Si atom -5573.941371 kJ/mol
# Density = 2.119637 g / cm^3
# Si number density = 21.244724 Si / 1000 Ang^3
#
#
#
# Elastic Constant Matrix: (Units=GPa)
#
#
# Indices 1 2 3 4 5 6 
#
# 1 82.5539 22.8851 14.7104 0.0000 0.0000 0.0000
# 2 22.8851 135.8017 68.8961 0.0000 0.0000 0.0000
# 3 14.7104 68.8961 87.8559 0.0000 0.0000 0.0000
# 4 0.0000 0.0000 0.0000 -10.4253 0.0000 0.0000
# 5 0.0000 0.0000 0.0000 0.0000 3.9072 0.0000
# 6 0.0000 0.0000 0.0000 0.0000 0.0000 25.5047
#
#
#
# Elastic Compliance Matrix: (Units=1/GPa)
#
#
# Indices 1 2 3 4 5 6 
#
# 1 0.012736 -0.001768 -0.000746 0.000000 0.000000 0.000000
# 2 -0.001768 0.012474 -0.009486 0.000000 0.000000 0.000000
# 3 -0.000746 -0.009486 0.018946 0.000000 0.000000 0.000000
# 4 0.000000 0.000000 0.000000 -0.095920 0.000000 0.000000
# 5 0.000000 0.000000 0.000000 0.000000 0.255939 0.000000
# 6 0.000000 0.000000 0.000000 0.000000 0.000000 0.039209
#
#
# Mechanical properties :
#
#
# Convention : Reuss Voigt Hill
#
# Bulk Modulus (GPa) = 49.61219 57.68829 53.65024
# Shear Modulus (GPa) = 18.24126 17.11196 17.67661
#
# Velocity S-wave (km/s) = 2.93341 2.84116 2.88765
# Velocity P-wave (km/s) = 5.90564 6.16247 6.03542
#
# Compressibility (1/GPa) = 0.02015634
#
# Stress axis : x y z
#
# Youngs Moduli (GPa) = 78.51568 80.16547 52.78079
#
# Poissons Ratio (x) = 0.14171 0.03939
# Poissons Ratio (y) = 0.13879 0.50069
# Poissons Ratio (z) = 0.05860 0.76047
#
# Static dielectric constant tensor:
#      x y z
#    x 1.743220 0.000000 0.000000 
#    y 0.000000 1.821390 0.000000 
#    z 0.000000 0.000000 1.772000 
# 
# From -- ./inp_files/49263.got.cif
#   From: 2010.05.17/outbox.cif.g08.bks.cpg/sg65_25_cif.got.tgz:49263.got - 2010.06.03 17:01:31.
