data_PCOD9484103
_publ_section_title
;
Structure prediction by ZEFSAII (Michael W. Deem and Ramdas Pophale) SiO2 
 PCOD9484103
Probable space group: C M M M
;
_chemical_formula_sum "Si O2"
_cell_formula_units_Z 96
_cell_length_a 19.484466
_cell_length_b 30.661277
_cell_length_c 7.398327
_cell_angle_alpha 90.000000
_cell_angle_beta 90.000000
_cell_angle_gamma 90.000000
_cell_volume 4419.898227
_symmetry_space_group_name_H-M "C M M M"
_symmetry_group_IT_number 65
_symmetry_cell_setting 'orthorhombic'
loop_
_space_group_symop_operation_xyz
x,y,z
-x,-y,z
x,-y,-z
-x,y,-z
-x,-y,-z
x,y,-z
-x,y,z
x,-y,z
1/2+x,1/2+y,z
1/2-x,1/2-y,z
1/2+x,1/2-y,-z
1/2-x,1/2+y,-z
1/2-x,1/2-y,-z
1/2+x,1/2+y,-z
1/2-x,1/2+y,z
1/2+x,1/2-y,z
loop_
_atom_site_type_symbol
_atom_site_label
_atom_site_fract_x
_atom_site_fract_y
_atom_site_fract_z
Si Si1 0.277162 0.453726 0.293092
Si Si2 0.185066 0.621695 0.797462
Si Si3 0.074156 0.929978 0.217731
Si Si4 0.575587 0.327297 0.781009
Si Si5 0.079963 0.450631 0.779973
Si Si6 0.726113 0.701763 0.778920
O O1 0.253833 0.450949 0.500000
O O2 0.254357 0.500000 0.214621
O O3 0.248367 0.412067 0.193136
O O4 0.358830 0.452198 0.291620
O O5 0.126130 0.590154 0.716692
O O6 0.219208 0.665054 0.715644
O O7 0.161394 0.633570 0.000000
O O8 0.077991 0.878651 0.262814
O O9 0.000000 0.946484 0.277530
O O10 0.076735 0.933738 0.000000
O O11 0.500000 0.310670 0.720218
O O12 0.647614 0.306949 0.718963
O O13 0.575278 0.323915 0.000000
O O14 0.099201 0.500000 0.719682
O O15 0.000000 0.444381 0.734794
O O16 0.085596 0.451004 0.000000
O O17 0.750000 0.750000 0.729578
O O18 0.725668 0.698638 0.000000
#
# Coordination Sequence:
#
# PCOD9484103 Si02
#       6
#    16  16  16  16  16  16
#     4  11  23  34  45  67 100 132 161 199 247 293
#     4  10  18  31  51  71  93 127 166 200 237 290
#     4   9  17  31  51  71  91 123 168 205 232 277
#     4   8  13  24  43  65  90 121 156 193 232 276
#     4   8  14  25  43  69  97 121 149 191 241 289
#     4   9  16  26  43  70  97 120 152 200 250 286
#
# _framework density 21.719957000000001
#
# number of rings (size 3 to 8) (size 9 to 14) (size 15 to 20)
#    0.000    2.833    1.667    2.500    0.000    2.667 
#    0.000    2.500    0.000    6.000    0.000    2.333 
#    0.000    0.000    0.000    0.000    0.000    0.000 
#
# Total GULP energy -267688.336448 kJ/mol
# GULP energy per Si atom -5576.840343 kJ/mol
# Density = 2.167052 g / cm^3
# Si number density = 21.719957 Si / 1000 Ang^3
#
#
#
# Elastic Constant Matrix: (Units=GPa)
#
#
# Indices 1 2 3 4 5 6 
#
# 1 179.0763 84.3731 1.5154 0.0000 0.0000 0.0000
# 2 84.3731 159.6706 8.3386 0.0000 0.0000 0.0000
# 3 1.5154 8.3386 72.0606 0.0000 0.0000 0.0000
# 4 0.0000 0.0000 0.0000 -7.1765 0.0000 0.0000
# 5 0.0000 0.0000 0.0000 0.0000 -20.0146 0.0000
# 6 0.0000 0.0000 0.0000 0.0000 0.0000 36.1334
#
#
#
# Elastic Compliance Matrix: (Units=1/GPa)
#
#
# Indices 1 2 3 4 5 6 
#
# 1 0.007442 -0.003948 0.000300 0.000000 0.000000 0.000000
# 2 -0.003948 0.008396 -0.000888 0.000000 0.000000 0.000000
# 3 0.000300 -0.000888 0.013974 0.000000 0.000000 0.000000
# 4 0.000000 0.000000 0.000000 -0.139343 0.000000 0.000000
# 5 0.000000 0.000000 0.000000 0.000000 -0.049964 0.000000
# 6 0.000000 0.000000 0.000000 0.000000 0.000000 0.027675
#
#
# Mechanical properties :
#
#
# Convention : Reuss Voigt Hill
#
# Bulk Modulus (GPa) = 48.21909 66.58460 57.40185
# Shear Modulus (GPa) = -43.16490 22.89383 -10.13554
#
# Velocity S-wave (km/s) = -4.46279 3.25013 -2.16254
# Velocity P-wave (km/s) = 2.07528 6.69380 4.50001
#
# Compressibility (1/GPa) = 0.02073867
#
# Stress axis : x y z
#
# Youngs Moduli (GPa) = 134.37523 119.11078 71.56298
#
# Poissons Ratio (x) = 0.47026 -0.02149
# Poissons Ratio (y) = 0.53053 0.06358
# Poissons Ratio (z) = -0.04036 0.10583
#
# Static dielectric constant tensor:
#      x y z
#    x 1.812740 0.000000 0.000000 
#    y 0.000000 1.751400 0.000000 
#    z 0.000000 0.000000 1.850780 
# 
# From -- ./inp_files/12312.got.cif
#   From: 2010.05.17/outbox.cif.g08.bks.cpg/sg65_7_cif.got.tgz:12312.got - 2010.06.03 17:01:31.
