data_PCOD9484265
_publ_section_title
;
Structure prediction by ZEFSAII (Michael W. Deem and Ramdas Pophale) SiO2 
 PCOD9484265
Probable space group: C M M M
;
_chemical_formula_sum "Si O2"
_cell_formula_units_Z 104
_cell_length_a 23.412703
_cell_length_b 14.897967
_cell_length_c 16.604540
_cell_angle_alpha 90.000000
_cell_angle_beta 90.000000
_cell_angle_gamma 90.000000
_cell_volume 5791.691392
_symmetry_space_group_name_H-M "C M M M"
_symmetry_group_IT_number 65
_symmetry_cell_setting 'orthorhombic'
loop_
_space_group_symop_operation_xyz
x,y,z
-x,-y,z
x,-y,-z
-x,y,-z
-x,-y,-z
x,y,-z
-x,y,z
x,-y,z
1/2+x,1/2+y,z
1/2-x,1/2-y,z
1/2+x,1/2-y,-z
1/2-x,1/2+y,-z
1/2-x,1/2-y,-z
1/2+x,1/2+y,-z
1/2-x,1/2+y,z
1/2+x,1/2-y,z
loop_
_atom_site_type_symbol
_atom_site_label
_atom_site_fract_x
_atom_site_fract_y
_atom_site_fract_z
Si Si1 0.194045 0.313126 0.588710
Si Si2 0.435046 0.500000 0.595958
Si Si3 0.399689 0.602019 0.904331
Si Si4 0.562792 0.230019 0.800243
Si Si5 0.170091 0.605943 0.762766
Si Si6 0.381538 0.321607 0.661534
Si Si7 0.795538 0.894974 0.793565
O O1 0.197161 0.356850 0.500000
O O2 0.250000 0.250000 0.597426
O O3 0.183070 0.373735 0.667709
O O4 0.141728 0.243838 0.593853
O O5 0.500000 0.500000 0.626169
O O6 0.435998 0.500000 0.500000
O O7 0.402342 0.414008 0.627287
O O8 0.419064 0.500000 0.879873
O O9 0.429861 0.686289 0.861704
O O10 0.334444 0.609195 0.872919
O O11 0.404572 0.607835 0.000000
O O12 0.500000 0.189201 0.811653
O O13 0.616414 0.161361 0.797960
O O14 0.568816 0.275489 0.712675
O O15 0.160435 0.500000 0.773246
O O16 0.230191 0.633453 0.803769
O O17 0.329963 0.340116 0.725492
O O18 0.794133 0.000000 0.767854
#
# Coordination Sequence:
#
# PCOD9484265 Si02
#       7
#    16   8  16  16  16  16  16
#     4  10  19  31  50  79 113 141 174 231 296 340
#     4  11  22  32  44  68 105 147 184 214 255 324
#     4   9  19  35  58  89 120 145 173 218 278 344
#     4  10  22  36  55  79 107 146 188 230 276 330
#     4  10  21  37  57  79 108 146 196 239 277 330
#     4  10  18  32  50  72 103 141 180 222 269 332
#     4   9  16  31  54  78 105 140 177 223 275 328
#
# _framework density 17.956757
#
# number of rings (size 3 to 8) (size 9 to 14) (size 15 to 20)
#    0.000    2.231    2.308    0.923    1.077    1.231 
#    0.000    2.308    0.000    5.538    0.000    5.385 
#    0.000    0.000    0.000    0.000    0.000    0.000 
#
# Total GULP energy -289633.040391 kJ/mol
# GULP energy per Si atom -5569.866161 kJ/mol
# Density = 1.791589 g / cm^3
# Si number density = 17.956757 Si / 1000 Ang^3
#
#
#
# Elastic Constant Matrix: (Units=GPa)
#
#
# Indices 1 2 3 4 5 6 
#
# 1 113.1051 31.4249 16.3067 0.0000 0.0000 0.0000
# 2 31.4249 62.8407 9.6164 0.0000 0.0000 0.0000
# 3 16.3067 9.6164 49.0352 0.0000 0.0000 0.0000
# 4 0.0000 0.0000 0.0000 22.1542 0.0000 0.0000
# 5 0.0000 0.0000 0.0000 0.0000 15.2585 0.0000
# 6 0.0000 0.0000 0.0000 0.0000 0.0000 17.9534
#
#
#
# Elastic Compliance Matrix: (Units=1/GPa)
#
#
# Indices 1 2 3 4 5 6 
#
# 1 0.010570 -0.004895 -0.002555 0.000000 0.000000 0.000000
# 2 -0.004895 0.018672 -0.002034 0.000000 0.000000 0.000000
# 3 -0.002555 -0.002034 0.021642 0.000000 0.000000 0.000000
# 4 0.000000 0.000000 0.000000 0.045138 0.000000 0.000000
# 5 0.000000 0.000000 0.000000 0.000000 0.065537 0.000000
# 6 0.000000 0.000000 0.000000 0.000000 0.000000 0.055700
#
#
# Mechanical properties :
#
#
# Convention : Reuss Voigt Hill
#
# Bulk Modulus (GPa) = 31.33190 37.74190 34.53690
# Shear Modulus (GPa) = 20.25396 22.24875 21.25135
#
# Velocity S-wave (km/s) = 3.36211 3.52379 3.44390
# Velocity P-wave (km/s) = 5.70597 6.13351 5.92360
#
# Compressibility (1/GPa) = 0.03191636
#
# Stress axis : x y z
#
# Youngs Moduli (GPa) = 94.61098 53.55564 46.20624
#
# Poissons Ratio (x) = 0.26213 0.11806
# Poissons Ratio (y) = 0.46308 0.09399
# Poissons Ratio (z) = 0.24174 0.10894
#
# Static dielectric constant tensor:
#      x y z
#    x 1.651020 0.000000 0.000000 
#    y 0.000000 1.634220 0.000000 
#    z 0.000000 0.000000 1.605590 
# 
# From -- ./inp_files/55875.got.cif
#   From: 2010.05.17/outbox.cif.g08.bks.cpg/sg65_28_cif.got.tgz:55875.got - 2010.06.03 17:01:31.
