data_PCOD9484774
_publ_section_title
;
Structure prediction by ZEFSAII (Michael W. Deem and Ramdas Pophale) SiO2 
 PCOD9484774
Probable space group: C M M M
;
_chemical_formula_sum "Si O2"
_cell_formula_units_Z 120
_cell_length_a 14.968052
_cell_length_b 32.887914
_cell_length_c 14.698434
_cell_angle_alpha 90.000000
_cell_angle_beta 90.000000
_cell_angle_gamma 90.000000
_cell_volume 7235.568810
_symmetry_space_group_name_H-M "C M M M"
_symmetry_group_IT_number 65
_symmetry_cell_setting 'orthorhombic'
loop_
_space_group_symop_operation_xyz
x,y,z
-x,-y,z
x,-y,-z
-x,y,-z
-x,-y,-z
x,y,-z
-x,y,z
x,-y,z
1/2+x,1/2+y,z
1/2-x,1/2-y,z
1/2+x,1/2-y,-z
1/2-x,1/2+y,-z
1/2-x,1/2-y,-z
1/2+x,1/2+y,-z
1/2-x,1/2+y,z
1/2+x,1/2-y,z
loop_
_atom_site_type_symbol
_atom_site_label
_atom_site_fract_x
_atom_site_fract_y
_atom_site_fract_z
Si Si1 0.103432 0.651694 0.108973
Si Si2 0.391705 0.423921 0.265296
Si Si3 0.392902 0.648188 0.601865
Si Si4 0.107811 0.000000 0.605137
Si Si5 0.644606 0.257671 0.400144
Si Si6 0.403427 0.315542 0.106175
Si Si7 0.220553 0.107714 0.891938
Si Si8 0.646351 0.764227 0.209437
O O1 0.175895 0.616708 0.131286
O O2 0.129968 0.693927 0.157442
O O3 0.000000 0.641954 0.129989
O O4 0.110522 0.658176 0.000000
O O5 0.500000 0.424731 0.248887
O O6 0.366240 0.383025 0.320556
O O7 0.369559 0.460622 0.334322
O O8 0.333609 0.422853 0.173193
O O9 0.359366 0.637672 0.500000
O O10 0.500000 0.646012 0.598390
O O11 0.368337 0.694665 0.620804
O O12 0.141132 0.000000 0.500000
O O13 0.000000 0.000000 0.598086
O O14 0.605286 0.249463 0.500000
O O15 0.750000 0.250000 0.406749
O O16 0.612737 0.232870 0.313166
O O17 0.500000 0.335497 0.123793
O O18 0.327811 0.348581 0.123099
O O19 0.398670 0.274198 0.161360
O O20 0.397880 0.304600 0.000000
O O21 0.212634 0.098101 0.000000
O O22 0.750000 0.750000 0.210368
#
# Coordination Sequence:
#
# PCOD9484774 Si02
#       8
#    16  16  16   8  16  16  16  16
#     4  10  21  35  49  66  91 126 169 218 268 309
#     4  10  19  31  52  79 107 137 165 195 239 294
#     4   9  17  29  46  67  90 122 166 208 242 283
#     4   9  18  34  55  83 118 145 165 195 237 290
#     4   9  19  31  41  58  86 121 162 206 249 290
#     4  10  19  29  43  65  93 124 160 206 255 299
#     4  10  20  33  48  68  97 131 168 205 243 294
#     4  11  19  28  45  63  86 123 167 215 264 307
#
# _framework density 16.584735999999999
#
# number of rings (size 3 to 8) (size 9 to 14) (size 15 to 20)
#    0.000    2.200    1.333    2.400    1.867    6.133 
#    0.000    0.333    0.000    1.200    0.000    0.467 
#    0.000    2.667    0.000    0.000    0.000    0.000 
#
# Total GULP energy -334363.424322 kJ/mol
# GULP energy per Si atom -5572.723739 kJ/mol
# Density = 1.654699 g / cm^3
# Si number density = 16.584736 Si / 1000 Ang^3
#
#
#
# Elastic Constant Matrix: (Units=GPa)
#
#
# Indices 1 2 3 4 5 6 
#
# 1 78.2066 12.7423 39.7024 0.0000 0.0000 0.0000
# 2 12.7423 22.2138 45.1865 0.0000 0.0000 0.0000
# 3 39.7024 45.1865 95.1734 0.0000 0.0000 0.0000
# 4 0.0000 0.0000 0.0000 22.9343 0.0000 0.0000
# 5 0.0000 0.0000 0.0000 0.0000 12.1697 0.0000
# 6 0.0000 0.0000 0.0000 0.0000 0.0000 5.7316
#
#
#
# Elastic Compliance Matrix: (Units=1/GPa)
#
#
# Indices 1 2 3 4 5 6 
#
# 1 0.079575 0.639424 -0.336782 0.000000 0.000000 0.000000
# 2 0.639424 6.453690 -3.330831 0.000000 0.000000 0.000000
# 3 -0.336782 -3.330831 1.732414 0.000000 0.000000 0.000000
# 4 0.000000 0.000000 0.000000 0.043603 0.000000 0.000000
# 5 0.000000 0.000000 0.000000 0.000000 0.082171 0.000000
# 6 0.000000 0.000000 0.000000 0.000000 0.000000 0.174472
#
#
# Mechanical properties :
#
#
# Convention : Reuss Voigt Hill
#
# Bulk Modulus (GPa) = 0.45263 43.42847 21.94055
# Shear Modulus (GPa) = 0.32555 14.69794 7.51175
#
# Velocity S-wave (km/s) = 0.44353 2.98020 2.13053
# Velocity P-wave (km/s) = 0.73199 6.17128 4.39435
#
# Compressibility (1/GPa) = 2.20930194
#
# Stress axis : x y z
#
# Youngs Moduli (GPa) = 12.56670 0.15495 0.57723
#
# Poissons Ratio (x) = -0.09908 0.19440
# Poissons Ratio (y) = -8.03544 1.92265
# Poissons Ratio (z) = 4.23224 0.51611
#
# Static dielectric constant tensor:
#      x y z
#    x 1.730010 0.000000 0.000000 
#    y 0.000000 1.519210 0.000000 
#    z 0.000000 0.000000 1.619360 
# 
# From -- ./inp_files/41464.got.cif
#   From: 2010.05.17/outbox.cif.g08.bks.cpg/sg65_21_cif.got.tgz:41464.got - 2010.06.03 17:01:31.
