data_PCOD9484532
_publ_section_title
;
Structure prediction by ZEFSAII (Michael W. Deem and Ramdas Pophale) SiO2 
 PCOD9484532
Probable space group: C M M M
;
_chemical_formula_sum "Si O2"
_cell_formula_units_Z 88
_cell_length_a 19.571758
_cell_length_b 29.790919
_cell_length_c 7.622591
_cell_angle_alpha 90.000000
_cell_angle_beta 90.000000
_cell_angle_gamma 90.000000
_cell_volume 4444.432919
_symmetry_space_group_name_H-M "C M M M"
_symmetry_group_IT_number 65
_symmetry_cell_setting 'orthorhombic'
loop_
_space_group_symop_operation_xyz
x,y,z
-x,-y,z
x,-y,-z
-x,y,-z
-x,-y,-z
x,y,-z
-x,y,z
x,-y,z
1/2+x,1/2+y,z
1/2-x,1/2-y,z
1/2+x,1/2-y,-z
1/2-x,1/2+y,-z
1/2-x,1/2-y,-z
1/2+x,1/2+y,-z
1/2-x,1/2+y,z
1/2+x,1/2-y,z
loop_
_atom_site_type_symbol
_atom_site_label
_atom_site_fract_x
_atom_site_fract_y
_atom_site_fract_z
Si Si1 0.679796 0.774244 0.286060
Si Si2 0.078675 0.197360 0.286945
Si Si3 0.578143 0.051148 0.285980
Si Si4 0.189961 0.376815 0.286922
Si Si5 0.078907 0.053527 0.500000
Si Si6 0.846187 0.105600 0.195695
O O1 0.680816 0.774945 0.500000
O O2 0.750000 0.750000 0.230368
O O3 0.616648 0.743021 0.233066
O O4 0.676533 0.825717 0.227891
O O5 0.080175 0.195256 0.500000
O O6 0.121536 0.155015 0.220617
O O7 0.000000 0.195375 0.231009
O O8 0.578688 0.051543 0.500000
O O9 0.500000 0.060857 0.232167
O O10 0.632583 0.088000 0.227060
O O11 0.595006 0.000000 0.232362
O O12 0.189659 0.376692 0.500000
O O13 0.265460 0.390973 0.229191
O O14 0.117529 0.073523 0.666510
O O15 0.000000 0.068881 0.500000
O O16 0.080503 0.000000 0.500000
O O17 0.859348 0.089789 0.000000
#
# Coordination Sequence:
#
# PCOD9484532 Si02
#       6
#    16  16  16  16   8  16
#     4   9  16  28  50  78 114 155 199 248 296 351
#     4  10  19  34  57  84 117 159 207 258 310 366
#     4   8  15  28  49  81 117 152 196 249 303 363
#     4  10  18  33  57  84 121 167 207 252 310 366
#     4  11  26  48  70  91 121 159 199 252 317 376
#     4  12  24  40  64  94 125 159 204 254 307 373
#
# _framework density 19.800052000000001
#
# number of rings (size 3 to 8) (size 9 to 14) (size 15 to 20)
#    0.000    2.091    3.636    1.091    0.000    3.273 
#    0.000    6.364    0.000    0.545    0.000    1.273 
#    0.000    0.000    0.000    0.000    0.000    0.000 
#
# Total GULP energy -245860.650781 kJ/mol
# GULP energy per Si atom -5587.742063 kJ/mol
# Density = 1.975499 g / cm^3
# Si number density = 19.800052 Si / 1000 Ang^3
#
#
#
# Elastic Constant Matrix: (Units=GPa)
#
#
# Indices 1 2 3 4 5 6 
#
# 1 180.8088 108.3343 28.7278 0.0000 0.0000 0.0000
# 2 108.3343 147.0335 34.8193 0.0000 0.0000 0.0000
# 3 28.7278 34.8193 79.3211 0.0000 0.0000 0.0000
# 4 0.0000 0.0000 0.0000 -22.1416 0.0000 0.0000
# 5 0.0000 0.0000 0.0000 0.0000 -12.9461 0.0000
# 6 0.0000 0.0000 0.0000 0.0000 0.0000 46.6288
#
#
#
# Elastic Compliance Matrix: (Units=1/GPa)
#
#
# Indices 1 2 3 4 5 6 
#
# 1 0.009915 -0.007204 -0.000429 0.000000 0.000000 0.000000
# 2 -0.007204 0.012824 -0.003020 0.000000 0.000000 0.000000
# 3 -0.000429 -0.003020 0.014088 0.000000 0.000000 0.000000
# 4 0.000000 0.000000 0.000000 -0.045164 0.000000 0.000000
# 5 0.000000 0.000000 0.000000 0.000000 -0.077243 0.000000
# 6 0.000000 0.000000 0.000000 0.000000 0.000000 0.021446
#
#
# Mechanical properties :
#
#
# Convention : Reuss Voigt Hill
#
# Bulk Modulus (GPa) = 64.42675 83.43625 73.93150
# Shear Modulus (GPa) = -132.78854 17.99371 -57.39742
#
# Velocity S-wave (km/s) = -8.19819 3.01785 -5.38994
# Velocity P-wave (km/s) = 7.55013 7.37388 1.14681
#
# Compressibility (1/GPa) = 0.01552150
#
# Stress axis : x y z
#
# Youngs Moduli (GPa) = 100.85533 77.97674 70.98198
#
# Poissons Ratio (x) = 0.56174 0.03043
# Poissons Ratio (y) = 0.72656 0.21439
# Poissons Ratio (z) = 0.04323 0.23552
#
# Static dielectric constant tensor:
#      x y z
#    x 1.657720 0.000000 0.000000 
#    y 0.000000 1.664150 0.000000 
#    z 0.000000 0.000000 1.714740 
# 
# From -- ./inp_files/12610.got.cif
#   From: 2010.05.17/outbox.cif.g08.bks.cpg/sg65_7_cif.got.tgz:12610.got - 2010.06.03 17:01:31.
