data_PCOD9484095
_publ_section_title
;
Structure prediction by ZEFSAII (Michael W. Deem and Ramdas Pophale) SiO2 
 PCOD9484095
Probable space group: C M M M
;
_chemical_formula_sum "Si O2"
_cell_formula_units_Z 104
_cell_length_a 23.641884
_cell_length_b 27.660167
_cell_length_c 7.593483
_cell_angle_alpha 90.000000
_cell_angle_beta 90.000000
_cell_angle_gamma 90.000000
_cell_volume 4965.670576
_symmetry_space_group_name_H-M "C M M M"
_symmetry_group_IT_number 65
_symmetry_cell_setting 'orthorhombic'
loop_
_space_group_symop_operation_xyz
x,y,z
-x,-y,z
x,-y,-z
-x,y,-z
-x,-y,-z
x,y,-z
-x,y,z
x,-y,z
1/2+x,1/2+y,z
1/2-x,1/2-y,z
1/2+x,1/2-y,-z
1/2-x,1/2+y,-z
1/2-x,1/2-y,-z
1/2+x,1/2+y,-z
1/2-x,1/2+y,z
1/2+x,1/2-y,z
loop_
_atom_site_type_symbol
_atom_site_label
_atom_site_fract_x
_atom_site_fract_y
_atom_site_fract_z
Si Si1 0.871482 0.596279 0.715909
Si Si2 0.829379 0.864284 0.210761
Si Si3 0.562937 0.694954 0.207750
Si Si4 0.099755 0.697767 0.303731
Si Si5 0.751125 0.444446 0.288375
Si Si6 0.064247 0.500000 0.285066
Si Si7 0.225602 0.303206 0.797590
O O1 0.871264 0.599445 0.500000
O O2 0.905132 0.644145 0.778392
O O3 0.805951 0.587186 0.770943
O O4 0.903709 0.548135 0.769720
O O5 0.887472 0.840356 0.278648
O O6 0.808394 0.918943 0.241159
O O7 0.775826 0.834576 0.282413
O O8 0.829735 0.856185 0.000000
O O9 0.500000 0.687727 0.283174
O O10 0.579357 0.751798 0.222386
O O11 0.559664 0.684542 0.000000
O O12 0.075417 0.696988 0.500000
O O13 0.167868 0.699243 0.306992
O O14 0.754707 0.445913 0.500000
O O15 0.755328 0.500000 0.225501
O O16 0.065040 0.500000 0.500000
O O17 0.000000 0.500000 0.226712
O O18 0.250000 0.250000 0.808054
O O19 0.212516 0.318129 0.000000
#
# Coordination Sequence:
#
# PCOD9484095 Si02
#       7
#    16  16  16  16  16   8  16
#     4   9  17  29  45  72 106 139 174 216 260 306
#     4  10  20  34  55  81 105 134 177 225 268 320
#     4  10  22  41  59  74 102 146 186 219 266 328
#     4  11  21  31  50  80 113 140 171 219 269 315
#     4  10  19  33  54  79 111 143 172 213 273 333
#     4   9  16  28  46  64  91 139 186 217 248 294
#     4  10  18  31  50  74 106 138 172 212 256 310
#
# _framework density 20.943797
#
# number of rings (size 3 to 8) (size 9 to 14) (size 15 to 20)
#    0.000    2.077    3.846    0.462    0.000    2.154 
#    0.000    1.538    0.000    0.462    0.000    3.231 
#    0.000    4.308    0.000    0.000    0.000    0.000 
#
# Total GULP energy -289850.672849 kJ/mol
# GULP energy per Si atom -5574.051401 kJ/mol
# Density = 2.089613 g / cm^3
# Si number density = 20.943797 Si / 1000 Ang^3
#
#
#
# Elastic Constant Matrix: (Units=GPa)
#
#
# Indices 1 2 3 4 5 6 
#
# 1 131.1545 44.8642 3.8294 0.0000 0.0000 0.0000
# 2 44.8642 92.7943 -2.1360 0.0000 0.0000 0.0000
# 3 3.8294 -2.1360 45.9436 0.0000 0.0000 0.0000
# 4 0.0000 0.0000 0.0000 20.1474 0.0000 0.0000
# 5 0.0000 0.0000 0.0000 0.0000 -13.8636 0.0000
# 6 0.0000 0.0000 0.0000 0.0000 0.0000 15.5359
#
#
#
# Elastic Compliance Matrix: (Units=1/GPa)
#
#
# Indices 1 2 3 4 5 6 
#
# 1 0.009179 -0.004460 -0.000972 0.000000 0.000000 0.000000
# 2 -0.004460 0.012955 0.000974 0.000000 0.000000 0.000000
# 3 -0.000972 0.000974 0.021892 0.000000 0.000000 0.000000
# 4 0.000000 0.000000 0.000000 0.049634 0.000000 0.000000
# 5 0.000000 0.000000 0.000000 0.000000 -0.072131 0.000000
# 6 0.000000 0.000000 0.000000 0.000000 0.000000 0.064367
#
#
# Mechanical properties :
#
#
# Convention : Reuss Voigt Hill
#
# Bulk Modulus (GPa) = 28.48248 40.33418 34.40833
# Shear Modulus (GPa) = 46.94142 19.25293 33.09718
#
# Velocity S-wave (km/s) = 4.73938 3.03523 3.97959
# Velocity P-wave (km/s) = 6.60136 5.61993 6.13032
#
# Compressibility (1/GPa) = 0.03510930
#
# Stress axis : x y z
#
# Youngs Moduli (GPa) = 108.94841 77.18838 45.67845
#
# Poissons Ratio (x) = 0.34427 0.04442
# Poissons Ratio (y) = 0.48592 -0.04449
# Poissons Ratio (z) = 0.10594 -0.07519
#
# Static dielectric constant tensor:
#      x y z
#    x 1.765940 0.000000 0.000000 
#    y 0.000000 1.803230 0.000000 
#    z 0.000000 0.000000 1.818260 
# 
# From -- ./inp_files/14714.got.cif
#   From: 2010.05.17/outbox.cif.g08.bks.cpg/sg65_8_cif.got.tgz:14714.got - 2010.06.03 17:01:31.
