data_PCOD9484999
_publ_section_title
;
Structure prediction by ZEFSAII (Michael W. Deem and Ramdas Pophale) SiO2 
 PCOD9484999
Probable space group: C M M M
;
_chemical_formula_sum "Si O2"
_cell_formula_units_Z 96
_cell_length_a 22.106204
_cell_length_b 31.254073
_cell_length_c 7.638286
_cell_angle_alpha 90.000000
_cell_angle_beta 90.000000
_cell_angle_gamma 90.000000
_cell_volume 5277.359882
_symmetry_space_group_name_H-M "C M M M"
_symmetry_group_IT_number 65
_symmetry_cell_setting 'orthorhombic'
loop_
_space_group_symop_operation_xyz
x,y,z
-x,-y,z
x,-y,-z
-x,y,-z
-x,-y,-z
x,y,-z
-x,y,z
x,-y,z
1/2+x,1/2+y,z
1/2-x,1/2-y,z
1/2+x,1/2-y,-z
1/2-x,1/2+y,-z
1/2-x,1/2-y,-z
1/2+x,1/2+y,-z
1/2-x,1/2+y,z
1/2+x,1/2-y,z
loop_
_atom_site_type_symbol
_atom_site_label
_atom_site_fract_x
_atom_site_fract_y
_atom_site_fract_z
Si Si1 0.768535 0.139123 0.211579
Si Si2 0.799238 0.953881 0.204792
Si Si3 0.803972 0.280138 0.293806
Si Si4 0.595964 0.337988 0.789247
Si Si5 0.565084 0.756743 0.704922
Si Si6 0.565288 0.566640 0.704221
O O1 0.771158 0.090111 0.277467
O O2 0.717068 0.170979 0.275023
O O3 0.833179 0.159842 0.260027
O O4 0.766525 0.137907 0.000000
O O5 0.872251 0.949230 0.213409
O O6 0.782665 0.000000 0.282945
O O7 0.782958 0.954747 0.000000
O O8 0.808055 0.269261 0.500000
O O9 0.750000 0.250000 0.219459
O O10 0.870904 0.272487 0.217915
O O11 0.568384 0.294629 0.718335
O O12 0.567817 0.381939 0.721698
O O13 0.590951 0.338087 0.000000
O O14 0.564539 0.768950 0.500000
O O15 0.500000 0.770555 0.780911
O O16 0.567755 0.555029 0.500000
O O17 0.500000 0.552243 0.775360
#
# Coordination Sequence:
#
# PCOD9484999 Si02
#       6
#    16  16  16  16  16  16
#     4   9  18  31  48  69  90 117 151 190 231 270
#     4   9  19  35  51  67  88 114 147 189 237 284
#     4  10  19  31  48  69  92 123 159 190 224 272
#     4  10  19  30  45  65  89 119 158 198 234 272
#     4  10  20  32  45  64  93 125 156 192 233 272
#     4  10  20  31  43  61  87 119 155 194 235 277
#
# _framework density 18.190912000000001
#
# number of rings (size 3 to 8) (size 9 to 14) (size 15 to 20)
#    0.000    2.333    1.667    2.500    0.000    8.000 
#    0.000    1.667    0.000    0.000    0.000    0.000 
#    0.000    0.667    0.000    8.333    0.000    0.000 
#
# Total GULP energy -267721.122676 kJ/mol
# GULP energy per Si atom -5577.523389 kJ/mol
# Density = 1.814951 g / cm^3
# Si number density = 18.190912 Si / 1000 Ang^3
#
#
#
# Elastic Constant Matrix: (Units=GPa)
#
#
# Indices 1 2 3 4 5 6 
#
# 1 126.9289 58.3479 5.7318 0.0000 0.0000 0.0000
# 2 58.3479 98.8102 -7.8507 0.0000 0.0000 0.0000
# 3 5.7318 -7.8507 38.2540 0.0000 0.0000 0.0000
# 4 0.0000 0.0000 0.0000 15.5034 0.0000 0.0000
# 5 0.0000 0.0000 0.0000 0.0000 9.0796 0.0000
# 6 0.0000 0.0000 0.0000 0.0000 0.0000 -1.9140
#
#
#
# Elastic Compliance Matrix: (Units=1/GPa)
#
#
# Indices 1 2 3 4 5 6 
#
# 1 0.011159 -0.006833 -0.003074 0.000000 0.000000 0.000000
# 2 -0.006833 0.014473 0.003994 0.000000 0.000000 0.000000
# 3 -0.003074 0.003994 0.027421 0.000000 0.000000 0.000000
# 4 0.000000 0.000000 0.000000 0.064502 0.000000 0.000000
# 5 0.000000 0.000000 0.000000 0.000000 0.110137 0.000000
# 6 0.000000 0.000000 0.000000 0.000000 0.000000 -0.522466
#
#
# Mechanical properties :
#
#
# Convention : Reuss Voigt Hill
#
# Bulk Modulus (GPa) = 24.25679 41.82791 33.04235
# Shear Modulus (GPa) = -18.57322 18.38474 -0.09424
#
# Velocity S-wave (km/s) = -3.19880 3.18253 -0.22786
# Velocity P-wave (km/s) = 0.52877 6.04553 4.25845
#
# Compressibility (1/GPa) = 0.04122558
#
# Stress axis : x y z
#
# Youngs Moduli (GPa) = 89.61771 69.09452 36.46781
#
# Poissons Ratio (x) = 0.47215 0.11211
# Poissons Ratio (y) = 0.61240 -0.14566
# Poissons Ratio (z) = 0.27552 -0.27597
#
# Static dielectric constant tensor:
#      x y z
#    x 1.653350 0.000000 0.000000 
#    y 0.000000 1.645380 0.000000 
#    z 0.000000 0.000000 1.663370 
# 
# From -- ./inp_files/14612.got.cif
#   From: 2010.05.17/outbox.cif.g08.bks.cpg/sg65_8_cif.got.tgz:14612.got - 2010.06.03 17:01:31.
