data_PCOD9484799
_publ_section_title
;
Structure prediction by ZEFSAII (Michael W. Deem and Ramdas Pophale) SiO2 
 PCOD9484799
Probable space group: C M M M
;
_chemical_formula_sum "Si O2"
_cell_formula_units_Z 80
_cell_length_a 14.353716
_cell_length_b 26.114990
_cell_length_c 13.112214
_cell_angle_alpha 90.000000
_cell_angle_beta 90.000000
_cell_angle_gamma 90.000000
_cell_volume 4915.076046
_symmetry_space_group_name_H-M "C M M M"
_symmetry_group_IT_number 65
_symmetry_cell_setting 'orthorhombic'
loop_
_space_group_symop_operation_xyz
x,y,z
-x,-y,z
x,-y,-z
-x,y,-z
-x,-y,-z
x,y,-z
-x,y,z
x,-y,z
1/2+x,1/2+y,z
1/2-x,1/2-y,z
1/2+x,1/2-y,-z
1/2-x,1/2+y,-z
1/2-x,1/2-y,-z
1/2+x,1/2+y,-z
1/2-x,1/2+y,z
1/2+x,1/2-y,z
loop_
_atom_site_type_symbol
_atom_site_label
_atom_site_fract_x
_atom_site_fract_y
_atom_site_fract_z
Si Si1 0.750000 0.750000 0.235890
Si Si2 0.391119 0.677888 0.881878
Si Si3 0.887103 0.000000 0.616119
Si Si4 0.608878 0.389480 0.308092
Si Si5 0.109930 0.443309 0.376713
Si Si6 0.214179 0.339991 0.617652
O O1 0.675636 0.720591 0.166072
O O2 0.799565 0.708341 0.309165
O O3 0.500000 0.693147 0.875043
O O4 0.380316 0.628621 0.808495
O O5 0.369404 0.668042 0.000000
O O6 0.861698 0.947691 0.671477
O O7 0.850835 0.000000 0.500000
O O8 0.000000 0.000000 0.610847
O O9 0.500000 0.384032 0.335874
O O10 0.676254 0.353782 0.374103
O O11 0.118295 0.443761 0.500000
O O12 0.142857 0.500000 0.341397
O O13 0.162225 0.391603 0.344293
O O14 0.000000 0.439480 0.352724
O O15 0.188519 0.329925 0.500000
#
# Coordination Sequence:
#
# PCOD9484799 Si02
#       6
#     8  16   8  16  16  16
#     4  10  20  32  46  70  96 120 152 200 238 286
#     4   9  18  34  53  68  86 116 154 199 248 287
#     4   9  16  26  41  63  94 126 151 176 209 259
#     4   9  18  30  44  67  95 123 157 192 225 273
#     4   8  15  28  44  62  85 117 160 201 230 263
#     4  10  19  29  44  65  95 131 160 186 228 282
#
# _framework density 16.276453
#
# number of rings (size 3 to 8) (size 9 to 14) (size 15 to 20)
#    0.000    2.900    0.000    1.800    1.400    2.000 
#    0.000    0.500    0.000    6.600    0.000    0.000 
#    0.000    0.000    0.000   21.200    0.000    4.200 
#
# Total GULP energy -222738.322426 kJ/mol
# GULP energy per Si atom -5568.458061 kJ/mol
# Density = 1.623941 g / cm^3
# Si number density = 16.276453 Si / 1000 Ang^3
#
#
#
# Elastic Constant Matrix: (Units=GPa)
#
#
# Indices 1 2 3 4 5 6 
#
# 1 40.4010 33.2111 25.8288 0.0000 0.0000 0.0000
# 2 33.2111 110.0045 55.4128 0.0000 0.0000 0.0000
# 3 25.8288 55.4128 89.4023 0.0000 0.0000 0.0000
# 4 0.0000 0.0000 0.0000 13.7656 0.0000 0.0000
# 5 0.0000 0.0000 0.0000 0.0000 13.2148 0.0000
# 6 0.0000 0.0000 0.0000 0.0000 0.0000 25.9283
#
#
#
# Elastic Compliance Matrix: (Units=1/GPa)
#
#
# Indices 1 2 3 4 5 6 
#
# 1 0.034450 -0.007833 -0.005098 0.000000 0.000000 0.000000
# 2 -0.007833 0.014998 -0.007033 0.000000 0.000000 0.000000
# 3 -0.005098 -0.007033 0.017017 0.000000 0.000000 0.000000
# 4 0.000000 0.000000 0.000000 0.072645 0.000000 0.000000
# 5 0.000000 0.000000 0.000000 0.000000 0.075673 0.000000
# 6 0.000000 0.000000 0.000000 0.000000 0.000000 0.038568
#
#
# Mechanical properties :
#
#
# Convention : Reuss Voigt Hill
#
# Bulk Modulus (GPa) = 37.68199 52.07925 44.88062
# Shear Modulus (GPa) = 16.54949 18.93874 17.74412
#
# Velocity S-wave (km/s) = 3.19215 3.41481 3.30536
# Velocity P-wave (km/s) = 6.06530 6.90029 6.49623
#
# Compressibility (1/GPa) = 0.02653787
#
# Stress axis : x y z
#
# Youngs Moduli (GPa) = 29.02779 66.67530 58.76324
#
# Poissons Ratio (x) = 0.52224 0.29957
# Poissons Ratio (y) = 0.22736 0.41329
# Poissons Ratio (z) = 0.14798 0.46894
#
# Static dielectric constant tensor:
#      x y z
#    x 1.579940 0.000000 0.000000 
#    y 0.000000 1.561310 0.000000 
#    z 0.000000 0.000000 1.521250 
# 
# From -- ./inp_files/25033.got.cif
#   From: 2010.05.17/outbox.cif.g08.bks.cpg/sg65_13_cif.got.tgz:25033.got - 2010.06.03 17:01:31.
