data_PCOD9484988
_publ_section_title
;
Structure prediction by ZEFSAII (Michael W. Deem and Ramdas Pophale) SiO2 
 PCOD9484988
Probable space group: C M M M
;
_chemical_formula_sum "Si O2"
_cell_formula_units_Z 88
_cell_length_a 18.297211
_cell_length_b 7.329399
_cell_length_c 30.167593
_cell_angle_alpha 90.000000
_cell_angle_beta 90.000000
_cell_angle_gamma 90.000000
_cell_volume 4045.702288
_symmetry_space_group_name_H-M "C M M M"
_symmetry_group_IT_number 65
_symmetry_cell_setting 'orthorhombic'
loop_
_space_group_symop_operation_xyz
x,y,z
-x,-y,z
x,-y,-z
-x,y,-z
-x,-y,-z
x,y,-z
-x,y,z
x,-y,z
1/2+x,1/2+y,z
1/2-x,1/2-y,z
1/2+x,1/2-y,-z
1/2-x,1/2+y,-z
1/2-x,1/2-y,-z
1/2+x,1/2+y,-z
1/2-x,1/2+y,z
1/2+x,1/2-y,z
loop_
_atom_site_type_symbol
_atom_site_label
_atom_site_fract_x
_atom_site_fract_y
_atom_site_fract_z
Si Si1 0.584598 0.277004 0.821665
Si Si2 0.085462 0.777438 0.355905
Si Si3 0.836249 0.217380 0.910785
Si Si4 0.835981 0.217404 0.267388
Si Si5 0.415315 0.276986 0.000000
Si Si6 0.087381 0.780104 0.547629
O O1 0.500000 0.223729 0.822941
O O2 0.586522 0.500000 0.821547
O O3 0.627021 0.214364 0.865551
O O4 0.623375 0.214344 0.776573
O O5 0.130464 0.713249 0.313502
O O6 0.114244 0.716281 0.404284
O O7 0.000000 0.726943 0.351437
O O8 0.087128 0.000000 0.356484
O O9 0.750000 0.250000 0.911319
O O10 0.874498 0.285637 0.955551
O O11 0.847541 0.000000 0.910711
O O12 0.750000 0.250000 0.264640
O O13 0.847794 0.000000 0.267933
O O14 0.413529 0.500000 0.000000
O O15 0.500000 0.223646 0.000000
O O16 0.116462 0.713002 0.500000
O O17 0.000000 0.743860 0.547891
O O18 0.095241 0.000000 0.547211
#
# Coordination Sequence:
#
# PCOD9484988 Si02
#       6
#    16  16  16  16   8  16
#     4   9  17  30  49  70  88 111 148 187 217 250
#     4   8  13  22  38  59  80 105 140 177 210 247
#     4  10  19  31  49  71  95 121 148 182 222 263
#     4  10  19  30  45  64  87 114 142 175 214 256
#     4   9  17  30  49  71  92 119 158 194 218 247
#     4   7   9  14  27  50  78 102 126 165 214 251
#
# _framework density 21.751477000000001
#
# number of rings (size 3 to 8) (size 9 to 14) (size 15 to 20)
#    0.000    3.182    0.000    3.545    0.000    4.364 
#    0.000    0.000    0.000    6.545    0.000    0.000 
#    0.000    0.000    0.000    4.545    0.000    3.636 
#
# Total GULP energy -245562.002222 kJ/mol
# GULP energy per Si atom -5580.954596 kJ/mol
# Density = 2.170197 g / cm^3
# Si number density = 21.751477 Si / 1000 Ang^3
#
#
#
# Elastic Constant Matrix: (Units=GPa)
#
#
# Indices 1 2 3 4 5 6 
#
# 1 150.2189 -4.7746 136.6461 0.0000 0.0000 0.0000
# 2 -4.7746 84.2670 13.3556 0.0000 0.0000 0.0000
# 3 136.6461 13.3556 304.6214 0.0000 0.0000 0.0000
# 4 0.0000 0.0000 0.0000 -22.5258 0.0000 0.0000
# 5 0.0000 0.0000 0.0000 0.0000 -13.9560 0.0000
# 6 0.0000 0.0000 0.0000 0.0000 0.0000 -2.3564
#
#
#
# Elastic Compliance Matrix: (Units=1/GPa)
#
#
# Indices 1 2 3 4 5 6 
#
# 1 0.011424 0.001470 -0.005189 0.000000 0.000000 0.000000
# 2 0.001470 0.012139 -0.001191 0.000000 0.000000 0.000000
# 3 -0.005189 -0.001191 0.005663 0.000000 0.000000 0.000000
# 4 0.000000 0.000000 0.000000 -0.044393 0.000000 0.000000
# 5 0.000000 0.000000 0.000000 0.000000 -0.071654 0.000000
# 6 0.000000 0.000000 0.000000 0.000000 0.000000 -0.424371
#
#
# Mechanical properties :
#
#
# Convention : Reuss Voigt Hill
#
# Bulk Modulus (GPa) = 51.53545 92.17351 71.85448
# Shear Modulus (GPa) = -10.10298 18.49103 4.19403
#
# Velocity S-wave (km/s) = -2.15750 2.91882 1.39009
# Velocity P-wave (km/s) = 4.18782 7.33669 5.97348
#
# Compressibility (1/GPa) = 0.01940412
#
# Stress axis : x y z
#
# Youngs Moduli (GPa) = 87.53756 82.37807 176.59765
#
# Poissons Ratio (x) = -0.12107 0.91633
# Poissons Ratio (y) = -0.12865 0.21041
# Poissons Ratio (z) = 0.45422 0.09815
#
# Static dielectric constant tensor:
#      x y z
#    x 1.710090 0.000000 0.000000 
#    y 0.000000 1.846800 0.000000 
#    z 0.000000 0.000000 1.809140 
# 
# From -- ./inp_files/74750.got.cif
#   From: 2010.05.17/outbox.cif.g08.bks.cpg/sg65_38_cif.got.tgz:74750.got - 2010.06.03 17:01:31.
