data_PCOD9484816
_publ_section_title
;
Structure prediction by ZEFSAII (Michael W. Deem and Ramdas Pophale) SiO2 
 PCOD9484816
Probable space group: C M M M
;
_chemical_formula_sum "Si O2"
_cell_formula_units_Z 112
_cell_length_a 23.611969
_cell_length_b 29.969305
_cell_length_c 7.320375
_cell_angle_alpha 90.000000
_cell_angle_beta 90.000000
_cell_angle_gamma 90.000000
_cell_volume 5180.148443
_symmetry_space_group_name_H-M "C M M M"
_symmetry_group_IT_number 65
_symmetry_cell_setting 'orthorhombic'
loop_
_space_group_symop_operation_xyz
x,y,z
-x,-y,z
x,-y,-z
-x,y,-z
-x,-y,-z
x,y,-z
-x,y,z
x,-y,z
1/2+x,1/2+y,z
1/2-x,1/2-y,z
1/2+x,1/2-y,-z
1/2-x,1/2+y,-z
1/2-x,1/2-y,-z
1/2+x,1/2+y,-z
1/2-x,1/2+y,z
1/2+x,1/2-y,z
loop_
_atom_site_type_symbol
_atom_site_label
_atom_site_fract_x
_atom_site_fract_y
_atom_site_fract_z
Si Si1 0.064651 0.449929 0.780588
Si Si2 0.436148 0.599524 0.277739
Si Si3 0.674449 0.450536 0.722299
Si Si4 0.259882 0.362322 0.276855
Si Si5 0.369777 0.688368 0.722050
Si Si6 0.367558 0.139168 0.285046
Si Si7 0.935335 0.724127 0.276696
O O1 0.080585 0.500000 0.718123
O O2 0.106609 0.410128 0.732353
O O3 0.000000 0.440731 0.717990
O O4 0.062990 0.451261 0.000000
O O5 0.437211 0.599160 0.500000
O O6 0.500000 0.592180 0.214741
O O7 0.389091 0.563535 0.222518
O O8 0.411498 0.647885 0.224554
O O9 0.675201 0.450674 0.500000
O O10 0.689615 0.500000 0.784023
O O11 0.715759 0.410629 0.778783
O O12 0.259494 0.362010 0.500000
O O13 0.306516 0.325685 0.220585
O O14 0.196012 0.356451 0.211513
O O15 0.369209 0.688905 0.500000
O O16 0.394784 0.735433 0.781639
O O17 0.362600 0.148178 0.500000
O O18 0.410269 0.176820 0.214539
O O19 0.936328 0.724601 0.500000
O O20 0.000000 0.730647 0.217898
#
# Coordination Sequence:
#
# PCOD9484816 Si02
#       7
#    16  16  16  16  16  16  16
#     4   9  19  36  54  69  88 117 150 180 213 259
#     4   8  12  17  26  40  59  89 132 175 210 248
#     4   8  13  20  28  39  61  94 130 171 214 251
#     4   8  15  25  35  52  79 111 145 176 210 257
#     4   8  13  22  34  48  73 110 145 174 209 256
#     4  10  19  29  44  69  96 116 140 180 225 263
#     4   9  16  24  36  57  84 111 140 181 229 265
#
# _framework density 21.621001
#
# number of rings (size 3 to 8) (size 9 to 14) (size 15 to 20)
#    0.000    3.429    0.000    3.000    0.000    4.286 
#    0.000    6.429    0.000    0.000    0.000    2.000 
#    0.000    0.000    0.000    0.000    0.000    9.286 
#
# Total GULP energy -312491.127412 kJ/mol
# GULP energy per Si atom -5580.198704 kJ/mol
# Density = 2.157179 g / cm^3
# Si number density = 21.621001 Si / 1000 Ang^3
#
#
#
# Elastic Constant Matrix: (Units=GPa)
#
#
# Indices 1 2 3 4 5 6 
#
# 1 159.9345 90.9813 3.5490 0.0000 0.0000 0.0000
# 2 90.9813 147.5399 -1.3457 0.0000 0.0000 0.0000
# 3 3.5490 -1.3457 83.4756 0.0000 0.0000 0.0000
# 4 0.0000 0.0000 0.0000 61.2397 0.0000 0.0000
# 5 0.0000 0.0000 0.0000 0.0000 -5.2215 0.0000
# 6 0.0000 0.0000 0.0000 0.0000 0.0000 21.9579
#
#
#
# Elastic Compliance Matrix: (Units=1/GPa)
#
#
# Indices 1 2 3 4 5 6 
#
# 1 0.009652 -0.005957 -0.000506 0.000000 0.000000 0.000000
# 2 -0.005957 0.010455 0.000422 0.000000 0.000000 0.000000
# 3 -0.000506 0.000422 0.012008 0.000000 0.000000 0.000000
# 4 0.000000 0.000000 0.000000 0.016329 0.000000 0.000000
# 5 0.000000 0.000000 0.000000 0.000000 -0.191516 0.000000
# 6 0.000000 0.000000 0.000000 0.000000 0.000000 0.045542
#
#
# Mechanical properties :
#
#
# Convention : Reuss Voigt Hill
#
# Bulk Modulus (GPa) = 49.91912 64.14658 57.03285
# Shear Modulus (GPa) = -63.47656 35.44623 -14.01517
#
# Velocity S-wave (km/s) = -5.42425 4.05339 -2.54878
# Velocity P-wave (km/s) = 4.01143 7.18607 4.21592
#
# Compressibility (1/GPa) = 0.02003240
#
# Stress axis : x y z
#
# Youngs Moduli (GPa) = 103.60064 95.64799 83.27866
#
# Poissons Ratio (x) = 0.56976 0.04217
# Poissons Ratio (y) = 0.61713 -0.03513
# Poissons Ratio (z) = 0.05246 -0.04034
#
# Static dielectric constant tensor:
#      x y z
#    x 1.748290 0.000000 0.000000 
#    y 0.000000 1.747130 0.000000 
#    z 0.000000 0.000000 1.884100 
# 
# From -- ./inp_files/31421.got.cif
#   From: 2010.05.17/outbox.cif.g08.bks.cpg/sg65_16_cif.got.tgz:31421.got - 2010.06.03 17:01:31.
