data_PCOD9484147
_publ_section_title
;
Structure prediction by ZEFSAII (Michael W. Deem and Ramdas Pophale) SiO2 
 PCOD9484147
Probable space group: C M M M
;
_chemical_formula_sum "Si O2"
_cell_formula_units_Z 112
_cell_length_a 14.716087
_cell_length_b 17.342676
_cell_length_c 22.351680
_cell_angle_alpha 90.000000
_cell_angle_beta 90.000000
_cell_angle_gamma 90.000000
_cell_volume 5704.513713
_symmetry_space_group_name_H-M "C M M M"
_symmetry_group_IT_number 65
_symmetry_cell_setting 'orthorhombic'
loop_
_space_group_symop_operation_xyz
x,y,z
-x,-y,z
x,-y,-z
-x,y,-z
-x,-y,-z
x,y,-z
-x,y,z
x,-y,z
1/2+x,1/2+y,z
1/2-x,1/2-y,z
1/2+x,1/2-y,-z
1/2-x,1/2+y,-z
1/2-x,1/2-y,-z
1/2+x,1/2+y,-z
1/2-x,1/2+y,z
1/2+x,1/2-y,z
loop_
_atom_site_type_symbol
_atom_site_label
_atom_site_fract_x
_atom_site_fract_y
_atom_site_fract_z
Si Si1 0.704337 0.590962 0.663812
Si Si2 0.697065 0.912892 0.071094
Si Si3 0.096890 0.888887 0.068646
Si Si4 0.604542 0.701058 0.749922
Si Si5 0.900034 0.660402 0.342698
Si Si6 0.143442 0.261675 0.882435
Si Si7 0.648970 0.286060 0.567300
O O1 0.684739 0.500000 0.663830
O O2 0.669934 0.634921 0.723808
O O3 0.812560 0.605568 0.655677
O O4 0.655044 0.639217 0.610297
O O5 0.803453 0.911585 0.092911
O O6 0.634237 0.851977 0.105613
O O7 0.664485 0.000000 0.076902
O O8 0.699212 0.892338 0.000000
O O9 0.096996 0.796325 0.072013
O O10 0.000000 0.914074 0.096382
O O11 0.096768 0.914246 0.000000
O O12 0.500000 0.675693 0.742685
O O13 0.617597 0.777582 0.709977
O O14 0.619903 0.728534 0.817424
O O15 0.902794 0.716346 0.400470
O O16 0.000000 0.624556 0.334701
O O17 0.250000 0.250000 0.892179
O O18 0.618655 0.303564 0.500000
O O19 0.750000 0.250000 0.564676
#
# Coordination Sequence:
#
# PCOD9484147 Si02
#       7
#    16  16  16  16  16  16  16
#     4  10  20  34  54  81 113 144 175 222 282 331
#     4   9  18  32  51  77 107 136 166 208 268 328
#     4   9  17  29  47  72 101 134 172 211 250 301
#     4  10  20  36  56  74  97 135 183 229 269 317
#     4   9  18  33  53  77 107 145 187 225 262 314
#     4  10  18  31  52  74  98 131 174 217 257 314
#     4   8  15  30  52  77 107 147 192 228 258 303
#
# _framework density 19.633575
#
# number of rings (size 3 to 8) (size 9 to 14) (size 15 to 20)
#    0.000    2.714    0.000    3.000    0.000    3.143 
#    0.000    7.857    0.000    6.000    0.000   13.000 
#    0.000    0.000    0.000    0.000    0.000    0.000 
#
# Total GULP energy -311797.024433 kJ/mol
# GULP energy per Si atom -5567.804008 kJ/mol
# Density = 1.958889 g / cm^3
# Si number density = 19.633575 Si / 1000 Ang^3
#
#
#
# Elastic Constant Matrix: (Units=GPa)
#
#
# Indices 1 2 3 4 5 6 
#
# 1 60.4978 21.8358 8.4182 0.0000 0.0000 0.0000
# 2 21.8358 114.2966 45.2617 0.0000 0.0000 0.0000
# 3 8.4182 45.2617 84.2907 0.0000 0.0000 0.0000
# 4 0.0000 0.0000 0.0000 12.2840 0.0000 0.0000
# 5 0.0000 0.0000 0.0000 0.0000 -7.4207 0.0000
# 6 0.0000 0.0000 0.0000 0.0000 0.0000 24.7648
#
#
#
# Elastic Compliance Matrix: (Units=1/GPa)
#
#
# Indices 1 2 3 4 5 6 
#
# 1 0.017754 -0.003416 0.000061 0.000000 0.000000 0.000000
# 2 -0.003416 0.011769 -0.005979 0.000000 0.000000 0.000000
# 3 0.000061 -0.005979 0.015068 0.000000 0.000000 0.000000
# 4 0.000000 0.000000 0.000000 0.081407 0.000000 0.000000
# 5 0.000000 0.000000 0.000000 0.000000 -0.134757 0.000000
# 6 0.000000 0.000000 0.000000 0.000000 0.000000 0.040380
#
#
# Mechanical properties :
#
#
# Convention : Reuss Voigt Hill
#
# Bulk Modulus (GPa) = 38.57382 45.56850 42.07116
# Shear Modulus (GPa) = 84.84802 18.16356 51.50579
#
# Velocity S-wave (km/s) = 6.58100 3.04489 5.12742
# Velocity P-wave (km/s) = 8.79975 5.96839 7.51855
#
# Compressibility (1/GPa) = 0.02592432
#
# Stress axis : x y z
#
# Youngs Moduli (GPa) = 56.32537 84.96653 66.36606
#
# Poissons Ratio (x) = 0.29025 -0.00406
# Poissons Ratio (y) = 0.19241 0.39678
# Poissons Ratio (z) = -0.00345 0.50798
#
# Static dielectric constant tensor:
#      x y z
#    x 1.741910 0.000000 0.000000 
#    y 0.000000 1.706110 0.000000 
#    z 0.000000 0.000000 1.716990 
# 
# From -- ./inp_files/70011.got.cif
#   From: 2010.05.17/outbox.cif.g08.bks.cpg/sg65_36_cif.got.tgz:70011.got - 2010.06.03 17:01:31.
