data_PCOD9484807
_publ_section_title
;
Structure prediction by ZEFSAII (Michael W. Deem and Ramdas Pophale) SiO2 
 PCOD9484807
Probable space group: C M M M
;
_chemical_formula_sum "Si O2"
_cell_formula_units_Z 72
_cell_length_a 7.546361
_cell_length_b 25.982633
_cell_length_c 17.555026
_cell_angle_alpha 90.000000
_cell_angle_beta 90.000000
_cell_angle_gamma 90.000000
_cell_volume 3442.089932
_symmetry_space_group_name_H-M "C M M M"
_symmetry_group_IT_number 65
_symmetry_cell_setting 'orthorhombic'
loop_
_space_group_symop_operation_xyz
x,y,z
-x,-y,z
x,-y,-z
-x,y,-z
-x,-y,-z
x,y,-z
-x,y,z
x,-y,z
1/2+x,1/2+y,z
1/2-x,1/2-y,z
1/2+x,1/2-y,-z
1/2-x,1/2+y,-z
1/2-x,1/2-y,-z
1/2+x,1/2+y,-z
1/2-x,1/2+y,z
1/2+x,1/2-y,z
loop_
_atom_site_type_symbol
_atom_site_label
_atom_site_fract_x
_atom_site_fract_y
_atom_site_fract_z
Si Si1 0.294840 0.329794 0.581364
Si Si2 0.287991 0.693999 0.747354
Si Si3 0.292510 0.943766 0.378794
Si Si4 0.216832 0.000000 0.087025
Si Si5 0.785167 0.915760 0.793686
O O1 0.213658 0.315008 0.500000
O O2 0.500000 0.313535 0.580142
O O3 0.214959 0.309686 0.660560
O O4 0.291539 0.391997 0.588393
O O5 0.500000 0.688759 0.741651
O O6 0.250000 0.750000 0.779792
O O7 0.225970 0.643724 0.792738
O O8 0.500000 0.941870 0.398454
O O9 0.273652 0.939018 0.287264
O O10 0.222681 0.000000 0.402014
O O11 0.273592 0.049666 0.135859
O O12 0.000000 0.000000 0.085931
O O13 0.276686 0.000000 0.000000
O O14 0.000000 0.917123 0.793125
#
# Coordination Sequence:
#
# PCOD9484807 Si02
#       5
#    16  16  16   8  16
#     4   9  19  34  48  64  89 122 163 208 251 294
#     4   9  18  31  48  70  93 124 165 204 241 283
#     4  10  19  29  44  67  95 127 162 198 239 289
#     4   9  16  28  53  85 106 123 154 197 239 276
#     4   9  17  31  51  73  99 128 160 197 236 283
#
# _framework density 20.917524
#
# number of rings (size 3 to 8) (size 9 to 14) (size 15 to 20)
#    0.000    2.778    1.111    2.000    0.000    6.222 
#    0.000    2.222    0.000    2.000    0.000    0.000 
#    0.000    0.000    0.000    0.000    0.000    0.444 
#
# Total GULP energy -200870.562773 kJ/mol
# GULP energy per Si atom -5579.737855 kJ/mol
# Density = 2.086991 g / cm^3
# Si number density = 20.917524 Si / 1000 Ang^3
#
#
#
# Elastic Constant Matrix: (Units=GPa)
#
#
# Indices 1 2 3 4 5 6 
#
# 1 55.3677 -1.2405 4.0165 0.0000 0.0000 0.0000
# 2 -1.2405 155.7913 45.5082 0.0000 0.0000 0.0000
# 3 4.0165 45.5082 120.5577 0.0000 0.0000 0.0000
# 4 0.0000 0.0000 0.0000 18.8218 0.0000 0.0000
# 5 0.0000 0.0000 0.0000 0.0000 -256.6238 0.0000
# 6 0.0000 0.0000 0.0000 0.0000 0.0000 15.5878
#
#
#
# Elastic Compliance Matrix: (Units=1/GPa)
#
#
# Indices 1 2 3 4 5 6 
#
# 1 0.018123 0.000360 -0.000740 0.000000 0.000000 0.000000
# 2 0.000360 0.007222 -0.002738 0.000000 0.000000 0.000000
# 3 -0.000740 -0.002738 0.009353 0.000000 0.000000 0.000000
# 4 0.000000 0.000000 0.000000 0.053130 0.000000 0.000000
# 5 0.000000 0.000000 0.000000 0.000000 -0.003897 0.000000
# 6 0.000000 0.000000 0.000000 0.000000 0.000000 0.064153
#
#
# Mechanical properties :
#
#
# Convention : Reuss Voigt Hill
#
# Bulk Modulus (GPa) = 35.13397 47.58724 41.36061
# Shear Modulus (GPa) = 30.52405 -25.54733 2.48836
#
# Velocity S-wave (km/s) = 3.82417 -3.49855 1.09187
# Velocity P-wave (km/s) = 6.02759 2.54548 4.62663
#
# Compressibility (1/GPa) = 0.02846248
#
# Stress axis : x y z
#
# Youngs Moduli (GPa) = 55.17907 138.47524 106.91788
#
# Poissons Ratio (x) = -0.04991 0.07910
# Poissons Ratio (y) = -0.01989 0.29274
# Poissons Ratio (z) = 0.04082 0.37914
#
# Static dielectric constant tensor:
#      x y z
#    x 1.771600 0.000000 0.000000 
#    y 0.000000 1.784520 0.000000 
#    z 0.000000 0.000000 1.728850 
# 
# From -- ./inp_files/49513.got.cif
#   From: 2010.05.17/outbox.cif.g08.bks.cpg/sg65_25_cif.got.tgz:49513.got - 2010.06.03 17:01:31.
