data_PCOD9484180
_publ_section_title
;
Structure prediction by ZEFSAII (Michael W. Deem and Ramdas Pophale) SiO2 
 PCOD9484180
Probable space group: C M M M
;
_chemical_formula_sum "Si O2"
_cell_formula_units_Z 104
_cell_length_a 9.138795
_cell_length_b 27.472935
_cell_length_c 24.314153
_cell_angle_alpha 90.000000
_cell_angle_beta 90.000000
_cell_angle_gamma 90.000000
_cell_volume 6104.542748
_symmetry_space_group_name_H-M "C M M M"
_symmetry_group_IT_number 65
_symmetry_cell_setting 'orthorhombic'
loop_
_space_group_symop_operation_xyz
x,y,z
-x,-y,z
x,-y,-z
-x,y,-z
-x,-y,-z
x,y,-z
-x,y,z
x,-y,z
1/2+x,1/2+y,z
1/2-x,1/2-y,z
1/2+x,1/2-y,-z
1/2-x,1/2+y,-z
1/2-x,1/2-y,-z
1/2+x,1/2+y,-z
1/2-x,1/2+y,z
1/2+x,1/2-y,z
loop_
_atom_site_type_symbol
_atom_site_label
_atom_site_fract_x
_atom_site_fract_y
_atom_site_fract_z
Si Si1 0.333583 0.055915 0.259608
Si Si2 0.324333 0.056666 0.936521
Si Si3 0.824735 0.801083 0.360739
Si Si4 0.174788 0.399663 0.622486
Si Si5 0.326019 0.604390 0.835259
Si Si6 0.325259 0.700352 0.770011
Si Si7 0.822900 0.500000 0.564360
O O1 0.500000 0.065606 0.240175
O O2 0.304593 0.088103 0.313016
O O3 0.224140 0.065376 0.210214
O O4 0.327824 0.000000 0.277816
O O5 0.500000 0.060246 0.931600
O O6 0.248302 0.091074 0.892543
O O7 0.285304 0.000000 0.925460
O O8 0.285607 0.067249 0.000000
O O9 0.750000 0.750000 0.377886
O O10 0.757742 0.849214 0.389092
O O11 0.793084 0.806451 0.294979
O O12 0.000000 0.798814 0.367746
O O13 0.226025 0.448710 0.591067
O O14 0.000000 0.393644 0.612799
O O15 0.500000 0.604687 0.841176
O O16 0.277832 0.655223 0.807484
O O17 0.500000 0.704568 0.774367
O O18 0.250000 0.750000 0.787887
O O19 0.788465 0.500000 0.500000
O O20 0.000000 0.500000 0.571169
#
# Coordination Sequence:
#
# PCOD9484180 Si02
#       7
#    16  16  16  16  16  16   8
#     4  10  19  30  45  69 102 137 170 203 244 303
#     4   9  19  36  54  71  94 128 170 209 245 294
#     4  10  19  33  51  75 107 142 177 217 266 319
#     4  10  18  31  52  78 106 140 179 218 261 311
#     4  11  21  32  47  73 103 129 162 206 256 308
#     4   9  19  32  46  68  99 131 164 201 247 302
#     4   9  18  34  57  83 111 145 186 227 264 309
#
# _framework density 17.036491999999999
#
# number of rings (size 3 to 8) (size 9 to 14) (size 15 to 20)
#    0.000    2.231    2.308    1.846    0.000    4.615 
#    0.000    1.154    0.000    1.846    0.000    0.000 
#    0.000    0.000    0.000    0.000    0.000    0.000 
#
# Total GULP energy -289896.795990 kJ/mol
# GULP energy per Si atom -5574.938384 kJ/mol
# Density = 1.699772 g / cm^3
# Si number density = 17.036492 Si / 1000 Ang^3
#
#
#
# Elastic Constant Matrix: (Units=GPa)
#
#
# Indices 1 2 3 4 5 6 
#
# 1 25.0410 44.4377 26.5574 0.0000 0.0000 0.0000
# 2 44.4377 135.1083 40.2259 0.0000 0.0000 0.0000
# 3 26.5574 40.2259 40.4593 0.0000 0.0000 0.0000
# 4 0.0000 0.0000 0.0000 14.3928 0.0000 0.0000
# 5 0.0000 0.0000 0.0000 0.0000 10.6823 0.0000
# 6 0.0000 0.0000 0.0000 0.0000 0.0000 31.1366
#
#
#
# Elastic Compliance Matrix: (Units=1/GPa)
#
#
# Indices 1 2 3 4 5 6 
#
# 1 0.238679 -0.045253 -0.111677 0.000000 0.000000 0.000000
# 2 -0.045253 0.019094 0.010721 0.000000 0.000000 0.000000
# 3 -0.111677 0.010721 0.087362 0.000000 0.000000 0.000000
# 4 0.000000 0.000000 0.000000 0.069479 0.000000 0.000000
# 5 0.000000 0.000000 0.000000 0.000000 0.093613 0.000000
# 6 0.000000 0.000000 0.000000 0.000000 0.000000 0.032117
#
#
# Mechanical properties :
#
#
# Convention : Reuss Voigt Hill
#
# Bulk Modulus (GPa) = 18.96938 47.00563 32.98750
# Shear Modulus (GPa) = 5.88005 17.20151 11.54078
#
# Velocity S-wave (km/s) = 1.85982 3.18100 2.60554
# Velocity P-wave (km/s) = 3.97123 6.41426 5.33448
#
# Compressibility (1/GPa) = 0.05271654
#
# Stress axis : x y z
#
# Youngs Moduli (GPa) = 4.18972 52.37379 11.44666
#
# Poissons Ratio (x) = 2.37007 1.27832
# Poissons Ratio (y) = 0.18960 -0.12272
# Poissons Ratio (z) = 0.46789 -0.56148
#
# Static dielectric constant tensor:
#      x y z
#    x 1.575490 0.000000 0.000000 
#    y 0.000000 1.595290 0.000000 
#    z 0.000000 0.000000 1.557470 
# 
# From -- ./inp_files/68272.got.cif
#   From: 2010.05.17/outbox.cif.g08.bks.cpg/sg65_35_cif.got.tgz:68272.got - 2010.06.03 17:01:31.
