data_PCOD9484771
_publ_section_title
;
Structure prediction by ZEFSAII (Michael W. Deem and Ramdas Pophale) SiO2 
 PCOD9484771
Probable space group: C M M M
;
_chemical_formula_sum "Si O2"
_cell_formula_units_Z 72
_cell_length_a 7.763651
_cell_length_b 19.376240
_cell_length_c 24.624582
_cell_angle_alpha 90.000000
_cell_angle_beta 90.000000
_cell_angle_gamma 90.000000
_cell_volume 3704.284860
_symmetry_space_group_name_H-M "C M M M"
_symmetry_group_IT_number 65
_symmetry_cell_setting 'orthorhombic'
loop_
_space_group_symop_operation_xyz
x,y,z
-x,-y,z
x,-y,-z
-x,y,-z
-x,-y,-z
x,y,-z
-x,y,z
x,-y,z
1/2+x,1/2+y,z
1/2-x,1/2-y,z
1/2+x,1/2-y,-z
1/2-x,1/2+y,-z
1/2-x,1/2-y,-z
1/2+x,1/2+y,-z
1/2-x,1/2+y,z
1/2+x,1/2-y,z
loop_
_atom_site_type_symbol
_atom_site_label
_atom_site_fract_x
_atom_site_fract_y
_atom_site_fract_z
Si Si1 0.300488 0.415950 0.221015
Si Si2 0.788620 0.080110 0.897858
Si Si3 0.704806 0.169874 0.559808
Si Si4 0.793838 0.078008 0.662260
Si Si5 0.207177 0.830493 0.000000
O O1 0.500000 0.392857 0.219872
O O2 0.300718 0.500000 0.222145
O O3 0.225887 0.397548 0.162180
O O4 0.224621 0.395011 0.279419
O O5 0.000000 0.080715 0.896362
O O6 0.740090 0.000000 0.907433
O O7 0.730823 0.129610 0.946167
O O8 0.774127 0.148975 0.500000
O O9 0.500000 0.164014 0.557783
O O10 0.750000 0.250000 0.567703
O O11 0.763439 0.124903 0.610401
O O12 0.000000 0.073400 0.669345
O O13 0.728418 0.000000 0.653047
O O14 0.250000 0.750000 0.000000
O O15 0.000000 0.836719 0.000000
#
# Coordination Sequence:
#
# PCOD9484771 Si02
#       5
#    16  16  16  16   8
#     4   7  11  22  42  68  94 117 145 186 230 266
#     4   8  13  24  45  69  88 112 154 198 225 255
#     4  10  21  36  52  69  92 124 160 197 236 277
#     4   9  17  30  50  75 100 125 153 187 231 282
#     4  10  19  29  43  65  93 122 150 186 232 274
#
# _framework density 19.43695
#
# number of rings (size 3 to 8) (size 9 to 14) (size 15 to 20)
#    0.000    3.333    0.000    3.667    0.000    3.556 
#    0.000    3.333    0.000    5.333    0.000    3.111 
#    0.000    0.000    0.000    0.000    0.000    0.000 
#
# Total GULP energy -200446.775555 kJ/mol
# GULP energy per Si atom -5567.965988 kJ/mol
# Density = 1.939271 g / cm^3
# Si number density = 19.436950 Si / 1000 Ang^3
#
#
#
# Elastic Constant Matrix: (Units=GPa)
#
#
# Indices 1 2 3 4 5 6 
#
# 1 27.4221 0.9687 11.3630 0.0000 0.0000 0.0000
# 2 0.9687 76.6405 107.1279 0.0000 0.0000 0.0000
# 3 11.3630 107.1279 259.6685 0.0000 0.0000 0.0000
# 4 0.0000 0.0000 0.0000 -14.4305 0.0000 0.0000
# 5 0.0000 0.0000 0.0000 0.0000 -15.4112 0.0000
# 6 0.0000 0.0000 0.0000 0.0000 0.0000 15.7061
#
#
#
# Elastic Compliance Matrix: (Units=1/GPa)
#
#
# Indices 1 2 3 4 5 6 
#
# 1 0.037738 0.004326 -0.003436 0.000000 0.000000 0.000000
# 2 0.004326 0.031318 -0.013110 0.000000 0.000000 0.000000
# 3 -0.003436 -0.013110 0.009410 0.000000 0.000000 0.000000
# 4 0.000000 0.000000 0.000000 -0.069298 0.000000 0.000000
# 5 0.000000 0.000000 0.000000 0.000000 -0.064888 0.000000
# 6 0.000000 0.000000 0.000000 0.000000 0.000000 0.063670
#
#
# Mechanical properties :
#
#
# Convention : Reuss Voigt Hill
#
# Bulk Modulus (GPa) = 18.50953 66.96114 42.73534
# Shear Modulus (GPa) = 99.20930 13.45764 56.33347
#
# Velocity S-wave (km/s) = 7.15209 2.63416 5.38940
# Velocity P-wave (km/s) = 8.81741 6.61641 7.79499
#
# Compressibility (1/GPa) = 0.05402621
#
# Stress axis : x y z
#
# Youngs Moduli (GPa) = 26.49854 31.93049 106.27064
#
# Poissons Ratio (x) = -0.13813 0.36516
# Poissons Ratio (y) = -0.11463 1.39318
# Poissons Ratio (z) = 0.09105 0.41860
#
# Static dielectric constant tensor:
#      x y z
#    x 1.754810 0.000000 0.000000 
#    y 0.000000 1.618320 0.000000 
#    z 0.000000 0.000000 1.752010 
# 
# From -- ./inp_files/59243.got.cif
#   From: 2010.05.17/outbox.cif.g08.bks.cpg/sg65_30_cif.got.tgz:59243.got - 2010.06.03 17:01:31.
