data_PCOD9484505
_publ_section_title
;
Structure prediction by ZEFSAII (Michael W. Deem and Ramdas Pophale) SiO2 
 PCOD9484505
Probable space group: C M M M
;
_chemical_formula_sum "Si O2"
_cell_formula_units_Z 88
_cell_length_a 20.180000
_cell_length_b 18.311311
_cell_length_c 14.602987
_cell_angle_alpha 90.000000
_cell_angle_beta 90.000000
_cell_angle_gamma 90.000000
_cell_volume 5396.128700
_symmetry_space_group_name_H-M "C M M M"
_symmetry_group_IT_number 65
_symmetry_cell_setting 'orthorhombic'
loop_
_space_group_symop_operation_xyz
x,y,z
-x,-y,z
x,-y,-z
-x,y,-z
-x,-y,-z
x,y,-z
-x,y,z
x,-y,z
1/2+x,1/2+y,z
1/2-x,1/2-y,z
1/2+x,1/2-y,-z
1/2-x,1/2+y,-z
1/2-x,1/2-y,-z
1/2+x,1/2+y,-z
1/2-x,1/2+y,z
1/2+x,1/2-y,z
loop_
_atom_site_type_symbol
_atom_site_label
_atom_site_fract_x
_atom_site_fract_y
_atom_site_fract_z
Si Si1 0.202387 0.319087 0.894203
Si Si2 0.822464 0.711753 0.395193
Si Si3 0.377547 0.345745 0.287706
Si Si4 0.000000 0.087216 0.394897
Si Si5 0.733069 0.086193 0.722400
Si Si6 0.077503 0.779181 0.104318
O O1 0.250000 0.250000 0.869134
O O2 0.215572 0.383021 0.823080
O O3 0.127444 0.289202 0.888156
O O4 0.216863 0.337695 0.000000
O O5 0.846171 0.707185 0.500000
O O6 0.750000 0.750000 0.397025
O O7 0.865385 0.765847 0.332361
O O8 0.811020 0.633642 0.348113
O O9 0.435363 0.384121 0.343470
O O10 0.309493 0.390769 0.294357
O O11 0.399206 0.334607 0.182649
O O12 0.000000 0.112545 0.500000
O O13 0.000000 0.000000 0.394058
O O14 0.724268 0.000000 0.714108
O O15 0.000000 0.761261 0.117521
O O16 0.085561 0.807335 0.000000
#
# Coordination Sequence:
#
# PCOD9484505 Si02
#       6
#    16  16  16   8  16  16
#     4  10  18  33  55  77 106 142 181 225 268 322
#     4   9  18  33  52  73  98 132 179 227 265 310
#     4  11  19  35  55  78 106 144 185 222 262 317
#     4  11  24  38  53  79 114 150 184 221 271 325
#     4  11  21  32  50  79 111 141 176 224 279 325
#     4  10  19  32  56  84 106 134 179 225 267 316
#
# _framework density 16.307988000000002
#
# number of rings (size 3 to 8) (size 9 to 14) (size 15 to 20)
#    0.000    1.727    4.545    1.636    0.000    1.455 
#    0.000    0.000    0.000    2.727    0.000    2.545 
#    0.000    3.636    0.000    0.000    0.000    0.000 
#
# Total GULP energy -245404.694908 kJ/mol
# GULP energy per Si atom -5577.379430 kJ/mol
# Density = 1.627087 g / cm^3
# Si number density = 16.307988 Si / 1000 Ang^3
#
#
#
# Elastic Constant Matrix: (Units=GPa)
#
#
# Indices 1 2 3 4 5 6 
#
# 1 57.9597 17.9832 17.8108 0.0000 0.0000 0.0000
# 2 17.9832 110.7691 50.6176 0.0000 0.0000 0.0000
# 3 17.8108 50.6176 108.7576 0.0000 0.0000 0.0000
# 4 0.0000 0.0000 0.0000 21.5364 0.0000 0.0000
# 5 0.0000 0.0000 0.0000 0.0000 19.7342 0.0000
# 6 0.0000 0.0000 0.0000 0.0000 0.0000 18.6273
#
#
#
# Elastic Compliance Matrix: (Units=1/GPa)
#
#
# Indices 1 2 3 4 5 6 
#
# 1 0.018530 -0.002060 -0.002076 0.000000 0.000000 0.000000
# 2 -0.002060 0.011695 -0.005106 0.000000 0.000000 0.000000
# 3 -0.002076 -0.005106 0.011911 0.000000 0.000000 0.000000
# 4 0.000000 0.000000 0.000000 0.046433 0.000000 0.000000
# 5 0.000000 0.000000 0.000000 0.000000 0.050673 0.000000
# 6 0.000000 0.000000 0.000000 0.000000 0.000000 0.053685
#
#
# Mechanical properties :
#
#
# Convention : Reuss Voigt Hill
#
# Bulk Modulus (GPa) = 42.27689 50.03443 46.15566
# Shear Modulus (GPa) = 22.80025 24.71790 23.75907
#
# Velocity S-wave (km/s) = 3.74318 3.89741 3.82107
# Velocity P-wave (km/s) = 6.68298 7.14147 6.91603
#
# Compressibility (1/GPa) = 0.02365358
#
# Stress axis : x y z
#
# Youngs Moduli (GPa) = 53.96543 85.50363 83.95514
#
# Poissons Ratio (x) = 0.17611 0.17429
# Poissons Ratio (y) = 0.11115 0.42867
# Poissons Ratio (z) = 0.11203 0.43658
#
# Static dielectric constant tensor:
#      x y z
#    x 1.546530 0.000000 0.000000 
#    y 0.000000 1.513990 0.000000 
#    z 0.000000 0.000000 1.574010 
# 
# From -- ./inp_files/42513.got.cif
#   From: 2010.05.17/outbox.cif.g08.bks.cpg/sg65_22_cif.got.tgz:42513.got - 2010.06.03 17:01:31.
