data_PCOD9484230
_publ_section_title
;
Structure prediction by ZEFSAII (Michael W. Deem and Ramdas Pophale) SiO2 
 PCOD9484230
Probable space group: C M M M
;
_chemical_formula_sum "Si O2"
_cell_formula_units_Z 64
_cell_length_a 25.739969
_cell_length_b 14.527879
_cell_length_c 8.100151
_cell_angle_alpha 90.000000
_cell_angle_beta 90.000000
_cell_angle_gamma 90.000000
_cell_volume 3029.028422
_symmetry_space_group_name_H-M "C M M M"
_symmetry_group_IT_number 65
_symmetry_cell_setting 'orthorhombic'
loop_
_space_group_symop_operation_xyz
x,y,z
-x,-y,z
x,-y,-z
-x,y,-z
-x,-y,-z
x,y,-z
-x,y,z
x,-y,z
1/2+x,1/2+y,z
1/2-x,1/2-y,z
1/2+x,1/2-y,-z
1/2-x,1/2+y,-z
1/2-x,1/2-y,-z
1/2+x,1/2+y,-z
1/2-x,1/2+y,z
1/2+x,1/2-y,z
loop_
_atom_site_type_symbol
_atom_site_label
_atom_site_fract_x
_atom_site_fract_y
_atom_site_fract_z
Si Si1 0.942280 0.212658 0.313671
Si Si2 0.328031 0.104194 0.000000
Si Si3 0.342339 0.610735 0.191564
Si Si4 0.270959 0.112626 0.680931
Si Si5 0.056574 0.652459 0.000000
O O1 0.938004 0.251374 0.500000
O O2 0.893657 0.147263 0.280067
O O3 0.941455 0.286225 0.166044
O O4 0.000000 0.167793 0.303273
O O5 0.306462 0.146811 0.831418
O O6 0.389633 0.099440 0.000000
O O7 0.306326 0.000000 0.000000
O O8 0.343579 0.500000 0.190694
O O9 0.288523 0.637108 0.279121
O O10 0.341855 0.641939 0.000000
O O11 0.286739 0.145946 0.500000
O O12 0.273945 0.000000 0.676249
O O13 0.000000 0.605735 0.000000
#
# Coordination Sequence:
#
# PCOD9484230 Si02
#       5
#    16   8  16  16   8
#     4  10  21  37  55  75 105 147 187 219 259 309
#     4  10  20  36  59  84 105 129 169 217 266 326
#     4  10  18  31  54  81 111 145 182 222 257 296
#     4   9  17  31  52  79 111 142 170 208 262 315
#     4  10  22  40  58  77 105 137 171 217 271 322
#
# _framework density 21.128889000000001
#
# number of rings (size 3 to 8) (size 9 to 14) (size 15 to 20)
#    0.000    2.250    2.500    0.750    0.000    3.250 
#    0.000    5.000    0.000    3.000    0.000    7.000 
#    0.000    0.000    0.000    0.000    0.000    0.000 
#
# Total GULP energy -178617.667977 kJ/mol
# GULP energy per Si atom -5581.802124 kJ/mol
# Density = 2.108080 g / cm^3
# Si number density = 21.128889 Si / 1000 Ang^3
#
#
#
# Elastic Constant Matrix: (Units=GPa)
#
#
# Indices 1 2 3 4 5 6 
#
# 1 144.9470 16.4168 72.4558 0.0000 0.0000 0.0000
# 2 16.4168 30.3261 26.2356 0.0000 0.0000 0.0000
# 3 72.4558 26.2356 210.5840 0.0000 0.0000 0.0000
# 4 0.0000 0.0000 0.0000 -0.8114 0.0000 0.0000
# 5 0.0000 0.0000 0.0000 0.0000 51.7548 0.0000
# 6 0.0000 0.0000 0.0000 0.0000 0.0000 27.3549
#
#
#
# Elastic Compliance Matrix: (Units=1/GPa)
#
#
# Indices 1 2 3 4 5 6 
#
# 1 0.008475 -0.002315 -0.002628 0.000000 0.000000 0.000000
# 2 -0.002315 0.037590 -0.003887 0.000000 0.000000 0.000000
# 3 -0.002628 -0.003887 0.006137 0.000000 0.000000 0.000000
# 4 0.000000 0.000000 0.000000 -1.232414 0.000000 0.000000
# 5 0.000000 0.000000 0.000000 0.000000 0.019322 0.000000
# 6 0.000000 0.000000 0.000000 0.000000 0.000000 0.036557
#
#
# Mechanical properties :
#
#
# Convention : Reuss Voigt Hill
#
# Bulk Modulus (GPa) = 28.94842 68.45260 48.70051
# Shear Modulus (GPa) = -4.56554 33.70959 14.57202
#
# Velocity S-wave (km/s) = -1.47156 3.99861 2.62901
# Velocity P-wave (km/s) = 3.29291 7.33393 5.68462
#
# Compressibility (1/GPa) = 0.03454420
#
# Stress axis : x y z
#
# Youngs Moduli (GPa) = 117.99879 26.60256 162.94633
#
# Poissons Ratio (x) = 0.06157 0.42815
# Poissons Ratio (y) = 0.27312 0.63334
# Poissons Ratio (z) = 0.31004 0.10340
#
# Static dielectric constant tensor:
#      x y z
#    x 1.739010 0.000000 0.000000 
#    y 0.000000 1.772790 0.000000 
#    z 0.000000 0.000000 1.777410 
# 
# From -- ./inp_files/8851.got.cif
#   From: 2010.05.17/outbox.cif.g08.bks.cpg/sg65_5_cif.got.tgz:8851.got - 2010.06.03 17:01:31.
