data_PCOD9484706
_publ_section_title
;
Structure prediction by ZEFSAII (Michael W. Deem and Ramdas Pophale) SiO2 
 PCOD9484706
Probable space group: C M M M
;
_chemical_formula_sum "Si O2"
_cell_formula_units_Z 104
_cell_length_a 24.544297
_cell_length_b 27.988414
_cell_length_c 9.605431
_cell_angle_alpha 90.000000
_cell_angle_beta 90.000000
_cell_angle_gamma 90.000000
_cell_volume 6598.507937
_symmetry_space_group_name_H-M "C M M M"
_symmetry_group_IT_number 65
_symmetry_cell_setting 'orthorhombic'
loop_
_space_group_symop_operation_xyz
x,y,z
-x,-y,z
x,-y,-z
-x,y,-z
-x,-y,-z
x,y,-z
-x,y,z
x,-y,z
1/2+x,1/2+y,z
1/2-x,1/2-y,z
1/2+x,1/2-y,-z
1/2-x,1/2+y,-z
1/2-x,1/2-y,-z
1/2+x,1/2+y,-z
1/2-x,1/2+y,z
1/2+x,1/2-y,z
loop_
_atom_site_type_symbol
_atom_site_label
_atom_site_fract_x
_atom_site_fract_y
_atom_site_fract_z
Si Si1 0.500000 0.557867 0.658337
Si Si2 0.500000 0.806867 0.838751
Si Si3 0.683461 0.643225 0.158871
Si Si4 0.098793 0.810616 0.345521
Si Si5 0.606693 0.444300 0.162633
Si Si6 0.213466 0.297674 0.838498
Si Si7 0.395433 0.196896 0.658964
Si Si8 0.500000 0.309690 0.156486
O O1 0.500000 0.500000 0.651937
O O2 0.500000 0.576307 0.500000
O O3 0.555468 0.569366 0.741257
O O4 0.554194 0.821456 0.753039
O O5 0.500000 0.748468 0.845657
O O6 0.500000 0.823102 0.000000
O O7 0.654725 0.675529 0.273817
O O8 0.658552 0.590588 0.181885
O O9 0.746787 0.656312 0.168143
O O10 0.667216 0.657314 0.000000
O O11 0.093126 0.830644 0.500000
O O12 0.094430 0.753687 0.354154
O O13 0.052184 0.826154 0.240517
O O14 0.620249 0.500000 0.189195
O O15 0.590327 0.440460 0.000000
O O16 0.250000 0.250000 0.805868
O O17 0.162081 0.305811 0.739104
O O18 0.195423 0.291251 0.000000
O O19 0.394297 0.177758 0.500000
O O20 0.500000 0.327305 0.000000
#
# Coordination Sequence:
#
# PCOD9484706 Si02
#       8
#     8   8  16  16  16  16  16   8
#     4   9  17  30  49  70  89 112 145 187 238 289
#     4   9  17  29  46  64  83 112 150 185 221 263
#     4  10  20  32  46  64  85 113 149 184 223 272
#     4  10  19  29  41  59  83 109 141 182 224 264
#     4   9  18  33  51  68  87 113 148 191 236 279
#     4  10  19  31  47  64  87 119 153 186 221 267
#     4  10  19  30  45  64  88 115 146 185 225 261
#     4   9  17  28  42  57  78 109 144 181 223 266
#
# _framework density 15.761139
#
# number of rings (size 3 to 8) (size 9 to 14) (size 15 to 20)
#    0.000    2.385    1.538    1.615    0.000    6.154 
#    0.000    0.769    0.000    0.000    0.000    0.000 
#    0.000    0.000    0.000    0.692    0.000   16.308 
#
# Total GULP energy -289715.248068 kJ/mol
# GULP energy per Si atom -5571.447078 kJ/mol
# Density = 1.572527 g / cm^3
# Si number density = 15.761139 Si / 1000 Ang^3
#
#
#
# Elastic Constant Matrix: (Units=GPa)
#
#
# Indices 1 2 3 4 5 6 
#
# 1 105.2125 20.5437 78.4189 0.0000 0.0000 0.0000
# 2 20.5437 39.0003 15.5272 0.0000 0.0000 0.0000
# 3 78.4189 15.5272 135.0965 0.0000 0.0000 0.0000
# 4 0.0000 0.0000 0.0000 6.6360 0.0000 0.0000
# 5 0.0000 0.0000 0.0000 0.0000 32.0969 0.0000
# 6 0.0000 0.0000 0.0000 0.0000 0.0000 -4.1251
#
#
#
# Elastic Compliance Matrix: (Units=1/GPa)
#
#
# Indices 1 2 3 4 5 6 
#
# 1 0.017819 -0.005521 -0.009709 0.000000 0.000000 0.000000
# 2 -0.005521 0.028581 -0.000080 0.000000 0.000000 0.000000
# 3 -0.009709 -0.000080 0.013047 0.000000 0.000000 0.000000
# 4 0.000000 0.000000 0.000000 0.150693 0.000000 0.000000
# 5 0.000000 0.000000 0.000000 0.000000 0.031156 0.000000
# 6 0.000000 0.000000 0.000000 0.000000 0.000000 -0.242416
#
#
# Mechanical properties :
#
#
# Convention : Reuss Voigt Hill
#
# Bulk Modulus (GPa) = 34.68964 56.47656 45.58310
# Shear Modulus (GPa) = 127.85106 17.90952 72.88029
#
# Velocity S-wave (km/s) = 9.01632 3.37457 6.80741
# Velocity P-wave (km/s) = 11.42144 7.14802 9.52742
#
# Compressibility (1/GPa) = 0.02882705
#
# Stress axis : x y z
#
# Youngs Moduli (GPa) = 56.12032 34.98833 76.64651
#
# Poissons Ratio (x) = 0.19317 0.74414
# Poissons Ratio (y) = 0.30984 0.00615
# Poissons Ratio (z) = 0.54486 0.00281
#
# Static dielectric constant tensor:
#      x y z
#    x 1.549810 0.000000 0.000000 
#    y 0.000000 1.536480 0.000000 
#    z 0.000000 0.000000 1.552460 
# 
# From -- ./inp_files/15086.got.cif
#   From: 2010.05.17/outbox.cif.g08.bks.cpg/sg65_8_cif.got.tgz:15086.got - 2010.06.03 17:01:31.
