data_PCOD9484698
_publ_section_title
;
Structure prediction by ZEFSAII (Michael W. Deem and Ramdas Pophale) SiO2 
 PCOD9484698
Probable space group: C M M M
;
_chemical_formula_sum "Si O2"
_cell_formula_units_Z 56
_cell_length_a 14.747126
_cell_length_b 7.162999
_cell_length_c 20.117122
_cell_angle_alpha 90.000000
_cell_angle_beta 90.000000
_cell_angle_gamma 90.000000
_cell_volume 2125.045000
_symmetry_space_group_name_H-M "C M M M"
_symmetry_group_IT_number 65
_symmetry_cell_setting 'orthorhombic'
loop_
_space_group_symop_operation_xyz
x,y,z
-x,-y,z
x,-y,-z
-x,y,-z
-x,-y,-z
x,y,-z
-x,y,z
x,-y,z
1/2+x,1/2+y,z
1/2-x,1/2-y,z
1/2+x,1/2-y,-z
1/2-x,1/2+y,-z
1/2-x,1/2-y,-z
1/2+x,1/2+y,-z
1/2-x,1/2+y,z
1/2+x,1/2-y,z
loop_
_atom_site_type_symbol
_atom_site_label
_atom_site_fract_x
_atom_site_fract_y
_atom_site_fract_z
Si Si1 0.392333 0.210542 0.645002
Si Si2 0.143923 0.280246 0.500000
Si Si3 0.108559 0.274998 0.928719
Si Si4 0.107221 0.273372 0.786207
O O1 0.500000 0.196033 0.655651
O O2 0.384174 0.296143 0.571929
O O3 0.356710 0.292679 0.714551
O O4 0.353408 0.000000 0.639048
O O5 0.115755 0.500000 0.500000
O O6 0.250000 0.250000 0.500000
O O7 0.116657 0.500000 0.928537
O O8 0.145566 0.209737 0.857349
O O9 0.000000 0.236087 0.929024
O O10 0.144833 0.207647 0.000000
O O11 0.112620 0.500000 0.784062
O O12 0.000000 0.226348 0.789103
#
# Coordination Sequence:
#
# PCOD9484698 Si02
#       4
#    16   8  16  16
#     4   8  13  22  37  54  69  89 121 156 183 209
#     4  10  19  29  41  57  77  98 120 150 186 222
#     4   7   8   9  14  27  51  82 108 128 159 205
#     4   7   9  13  22  38  59  81 108 142 173 201
#
# _framework density 26.352384000000001
#
# number of rings (size 3 to 8) (size 9 to 14) (size 15 to 20)
#    0.000    4.286    0.000    4.714    0.000    1.714 
#    0.000    0.000    0.000    1.714    0.000    0.000 
#    0.000    1.143    0.000    0.857    0.000    4.286 
#
# Total GULP energy -155944.111578 kJ/mol
# GULP energy per Si atom -5569.432556 kJ/mol
# Density = 2.629240 g / cm^3
# Si number density = 26.352384 Si / 1000 Ang^3
#
#
#
# Elastic Constant Matrix: (Units=GPa)
#
#
# Indices 1 2 3 4 5 6 
#
# 1 64.9342 -9.6618 11.7253 0.0000 0.0000 0.0000
# 2 -9.6618 142.0901 25.0537 0.0000 0.0000 0.0000
# 3 11.7253 25.0537 430.1139 0.0000 0.0000 0.0000
# 4 0.0000 0.0000 0.0000 -64.6677 0.0000 0.0000
# 5 0.0000 0.0000 0.0000 0.0000 -77.5895 0.0000
# 6 0.0000 0.0000 0.0000 0.0000 0.0000 -4.4305
#
#
#
# Elastic Compliance Matrix: (Units=1/GPa)
#
#
# Indices 1 2 3 4 5 6 
#
# 1 0.015661 0.001152 -0.000494 0.000000 0.000000 0.000000
# 2 0.001152 0.007196 -0.000451 0.000000 0.000000 0.000000
# 3 -0.000494 -0.000451 0.002365 0.000000 0.000000 0.000000
# 4 0.000000 0.000000 0.000000 -0.015464 0.000000 0.000000
# 5 0.000000 0.000000 0.000000 0.000000 -0.012888 0.000000
# 6 0.000000 0.000000 0.000000 0.000000 0.000000 -0.225708
#
#
# Mechanical properties :
#
#
# Convention : Reuss Voigt Hill
#
# Bulk Modulus (GPa) = 39.00777 76.81921 57.91349
# Shear Modulus (GPa) = -22.65431 11.33051 -5.66190
#
# Velocity S-wave (km/s) = -2.93519 2.07580 -1.46738
# Velocity P-wave (km/s) = 1.82958 5.91264 4.37645
#
# Compressibility (1/GPa) = 0.02563592
#
# Stress axis : x y z
#
# Youngs Moduli (GPa) = 63.85362 138.97459 422.89072
#
# Poissons Ratio (x) = -0.16010 0.20892
# Poissons Ratio (y) = -0.07356 0.19053
# Poissons Ratio (z) = 0.03155 0.06261
#
# Static dielectric constant tensor:
#      x y z
#    x 1.986770 0.000000 0.000000 
#    y 0.000000 1.972570 0.000000 
#    z 0.000000 0.000000 2.206290 
# 
# From -- ./inp_files/54018.got.cif
#   From: 2010.05.17/outbox.cif.g08.bks.cpg/sg65_28_cif.got.tgz:54018.got - 2010.06.03 17:01:31.
