data_PCOD9484404
_publ_section_title
;
Structure prediction by ZEFSAII (Michael W. Deem and Ramdas Pophale) SiO2 
 PCOD9484404
Probable space group: C M M M
;
_chemical_formula_sum "Si O2"
_cell_formula_units_Z 88
_cell_length_a 12.003972
_cell_length_b 27.424311
_cell_length_c 15.032145
_cell_angle_alpha 90.000000
_cell_angle_beta 90.000000
_cell_angle_gamma 90.000000
_cell_volume 4948.592076
_symmetry_space_group_name_H-M "C M M M"
_symmetry_group_IT_number 65
_symmetry_cell_setting 'orthorhombic'
loop_
_space_group_symop_operation_xyz
x,y,z
-x,-y,z
x,-y,-z
-x,y,-z
-x,-y,-z
x,y,-z
-x,y,z
x,-y,z
1/2+x,1/2+y,z
1/2-x,1/2-y,z
1/2+x,1/2-y,-z
1/2-x,1/2+y,-z
1/2-x,1/2-y,-z
1/2+x,1/2+y,-z
1/2-x,1/2+y,z
1/2+x,1/2-y,z
loop_
_atom_site_type_symbol
_atom_site_label
_atom_site_fract_x
_atom_site_fract_y
_atom_site_fract_z
Si Si1 0.632950 0.395421 0.815207
Si Si2 0.500000 0.159962 0.896189
Si Si3 0.212127 0.694875 0.782533
Si Si4 0.500000 0.054204 0.822279
Si Si5 0.293051 0.944890 0.315086
Si Si6 0.866258 0.652078 0.401105
Si Si7 0.135542 0.055549 0.000000
O O1 0.500000 0.393227 0.812013
O O2 0.688799 0.342884 0.803244
O O3 0.682362 0.430101 0.738561
O O4 0.669315 0.417221 0.910377
O O5 0.608166 0.180563 0.845051
O O6 0.500000 0.101215 0.884533
O O7 0.500000 0.172749 0.000000
O O8 0.250000 0.750000 0.795591
O O9 0.177077 0.684560 0.680345
O O10 0.392582 0.057747 0.757821
O O11 0.500000 0.000000 0.863709
O O12 0.319900 0.902489 0.384830
O O13 0.289066 0.000000 0.349736
O O14 0.835607 0.669263 0.500000
O O15 0.000000 0.649903 0.395015
O O16 0.000000 0.054233 0.000000
O O17 0.176101 0.000000 0.000000
#
# Coordination Sequence:
#
# PCOD9484404 Si02
#       7
#    16   8  16   8  16  16   8
#     4  10  21  35  54  83 112 154 203 244 289 350
#     4  12  24  43  62  90 124 156 204 247 293 358
#     4  11  24  42  63  83 120 156 195 247 304 348
#     4  10  18  35  58  85 118 160 198 235 297 355
#     4  10  18  32  54  81 121 157 191 237 293 357
#     4  10  19  36  62  89 117 148 194 252 305 356
#     4   9  18  34  53  77 111 147 195 246 279 328
#
# _framework density 17.782836
#
# number of rings (size 3 to 8) (size 9 to 14) (size 15 to 20)
#    0.000    1.727    5.455    0.545    2.545    2.364 
#    0.000    0.909    0.000    8.727    0.000    5.091 
#    0.000    0.000    0.000    0.000    0.000    0.000 
#
# Total GULP energy -245586.502662 kJ/mol
# GULP energy per Si atom -5581.511424 kJ/mol
# Density = 1.774236 g / cm^3
# Si number density = 17.782836 Si / 1000 Ang^3
#
#
#
# Elastic Constant Matrix: (Units=GPa)
#
#
# Indices 1 2 3 4 5 6 
#
# 1 89.3099 32.2464 37.6830 0.0000 0.0000 0.0000
# 2 32.2464 113.0485 39.8996 0.0000 0.0000 0.0000
# 3 37.6830 39.8996 110.8088 0.0000 0.0000 0.0000
# 4 0.0000 0.0000 0.0000 3.0219 0.0000 0.0000
# 5 0.0000 0.0000 0.0000 0.0000 16.4662 0.0000
# 6 0.0000 0.0000 0.0000 0.0000 0.0000 17.4708
#
#
#
# Elastic Compliance Matrix: (Units=1/GPa)
#
#
# Indices 1 2 3 4 5 6 
#
# 1 0.013706 -0.002594 -0.003727 0.000000 0.000000 0.000000
# 2 -0.002594 0.010625 -0.002943 0.000000 0.000000 0.000000
# 3 -0.003727 -0.002943 0.011352 0.000000 0.000000 0.000000
# 4 0.000000 0.000000 0.000000 0.330914 0.000000 0.000000
# 5 0.000000 0.000000 0.000000 0.000000 0.060730 0.000000
# 6 0.000000 0.000000 0.000000 0.000000 0.000000 0.057238
#
#
# Mechanical properties :
#
#
# Convention : Reuss Voigt Hill
#
# Bulk Modulus (GPa) = 58.29752 59.20280 58.75016
# Shear Modulus (GPa) = 9.82680 20.94768 15.38724
#
# Velocity S-wave (km/s) = 2.35330 3.43588 2.94477
# Velocity P-wave (km/s) = 6.34336 7.00748 6.68367
#
# Compressibility (1/GPa) = 0.01715339
#
# Stress axis : x y z
#
# Youngs Moduli (GPa) = 72.95983 94.12112 88.09118
#
# Poissons Ratio (x) = 0.24417 0.32831
# Poissons Ratio (y) = 0.18927 0.25929
# Poissons Ratio (z) = 0.27192 0.27704
#
# Static dielectric constant tensor:
#      x y z
#    x 1.598390 0.000000 0.000000 
#    y 0.000000 1.598160 0.000000 
#    z 0.000000 0.000000 1.607320 
# 
# From -- ./inp_files/38707.got.cif
#   From: 2010.05.17/outbox.cif.g08.bks.cpg/sg65_20_cif.got.tgz:38707.got - 2010.06.03 17:01:31.
