data_PCOD9484673
_publ_section_title
;
Structure prediction by ZEFSAII (Michael W. Deem and Ramdas Pophale) SiO2 
 PCOD9484673
Probable space group: C M M M
;
_chemical_formula_sum "Si O2"
_cell_formula_units_Z 88
_cell_length_a 28.059473
_cell_length_b 15.488098
_cell_length_c 13.510646
_cell_angle_alpha 90.000000
_cell_angle_beta 90.000000
_cell_angle_gamma 90.000000
_cell_volume 5871.562836
_symmetry_space_group_name_H-M "C M M M"
_symmetry_group_IT_number 65
_symmetry_cell_setting 'orthorhombic'
loop_
_space_group_symop_operation_xyz
x,y,z
-x,-y,z
x,-y,-z
-x,y,-z
-x,-y,-z
x,y,-z
-x,y,z
x,-y,z
1/2+x,1/2+y,z
1/2-x,1/2-y,z
1/2+x,1/2-y,-z
1/2-x,1/2+y,-z
1/2-x,1/2-y,-z
1/2+x,1/2+y,-z
1/2-x,1/2+y,z
1/2+x,1/2-y,z
loop_
_atom_site_type_symbol
_atom_site_label
_atom_site_fract_x
_atom_site_fract_y
_atom_site_fract_z
Si Si1 0.443367 0.669974 0.757643
Si Si2 0.810075 0.101154 0.804980
Si Si3 0.942767 0.000000 0.888186
Si Si4 0.293800 0.899580 0.116899
Si Si5 0.370834 0.755818 0.114488
Si Si6 0.870528 0.897604 0.387791
O O1 0.500000 0.679040 0.749251
O O2 0.431951 0.584992 0.824829
O O3 0.416658 0.746128 0.815689
O O4 0.416299 0.652348 0.655065
O O5 0.754219 0.117085 0.821758
O O6 0.839218 0.169407 0.870055
O O7 0.828658 0.114863 0.692856
O O8 0.819185 0.000000 0.831017
O O9 0.000000 0.000000 0.897591
O O10 0.922818 0.000000 0.000000
O O11 0.336555 0.835297 0.141559
O O12 0.306990 0.000000 0.129709
O O13 0.282344 0.886596 0.000000
O O14 0.384875 0.763094 0.000000
O O15 0.858526 0.872948 0.500000
O O16 0.881471 0.000000 0.387134
#
# Coordination Sequence:
#
# PCOD9484673 Si02
#       6
#    16  16   8  16  16  16
#     4  10  19  30  42  61  88 117 151 185 220 261
#     4   9  17  28  43  65  92 117 144 179 220 265
#     4   9  16  26  39  57  85 117 142 168 207 257
#     4   9  17  30  47  66  88 116 151 188 223 262
#     4  10  19  28  43  65  90 120 151 182 218 264
#     4   9  17  29  44  63  89 120 154 186 216 259
#
# _framework density 14.987491
#
# number of rings (size 3 to 8) (size 9 to 14) (size 15 to 20)
#    0.000    2.636    0.909    1.636    1.273    4.000 
#    0.000    0.909    0.000    9.273    0.000    2.545 
#    0.000    0.000    0.000    6.545    0.000    0.000 
#
# Total GULP energy -245146.235746 kJ/mol
# GULP energy per Si atom -5571.505358 kJ/mol
# Density = 1.495338 g / cm^3
# Si number density = 14.987491 Si / 1000 Ang^3
#
#
#
# Elastic Constant Matrix: (Units=GPa)
#
#
# Indices 1 2 3 4 5 6 
#
# 1 95.7897 44.6949 39.6673 0.0000 0.0000 0.0000
# 2 44.6949 39.6667 21.2322 0.0000 0.0000 0.0000
# 3 39.6673 21.2322 64.6709 0.0000 0.0000 0.0000
# 4 0.0000 0.0000 0.0000 11.4670 0.0000 0.0000
# 5 0.0000 0.0000 0.0000 0.0000 15.8010 0.0000
# 6 0.0000 0.0000 0.0000 0.0000 0.0000 21.1180
#
#
#
# Elastic Compliance Matrix: (Units=1/GPa)
#
#
# Indices 1 2 3 4 5 6 
#
# 1 0.024522 -0.023754 -0.007243 0.000000 0.000000 0.000000
# 2 -0.023754 0.053595 -0.003026 0.000000 0.000000 0.000000
# 3 -0.007243 -0.003026 0.020899 0.000000 0.000000 0.000000
# 4 0.000000 0.000000 0.000000 0.087207 0.000000 0.000000
# 5 0.000000 0.000000 0.000000 0.000000 0.063287 0.000000
# 6 0.000000 0.000000 0.000000 0.000000 0.000000 0.047353
#
#
# Mechanical properties :
#
#
# Convention : Reuss Voigt Hill
#
# Bulk Modulus (GPa) = 32.28819 45.70178 38.99498
# Shear Modulus (GPa) = 13.32516 15.97940 14.65228
#
# Velocity S-wave (km/s) = 2.98499 3.26879 3.13011
# Velocity P-wave (km/s) = 5.78536 6.69374 6.25606
#
# Compressibility (1/GPa) = 0.03097108
#
# Stress axis : x y z
#
# Youngs Moduli (GPa) = 40.77945 18.65860 47.85005
#
# Poissons Ratio (x) = 0.44322 0.34655
# Poissons Ratio (y) = 0.96867 0.14478
# Poissons Ratio (z) = 0.29535 0.05646
#
# Static dielectric constant tensor:
#      x y z
#    x 1.501510 0.000000 0.000000 
#    y 0.000000 1.498620 0.000000 
#    z 0.000000 0.000000 1.502090 
# 
# From -- ./inp_files/33813.got.cif
#   From: 2010.05.17/outbox.cif.g08.bks.cpg/sg65_17_cif.got.tgz:33813.got - 2010.06.03 17:01:31.
