data_PCOD9484958
_publ_section_title
;
Structure prediction by ZEFSAII (Michael W. Deem and Ramdas Pophale) SiO2 
 PCOD9484958
Probable space group: C M M M
;
_chemical_formula_sum "Si O2"
_cell_formula_units_Z 80
_cell_length_a 19.779720
_cell_length_b 29.031004
_cell_length_c 8.562178
_cell_angle_alpha 90.000000
_cell_angle_beta 90.000000
_cell_angle_gamma 90.000000
_cell_volume 4916.617779
_symmetry_space_group_name_H-M "C M M M"
_symmetry_group_IT_number 65
_symmetry_cell_setting 'orthorhombic'
loop_
_space_group_symop_operation_xyz
x,y,z
-x,-y,z
x,-y,-z
-x,y,-z
-x,-y,-z
x,y,-z
-x,y,z
x,-y,z
1/2+x,1/2+y,z
1/2-x,1/2-y,z
1/2+x,1/2-y,-z
1/2-x,1/2+y,-z
1/2-x,1/2-y,-z
1/2+x,1/2+y,-z
1/2-x,1/2+y,z
1/2+x,1/2-y,z
loop_
_atom_site_type_symbol
_atom_site_label
_atom_site_fract_x
_atom_site_fract_y
_atom_site_fract_z
Si Si1 0.574236 0.208837 0.314948
Si Si2 0.218137 0.300881 0.814066
Si Si3 0.423210 0.554168 0.187593
Si Si4 0.324543 0.370795 0.323089
Si Si5 0.576113 0.691310 0.826589
O O1 0.576642 0.219046 0.500000
O O2 0.500000 0.186037 0.286825
O O3 0.646097 0.188217 0.265980
O O4 0.573980 0.255278 0.213024
O O5 0.250000 0.250000 0.765185
O O6 0.266648 0.343544 0.770642
O O7 0.209400 0.297828 0.000000
O O8 0.500000 0.566578 0.242073
O O9 0.414091 0.500000 0.221738
O O10 0.361841 0.584305 0.254434
O O11 0.423063 0.559955 0.000000
O O12 0.302912 0.378657 0.500000
O O13 0.384445 0.333594 0.308953
O O14 0.500000 0.673803 0.832550
O O15 0.606698 0.683968 0.000000
#
# Coordination Sequence:
#
# PCOD9484958 Si02
#       5
#    16  16  16  16  16
#     4  10  20  33  49  69  94 125 162 206 254 300
#     4  11  22  35  51  70  96 134 175 214 254 301
#     4   9  19  37  58  77 101 136 176 217 260 308
#     4  12  23  32  48  72 100 131 166 213 263 307
#     4  10  19  30  44  63  90 126 168 207 242 291
#
# _framework density 16.271349000000001
#
# number of rings (size 3 to 8) (size 9 to 14) (size 15 to 20)
#    0.000    1.600    2.000    4.800    0.000    6.400 
#    0.000    1.000    0.000    0.000    0.000    0.000 
#    0.000    0.800    0.000    8.400    0.000    3.600 
#
# Total GULP energy -222716.260154 kJ/mol
# GULP energy per Si atom -5567.906504 kJ/mol
# Density = 1.623431 g / cm^3
# Si number density = 16.271349 Si / 1000 Ang^3
#
#
#
# Elastic Constant Matrix: (Units=GPa)
#
#
# Indices 1 2 3 4 5 6 
#
# 1 115.7986 39.0733 31.1748 0.0000 0.0000 0.0000
# 2 39.0733 61.3242 16.1937 0.0000 0.0000 0.0000
# 3 31.1748 16.1937 56.7434 0.0000 0.0000 0.0000
# 4 0.0000 0.0000 0.0000 8.5403 0.0000 0.0000
# 5 0.0000 0.0000 0.0000 0.0000 24.6865 0.0000
# 6 0.0000 0.0000 0.0000 0.0000 0.0000 25.0971
#
#
#
# Elastic Compliance Matrix: (Units=1/GPa)
#
#
# Indices 1 2 3 4 5 6 
#
# 1 0.012105 -0.006442 -0.004812 0.000000 0.000000 0.000000
# 2 -0.006442 0.021064 -0.002472 0.000000 0.000000 0.000000
# 3 -0.004812 -0.002472 0.020972 0.000000 0.000000 0.000000
# 4 0.000000 0.000000 0.000000 0.117092 0.000000 0.000000
# 5 0.000000 0.000000 0.000000 0.000000 0.040508 0.000000
# 6 0.000000 0.000000 0.000000 0.000000 0.000000 0.039845
#
#
# Mechanical properties :
#
#
# Convention : Reuss Voigt Hill
#
# Bulk Modulus (GPa) = 37.46839 45.19443 41.33141
# Shear Modulus (GPa) = 17.36501 21.49308 19.42904
#
# Velocity S-wave (km/s) = 3.27037 3.63838 3.45927
# Velocity P-wave (km/s) = 6.11045 6.74435 6.43521
#
# Compressibility (1/GPa) = 0.02668916
#
# Stress axis : x y z
#
# Youngs Moduli (GPa) = 82.61163 47.47390 47.68178
#
# Poissons Ratio (x) = 0.30583 0.22944
# Poissons Ratio (y) = 0.53219 0.11788
# Poissons Ratio (z) = 0.39752 0.11736
#
# Static dielectric constant tensor:
#      x y z
#    x 1.651010 0.000000 0.000000 
#    y 0.000000 1.547990 0.000000 
#    z 0.000000 0.000000 1.559020 
# 
# From -- ./inp_files/12519.got.cif
#   From: 2010.05.17/outbox.cif.g08.bks.cpg/sg65_7_cif.got.tgz:12519.got - 2010.06.03 17:01:31.
