data_PCOD9484547
_publ_section_title
;
Structure prediction by ZEFSAII (Michael W. Deem and Ramdas Pophale) SiO2 
 PCOD9484547
Probable space group: C M M M
;
_chemical_formula_sum "Si O2"
_cell_formula_units_Z 104
_cell_length_a 7.448520
_cell_length_b 24.316510
_cell_length_c 31.266665
_cell_angle_alpha 90.000000
_cell_angle_beta 90.000000
_cell_angle_gamma 90.000000
_cell_volume 5663.081244
_symmetry_space_group_name_H-M "C M M M"
_symmetry_group_IT_number 65
_symmetry_cell_setting 'orthorhombic'
loop_
_space_group_symop_operation_xyz
x,y,z
-x,-y,z
x,-y,-z
-x,y,-z
-x,-y,-z
x,y,-z
-x,y,z
x,-y,z
1/2+x,1/2+y,z
1/2-x,1/2-y,z
1/2+x,1/2-y,-z
1/2-x,1/2+y,-z
1/2-x,1/2-y,-z
1/2+x,1/2+y,-z
1/2-x,1/2+y,z
1/2+x,1/2-y,z
loop_
_atom_site_type_symbol
_atom_site_label
_atom_site_fract_x
_atom_site_fract_y
_atom_site_fract_z
Si Si1 0.715090 0.565324 0.381260
Si Si2 0.500000 0.933480 0.548408
Si Si3 0.207676 0.000000 0.145532
Si Si4 0.779175 0.878565 0.869042
Si Si5 0.284782 0.000000 0.245147
Si Si6 0.208478 0.887108 0.706989
Si Si7 0.715030 0.685252 0.216340
Si Si8 0.214682 0.814667 0.952776
O O1 0.500000 0.571216 0.386446
O O2 0.748303 0.500000 0.372518
O O3 0.779803 0.600436 0.340374
O O4 0.825723 0.580981 0.423379
O O5 0.500000 0.912013 0.500000
O O6 0.500000 0.000000 0.545697
O O7 0.283572 0.941594 0.131056
O O8 0.216856 0.000000 0.196826
O O9 0.000000 0.000000 0.131797
O O10 0.720504 0.846947 0.825967
O O11 0.718868 0.847637 0.911776
O O12 0.000000 0.878512 0.868219
O O13 0.219129 0.054672 0.268600
O O14 0.500000 0.000000 0.245143
O O15 0.286308 0.842424 0.739927
O O16 0.000000 0.872662 0.700465
O O17 0.500000 0.677487 0.216970
O O18 0.750000 0.750000 0.213645
O O19 0.250000 0.750000 0.947031
O O20 0.000000 0.822147 0.953676
O O21 0.284020 0.830520 0.000000
#
# Coordination Sequence:
#
# PCOD9484547 Si02
#       8
#    16   8   8  16   8  16  16  16
#     4   9  17  28  46  69  94 129 171 206 246 299
#     4   9  18  30  44  66 102 138 168 206 251 296
#     4  10  18  34  51  64  90 126 163 191 238 300
#     4   9  17  30  50  69  89 125 161 194 237 292
#     4  12  22  28  46  75  97 122 163 210 245 273
#     4  10  19  33  50  67  95 135 168 199 241 297
#     4  10  20  33  48  67  94 129 164 197 241 294
#     4   9  17  30  48  71  94 117 154 200 244 291
#
# _framework density 18.364560999999998
#
# number of rings (size 3 to 8) (size 9 to 14) (size 15 to 20)
#    0.000    2.385    2.308    1.154    1.077    0.923 
#    0.000    2.692    0.000    2.308    0.000    0.000 
#    0.000    3.692    0.308    0.000    0.000    0.000 
#
# Total GULP energy -290017.613504 kJ/mol
# GULP energy per Si atom -5577.261798 kJ/mol
# Density = 1.832276 g / cm^3
# Si number density = 18.364561 Si / 1000 Ang^3
#
#
#
# Elastic Constant Matrix: (Units=GPa)
#
#
# Indices 1 2 3 4 5 6 
#
# 1 64.1910 5.7964 30.0920 0.0000 0.0000 0.0000
# 2 5.7964 100.7903 82.9719 0.0000 0.0000 0.0000
# 3 30.0920 82.9719 182.8919 0.0000 0.0000 0.0000
# 4 0.0000 0.0000 0.0000 4.4534 0.0000 0.0000
# 5 0.0000 0.0000 0.0000 0.0000 -12.3621 0.0000
# 6 0.0000 0.0000 0.0000 0.0000 0.0000 12.7179
#
#
#
# Elastic Compliance Matrix: (Units=1/GPa)
#
#
# Indices 1 2 3 4 5 6 
#
# 1 0.017164 0.002135 -0.003793 0.000000 0.000000 0.000000
# 2 0.002135 0.016101 -0.007656 0.000000 0.000000 0.000000
# 3 -0.003793 -0.007656 0.009565 0.000000 0.000000 0.000000
# 4 0.000000 0.000000 0.000000 0.224545 0.000000 0.000000
# 5 0.000000 0.000000 0.000000 0.000000 -0.080892 0.000000
# 6 0.000000 0.000000 0.000000 0.000000 0.000000 0.078629
#
#
# Mechanical properties :
#
#
# Convention : Reuss Voigt Hill
#
# Bulk Modulus (GPa) = 41.31732 65.06599 53.19165
# Shear Modulus (GPa) = 17.13463 16.22937 16.68200
#
# Velocity S-wave (km/s) = 3.05786 2.97599 3.01720
# Velocity P-wave (km/s) = 5.91731 6.87865 6.41601
#
# Compressibility (1/GPa) = 0.02420293
#
# Stress axis : x y z
#
# Youngs Moduli (GPa) = 58.26272 62.10709 104.54855
#
# Poissons Ratio (x) = -0.13260 0.39651
# Poissons Ratio (y) = -0.12439 0.80041
# Poissons Ratio (z) = 0.22097 0.47548
#
# Static dielectric constant tensor:
#      x y z
#    x 1.686210 0.000000 0.000000 
#    y 0.000000 1.610020 0.000000 
#    z 0.000000 0.000000 1.635550 
# 
# From -- ./inp_files/73664.got.cif
#   From: 2010.05.17/outbox.cif.g08.bks.cpg/sg65_37_cif.got.tgz:73664.got - 2010.06.03 17:01:31.
