data_PCOD9484758
_publ_section_title
;
Structure prediction by ZEFSAII (Michael W. Deem and Ramdas Pophale) SiO2 
 PCOD9484758
Probable space group: C M M M
;
_chemical_formula_sum "Si O2"
_cell_formula_units_Z 88
_cell_length_a 20.421805
_cell_length_b 14.035711
_cell_length_c 16.562304
_cell_angle_alpha 90.000000
_cell_angle_beta 90.000000
_cell_angle_gamma 90.000000
_cell_volume 4747.328605
_symmetry_space_group_name_H-M "C M M M"
_symmetry_group_IT_number 65
_symmetry_cell_setting 'orthorhombic'
loop_
_space_group_symop_operation_xyz
x,y,z
-x,-y,z
x,-y,-z
-x,y,-z
-x,-y,-z
x,y,-z
-x,y,z
x,-y,z
1/2+x,1/2+y,z
1/2-x,1/2-y,z
1/2+x,1/2-y,-z
1/2-x,1/2+y,-z
1/2-x,1/2-y,-z
1/2+x,1/2+y,-z
1/2-x,1/2+y,z
1/2+x,1/2-y,z
loop_
_atom_site_type_symbol
_atom_site_label
_atom_site_fract_x
_atom_site_fract_y
_atom_site_fract_z
Si Si1 0.579763 0.110422 0.500000
Si Si2 0.894938 0.802517 0.091840
Si Si3 0.423990 0.604269 0.257455
Si Si4 0.743692 0.391758 0.090865
Si Si5 0.881066 0.607196 0.832868
Si Si6 0.420543 0.800456 0.330680
O O1 0.500000 0.110632 0.500000
O O2 0.600598 0.163596 0.418294
O O3 0.600346 0.000000 0.500000
O O4 0.922631 0.868103 0.162874
O O5 0.816466 0.820242 0.098649
O O6 0.910689 0.693478 0.114622
O O7 0.913820 0.825133 0.000000
O O8 0.500000 0.598413 0.281455
O O9 0.393577 0.500000 0.270213
O O10 0.395963 0.694903 0.305580
O O11 0.716563 0.500000 0.095455
O O12 0.802981 0.385457 0.152658
O O13 0.771803 0.380787 0.000000
O O14 0.901000 0.500000 0.855707
O O15 0.898555 0.629296 0.740634
O O16 0.500000 0.798744 0.329261
#
# Coordination Sequence:
#
# PCOD9484758 Si02
#       6
#     8  16  16  16  16  16
#     4   9  16  28  49  73  94 117 146 180 218 264
#     4  10  19  30  45  65  90 121 158 197 232 265
#     4   9  18  32  48  67  93 122 151 186 228 273
#     4   9  17  29  45  65  88 115 152 196 234 265
#     4  10  19  29  43  64  90 120 151 185 228 274
#     4   9  18  32  49  70  94 118 146 182 226 274
#
# _framework density 18.536742
#
# number of rings (size 3 to 8) (size 9 to 14) (size 15 to 20)
#    0.000    2.636    0.000    2.182    0.000    5.091 
#    0.000    1.364    0.000    4.364    0.000   20.364 
#    0.000    8.727    0.000    0.000    0.000    0.000 
#
# Total GULP energy -245225.783158 kJ/mol
# GULP energy per Si atom -5573.313254 kJ/mol
# Density = 1.849455 g / cm^3
# Si number density = 18.536742 Si / 1000 Ang^3
#
#
#
# Elastic Constant Matrix: (Units=GPa)
#
#
# Indices 1 2 3 4 5 6 
#
# 1 20.4957 3.9585 13.2907 0.0000 0.0000 0.0000
# 2 3.9585 139.5674 46.5381 0.0000 0.0000 0.0000
# 3 13.2907 46.5381 116.8027 0.0000 0.0000 0.0000
# 4 0.0000 0.0000 0.0000 14.2424 0.0000 0.0000
# 5 0.0000 0.0000 0.0000 0.0000 -64.8829 0.0000
# 6 0.0000 0.0000 0.0000 0.0000 0.0000 17.3077
#
#
#
# Elastic Compliance Matrix: (Units=1/GPa)
#
#
# Indices 1 2 3 4 5 6 
#
# 1 0.052719 0.000582 -0.006231 0.000000 0.000000 0.000000
# 2 0.000582 0.008269 -0.003361 0.000000 0.000000 0.000000
# 3 -0.006231 -0.003361 0.010610 0.000000 0.000000 0.000000
# 4 0.000000 0.000000 0.000000 0.070213 0.000000 0.000000
# 5 0.000000 0.000000 0.000000 0.000000 -0.015412 0.000000
# 6 0.000000 0.000000 0.000000 0.000000 0.000000 0.057778
#
#
# Mechanical properties :
#
#
# Convention : Reuss Voigt Hill
#
# Bulk Modulus (GPa) = 18.66412 44.93780 31.80096
# Shear Modulus (GPa) = 22.72170 7.53868 15.13019
#
# Velocity S-wave (km/s) = 3.50489 2.01884 2.86007
# Velocity P-wave (km/s) = 5.14486 5.45247 5.30090
#
# Compressibility (1/GPa) = 0.05357873
#
# Stress axis : x y z
#
# Youngs Moduli (GPa) = 18.96860 120.93094 94.25462
#
# Poissons Ratio (x) = -0.07043 0.58728
# Poissons Ratio (y) = -0.01105 0.31679
# Poissons Ratio (z) = 0.11819 0.40645
#
# Static dielectric constant tensor:
#      x y z
#    x 1.662010 0.000000 0.000000 
#    y 0.000000 1.707480 0.000000 
#    z 0.000000 0.000000 1.614120 
# 
# From -- ./inp_files/45557.got.cif
#   From: 2010.05.17/outbox.cif.g08.bks.cpg/sg65_23_cif.got.tgz:45557.got - 2010.06.03 17:01:31.
