data_PCOD9484525
_publ_section_title
;
Structure prediction by ZEFSAII (Michael W. Deem and Ramdas Pophale) SiO2 
 PCOD9484525
Probable space group: C M M M
;
_chemical_formula_sum "Si O2"
_cell_formula_units_Z 104
_cell_length_a 19.525771
_cell_length_b 26.949887
_cell_length_c 11.765427
_cell_angle_alpha 90.000000
_cell_angle_beta 90.000000
_cell_angle_gamma 90.000000
_cell_volume 6191.171489
_symmetry_space_group_name_H-M "C M M M"
_symmetry_group_IT_number 65
_symmetry_cell_setting 'orthorhombic'
loop_
_space_group_symop_operation_xyz
x,y,z
-x,-y,z
x,-y,-z
-x,y,-z
-x,-y,-z
x,y,-z
-x,y,z
x,-y,z
1/2+x,1/2+y,z
1/2-x,1/2-y,z
1/2+x,1/2-y,-z
1/2-x,1/2+y,-z
1/2-x,1/2-y,-z
1/2+x,1/2+y,-z
1/2-x,1/2+y,z
1/2+x,1/2-y,z
loop_
_atom_site_type_symbol
_atom_site_label
_atom_site_fract_x
_atom_site_fract_y
_atom_site_fract_z
Si Si1 0.581812 0.301453 0.365503
Si Si2 0.417500 0.797312 0.239859
Si Si3 0.708653 0.056295 0.249968
Si Si4 0.578420 0.500000 0.638030
Si Si5 0.837088 0.097813 0.363617
Si Si6 0.420532 0.898919 0.364831
Si Si7 0.841383 0.443825 0.000000
Si Si8 0.417459 0.840979 0.000000
O O1 0.590691 0.290250 0.500000
O O2 0.500000 0.309060 0.348257
O O3 0.606276 0.254862 0.290772
O O4 0.622593 0.351596 0.338949
O O5 0.500000 0.793049 0.232570
O O6 0.404521 0.842770 0.325531
O O7 0.392980 0.813761 0.114992
O O8 0.764168 0.092940 0.303101
O O9 0.633733 0.066999 0.300924
O O10 0.728669 0.000000 0.280368
O O11 0.702659 0.060605 0.114569
O O12 0.500000 0.500000 0.677850
O O13 0.576873 0.500000 0.500000
O O14 0.617699 0.550089 0.671636
O O15 0.827205 0.095155 0.500000
O O16 0.413947 0.903997 0.500000
O O17 0.500000 0.909145 0.333665
O O18 0.871561 0.500000 0.000000
O O19 0.893753 0.398075 0.000000
O O20 0.500000 0.840162 0.000000
#
# Coordination Sequence:
#
# PCOD9484525 Si02
#       8
#    16  16  16   8  16  16   8   8
#     4   9  17  31  53  81 112 142 175 216 263 323
#     4   9  17  31  52  77 106 138 174 217 268 314
#     4  11  22  37  54  74 105 143 181 224 270 320
#     4   9  16  28  50  81 112 138 171 215 265 324
#     4  10  19  32  52  80 111 143 175 214 271 326
#     4  10  20  33  52  77 105 140 178 216 265 325
#     4  10  22  37  55  75  97 139 190 226 271 322
#     4  10  18  33  57  81 103 134 181 237 278 310
#
# _framework density 16.798114000000002
#
# number of rings (size 3 to 8) (size 9 to 14) (size 15 to 20)
#    0.000    2.231    2.308    1.385    0.000    5.077 
#    0.000    3.846    0.000    3.692    0.000    2.154 
#    0.000    0.000    0.000    0.000    0.000    0.000 
#
# Total GULP energy -289875.057496 kJ/mol
# GULP energy per Si atom -5574.520336 kJ/mol
# Density = 1.675988 g / cm^3
# Si number density = 16.798114 Si / 1000 Ang^3
#
#
#
# Elastic Constant Matrix: (Units=GPa)
#
#
# Indices 1 2 3 4 5 6 
#
# 1 62.6227 33.1654 35.4300 0.0000 0.0000 0.0000
# 2 33.1654 105.3003 46.9334 0.0000 0.0000 0.0000
# 3 35.4300 46.9334 69.6759 0.0000 0.0000 0.0000
# 4 0.0000 0.0000 0.0000 25.7314 0.0000 0.0000
# 5 0.0000 0.0000 0.0000 0.0000 11.3401 0.0000
# 6 0.0000 0.0000 0.0000 0.0000 0.0000 11.8018
#
#
#
# Elastic Compliance Matrix: (Units=1/GPa)
#
#
# Indices 1 2 3 4 5 6 
#
# 1 0.023024 -0.002906 -0.009750 0.000000 0.000000 0.000000
# 2 -0.002906 0.013938 -0.007911 0.000000 0.000000 0.000000
# 3 -0.009750 -0.007911 0.024639 0.000000 0.000000 0.000000
# 4 0.000000 0.000000 0.000000 0.038863 0.000000 0.000000
# 5 0.000000 0.000000 0.000000 0.000000 0.088183 0.000000
# 6 0.000000 0.000000 0.000000 0.000000 0.000000 0.084733
#
#
# Mechanical properties :
#
#
# Convention : Reuss Voigt Hill
#
# Bulk Modulus (GPa) = 48.85971 52.07294 50.46632
# Shear Modulus (GPa) = 15.56007 17.91266 16.73636
#
# Velocity S-wave (km/s) = 3.04682 3.26904 3.15988
# Velocity P-wave (km/s) = 6.44415 6.73167 6.58948
#
# Compressibility (1/GPa) = 0.02046676
#
# Stress axis : x y z
#
# Youngs Moduli (GPa) = 43.43292 71.74718 40.58631
#
# Poissons Ratio (x) = 0.20849 0.39573
# Poissons Ratio (y) = 0.12621 0.32107
# Poissons Ratio (z) = 0.42348 0.56758
#
# Static dielectric constant tensor:
#      x y z
#    x 1.558240 0.000000 0.000000 
#    y 0.000000 1.567010 0.000000 
#    z 0.000000 0.000000 1.562160 
# 
# From -- ./inp_files/27524.got.cif
#   From: 2010.05.17/outbox.cif.g08.bks.cpg/sg65_14_cif.got.tgz:27524.got - 2010.06.03 17:01:31.
