data_PCOD9484693
_publ_section_title
;
Structure prediction by ZEFSAII (Michael W. Deem and Ramdas Pophale) SiO2 
 PCOD9484693
Probable space group: C M M M
;
_chemical_formula_sum "Si O2"
_cell_formula_units_Z 88
_cell_length_a 26.171088
_cell_length_b 8.758968
_cell_length_c 26.009969
_cell_angle_alpha 90.000000
_cell_angle_beta 90.000000
_cell_angle_gamma 90.000000
_cell_volume 5962.309991
_symmetry_space_group_name_H-M "C M M M"
_symmetry_group_IT_number 65
_symmetry_cell_setting 'orthorhombic'
loop_
_space_group_symop_operation_xyz
x,y,z
-x,-y,z
x,-y,-z
-x,y,-z
-x,-y,-z
x,y,-z
-x,y,z
x,-y,z
1/2+x,1/2+y,z
1/2-x,1/2-y,z
1/2+x,1/2-y,-z
1/2-x,1/2+y,-z
1/2-x,1/2-y,-z
1/2+x,1/2+y,-z
1/2-x,1/2+y,z
1/2+x,1/2-y,z
loop_
_atom_site_type_symbol
_atom_site_label
_atom_site_fract_x
_atom_site_fract_y
_atom_site_fract_z
Si Si1 0.805744 0.817237 0.940325
Si Si2 0.399491 0.183058 0.122178
Si Si3 0.060320 0.314353 0.444565
Si Si4 0.560097 0.681675 0.774736
Si Si5 0.500000 0.814182 0.059055
Si Si6 0.437869 0.821672 0.333058
O O1 0.750000 0.750000 0.928190
O O2 0.849189 0.751064 0.903726
O O3 0.804250 0.000000 0.936645
O O4 0.817267 0.775950 0.000000
O O5 0.408673 0.238555 0.180109
O O6 0.449148 0.234037 0.089191
O O7 0.397239 0.000000 0.120712
O O8 0.082155 0.263986 0.500000
O O9 0.062754 0.500000 0.443476
O O10 0.080873 0.263429 0.388958
O O11 0.000000 0.275233 0.445490
O O12 0.500000 0.726683 0.780046
O O13 0.563186 0.500000 0.780029
O O14 0.577325 0.731139 0.717767
O O15 0.500000 0.000000 0.058655
O O16 0.500000 0.762196 0.000000
O O17 0.500000 0.815746 0.335364
O O18 0.424037 0.000000 0.327227
#
# Coordination Sequence:
#
# PCOD9484693 Si02
#       6
#    16  16  16  16   8  16
#     4  10  21  37  55  74  94 116 143 176 215 260
#     4  11  20  32  50  69  91 117 147 182 219 262
#     4   7   9  14  26  45  66  88 121 169 216 251
#     4  10  19  29  40  56  83 114 145 180 218 260
#     4   9  18  30  45  67  91 113 138 171 214 261
#     4   8  13  21  34  50  69  97 135 174 212 255
#
# _framework density 14.75938
#
# number of rings (size 3 to 8) (size 9 to 14) (size 15 to 20)
#    0.000    2.818    0.909    3.818    0.000    2.545 
#    0.000    0.000    0.000    2.727    0.000    3.818 
#    0.000    0.000    0.000    0.000    0.000    0.909 
#
# Total GULP energy -244962.435942 kJ/mol
# GULP energy per Si atom -5567.328090 kJ/mol
# Density = 1.472579 g / cm^3
# Si number density = 14.759380 Si / 1000 Ang^3
#
#
#
# Elastic Constant Matrix: (Units=GPa)
#
#
# Indices 1 2 3 4 5 6 
#
# 1 58.2760 25.0762 56.0029 0.0000 0.0000 0.0000
# 2 25.0762 32.9296 36.6281 0.0000 0.0000 0.0000
# 3 56.0029 36.6281 150.8550 0.0000 0.0000 0.0000
# 4 0.0000 0.0000 0.0000 13.0875 0.0000 0.0000
# 5 0.0000 0.0000 0.0000 0.0000 8.3425 0.0000
# 6 0.0000 0.0000 0.0000 0.0000 0.0000 15.2084
#
#
#
# Elastic Compliance Matrix: (Units=1/GPa)
#
#
# Indices 1 2 3 4 5 6 
#
# 1 0.031246 -0.014922 -0.007977 0.000000 0.000000 0.000000
# 2 -0.014922 0.048730 -0.006292 0.000000 0.000000 0.000000
# 3 -0.007977 -0.006292 0.011118 0.000000 0.000000 0.000000
# 4 0.000000 0.000000 0.000000 0.076409 0.000000 0.000000
# 5 0.000000 0.000000 0.000000 0.000000 0.119869 0.000000
# 6 0.000000 0.000000 0.000000 0.000000 0.000000 0.065753
#
#
# Mechanical properties :
#
#
# Convention : Reuss Voigt Hill
#
# Bulk Modulus (GPa) = 30.56927 53.05278 41.81103
# Shear Modulus (GPa) = 11.83685 15.61790 13.72738
#
# Velocity S-wave (km/s) = 2.83501 3.25648 3.05303
# Velocity P-wave (km/s) = 5.61009 7.08256 6.38889
#
# Compressibility (1/GPa) = 0.03271259
#
# Stress axis : x y z
#
# Youngs Moduli (GPa) = 32.00409 20.52131 89.94498
#
# Poissons Ratio (x) = 0.30621 0.71746
# Poissons Ratio (y) = 0.47755 0.56596
# Poissons Ratio (z) = 0.25529 0.12913
#
# Static dielectric constant tensor:
#      x y z
#    x 1.451050 0.000000 0.000000 
#    y 0.000000 1.490250 0.000000 
#    z 0.000000 0.000000 1.530770 
# 
# From -- ./inp_files/70959.got.cif
#   From: 2010.05.17/outbox.cif.g08.bks.cpg/sg65_36_cif.got.tgz:70959.got - 2010.06.03 17:01:31.
