data_PCOD9484196
_publ_section_title
;
Structure prediction by ZEFSAII (Michael W. Deem and Ramdas Pophale) SiO2 
 PCOD9484196
Probable space group: C M M M
;
_chemical_formula_sum "Si O2"
_cell_formula_units_Z 96
_cell_length_a 23.333084
_cell_length_b 15.737191
_cell_length_c 14.755154
_cell_angle_alpha 90.000000
_cell_angle_beta 90.000000
_cell_angle_gamma 90.000000
_cell_volume 5418.051227
_symmetry_space_group_name_H-M "C M M M"
_symmetry_group_IT_number 65
_symmetry_cell_setting 'orthorhombic'
loop_
_space_group_symop_operation_xyz
x,y,z
-x,-y,z
x,-y,-z
-x,y,-z
-x,-y,-z
x,y,-z
-x,y,z
x,-y,z
1/2+x,1/2+y,z
1/2-x,1/2-y,z
1/2+x,1/2-y,-z
1/2-x,1/2+y,-z
1/2-x,1/2-y,-z
1/2+x,1/2+y,-z
1/2-x,1/2+y,z
1/2+x,1/2-y,z
loop_
_atom_site_type_symbol
_atom_site_label
_atom_site_fract_x
_atom_site_fract_y
_atom_site_fract_z
Si Si1 0.242595 0.350368 0.901090
Si Si2 0.828922 0.593916 0.640115
Si Si3 0.500000 0.896175 0.216011
Si Si4 0.625641 0.721953 0.399401
Si Si5 0.000000 0.285221 0.605569
Si Si6 0.379162 0.095711 0.156689
Si Si7 0.297783 0.403960 0.712671
O O1 0.250000 0.250000 0.895078
O O2 0.174353 0.364096 0.893421
O O3 0.275945 0.390152 0.815869
O O4 0.262173 0.381355 0.000000
O O5 0.841177 0.500000 0.600441
O O6 0.851828 0.680727 0.598431
O O7 0.857753 0.592468 0.739317
O O8 0.760724 0.601754 0.653982
O O9 0.500000 0.858065 0.317616
O O10 0.557236 0.867269 0.163471
O O11 0.500000 0.000000 0.221469
O O12 0.635270 0.684692 0.500000
O O13 0.557834 0.730800 0.382305
O O14 0.659063 0.667305 0.324359
O O15 0.000000 0.316135 0.500000
O O16 0.384824 0.000000 0.121634
O O17 0.320583 0.500000 0.703590
#
# Coordination Sequence:
#
# PCOD9484196 Si02
#       7
#    16  16   8  16   8  16  16
#     4  10  20  34  56  85 115 143 175 221 279 340
#     4   9  17  31  51  77 108 143 180 217 270 334
#     4  10  18  31  53  77 105 150 190 219 264 323
#     4  11  22  36  53  77 110 144 186 238 280 324
#     4  10  22  35  51  77 103 141 191 234 281 326
#     4   9  17  30  49  75 108 145 181 217 260 316
#     4  10  21  36  56  79 106 146 190 227 272 326
#
# _framework density 17.718547999999998
#
# number of rings (size 3 to 8) (size 9 to 14) (size 15 to 20)
#    0.000    2.167    1.667    4.000    0.000    3.500 
#    0.000    4.167    0.000    3.000    0.000    0.583 
#    0.000    1.333    0.000    0.000    0.000    0.000 
#
# Total GULP energy -267397.550525 kJ/mol
# GULP energy per Si atom -5570.782303 kJ/mol
# Density = 1.767822 g / cm^3
# Si number density = 17.718548 Si / 1000 Ang^3
#
#
#
# Elastic Constant Matrix: (Units=GPa)
#
#
# Indices 1 2 3 4 5 6 
#
# 1 109.3721 53.7451 39.7692 0.0000 0.0000 0.0000
# 2 53.7451 82.0948 32.4573 0.0000 0.0000 0.0000
# 3 39.7692 32.4573 76.7746 0.0000 0.0000 0.0000
# 4 0.0000 0.0000 0.0000 66.6123 0.0000 0.0000
# 5 0.0000 0.0000 0.0000 0.0000 8.4908 0.0000
# 6 0.0000 0.0000 0.0000 0.0000 0.0000 21.4754
#
#
#
# Elastic Compliance Matrix: (Units=1/GPa)
#
#
# Indices 1 2 3 4 5 6 
#
# 1 0.014530 -0.007849 -0.004209 0.000000 0.000000 0.000000
# 2 -0.007849 0.018865 -0.003910 0.000000 0.000000 0.000000
# 3 -0.004209 -0.003910 0.016858 0.000000 0.000000 0.000000
# 4 0.000000 0.000000 0.000000 0.015012 0.000000 0.000000
# 5 0.000000 0.000000 0.000000 0.000000 0.117775 0.000000
# 6 0.000000 0.000000 0.000000 0.000000 0.000000 0.046565
#
#
# Mechanical properties :
#
#
# Convention : Reuss Voigt Hill
#
# Bulk Modulus (GPa) = 54.58697 57.79829 56.19263
# Shear Modulus (GPa) = 18.68143 28.80037 23.74090
#
# Velocity S-wave (km/s) = 3.25059 4.03604 3.66442
# Velocity P-wave (km/s) = 6.70545 7.37635 7.04889
#
# Compressibility (1/GPa) = 0.01831939
#
# Stress axis : x y z
#
# Youngs Moduli (GPa) = 68.82247 53.00806 59.31868
#
# Poissons Ratio (x) = 0.41604 0.24965
# Poissons Ratio (y) = 0.54016 0.23193
# Poissons Ratio (z) = 0.28964 0.20725
#
# Static dielectric constant tensor:
#      x y z
#    x 1.619670 0.000000 0.000000 
#    y 0.000000 1.606460 0.000000 
#    z 0.000000 0.000000 1.640710 
# 
# From -- ./inp_files/45667.got.cif
#   From: 2010.05.17/outbox.cif.g08.bks.cpg/sg65_23_cif.got.tgz:45667.got - 2010.06.03 17:01:31.
