data_PCOD9484905
_publ_section_title
;
Structure prediction by ZEFSAII (Michael W. Deem and Ramdas Pophale) SiO2 
 PCOD9484905
Probable space group: C M M M
;
_chemical_formula_sum "Si O2"
_cell_formula_units_Z 112
_cell_length_a 32.767842
_cell_length_b 32.388694
_cell_length_c 9.020027
_cell_angle_alpha 90.000000
_cell_angle_beta 90.000000
_cell_angle_gamma 90.000000
_cell_volume 9573.023276
_symmetry_space_group_name_H-M "C M M M"
_symmetry_group_IT_number 65
_symmetry_cell_setting 'orthorhombic'
loop_
_space_group_symop_operation_xyz
x,y,z
-x,-y,z
x,-y,-z
-x,y,-z
-x,-y,-z
x,y,-z
-x,y,z
x,-y,z
1/2+x,1/2+y,z
1/2-x,1/2-y,z
1/2+x,1/2-y,-z
1/2-x,1/2+y,-z
1/2-x,1/2-y,-z
1/2+x,1/2+y,-z
1/2-x,1/2+y,z
1/2+x,1/2-y,z
loop_
_atom_site_type_symbol
_atom_site_label
_atom_site_fract_x
_atom_site_fract_y
_atom_site_fract_z
Si Si1 0.136297 0.384469 0.824932
Si Si2 0.222755 0.792122 0.828486
Si Si3 0.417516 0.801178 0.175087
Si Si4 0.581243 0.951580 0.675076
Si Si5 0.207370 0.338201 0.670773
Si Si6 0.000000 0.583072 0.177898
Si Si7 0.000000 0.674032 0.677193
Si Si8 0.653027 0.754168 0.670829
O O1 0.105830 0.345186 0.805283
O O2 0.116747 0.422626 0.738539
O O3 0.179783 0.370573 0.759845
O O4 0.138873 0.392708 0.000000
O O5 0.250000 0.750000 0.825823
O O6 0.250113 0.826407 0.747681
O O7 0.181018 0.780681 0.745517
O O8 0.215728 0.802396 0.000000
O O9 0.459326 0.803520 0.265358
O O10 0.386954 0.766490 0.237233
O O11 0.424910 0.795997 0.000000
O O12 0.575105 0.943269 0.500000
O O13 0.540146 0.939881 0.762834
O O14 0.590021 0.000000 0.693441
O O15 0.212833 0.350475 0.500000
O O16 0.180862 0.295748 0.671247
O O17 0.000000 0.628886 0.246827
O O18 0.000000 0.585518 0.000000
O O19 0.000000 0.670036 0.500000
O O20 0.643554 0.744640 0.500000
#
# Coordination Sequence:
#
# PCOD9484905 Si02
#       8
#    16  16  16  16  16   8   8  16
#     4  10  19  30  44  58  73  90 111 137 169 209
#     4   9  15  23  35  52  73  94 115 136 160 190
#     4  10  19  30  42  56  72  90 113 141 173 208
#     4  11  23  36  48  60  73  89 110 139 177 220
#     4   9  16  25  38  54  73  93 113 135 161 195
#     4  12  23  35  48  61  72  86 108 140 178 220
#     4  12  22  31  45  58  72  91 114 144 178 216
#     4   9  16  25  37  53  72  93 115 136 163 197
#
# _framework density 11.699543
#
# number of rings (size 3 to 8) (size 9 to 14) (size 15 to 20)
#    0.000    2.000    1.429    4.071    0.000    8.286 
#    0.000    0.000    0.000    0.000    0.000    0.000 
#    0.000    0.000    0.000    0.000    0.000    0.000 
#
# Total GULP energy -312341.823211 kJ/mol
# GULP energy per Si atom -5577.532557 kJ/mol
# Density = 1.167291 g / cm^3
# Si number density = 11.699543 Si / 1000 Ang^3
#
#
#
# Elastic Constant Matrix: (Units=GPa)
#
#
# Indices 1 2 3 4 5 6 
#
# 1 70.6080 41.9689 57.5901 0.0000 0.0000 0.0000
# 2 41.9689 34.0197 35.9265 0.0000 0.0000 0.0000
# 3 57.5901 35.9265 114.4432 0.0000 0.0000 0.0000
# 4 0.0000 0.0000 0.0000 12.0796 0.0000 0.0000
# 5 0.0000 0.0000 0.0000 0.0000 21.6666 0.0000
# 6 0.0000 0.0000 0.0000 0.0000 0.0000 2.0375
#
#
#
# Elastic Compliance Matrix: (Units=1/GPa)
#
#
# Indices 1 2 3 4 5 6 
#
# 1 0.060492 -0.063547 -0.010492 0.000000 0.000000 0.000000
# 2 -0.063547 0.110729 -0.002782 0.000000 0.000000 0.000000
# 3 -0.010492 -0.002782 0.014891 0.000000 0.000000 0.000000
# 4 0.000000 0.000000 0.000000 0.082784 0.000000 0.000000
# 5 0.000000 0.000000 0.000000 0.000000 0.046154 0.000000
# 6 0.000000 0.000000 0.000000 0.000000 0.000000 0.490801
#
#
# Mechanical properties :
#
#
# Convention : Reuss Voigt Hill
#
# Bulk Modulus (GPa) = 30.79807 54.44909 42.62358
# Shear Modulus (GPa) = 5.15295 12.72910 8.94103
#
# Velocity S-wave (km/s) = 2.10094 3.30206 2.76745
# Velocity P-wave (km/s) = 5.68037 7.82168 6.83540
#
# Compressibility (1/GPa) = 0.03246957
#
# Stress axis : x y z
#
# Youngs Moduli (GPa) = 16.53106 9.03104 67.15421
#
# Poissons Ratio (x) = 0.57390 0.70457
# Poissons Ratio (y) = 1.05050 0.18685
# Poissons Ratio (z) = 0.17344 0.02513
#
# Static dielectric constant tensor:
#      x y z
#    x 1.370870 0.000000 0.000000 
#    y 0.000000 1.349640 0.000000 
#    z 0.000000 0.000000 1.390850 
# 
# From -- ./inp_files/19215.got.cif
#   From: 2010.05.17/outbox.cif.g08.bks.cpg/sg65_10_cif.got.tgz:19215.got - 2010.06.03 17:01:31.
