data_PCOD9484201
_publ_section_title
;
Structure prediction by ZEFSAII (Michael W. Deem and Ramdas Pophale) SiO2 
 PCOD9484201
Probable space group: C M M M
;
_chemical_formula_sum "Si O2"
_cell_formula_units_Z 120
_cell_length_a 17.193837
_cell_length_b 15.195992
_cell_length_c 21.796263
_cell_angle_alpha 90.000000
_cell_angle_beta 90.000000
_cell_angle_gamma 90.000000
_cell_volume 5694.871133
_symmetry_space_group_name_H-M "C M M M"
_symmetry_group_IT_number 65
_symmetry_cell_setting 'orthorhombic'
loop_
_space_group_symop_operation_xyz
x,y,z
-x,-y,z
x,-y,-z
-x,y,-z
-x,-y,-z
x,y,-z
-x,y,z
x,-y,z
1/2+x,1/2+y,z
1/2-x,1/2-y,z
1/2+x,1/2-y,-z
1/2-x,1/2+y,-z
1/2-x,1/2-y,-z
1/2+x,1/2+y,-z
1/2-x,1/2+y,z
1/2+x,1/2-y,z
loop_
_atom_site_type_symbol
_atom_site_label
_atom_site_fract_x
_atom_site_fract_y
_atom_site_fract_z
Si Si1 0.660251 0.106266 0.130419
Si Si2 0.250697 0.145273 0.567800
Si Si3 0.589059 0.896318 0.635100
Si Si4 0.680684 0.393370 0.067898
Si Si5 0.808956 0.329924 0.736697
Si Si6 0.909822 0.893123 0.811025
Si Si7 0.000000 0.392899 0.068940
Si Si8 0.334331 0.595314 0.688621
O O1 0.728849 0.123023 0.082080
O O2 0.674551 0.159315 0.192433
O O3 0.577754 0.132099 0.103541
O O4 0.661004 0.000000 0.143107
O O5 0.233771 0.109176 0.500000
O O6 0.250000 0.250000 0.564393
O O7 0.338127 0.117084 0.588603
O O8 0.186404 0.125241 0.619940
O O9 0.500000 0.874062 0.615364
O O10 0.616137 0.839108 0.693808
O O11 0.588014 0.000000 0.651062
O O12 0.670109 0.500000 0.066547
O O13 0.635768 0.361080 0.128647
O O14 0.658299 0.360393 0.000000
O O15 0.750000 0.250000 0.721549
O O16 0.751911 0.409286 0.717665
O O17 0.881319 0.858695 0.744482
O O18 0.000000 0.874972 0.818671
O O19 0.898243 0.000000 0.809520
O O20 0.000000 0.500000 0.066368
O O21 0.000000 0.359161 0.000000
O O22 0.371824 0.500000 0.681716
#
# Coordination Sequence:
#
# PCOD9484201 Si02
#       8
#    16  16  16  16  16  16   8  16
#     4  10  18  31  53  78 109 146 187 241 297 355
#     4  10  21  38  59  84 118 158 196 231 275 349
#     4  10  21  36  59  91 123 151 188 241 301 355
#     4   9  16  27  47  74 104 140 183 234 291 349
#     4  11  21  34  52  77 111 151 192 230 281 356
#     4   9  17  29  47  74 104 134 175 230 289 336
#     4   9  18  30  50  84 114 140 182 242 310 367
#     4  10  18  33  56  80 106 140 185 238 288 339
#
# _framework density 21.071593
#
# number of rings (size 3 to 8) (size 9 to 14) (size 15 to 20)
#    0.000    2.200    1.333    4.400    0.933    3.200 
#    0.000    4.667    0.000    2.800    0.000    1.867 
#    0.000    0.000    0.000    0.400    0.000    0.133 
#
# Total GULP energy -334356.874095 kJ/mol
# GULP energy per Si atom -5572.614568 kJ/mol
# Density = 2.102363 g / cm^3
# Si number density = 21.071593 Si / 1000 Ang^3
#
#
#
# Elastic Constant Matrix: (Units=GPa)
#
#
# Indices 1 2 3 4 5 6 
#
# 1 99.3866 21.0616 55.7720 0.0000 0.0000 0.0000
# 2 21.0616 51.1310 26.1533 0.0000 0.0000 0.0000
# 3 55.7720 26.1533 191.5603 0.0000 0.0000 0.0000
# 4 0.0000 0.0000 0.0000 13.4066 0.0000 0.0000
# 5 0.0000 0.0000 0.0000 0.0000 11.7240 0.0000
# 6 0.0000 0.0000 0.0000 0.0000 0.0000 17.2719
#
#
#
# Elastic Compliance Matrix: (Units=1/GPa)
#
#
# Indices 1 2 3 4 5 6 
#
# 1 0.012603 -0.003563 -0.003183 0.000000 0.000000 0.000000
# 2 -0.003563 0.022033 -0.001971 0.000000 0.000000 0.000000
# 3 -0.003183 -0.001971 0.006416 0.000000 0.000000 0.000000
# 4 0.000000 0.000000 0.000000 0.074590 0.000000 0.000000
# 5 0.000000 0.000000 0.000000 0.000000 0.085295 0.000000
# 6 0.000000 0.000000 0.000000 0.000000 0.000000 0.057897
#
#
# Mechanical properties :
#
#
# Convention : Reuss Voigt Hill
#
# Bulk Modulus (GPa) = 42.33947 60.89465 51.61706
# Shear Modulus (GPa) = 17.59688 24.41992 21.00840
#
# Velocity S-wave (km/s) = 2.89294 3.40796 3.16096
# Velocity P-wave (km/s) = 5.59425 6.66688 6.15398
#
# Compressibility (1/GPa) = 0.02361862
#
# Stress axis : x y z
#
# Youngs Moduli (GPa) = 79.34675 45.38559 155.86033
#
# Poissons Ratio (x) = 0.16172 0.49607
# Poissons Ratio (y) = 0.28274 0.30716
# Poissons Ratio (z) = 0.25254 0.08944
#
# Static dielectric constant tensor:
#      x y z
#    x 1.733940 0.000000 0.000000 
#    y 0.000000 1.875360 0.000000 
#    z 0.000000 0.000000 1.790110 
# 
# From -- ./inp_files/64020.got.cif
#   From: 2010.05.17/outbox.cif.g08.bks.cpg/sg65_33_cif.got.tgz:64020.got - 2010.06.03 17:01:31.
