data_PCOD9484092
_publ_section_title
;
Structure prediction by ZEFSAII (Michael W. Deem and Ramdas Pophale) SiO2 
 PCOD9484092
Probable space group: C M M M
;
_chemical_formula_sum "Si O2"
_cell_formula_units_Z 96
_cell_length_a 27.644876
_cell_length_b 23.017342
_cell_length_c 7.539437
_cell_angle_alpha 90.000000
_cell_angle_beta 90.000000
_cell_angle_gamma 90.000000
_cell_volume 4797.430960
_symmetry_space_group_name_H-M "C M M M"
_symmetry_group_IT_number 65
_symmetry_cell_setting 'orthorhombic'
loop_
_space_group_symop_operation_xyz
x,y,z
-x,-y,z
x,-y,-z
-x,y,-z
-x,-y,-z
x,y,-z
-x,y,z
x,-y,z
1/2+x,1/2+y,z
1/2-x,1/2-y,z
1/2+x,1/2-y,-z
1/2-x,1/2+y,-z
1/2-x,1/2-y,-z
1/2+x,1/2+y,-z
1/2-x,1/2+y,z
1/2+x,1/2-y,z
loop_
_atom_site_type_symbol
_atom_site_label
_atom_site_fract_x
_atom_site_fract_y
_atom_site_fract_z
Si Si1 0.387775 0.115974 0.716924
Si Si2 0.000000 0.066275 0.717822
Si Si3 0.943543 0.268964 0.282986
Si Si4 0.711524 0.933569 0.286602
Si Si5 0.555573 0.000000 0.716456
Si Si6 0.178150 0.934157 0.208760
Si Si7 0.588589 0.356132 0.708492
O O1 0.388125 0.116877 0.500000
O O2 0.414375 0.174257 0.776765
O O3 0.332224 0.107119 0.774256
O O4 0.416981 0.058377 0.771622
O O5 0.952598 0.100692 0.779105
O O6 0.000000 0.065053 0.500000
O O7 0.000000 0.000000 0.776964
O O8 0.943092 0.270382 0.500000
O O9 0.918656 0.209013 0.221761
O O10 0.000000 0.269982 0.230628
O O11 0.709124 0.935250 0.500000
O O12 0.766128 0.917068 0.239219
O O13 0.703659 0.000000 0.223220
O O14 0.500000 0.000000 0.773575
O O15 0.555932 0.000000 0.500000
O O16 0.140178 0.886921 0.274766
O O17 0.171166 0.000000 0.283708
O O18 0.170346 0.938133 0.000000
O O19 0.578301 0.350969 0.500000
#
# Coordination Sequence:
#
# PCOD9484092 Si02
#       7
#    16   8  16  16   8  16  16
#     4   9  15  24  41  68 101 134 166 200 241 288
#     4   9  16  26  45  71  95 118 154 200 239 283
#     4   9  16  27  44  69 101 135 166 198 238 290
#     4   9  16  29  49  72  98 129 166 206 246 289
#     4   9  14  20  34  64 105 139 161 192 245 298
#     4  10  21  35  51  72  97 124 160 207 258 302
#     4  10  18  31  50  73  99 130 165 198 240 293
#
# _framework density 20.01071
#
# number of rings (size 3 to 8) (size 9 to 14) (size 15 to 20)
#    0.000    2.667    1.667    1.500    0.000    3.667 
#    0.000    1.250    0.000    7.500    0.000    0.000 
#    0.000    2.667    0.000    0.000    0.000    0.000 
#
# Total GULP energy -267849.462257 kJ/mol
# GULP energy per Si atom -5580.197130 kJ/mol
# Density = 1.996517 g / cm^3
# Si number density = 20.010710 Si / 1000 Ang^3
#
#
#
# Elastic Constant Matrix: (Units=GPa)
#
#
# Indices 1 2 3 4 5 6 
#
# 1 155.5247 119.5674 -9.7552 0.0000 0.0000 0.0000
# 2 119.5674 201.4892 4.4426 0.0000 0.0000 0.0000
# 3 -9.7552 4.4426 43.8880 0.0000 0.0000 0.0000
# 4 0.0000 0.0000 0.0000 -4.2923 0.0000 0.0000
# 5 0.0000 0.0000 0.0000 0.0000 -68.1280 0.0000
# 6 0.0000 0.0000 0.0000 0.0000 0.0000 23.4244
#
#
#
# Elastic Compliance Matrix: (Units=1/GPa)
#
#
# Indices 1 2 3 4 5 6 
#
# 1 0.012336 -0.007397 0.003491 0.000000 0.000000 0.000000
# 2 -0.007397 0.009410 -0.002597 0.000000 0.000000 0.000000
# 3 0.003491 -0.002597 0.023824 0.000000 0.000000 0.000000
# 4 0.000000 0.000000 0.000000 -0.232973 0.000000 0.000000
# 5 0.000000 0.000000 0.000000 0.000000 -0.014678 0.000000
# 6 0.000000 0.000000 0.000000 0.000000 0.000000 0.042691
#
#
# Mechanical properties :
#
#
# Convention : Reuss Voigt Hill
#
# Bulk Modulus (GPa) = 30.70949 69.93462 50.32206
# Shear Modulus (GPa) = -36.89218 9.31061 -13.79079
#
# Velocity S-wave (km/s) = -4.29840 2.15938 -2.62805
# Velocity P-wave (km/s) = 3.04223 6.42197 3.99916
#
# Compressibility (1/GPa) = 0.03256322
#
# Stress axis : x y z
#
# Youngs Moduli (GPa) = 81.06473 106.27020 41.97444
#
# Poissons Ratio (x) = 0.78611 -0.14652
# Poissons Ratio (y) = 0.59966 0.10900
# Poissons Ratio (z) = -0.28298 0.27596
#
# Static dielectric constant tensor:
#      x y z
#    x 1.683270 0.000000 0.000000 
#    y 0.000000 1.705640 0.000000 
#    z 0.000000 0.000000 1.747790 
# 
# From -- ./inp_files/16696.got.cif
#   From: 2010.05.17/outbox.cif.g08.bks.cpg/sg65_9_cif.got.tgz:16696.got - 2010.06.03 17:01:31.
