data_PCOD9484381
_publ_section_title
;
Structure prediction by ZEFSAII (Michael W. Deem and Ramdas Pophale) SiO2 
 PCOD9484381
Probable space group: C M M M
;
_chemical_formula_sum "Si O2"
_cell_formula_units_Z 128
_cell_length_a 17.967845
_cell_length_b 18.308335
_cell_length_c 20.971419
_cell_angle_alpha 90.000000
_cell_angle_beta 90.000000
_cell_angle_gamma 90.000000
_cell_volume 6898.785792
_symmetry_space_group_name_H-M "C M M M"
_symmetry_group_IT_number 65
_symmetry_cell_setting 'orthorhombic'
loop_
_space_group_symop_operation_xyz
x,y,z
-x,-y,z
x,-y,-z
-x,y,-z
-x,-y,-z
x,y,-z
-x,y,z
x,-y,z
1/2+x,1/2+y,z
1/2-x,1/2-y,z
1/2+x,1/2-y,-z
1/2-x,1/2+y,-z
1/2-x,1/2-y,-z
1/2+x,1/2+y,-z
1/2-x,1/2+y,z
1/2+x,1/2-y,z
loop_
_atom_site_type_symbol
_atom_site_label
_atom_site_fract_x
_atom_site_fract_y
_atom_site_fract_z
Si Si1 0.784966 0.668253 0.208709
Si Si2 0.374767 0.412203 0.931144
Si Si3 0.782111 0.829397 0.426101
Si Si4 0.371153 0.587259 0.208396
Si Si5 0.282289 0.167637 0.068077
Si Si6 0.871093 0.586946 0.571100
Si Si7 0.580913 0.338854 0.336477
Si Si8 0.081090 0.667361 0.695535
O O1 0.750000 0.750000 0.216791
O O2 0.714189 0.614877 0.213136
O O3 0.818866 0.661281 0.137273
O O4 0.848304 0.652164 0.259886
O O5 0.379656 0.500000 0.931302
O O6 0.402351 0.387747 0.861221
O O7 0.288910 0.386144 0.931498
O O8 0.406476 0.386700 0.000000
O O9 0.805616 0.820978 0.500000
O O10 0.750000 0.750000 0.405162
O O11 0.714052 0.885688 0.423524
O O12 0.849971 0.854060 0.382401
O O13 0.374323 0.500000 0.210176
O O14 0.411372 0.620237 0.269322
O O15 0.250000 0.250000 0.067207
O O16 0.322428 0.156586 0.000000
O O17 0.897265 0.609486 0.500000
O O18 0.875761 0.500000 0.575234
O O19 0.912659 0.623908 0.629506
O O20 0.500000 0.355661 0.365187
O O21 0.584119 0.252894 0.321197
O O22 0.000000 0.652027 0.725241
#
# Coordination Sequence:
#
# PCOD9484381 Si02
#       8
#    16  16  16  16  16  16  16  16
#     4  10  18  32  54  76 105 142 180 227 276 322
#     4   8  14  26  45  72 105 135 172 228 281 319
#     4  10  20  37  61  85 109 140 180 224 266 316
#     4  10  20  33  54  82 108 144 190 231 273 321
#     4   8  14  24  42  71 100 130 172 220 270 320
#     4  10  22  40  63  89 112 138 177 228 281 325
#     4  11  23  36  53  79 113 150 183 219 266 322
#     4  11  23  36  53  78 110 148 184 219 268 329
#
# _framework density 18.553989000000001
#
# number of rings (size 3 to 8) (size 9 to 14) (size 15 to 20)
#    0.000    2.250    2.500    0.750    0.000    3.000 
#    0.000    1.875    0.000    0.750    0.000    6.125 
#    0.000    0.000    0.000   21.375    0.000    0.625 
#
# Total GULP energy -356596.731084 kJ/mol
# GULP energy per Si atom -5571.823923 kJ/mol
# Density = 1.851176 g / cm^3
# Si number density = 18.553989 Si / 1000 Ang^3
#
#
#
# Elastic Constant Matrix: (Units=GPa)
#
#
# Indices 1 2 3 4 5 6 
#
# 1 67.7600 4.6261 47.1281 0.0000 0.0000 0.0000
# 2 4.6261 45.9938 27.1145 0.0000 0.0000 0.0000
# 3 47.1281 27.1145 124.6204 0.0000 0.0000 0.0000
# 4 0.0000 0.0000 0.0000 28.8072 0.0000 0.0000
# 5 0.0000 0.0000 0.0000 0.0000 -5.7667 0.0000
# 6 0.0000 0.0000 0.0000 0.0000 0.0000 -601.9979
#
#
#
# Elastic Compliance Matrix: (Units=1/GPa)
#
#
# Indices 1 2 3 4 5 6 
#
# 1 0.020347 0.002856 -0.008316 0.000000 0.000000 0.000000
# 2 0.002856 0.025342 -0.006594 0.000000 0.000000 0.000000
# 3 -0.008316 -0.006594 0.012604 0.000000 0.000000 0.000000
# 4 0.000000 0.000000 0.000000 0.034714 0.000000 0.000000
# 5 0.000000 0.000000 0.000000 0.000000 -0.173408 0.000000
# 6 0.000000 0.000000 0.000000 0.000000 0.000000 -0.001661
#
#
# Mechanical properties :
#
#
# Convention : Reuss Voigt Hill
#
# Bulk Modulus (GPa) = 29.25256 44.01239 36.63247
# Shear Modulus (GPa) = -107.38909 -105.15779 -106.27344
#
# Velocity S-wave (km/s) = -7.61609 -7.53656 -7.57643
# Velocity P-wave (km/s) = 7.84471 7.20834 7.53325
#
# Compressibility (1/GPa) = 0.03418504
#
# Stress axis : x y z
#
# Youngs Moduli (GPa) = 49.14753 39.46005 79.34020
#
# Poissons Ratio (x) = -0.11270 0.65980
# Poissons Ratio (y) = -0.14037 0.52316
# Poissons Ratio (z) = 0.40871 0.26020
#
# Static dielectric constant tensor:
#      x y z
#    x 1.618360 0.000000 0.000000 
#    y 0.000000 1.619250 0.000000 
#    z 0.000000 0.000000 1.704960 
# 
# From -- ./inp_files/64098.got.cif
#   From: 2010.05.17/outbox.cif.g08.bks.cpg/sg65_33_cif.got.tgz:64098.got - 2010.06.03 17:01:31.
