data_PCOD9484202
_publ_section_title
;
Structure prediction by ZEFSAII (Michael W. Deem and Ramdas Pophale) SiO2 
 PCOD9484202
Probable space group: C M M M
;
_chemical_formula_sum "Si O2"
_cell_formula_units_Z 64
_cell_length_a 15.572045
_cell_length_b 8.115329
_cell_length_c 24.534013
_cell_angle_alpha 90.000000
_cell_angle_beta 90.000000
_cell_angle_gamma 90.000000
_cell_volume 3100.418875
_symmetry_space_group_name_H-M "C M M M"
_symmetry_group_IT_number 65
_symmetry_cell_setting 'orthorhombic'
loop_
_space_group_symop_operation_xyz
x,y,z
-x,-y,z
x,-y,-z
-x,y,-z
-x,-y,-z
x,y,-z
-x,y,z
x,-y,z
1/2+x,1/2+y,z
1/2-x,1/2-y,z
1/2+x,1/2-y,-z
1/2-x,1/2+y,-z
1/2-x,1/2-y,-z
1/2+x,1/2+y,-z
1/2-x,1/2+y,z
1/2+x,1/2-y,z
loop_
_atom_site_type_symbol
_atom_site_label
_atom_site_fract_x
_atom_site_fract_y
_atom_site_fract_z
Si Si1 0.341756 0.303149 0.363690
Si Si2 0.105216 0.500000 0.937094
Si Si3 0.500000 0.701500 0.437612
Si Si4 0.394886 0.681739 0.869048
Si Si5 0.399256 0.806096 0.246688
O O1 0.346736 0.500000 0.359210
O O2 0.250000 0.250000 0.385705
O O3 0.417131 0.245360 0.403447
O O4 0.353372 0.231435 0.303159
O O5 0.133500 0.665167 0.905789
O O6 0.000000 0.500000 0.935888
O O7 0.131454 0.500000 0.000000
O O8 0.500000 0.500000 0.438462
O O9 0.500000 0.757490 0.500000
O O10 0.500000 0.686253 0.868559
O O11 0.368734 0.500000 0.888172
O O12 0.367485 0.709804 0.806448
O O13 0.500000 0.763408 0.254860
O O14 0.394391 0.000000 0.234069
#
# Coordination Sequence:
#
# PCOD9484202 Si02
#       5
#    16   8   8  16  16
#     4  11  22  37  58  87 119 154 199 247 306 364
#     4   9  16  26  38  60 100 144 190 245 296 351
#     4   9  20  40  63  85 117 161 205 246 297 363
#     4   9  16  26  42  66  97 140 192 238 297 365
#     4  10  18  31  53  78 109 146 189 242 304 364
#
# _framework density 20.642371000000001
#
# number of rings (size 3 to 8) (size 9 to 14) (size 15 to 20)
#    0.000    2.250    2.500    1.500    0.000    2.000 
#    0.000    2.500    0.000    5.250    0.000    0.000 
#    0.000    1.000    0.500    0.000    0.000    0.000 
#
# Total GULP energy -178782.627242 kJ/mol
# GULP energy per Si atom -5586.957101 kJ/mol
# Density = 2.059539 g / cm^3
# Si number density = 20.642371 Si / 1000 Ang^3
#
#
#
# Elastic Constant Matrix: (Units=GPa)
#
#
# Indices 1 2 3 4 5 6 
#
# 1 73.9127 21.4589 40.0187 0.0000 0.0000 0.0000
# 2 21.4589 93.5804 52.3899 0.0000 0.0000 0.0000
# 3 40.0187 52.3899 143.8025 0.0000 0.0000 0.0000
# 4 0.0000 0.0000 0.0000 17.6845 0.0000 0.0000
# 5 0.0000 0.0000 0.0000 0.0000 -6.3429 0.0000
# 6 0.0000 0.0000 0.0000 0.0000 0.0000 15.7142
#
#
#
# Elastic Compliance Matrix: (Units=1/GPa)
#
#
# Indices 1 2 3 4 5 6 
#
# 1 0.016093 -0.001486 -0.003937 0.000000 0.000000 0.000000
# 2 -0.001486 0.013561 -0.004527 0.000000 0.000000 0.000000
# 3 -0.003937 -0.004527 0.009699 0.000000 0.000000 0.000000
# 4 0.000000 0.000000 0.000000 0.056547 0.000000 0.000000
# 5 0.000000 0.000000 0.000000 0.000000 -0.157657 0.000000
# 6 0.000000 0.000000 0.000000 0.000000 0.000000 0.063637
#
#
# Mechanical properties :
#
#
# Convention : Reuss Voigt Hill
#
# Bulk Modulus (GPa) = 51.40754 59.89227 55.64991
# Shear Modulus (GPa) = 176.90654 18.57303 97.73979
#
# Velocity S-wave (km/s) = 9.26751 3.00284 6.88853
# Velocity P-wave (km/s) = 11.80989 6.41093 9.50194
#
# Compressibility (1/GPa) = 0.01945240
#
# Stress axis : x y z
#
# Youngs Moduli (GPa) = 62.14059 73.73994 103.10483
#
# Poissons Ratio (x) = 0.10959 0.40592
# Poissons Ratio (y) = 0.09235 0.46676
# Poissons Ratio (z) = 0.24464 0.33382
#
# Static dielectric constant tensor:
#      x y z
#    x 1.742090 0.000000 0.000000 
#    y 0.000000 1.737080 0.000000 
#    z 0.000000 0.000000 1.689820 
# 
# From -- ./inp_files/66764.got.cif
#   From: 2010.05.17/outbox.cif.g08.bks.cpg/sg65_34_cif.got.tgz:66764.got - 2010.06.03 17:01:31.
