data_PCOD9484457
_publ_section_title
;
Structure prediction by ZEFSAII (Michael W. Deem and Ramdas Pophale) SiO2 
 PCOD9484457
Probable space group: C M M M
;
_chemical_formula_sum "Si O2"
_cell_formula_units_Z 88
_cell_length_a 32.431891
_cell_length_b 7.966450
_cell_length_c 17.628073
_cell_angle_alpha 90.000000
_cell_angle_beta 90.000000
_cell_angle_gamma 90.000000
_cell_volume 4554.513008
_symmetry_space_group_name_H-M "C M M M"
_symmetry_group_IT_number 65
_symmetry_cell_setting 'orthorhombic'
loop_
_space_group_symop_operation_xyz
x,y,z
-x,-y,z
x,-y,-z
-x,y,-z
-x,-y,-z
x,y,-z
-x,y,z
x,-y,z
1/2+x,1/2+y,z
1/2-x,1/2-y,z
1/2+x,1/2-y,-z
1/2-x,1/2+y,-z
1/2-x,1/2-y,-z
1/2+x,1/2+y,-z
1/2-x,1/2+y,z
1/2+x,1/2-y,z
loop_
_atom_site_type_symbol
_atom_site_label
_atom_site_fract_x
_atom_site_fract_y
_atom_site_fract_z
Si Si1 0.186837 0.699661 0.417416
Si Si2 0.118264 0.800276 0.797477
Si Si3 0.951509 0.000000 0.415534
Si Si4 0.295063 0.201229 0.752847
Si Si5 0.904819 0.683949 0.365020
Si Si6 0.953766 0.795808 0.912414
O O1 0.200247 0.769430 0.500000
O O2 0.196481 0.500000 0.417933
O O3 0.201891 0.766755 0.335479
O O4 0.137318 0.714339 0.411169
O O5 0.167410 0.771365 0.803523
O O6 0.107666 0.695595 0.722567
O O7 0.085829 0.747399 0.862324
O O8 0.112056 0.000000 0.783965
O O9 0.936193 0.167971 0.377252
O O10 0.933918 0.000000 0.500000
O O11 0.000000 0.000000 0.418113
O O12 0.250000 0.250000 0.781337
O O13 0.299282 0.000000 0.749924
O O14 0.920757 0.500000 0.384779
O O15 0.000000 0.743082 0.885602
O O16 0.954161 0.000000 0.912241
O O17 0.949412 0.742003 0.000000
#
# Coordination Sequence:
#
# PCOD9484457 Si02
#       6
#    16  16   8  16  16  16
#     4   8  15  29  50  72  96 132 174 220 278 337
#     4  10  18  32  56  85 112 147 187 226 273 338
#     4  11  24  38  52  74 103 139 189 243 294 346
#     4  10  20  33  50  73 106 143 186 236 284 336
#     4  10  20  36  55  76 105 142 187 236 283 340
#     4   8  15  29  52  85 120 149 178 218 274 339
#
# _framework density 19.321494000000001
#
# number of rings (size 3 to 8) (size 9 to 14) (size 15 to 20)
#    0.000    2.636    0.909    3.273    0.000    2.545 
#    0.000    0.909    0.000    4.364    0.000    5.091 
#    0.000    0.000    0.000    0.000    0.000    0.000 
#
# Total GULP energy -245143.204226 kJ/mol
# GULP energy per Si atom -5571.436460 kJ/mol
# Density = 1.927752 g / cm^3
# Si number density = 19.321494 Si / 1000 Ang^3
#
#
#
# Elastic Constant Matrix: (Units=GPa)
#
#
# Indices 1 2 3 4 5 6 
#
# 1 135.3208 30.3249 62.6193 0.0000 0.0000 0.0000
# 2 30.3249 63.4841 -1.7083 0.0000 0.0000 0.0000
# 3 62.6193 -1.7083 67.9001 0.0000 0.0000 0.0000
# 4 0.0000 0.0000 0.0000 9.7601 0.0000 0.0000
# 5 0.0000 0.0000 0.0000 0.0000 27.3857 0.0000
# 6 0.0000 0.0000 0.0000 0.0000 0.0000 17.9452
#
#
#
# Elastic Compliance Matrix: (Units=1/GPa)
#
#
# Indices 1 2 3 4 5 6 
#
# 1 0.016252 -0.008172 -0.015194 0.000000 0.000000 0.000000
# 2 -0.008172 0.019872 0.008036 0.000000 0.000000 0.000000
# 3 -0.015194 0.008036 0.028942 0.000000 0.000000 0.000000
# 4 0.000000 0.000000 0.000000 0.102458 0.000000 0.000000
# 5 0.000000 0.000000 0.000000 0.000000 0.036515 0.000000
# 6 0.000000 0.000000 0.000000 0.000000 0.000000 0.055725
#
#
# Mechanical properties :
#
#
# Convention : Reuss Voigt Hill
#
# Bulk Modulus (GPa) = 29.06384 49.90854 39.48619
# Shear Modulus (GPa) = 16.56225 22.71614 19.63919
#
# Velocity S-wave (km/s) = 2.93096 3.43256 3.19163
# Velocity P-wave (km/s) = 5.15063 6.44954 5.83633
#
# Compressibility (1/GPa) = 0.03440701
#
# Stress axis : x y z
#
# Youngs Moduli (GPa) = 61.53107 50.32254 34.55229
#
# Poissons Ratio (x) = 0.41124 0.52497
# Poissons Ratio (y) = 0.50283 -0.27768
# Poissons Ratio (z) = 0.93488 -0.40441
#
# Static dielectric constant tensor:
#      x y z
#    x 1.694370 0.000000 0.000000 
#    y 0.000000 1.671290 0.000000 
#    z 0.000000 0.000000 1.686470 
# 
# From -- ./inp_files/58017.got.cif
#   From: 2010.05.17/outbox.cif.g08.bks.cpg/sg65_30_cif.got.tgz:58017.got - 2010.06.03 17:01:31.
