data_PCOD9484989
_publ_section_title
;
Structure prediction by ZEFSAII (Michael W. Deem and Ramdas Pophale) SiO2 
 PCOD9484989
Probable space group: C M M M
;
_chemical_formula_sum "Si O2"
_cell_formula_units_Z 72
_cell_length_a 28.912000
_cell_length_b 7.364294
_cell_length_c 19.250911
_cell_angle_alpha 90.000000
_cell_angle_beta 90.000000
_cell_angle_gamma 90.000000
_cell_volume 4098.835978
_symmetry_space_group_name_H-M "C M M M"
_symmetry_group_IT_number 65
_symmetry_cell_setting 'orthorhombic'
loop_
_space_group_symop_operation_xyz
x,y,z
-x,-y,z
x,-y,-z
-x,y,-z
-x,-y,-z
x,y,-z
-x,y,z
x,-y,z
1/2+x,1/2+y,z
1/2-x,1/2-y,z
1/2+x,1/2-y,-z
1/2-x,1/2+y,-z
1/2-x,1/2-y,-z
1/2+x,1/2+y,-z
1/2-x,1/2+y,z
1/2+x,1/2-y,z
loop_
_atom_site_type_symbol
_atom_site_label
_atom_site_fract_x
_atom_site_fract_y
_atom_site_fract_z
Si Si1 0.126130 0.298255 0.812446
Si Si2 0.555452 0.500000 0.577894
Si Si3 0.554211 0.219183 0.695803
Si Si4 0.949067 0.781362 0.919365
Si Si5 0.195269 0.717267 0.077333
O O1 0.140470 0.500000 0.788637
O O2 0.093273 0.221151 0.751581
O O3 0.089944 0.308797 0.875262
O O4 0.169149 0.210651 0.853931
O O5 0.500000 0.500000 0.571318
O O6 0.575186 0.500000 0.500000
O O7 0.565820 0.323099 0.624519
O O8 0.500000 0.264815 0.714112
O O9 0.555946 0.000000 0.690181
O O10 0.000000 0.729973 0.893928
O O11 0.944913 0.000000 0.913790
O O12 0.945808 0.734873 0.000000
O O13 0.187679 0.500000 0.077242
O O14 0.250000 0.750000 0.081734
O O15 0.179888 0.784274 0.000000
#
# Coordination Sequence:
#
# PCOD9484989 Si02
#       5
#    16   8  16  16  16
#     4  10  19  30  45  64  87 118 152 194 238 286
#     4   9  18  32  50  72  99 133 165 189 222 276
#     4   9  18  31  47  71 101 130 159 194 236 281
#     4   9  18  29  39  56  83 115 153 192 227 267
#     4   9  18  32  47  63  86 118 157 201 245 288
#
# _framework density 17.565961999999999
#
# number of rings (size 3 to 8) (size 9 to 14) (size 15 to 20)
#    0.000    2.778    0.000    2.000    1.556    4.000 
#    0.000    5.556    0.000    0.000    0.000    0.000 
#    0.000    0.889    0.444    0.000    0.000    0.000 
#
# Total GULP energy -200406.856749 kJ/mol
# GULP energy per Si atom -5566.857132 kJ/mol
# Density = 1.752598 g / cm^3
# Si number density = 17.565962 Si / 1000 Ang^3
#
#
#
# Elastic Constant Matrix: (Units=GPa)
#
#
# Indices 1 2 3 4 5 6 
#
# 1 65.5243 9.3606 51.4611 0.0000 0.0000 0.0000
# 2 9.3606 66.0411 22.5279 0.0000 0.0000 0.0000
# 3 51.4611 22.5279 112.9502 0.0000 0.0000 0.0000
# 4 0.0000 0.0000 0.0000 14.8298 0.0000 0.0000
# 5 0.0000 0.0000 0.0000 0.0000 33.0516 0.0000
# 6 0.0000 0.0000 0.0000 0.0000 0.0000 6.7102
#
#
#
# Elastic Compliance Matrix: (Units=1/GPa)
#
#
# Indices 1 2 3 4 5 6 
#
# 1 0.023773 0.000349 -0.010901 0.000000 0.000000 0.000000
# 2 0.000349 0.016253 -0.003401 0.000000 0.000000 0.000000
# 3 -0.010901 -0.003401 0.014498 0.000000 0.000000 0.000000
# 4 0.000000 0.000000 0.000000 0.067432 0.000000 0.000000
# 5 0.000000 0.000000 0.000000 0.000000 0.030256 0.000000
# 6 0.000000 0.000000 0.000000 0.000000 0.000000 0.149027
#
#
# Mechanical properties :
#
#
# Convention : Reuss Voigt Hill
#
# Bulk Modulus (GPa) = 37.56730 45.69054 41.62892
# Shear Modulus (GPa) = 14.79224 21.66273 18.22749
#
# Velocity S-wave (km/s) = 2.90504 3.51554 3.22477
# Velocity P-wave (km/s) = 5.71710 6.52273 6.13315
#
# Compressibility (1/GPa) = 0.02661889
#
# Stress axis : x y z
#
# Youngs Moduli (GPa) = 42.06497 61.52852 68.97445
#
# Poissons Ratio (x) = -0.02147 0.75187
# Poissons Ratio (y) = -0.01468 0.23455
# Poissons Ratio (z) = 0.45854 0.20923
#
# Static dielectric constant tensor:
#      x y z
#    x 1.625260 0.000000 0.000000 
#    y 0.000000 1.676910 0.000000 
#    z 0.000000 0.000000 1.613110 
# 
# From -- ./inp_files/36988.got.cif
#   From: 2010.05.17/outbox.cif.g08.bks.cpg/sg65_19_cif.got.tgz:36988.got - 2010.06.03 17:01:31.
