data_PCOD9484284
_publ_section_title
;
Structure prediction by ZEFSAII (Michael W. Deem and Ramdas Pophale) SiO2 
 PCOD9484284
Probable space group: C M M M
;
_chemical_formula_sum "Si O2"
_cell_formula_units_Z 96
_cell_length_a 28.666472
_cell_length_b 8.120540
_cell_length_c 25.972111
_cell_angle_alpha 90.000000
_cell_angle_beta 90.000000
_cell_angle_gamma 90.000000
_cell_volume 6045.975843
_symmetry_space_group_name_H-M "C M M M"
_symmetry_group_IT_number 65
_symmetry_cell_setting 'orthorhombic'
loop_
_space_group_symop_operation_xyz
x,y,z
-x,-y,z
x,-y,-z
-x,y,-z
-x,-y,-z
x,y,-z
-x,y,z
x,-y,z
1/2+x,1/2+y,z
1/2-x,1/2-y,z
1/2+x,1/2-y,-z
1/2-x,1/2+y,-z
1/2-x,1/2-y,-z
1/2+x,1/2+y,-z
1/2-x,1/2+y,z
1/2+x,1/2-y,z
loop_
_atom_site_type_symbol
_atom_site_label
_atom_site_fract_x
_atom_site_fract_y
_atom_site_fract_z
Si Si1 0.555286 0.799979 0.556761
Si Si2 0.695852 0.804449 0.500000
Si Si3 0.106141 0.303907 0.340825
Si Si4 0.196319 0.194021 0.388094
Si Si5 0.556913 0.000000 0.940442
Si Si6 0.445067 0.801085 0.238543
Si Si7 0.443291 0.316112 0.125296
O O1 0.571376 0.741640 0.500000
O O2 0.500000 0.766704 0.560764
O O3 0.580930 0.736548 0.607689
O O4 0.560595 0.000000 0.556217
O O5 0.750000 0.750000 0.500000
O O6 0.678067 0.741543 0.445338
O O7 0.692188 0.000000 0.500000
O O8 0.097866 0.500000 0.340655
O O9 0.160849 0.272190 0.347717
O O10 0.084061 0.242118 0.287780
O O11 0.250000 0.250000 0.383519
O O12 0.195220 0.000000 0.383229
O O13 0.572257 0.165356 0.910721
O O14 0.500000 0.000000 0.939248
O O15 0.571077 0.000000 0.000000
O O16 0.500000 0.767524 0.247320
O O17 0.430722 0.720935 0.184552
O O18 0.440511 0.000000 0.233131
O O19 0.500000 0.314539 0.123768
O O20 0.428071 0.500000 0.109963
#
# Coordination Sequence:
#
# PCOD9484284 Si02
#       7
#    16   8  16  16   8  16  16
#     4   8  14  25  41  63  89 113 140 176 219 269
#     4  10  18  32  52  68  81 100 129 164 214 271
#     4  10  19  29  46  70  89 113 149 186 224 274
#     4  11  22  36  50  66  88 111 138 178 225 279
#     4   9  16  26  40  60  88 120 157 197 235 275
#     4   9  16  28  45  64  91 123 157 196 231 269
#     4   9  16  26  41  60  85 119 157 198 239 271
#
# _framework density 15.87833
#
# number of rings (size 3 to 8) (size 9 to 14) (size 15 to 20)
#    0.000    2.583    0.833    4.250    1.167    3.000 
#    0.000    1.667    0.000    1.500    0.000    1.167 
#    0.000    0.000    0.000    0.000    0.000    0.833 
#
# Total GULP energy -267564.449770 kJ/mol
# GULP energy per Si atom -5574.259370 kJ/mol
# Density = 1.584219 g / cm^3
# Si number density = 15.878330 Si / 1000 Ang^3
#
#
#
# Elastic Constant Matrix: (Units=GPa)
#
#
# Indices 1 2 3 4 5 6 
#
# 1 32.6133 3.5202 37.4427 0.0000 0.0000 0.0000
# 2 3.5202 54.2677 48.2766 0.0000 0.0000 0.0000
# 3 37.4427 48.2766 124.7445 0.0000 0.0000 0.0000
# 4 0.0000 0.0000 0.0000 7.9341 0.0000 0.0000
# 5 0.0000 0.0000 0.0000 0.0000 9.9667 0.0000
# 6 0.0000 0.0000 0.0000 0.0000 0.0000 9.9694
#
#
#
# Elastic Compliance Matrix: (Units=1/GPa)
#
#
# Indices 1 2 3 4 5 6 
#
# 1 0.055578 0.017134 -0.023313 0.000000 0.000000 0.000000
# 2 0.017134 0.033384 -0.018063 0.000000 0.000000 0.000000
# 3 -0.023313 -0.018063 0.022004 0.000000 0.000000 0.000000
# 4 0.000000 0.000000 0.000000 0.126038 0.000000 0.000000
# 5 0.000000 0.000000 0.000000 0.000000 0.100334 0.000000
# 6 0.000000 0.000000 0.000000 0.000000 0.000000 0.100307
#
#
# Mechanical properties :
#
#
# Convention : Reuss Voigt Hill
#
# Bulk Modulus (GPa) = 16.00426 43.34496 29.67461
# Shear Modulus (GPa) = 9.86278 13.73312 11.79795
#
# Velocity S-wave (km/s) = 2.49499 2.94410 2.72880
# Velocity P-wave (km/s) = 4.28965 6.23814 5.35330
#
# Compressibility (1/GPa) = 0.06248338
#
# Stress axis : x y z
#
# Youngs Moduli (GPa) = 17.99268 29.95414 45.44568
#
# Poissons Ratio (x) = -0.51324 1.05948
# Poissons Ratio (y) = -0.30829 0.82088
# Poissons Ratio (z) = 0.41946 0.54105
#
# Static dielectric constant tensor:
#      x y z
#    x 1.490390 0.000000 0.000000 
#    y 0.000000 1.568880 0.000000 
#    z 0.000000 0.000000 1.533880 
# 
# From -- ./inp_files/71743.got.cif
#   From: 2010.05.17/outbox.cif.g08.bks.cpg/sg65_36_cif.got.tgz:71743.got - 2010.06.03 17:01:31.
