data_PCOD9484817
_publ_section_title
;
Structure prediction by ZEFSAII (Michael W. Deem and Ramdas Pophale) SiO2 
 PCOD9484817
Probable space group: C M M M
;
_chemical_formula_sum "Si O2"
_cell_formula_units_Z 80
_cell_length_a 24.752995
_cell_length_b 24.041409
_cell_length_c 9.062981
_cell_angle_alpha 90.000000
_cell_angle_beta 90.000000
_cell_angle_gamma 90.000000
_cell_volume 5393.351687
_symmetry_space_group_name_H-M "C M M M"
_symmetry_group_IT_number 65
_symmetry_cell_setting 'orthorhombic'
loop_
_space_group_symop_operation_xyz
x,y,z
-x,-y,z
x,-y,-z
-x,y,-z
-x,-y,-z
x,y,-z
-x,y,z
x,-y,z
1/2+x,1/2+y,z
1/2-x,1/2-y,z
1/2+x,1/2-y,-z
1/2-x,1/2+y,-z
1/2-x,1/2-y,-z
1/2+x,1/2+y,-z
1/2-x,1/2+y,z
1/2+x,1/2-y,z
loop_
_atom_site_type_symbol
_atom_site_label
_atom_site_fract_x
_atom_site_fract_y
_atom_site_fract_z
Si Si1 0.938647 0.763405 0.325008
Si Si2 0.664579 0.563770 0.675693
Si Si3 0.835633 0.274191 0.176319
Si Si4 0.769598 0.160701 0.176611
Si Si5 0.938240 0.884696 0.824310
O O1 0.931667 0.771469 0.500000
O O2 0.891885 0.724529 0.261162
O O3 0.933480 0.822946 0.243917
O O4 0.000000 0.743388 0.298727
O O5 0.660145 0.570945 0.500000
O O6 0.679554 0.500000 0.707151
O O7 0.707045 0.607738 0.740555
O O8 0.606977 0.577657 0.749633
O O9 0.807366 0.214444 0.207565
O O10 0.791148 0.320526 0.216068
O O11 0.844274 0.276690 0.000000
O O12 0.771632 0.151844 0.000000
O O13 0.000000 0.903753 0.798515
O O14 0.929216 0.881711 0.000000
#
# Coordination Sequence:
#
# PCOD9484817 Si02
#       5
#    16  16  16  16  16
#     4  10  19  29  44  69  98 124 151 185 227 274
#     4  11  23  35  47  66  92 120 154 196 236 274
#     4   9  17  30  49  71  93 117 150 191 229 272
#     4   9  18  32  49  69  91 117 153 192 230 273
#     4  10  20  33  48  64  85 118 160 200 234 269
#
# _framework density 14.833076999999999
#
# number of rings (size 3 to 8) (size 9 to 14) (size 15 to 20)
#    0.000    2.200    2.000    3.000    0.000    5.200 
#    0.000    4.000    0.000    0.000    0.000    0.000 
#    0.000    0.800    0.000    8.800    0.000    6.400 
#
# Total GULP energy -223120.328952 kJ/mol
# GULP energy per Si atom -5578.008224 kJ/mol
# Density = 1.479932 g / cm^3
# Si number density = 14.833077 Si / 1000 Ang^3
#
#
#
# Elastic Constant Matrix: (Units=GPa)
#
#
# Indices 1 2 3 4 5 6 
#
# 1 111.8950 64.7414 61.9605 0.0000 0.0000 0.0000
# 2 64.7414 79.6828 50.8082 0.0000 0.0000 0.0000
# 3 61.9605 50.8082 61.2514 0.0000 0.0000 0.0000
# 4 0.0000 0.0000 0.0000 28.5743 0.0000 0.0000
# 5 0.0000 0.0000 0.0000 0.0000 24.6257 0.0000
# 6 0.0000 0.0000 0.0000 0.0000 0.0000 19.8092
#
#
#
# Elastic Compliance Matrix: (Units=1/GPa)
#
#
# Indices 1 2 3 4 5 6 
#
# 1 0.022486 -0.007994 -0.016115 0.000000 0.000000 0.000000
# 2 -0.007994 0.029482 -0.016369 0.000000 0.000000 0.000000
# 3 -0.016115 -0.016369 0.046206 0.000000 0.000000 0.000000
# 4 0.000000 0.000000 0.000000 0.034996 0.000000 0.000000
# 5 0.000000 0.000000 0.000000 0.000000 0.040608 0.000000
# 6 0.000000 0.000000 0.000000 0.000000 0.000000 0.050482
#
#
# Mechanical properties :
#
#
# Convention : Reuss Voigt Hill
#
# Bulk Modulus (GPa) = 58.07960 67.53881 62.80920
# Shear Modulus (GPa) = 16.07952 19.62311 17.85132
#
# Velocity S-wave (km/s) = 3.29604 3.64116 3.47288
# Velocity P-wave (km/s) = 7.32977 7.95668 7.64965
#
# Compressibility (1/GPa) = 0.01721775
#
# Stress axis : x y z
#
# Youngs Moduli (GPa) = 44.47292 33.91883 21.64236
#
# Poissons Ratio (x) = 0.27115 0.34876
# Poissons Ratio (y) = 0.35552 0.35426
# Poissons Ratio (z) = 0.71668 0.55522
#
# Static dielectric constant tensor:
#      x y z
#    x 1.509640 0.000000 0.000000 
#    y 0.000000 1.463650 0.000000 
#    z 0.000000 0.000000 1.490500 
# 
# From -- ./inp_files/9606.got.cif
#   From: 2010.05.17/outbox.cif.g08.bks.cpg/sg65_5_cif.got.tgz:9606.got - 2010.06.03 17:01:31.
