data_PCOD9484856
_publ_section_title
;
Structure prediction by ZEFSAII (Michael W. Deem and Ramdas Pophale) SiO2 
 PCOD9484856
Probable space group: C M M M
;
_chemical_formula_sum "Si O2"
_cell_formula_units_Z 80
_cell_length_a 8.223342
_cell_length_b 29.275396
_cell_length_c 19.133883
_cell_angle_alpha 90.000000
_cell_angle_beta 90.000000
_cell_angle_gamma 90.000000
_cell_volume 4606.321483
_symmetry_space_group_name_H-M "C M M M"
_symmetry_group_IT_number 65
_symmetry_cell_setting 'orthorhombic'
loop_
_space_group_symop_operation_xyz
x,y,z
-x,-y,z
x,-y,-z
-x,y,-z
-x,-y,-z
x,y,-z
-x,y,z
x,-y,z
1/2+x,1/2+y,z
1/2-x,1/2-y,z
1/2+x,1/2-y,-z
1/2-x,1/2+y,-z
1/2-x,1/2-y,-z
1/2+x,1/2+y,-z
1/2-x,1/2+y,z
1/2+x,1/2-y,z
loop_
_atom_site_type_symbol
_atom_site_label
_atom_site_fract_x
_atom_site_fract_y
_atom_site_fract_z
Si Si1 0.196221 0.302069 0.653592
Si Si2 0.193626 0.052362 0.851065
Si Si3 0.302149 0.946302 0.422729
Si Si4 0.195795 0.697225 0.500000
Si Si5 0.193790 0.552580 0.000000
Si Si6 0.303348 0.106854 0.284359
O O1 0.250000 0.250000 0.664979
O O2 0.251217 0.319188 0.576104
O O3 0.249711 0.340411 0.708253
O O4 0.000000 0.301418 0.652555
O O5 0.248605 0.081861 0.785403
O O6 0.000000 0.050099 0.851178
O O7 0.258407 0.000000 0.844628
O O8 0.248603 0.072046 0.926051
O O9 0.248282 0.929862 0.500000
O O10 0.500000 0.943239 0.423070
O O11 0.245585 0.919662 0.354200
O O12 0.261040 0.000000 0.416975
O O13 0.250000 0.750000 0.500000
O O14 0.000000 0.693080 0.500000
O O15 0.256870 0.500000 0.000000
O O16 0.000000 0.551859 0.000000
O O17 0.500000 0.105948 0.285528
#
# Coordination Sequence:
#
# PCOD9484856 Si02
#       6
#    16  16  16   8   8  16
#     4   9  18  30  45  65  90 121 158 204 254 298
#     4  10  20  33  49  72 103 134 160 189 232 286
#     4   8  14  24  39  61  88 118 155 200 243 278
#     4   8  14  26  42  60  83 112 149 197 250 295
#     4   9  17  31  53  77 100 127 158 193 231 273
#     4  10  19  29  46  70  94 123 163 206 245 284
#
# _framework density 17.367436999999999
#
# number of rings (size 3 to 8) (size 9 to 14) (size 15 to 20)
#    0.000    2.900    0.000    2.100    1.400    4.000 
#    0.000    0.000    0.000    0.600    0.000    3.500 
#    0.000    0.000    0.000    0.000    0.000    0.000 
#
# Total GULP energy -222807.937566 kJ/mol
# GULP energy per Si atom -5570.198439 kJ/mol
# Density = 1.732791 g / cm^3
# Si number density = 17.367437 Si / 1000 Ang^3
#
#
#
# Elastic Constant Matrix: (Units=GPa)
#
#
# Indices 1 2 3 4 5 6 
#
# 1 15.3140 15.8829 22.0872 0.0000 0.0000 0.0000
# 2 15.8829 84.4289 82.7885 0.0000 0.0000 0.0000
# 3 22.0872 82.7885 168.5101 0.0000 0.0000 0.0000
# 4 0.0000 0.0000 0.0000 15.0719 0.0000 0.0000
# 5 0.0000 0.0000 0.0000 0.0000 5.1724 0.0000
# 6 0.0000 0.0000 0.0000 0.0000 0.0000 13.4311
#
#
#
# Elastic Compliance Matrix: (Units=1/GPa)
#
#
# Indices 1 2 3 4 5 6 
#
# 1 0.084457 -0.009712 -0.006299 0.000000 0.000000 0.000000
# 2 -0.009712 0.023971 -0.010504 0.000000 0.000000 0.000000
# 3 -0.006299 -0.010504 0.011921 0.000000 0.000000 0.000000
# 4 0.000000 0.000000 0.000000 0.066349 0.000000 0.000000
# 5 0.000000 0.000000 0.000000 0.000000 0.193335 0.000000
# 6 0.000000 0.000000 0.000000 0.000000 0.000000 0.074454
#
#
# Mechanical properties :
#
#
# Convention : Reuss Voigt Hill
#
# Bulk Modulus (GPa) = 14.85457 56.64115 35.74786
# Shear Modulus (GPa) = 9.43476 16.56803 13.00140
#
# Velocity S-wave (km/s) = 2.33329 3.09199 2.73904
# Velocity P-wave (km/s) = 3.97878 6.74029 5.53453
#
# Compressibility (1/GPa) = 0.06731936
#
# Stress axis : x y z
#
# Youngs Moduli (GPa) = 11.84039 41.71667 83.88883
#
# Poissons Ratio (x) = 0.40515 0.52838
# Poissons Ratio (y) = 0.11499 0.88117
# Poissons Ratio (z) = 0.07458 0.43819
#
# Static dielectric constant tensor:
#      x y z
#    x 1.611560 0.000000 0.000000 
#    y 0.000000 1.599040 0.000000 
#    z 0.000000 0.000000 1.602810 
# 
# From -- ./inp_files/49933.got.cif
#   From: 2010.05.17/outbox.cif.g08.bks.cpg/sg65_25_cif.got.tgz:49933.got - 2010.06.03 17:01:31.
