data_PCOD9484368
_publ_section_title
;
Structure prediction by ZEFSAII (Michael W. Deem and Ramdas Pophale) SiO2 
 PCOD9484368
Probable space group: C M M M
;
_chemical_formula_sum "Si O2"
_cell_formula_units_Z 68
_cell_length_a 24.640347
_cell_length_b 8.724104
_cell_length_c 17.711170
_cell_angle_alpha 90.000000
_cell_angle_beta 90.000000
_cell_angle_gamma 90.000000
_cell_volume 3807.280770
_symmetry_space_group_name_H-M "C M M M"
_symmetry_group_IT_number 65
_symmetry_cell_setting 'orthorhombic'
loop_
_space_group_symop_operation_xyz
x,y,z
-x,-y,z
x,-y,-z
-x,y,-z
-x,-y,-z
x,y,-z
-x,y,z
x,-y,z
1/2+x,1/2+y,z
1/2-x,1/2-y,z
1/2+x,1/2-y,-z
1/2-x,1/2+y,-z
1/2-x,1/2-y,-z
1/2+x,1/2+y,-z
1/2-x,1/2+y,z
1/2+x,1/2-y,z
loop_
_atom_site_type_symbol
_atom_site_label
_atom_site_fract_x
_atom_site_fract_y
_atom_site_fract_z
Si Si1 0.124705 0.677271 0.000000
Si Si2 0.000000 0.174120 0.825494
Si Si3 0.500000 0.742845 0.000000
Si Si4 0.563059 0.313744 0.583758
Si Si5 0.810030 0.684441 0.855239
Si Si6 0.891877 0.186104 0.742684
O O1 0.151923 0.742844 0.924523
O O2 0.059619 0.681536 0.000000
O O3 0.140529 0.500000 0.000000
O O4 0.000000 0.169226 0.916236
O O5 0.055524 0.240935 0.791598
O O6 0.000000 0.000000 0.796383
O O7 0.580495 0.262545 0.500000
O O8 0.500000 0.268644 0.594641
O O9 0.563477 0.500000 0.583337
O O10 0.597445 0.267013 0.656276
O O11 0.808498 0.500000 0.854674
O O12 0.750000 0.750000 0.864590
O O13 0.838734 0.743785 0.779755
O O14 0.888602 0.000000 0.746949
#
# Coordination Sequence:
#
# PCOD9484368 Si02
#       6
#     8   8   4  16  16  16
#     4  10  22  36  54  76 104 136 171 214 262 312
#     4  10  19  29  46  76 110 142 175 210 256 306
#     4  12  18  34  50  76 112 140 170 204 258 316
#     4   8  13  23  45  78 112 141 169 205 252 308
#     4  11  23  40  56  75  99 136 182 224 265 306
#     4  10  18  32  53  79 109 140 174 216 257 306
#
# _framework density 17.860516000000001
#
# number of rings (size 3 to 8) (size 9 to 14) (size 15 to 20)
#    0.000    2.118    3.529    2.118    0.000    0.000 
#    0.000    2.353    0.000    1.412    0.000    1.647 
#    0.000    0.000    0.000    0.000    0.000    0.000 
#
# Total GULP energy -189345.879201 kJ/mol
# GULP energy per Si atom -5568.996447 kJ/mol
# Density = 1.781987 g / cm^3
# Si number density = 17.860516 Si / 1000 Ang^3
#
#
#
# Elastic Constant Matrix: (Units=GPa)
#
#
# Indices 1 2 3 4 5 6 
#
# 1 106.9052 18.2250 61.7468 0.0000 0.0000 0.0000
# 2 18.2250 23.3068 23.3451 0.0000 0.0000 0.0000
# 3 61.7468 23.3451 148.8778 0.0000 0.0000 0.0000
# 4 0.0000 0.0000 0.0000 31.7910 0.0000 0.0000
# 5 0.0000 0.0000 0.0000 0.0000 16.7111 0.0000
# 6 0.0000 0.0000 0.0000 0.0000 0.0000 1.0683
#
#
#
# Elastic Compliance Matrix: (Units=1/GPa)
#
#
# Indices 1 2 3 4 5 6 
#
# 1 0.012890 -0.005605 -0.004467 0.000000 0.000000 0.000000
# 2 -0.005605 0.053338 -0.006039 0.000000 0.000000 0.000000
# 3 -0.004467 -0.006039 0.009517 0.000000 0.000000 0.000000
# 4 0.000000 0.000000 0.000000 0.031455 0.000000 0.000000
# 5 0.000000 0.000000 0.000000 0.000000 0.059841 0.000000
# 6 0.000000 0.000000 0.000000 0.000000 0.000000 0.936050
#
#
# Mechanical properties :
#
#
# Convention : Reuss Voigt Hill
#
# Bulk Modulus (GPa) = 22.97691 53.96930 38.47311
# Shear Modulus (GPa) = 4.34851 21.63227 12.99039
#
# Velocity S-wave (km/s) = 1.56205 3.48397 2.69982
# Velocity P-wave (km/s) = 4.01819 6.81666 5.59521
#
# Compressibility (1/GPa) = 0.04352194
#
# Stress axis : x y z
#
# Youngs Moduli (GPa) = 77.58123 18.74845 105.07923
#
# Poissons Ratio (x) = 0.10508 0.46940
# Poissons Ratio (y) = 0.43483 0.63459
# Poissons Ratio (z) = 0.34656 0.11322
#
# Static dielectric constant tensor:
#      x y z
#    x 1.594190 0.000000 0.000000 
#    y 0.000000 1.627240 0.000000 
#    z 0.000000 0.000000 1.644300 
# 
# From -- ./inp_files/57187.got.cif
#   From: 2010.05.17/outbox.cif.g08.bks.cpg/sg65_29_cif.got.tgz:57187.got - 2010.06.03 17:01:31.
