data_PCOD9484957
_publ_section_title
;
Structure prediction by ZEFSAII (Michael W. Deem and Ramdas Pophale) SiO2 
 PCOD9484957
Probable space group: C M M M
;
_chemical_formula_sum "Si O2"
_cell_formula_units_Z 104
_cell_length_a 8.848621
_cell_length_b 27.808411
_cell_length_c 27.309274
_cell_angle_alpha 90.000000
_cell_angle_beta 90.000000
_cell_angle_gamma 90.000000
_cell_volume 6719.886262
_symmetry_space_group_name_H-M "C M M M"
_symmetry_group_IT_number 65
_symmetry_cell_setting 'orthorhombic'
loop_
_space_group_symop_operation_xyz
x,y,z
-x,-y,z
x,-y,-z
-x,y,-z
-x,-y,-z
x,y,-z
-x,y,z
x,-y,z
1/2+x,1/2+y,z
1/2-x,1/2-y,z
1/2+x,1/2-y,-z
1/2-x,1/2+y,-z
1/2-x,1/2-y,-z
1/2+x,1/2+y,-z
1/2-x,1/2+y,z
1/2+x,1/2-y,z
loop_
_atom_site_type_symbol
_atom_site_label
_atom_site_fract_x
_atom_site_fract_y
_atom_site_fract_z
Si Si1 0.682035 0.801457 0.654885
Si Si2 0.317916 0.054385 0.391479
Si Si3 0.816807 0.349583 0.554175
Si Si4 0.819881 0.104618 0.701693
Si Si5 0.825098 0.558614 0.000000
Si Si6 0.673783 0.441547 0.101286
Si Si7 0.320885 0.057320 0.203670
O O1 0.500000 0.801033 0.657083
O O2 0.750000 0.750000 0.667715
O O3 0.729591 0.815681 0.599147
O O4 0.745502 0.844137 0.688567
O O5 0.500000 0.057224 0.384680
O O6 0.276247 0.095887 0.430155
O O7 0.240546 0.068523 0.340405
O O8 0.280469 0.000000 0.406190
O O9 0.759807 0.337410 0.500000
O O10 0.000000 0.347769 0.552762
O O11 0.765954 0.085247 0.753928
O O12 0.000000 0.107888 0.699338
O O13 0.744825 0.574762 0.950065
O O14 0.819890 0.500000 0.000000
O O15 0.000000 0.572576 0.000000
O O16 0.500000 0.426416 0.105484
O O17 0.676035 0.500000 0.100024
O O18 0.766271 0.427705 0.149588
O O19 0.500000 0.064530 0.208738
O O20 0.290867 0.000000 0.208743
#
# Coordination Sequence:
#
# PCOD9484957 Si02
#       7
#    16  16  16  16   8  16  16
#     4  10  20  35  53  71  90 112 140 175 218 268
#     4   9  17  29  45  65  90 120 151 182 217 257
#     4   8  15  28  46  69  94 117 143 176 213 257
#     4  11  21  32  47  66  88 115 147 183 222 265
#     4   9  15  23  35  51  75 111 154 195 232 267
#     4   9  16  25  37  55  80 112 152 194 231 266
#     4  10  19  30  44  63  89 120 153 189 228 268
#
# _framework density 15.476452
#
# number of rings (size 3 to 8) (size 9 to 14) (size 15 to 20)
#    0.000    2.538    0.000    4.385    0.000    6.462 
#    0.000    1.538    0.000   11.077    0.000    4.308 
#    0.000    0.000    0.000    0.692    0.000    9.769 
#
# Total GULP energy -289879.565489 kJ/mol
# GULP energy per Si atom -5574.607029 kJ/mol
# Density = 1.544123 g / cm^3
# Si number density = 15.476452 Si / 1000 Ang^3
#
#
#
# Elastic Constant Matrix: (Units=GPa)
#
#
# Indices 1 2 3 4 5 6 
#
# 1 62.8980 22.8487 27.9234 0.0000 0.0000 0.0000
# 2 22.8487 45.1974 8.1174 0.0000 0.0000 0.0000
# 3 27.9234 8.1174 85.3299 0.0000 0.0000 0.0000
# 4 0.0000 0.0000 0.0000 7.5363 0.0000 0.0000
# 5 0.0000 0.0000 0.0000 0.0000 2.0435 0.0000
# 6 0.0000 0.0000 0.0000 0.0000 0.0000 17.1261
#
#
#
# Elastic Compliance Matrix: (Units=1/GPa)
#
#
# Indices 1 2 3 4 5 6 
#
# 1 0.022430 -0.010195 -0.006370 0.000000 0.000000 0.000000
# 2 -0.010195 0.027144 0.000754 0.000000 0.000000 0.000000
# 3 -0.006370 0.000754 0.013732 0.000000 0.000000 0.000000
# 4 0.000000 0.000000 0.000000 0.132691 0.000000 0.000000
# 5 0.000000 0.000000 0.000000 0.000000 0.489355 0.000000
# 6 0.000000 0.000000 0.000000 0.000000 0.000000 0.058390
#
#
# Mechanical properties :
#
#
# Convention : Reuss Voigt Hill
#
# Bulk Modulus (GPa) = 31.56214 34.57824 33.07019
# Shear Modulus (GPa) = 6.36192 14.31024 10.33608
#
# Velocity S-wave (km/s) = 2.02969 3.04410 2.58710
# Velocity P-wave (km/s) = 5.09223 5.89460 5.50805
#
# Compressibility (1/GPa) = 0.03168353
#
# Stress axis : x y z
#
# Youngs Moduli (GPa) = 44.58246 36.84097 72.82209
#
# Poissons Ratio (x) = 0.37560 0.46390
# Poissons Ratio (y) = 0.45452 -0.05491
# Poissons Ratio (z) = 0.28400 -0.02778
#
# Static dielectric constant tensor:
#      x y z
#    x 1.516250 0.000000 0.000000 
#    y 0.000000 1.494440 0.000000 
#    z 0.000000 0.000000 1.515010 
# 
# From -- ./inp_files/73793.got.cif
#   From: 2010.05.17/outbox.cif.g08.bks.cpg/sg65_37_cif.got.tgz:73793.got - 2010.06.03 17:01:31.
