data_PCOD9484535
_publ_section_title
;
Structure prediction by ZEFSAII (Michael W. Deem and Ramdas Pophale) SiO2 
 PCOD9484535
Probable space group: C M M M
;
_chemical_formula_sum "Si O2"
_cell_formula_units_Z 88
_cell_length_a 9.596811
_cell_length_b 27.345132
_cell_length_c 19.234144
_cell_angle_alpha 90.000000
_cell_angle_beta 90.000000
_cell_angle_gamma 90.000000
_cell_volume 5047.540696
_symmetry_space_group_name_H-M "C M M M"
_symmetry_group_IT_number 65
_symmetry_cell_setting 'orthorhombic'
loop_
_space_group_symop_operation_xyz
x,y,z
-x,-y,z
x,-y,-z
-x,y,-z
-x,-y,-z
x,y,-z
-x,y,z
x,-y,z
1/2+x,1/2+y,z
1/2-x,1/2-y,z
1/2+x,1/2-y,-z
1/2-x,1/2+y,-z
1/2-x,1/2-y,-z
1/2+x,1/2+y,-z
1/2-x,1/2+y,z
1/2+x,1/2-y,z
loop_
_atom_site_type_symbol
_atom_site_label
_atom_site_fract_x
_atom_site_fract_y
_atom_site_fract_z
Si Si1 0.336258 0.399942 0.417668
Si Si2 0.160012 0.442684 0.300936
Si Si3 0.831059 0.000000 0.920869
Si Si4 0.663484 0.296566 0.346472
Si Si5 0.167938 0.906049 0.828705
Si Si6 0.335241 0.702454 0.180658
O O1 0.316513 0.402900 0.500000
O O2 0.500000 0.410237 0.402479
O O3 0.235465 0.434611 0.374277
O O4 0.306057 0.345486 0.389074
O O5 0.159969 0.500000 0.283951
O O6 0.251275 0.415961 0.242655
O O7 0.000000 0.425276 0.302050
O O8 0.792465 0.049830 0.880515
O O9 0.000000 0.000000 0.922624
O O10 0.779843 0.000000 0.000000
O O11 0.500000 0.286308 0.353838
O O12 0.750000 0.250000 0.370576
O O13 0.690439 0.303595 0.263916
O O14 0.199310 0.850457 0.852232
O O15 0.000000 0.908256 0.816953
O O16 0.500000 0.711225 0.171472
O O17 0.250000 0.750000 0.157123
#
# Coordination Sequence:
#
# PCOD9484535 Si02
#       6
#    16  16   8  16  16  16
#     4  10  21  37  54  71  96 134 179 223 268 322
#     4  11  23  36  52  76 104 133 173 220 269 322
#     4   9  18  32  57  93 120 139 172 221 267 306
#     4   9  17  30  47  70  99 128 168 216 265 316
#     4  10  18  33  58  82 109 144 180 217 262 316
#     4   9  17  29  48  76 105 138 177 221 266 310
#
# _framework density 17.434232000000002
#
# number of rings (size 3 to 8) (size 9 to 14) (size 15 to 20)
#    0.000    2.273    2.727    0.545    0.000    3.636 
#    0.000    1.818    0.000    1.636    0.000    0.000 
#    0.000    0.000    0.000    0.000    0.000    0.000 
#
# Total GULP energy -245285.964049 kJ/mol
# GULP energy per Si atom -5574.681001 kJ/mol
# Density = 1.739455 g / cm^3
# Si number density = 17.434232 Si / 1000 Ang^3
#
#
#
# Elastic Constant Matrix: (Units=GPa)
#
#
# Indices 1 2 3 4 5 6 
#
# 1 37.9588 52.2109 25.7633 0.0000 0.0000 0.0000
# 2 52.2109 124.8443 36.5414 0.0000 0.0000 0.0000
# 3 25.7633 36.5414 49.3978 0.0000 0.0000 0.0000
# 4 0.0000 0.0000 0.0000 12.9436 0.0000 0.0000
# 5 0.0000 0.0000 0.0000 0.0000 6.0879 0.0000
# 6 0.0000 0.0000 0.0000 0.0000 0.0000 30.6361
#
#
#
# Elastic Compliance Matrix: (Units=1/GPa)
#
#
# Indices 1 2 3 4 5 6 
#
# 1 0.075272 -0.025513 -0.020385 0.000000 0.000000 0.000000
# 2 -0.025513 0.018871 -0.000653 0.000000 0.000000 0.000000
# 3 -0.020385 -0.000653 0.031359 0.000000 0.000000 0.000000
# 4 0.000000 0.000000 0.000000 0.077258 0.000000 0.000000
# 5 0.000000 0.000000 0.000000 0.000000 0.164261 0.000000
# 6 0.000000 0.000000 0.000000 0.000000 0.000000 0.032641
#
#
# Mechanical properties :
#
#
# Convention : Reuss Voigt Hill
#
# Bulk Modulus (GPa) = 30.86489 49.02577 39.94533
# Shear Modulus (GPa) = 9.92922 16.44588 13.18755
#
# Velocity S-wave (km/s) = 2.38906 3.07467 2.75329
# Velocity P-wave (km/s) = 5.03510 6.38641 5.75058
#
# Compressibility (1/GPa) = 0.03239928
#
# Stress axis : x y z
#
# Youngs Moduli (GPa) = 13.28517 52.99180 31.88877
#
# Poissons Ratio (x) = 1.35196 0.65006
# Poissons Ratio (y) = 0.33894 0.02084
# Poissons Ratio (z) = 0.27082 0.03463
#
# Static dielectric constant tensor:
#      x y z
#    x 1.585430 0.000000 0.000000 
#    y 0.000000 1.618170 0.000000 
#    z 0.000000 0.000000 1.576880 
# 
# From -- ./inp_files/50383.got.cif
#   From: 2010.05.17/outbox.cif.g08.bks.cpg/sg65_26_cif.got.tgz:50383.got - 2010.06.03 17:01:31.
