data_PCOD9484464
_publ_section_title
;
Structure prediction by ZEFSAII (Michael W. Deem and Ramdas Pophale) SiO2 
 PCOD9484464
Probable space group: C M M M
;
_chemical_formula_sum "Si O2"
_cell_formula_units_Z 72
_cell_length_a 19.185637
_cell_length_b 23.390125
_cell_length_c 7.514096
_cell_angle_alpha 90.000000
_cell_angle_beta 90.000000
_cell_angle_gamma 90.000000
_cell_volume 3371.984000
_symmetry_space_group_name_H-M "C M M M"
_symmetry_group_IT_number 65
_symmetry_cell_setting 'orthorhombic'
loop_
_space_group_symop_operation_xyz
x,y,z
-x,-y,z
x,-y,-z
-x,y,-z
-x,-y,-z
x,y,-z
-x,y,z
x,-y,z
1/2+x,1/2+y,z
1/2-x,1/2-y,z
1/2+x,1/2-y,-z
1/2-x,1/2+y,-z
1/2-x,1/2-y,-z
1/2+x,1/2+y,-z
1/2-x,1/2+y,z
1/2+x,1/2-y,z
loop_
_atom_site_type_symbol
_atom_site_label
_atom_site_fract_x
_atom_site_fract_y
_atom_site_fract_z
Si Si1 0.418824 0.500000 0.782458
Si Si2 0.329910 0.260979 0.218125
Si Si3 0.920838 0.653105 0.785638
Si Si4 0.802558 0.565259 0.710172
Si Si5 0.656253 0.613328 0.204285
O O1 0.500000 0.500000 0.738457
O O2 0.381464 0.557760 0.716980
O O3 0.412206 0.500000 0.000000
O O4 0.250000 0.250000 0.272169
O O5 0.379527 0.209507 0.276439
O O6 0.353680 0.323596 0.281517
O O7 0.330005 0.261878 0.000000
O O8 0.874446 0.598212 0.739823
O O9 0.000000 0.650286 0.720003
O O10 0.923204 0.656367 0.000000
O O11 0.788637 0.564053 0.500000
O O12 0.803881 0.500000 0.776178
O O13 0.738644 0.599762 0.794769
O O14 0.631806 0.616899 0.000000
#
# Coordination Sequence:
#
# PCOD9484464 Si02
#       5
#     8  16  16  16  16
#     4   9  18  30  49  83 116 139 172 221 269 310
#     4   9  16  29  53  82 108 135 172 219 267 314
#     4  10  21  37  57  82 111 143 181 223 272 331
#     4  11  23  37  55  79 108 142 184 232 278 324
#     4  10  18  32  57  82 109 145 183 222 264 322
#
# _framework density 21.352412999999999
#
# number of rings (size 3 to 8) (size 9 to 14) (size 15 to 20)
#    0.000    2.111    3.333    0.667    0.000    3.111 
#    0.000    8.889    0.000    1.333    0.000    0.000 
#    0.000    0.000    0.000    0.000    0.000    0.000 
#
# Total GULP energy -201104.310173 kJ/mol
# GULP energy per Si atom -5586.230838 kJ/mol
# Density = 2.130381 g / cm^3
# Si number density = 21.352413 Si / 1000 Ang^3
#
#
#
# Elastic Constant Matrix: (Units=GPa)
#
#
# Indices 1 2 3 4 5 6 
#
# 1 70.0681 -0.8039 -10.8016 0.0000 0.0000 0.0000
# 2 -0.8039 109.5170 -3.9448 0.0000 0.0000 0.0000
# 3 -10.8016 -3.9448 59.7764 0.0000 0.0000 0.0000
# 4 0.0000 0.0000 0.0000 21.4206 0.0000 0.0000
# 5 0.0000 0.0000 0.0000 0.0000 -30.3867 0.0000
# 6 0.0000 0.0000 0.0000 0.0000 0.0000 35.3429
#
#
#
# Elastic Compliance Matrix: (Units=1/GPa)
#
#
# Indices 1 2 3 4 5 6 
#
# 1 0.014685 0.000204 0.002667 0.000000 0.000000 0.000000
# 2 0.000204 0.009156 0.000641 0.000000 0.000000 0.000000
# 3 0.002667 0.000641 0.017253 0.000000 0.000000 0.000000
# 4 0.000000 0.000000 0.000000 0.046684 0.000000 0.000000
# 5 0.000000 0.000000 0.000000 0.000000 -0.032909 0.000000
# 6 0.000000 0.000000 0.000000 0.000000 0.000000 0.028294
#
#
# Mechanical properties :
#
#
# Convention : Reuss Voigt Hill
#
# Bulk Modulus (GPa) = 20.78218 23.14011 21.96114
# Shear Modulus (GPa) = 54.24253 22.26949 38.25601
#
# Velocity S-wave (km/s) = 5.04565 3.23298 4.23738
# Velocity P-wave (km/s) = 6.61051 4.97965 5.85217
#
# Compressibility (1/GPa) = 0.04811814
#
# Stress axis : x y z
#
# Youngs Moduli (GPa) = 68.09524 109.22290 57.96008
#
# Poissons Ratio (x) = -0.02227 -0.15458
# Poissons Ratio (y) = -0.01388 -0.03715
# Poissons Ratio (z) = -0.18162 -0.07002
#
# Static dielectric constant tensor:
#      x y z
#    x 1.721620 0.000000 0.000000 
#    y 0.000000 1.763580 0.000000 
#    z 0.000000 0.000000 1.857670 
# 
# From -- ./inp_files/7262.got.cif
#   From: 2010.05.17/outbox.cif.g08.bks.cpg/sg65_4_cif.got.tgz:7262.got - 2010.06.03 17:01:31.
