data_PCOD9484963
_publ_section_title
;
Structure prediction by ZEFSAII (Michael W. Deem and Ramdas Pophale) SiO2 
 PCOD9484963
Probable space group: C M M M
;
_chemical_formula_sum "Si O2"
_cell_formula_units_Z 96
_cell_length_a 33.532464
_cell_length_b 19.532126
_cell_length_c 7.735408
_cell_angle_alpha 90.000000
_cell_angle_beta 90.000000
_cell_angle_gamma 90.000000
_cell_volume 5066.385237
_symmetry_space_group_name_H-M "C M M M"
_symmetry_group_IT_number 65
_symmetry_cell_setting 'orthorhombic'
loop_
_space_group_symop_operation_xyz
x,y,z
-x,-y,z
x,-y,-z
-x,y,-z
-x,-y,-z
x,y,-z
-x,y,z
x,-y,z
1/2+x,1/2+y,z
1/2-x,1/2-y,z
1/2+x,1/2-y,-z
1/2-x,1/2+y,-z
1/2-x,1/2-y,-z
1/2+x,1/2+y,-z
1/2-x,1/2+y,z
1/2+x,1/2-y,z
loop_
_atom_site_type_symbol
_atom_site_label
_atom_site_fract_x
_atom_site_fract_y
_atom_site_fract_z
Si Si1 0.332696 0.422299 0.711665
Si Si2 0.741600 0.077441 0.291649
Si Si3 0.044292 0.711616 0.292459
Si Si4 0.589569 0.076800 0.791548
Si Si5 0.665423 0.162004 0.204080
Si Si6 0.879612 0.206640 0.297666
O O1 0.332816 0.420794 0.500000
O O2 0.342753 0.500000 0.762958
O O3 0.286925 0.408106 0.764907
O O4 0.362424 0.363777 0.775954
O O5 0.741733 0.076549 0.500000
O O6 0.708952 0.132016 0.235578
O O7 0.731017 0.000000 0.232718
O O8 0.043564 0.719700 0.500000
O O9 0.057130 0.633431 0.257835
O O10 0.079983 0.759806 0.223258
O O11 0.000000 0.725981 0.225309
O O12 0.632235 0.107334 0.732456
O O13 0.582723 0.000000 0.726553
O O14 0.590556 0.073812 0.000000
O O15 0.654176 0.234671 0.285381
O O16 0.659600 0.170342 0.000000
O O17 0.887469 0.194097 0.500000
#
# Coordination Sequence:
#
# PCOD9484963 Si02
#       6
#    16  16  16  16  16  16
#     4   8  15  29  49  70  88 111 148 188 221 259
#     4   9  17  29  45  65  89 118 154 191 221 253
#     4   9  18  31  46  66  90 114 142 178 221 266
#     4   9  18  31  45  62  86 118 154 186 214 249
#     4  10  19  30  44  64  93 124 153 185 220 258
#     4   9  17  31  50  67  86 116 150 182 220 266
#
# _framework density 18.948421
#
# number of rings (size 3 to 8) (size 9 to 14) (size 15 to 20)
#    0.000    3.000    0.000    2.000    0.000    3.333 
#    0.000    5.833    0.000    2.000    0.000    3.500 
#    0.000    0.000    0.000    8.333    0.000    8.667 
#
# Total GULP energy -267600.446503 kJ/mol
# GULP energy per Si atom -5575.009302 kJ/mol
# Density = 1.890529 g / cm^3
# Si number density = 18.948421 Si / 1000 Ang^3
#
#
#
# Elastic Constant Matrix: (Units=GPa)
#
#
# Indices 1 2 3 4 5 6 
#
# 1 110.6804 102.7495 1.9754 0.0000 0.0000 0.0000
# 2 102.7495 134.9884 -1.3711 0.0000 0.0000 0.0000
# 3 1.9754 -1.3711 27.0672 0.0000 0.0000 0.0000
# 4 0.0000 0.0000 0.0000 -8.6410 0.0000 0.0000
# 5 0.0000 0.0000 0.0000 0.0000 0.7451 0.0000
# 6 0.0000 0.0000 0.0000 0.0000 0.0000 9.4816
#
#
#
# Elastic Compliance Matrix: (Units=1/GPa)
#
#
# Indices 1 2 3 4 5 6 
#
# 1 0.031120 -0.023723 -0.003473 0.000000 0.000000 0.000000
# 2 -0.023723 0.025496 0.003023 0.000000 0.000000 0.000000
# 3 -0.003473 0.003023 0.037352 0.000000 0.000000 0.000000
# 4 0.000000 0.000000 0.000000 -0.115728 0.000000 0.000000
# 5 0.000000 0.000000 0.000000 0.000000 1.342024 0.000000
# 6 0.000000 0.000000 0.000000 0.000000 0.000000 0.105468
#
#
# Mechanical properties :
#
#
# Convention : Reuss Voigt Hill
#
# Bulk Modulus (GPa) = 21.91942 53.27153 37.59548
# Shear Modulus (GPa) = 3.35731 11.60929 7.48330
#
# Velocity S-wave (km/s) = 1.33254 2.47792 1.98944
# Velocity P-wave (km/s) = 3.73639 6.03007 5.01609
#
# Compressibility (1/GPa) = 0.04562164
#
# Stress axis : x y z
#
# Youngs Moduli (GPa) = 32.13333 39.22150 26.77260
#
# Poissons Ratio (x) = 0.93046 0.09298
# Poissons Ratio (y) = 0.76231 -0.08093
# Poissons Ratio (z) = 0.11159 -0.11856
#
# Static dielectric constant tensor:
#      x y z
#    x 1.660710 0.000000 0.000000 
#    y 0.000000 1.651100 0.000000 
#    z 0.000000 0.000000 1.694090 
# 
# From -- ./inp_files/12277.got.cif
#   From: 2010.05.17/outbox.cif.g08.bks.cpg/sg65_7_cif.got.tgz:12277.got - 2010.06.03 17:01:31.
