data_PCOD9484392
_publ_section_title
;
Structure prediction by ZEFSAII (Michael W. Deem and Ramdas Pophale) SiO2 
 PCOD9484392
Probable space group: C M M M
;
_chemical_formula_sum "Si O2"
_cell_formula_units_Z 88
_cell_length_a 8.196885
_cell_length_b 27.098103
_cell_length_c 20.132773
_cell_angle_alpha 90.000000
_cell_angle_beta 90.000000
_cell_angle_gamma 90.000000
_cell_volume 4471.892223
_symmetry_space_group_name_H-M "C M M M"
_symmetry_group_IT_number 65
_symmetry_cell_setting 'orthorhombic'
loop_
_space_group_symop_operation_xyz
x,y,z
-x,-y,z
x,-y,-z
-x,y,-z
-x,-y,-z
x,y,-z
-x,y,z
x,-y,z
1/2+x,1/2+y,z
1/2-x,1/2-y,z
1/2+x,1/2-y,-z
1/2-x,1/2+y,-z
1/2-x,1/2-y,-z
1/2+x,1/2+y,-z
1/2-x,1/2+y,z
1/2+x,1/2-y,z
loop_
_atom_site_type_symbol
_atom_site_label
_atom_site_fract_x
_atom_site_fract_y
_atom_site_fract_z
Si Si1 0.183483 0.301921 0.419825
Si Si2 0.699211 0.500000 0.923081
Si Si3 0.301258 0.444422 0.287599
Si Si4 0.194688 0.304085 0.076089
Si Si5 0.302941 0.599265 0.846269
Si Si6 0.308971 0.407942 0.574202
O O1 0.176097 0.297106 0.500000
O O2 0.250000 0.250000 0.393701
O O3 0.292449 0.349913 0.408939
O O4 0.000000 0.311124 0.395929
O O5 0.500000 0.500000 0.921124
O O6 0.752067 0.449455 0.887013
O O7 0.749216 0.500000 0.000000
O O8 0.500000 0.440844 0.291160
O O9 0.263110 0.500000 0.266230
O O10 0.246544 0.407534 0.229927
O O11 0.237787 0.435265 0.361934
O O12 0.250000 0.250000 0.100026
O O13 0.250605 0.350068 0.119917
O O14 0.000000 0.304271 0.074075
O O15 0.257288 0.309942 0.000000
O O16 0.500000 0.598083 0.846109
O O17 0.237888 0.416165 0.500000
O O18 0.500000 0.420892 0.569778
#
# Coordination Sequence:
#
# PCOD9484392 Si02
#       6
#    16   8  16  16  16  16
#     4   9  16  27  45  68  94 122 154 198 253 309
#     4   9  16  26  47  79 106 132 170 211 251 301
#     4   9  17  31  51  75 103 136 174 217 266 313
#     4  10  21  37  57  82 112 145 180 219 263 312
#     4  10  18  32  54  79 108 142 180 221 262 312
#     4   9  17  29  47  72 100 131 171 217 263 313
#
# _framework density 19.678470999999998
#
# number of rings (size 3 to 8) (size 9 to 14) (size 15 to 20)
#    0.000    2.636    0.909    1.636    0.000    4.364 
#    0.000    4.091    0.000    3.273    0.000    2.545 
#    0.000    0.000    0.000    0.000    0.000    0.000 
#
# Total GULP energy -245193.737641 kJ/mol
# GULP energy per Si atom -5572.584946 kJ/mol
# Density = 1.963368 g / cm^3
# Si number density = 19.678471 Si / 1000 Ang^3
#
#
#
# Elastic Constant Matrix: (Units=GPa)
#
#
# Indices 1 2 3 4 5 6 
#
# 1 15.0496 2.4729 13.1614 0.0000 0.0000 0.0000
# 2 2.4729 121.8519 77.4080 0.0000 0.0000 0.0000
# 3 13.1614 77.4080 126.6832 0.0000 0.0000 0.0000
# 4 0.0000 0.0000 0.0000 19.9968 0.0000 0.0000
# 5 0.0000 0.0000 0.0000 0.0000 7.0975 0.0000
# 6 0.0000 0.0000 0.0000 0.0000 0.0000 18.1078
#
#
#
# Elastic Compliance Matrix: (Units=1/GPa)
#
#
# Indices 1 2 3 4 5 6 
#
# 1 0.075379 0.005631 -0.011272 0.000000 0.000000 0.000000
# 2 0.005631 0.013834 -0.009038 0.000000 0.000000 0.000000
# 3 -0.011272 -0.009038 0.014587 0.000000 0.000000 0.000000
# 4 0.000000 0.000000 0.000000 0.050008 0.000000 0.000000
# 5 0.000000 0.000000 0.000000 0.000000 0.140896 0.000000
# 6 0.000000 0.000000 0.000000 0.000000 0.000000 0.055225
#
#
# Mechanical properties :
#
#
# Convention : Reuss Voigt Hill
#
# Bulk Modulus (GPa) = 13.43320 49.96327 31.69824
# Shear Modulus (GPa) = 12.37313 20.40991 16.39152
#
# Velocity S-wave (km/s) = 2.51024 3.22401 2.88925
# Velocity P-wave (km/s) = 3.90421 6.26928 5.22239
#
# Compressibility (1/GPa) = 0.07444245
#
# Stress axis : x y z
#
# Youngs Moduli (GPa) = 13.26621 72.28587 68.55243
#
# Poissons Ratio (x) = -0.40704 0.77273
# Poissons Ratio (y) = -0.07470 0.61958
# Poissons Ratio (z) = 0.14954 0.65332
#
# Static dielectric constant tensor:
#      x y z
#    x 1.714280 0.000000 0.000000 
#    y 0.000000 1.680420 0.000000 
#    z 0.000000 0.000000 1.721240 
# 
# From -- ./inp_files/59815.got.cif
#   From: 2010.05.17/outbox.cif.g08.bks.cpg/sg65_30_cif.got.tgz:59815.got - 2010.06.03 17:01:31.
