data_PCOD9484419
_publ_section_title
;
Structure prediction by ZEFSAII (Michael W. Deem and Ramdas Pophale) SiO2 
 PCOD9484419
Probable space group: C M M M
;
_chemical_formula_sum "Si O2"
_cell_formula_units_Z 104
_cell_length_a 14.471420
_cell_length_b 17.737263
_cell_length_c 21.353739
_cell_angle_alpha 90.000000
_cell_angle_beta 90.000000
_cell_angle_gamma 90.000000
_cell_volume 5481.149956
_symmetry_space_group_name_H-M "C M M M"
_symmetry_group_IT_number 65
_symmetry_cell_setting 'orthorhombic'
loop_
_space_group_symop_operation_xyz
x,y,z
-x,-y,z
x,-y,-z
-x,y,-z
-x,-y,-z
x,y,-z
-x,y,z
x,-y,z
1/2+x,1/2+y,z
1/2-x,1/2-y,z
1/2+x,1/2-y,-z
1/2-x,1/2+y,-z
1/2-x,1/2-y,-z
1/2+x,1/2+y,-z
1/2-x,1/2+y,z
1/2+x,1/2-y,z
loop_
_atom_site_type_symbol
_atom_site_label
_atom_site_fract_x
_atom_site_fract_y
_atom_site_fract_z
Si Si1 0.799529 0.086448 0.711498
Si Si2 0.891420 0.119971 0.070353
Si Si3 0.394809 0.268476 0.260067
Si Si4 0.313818 0.818553 0.622127
Si Si5 0.775591 0.582478 0.152154
Si Si6 0.500000 0.091385 0.425068
Si Si7 0.890788 0.279007 0.878549
O O1 0.881597 0.144055 0.725068
O O2 0.751456 0.114572 0.647690
O O3 0.733307 0.094862 0.772966
O O4 0.826488 0.000000 0.708001
O O5 0.826253 0.084254 0.122215
O O6 0.875177 0.210219 0.074611
O O7 0.000000 0.107609 0.083477
O O8 0.871413 0.093601 0.000000
O O9 0.500000 0.245171 0.262127
O O10 0.344905 0.222680 0.314006
O O11 0.362633 0.253033 0.189836
O O12 0.250000 0.750000 0.590501
O O13 0.406664 0.859627 0.594051
O O14 0.817042 0.500000 0.142910
O O15 0.832784 0.645684 0.116010
O O16 0.500000 0.087881 0.500000
O O17 0.500000 0.000000 0.403729
O O18 0.000000 0.295342 0.878702
#
# Coordination Sequence:
#
# PCOD9484419 Si02
#       7
#    16  16  16  16  16   8  16
#     4  10  20  32  50  82 119 148 183 237 297 351
#     4  10  22  39  58  78 101 138 186 234 283 347
#     4  10  18  32  55  80 110 149 192 233 284 345
#     4  10  20  36  60  88 120 162 200 243 293 352
#     4  11  22  34  52  78 109 143 179 229 291 346
#     4  11  24  42  64  94 131 169 212 254 290 339
#     4  10  20  35  54  77 106 140 184 234 277 337
#
# _framework density 18.974121
#
# number of rings (size 3 to 8) (size 9 to 14) (size 15 to 20)
#    0.000    1.769    3.846    0.923    0.000    2.769 
#    0.000    2.308    0.000    0.000    0.000    3.231 
#    0.000    4.923    0.000    0.000    0.000    0.000 
#
# Total GULP energy -289544.392800 kJ/mol
# GULP energy per Si atom -5568.161400 kJ/mol
# Density = 1.893093 g / cm^3
# Si number density = 18.974121 Si / 1000 Ang^3
#
#
#
# Elastic Constant Matrix: (Units=GPa)
#
#
# Indices 1 2 3 4 5 6 
#
# 1 57.8863 20.6403 18.6212 0.0000 0.0000 0.0000
# 2 20.6403 101.7476 19.6539 0.0000 0.0000 0.0000
# 3 18.6212 19.6539 50.2808 0.0000 0.0000 0.0000
# 4 0.0000 0.0000 0.0000 -18.1418 0.0000 0.0000
# 5 0.0000 0.0000 0.0000 0.0000 13.2860 0.0000
# 6 0.0000 0.0000 0.0000 0.0000 0.0000 3.9118
#
#
#
# Elastic Compliance Matrix: (Units=1/GPa)
#
#
# Indices 1 2 3 4 5 6 
#
# 1 0.020370 -0.002893 -0.006413 0.000000 0.000000 0.000000
# 2 -0.002893 0.011042 -0.003245 0.000000 0.000000 0.000000
# 3 -0.006413 -0.003245 0.023531 0.000000 0.000000 0.000000
# 4 0.000000 0.000000 0.000000 -0.055121 0.000000 0.000000
# 5 0.000000 0.000000 0.000000 0.000000 0.075267 0.000000
# 6 0.000000 0.000000 0.000000 0.000000 0.000000 0.255636
#
#
# Mechanical properties :
#
#
# Convention : Reuss Voigt Hill
#
# Bulk Modulus (GPa) = 33.51025 36.41616 34.96321
# Shear Modulus (GPa) = 13.66966 9.87784 11.77375
#
# Velocity S-wave (km/s) = 2.68701 2.28413 2.49372
# Velocity P-wave (km/s) = 5.22743 5.11767 5.17284
#
# Compressibility (1/GPa) = 0.02984162
#
# Stress axis : x y z
#
# Youngs Moduli (GPa) = 49.09213 90.56396 42.49627
#
# Poissons Ratio (x) = 0.26204 0.27252
# Poissons Ratio (y) = 0.14205 0.13788
# Poissons Ratio (z) = 0.31482 0.29384
#
# Static dielectric constant tensor:
#      x y z
#    x 1.681860 0.000000 0.000000 
#    y 0.000000 1.706490 0.000000 
#    z 0.000000 0.000000 1.636730 
# 
# From -- ./inp_files/62875.got.cif
#   From: 2010.05.17/outbox.cif.g08.bks.cpg/sg65_32_cif.got.tgz:62875.got - 2010.06.03 17:01:31.
