data_PCOD9484583
_publ_section_title
;
Structure prediction by ZEFSAII (Michael W. Deem and Ramdas Pophale) SiO2 
 PCOD9484583
Probable space group: C M M M
;
_chemical_formula_sum "Si O2"
_cell_formula_units_Z 80
_cell_length_a 22.942363
_cell_length_b 15.346440
_cell_length_c 11.717719
_cell_angle_alpha 90.000000
_cell_angle_beta 90.000000
_cell_angle_gamma 90.000000
_cell_volume 4125.616657
_symmetry_space_group_name_H-M "C M M M"
_symmetry_group_IT_number 65
_symmetry_cell_setting 'orthorhombic'
loop_
_space_group_symop_operation_xyz
x,y,z
-x,-y,z
x,-y,-z
-x,y,-z
-x,-y,-z
x,y,-z
-x,y,z
x,-y,z
1/2+x,1/2+y,z
1/2-x,1/2-y,z
1/2+x,1/2-y,-z
1/2-x,1/2+y,-z
1/2-x,1/2-y,-z
1/2+x,1/2+y,-z
1/2-x,1/2+y,z
1/2+x,1/2-y,z
loop_
_atom_site_type_symbol
_atom_site_label
_atom_site_fract_x
_atom_site_fract_y
_atom_site_fract_z
Si Si1 0.150445 0.404413 0.866335
Si Si2 0.233434 0.147007 0.247806
Si Si3 0.296057 0.333050 0.500000
Si Si4 0.067684 0.224857 0.500000
Si Si5 0.611780 0.601721 0.135213
Si Si6 0.064029 0.730490 0.244116
O O1 0.122943 0.500000 0.852361
O O2 0.210815 0.401768 0.799447
O O3 0.111096 0.328175 0.817425
O O4 0.161656 0.390216 0.000000
O O5 0.250000 0.250000 0.242505
O O6 0.218338 0.123785 0.378634
O O7 0.177910 0.124751 0.170464
O O8 0.250000 0.250000 0.500000
O O9 0.366928 0.318871 0.500000
O O10 0.069121 0.276068 0.619348
O O11 0.000000 0.183985 0.500000
O O12 0.600239 0.500000 0.159623
O O13 0.573732 0.669191 0.208081
O O14 0.603089 0.616083 0.000000
O O15 0.000000 0.702622 0.207947
#
# Coordination Sequence:
#
# PCOD9484583 Si02
#       6
#    16  16   8   8  16  16
#     4  11  24  41  62  92 129 167 207 256 315 377
#     4  11  20  36  62  89 123 160 204 252 316 373
#     4  10  18  34  61  92 124 161 209 266 315 372
#     4  10  20  40  66  92 124 168 210 259 320 383
#     4  11  23  38  59  89 123 158 200 252 308 369
#     4  11  23  42  66  90 121 164 213 259 309 371
#
# _framework density 19.391041000000001
#
# number of rings (size 3 to 8) (size 9 to 14) (size 15 to 20)
#    0.000    1.200    4.000    3.000    0.000    4.800 
#    0.000    7.000    0.000    3.600    0.000    0.000 
#    0.000    0.000    0.000    0.000    0.000    0.000 
#
# Total GULP energy -223061.713355 kJ/mol
# GULP energy per Si atom -5576.542834 kJ/mol
# Density = 1.934691 g / cm^3
# Si number density = 19.391041 Si / 1000 Ang^3
#
#
#
# Elastic Constant Matrix: (Units=GPa)
#
#
# Indices 1 2 3 4 5 6 
#
# 1 111.8858 14.2958 34.4910 0.0000 0.0000 0.0000
# 2 14.2958 74.0928 39.4065 0.0000 0.0000 0.0000
# 3 34.4910 39.4065 89.2868 0.0000 0.0000 0.0000
# 4 0.0000 0.0000 0.0000 -94.8545 0.0000 0.0000
# 5 0.0000 0.0000 0.0000 0.0000 91.6380 0.0000
# 6 0.0000 0.0000 0.0000 0.0000 0.0000 0.1223
#
#
#
# Elastic Compliance Matrix: (Units=1/GPa)
#
#
# Indices 1 2 3 4 5 6 
#
# 1 0.010147 0.000166 -0.003993 0.000000 0.000000 0.000000
# 2 0.000166 0.017639 -0.007849 0.000000 0.000000 0.000000
# 3 -0.003993 -0.007849 0.016207 0.000000 0.000000 0.000000
# 4 0.000000 0.000000 0.000000 -0.010542 0.000000 0.000000
# 5 0.000000 0.000000 0.000000 0.000000 0.010912 0.000000
# 6 0.000000 0.000000 0.000000 0.000000 0.000000 8.179572
#
#
# Mechanical properties :
#
#
# Convention : Reuss Voigt Hill
#
# Bulk Modulus (GPa) = 48.44842 50.18356 49.31599
# Shear Modulus (GPa) = 0.60575 11.85264 6.22920
#
# Velocity S-wave (km/s) = 0.55952 2.47502 1.79426
# Velocity P-wave (km/s) = 5.04546 5.83982 5.45711
#
# Compressibility (1/GPa) = 0.02064051
#
# Stress axis : x y z
#
# Youngs Moduli (GPa) = 98.54700 56.69214 61.70352
#
# Poissons Ratio (x) = -0.00940 0.24639
# Poissons Ratio (y) = -0.01634 0.48431
# Poissons Ratio (z) = 0.39351 0.44498
#
# Static dielectric constant tensor:
#      x y z
#    x 1.692830 0.000000 0.000000 
#    y 0.000000 1.685170 0.000000 
#    z 0.000000 0.000000 1.652100 
# 
# From -- ./inp_files/30419.got.cif
#   From: 2010.05.17/outbox.cif.g08.bks.cpg/sg65_16_cif.got.tgz:30419.got - 2010.06.03 17:01:31.
