data_PCOD9484028
_publ_section_title
;
Structure prediction by ZEFSAII (Michael W. Deem and Ramdas Pophale) SiO2 
 PCOD9484028
Probable space group: C M M M
;
_chemical_formula_sum "Si O2"
_cell_formula_units_Z 64
_cell_length_a 12.587324
_cell_length_b 15.443223
_cell_length_c 15.062795
_cell_angle_alpha 90.000000
_cell_angle_beta 90.000000
_cell_angle_gamma 90.000000
_cell_volume 2928.039421
_symmetry_space_group_name_H-M "C M M M"
_symmetry_group_IT_number 65
_symmetry_cell_setting 'orthorhombic'
loop_
_space_group_symop_operation_xyz
x,y,z
-x,-y,z
x,-y,-z
-x,y,-z
-x,-y,-z
x,y,-z
-x,y,z
x,-y,z
1/2+x,1/2+y,z
1/2-x,1/2-y,z
1/2+x,1/2-y,-z
1/2-x,1/2+y,-z
1/2-x,1/2-y,-z
1/2+x,1/2+y,-z
1/2-x,1/2+y,z
1/2+x,1/2-y,z
loop_
_atom_site_type_symbol
_atom_site_label
_atom_site_fract_x
_atom_site_fract_y
_atom_site_fract_z
Si Si1 0.500000 0.873228 0.897869
Si Si2 0.216979 0.650319 0.600450
Si Si3 0.500000 0.097502 0.689832
Si Si4 0.618070 0.601506 0.743915
Si Si5 0.268122 0.105112 0.900911
O O1 0.500000 0.908396 0.796474
O O2 0.622038 0.841348 0.897659
O O3 0.500000 0.912029 0.000000
O O4 0.205336 0.616870 0.500000
O O5 0.250000 0.750000 0.596037
O O6 0.107138 0.640699 0.653694
O O7 0.312071 0.607743 0.655634
O O8 0.500000 0.000000 0.654162
O O9 0.500000 0.640414 0.736418
O O10 0.606302 0.500000 0.763677
O O11 0.688172 0.635498 0.825411
O O12 0.293762 0.000000 0.887761
O O13 0.222729 0.111744 0.000000
#
# Coordination Sequence:
#
# PCOD9484028 Si02
#       5
#     8  16   8  16  16
#     4  10  18  30  57  96 130 158 198 259 324 377
#     4  11  26  44  63  88 122 163 207 259 324 383
#     4  12  23  41  72 103 128 162 216 275 318 367
#     4  10  21  37  59  87 118 157 203 250 305 370
#     4   9  16  28  50  83 121 156 194 246 306 367
#
# _framework density 21.857628999999999
#
# number of rings (size 3 to 8) (size 9 to 14) (size 15 to 20)
#    0.000    1.750    2.500    2.250    1.750    6.250 
#    0.000    3.750    0.000    3.000    0.000    0.000 
#    0.000    0.000    0.000    0.000    0.000    0.000 
#
# Total GULP energy -178186.534027 kJ/mol
# GULP energy per Si atom -5568.329188 kJ/mol
# Density = 2.180788 g / cm^3
# Si number density = 21.857629 Si / 1000 Ang^3
#
#
#
# Elastic Constant Matrix: (Units=GPa)
#
#
# Indices 1 2 3 4 5 6 
#
# 1 187.7704 12.7149 93.3230 0.0000 0.0000 0.0000
# 2 12.7149 34.8429 9.8146 0.0000 0.0000 0.0000
# 3 93.3230 9.8146 183.3399 0.0000 0.0000 0.0000
# 4 0.0000 0.0000 0.0000 305.4924 0.0000 0.0000
# 5 0.0000 0.0000 0.0000 0.0000 12.4692 0.0000
# 6 0.0000 0.0000 0.0000 0.0000 0.0000 17.8820
#
#
#
# Elastic Compliance Matrix: (Units=1/GPa)
#
#
# Indices 1 2 3 4 5 6 
#
# 1 0.007219 -0.001624 -0.003587 0.000000 0.000000 0.000000
# 2 -0.001624 0.029505 -0.000753 0.000000 0.000000 0.000000
# 3 -0.003587 -0.000753 0.007321 0.000000 0.000000 0.000000
# 4 0.000000 0.000000 0.000000 0.003273 0.000000 0.000000
# 5 0.000000 0.000000 0.000000 0.000000 0.080198 0.000000
# 6 0.000000 0.000000 0.000000 0.000000 0.000000 0.055922
#
#
# Mechanical properties :
#
#
# Convention : Reuss Voigt Hill
#
# Bulk Modulus (GPa) = 31.13719 70.85092 50.99405
# Shear Modulus (GPa) = 24.26347 86.50876 55.38611
#
# Velocity S-wave (km/s) = 3.33538 6.29795 5.03930
# Velocity P-wave (km/s) = 5.39532 9.23963 7.56572
#
# Compressibility (1/GPa) = 0.03211593
#
# Stress axis : x y z
#
# Youngs Moduli (GPa) = 138.53120 33.89271 136.59835
#
# Poissons Ratio (x) = 0.05503 0.49004
# Poissons Ratio (y) = 0.22493 0.10286
# Poissons Ratio (z) = 0.49698 0.02552
#
# Static dielectric constant tensor:
#      x y z
#    x 2.015750 0.000000 0.000000 
#    y 0.000000 1.749640 0.000000 
#    z 0.000000 0.000000 1.776370 
# 
# From -- ./inp_files/37782.got.cif
#   From: 2010.05.17/outbox.cif.g08.bks.cpg/sg65_19_cif.got.tgz:37782.got - 2010.06.03 17:01:31.
