data_PCOD9484870
_publ_section_title
;
Structure prediction by ZEFSAII (Michael W. Deem and Ramdas Pophale) SiO2 
 PCOD9484870
Probable space group: C M M M
;
_chemical_formula_sum "Si O2"
_cell_formula_units_Z 56
_cell_length_a 8.509012
_cell_length_b 14.623171
_cell_length_c 20.114690
_cell_angle_alpha 90.000000
_cell_angle_beta 90.000000
_cell_angle_gamma 90.000000
_cell_volume 2502.845482
_symmetry_space_group_name_H-M "C M M M"
_symmetry_group_IT_number 65
_symmetry_cell_setting 'orthorhombic'
loop_
_space_group_symop_operation_xyz
x,y,z
-x,-y,z
x,-y,-z
-x,y,-z
-x,-y,-z
x,y,-z
-x,y,z
x,-y,z
1/2+x,1/2+y,z
1/2-x,1/2-y,z
1/2+x,1/2-y,-z
1/2-x,1/2+y,-z
1/2-x,1/2-y,-z
1/2+x,1/2+y,-z
1/2-x,1/2+y,z
1/2+x,1/2-y,z
loop_
_atom_site_type_symbol
_atom_site_label
_atom_site_fract_x
_atom_site_fract_y
_atom_site_fract_z
Si Si1 0.322916 0.605060 0.858976
Si Si2 0.687639 0.145419 0.571760
Si Si3 0.500000 0.111179 0.921718
Si Si4 0.816118 0.852181 0.707603
O O1 0.500000 0.644529 0.870357
O O2 0.330976 0.500000 0.883002
O O3 0.295701 0.603386 0.779507
O O4 0.164540 0.646245 0.890647
O O5 0.740012 0.106713 0.500000
O O6 0.500000 0.146164 0.571891
O O7 0.750000 0.250000 0.572855
O O8 0.741394 0.104507 0.641759
O O9 0.500000 0.000000 0.911046
O O10 0.500000 0.128477 0.000000
O O11 0.750000 0.750000 0.714989
O O12 0.000000 0.846874 0.694088
#
# Coordination Sequence:
#
# PCOD9484870 Si02
#       4
#    16  16   8  16
#     4   9  19  34  51  75 102 128 161 201 242 286
#     4   9  16  25  39  61  91 123 158 201 242 281
#     4   9  18  32  54  80  99 125 160 196 245 290
#     4  10  19  29  47  72  95 128 163 199 245 287
#
# _framework density 22.374534000000001
#
# number of rings (size 3 to 8) (size 9 to 14) (size 15 to 20)
#    0.000    2.714    0.000    3.429    4.000    2.286 
#    0.000    2.857    0.000    1.714    0.000    6.000 
#    0.000    0.000    0.000    0.000    0.000    0.000 
#
# Total GULP energy -156100.629038 kJ/mol
# GULP energy per Si atom -5575.022466 kJ/mol
# Density = 2.232361 g / cm^3
# Si number density = 22.374534 Si / 1000 Ang^3
#
#
#
# Elastic Constant Matrix: (Units=GPa)
#
#
# Indices 1 2 3 4 5 6 
#
# 1 188.7163 17.3638 114.4819 0.0000 0.0000 0.0000
# 2 17.3638 59.4117 1.2484 0.0000 0.0000 0.0000
# 3 114.4819 1.2484 100.8487 0.0000 0.0000 0.0000
# 4 0.0000 0.0000 0.0000 -2.4279 0.0000 0.0000
# 5 0.0000 0.0000 0.0000 0.0000 33.1350 0.0000
# 6 0.0000 0.0000 0.0000 0.0000 0.0000 5.1574
#
#
#
# Elastic Compliance Matrix: (Units=1/GPa)
#
#
# Indices 1 2 3 4 5 6 
#
# 1 0.018356 -0.004928 -0.020777 0.000000 0.000000 0.000000
# 2 -0.004928 0.018159 0.005370 0.000000 0.000000 0.000000
# 3 -0.020777 0.005370 0.033435 0.000000 0.000000 0.000000
# 4 0.000000 0.000000 0.000000 -0.411872 0.000000 0.000000
# 5 0.000000 0.000000 0.000000 0.000000 0.030180 0.000000
# 6 0.000000 0.000000 0.000000 0.000000 0.000000 0.193895
#
#
# Mechanical properties :
#
#
# Convention : Reuss Voigt Hill
#
# Bulk Modulus (GPa) = 34.15334 68.35162 51.25248
# Shear Modulus (GPa) = -74.16583 21.56509 -26.30037
#
# Velocity S-wave (km/s) = -5.76363 3.10792 -3.43222
# Velocity P-wave (km/s) = 5.38470 6.59500 2.69249
#
# Compressibility (1/GPa) = 0.02927971
#
# Stress axis : x y z
#
# Youngs Moduli (GPa) = 54.47695 55.06845 29.90880
#
# Poissons Ratio (x) = 0.27139 0.62141
# Poissons Ratio (y) = 0.26848 -0.16060
# Poissons Ratio (z) = 1.13186 -0.29570
#
# Static dielectric constant tensor:
#      x y z
#    x 1.809040 0.000000 0.000000 
#    y 0.000000 1.873190 0.000000 
#    z 0.000000 0.000000 1.838010 
# 
# From -- ./inp_files/48799.got.cif
#   From: 2010.05.17/outbox.cif.g08.bks.cpg/sg65_25_cif.got.tgz:48799.got - 2010.06.03 17:01:31.
