data_PCOD9484717
_publ_section_title
;
Structure prediction by ZEFSAII (Michael W. Deem and Ramdas Pophale) SiO2 
 PCOD9484717
Probable space group: C M M M
;
_chemical_formula_sum "Si O2"
_cell_formula_units_Z 112
_cell_length_a 23.202444
_cell_length_b 19.166867
_cell_length_c 17.806051
_cell_angle_alpha 90.000000
_cell_angle_beta 90.000000
_cell_angle_gamma 90.000000
_cell_volume 7918.674206
_symmetry_space_group_name_H-M "C M M M"
_symmetry_group_IT_number 65
_symmetry_cell_setting 'orthorhombic'
loop_
_space_group_symop_operation_xyz
x,y,z
-x,-y,z
x,-y,-z
-x,y,-z
-x,-y,-z
x,y,-z
-x,y,z
x,-y,z
1/2+x,1/2+y,z
1/2-x,1/2-y,z
1/2+x,1/2-y,-z
1/2-x,1/2+y,-z
1/2-x,1/2-y,-z
1/2+x,1/2+y,-z
1/2-x,1/2+y,z
1/2+x,1/2-y,z
loop_
_atom_site_type_symbol
_atom_site_label
_atom_site_fract_x
_atom_site_fract_y
_atom_site_fract_z
Si Si1 0.934862 0.915196 0.413088
Si Si2 0.313450 0.081423 0.089938
Si Si3 0.064449 0.357009 0.909217
Si Si4 0.620320 0.288032 0.914757
Si Si5 0.567071 0.423858 0.139909
Si Si6 0.650115 0.580645 0.284394
Si Si7 0.771788 0.824236 0.190091
O O1 0.925180 0.895826 0.500000
O O2 0.885039 0.892211 0.356459
O O3 0.000000 0.892912 0.391516
O O4 0.934995 0.000000 0.409582
O O5 0.380759 0.094840 0.109719
O O6 0.274131 0.132324 0.140178
O O7 0.298563 0.000000 0.101929
O O8 0.306313 0.095932 0.000000
O O9 0.083305 0.278286 0.887887
O O10 0.000000 0.374330 0.881039
O O11 0.061000 0.358632 0.000000
O O12 0.583343 0.358470 0.910596
O O13 0.675929 0.302780 0.865028
O O14 0.638148 0.273087 0.000000
O O15 0.500000 0.421256 0.158984
O O16 0.579320 0.500000 0.104934
O O17 0.604512 0.419493 0.215540
O O18 0.667531 0.500000 0.296876
O O19 0.702599 0.627226 0.255453
O O20 0.750000 0.750000 0.219538
#
# Coordination Sequence:
#
# PCOD9484717 Si02
#       7
#    16  16  16  16  16  16  16
#     4   8  13  23  43  70  95 117 141 168 196 229
#     4  10  20  32  46  63  80 102 139 187 232 270
#     4   9  17  29  44  60  76  96 126 172 230 278
#     4  10  19  29  42  57  76 104 141 180 215 253
#     4   9  17  27  38  55  82 114 142 168 202 244
#     4   9  17  28  42  62  87 113 140 172 205 241
#     4  11  20  31  45  59  80 112 144 175 211 258
#
# _framework density 14.143782
#
# number of rings (size 3 to 8) (size 9 to 14) (size 15 to 20)
#    0.000    2.571    1.429    2.143    0.000    4.286 
#    0.000    2.143    0.000    0.429    0.000    0.000 
#    0.000    0.000    0.000    0.000    0.000    0.000 
#
# Total GULP energy -311755.007537 kJ/mol
# GULP energy per Si atom -5567.053706 kJ/mol
# Density = 1.411159 g / cm^3
# Si number density = 14.143782 Si / 1000 Ang^3
#
#
#
# Elastic Constant Matrix: (Units=GPa)
#
#
# Indices 1 2 3 4 5 6 
#
# 1 83.8042 31.5596 27.5111 0.0000 0.0000 0.0000
# 2 31.5596 68.4024 22.3070 0.0000 0.0000 0.0000
# 3 27.5111 22.3070 42.5310 0.0000 0.0000 0.0000
# 4 0.0000 0.0000 0.0000 7.0420 0.0000 0.0000
# 5 0.0000 0.0000 0.0000 0.0000 14.7693 0.0000
# 6 0.0000 0.0000 0.0000 0.0000 0.0000 21.8334
#
#
#
# Elastic Compliance Matrix: (Units=1/GPa)
#
#
# Indices 1 2 3 4 5 6 
#
# 1 0.016438 -0.004966 -0.008028 0.000000 0.000000 0.000000
# 2 -0.004966 0.019136 -0.006824 0.000000 0.000000 0.000000
# 3 -0.008028 -0.006824 0.032285 0.000000 0.000000 0.000000
# 4 0.000000 0.000000 0.000000 0.142005 0.000000 0.000000
# 5 0.000000 0.000000 0.000000 0.000000 0.067708 0.000000
# 6 0.000000 0.000000 0.000000 0.000000 0.000000 0.045801
#
#
# Mechanical properties :
#
#
# Convention : Reuss Voigt Hill
#
# Bulk Modulus (GPa) = 35.43413 39.72144 37.57779
# Shear Modulus (GPa) = 13.42577 16.28629 14.85603
#
# Velocity S-wave (km/s) = 3.08431 3.39703 3.24444
# Velocity P-wave (km/s) = 6.14745 6.59783 6.37662
#
# Compressibility (1/GPa) = 0.02822138
#
# Stress axis : x y z
#
# Youngs Moduli (GPa) = 60.83348 52.25706 30.97448
#
# Poissons Ratio (x) = 0.25952 0.24867
# Poissons Ratio (y) = 0.30211 0.21138
# Poissons Ratio (z) = 0.48839 0.35662
#
# Static dielectric constant tensor:
#      x y z
#    x 1.488040 0.000000 0.000000 
#    y 0.000000 1.494490 0.000000 
#    z 0.000000 0.000000 1.442810 
# 
# From -- ./inp_files/55041.got.cif
#   From: 2010.05.17/outbox.cif.g08.bks.cpg/sg65_28_cif.got.tgz:55041.got - 2010.06.03 17:01:31.
