data_PCOD9484073
_publ_section_title
;
Structure prediction by ZEFSAII (Michael W. Deem and Ramdas Pophale) SiO2 
 PCOD9484073
Probable space group: C M M M
;
_chemical_formula_sum "Si O2"
_cell_formula_units_Z 64
_cell_length_a 22.254685
_cell_length_b 7.794960
_cell_length_c 17.736480
_cell_angle_alpha 90.000000
_cell_angle_beta 90.000000
_cell_angle_gamma 90.000000
_cell_volume 3076.824861
_symmetry_space_group_name_H-M "C M M M"
_symmetry_group_IT_number 65
_symmetry_cell_setting 'orthorhombic'
loop_
_space_group_symop_operation_xyz
x,y,z
-x,-y,z
x,-y,-z
-x,y,-z
-x,-y,-z
x,y,-z
-x,y,z
x,-y,z
1/2+x,1/2+y,z
1/2-x,1/2-y,z
1/2+x,1/2-y,-z
1/2-x,1/2+y,-z
1/2-x,1/2-y,-z
1/2+x,1/2+y,-z
1/2-x,1/2+y,z
1/2+x,1/2-y,z
loop_
_atom_site_type_symbol
_atom_site_label
_atom_site_fract_x
_atom_site_fract_y
_atom_site_fract_z
Si Si1 0.319041 0.202965 0.689680
Si Si2 0.625661 0.210171 0.845411
Si Si3 0.818201 0.704776 0.000000
Si Si4 0.500000 0.208923 0.910622
Si Si5 0.433286 0.706573 0.412824
O O1 0.250000 0.250000 0.670103
O O2 0.340746 0.274557 0.770964
O O3 0.373443 0.244441 0.632479
O O4 0.317870 0.000000 0.696413
O O5 0.557213 0.260283 0.861093
O O6 0.627442 0.000000 0.842851
O O7 0.656138 0.271346 0.922084
O O8 0.750000 0.750000 0.000000
O O9 0.829414 0.500000 0.000000
O O10 0.500000 0.000000 0.915517
O O11 0.500000 0.264818 0.000000
O O12 0.428236 0.763416 0.500000
O O13 0.500000 0.765384 0.384471
O O14 0.435040 0.500000 0.412626
#
# Coordination Sequence:
#
# PCOD9484073 Si02
#       5
#    16  16   8   8  16
#     4  11  23  37  56  85 119 153 192 237 283 334
#     4   9  18  30  48  76 108 141 182 229 277 328
#     4  10  18  31  49  71  99 140 185 224 270 321
#     4   9  14  26  48  74 103 136 179 233 284 330
#     4   9  20  41  66  89 115 148 184 225 280 344
#
# _framework density 20.800663
#
# number of rings (size 3 to 8) (size 9 to 14) (size 15 to 20)
#    0.000    2.375    1.250    2.250    1.750    1.500 
#    0.000    2.500    0.000    0.000    0.000    0.875 
#    0.000    0.000    0.000    0.000    0.000    0.000 
#
# Total GULP energy -178313.888289 kJ/mol
# GULP energy per Si atom -5572.309009 kJ/mol
# Density = 2.075332 g / cm^3
# Si number density = 20.800663 Si / 1000 Ang^3
#
#
#
# Elastic Constant Matrix: (Units=GPa)
#
#
# Indices 1 2 3 4 5 6 
#
# 1 236.9022 12.2440 99.7761 0.0000 0.0000 0.0000
# 2 12.2440 30.9577 11.4136 0.0000 0.0000 0.0000
# 3 99.7761 11.4136 115.0429 0.0000 0.0000 0.0000
# 4 0.0000 0.0000 0.0000 15.1568 0.0000 0.0000
# 5 0.0000 0.0000 0.0000 0.0000 99.7567 0.0000
# 6 0.0000 0.0000 0.0000 0.0000 0.0000 15.8349
#
#
#
# Elastic Compliance Matrix: (Units=1/GPa)
#
#
# Indices 1 2 3 4 5 6 
#
# 1 0.006659 -0.000524 -0.005723 0.000000 0.000000 0.000000
# 2 -0.000524 0.033570 -0.002876 0.000000 0.000000 0.000000
# 3 -0.005723 -0.002876 0.013941 0.000000 0.000000 0.000000
# 4 0.000000 0.000000 0.000000 0.065977 0.000000 0.000000
# 5 0.000000 0.000000 0.000000 0.000000 0.010024 0.000000
# 6 0.000000 0.000000 0.000000 0.000000 0.000000 0.063152
#
#
# Mechanical properties :
#
#
# Convention : Reuss Voigt Hill
#
# Bulk Modulus (GPa) = 27.83682 69.97447 48.90565
# Shear Modulus (GPa) = 22.36703 43.44761 32.90732
#
# Velocity S-wave (km/s) = 3.28274 4.57525 3.98179
# Velocity P-wave (km/s) = 5.27069 7.85010 6.68597
#
# Compressibility (1/GPa) = 0.03592364
#
# Stress axis : x y z
#
# Youngs Moduli (GPa) = 150.18243 29.78874 71.72922
#
# Poissons Ratio (x) = 0.01560 0.41051
# Poissons Ratio (y) = 0.07863 0.20633
# Poissons Ratio (z) = 0.85949 0.08569
#
# Static dielectric constant tensor:
#      x y z
#    x 1.883020 0.000000 0.000000 
#    y 0.000000 1.765160 0.000000 
#    z 0.000000 0.000000 1.724590 
# 
# From -- ./inp_files/41922.got.cif
#   From: 2010.05.17/outbox.cif.g08.bks.cpg/sg65_21_cif.got.tgz:41922.got - 2010.06.03 17:01:31.
