data_PCOD9484526
_publ_section_title
;
Structure prediction by ZEFSAII (Michael W. Deem and Ramdas Pophale) SiO2 
 PCOD9484526
Probable space group: C M M M
;
_chemical_formula_sum "Si O2"
_cell_formula_units_Z 104
_cell_length_a 26.269488
_cell_length_b 25.969037
_cell_length_c 8.901107
_cell_angle_alpha 90.000000
_cell_angle_beta 90.000000
_cell_angle_gamma 90.000000
_cell_volume 6072.275610
_symmetry_space_group_name_H-M "C M M M"
_symmetry_group_IT_number 65
_symmetry_cell_setting 'orthorhombic'
loop_
_space_group_symop_operation_xyz
x,y,z
-x,-y,z
x,-y,-z
-x,y,-z
-x,-y,-z
x,y,-z
-x,y,z
x,-y,z
1/2+x,1/2+y,z
1/2-x,1/2-y,z
1/2+x,1/2-y,-z
1/2-x,1/2+y,-z
1/2-x,1/2-y,-z
1/2+x,1/2+y,-z
1/2-x,1/2+y,z
1/2+x,1/2-y,z
loop_
_atom_site_type_symbol
_atom_site_label
_atom_site_fract_x
_atom_site_fract_y
_atom_site_fract_z
Si Si1 0.058158 0.938006 0.832602
Si Si2 0.714012 0.500000 0.180033
Si Si3 0.394104 0.898685 0.182911
Si Si4 0.300356 0.690866 0.181365
Si Si5 0.153390 0.093405 0.673763
Si Si6 0.000000 0.438127 0.318660
Si Si7 0.816986 0.308277 0.818054
Si Si8 0.830438 0.500000 0.818140
O O1 0.094623 0.918052 0.705053
O O2 0.000000 0.921365 0.816794
O O3 0.058968 0.000000 0.829734
O O4 0.076629 0.922439 0.000000
O O5 0.685088 0.449982 0.238945
O O6 0.772311 0.500000 0.233582
O O7 0.713206 0.500000 0.000000
O O8 0.449521 0.909935 0.253593
O O9 0.361377 0.847876 0.230615
O O10 0.360102 0.948420 0.225575
O O11 0.399099 0.897318 0.000000
O O12 0.334079 0.648192 0.257250
O O13 0.241471 0.678706 0.224992
O O14 0.319346 0.748022 0.224969
O O15 0.302203 0.688280 0.000000
O O16 0.166054 0.090762 0.500000
O O17 0.000000 0.500000 0.277369
O O18 0.000000 0.435547 0.500000
O O19 0.818190 0.310173 0.000000
O O20 0.829094 0.500000 0.000000
#
# Coordination Sequence:
#
# PCOD9484526 Si02
#       8
#    16   8  16  16  16   8  16   8
#     4   9  18  34  56  77  96 128 175 217 255 304
#     4  11  21  35  53  75 107 146 180 214 259 316
#     4  10  18  33  57  83 106 133 177 229 274 315
#     4   9  17  34  58  80 107 142 178 221 269 319
#     4  12  23  33  48  78 113 143 173 213 263 322
#     4  11  23  37  51  75 111 151 189 218 265 332
#     4   8  16  32  58  86 105 132 182 231 267 312
#     4   9  18  30  52  82 107 132 168 215 267 316
#
# _framework density 17.127023000000001
#
# number of rings (size 3 to 8) (size 9 to 14) (size 15 to 20)
#    0.000    2.231    1.538    4.154    0.000    3.077 
#    0.000    6.923    1.692    0.000    0.000    0.000 
#    0.000    0.000    0.000    0.000    0.000    0.000 
#
# Total GULP energy -289804.715759 kJ/mol
# GULP energy per Si atom -5573.167611 kJ/mol
# Density = 1.708804 g / cm^3
# Si number density = 17.127023 Si / 1000 Ang^3
#
#
#
# Elastic Constant Matrix: (Units=GPa)
#
#
# Indices 1 2 3 4 5 6 
#
# 1 112.0968 63.6890 31.1863 0.0000 0.0000 0.0000
# 2 63.6890 94.6638 30.6667 0.0000 0.0000 0.0000
# 3 31.1863 30.6667 40.0894 0.0000 0.0000 0.0000
# 4 0.0000 0.0000 0.0000 -21.9624 0.0000 0.0000
# 5 0.0000 0.0000 0.0000 0.0000 -15.7954 0.0000
# 6 0.0000 0.0000 0.0000 0.0000 0.0000 13.0993
#
#
#
# Elastic Compliance Matrix: (Units=1/GPa)
#
#
# Indices 1 2 3 4 5 6 
#
# 1 0.015255 -0.008534 -0.005339 0.000000 0.000000 0.000000
# 2 -0.008534 0.018818 -0.007756 0.000000 0.000000 0.000000
# 3 -0.005339 -0.007756 0.035031 0.000000 0.000000 0.000000
# 4 0.000000 0.000000 0.000000 -0.045532 0.000000 0.000000
# 5 0.000000 0.000000 0.000000 0.000000 -0.063310 0.000000
# 6 0.000000 0.000000 0.000000 0.000000 0.000000 0.076340
#
#
# Mechanical properties :
#
#
# Convention : Reuss Voigt Hill
#
# Bulk Modulus (GPa) = 38.69176 55.32600 47.00888
# Shear Modulus (GPa) = 56.51354 3.15550 29.83452
#
# Velocity S-wave (km/s) = 5.75051 1.35883 4.17820
# Velocity P-wave (km/s) = 8.16892 5.90215 7.12624
#
# Compressibility (1/GPa) = 0.02584529
#
# Stress axis : x y z
#
# Youngs Moduli (GPa) = 65.55350 53.14128 28.54629
#
# Poissons Ratio (x) = 0.45349 0.15241
# Poissons Ratio (y) = 0.55941 0.22141
# Poissons Ratio (z) = 0.34999 0.41218
#
# Static dielectric constant tensor:
#      x y z
#    x 1.590450 0.000000 0.000000 
#    y 0.000000 1.550530 0.000000 
#    z 0.000000 0.000000 1.579530 
# 
# From -- ./inp_files/14850.got.cif
#   From: 2010.05.17/outbox.cif.g08.bks.cpg/sg65_8_cif.got.tgz:14850.got - 2010.06.03 17:01:31.
