data_PCOD9484066
_publ_section_title
;
Structure prediction by ZEFSAII (Michael W. Deem and Ramdas Pophale) SiO2 
 PCOD9484066
Probable space group: C M M M
;
_chemical_formula_sum "Si O2"
_cell_formula_units_Z 80
_cell_length_a 14.936029
_cell_length_b 18.345354
_cell_length_c 16.131398
_cell_angle_alpha 90.000000
_cell_angle_beta 90.000000
_cell_angle_gamma 90.000000
_cell_volume 4420.111767
_symmetry_space_group_name_H-M "C M M M"
_symmetry_group_IT_number 65
_symmetry_cell_setting 'orthorhombic'
loop_
_space_group_symop_operation_xyz
x,y,z
-x,-y,z
x,-y,-z
-x,y,-z
-x,-y,-z
x,y,-z
-x,y,z
x,-y,z
1/2+x,1/2+y,z
1/2-x,1/2-y,z
1/2+x,1/2-y,-z
1/2-x,1/2+y,-z
1/2-x,1/2-y,-z
1/2+x,1/2+y,-z
1/2-x,1/2+y,z
1/2+x,1/2-y,z
loop_
_atom_site_type_symbol
_atom_site_label
_atom_site_fract_x
_atom_site_fract_y
_atom_site_fract_z
Si Si1 0.643008 0.262260 0.589606
Si Si2 0.396098 0.418992 0.654715
Si Si3 0.735042 0.583465 0.186382
Si Si4 0.347779 0.789056 0.765579
Si Si5 0.400905 0.681230 0.905792
O O1 0.607740 0.237343 0.500000
O O2 0.750000 0.250000 0.587672
O O3 0.623805 0.348364 0.599813
O O4 0.611191 0.223622 0.674477
O O5 0.500000 0.414154 0.681143
O O6 0.383847 0.500000 0.616707
O O7 0.330509 0.414235 0.733318
O O8 0.752533 0.500000 0.165345
O O9 0.823449 0.628787 0.210282
O O10 0.678119 0.625535 0.116725
O O11 0.250000 0.750000 0.762027
O O12 0.396327 0.745912 0.838708
O O13 0.500000 0.646766 0.899196
O O14 0.389911 0.707768 0.000000
#
# Coordination Sequence:
#
# PCOD9484066 Si02
#       5
#    16  16  16  16  16
#     4  10  18  31  49  69  97 135 175 208 242 290
#     4  10  19  31  48  72 104 135 161 200 254 304
#     4  10  19  32  50  73 102 135 169 204 247 299
#     4   9  17  33  50  70  96 132 170 211 246 292
#     4  10  20  33  52  77 103 133 167 205 254 305
#
# _framework density 18.09909
#
# number of rings (size 3 to 8) (size 9 to 14) (size 15 to 20)
#    0.000    2.200    6.000    0.600    0.000    6.000 
#    0.000    2.000    0.000    1.200    0.000    1.400 
#    0.000    0.800    0.000    8.400    0.000    0.000 
#
# Total GULP energy -222793.989348 kJ/mol
# GULP energy per Si atom -5569.849734 kJ/mol
# Density = 1.805790 g / cm^3
# Si number density = 18.099090 Si / 1000 Ang^3
#
#
#
# Elastic Constant Matrix: (Units=GPa)
#
#
# Indices 1 2 3 4 5 6 
#
# 1 33.8225 32.0823 17.9076 0.0000 0.0000 0.0000
# 2 32.0823 114.1001 42.2078 0.0000 0.0000 0.0000
# 3 17.9076 42.2078 143.8406 0.0000 0.0000 0.0000
# 4 0.0000 0.0000 0.0000 15.6426 0.0000 0.0000
# 5 0.0000 0.0000 0.0000 0.0000 44.6449 0.0000
# 6 0.0000 0.0000 0.0000 0.0000 0.0000 20.8890
#
#
#
# Elastic Compliance Matrix: (Units=1/GPa)
#
#
# Indices 1 2 3 4 5 6 
#
# 1 0.040788 -0.010758 -0.001921 0.000000 0.000000 0.000000
# 2 -0.010758 0.012669 -0.002378 0.000000 0.000000 0.000000
# 3 -0.001921 -0.002378 0.007889 0.000000 0.000000 0.000000
# 4 0.000000 0.000000 0.000000 0.063928 0.000000 0.000000
# 5 0.000000 0.000000 0.000000 0.000000 0.022399 0.000000
# 6 0.000000 0.000000 0.000000 0.000000 0.000000 0.047872
#
#
# Mechanical properties :
#
#
# Convention : Reuss Voigt Hill
#
# Bulk Modulus (GPa) = 32.01921 52.90652 42.46286
# Shear Modulus (GPa) = 21.18019 29.53967 25.35993
#
# Velocity S-wave (km/s) = 3.42458 4.04432 3.74728
# Velocity P-wave (km/s) = 5.77637 7.14869 6.49885
#
# Compressibility (1/GPa) = 0.03123125
#
# Stress axis : x y z
#
# Youngs Moduli (GPa) = 24.51717 78.93390 126.75635
#
# Poissons Ratio (x) = 0.84916 0.24352
# Poissons Ratio (y) = 0.26375 0.30145
# Poissons Ratio (z) = 0.04710 0.18772
#
# Static dielectric constant tensor:
#      x y z
#    x 1.637290 0.000000 0.000000 
#    y 0.000000 1.637110 0.000000 
#    z 0.000000 0.000000 1.660900 
# 
# From -- ./inp_files/42352.got.cif
#   From: 2010.05.17/outbox.cif.g08.bks.cpg/sg65_22_cif.got.tgz:42352.got - 2010.06.03 17:01:31.
