data_PCOD9484671
_publ_section_title
;
Structure prediction by ZEFSAII (Michael W. Deem and Ramdas Pophale) SiO2 
 PCOD9484671
Probable space group: C M M M
;
_chemical_formula_sum "Si O2"
_cell_formula_units_Z 108
_cell_length_a 21.406212
_cell_length_b 14.934927
_cell_length_c 15.940450
_cell_angle_alpha 90.000000
_cell_angle_beta 90.000000
_cell_angle_gamma 90.000000
_cell_volume 5096.165269
_symmetry_space_group_name_H-M "C M M M"
_symmetry_group_IT_number 65
_symmetry_cell_setting 'orthorhombic'
loop_
_space_group_symop_operation_xyz
x,y,z
-x,-y,z
x,-y,-z
-x,y,-z
-x,-y,-z
x,y,-z
-x,y,z
x,-y,z
1/2+x,1/2+y,z
1/2-x,1/2-y,z
1/2+x,1/2-y,-z
1/2-x,1/2+y,-z
1/2-x,1/2-y,-z
1/2+x,1/2+y,-z
1/2-x,1/2+y,z
1/2+x,1/2-y,z
loop_
_atom_site_type_symbol
_atom_site_label
_atom_site_fract_x
_atom_site_fract_y
_atom_site_fract_z
Si Si1 0.927003 0.609151 0.593044
Si Si2 0.000000 0.891358 0.903717
Si Si3 0.259464 0.643699 0.407730
Si Si4 0.093594 0.105461 0.591620
Si Si5 0.891270 0.109415 0.224246
Si Si6 0.724405 0.500000 0.000000
Si Si7 0.164688 0.598634 0.271532
Si Si8 0.237110 0.846279 0.859664
O O1 0.906872 0.640309 0.500000
O O2 0.920221 0.500000 0.593181
O O3 0.888264 0.645417 0.671953
O O4 0.000000 0.628713 0.601679
O O5 0.938490 0.866429 0.850937
O O6 0.000000 0.000000 0.906697
O O7 0.000000 0.859328 0.000000
O O8 0.235076 0.620929 0.500000
O O9 0.250000 0.750000 0.394848
O O10 0.331586 0.617802 0.407073
O O11 0.220694 0.593881 0.338327
O O12 0.072394 0.142570 0.500000
O O13 0.078391 0.137026 0.686009
O O14 0.077955 0.000000 0.589783
O O15 0.822974 0.149822 0.203454
O O16 0.884807 0.000000 0.226469
O O17 0.725039 0.422420 0.926820
O O18 0.141463 0.500000 0.248172
O O19 0.198785 0.637898 0.191686
O O20 0.250000 0.750000 0.898454
#
# Coordination Sequence:
#
# PCOD9484671 Si02
#       8
#    16   8  16  16  16   4  16  16
#     4   8  15  28  49  81 120 164 217 267 304 351
#     4   9  20  34  59  87 115 157 206 268 334 386
#     4  10  19  28  42  72 111 151 194 241 288 342
#     4   9  17  29  47  72 108 155 197 236 289 356
#     4  10  19  36  59  89 126 160 205 260 317 382
#     4  12  26  48  64  95 123 162 194 254 328 404
#     4  11  19  32  53  82 115 157 199 250 308 368
#     4  12  25  41  66  94 127 161 197 255 321 392
#
# _framework density 21.192405000000001
#
# number of rings (size 3 to 8) (size 9 to 14) (size 15 to 20)
#    0.000    2.000    2.963    2.000    1.037    1.481 
#    0.000    0.370    1.630    2.222    0.000    1.037 
#    0.000    0.000    0.000    0.000    0.000    0.148 
#
# Total GULP energy -300655.688889 kJ/mol
# GULP energy per Si atom -5567.697942 kJ/mol
# Density = 2.114417 g / cm^3
# Si number density = 21.192405 Si / 1000 Ang^3
#
#
#
# Elastic Constant Matrix: (Units=GPa)
#
#
# Indices 1 2 3 4 5 6 
#
# 1 93.9114 -5.1812 29.7661 0.0000 0.0000 0.0000
# 2 -5.1812 74.2627 20.9262 0.0000 0.0000 0.0000
# 3 29.7661 20.9262 158.9225 0.0000 0.0000 0.0000
# 4 0.0000 0.0000 0.0000 209.9608 0.0000 0.0000
# 5 0.0000 0.0000 0.0000 0.0000 -662.2602 0.0000
# 6 0.0000 0.0000 0.0000 0.0000 0.0000 -53.9139
#
#
#
# Elastic Compliance Matrix: (Units=1/GPa)
#
#
# Indices 1 2 3 4 5 6 
#
# 1 0.011471 0.001460 -0.002341 0.000000 0.000000 0.000000
# 2 0.001460 0.014170 -0.002139 0.000000 0.000000 0.000000
# 3 -0.002341 -0.002139 0.007012 0.000000 0.000000 0.000000
# 4 0.000000 0.000000 0.000000 0.004763 0.000000 0.000000
# 5 0.000000 0.000000 0.000000 0.000000 -0.001510 0.000000
# 6 0.000000 0.000000 0.000000 0.000000 0.000000 -0.018548
#
#
# Mechanical properties :
#
#
# Convention : Reuss Voigt Hill
#
# Bulk Modulus (GPa) = 37.57511 46.45764 42.01637
# Shear Modulus (GPa) = 154.94367 -82.47027 36.23670
#
# Velocity S-wave (km/s) = 8.55988 -6.24496 4.13957
# Velocity P-wave (km/s) = 10.74543 5.47995 6.53584
#
# Compressibility (1/GPa) = 0.02661336
#
# Stress axis : x y z
#
# Youngs Moduli (GPa) = 87.17795 70.56969 142.60287
#
# Poissons Ratio (x) = -0.10302 0.33379
# Poissons Ratio (y) = -0.12727 0.30507
# Poissons Ratio (z) = 0.20406 0.15097
#
# Static dielectric constant tensor:
#      x y z
#    x 1.772280 0.000000 0.000000 
#    y 0.000000 1.790120 0.000000 
#    z 0.000000 0.000000 1.807070 
# 
# From -- ./inp_files/45824.got.cif
#   From: 2010.05.17/outbox.cif.g08.bks.cpg/sg65_23_cif.got.tgz:45824.got - 2010.06.03 17:01:31.
