data_PCOD9484074
_publ_section_title
;
Structure prediction by ZEFSAII (Michael W. Deem and Ramdas Pophale) SiO2 
 PCOD9484074
Probable space group: C M M M
;
_chemical_formula_sum "Si O2"
_cell_formula_units_Z 96
_cell_length_a 8.482238
_cell_length_b 29.821841
_cell_length_c 21.077836
_cell_angle_alpha 90.000000
_cell_angle_beta 90.000000
_cell_angle_gamma 90.000000
_cell_volume 5331.764092
_symmetry_space_group_name_H-M "C M M M"
_symmetry_group_IT_number 65
_symmetry_cell_setting 'orthorhombic'
loop_
_space_group_symop_operation_xyz
x,y,z
-x,-y,z
x,-y,-z
-x,y,-z
-x,-y,-z
x,y,-z
-x,y,z
x,-y,z
1/2+x,1/2+y,z
1/2-x,1/2-y,z
1/2+x,1/2-y,-z
1/2-x,1/2+y,-z
1/2-x,1/2-y,-z
1/2+x,1/2+y,-z
1/2-x,1/2+y,z
1/2+x,1/2-y,z
loop_
_atom_site_type_symbol
_atom_site_label
_atom_site_fract_x
_atom_site_fract_y
_atom_site_fract_z
Si Si1 0.190205 0.448510 0.073390
Si Si2 0.688249 0.611268 0.813667
Si Si3 0.307534 0.448539 0.306693
Si Si4 0.192537 0.893484 0.429789
Si Si5 0.686784 0.202475 0.235150
Si Si6 0.188308 0.798037 0.378815
O O1 0.236331 0.500000 0.088573
O O2 0.264908 0.414340 0.122579
O O3 0.000000 0.446072 0.077676
O O4 0.233330 0.439847 0.000000
O O5 0.500000 0.615884 0.809701
O O6 0.741656 0.580912 0.753714
O O7 0.763697 0.660076 0.806355
O O8 0.500000 0.448720 0.306823
O O9 0.255243 0.500000 0.302076
O O10 0.255717 0.424897 0.371904
O O11 0.243020 0.907806 0.500000
O O12 0.241791 0.842190 0.416217
O O13 0.000000 0.893880 0.428929
O O14 0.500000 0.204901 0.241619
O O15 0.750000 0.250000 0.210214
O O16 0.759492 0.196565 0.305602
O O17 0.250000 0.750000 0.402044
O O18 0.000000 0.796847 0.380612
#
# Coordination Sequence:
#
# PCOD9484074 Si02
#       6
#    16  16  16  16  16  16
#     4   9  19  36  56  81 116 154 188 222 263 313
#     4  11  20  33  54  82 112 142 178 223 270 316
#     4   9  17  29  46  71 102 134 172 219 266 310
#     4   9  17  29  45  67  99 136 173 217 269 319
#     4  11  21  34  54  79 106 138 175 217 269 323
#     4  10  18  31  49  72 100 131 168 216 270 324
#
# _framework density 18.005298
#
# number of rings (size 3 to 8) (size 9 to 14) (size 15 to 20)
#    0.000    2.167    1.667    4.500    0.000    2.000 
#    0.000    2.500    0.000    2.000    0.000    0.000 
#    0.000    1.333    0.000    0.000    0.000    0.000 
#
# Total GULP energy -267921.300130 kJ/mol
# GULP energy per Si atom -5581.693753 kJ/mol
# Density = 1.796432 g / cm^3
# Si number density = 18.005298 Si / 1000 Ang^3
#
#
#
# Elastic Constant Matrix: (Units=GPa)
#
#
# Indices 1 2 3 4 5 6 
#
# 1 31.4541 19.8652 9.4680 0.0000 0.0000 0.0000
# 2 19.8652 133.4473 58.4513 0.0000 0.0000 0.0000
# 3 9.4680 58.4513 79.8009 0.0000 0.0000 0.0000
# 4 0.0000 0.0000 0.0000 24.5199 0.0000 0.0000
# 5 0.0000 0.0000 0.0000 0.0000 12.5370 0.0000
# 6 0.0000 0.0000 0.0000 0.0000 0.0000 -52.9835
#
#
#
# Elastic Compliance Matrix: (Units=1/GPa)
#
#
# Indices 1 2 3 4 5 6 
#
# 1 0.035105 -0.005008 -0.000497 0.000000 0.000000 0.000000
# 2 -0.005008 0.011748 -0.008011 0.000000 0.000000 0.000000
# 3 -0.000497 -0.008011 0.018458 0.000000 0.000000 0.000000
# 4 0.000000 0.000000 0.000000 0.040783 0.000000 0.000000
# 5 0.000000 0.000000 0.000000 0.000000 0.079764 0.000000
# 6 0.000000 0.000000 0.000000 0.000000 0.000000 -0.018874
#
#
# Mechanical properties :
#
#
# Convention : Reuss Voigt Hill
#
# Bulk Modulus (GPa) = 26.12386 46.69682 36.41034
# Shear Modulus (GPa) = 24.18089 7.27587 15.72838
#
# Velocity S-wave (km/s) = 3.66866 2.01239 2.95878
# Velocity P-wave (km/s) = 5.69964 5.60277 5.65141
#
# Compressibility (1/GPa) = 0.03827918
#
# Stress axis : x y z
#
# Youngs Moduli (GPa) = 28.48608 85.12160 54.17805
#
# Poissons Ratio (x) = 0.42631 0.02691
# Poissons Ratio (y) = 0.14266 0.43400
# Poissons Ratio (z) = 0.01415 0.68188
#
# Static dielectric constant tensor:
#      x y z
#    x 1.619040 0.000000 0.000000 
#    y 0.000000 1.614450 0.000000 
#    z 0.000000 0.000000 1.598790 
# 
# From -- ./inp_files/60284.got.cif
#   From: 2010.05.17/outbox.cif.g08.bks.cpg/sg65_31_cif.got.tgz:60284.got - 2010.06.03 17:01:31.
