data_PCOD9484833
_publ_section_title
;
Structure prediction by ZEFSAII (Michael W. Deem and Ramdas Pophale) SiO2 
 PCOD9484833
Probable space group: C M M M
;
_chemical_formula_sum "Si O2"
_cell_formula_units_Z 88
_cell_length_a 15.834021
_cell_length_b 7.357165
_cell_length_c 33.605992
_cell_angle_alpha 90.000000
_cell_angle_beta 90.000000
_cell_angle_gamma 90.000000
_cell_volume 3914.879801
_symmetry_space_group_name_H-M "C M M M"
_symmetry_group_IT_number 65
_symmetry_cell_setting 'orthorhombic'
loop_
_space_group_symop_operation_xyz
x,y,z
-x,-y,z
x,-y,-z
-x,y,-z
-x,-y,-z
x,y,-z
-x,y,z
x,-y,z
1/2+x,1/2+y,z
1/2-x,1/2-y,z
1/2+x,1/2-y,-z
1/2-x,1/2+y,-z
1/2-x,1/2-y,-z
1/2+x,1/2+y,-z
1/2-x,1/2+y,z
1/2+x,1/2-y,z
loop_
_atom_site_type_symbol
_atom_site_label
_atom_site_fract_x
_atom_site_fract_y
_atom_site_fract_z
Si Si1 0.349220 0.716351 0.000000
Si Si2 0.851075 0.783049 0.542671
Si Si3 0.149739 0.217543 0.369901
Si Si4 0.000000 0.222315 0.312922
Si Si5 0.842952 0.216385 0.830878
Si Si6 0.402453 0.281259 0.086107
Si Si7 0.500000 0.277341 0.221503
O O1 0.250000 0.750000 0.000000
O O2 0.383243 0.789281 0.041964
O O3 0.367850 0.500000 0.000000
O O4 0.884192 0.713217 0.500000
O O5 0.750000 0.750000 0.542167
O O6 0.877057 0.713215 0.586075
O O7 0.865917 0.000000 0.542604
O O8 0.250000 0.250000 0.363131
O O9 0.084325 0.281282 0.336506
O O10 0.141390 0.000000 0.371408
O O11 0.000000 0.280813 0.267191
O O12 0.000000 0.000000 0.312713
O O13 0.750000 0.250000 0.814733
O O14 0.850205 0.288197 0.876183
O O15 0.917372 0.283317 0.802641
O O16 0.855116 0.000000 0.833825
O O17 0.500000 0.248881 0.095726
O O18 0.389710 0.500000 0.083804
O O19 0.500000 0.500000 0.221677
#
# Coordination Sequence:
#
# PCOD9484833 Si02
#       7
#     8  16  16   8  16  16   8
#     4  10  19  29  45  69  97 126 160 199 235 273
#     4   8  13  22  38  61  88 118 151 187 228 272
#     4   9  17  30  48  69  94 124 158 195 234 280
#     4   9  18  32  50  71  95 124 159 195 237 288
#     4  10  19  33  54  76  98 126 161 199 239 285
#     4   9  16  29  49  71  94 125 165 199 228 275
#     4   9  18  34  53  71  95 129 161 191 235 296
#
# _framework density 22.478338999999998
#
# number of rings (size 3 to 8) (size 9 to 14) (size 15 to 20)
#    0.000    2.909    0.909    0.818    0.000    1.818 
#    0.000    1.364    0.000    6.000    0.000    0.000 
#    0.000   14.545    0.000    0.000    0.000    0.000 
#
# Total GULP energy -245476.923449 kJ/mol
# GULP energy per Si atom -5579.020987 kJ/mol
# Density = 2.242718 g / cm^3
# Si number density = 22.478339 Si / 1000 Ang^3
#
#
#
# Elastic Constant Matrix: (Units=GPa)
#
#
# Indices 1 2 3 4 5 6 
#
# 1 122.2967 -3.0767 106.5989 0.0000 0.0000 0.0000
# 2 -3.0767 86.3549 11.4991 0.0000 0.0000 0.0000
# 3 106.5989 11.4991 214.1866 0.0000 0.0000 0.0000
# 4 0.0000 0.0000 0.0000 -11.5734 0.0000 0.0000
# 5 0.0000 0.0000 0.0000 0.0000 7.0438 0.0000
# 6 0.0000 0.0000 0.0000 0.0000 0.0000 12.3994
#
#
#
# Elastic Compliance Matrix: (Units=1/GPa)
#
#
# Indices 1 2 3 4 5 6 
#
# 1 0.014633 0.001502 -0.007363 0.000000 0.000000 0.000000
# 2 0.001502 0.011818 -0.001382 0.000000 0.000000 0.000000
# 3 -0.007363 -0.001382 0.008408 0.000000 0.000000 0.000000
# 4 0.000000 0.000000 0.000000 -0.086405 0.000000 0.000000
# 5 0.000000 0.000000 0.000000 0.000000 0.141969 0.000000
# 6 0.000000 0.000000 0.000000 0.000000 0.000000 0.080649
#
#
# Mechanical properties :
#
#
# Convention : Reuss Voigt Hill
#
# Bulk Modulus (GPa) = 49.08840 72.54231 60.81536
# Shear Modulus (GPa) = 25.99464 22.09510 24.04487
#
# Velocity S-wave (km/s) = 3.40432 3.13861 3.27416
# Velocity P-wave (km/s) = 6.11049 6.74364 6.43485
#
# Compressibility (1/GPa) = 0.02037141
#
# Stress axis : x y z
#
# Youngs Moduli (GPa) = 68.34016 84.61922 118.93971
#
# Poissons Ratio (x) = -0.12708 0.87578
# Poissons Ratio (y) = -0.10264 0.16436
# Poissons Ratio (z) = 0.50320 0.11694
#
# Static dielectric constant tensor:
#      x y z
#    x 1.781270 0.000000 0.000000 
#    y 0.000000 1.841570 0.000000 
#    z 0.000000 0.000000 1.855780 
# 
# From -- ./inp_files/77600.got.cif
#   From: 2010.05.17/outbox.cif.g08.bks.cpg/sg65_39_cif.got.tgz:77600.got - 2010.06.03 17:01:31.
