data_PCOD9484001
_publ_section_title
;
Structure prediction by ZEFSAII (Michael W. Deem and Ramdas Pophale) SiO2 
 PCOD9484001
Probable space group: C M M M
;
_chemical_formula_sum "Si O2"
_cell_formula_units_Z 64
_cell_length_a 8.847193
_cell_length_b 28.161427
_cell_length_c 13.363436
_cell_angle_alpha 90.000000
_cell_angle_beta 90.000000
_cell_angle_gamma 90.000000
_cell_volume 3329.494464
_symmetry_space_group_name_H-M "C M M M"
_symmetry_group_IT_number 65
_symmetry_cell_setting 'orthorhombic'
loop_
_space_group_symop_operation_xyz
x,y,z
-x,-y,z
x,-y,-z
-x,y,-z
-x,-y,-z
x,y,-z
-x,y,z
x,-y,z
1/2+x,1/2+y,z
1/2-x,1/2-y,z
1/2+x,1/2-y,-z
1/2-x,1/2+y,-z
1/2-x,1/2-y,-z
1/2+x,1/2+y,-z
1/2-x,1/2+y,z
1/2+x,1/2-y,z
loop_
_atom_site_type_symbol
_atom_site_label
_atom_site_fract_x
_atom_site_fract_y
_atom_site_fract_z
Si Si1 0.321253 0.396524 0.306929
Si Si2 0.677394 0.057342 0.112455
Si Si3 0.180644 0.554762 0.500000
Si Si4 0.681044 0.196694 0.000000
Si Si5 0.319607 0.301943 0.794108
O O1 0.500000 0.402752 0.319140
O O2 0.268905 0.421629 0.204511
O O3 0.238429 0.419075 0.401030
O O4 0.290734 0.340438 0.291713
O O5 0.500000 0.070576 0.122112
O O6 0.685153 0.000000 0.116946
O O7 0.727225 0.071495 0.000000
O O8 0.233601 0.500000 0.500000
O O9 0.000000 0.554614 0.500000
O O10 0.750000 0.250000 0.000000
O O11 0.744493 0.177431 0.895747
O O12 0.500000 0.196934 0.000000
O O13 0.500000 0.297412 0.809580
O O14 0.250000 0.250000 0.775014
#
# Coordination Sequence:
#
# PCOD9484001 Si02
#       5
#    16  16   8   8  16
#     4  11  24  39  60  89 120 153 196 248 300 353
#     4   9  19  36  57  84 119 156 195 239 290 355
#     4  11  25  45  68  91 116 151 198 247 294 357
#     4  10  18  30  52  80 113 156 199 240 288 341
#     4  10  21  37  56  83 120 158 199 245 292 347
#
# _framework density 19.222137
#
# number of rings (size 3 to 8) (size 9 to 14) (size 15 to 20)
#    0.000    1.875    0.000    6.000    1.750    9.000 
#    0.000    1.875    0.000    0.000    0.000    0.000 
#    0.000    0.000    0.000    0.000    0.000    0.000 
#
# Total GULP energy -178770.457141 kJ/mol
# GULP energy per Si atom -5586.576786 kJ/mol
# Density = 1.917839 g / cm^3
# Si number density = 19.222137 Si / 1000 Ang^3
#
#
#
# Elastic Constant Matrix: (Units=GPa)
#
#
# Indices 1 2 3 4 5 6 
#
# 1 91.6268 61.2749 59.3204 0.0000 0.0000 0.0000
# 2 61.2749 105.2063 75.0938 0.0000 0.0000 0.0000
# 3 59.3204 75.0938 137.2217 0.0000 0.0000 0.0000
# 4 0.0000 0.0000 0.0000 28.4722 0.0000 0.0000
# 5 0.0000 0.0000 0.0000 0.0000 76.9633 0.0000
# 6 0.0000 0.0000 0.0000 0.0000 0.0000 28.2478
#
#
#
# Elastic Compliance Matrix: (Units=1/GPa)
#
#
# Indices 1 2 3 4 5 6 
#
# 1 0.018856 -0.008474 -0.003514 0.000000 0.000000 0.000000
# 2 -0.008474 0.019406 -0.006957 0.000000 0.000000 0.000000
# 3 -0.003514 -0.006957 0.012614 0.000000 0.000000 0.000000
# 4 0.000000 0.000000 0.000000 0.035122 0.000000 0.000000
# 5 0.000000 0.000000 0.000000 0.000000 0.012993 0.000000
# 6 0.000000 0.000000 0.000000 0.000000 0.000000 0.035401
#
#
# Mechanical properties :
#
#
# Convention : Reuss Voigt Hill
#
# Bulk Modulus (GPa) = 77.00403 80.60365 78.80384
# Shear Modulus (GPa) = 28.31114 35.96104 32.13609
#
# Velocity S-wave (km/s) = 3.84192 4.32998 4.09323
# Velocity P-wave (km/s) = 7.73483 8.18670 7.96397
#
# Compressibility (1/GPa) = 0.01298633
#
# Stress axis : x y z
#
# Youngs Moduli (GPa) = 53.03448 51.53053 79.28004
#
# Poissons Ratio (x) = 0.43666 0.27859
# Poissons Ratio (y) = 0.44941 0.55152
# Poissons Ratio (z) = 0.18636 0.35848
#
# Static dielectric constant tensor:
#      x y z
#    x 1.643700 0.000000 0.000000 
#    y 0.000000 1.733090 0.000000 
#    z 0.000000 0.000000 1.654110 
# 
# From -- ./inp_files/20986.got.cif
#   From: 2010.05.17/outbox.cif.g08.bks.cpg/sg65_11_cif.got.tgz:20986.got - 2010.06.03 17:01:31.
