data_PCOD9484523
_publ_section_title
;
Structure prediction by ZEFSAII (Michael W. Deem and Ramdas Pophale) SiO2 
 PCOD9484523
Probable space group: C M M M
;
_chemical_formula_sum "Si O2"
_cell_formula_units_Z 88
_cell_length_a 18.431322
_cell_length_b 14.362824
_cell_length_c 14.772192
_cell_angle_alpha 90.000000
_cell_angle_beta 90.000000
_cell_angle_gamma 90.000000
_cell_volume 3910.580847
_symmetry_space_group_name_H-M "C M M M"
_symmetry_group_IT_number 65
_symmetry_cell_setting 'orthorhombic'
loop_
_space_group_symop_operation_xyz
x,y,z
-x,-y,z
x,-y,-z
-x,y,-z
-x,-y,-z
x,y,-z
-x,y,z
x,-y,z
1/2+x,1/2+y,z
1/2-x,1/2-y,z
1/2+x,1/2-y,-z
1/2-x,1/2+y,-z
1/2-x,1/2-y,-z
1/2+x,1/2+y,-z
1/2-x,1/2+y,z
1/2+x,1/2-y,z
loop_
_atom_site_type_symbol
_atom_site_label
_atom_site_fract_x
_atom_site_fract_y
_atom_site_fract_z
Si Si1 0.135498 0.894382 0.280175
Si Si2 0.371707 0.113519 0.100017
Si Si3 0.078291 0.612629 0.294963
Si Si4 0.726829 0.856513 0.601897
Si Si5 0.500000 0.385115 0.604221
Si Si6 0.202173 0.886133 0.899973
O O1 0.210487 0.899288 0.335698
O O2 0.071891 0.853741 0.341983
O O3 0.155158 0.850210 0.183698
O O4 0.111290 0.000000 0.260651
O O5 0.412644 0.143021 0.190435
O O6 0.286732 0.139850 0.109598
O O7 0.373889 0.000000 0.099330
O O8 0.397435 0.143367 0.000000
O O9 0.078440 0.500000 0.294459
O O10 0.148661 0.638846 0.351940
O O11 0.000000 0.643532 0.330961
O O12 0.725640 0.894803 0.500000
O O13 0.750000 0.750000 0.596351
O O14 0.500000 0.500000 0.600671
O O15 0.500000 0.354132 0.500000
O O16 0.201307 0.000000 0.896771
O O17 0.177210 0.857956 0.000000
#
# Coordination Sequence:
#
# PCOD9484523 Si02
#       6
#    16  16  16  16   8  16
#     4  10  18  33  57  79 102 135 176 225 273 318
#     4   8  13  24  46  79 115 144 173 215 267 323
#     4  10  20  35  58  88 117 145 183 232 282 330
#     4  11  24  40  55  75 105 144 187 224 270 338
#     4   9  18  30  47  77 105 125 167 229 276 303
#     4   8  13  23  45  76 105 134 170 213 263 320
#
# _framework density 22.503050999999999
#
# number of rings (size 3 to 8) (size 9 to 14) (size 15 to 20)
#    0.000    2.636    1.818    2.182    0.000    2.909 
#    1.636    3.182    0.000    4.909    0.000    0.000 
#    0.000    0.000    0.000    0.000    0.000    0.000 
#
# Total GULP energy -245767.160118 kJ/mol
# GULP energy per Si atom -5585.617275 kJ/mol
# Density = 2.245183 g / cm^3
# Si number density = 22.503051 Si / 1000 Ang^3
#
#
#
# Elastic Constant Matrix: (Units=GPa)
#
#
# Indices 1 2 3 4 5 6 
#
# 1 171.2882 9.8285 101.4556 0.0000 0.0000 0.0000
# 2 9.8285 61.0927 -2.6145 0.0000 0.0000 0.0000
# 3 101.4556 -2.6145 188.5489 0.0000 0.0000 0.0000
# 4 0.0000 0.0000 0.0000 -5.9738 0.0000 0.0000
# 5 0.0000 0.0000 0.0000 0.0000 19.8753 0.0000
# 6 0.0000 0.0000 0.0000 0.0000 0.0000 18.2350
#
#
#
# Elastic Compliance Matrix: (Units=1/GPa)
#
#
# Indices 1 2 3 4 5 6 
#
# 1 0.008724 -0.001605 -0.004716 0.000000 0.000000 0.000000
# 2 -0.001605 0.016674 0.001095 0.000000 0.000000 0.000000
# 3 -0.004716 0.001095 0.007857 0.000000 0.000000 0.000000
# 4 0.000000 0.000000 0.000000 -0.167398 0.000000 0.000000
# 5 0.000000 0.000000 0.000000 0.000000 0.050314 0.000000
# 6 0.000000 0.000000 0.000000 0.000000 0.000000 0.054840
#
#
# Mechanical properties :
#
#
# Convention : Reuss Voigt Hill
#
# Bulk Modulus (GPa) = 43.85829 70.91879 57.38854
# Shear Modulus (GPa) = -457.16788 27.24466 -214.96161
#
# Velocity S-wave (km/s) = -14.26882 3.48330 -9.78432
# Velocity P-wave (km/s) = 15.87241 6.91097 10.10376
#
# Compressibility (1/GPa) = 0.02280071
#
# Stress axis : x y z
#
# Youngs Moduli (GPa) = 114.62894 59.97475 127.28014
#
# Poissons Ratio (x) = 0.09628 0.60031
# Poissons Ratio (y) = 0.18402 -0.13937
# Poissons Ratio (z) = 0.54064 -0.06567
#
# Static dielectric constant tensor:
#      x y z
#    x 1.802010 0.000000 0.000000 
#    y 0.000000 1.927800 0.000000 
#    z 0.000000 0.000000 1.824130 
# 
# From -- ./inp_files/42536.got.cif
#   From: 2010.05.17/outbox.cif.g08.bks.cpg/sg65_22_cif.got.tgz:42536.got - 2010.06.03 17:01:31.
