data_PCOD9484191
_publ_section_title
;
Structure prediction by ZEFSAII (Michael W. Deem and Ramdas Pophale) SiO2 
 PCOD9484191
Probable space group: C M M M
;
_chemical_formula_sum "Si O2"
_cell_formula_units_Z 80
_cell_length_a 18.798670
_cell_length_b 21.571232
_cell_length_c 10.827041
_cell_angle_alpha 90.000000
_cell_angle_beta 90.000000
_cell_angle_gamma 90.000000
_cell_volume 4390.478505
_symmetry_space_group_name_H-M "C M M M"
_symmetry_group_IT_number 65
_symmetry_cell_setting 'orthorhombic'
loop_
_space_group_symop_operation_xyz
x,y,z
-x,-y,z
x,-y,-z
-x,y,-z
-x,-y,-z
x,y,-z
-x,y,z
x,-y,z
1/2+x,1/2+y,z
1/2-x,1/2-y,z
1/2+x,1/2-y,-z
1/2-x,1/2+y,-z
1/2-x,1/2-y,-z
1/2+x,1/2+y,-z
1/2-x,1/2+y,z
1/2+x,1/2-y,z
loop_
_atom_site_type_symbol
_atom_site_label
_atom_site_fract_x
_atom_site_fract_y
_atom_site_fract_z
Si Si1 0.080030 0.925543 0.000000
Si Si2 0.175106 0.616903 0.853601
Si Si3 0.676374 0.425786 0.761751
Si Si4 0.417238 0.336438 0.636850
Si Si5 0.084371 0.741517 0.858802
Si Si6 0.419601 0.000000 0.849987
O O1 0.125725 0.911638 0.879313
O O2 0.000000 0.898330 0.000000
O O3 0.072519 0.000000 0.000000
O O4 0.248738 0.608008 0.782705
O O5 0.133931 0.681547 0.841071
O O6 0.122887 0.561396 0.814384
O O7 0.190876 0.608339 0.000000
O O8 0.686428 0.500000 0.754397
O O9 0.633447 0.395477 0.650287
O O10 0.409102 0.308312 0.500000
O O11 0.500000 0.354966 0.650668
O O12 0.401218 0.289309 0.748547
O O13 0.000000 0.725052 0.852760
O O14 0.097015 0.765075 0.000000
O O15 0.500000 0.000000 0.803713
O O16 0.422470 0.000000 0.000000
#
# Coordination Sequence:
#
# PCOD9484191 Si02
#       6
#     8  16  16  16  16   8
#     4   9  18  30  48  75 106 144 184 226 273 327
#     4  10  18  31  52  83 122 154 183 231 291 338
#     4  11  21  34  54  82 117 149 185 234 288 343
#     4  10  23  42  61  81 109 150 197 242 292 345
#     4   9  19  36  59  86 115 149 194 241 282 336
#     4   9  16  26  48  80 117 158 191 223 275 343
#
# _framework density 18.221247999999999
#
# number of rings (size 3 to 8) (size 9 to 14) (size 15 to 20)
#    0.000    2.200    2.000    1.200    1.400    4.800 
#    0.000    5.000    0.000    0.000    0.000    0.000 
#    0.000    4.800    0.000    0.000    0.000    0.000 
#
# Total GULP energy -223123.268414 kJ/mol
# GULP energy per Si atom -5578.081710 kJ/mol
# Density = 1.817978 g / cm^3
# Si number density = 18.221248 Si / 1000 Ang^3
#
#
#
# Elastic Constant Matrix: (Units=GPa)
#
#
# Indices 1 2 3 4 5 6 
#
# 1 101.0812 43.6206 42.2320 0.0000 0.0000 0.0000
# 2 43.6206 75.4460 45.7030 0.0000 0.0000 0.0000
# 3 42.2320 45.7030 87.8179 0.0000 0.0000 0.0000
# 4 0.0000 0.0000 0.0000 11.4122 0.0000 0.0000
# 5 0.0000 0.0000 0.0000 0.0000 12.6189 0.0000
# 6 0.0000 0.0000 0.0000 0.0000 0.0000 15.1366
#
#
#
# Elastic Compliance Matrix: (Units=1/GPa)
#
#
# Indices 1 2 3 4 5 6 
#
# 1 0.013946 -0.005842 -0.003666 0.000000 0.000000 0.000000
# 2 -0.005842 0.021804 -0.008538 0.000000 0.000000 0.000000
# 3 -0.003666 -0.008538 0.017594 0.000000 0.000000 0.000000
# 4 0.000000 0.000000 0.000000 0.087625 0.000000 0.000000
# 5 0.000000 0.000000 0.000000 0.000000 0.079246 0.000000
# 6 0.000000 0.000000 0.000000 0.000000 0.000000 0.066065
#
#
# Mechanical properties :
#
#
# Convention : Reuss Voigt Hill
#
# Bulk Modulus (GPa) = 57.96741 58.60625 58.28683
# Shear Modulus (GPa) = 15.23814 16.68619 15.96216
#
# Velocity S-wave (km/s) = 2.89500 3.02943 2.96297
# Velocity P-wave (km/s) = 6.56177 6.66859 6.61539
#
# Compressibility (1/GPa) = 0.01725107
#
# Stress axis : x y z
#
# Youngs Moduli (GPa) = 71.70540 45.86219 56.83832
#
# Poissons Ratio (x) = 0.26794 0.20838
# Poissons Ratio (y) = 0.41892 0.48529
# Poissons Ratio (z) = 0.26289 0.39158
#
# Static dielectric constant tensor:
#      x y z
#    x 1.621620 0.000000 0.000000 
#    y 0.000000 1.623500 0.000000 
#    z 0.000000 0.000000 1.626410 
# 
# From -- ./inp_files/27025.got.cif
#   From: 2010.05.17/outbox.cif.g08.bks.cpg/sg65_14_cif.got.tgz:27025.got - 2010.06.03 17:01:31.
