data_PCOD9484167
_publ_section_title
;
Structure prediction by ZEFSAII (Michael W. Deem and Ramdas Pophale) SiO2 
 PCOD9484167
Probable space group: C M M M
;
_chemical_formula_sum "Si O2"
_cell_formula_units_Z 96
_cell_length_a 29.567444
_cell_length_b 7.616103
_cell_length_c 21.416921
_cell_angle_alpha 90.000000
_cell_angle_beta 90.000000
_cell_angle_gamma 90.000000
_cell_volume 4822.848576
_symmetry_space_group_name_H-M "C M M M"
_symmetry_group_IT_number 65
_symmetry_cell_setting 'orthorhombic'
loop_
_space_group_symop_operation_xyz
x,y,z
-x,-y,z
x,-y,-z
-x,y,-z
-x,-y,-z
x,y,-z
-x,y,z
x,-y,z
1/2+x,1/2+y,z
1/2-x,1/2-y,z
1/2+x,1/2-y,-z
1/2-x,1/2+y,-z
1/2-x,1/2-y,-z
1/2+x,1/2+y,-z
1/2-x,1/2+y,z
1/2+x,1/2-y,z
loop_
_atom_site_type_symbol
_atom_site_label
_atom_site_fract_x
_atom_site_fract_y
_atom_site_fract_z
Si Si1 0.699746 0.209162 0.110402
Si Si2 0.552339 0.287072 0.808508
Si Si3 0.200025 0.710588 0.746133
Si Si4 0.609648 0.207337 0.685968
Si Si5 0.551925 0.214600 0.570692
Si Si6 0.397769 0.705702 0.932589
O O1 0.750000 0.250000 0.085967
O O2 0.697580 0.276623 0.182219
O O3 0.656301 0.281444 0.075175
O O4 0.694921 0.000000 0.110815
O O5 0.500000 0.233144 0.809111
O O6 0.553861 0.500000 0.808131
O O7 0.577567 0.226686 0.746164
O O8 0.578415 0.221871 0.870476
O O9 0.195481 0.500000 0.749973
O O10 0.250000 0.750000 0.721670
O O11 0.158513 0.780540 0.705599
O O12 0.585089 0.279755 0.624674
O O13 0.615910 0.000000 0.674307
O O14 0.563841 0.267466 0.500000
O O15 0.500000 0.267765 0.583190
O O16 0.552108 0.000000 0.571786
O O17 0.409879 0.500000 0.934027
O O18 0.410723 0.782667 0.000000
#
# Coordination Sequence:
#
# PCOD9484167 Si02
#       6
#    16  16  16  16  16  16
#     4  10  19  33  52  74  99 126 159 201 248 300
#     4  10  21  35  51  73  99 127 162 203 246 293
#     4   9  18  30  47  72  98 125 159 197 242 290
#     4  10  18  31  52  77 101 128 164 205 245 286
#     4   8  14  25  44  73 105 133 162 198 240 284
#     4  10  21  36  52  70  95 129 166 203 246 294
#
# _framework density 19.905249000000001
#
# number of rings (size 3 to 8) (size 9 to 14) (size 15 to 20)
#    0.000    2.500    1.667    1.500    0.000    3.333 
#    0.000    1.667    0.000    1.000    0.000    4.667 
#    0.000    0.000    0.000    0.000    0.000    0.000 
#
# Total GULP energy -267885.510203 kJ/mol
# GULP energy per Si atom -5580.948129 kJ/mol
# Density = 1.985994 g / cm^3
# Si number density = 19.905249 Si / 1000 Ang^3
#
#
#
# Elastic Constant Matrix: (Units=GPa)
#
#
# Indices 1 2 3 4 5 6 
#
# 1 115.4970 -12.6929 68.4254 0.0000 0.0000 0.0000
# 2 -12.6929 40.1822 -5.7810 0.0000 0.0000 0.0000
# 3 68.4254 -5.7810 130.7658 0.0000 0.0000 0.0000
# 4 0.0000 0.0000 0.0000 8.6718 0.0000 0.0000
# 5 0.0000 0.0000 0.0000 0.0000 51.3807 0.0000
# 6 0.0000 0.0000 0.0000 0.0000 0.0000 10.3809
#
#
#
# Elastic Compliance Matrix: (Units=1/GPa)
#
#
# Indices 1 2 3 4 5 6 
#
# 1 0.012928 0.003130 -0.006626 0.000000 0.000000 0.000000
# 2 0.003130 0.025804 -0.000497 0.000000 0.000000 0.000000
# 3 -0.006626 -0.000497 0.011093 0.000000 0.000000 0.000000
# 4 0.000000 0.000000 0.000000 0.115316 0.000000 0.000000
# 5 0.000000 0.000000 0.000000 0.000000 0.019463 0.000000
# 6 0.000000 0.000000 0.000000 0.000000 0.000000 0.096331
#
#
# Mechanical properties :
#
#
# Convention : Reuss Voigt Hill
#
# Bulk Modulus (GPa) = 23.90170 42.92758 33.41464
# Shear Modulus (GPa) = 16.50894 29.85292 23.18093
#
# Velocity S-wave (km/s) = 2.88301 3.87686 3.41627
# Velocity P-wave (km/s) = 4.80793 6.45390 5.69074
#
# Compressibility (1/GPa) = 0.04183804
#
# Stress axis : x y z
#
# Youngs Moduli (GPa) = 77.35125 38.75378 90.14964
#
# Poissons Ratio (x) = -0.12131 0.59737
# Poissons Ratio (y) = -0.24214 0.04483
# Poissons Ratio (z) = 0.51256 0.01927
#
# Static dielectric constant tensor:
#      x y z
#    x 1.694900 0.000000 0.000000 
#    y 0.000000 1.740470 0.000000 
#    z 0.000000 0.000000 1.703230 
# 
# From -- ./inp_files/60171.got.cif
#   From: 2010.05.17/outbox.cif.g08.bks.cpg/sg65_31_cif.got.tgz:60171.got - 2010.06.03 17:01:31.
