data_PCOD9484303
_publ_section_title
;
Structure prediction by ZEFSAII (Michael W. Deem and Ramdas Pophale) SiO2 
 PCOD9484303
Probable space group: C M M M
;
_chemical_formula_sum "Si O2"
_cell_formula_units_Z 104
_cell_length_a 28.081616
_cell_length_b 22.885186
_cell_length_c 7.616830
_cell_angle_alpha 90.000000
_cell_angle_beta 90.000000
_cell_angle_gamma 90.000000
_cell_volume 4894.978691
_symmetry_space_group_name_H-M "C M M M"
_symmetry_group_IT_number 65
_symmetry_cell_setting 'orthorhombic'
loop_
_space_group_symop_operation_xyz
x,y,z
-x,-y,z
x,-y,-z
-x,y,-z
-x,-y,-z
x,y,-z
-x,y,z
x,-y,z
1/2+x,1/2+y,z
1/2-x,1/2-y,z
1/2+x,1/2-y,-z
1/2-x,1/2+y,-z
1/2-x,1/2-y,-z
1/2+x,1/2+y,-z
1/2-x,1/2+y,z
1/2+x,1/2-y,z
loop_
_atom_site_type_symbol
_atom_site_label
_atom_site_fract_x
_atom_site_fract_y
_atom_site_fract_z
Si Si1 0.300843 0.221314 0.699218
Si Si2 0.675297 0.565411 0.292902
Si Si3 0.384892 0.107722 0.215204
Si Si4 0.874206 0.817140 0.288629
Si Si5 0.717144 0.905423 0.195150
Si Si6 0.447251 0.000000 0.214356
Si Si7 0.945268 0.279331 0.789634
O O1 0.316094 0.204697 0.500000
O O2 0.250000 0.250000 0.682218
O O3 0.336113 0.269215 0.776160
O O4 0.291431 0.164086 0.809705
O O5 0.664986 0.562173 0.500000
O O6 0.667617 0.500000 0.218893
O O7 0.642672 0.618979 0.222747
O O8 0.731691 0.580976 0.277802
O O9 0.334098 0.081295 0.279170
O O10 0.407169 0.170624 0.270834
O O11 0.422274 0.059219 0.267027
O O12 0.380894 0.110039 0.000000
O O13 0.869211 0.819331 0.500000
O O14 0.924226 0.785340 0.249834
O O15 0.719560 0.930499 0.000000
O O16 0.500000 0.000000 0.279483
O O17 0.447080 0.000000 0.000000
O O18 0.000000 0.286914 0.725529
O O19 0.947004 0.285514 0.000000
#
# Coordination Sequence:
#
# PCOD9484303 Si02
#       7
#    16  16  16  16  16   8  16
#     4  10  18  32  52  74 104 139 175 212 255 310
#     4  10  22  40  58  76 105 146 185 220 268 331
#     4   9  18  30  45  72 107 140 176 217 260 307
#     4  10  20  35  56  80 105 136 178 227 271 321
#     4  11  21  31  49  78 113 142 172 217 265 314
#     4   9  16  28  46  64  91 139 187 221 254 297
#     4  10  20  35  55  80 110 140 173 219 276 332
#
# _framework density 21.246261000000001
#
# number of rings (size 3 to 8) (size 9 to 14) (size 15 to 20)
#    0.000    2.077    3.077    0.923    1.077    3.385 
#    0.000    0.000    0.000    0.462    0.000    3.231 
#    0.000    4.308    0.000    0.000    0.000    0.000 
#
# Total GULP energy -289664.644299 kJ/mol
# GULP energy per Si atom -5570.473929 kJ/mol
# Density = 2.119790 g / cm^3
# Si number density = 21.246261 Si / 1000 Ang^3
#
#
#
# Elastic Constant Matrix: (Units=GPa)
#
#
# Indices 1 2 3 4 5 6 
#
# 1 82.4780 37.1430 -0.1694 0.0000 0.0000 0.0000
# 2 37.1430 145.8295 11.6356 0.0000 0.0000 0.0000
# 3 -0.1694 11.6356 44.0360 0.0000 0.0000 0.0000
# 4 0.0000 0.0000 0.0000 18.6664 0.0000 0.0000
# 5 0.0000 0.0000 0.0000 0.0000 31.5050 0.0000
# 6 0.0000 0.0000 0.0000 0.0000 0.0000 32.6337
#
#
#
# Elastic Compliance Matrix: (Units=1/GPa)
#
#
# Indices 1 2 3 4 5 6 
#
# 1 0.013738 -0.003579 0.000998 0.000000 0.000000 0.000000
# 2 -0.003579 0.007937 -0.002111 0.000000 0.000000 0.000000
# 3 0.000998 -0.002111 0.023270 0.000000 0.000000 0.000000
# 4 0.000000 0.000000 0.000000 0.053572 0.000000 0.000000
# 5 0.000000 0.000000 0.000000 0.000000 0.031741 0.000000
# 6 0.000000 0.000000 0.000000 0.000000 0.000000 0.030643
#
#
# Mechanical properties :
#
#
# Convention : Reuss Voigt Hill
#
# Bulk Modulus (GPa) = 28.11907 41.06244 34.59076
# Shear Modulus (GPa) = 27.45155 31.47665 29.46410
#
# Velocity S-wave (km/s) = 3.59843 3.85322 3.72800
# Velocity P-wave (km/s) = 5.52526 6.25822 5.90313
#
# Compressibility (1/GPa) = 0.03556305
#
# Stress axis : x y z
#
# Youngs Moduli (GPa) = 72.78991 125.98764 42.97318
#
# Poissons Ratio (x) = 0.45088 -0.04291
# Poissons Ratio (y) = 0.26050 0.09072
# Poissons Ratio (z) = -0.07268 0.26596
#
# Static dielectric constant tensor:
#      x y z
#    x 1.424660 0.000000 0.000000 
#    y 0.000000 1.779110 0.000000 
#    z 0.000000 0.000000 1.837650 
# 
# From -- ./inp_files/16747.got.cif
#   From: 2010.05.17/outbox.cif.g08.bks.cpg/sg65_9_cif.got.tgz:16747.got - 2010.06.03 17:01:31.
