data_PCOD9484429
_publ_section_title
;
Structure prediction by ZEFSAII (Michael W. Deem and Ramdas Pophale) SiO2 
 PCOD9484429
Probable space group: C M M M
;
_chemical_formula_sum "Si O2"
_cell_formula_units_Z 64
_cell_length_a 8.536187
_cell_length_b 18.723497
_cell_length_c 21.739806
_cell_angle_alpha 90.000000
_cell_angle_beta 90.000000
_cell_angle_gamma 90.000000
_cell_volume 3474.613880
_symmetry_space_group_name_H-M "C M M M"
_symmetry_group_IT_number 65
_symmetry_cell_setting 'orthorhombic'
loop_
_space_group_symop_operation_xyz
x,y,z
-x,-y,z
x,-y,-z
-x,y,-z
-x,-y,-z
x,y,-z
-x,y,z
x,-y,z
1/2+x,1/2+y,z
1/2-x,1/2-y,z
1/2+x,1/2-y,-z
1/2-x,1/2+y,-z
1/2-x,1/2-y,-z
1/2+x,1/2+y,-z
1/2-x,1/2+y,z
1/2+x,1/2-y,z
loop_
_atom_site_type_symbol
_atom_site_label
_atom_site_fract_x
_atom_site_fract_y
_atom_site_fract_z
Si Si1 0.810445 0.168895 0.134176
Si Si2 0.810321 0.917027 0.745282
Si Si3 0.186607 0.168563 0.500000
Si Si4 0.313624 0.830969 0.371287
Si Si5 0.310968 0.331282 0.000000
O O1 0.750000 0.250000 0.140368
O O2 0.758893 0.121783 0.191827
O O3 0.761099 0.139348 0.066714
O O4 0.000000 0.170989 0.134949
O O5 0.741412 0.876697 0.686592
O O6 0.000000 0.912733 0.742286
O O7 0.766032 0.000000 0.745612
O O8 0.250000 0.250000 0.500000
O O9 0.248462 0.137875 0.564291
O O10 0.000000 0.169185 0.500000
O O11 0.500000 0.827751 0.374691
O O12 0.250000 0.750000 0.364416
O O13 0.250000 0.250000 0.000000
O O14 0.500000 0.331379 0.000000
#
# Coordination Sequence:
#
# PCOD9484429 Si02
#       5
#    16  16   8  16   8
#     4   9  17  30  50  74  99 130 168 212 258 306
#     4  10  21  36  51  71 103 140 176 215 260 307
#     4  10  18  32  55  82 109 134 165 207 255 303
#     4  11  21  35  56  81 107 135 171 212 255 304
#     4   8  14  26  45  71  99 125 161 208 257 304
#
# _framework density 18.419314
#
# number of rings (size 3 to 8) (size 9 to 14) (size 15 to 20)
#    0.000    2.250    0.000    5.625    0.000    3.500 
#    0.000    1.250    0.000    7.500    0.000    0.000 
#    0.000   12.000    0.000    0.000    0.000    0.000 
#
# Total GULP energy -178446.053810 kJ/mol
# GULP energy per Si atom -5576.439182 kJ/mol
# Density = 1.837739 g / cm^3
# Si number density = 18.419314 Si / 1000 Ang^3
#
#
#
# Elastic Constant Matrix: (Units=GPa)
#
#
# Indices 1 2 3 4 5 6 
#
# 1 60.8048 31.2511 55.8087 0.0000 0.0000 0.0000
# 2 31.2511 76.8180 87.0339 0.0000 0.0000 0.0000
# 3 55.8087 87.0339 246.3967 0.0000 0.0000 0.0000
# 4 0.0000 0.0000 0.0000 -6.0716 0.0000 0.0000
# 5 0.0000 0.0000 0.0000 0.0000 -0.0924 0.0000
# 6 0.0000 0.0000 0.0000 0.0000 0.0000 17.3168
#
#
#
# Elastic Compliance Matrix: (Units=1/GPa)
#
#
# Indices 1 2 3 4 5 6 
#
# 1 0.022087 -0.005531 -0.003049 0.000000 0.000000 0.000000
# 2 -0.005531 0.023089 -0.006903 0.000000 0.000000 0.000000
# 3 -0.003049 -0.006903 0.007187 0.000000 0.000000 0.000000
# 4 0.000000 0.000000 0.000000 -0.164702 0.000000 0.000000
# 5 0.000000 0.000000 0.000000 0.000000-10.818889 0.000000
# 6 0.000000 0.000000 0.000000 0.000000 0.000000 0.057747
#
#
# Mechanical properties :
#
#
# Convention : Reuss Voigt Hill
#
# Bulk Modulus (GPa) = 46.73412 81.35631 64.04522
# Shear Modulus (GPa) = -0.46145 16.22562 7.88209
#
# Velocity S-wave (km/s) = -0.50107 2.97122 2.07088
# Velocity P-wave (km/s) = 5.00926 7.48570 6.36900
#
# Compressibility (1/GPa) = 0.02139764
#
# Stress axis : x y z
#
# Youngs Moduli (GPa) = 45.27490 43.31136 139.13346
#
# Poissons Ratio (x) = 0.23956 0.42423
# Poissons Ratio (y) = 0.25042 0.96040
# Poissons Ratio (z) = 0.13805 0.29897
#
# Static dielectric constant tensor:
#      x y z
#    x 1.619340 0.000000 0.000000 
#    y 0.000000 1.581170 0.000000 
#    z 0.000000 0.000000 1.684500 
# 
# From -- ./inp_files/58851.got.cif
#   From: 2010.05.17/outbox.cif.g08.bks.cpg/sg65_30_cif.got.tgz:58851.got - 2010.06.03 17:01:31.
