data_PCOD9484809
_publ_section_title
;
Structure prediction by ZEFSAII (Michael W. Deem and Ramdas Pophale) SiO2 
 PCOD9484809
Probable space group: C M M M
;
_chemical_formula_sum "Si O2"
_cell_formula_units_Z 116
_cell_length_a 7.625078
_cell_length_b 29.566722
_cell_length_c 28.575443
_cell_angle_alpha 90.000000
_cell_angle_beta 90.000000
_cell_angle_gamma 90.000000
_cell_volume 6442.292517
_symmetry_space_group_name_H-M "C M M M"
_symmetry_group_IT_number 65
_symmetry_cell_setting 'orthorhombic'
loop_
_space_group_symop_operation_xyz
x,y,z
-x,-y,z
x,-y,-z
-x,y,-z
-x,-y,-z
x,y,-z
-x,y,z
x,-y,z
1/2+x,1/2+y,z
1/2-x,1/2-y,z
1/2+x,1/2-y,-z
1/2-x,1/2+y,-z
1/2-x,1/2-y,-z
1/2+x,1/2+y,-z
1/2-x,1/2+y,z
1/2+x,1/2-y,z
loop_
_atom_site_type_symbol
_atom_site_label
_atom_site_fract_x
_atom_site_fract_y
_atom_site_fract_z
Si Si1 0.201361 0.445993 0.570663
Si Si2 0.787369 0.552285 0.143429
Si Si3 0.294434 0.102326 0.949465
Si Si4 0.787004 0.948244 0.677978
Si Si5 0.289634 0.299982 0.809490
Si Si6 0.000000 0.083071 0.500000
Si Si7 0.792647 0.109510 0.764630
Si Si8 0.791061 0.199749 0.082971
O O1 0.234815 0.500000 0.563480
O O2 0.222958 0.437207 0.625956
O O3 0.345434 0.420448 0.540558
O O4 0.000000 0.436973 0.557295
O O5 0.732795 0.500000 0.143028
O O6 0.722065 0.578421 0.097037
O O7 0.728049 0.577570 0.190207
O O8 0.000000 0.553643 0.143515
O O9 0.500000 0.090329 0.950559
O O10 0.281190 0.156377 0.943539
O O11 0.217640 0.089387 0.000000
O O12 0.721889 0.914918 0.718485
O O13 0.000000 0.947427 0.677113
O O14 0.734560 0.000000 0.688839
O O15 0.500000 0.304459 0.812308
O O16 0.250000 0.250000 0.791190
O O17 0.219885 0.341500 0.779085
O O18 0.223742 0.302485 0.863193
O O19 0.000000 0.115431 0.756227
O O20 0.750000 0.250000 0.064708
O O21 0.000000 0.194958 0.083297
#
# Coordination Sequence:
#
# PCOD9484809 Si02
#       8
#    16  16  16  16  16   4  16  16
#     4  10  19  29  44  67  95 133 183 229 266 307
#     4  10  21  35  51  72  95 121 159 205 248 296
#     4  10  21  36  52  70  94 124 158 198 246 299
#     4   9  17  30  46  66  97 135 172 213 258 298
#     4   9  18  31  49  74  99 124 158 195 238 299
#     4  12  19  30  48  66  98 140 184 230 270 308
#     4  10  19  33  53  75  98 130 167 201 249 303
#     4  10  19  33  53  75  98 122 150 190 238 295
#
# _framework density 18.006011000000001
#
# number of rings (size 3 to 8) (size 9 to 14) (size 15 to 20)
#    0.000    2.207    2.069    1.655    0.000    3.862 
#    0.000    2.759    0.000    0.000    0.000    1.931 
#    0.000    0.000    0.000    0.621    2.759    0.759 
#
# Total GULP energy -323186.371458 kJ/mol
# GULP energy per Si atom -5572.178818 kJ/mol
# Density = 1.796503 g / cm^3
# Si number density = 18.006011 Si / 1000 Ang^3
#
#
#
# Elastic Constant Matrix: (Units=GPa)
#
#
# Indices 1 2 3 4 5 6 
#
# 1 50.1279 -3.9081 7.4934 0.0000 0.0000 0.0000
# 2 -3.9081 78.8540 43.8371 0.0000 0.0000 0.0000
# 3 7.4934 43.8371 107.0025 0.0000 0.0000 0.0000
# 4 0.0000 0.0000 0.0000 74.5193 0.0000 0.0000
# 5 0.0000 0.0000 0.0000 0.0000 13.6528 0.0000
# 6 0.0000 0.0000 0.0000 0.0000 0.0000 9.8758
#
#
#
# Elastic Compliance Matrix: (Units=1/GPa)
#
#
# Indices 1 2 3 4 5 6 
#
# 1 0.020490 0.002348 -0.002397 0.000000 0.000000 0.000000
# 2 0.002348 0.016691 -0.007002 0.000000 0.000000 0.000000
# 3 -0.002397 -0.007002 0.012382 0.000000 0.000000 0.000000
# 4 0.000000 0.000000 0.000000 0.013419 0.000000 0.000000
# 5 0.000000 0.000000 0.000000 0.000000 0.073245 0.000000
# 6 0.000000 0.000000 0.000000 0.000000 0.000000 0.101258
#
#
# Mechanical properties :
#
#
# Convention : Reuss Voigt Hill
#
# Bulk Modulus (GPa) = 28.20012 36.75883 32.47948
# Shear Modulus (GPa) = 18.98192 32.18038 25.58115
#
# Velocity S-wave (km/s) = 3.25037 4.23212 3.77331
# Velocity P-wave (km/s) = 5.45729 6.65884 6.08778
#
# Compressibility (1/GPa) = 0.03546084
#
# Stress axis : x y z
#
# Youngs Moduli (GPa) = 48.80350 59.91306 80.76115
#
# Poissons Ratio (x) = -0.14068 0.19358
# Poissons Ratio (y) = -0.11459 0.56552
# Poissons Ratio (z) = 0.11698 0.41953
#
# Static dielectric constant tensor:
#      x y z
#    x 1.655300 0.000000 0.000000 
#    y 0.000000 1.612440 0.000000 
#    z 0.000000 0.000000 1.623140 
# 
# From -- ./inp_files/74096.got.cif
#   From: 2010.05.17/outbox.cif.g08.bks.cpg/sg65_38_cif.got.tgz:74096.got - 2010.06.03 17:01:31.
