data_PCOD9484857
_publ_section_title
;
Structure prediction by ZEFSAII (Michael W. Deem and Ramdas Pophale) SiO2 
 PCOD9484857
Probable space group: C M M M
;
_chemical_formula_sum "Si O2"
_cell_formula_units_Z 128
_cell_length_a 18.850322
_cell_length_b 15.662540
_cell_length_c 21.109770
_cell_angle_alpha 90.000000
_cell_angle_beta 90.000000
_cell_angle_gamma 90.000000
_cell_volume 6232.531294
_symmetry_space_group_name_H-M "C M M M"
_symmetry_group_IT_number 65
_symmetry_cell_setting 'orthorhombic'
loop_
_space_group_symop_operation_xyz
x,y,z
-x,-y,z
x,-y,-z
-x,y,-z
-x,-y,-z
x,y,-z
-x,y,z
x,-y,z
1/2+x,1/2+y,z
1/2-x,1/2-y,z
1/2+x,1/2-y,-z
1/2-x,1/2+y,-z
1/2-x,1/2-y,-z
1/2+x,1/2+y,-z
1/2-x,1/2+y,z
1/2+x,1/2-y,z
loop_
_atom_site_type_symbol
_atom_site_label
_atom_site_fract_x
_atom_site_fract_y
_atom_site_fract_z
Si Si1 0.578414 0.650403 0.692834
Si Si2 0.419011 0.148680 0.681893
Si Si3 0.418441 0.647641 0.928583
Si Si4 0.328236 0.353590 0.191285
Si Si5 0.844984 0.095894 0.569239
Si Si6 0.199541 0.333441 0.425946
Si Si7 0.165572 0.643881 0.195044
Si Si8 0.082150 0.644166 0.070495
O O1 0.500000 0.612868 0.693659
O O2 0.572650 0.751981 0.700431
O O3 0.626686 0.615523 0.748865
O O4 0.615249 0.640400 0.625555
O O5 0.500000 0.115980 0.671074
O O6 0.365443 0.149260 0.621529
O O7 0.378258 0.112809 0.743626
O O8 0.500000 0.622999 0.914672
O O9 0.365292 0.619462 0.874001
O O10 0.417088 0.751707 0.929036
O O11 0.400688 0.619517 0.000000
O O12 0.247433 0.381993 0.197079
O O13 0.331421 0.248848 0.193705
O O14 0.857324 0.135807 0.500000
O O15 0.760641 0.095728 0.579625
O O16 0.871634 0.000000 0.567799
O O17 0.177670 0.328525 0.500000
O O18 0.250000 0.250000 0.411101
O O19 0.128432 0.615997 0.129903
O O20 0.000000 0.618550 0.078343
O O21 0.106117 0.617452 0.000000
#
# Coordination Sequence:
#
# PCOD9484857 Si02
#       8
#    16  16  16  16  16  16  16  16
#     4  10  19  30  45  66  94 126 159 195 236 285
#     4  10  19  29  46  70  96 124 157 198 240 283
#     4   8  13  21  32  47  72 107 148 194 240 283
#     4   9  16  24  36  55  79 114 152 195 238 283
#     4  10  21  36  53  73  97 127 159 192 238 289
#     4  10  19  33  53  73  96 124 156 196 235 279
#     4   9  16  23  35  54  81 113 152 197 238 279
#     4   8  13  21  31  44  69 108 151 190 231 283
#
# _framework density 20.537402
#
# number of rings (size 3 to 8) (size 9 to 14) (size 15 to 20)
#    0.000    2.750    1.250    2.250    1.750    4.250 
#    0.000    4.375    0.000    0.375    0.000    1.750 
#    0.000    0.500    0.000    2.875    0.000    3.875 
#
# Total GULP energy -356685.009340 kJ/mol
# GULP energy per Si atom -5573.203271 kJ/mol
# Density = 2.049066 g / cm^3
# Si number density = 20.537402 Si / 1000 Ang^3
#
#
#
# Elastic Constant Matrix: (Units=GPa)
#
#
# Indices 1 2 3 4 5 6 
#
# 1 180.8647 -1.9688 142.4075 0.0000 0.0000 0.0000
# 2 -1.9688 22.0463 -0.0082 0.0000 0.0000 0.0000
# 3 142.4075 -0.0082 190.8978 0.0000 0.0000 0.0000
# 4 0.0000 0.0000 0.0000 -11.5222 0.0000 0.0000
# 5 0.0000 0.0000 0.0000 0.0000 39.6313 0.0000
# 6 0.0000 0.0000 0.0000 0.0000 0.0000 -9.3811
#
#
#
# Elastic Compliance Matrix: (Units=1/GPa)
#
#
# Indices 1 2 3 4 5 6 
#
# 1 0.013431 0.001196 -0.010019 0.000000 0.000000 0.000000
# 2 0.001196 0.045465 -0.000890 0.000000 0.000000 0.000000
# 3 -0.010019 -0.000890 0.012713 0.000000 0.000000 0.000000
# 4 0.000000 0.000000 0.000000 -0.086789 0.000000 0.000000
# 5 0.000000 0.000000 0.000000 0.000000 0.025233 0.000000
# 6 0.000000 0.000000 0.000000 0.000000 0.000000 -0.106597
#
#
# Mechanical properties :
#
#
# Convention : Reuss Voigt Hill
#
# Bulk Modulus (GPa) = 19.16376 74.96331 47.06354
# Shear Modulus (GPa) = -83.71962 20.63748 -31.54107
#
# Velocity S-wave (km/s) = -6.39163 3.17341 -3.92316
# Velocity P-wave (km/s) = 6.71708 7.07160 1.56338
#
# Compressibility (1/GPa) = 0.05218183
#
# Stress axis : x y z
#
# Youngs Moduli (GPa) = 74.45569 21.99471 78.66241
#
# Poissons Ratio (x) = -0.02630 0.78813
# Poissons Ratio (y) = -0.08902 0.07001
# Poissons Ratio (z) = 0.74598 0.01957
#
# Static dielectric constant tensor:
#      x y z
#    x 1.712190 0.000000 0.000000 
#    y 0.000000 1.792960 0.000000 
#    z 0.000000 0.000000 1.723020 
# 
# From -- ./inp_files/64165.got.cif
#   From: 2010.05.17/outbox.cif.g08.bks.cpg/sg65_33_cif.got.tgz:64165.got - 2010.06.03 17:01:31.
