data_PCOD9484502
_publ_section_title
;
Structure prediction by ZEFSAII (Michael W. Deem and Ramdas Pophale) SiO2 
 PCOD9484502
Probable space group: C M M M
;
_chemical_formula_sum "Si O2"
_cell_formula_units_Z 58
_cell_length_a 24.379503
_cell_length_b 7.314373
_cell_length_c 16.181131
_cell_angle_alpha 90.000000
_cell_angle_beta 90.000000
_cell_angle_gamma 90.000000
_cell_volume 2885.431877
_symmetry_space_group_name_H-M "C M M M"
_symmetry_group_IT_number 65
_symmetry_cell_setting 'orthorhombic'
loop_
_space_group_symop_operation_xyz
x,y,z
-x,-y,z
x,-y,-z
-x,y,-z
-x,-y,-z
x,y,-z
-x,y,z
x,-y,z
1/2+x,1/2+y,z
1/2-x,1/2-y,z
1/2+x,1/2-y,-z
1/2-x,1/2+y,-z
1/2-x,1/2-y,-z
1/2+x,1/2+y,-z
1/2-x,1/2+y,z
1/2+x,1/2-y,z
loop_
_atom_site_type_symbol
_atom_site_label
_atom_site_fract_x
_atom_site_fract_y
_atom_site_fract_z
Si Si1 0.563402 0.277068 0.906307
Si Si2 0.500000 0.784797 0.650566
Si Si3 0.386422 0.714559 0.742369
Si Si4 0.185002 0.218232 0.591283
Si Si5 0.000000 0.000000 0.500000
O O1 0.500000 0.221314 0.889980
O O2 0.563174 0.500000 0.903932
O O3 0.604936 0.212974 0.835191
O O4 0.577185 0.223034 0.000000
O O5 0.446189 0.736173 0.702535
O O6 0.500000 0.658710 0.571188
O O7 0.500000 0.000000 0.631926
O O8 0.372526 0.500000 0.750788
O O9 0.345211 0.790850 0.672780
O O10 0.166610 0.286724 0.500000
O O11 0.250000 0.250000 0.596807
O O12 0.175002 0.000000 0.589507
#
# Coordination Sequence:
#
# PCOD9484502 Si02
#       5
#    16   8  16  16   2
#     4   8  13  23  45  77 106 138 180 218 265 332
#     4  12  25  37  56  83 110 152 190 222 280 336
#     4  10  18  33  55  76 109 145 177 231 282 326
#     4   9  19  33  51  71  96 135 182 229 284 330
#     4  12  26  44  52  70 126 152 186 236 264 336
#
# _framework density 20.100975999999999
#
# number of rings (size 3 to 8) (size 9 to 14) (size 15 to 20)
#    0.000    2.483    2.759    1.034    1.931    1.103 
#    0.000    0.000    0.000    2.483    0.000    0.000 
#    0.000    0.000    0.000    0.000    0.000    0.000 
#
# Total GULP energy -161450.110942 kJ/mol
# GULP energy per Si atom -5567.245205 kJ/mol
# Density = 2.005523 g / cm^3
# Si number density = 20.100976 Si / 1000 Ang^3
#
#
#
# Elastic Constant Matrix: (Units=GPa)
#
#
# Indices 1 2 3 4 5 6 
#
# 1 56.6181 -18.8076 66.8793 0.0000 0.0000 0.0000
# 2 -18.8076 76.0291 9.0857 0.0000 0.0000 0.0000
# 3 66.8793 9.0857 235.2785 0.0000 0.0000 0.0000
# 4 0.0000 0.0000 0.0000 -848.2549 0.0000 0.0000
# 5 0.0000 0.0000 0.0000 0.0000 14.7156 0.0000
# 6 0.0000 0.0000 0.0000 0.0000 0.0000 5.6134
#
#
#
# Elastic Compliance Matrix: (Units=1/GPa)
#
#
# Indices 1 2 3 4 5 6 
#
# 1 0.031684 0.008955 -0.009352 0.000000 0.000000 0.000000
# 2 0.008955 0.015745 -0.003154 0.000000 0.000000 0.000000
# 3 -0.009352 -0.003154 0.007031 0.000000 0.000000 0.000000
# 4 0.000000 0.000000 0.000000 -0.001179 0.000000 0.000000
# 5 0.000000 0.000000 0.000000 0.000000 0.067955 0.000000
# 6 0.000000 0.000000 0.000000 0.000000 0.000000 0.178147
#
#
# Mechanical properties :
#
#
# Convention : Reuss Voigt Hill
#
# Bulk Modulus (GPa) = 21.11532 53.58225 37.34879
# Shear Modulus (GPa) = 15.51495 -144.86729 -64.67617
#
# Velocity S-wave (km/s) = 2.78123 -8.49860 -5.67851
# Velocity P-wave (km/s) = 4.56521 8.34190 4.93691
#
# Compressibility (1/GPa) = 0.04735897
#
# Stress axis : x y z
#
# Youngs Moduli (GPa) = 31.56140 63.51188 142.23735
#
# Poissons Ratio (x) = -0.56878 1.33024
# Poissons Ratio (y) = -0.28265 0.44857
# Poissons Ratio (z) = 0.29517 0.20030
#
# Static dielectric constant tensor:
#      x y z
#    x 1.670560 0.000000 0.000000 
#    y 0.000000 1.746700 0.000000 
#    z 0.000000 0.000000 1.758000 
# 
# From -- ./inp_files/35815.got.cif
#   From: 2010.05.17/outbox.cif.g08.bks.cpg/sg65_18_cif.got.tgz:35815.got - 2010.06.03 17:01:31.
