data_PCOD9484029
_publ_section_title
;
Structure prediction by ZEFSAII (Michael W. Deem and Ramdas Pophale) SiO2 
 PCOD9484029
Probable space group: C M M M
;
_chemical_formula_sum "Si O2"
_cell_formula_units_Z 96
_cell_length_a 28.265022
_cell_length_b 11.671218
_cell_length_c 17.713919
_cell_angle_alpha 90.000000
_cell_angle_beta 90.000000
_cell_angle_gamma 90.000000
_cell_volume 5843.595734
_symmetry_space_group_name_H-M "C M M M"
_symmetry_group_IT_number 65
_symmetry_cell_setting 'orthorhombic'
loop_
_space_group_symop_operation_xyz
x,y,z
-x,-y,z
x,-y,-z
-x,y,-z
-x,-y,-z
x,y,-z
-x,y,z
x,-y,z
1/2+x,1/2+y,z
1/2-x,1/2-y,z
1/2+x,1/2-y,-z
1/2-x,1/2+y,-z
1/2-x,1/2-y,-z
1/2+x,1/2+y,-z
1/2-x,1/2+y,z
1/2+x,1/2-y,z
loop_
_atom_site_type_symbol
_atom_site_label
_atom_site_fract_x
_atom_site_fract_y
_atom_site_fract_z
Si Si1 0.735623 0.374989 0.588026
Si Si2 0.370465 0.304042 0.583337
Si Si3 0.409804 0.135399 0.689254
Si Si4 0.500000 0.137553 0.414939
Si Si5 0.444400 0.500000 0.197464
Si Si6 0.944046 0.000000 0.379281
Si Si7 0.942554 0.368395 0.000000
Si Si8 0.057694 0.748563 0.842960
O O1 0.751867 0.373743 0.500000
O O2 0.750830 0.500000 0.619868
O O3 0.750000 0.250000 0.620433
O O4 0.678619 0.371862 0.587182
O O5 0.373605 0.249373 0.500000
O O6 0.369897 0.210027 0.649058
O O7 0.414434 0.390631 0.592770
O O8 0.454648 0.164690 0.635482
O O9 0.421976 0.176846 0.773032
O O10 0.401752 0.000000 0.687385
O O11 0.500000 0.185978 0.500000
O O12 0.500000 0.000000 0.422137
O O13 0.500000 0.500000 0.178126
O O14 0.441056 0.500000 0.288086
O O15 0.425764 0.379958 0.166024
O O16 0.000000 0.000000 0.399556
O O17 0.928616 0.304336 0.923297
O O18 0.926457 0.500000 0.000000
O O19 0.000000 0.369902 0.000000
O O20 0.000000 0.745235 0.836818
#
# Coordination Sequence:
#
# PCOD9484029 Si02
#       8
#    16  16  16   8   8   8   8  16
#     4   9  18  34  54  73  93 120 158 211 268 313
#     4  11  22  34  49  70  96 127 170 213 250 298
#     4  11  21  31  44  62  90 125 160 201 246 292
#     4   9  18  30  40  54  82 123 166 204 240 280
#     4   9  18  30  46  64  85 121 165 199 237 289
#     4  11  21  34  48  68  98 135 175 210 247 293
#     4   9  18  29  45  65  83 108 150 201 250 299
#     4  10  18  31  46  62  85 116 158 205 250 294
#
# _framework density 16.428241
#
# number of rings (size 3 to 8) (size 9 to 14) (size 15 to 20)
#    0.000    2.000    3.333    1.250    1.167    3.333 
#    0.000    3.333    0.000    0.000    0.000    0.000 
#    0.000    0.000    0.000    0.750    0.000    6.000 
#
# Total GULP energy -267475.473409 kJ/mol
# GULP energy per Si atom -5572.405696 kJ/mol
# Density = 1.639085 g / cm^3
# Si number density = 16.428241 Si / 1000 Ang^3
#
#
#
# Elastic Constant Matrix: (Units=GPa)
#
#
# Indices 1 2 3 4 5 6 
#
# 1 30.9407 18.6672 5.4769 0.0000 0.0000 0.0000
# 2 18.6672 135.3278 49.6681 0.0000 0.0000 0.0000
# 3 5.4769 49.6681 113.6937 0.0000 0.0000 0.0000
# 4 0.0000 0.0000 0.0000 14.2659 0.0000 0.0000
# 5 0.0000 0.0000 0.0000 0.0000 4.2703 0.0000
# 6 0.0000 0.0000 0.0000 0.0000 0.0000 13.2096
#
#
#
# Elastic Compliance Matrix: (Units=1/GPa)
#
#
# Indices 1 2 3 4 5 6 
#
# 1 0.035278 -0.005053 0.000508 0.000000 0.000000 0.000000
# 2 -0.005053 0.009524 -0.003917 0.000000 0.000000 0.000000
# 3 0.000508 -0.003917 0.010482 0.000000 0.000000 0.000000
# 4 0.000000 0.000000 0.000000 0.070097 0.000000 0.000000
# 5 0.000000 0.000000 0.000000 0.000000 0.234174 0.000000
# 6 0.000000 0.000000 0.000000 0.000000 0.000000 0.075702
#
#
# Mechanical properties :
#
#
# Convention : Reuss Voigt Hill
#
# Bulk Modulus (GPa) = 26.06838 47.50962 36.78900
# Shear Modulus (GPa) = 10.75338 20.09251 15.42294
#
# Velocity S-wave (km/s) = 2.56123 3.50100 3.06732
# Velocity P-wave (km/s) = 4.96477 6.73238 5.91498
#
# Compressibility (1/GPa) = 0.03836065
#
# Stress axis : x y z
#
# Youngs Moduli (GPa) = 28.34598 104.99589 95.39791
#
# Poissons Ratio (x) = 0.53052 -0.04845
# Poissons Ratio (y) = 0.14322 0.37370
# Poissons Ratio (z) = -0.01440 0.41130
#
# Static dielectric constant tensor:
#      x y z
#    x 1.563720 0.000000 0.000000 
#    y 0.000000 1.608720 0.000000 
#    z 0.000000 0.000000 1.529640 
# 
# From -- ./inp_files/47770.got.cif
#   From: 2010.05.17/outbox.cif.g08.bks.cpg/sg65_24_cif.got.tgz:47770.got - 2010.06.03 17:01:31.
