data_PCOD9484020
_publ_section_title
;
Structure prediction by ZEFSAII (Michael W. Deem and Ramdas Pophale) SiO2 
 PCOD9484020
Probable space group: C M M M
;
_chemical_formula_sum "Si O2"
_cell_formula_units_Z 96
_cell_length_a 20.030089
_cell_length_b 17.539847
_cell_length_c 12.990287
_cell_angle_alpha 90.000000
_cell_angle_beta 90.000000
_cell_angle_gamma 90.000000
_cell_volume 4563.808637
_symmetry_space_group_name_H-M "C M M M"
_symmetry_group_IT_number 65
_symmetry_cell_setting 'orthorhombic'
loop_
_space_group_symop_operation_xyz
x,y,z
-x,-y,z
x,-y,-z
-x,y,-z
-x,-y,-z
x,y,-z
-x,y,z
x,-y,z
1/2+x,1/2+y,z
1/2-x,1/2-y,z
1/2+x,1/2-y,-z
1/2-x,1/2+y,-z
1/2-x,1/2-y,-z
1/2+x,1/2+y,-z
1/2-x,1/2+y,z
1/2+x,1/2-y,z
loop_
_atom_site_type_symbol
_atom_site_label
_atom_site_fract_x
_atom_site_fract_y
_atom_site_fract_z
Si Si1 0.919159 0.272162 0.500000
Si Si2 0.262155 0.086009 0.722507
Si Si3 0.397624 0.247167 0.885858
Si Si4 0.750000 0.750000 0.186299
Si Si5 0.886561 0.417728 0.120146
Si Si6 0.326353 0.084493 0.500000
Si Si7 0.421886 0.336522 0.317300
Si Si8 0.080984 0.000000 0.621858
O O1 0.883147 0.352412 0.500000
O O2 0.896149 0.224507 0.600197
O O3 0.000000 0.280285 0.500000
O O4 0.234965 0.170789 0.751860
O O5 0.327325 0.082561 0.796879
O O6 0.282807 0.090891 0.603287
O O7 0.231616 0.000000 0.738620
O O8 0.317225 0.238772 0.878688
O O9 0.424256 0.161848 0.864606
O O10 0.417663 0.304539 0.796916
O O11 0.416906 0.271677 0.000000
O O12 0.921217 0.500000 0.130967
O O13 0.863009 0.414500 0.000000
O O14 0.356670 0.000000 0.500000
O O15 0.500000 0.343516 0.345101
O O16 0.392652 0.420725 0.332241
O O17 0.093800 0.000000 0.500000
O O18 0.000000 0.000000 0.636307
#
# Coordination Sequence:
#
# PCOD9484020 Si02
#       8
#     8  16  16   8  16   8  16   8
#     4  10  18  30  53  84 110 133 177 225 262 309
#     4   9  18  32  50  72  98 134 177 217 266 325
#     4  10  20  34  54  81 111 142 179 224 275 329
#     4  10  19  35  56  74 102 145 187 232 268 316
#     4   8  14  27  49  73  96 131 178 214 245 300
#     4  10  20  34  52  73 107 146 175 211 267 333
#     4  10  20  35  57  83 109 141 181 224 271 322
#     4   9  16  34  61  83 103 137 186 231 268 315
#
# _framework density 21.035062
#
# number of rings (size 3 to 8) (size 9 to 14) (size 15 to 20)
#    0.000    2.583    0.833    2.250    0.000    1.500 
#    1.500    1.250    0.000    3.000    0.000    2.333 
#    0.000    0.000    0.000    0.000    0.000    0.000 
#
# Total GULP energy -267463.804166 kJ/mol
# GULP energy per Si atom -5572.162587 kJ/mol
# Density = 2.098719 g / cm^3
# Si number density = 21.035062 Si / 1000 Ang^3
#
#
#
# Elastic Constant Matrix: (Units=GPa)
#
#
# Indices 1 2 3 4 5 6 
#
# 1 44.5343 16.7237 -2.7136 0.0000 0.0000 0.0000
# 2 16.7237 217.6078 73.3046 0.0000 0.0000 0.0000
# 3 -2.7136 73.3046 105.5603 0.0000 0.0000 0.0000
# 4 0.0000 0.0000 0.0000 36.2519 0.0000 0.0000
# 5 0.0000 0.0000 0.0000 0.0000 18.6142 0.0000
# 6 0.0000 0.0000 0.0000 0.0000 0.0000 3.7383
#
#
#
# Elastic Compliance Matrix: (Units=1/GPa)
#
#
# Indices 1 2 3 4 5 6 
#
# 1 0.023592 -0.002633 0.002435 0.000000 0.000000 0.000000
# 2 -0.002633 0.006293 -0.004438 0.000000 0.000000 0.000000
# 3 0.002435 -0.004438 0.012617 0.000000 0.000000 0.000000
# 4 0.000000 0.000000 0.000000 0.027585 0.000000 0.000000
# 5 0.000000 0.000000 0.000000 0.000000 0.053722 0.000000
# 6 0.000000 0.000000 0.000000 0.000000 0.000000 0.267499
#
#
# Mechanical properties :
#
#
# Convention : Reuss Voigt Hill
#
# Bulk Modulus (GPa) = 30.09288 60.25910 45.17599
# Shear Modulus (GPa) = 12.14604 30.41340 21.27972
#
# Velocity S-wave (km/s) = 2.40556 3.80655 3.18407
# Velocity P-wave (km/s) = 4.69604 6.93029 5.91953
#
# Compressibility (1/GPa) = 0.03323046
#
# Stress axis : x y z
#
# Youngs Moduli (GPa) = 42.38745 158.91531 79.25548
#
# Poissons Ratio (x) = 0.41849 -0.19300
# Poissons Ratio (y) = 0.11162 0.35170
# Poissons Ratio (z) = -0.10322 0.70519
#
# Static dielectric constant tensor:
#      x y z
#    x 1.815890 0.000000 0.000000 
#    y 0.000000 1.813040 0.000000 
#    z 0.000000 0.000000 1.705010 
# 
# From -- ./inp_files/30872.got.cif
#   From: 2010.05.17/outbox.cif.g08.bks.cpg/sg65_16_cif.got.tgz:30872.got - 2010.06.03 17:01:31.
