data_PCOD9484343
_publ_section_title
;
Structure prediction by ZEFSAII (Michael W. Deem and Ramdas Pophale) SiO2 
 PCOD9484343
Probable space group: C M M M
;
_chemical_formula_sum "Si O2"
_cell_formula_units_Z 88
_cell_length_a 21.931667
_cell_length_b 8.653388
_cell_length_c 26.084911
_cell_angle_alpha 90.000000
_cell_angle_beta 90.000000
_cell_angle_gamma 90.000000
_cell_volume 4950.478508
_symmetry_space_group_name_H-M "C M M M"
_symmetry_group_IT_number 65
_symmetry_cell_setting 'orthorhombic'
loop_
_space_group_symop_operation_xyz
x,y,z
-x,-y,z
x,-y,-z
-x,y,-z
-x,-y,-z
x,y,-z
-x,y,z
x,-y,z
1/2+x,1/2+y,z
1/2-x,1/2-y,z
1/2+x,1/2-y,-z
1/2-x,1/2+y,-z
1/2-x,1/2-y,-z
1/2+x,1/2+y,-z
1/2-x,1/2+y,z
1/2+x,1/2-y,z
loop_
_atom_site_type_symbol
_atom_site_label
_atom_site_fract_x
_atom_site_fract_y
_atom_site_fract_z
Si Si1 0.680888 0.684591 0.763849
Si Si2 0.930656 0.184971 0.938768
Si Si3 0.500000 0.825274 0.438939
Si Si4 0.182748 0.682297 0.660868
Si Si5 0.128921 0.817096 0.440606
Si Si6 0.680501 0.184837 0.872712
O O1 0.681893 0.500000 0.764883
O O2 0.750000 0.750000 0.763552
O O3 0.650537 0.741688 0.710676
O O4 0.657510 0.751306 0.817503
O O5 0.872282 0.263981 0.912268
O O6 0.000000 0.233558 0.922404
O O7 0.926495 0.000000 0.929747
O O8 0.927405 0.209986 0.000000
O O9 0.500000 0.845587 0.500000
O O10 0.440756 0.725272 0.428575
O O11 0.500000 0.000000 0.416396
O O12 0.182018 0.500000 0.667843
O O13 0.250000 0.750000 0.662845
O O14 0.162293 0.725795 0.603939
O O15 0.142214 0.771745 0.500000
O O16 0.140093 0.000000 0.436372
O O17 0.750000 0.250000 0.882356
O O18 0.685674 0.000000 0.871050
#
# Coordination Sequence:
#
# PCOD9484343 Si02
#       6
#    16  16   8  16  16  16
#     4  10  18  32  53  76 103 135 174 216 263 315
#     4   9  19  37  59  82 112 151 190 227 274 332
#     4   9  17  31  51  73  95 123 161 203 248 299
#     4  11  21  34  52  75 104 136 171 211 260 316
#     4  10  20  34  52  74 100 132 170 211 257 311
#     4  11  21  34  55  83 113 145 186 233 278 323
#
# _framework density 17.776060999999999
#
# number of rings (size 3 to 8) (size 9 to 14) (size 15 to 20)
#    0.000    1.909    0.000    8.455    0.000    3.636 
#    0.000    0.909    2.000    0.000    0.000    0.000 
#    0.000    0.000    0.000    0.000    0.000    0.000 
#
# Total GULP energy -244969.165169 kJ/mol
# GULP energy per Si atom -5567.481027 kJ/mol
# Density = 1.773560 g / cm^3
# Si number density = 17.776061 Si / 1000 Ang^3
#
#
#
# Elastic Constant Matrix: (Units=GPa)
#
#
# Indices 1 2 3 4 5 6 
#
# 1 67.6080 37.5877 49.3286 0.0000 0.0000 0.0000
# 2 37.5877 143.2596 56.1614 0.0000 0.0000 0.0000
# 3 49.3286 56.1614 100.0939 0.0000 0.0000 0.0000
# 4 0.0000 0.0000 0.0000 31.3140 0.0000 0.0000
# 5 0.0000 0.0000 0.0000 0.0000 -13.3496 0.0000
# 6 0.0000 0.0000 0.0000 0.0000 0.0000 25.9563
#
#
#
# Elastic Compliance Matrix: (Units=1/GPa)
#
#
# Indices 1 2 3 4 5 6 
#
# 1 0.023574 -0.002091 -0.010445 0.000000 0.000000 0.000000
# 2 -0.002091 0.009134 -0.004095 0.000000 0.000000 0.000000
# 3 -0.010445 -0.004095 0.017436 0.000000 0.000000 0.000000
# 4 0.000000 0.000000 0.000000 0.031935 0.000000 0.000000
# 5 0.000000 0.000000 0.000000 0.000000 -0.074909 0.000000
# 6 0.000000 0.000000 0.000000 0.000000 0.000000 0.038526
#
#
# Mechanical properties :
#
#
# Convention : Reuss Voigt Hill
#
# Bulk Modulus (GPa) = 59.22948 66.34631 62.78789
# Shear Modulus (GPa) = 59.11240 19.97641 39.54440
#
# Velocity S-wave (km/s) = 5.77288 3.35592 4.72167
# Velocity P-wave (km/s) = 8.82196 7.24022 8.06993
#
# Compressibility (1/GPa) = 0.01688348
#
# Stress axis : x y z
#
# Youngs Moduli (GPa) = 42.41892 109.47998 57.35383
#
# Poissons Ratio (x) = 0.22888 0.59906
# Poissons Ratio (y) = 0.08868 0.23485
# Poissons Ratio (z) = 0.44306 0.44829
#
# Static dielectric constant tensor:
#      x y z
#    x 0.819660 0.000000 0.000000 
#    y 0.000000 1.600750 0.000000 
#    z 0.000000 0.000000 1.678590 
# 
# From -- ./inp_files/65176.got.cif
#   From: 2010.05.17/outbox.cif.g08.bks.cpg/sg65_33_cif.got.tgz:65176.got - 2010.06.03 17:01:31.
