data_PCOD9484571
_publ_section_title
;
Structure prediction by ZEFSAII (Michael W. Deem and Ramdas Pophale) SiO2 
 PCOD9484571
Probable space group: C M M M
;
_chemical_formula_sum "Si O2"
_cell_formula_units_Z 104
_cell_length_a 8.335846
_cell_length_b 23.181158
_cell_length_c 26.866549
_cell_angle_alpha 90.000000
_cell_angle_beta 90.000000
_cell_angle_gamma 90.000000
_cell_volume 5191.545860
_symmetry_space_group_name_H-M "C M M M"
_symmetry_group_IT_number 65
_symmetry_cell_setting 'orthorhombic'
loop_
_space_group_symop_operation_xyz
x,y,z
-x,-y,z
x,-y,-z
-x,y,-z
-x,-y,-z
x,y,-z
-x,y,z
x,-y,z
1/2+x,1/2+y,z
1/2-x,1/2-y,z
1/2+x,1/2-y,-z
1/2-x,1/2+y,-z
1/2-x,1/2-y,-z
1/2+x,1/2+y,-z
1/2-x,1/2+y,z
1/2+x,1/2-y,z
loop_
_atom_site_type_symbol
_atom_site_label
_atom_site_fract_x
_atom_site_fract_y
_atom_site_fract_z
Si Si1 0.316903 0.500000 0.895498
Si Si2 0.807846 0.685151 0.800228
Si Si3 0.809292 0.314505 0.000000
Si Si4 0.813171 0.395506 0.283723
Si Si5 0.692673 0.624416 0.900925
Si Si6 0.693434 0.313557 0.558335
Si Si7 0.321443 0.000000 0.793129
Si Si8 0.809640 0.066651 0.610505
O O1 0.500000 0.500000 0.913930
O O2 0.240924 0.439846 0.909841
O O3 0.310165 0.500000 0.835543
O O4 0.750000 0.750000 0.806400
O O5 0.749098 0.659037 0.747424
O O6 0.753797 0.649590 0.848717
O O7 0.000000 0.682463 0.798440
O O8 0.750000 0.250000 0.000000
O O9 0.742015 0.340696 0.949152
O O10 0.000000 0.318894 0.000000
O O11 0.810231 0.445222 0.242257
O O12 0.720761 0.417791 0.331808
O O13 0.000000 0.386164 0.298296
O O14 0.500000 0.622146 0.897198
O O15 0.738357 0.315202 0.500000
O O16 0.500000 0.313346 0.562440
O O17 0.750000 0.250000 0.577933
O O18 0.750863 0.374856 0.582196
O O19 0.500000 0.000000 0.816578
O O20 0.000000 0.063984 0.600458
O O21 0.748120 0.000000 0.600713
#
# Coordination Sequence:
#
# PCOD9484571 Si02
#       8
#     8  16   8  16  16  16   8  16
#     4  10  22  37  61  92 119 149 185 230 283 333
#     4  11  23  39  58  83 114 151 193 236 281 336
#     4  12  26  45  66  87 113 150 190 232 283 338
#     4  10  21  36  56  81 113 152 189 229 281 337
#     4  11  23  41  63  89 118 149 186 231 283 339
#     4   9  19  37  59  82 111 150 195 241 292 350
#     4  10  18  34  57  81 111 147 189 231 273 332
#     4  10  21  35  55  85 117 150 191 241 294 348
#
# _framework density 20.032568000000001
#
# number of rings (size 3 to 8) (size 9 to 14) (size 15 to 20)
#    0.000    1.692    2.308    2.077    0.000    4.308 
#    0.000    6.154    0.000    0.000    0.000    3.231 
#    0.000    0.000    0.000    0.000    0.000    0.000 
#
# Total GULP energy -289888.402800 kJ/mol
# GULP energy per Si atom -5574.776977 kJ/mol
# Density = 1.998697 g / cm^3
# Si number density = 20.032568 Si / 1000 Ang^3
#
#
#
# Elastic Constant Matrix: (Units=GPa)
#
#
# Indices 1 2 3 4 5 6 
#
# 1 25.0278 14.5123 2.2444 0.0000 0.0000 0.0000
# 2 14.5123 193.7092 56.9749 0.0000 0.0000 0.0000
# 3 2.2444 56.9749 60.4783 0.0000 0.0000 0.0000
# 4 0.0000 0.0000 0.0000 39.2843 0.0000 0.0000
# 5 0.0000 0.0000 0.0000 0.0000 22.9462 0.0000
# 6 0.0000 0.0000 0.0000 0.0000 0.0000 16.9074
#
#
#
# Elastic Compliance Matrix: (Units=1/GPa)
#
#
# Indices 1 2 3 4 5 6 
#
# 1 0.041934 -0.003713 0.001941 0.000000 0.000000 0.000000
# 2 -0.003713 0.007470 -0.006899 0.000000 0.000000 0.000000
# 3 0.001941 -0.006899 0.022962 0.000000 0.000000 0.000000
# 4 0.000000 0.000000 0.000000 0.025455 0.000000 0.000000
# 5 0.000000 0.000000 0.000000 0.000000 0.043580 0.000000
# 6 0.000000 0.000000 0.000000 0.000000 0.000000 0.059146
#
#
# Mechanical properties :
#
#
# Convention : Reuss Voigt Hill
#
# Bulk Modulus (GPa) = 18.17345 47.40874 32.79110
# Shear Modulus (GPa) = 21.16573 29.52648 25.34610
#
# Velocity S-wave (km/s) = 3.25401 3.84334 3.56089
# Velocity P-wave (km/s) = 4.81765 6.58879 5.77157
#
# Compressibility (1/GPa) = 0.05502531
#
# Stress axis : x y z
#
# Youngs Moduli (GPa) = 23.84683 133.87276 43.54941
#
# Poissons Ratio (x) = 0.49702 -0.08454
# Poissons Ratio (y) = 0.08853 0.30046
# Poissons Ratio (z) = -0.04629 0.92363
#
# Static dielectric constant tensor:
#      x y z
#    x 1.724000 0.000000 0.000000 
#    y 0.000000 1.765630 0.000000 
#    z 0.000000 0.000000 1.673820 
# 
# From -- ./inp_files/73386.got.cif
#   From: 2010.05.17/outbox.cif.g08.bks.cpg/sg65_37_cif.got.tgz:73386.got - 2010.06.03 17:01:31.
