data_PCOD9484071
_publ_section_title
;
Structure prediction by ZEFSAII (Michael W. Deem and Ramdas Pophale) SiO2 
 PCOD9484071
Probable space group: C M M M
;
_chemical_formula_sum "Si O2"
_cell_formula_units_Z 104
_cell_length_a 8.994904
_cell_length_b 33.399659
_cell_length_c 21.126768
_cell_angle_alpha 90.000000
_cell_angle_beta 90.000000
_cell_angle_gamma 90.000000
_cell_volume 6347.045748
_symmetry_space_group_name_H-M "C M M M"
_symmetry_group_IT_number 65
_symmetry_cell_setting 'orthorhombic'
loop_
_space_group_symop_operation_xyz
x,y,z
-x,-y,z
x,-y,-z
-x,y,-z
-x,-y,-z
x,y,-z
-x,y,z
x,-y,z
1/2+x,1/2+y,z
1/2-x,1/2-y,z
1/2+x,1/2-y,-z
1/2-x,1/2+y,-z
1/2-x,1/2-y,-z
1/2+x,1/2+y,-z
1/2-x,1/2+y,z
1/2+x,1/2-y,z
loop_
_atom_site_type_symbol
_atom_site_label
_atom_site_fract_x
_atom_site_fract_y
_atom_site_fract_z
Si Si1 0.328873 0.500000 0.784184
Si Si2 0.822330 0.453229 0.000000
Si Si3 0.821870 0.659119 0.428719
Si Si4 0.824181 0.500000 0.650967
Si Si5 0.322840 0.583501 0.365730
Si Si6 0.821393 0.132367 0.761610
Si Si7 0.675228 0.577174 0.126417
Si Si8 0.322206 0.792873 0.304034
O O1 0.500000 0.500000 0.759350
O O2 0.219290 0.500000 0.725318
O O3 0.310250 0.538485 0.828336
O O4 0.762765 0.431410 0.937437
O O5 0.771016 0.500000 0.000000
O O6 0.000000 0.453419 0.000000
O O7 0.785198 0.671878 0.500000
O O8 0.741012 0.617749 0.411359
O O9 0.782317 0.691156 0.374625
O O10 0.000000 0.652792 0.424708
O O11 0.752923 0.540734 0.624335
O O12 0.000000 0.500000 0.642282
O O13 0.500000 0.580136 0.371925
O O14 0.290460 0.600163 0.294512
O O15 0.777221 0.114102 0.829221
O O16 0.740240 0.173056 0.742623
O O17 0.000000 0.138180 0.761508
O O18 0.500000 0.581638 0.111732
O O19 0.500000 0.790526 0.299413
O O20 0.250000 0.750000 0.292434
#
# Coordination Sequence:
#
# PCOD9484071 Si02
#       8
#     8   8  16   8  16  16  16  16
#     4  10  18  31  49  71  98 132 175 218 257 297
#     4  11  23  33  43  69 108 145 182 223 257 289
#     4   9  19  36  54  74 103 135 165 201 251 306
#     4  12  22  30  46  72 100 132 170 213 263 306
#     4  10  19  33  51  72  98 128 170 216 255 298
#     4   9  18  33  53  75  99 129 167 212 257 304
#     4  10  19  33  52  71  98 140 181 213 254 302
#     4  10  20  34  54  80 107 134 162 200 250 303
#
# _framework density 16.385576
#
# number of rings (size 3 to 8) (size 9 to 14) (size 15 to 20)
#    0.000    2.077    2.308    1.846    0.000    3.385 
#    0.000    0.385    0.000    2.308    0.000    0.538 
#    0.000    0.000    0.000    0.000    0.000    0.000 
#
# Total GULP energy -290182.109319 kJ/mol
# GULP energy per Si atom -5580.425179 kJ/mol
# Density = 1.634828 g / cm^3
# Si number density = 16.385576 Si / 1000 Ang^3
#
#
#
# Elastic Constant Matrix: (Units=GPa)
#
#
# Indices 1 2 3 4 5 6 
#
# 1 43.7333 47.4523 29.0499 0.0000 0.0000 0.0000
# 2 47.4523 128.4616 41.6894 0.0000 0.0000 0.0000
# 3 29.0499 41.6894 85.8148 0.0000 0.0000 0.0000
# 4 0.0000 0.0000 0.0000 7.5313 0.0000 0.0000
# 5 0.0000 0.0000 0.0000 0.0000 24.6409 0.0000
# 6 0.0000 0.0000 0.0000 0.0000 0.0000 26.3021
#
#
#
# Elastic Compliance Matrix: (Units=1/GPa)
#
#
# Indices 1 2 3 4 5 6 
#
# 1 0.042324 -0.013040 -0.007992 0.000000 0.000000 0.000000
# 2 -0.013040 0.013259 -0.002027 0.000000 0.000000 0.000000
# 3 -0.007992 -0.002027 0.015343 0.000000 0.000000 0.000000
# 4 0.000000 0.000000 0.000000 0.132779 0.000000 0.000000
# 5 0.000000 0.000000 0.000000 0.000000 0.040583 0.000000
# 6 0.000000 0.000000 0.000000 0.000000 0.000000 0.038020
#
#
# Mechanical properties :
#
#
# Convention : Reuss Voigt Hill
#
# Bulk Modulus (GPa) = 40.31103 54.93256 47.62179
# Shear Modulus (GPa) = 14.85018 21.01608 17.93313
#
# Velocity S-wave (km/s) = 3.01374 3.58522 3.31183
# Velocity P-wave (km/s) = 6.06342 7.12293 6.61443
#
# Compressibility (1/GPa) = 0.02480711
#
# Stress axis : x y z
#
# Youngs Moduli (GPa) = 23.62727 75.41940 65.17494
#
# Poissons Ratio (x) = 0.98349 0.52090
# Poissons Ratio (y) = 0.30811 0.13211
# Poissons Ratio (z) = 0.18884 0.15288
#
# Static dielectric constant tensor:
#      x y z
#    x 1.545920 0.000000 0.000000 
#    y 0.000000 1.532900 0.000000 
#    z 0.000000 0.000000 1.545460 
# 
# From -- ./inp_files/60978.got.cif
#   From: 2010.05.17/outbox.cif.g08.bks.cpg/sg65_31_cif.got.tgz:60978.got - 2010.06.03 17:01:31.
