data_PCOD9484841
_publ_section_title
;
Structure prediction by ZEFSAII (Michael W. Deem and Ramdas Pophale) SiO2 
 PCOD9484841
Probable space group: C M M M
;
_chemical_formula_sum "Si O2"
_cell_formula_units_Z 96
_cell_length_a 30.692995
_cell_length_b 19.619792
_cell_length_c 7.383960
_cell_angle_alpha 90.000000
_cell_angle_beta 90.000000
_cell_angle_gamma 90.000000
_cell_volume 4446.548185
_symmetry_space_group_name_H-M "C M M M"
_symmetry_group_IT_number 65
_symmetry_cell_setting 'orthorhombic'
loop_
_space_group_symop_operation_xyz
x,y,z
-x,-y,z
x,-y,-z
-x,y,-z
-x,-y,-z
x,y,-z
-x,y,z
x,-y,z
1/2+x,1/2+y,z
1/2-x,1/2-y,z
1/2+x,1/2-y,-z
1/2-x,1/2+y,-z
1/2-x,1/2-y,-z
1/2+x,1/2+y,-z
1/2-x,1/2+y,z
1/2+x,1/2-y,z
loop_
_atom_site_type_symbol
_atom_site_label
_atom_site_fract_x
_atom_site_fract_y
_atom_site_fract_z
Si Si1 0.702509 0.229557 0.715556
Si Si2 0.950644 0.079638 0.279788
Si Si3 0.121822 0.182956 0.295722
Si Si4 0.673280 0.075255 0.217295
Si Si5 0.071986 0.427171 0.220297
Si Si6 0.046324 0.718839 0.780286
O O1 0.702165 0.240689 0.500000
O O2 0.750000 0.250000 0.785923
O O3 0.664599 0.280682 0.786967
O O4 0.694042 0.148488 0.737851
O O5 0.951001 0.086279 0.500000
O O6 0.909313 0.123893 0.213437
O O7 0.000000 0.098395 0.218089
O O8 0.944648 0.000000 0.237184
O O9 0.133204 0.159982 0.500000
O O10 0.087224 0.244091 0.301449
O O11 0.622649 0.078387 0.273853
O O12 0.690405 0.000000 0.279740
O O13 0.673906 0.072557 0.000000
O O14 0.054808 0.500000 0.281493
O O15 0.047929 0.359570 0.275301
O O16 0.071009 0.427557 0.000000
O O17 0.000000 0.749091 0.725975
O O18 0.049755 0.722634 0.000000
#
# Coordination Sequence:
#
# PCOD9484841 Si02
#       6
#    16  16  16  16  16  16
#     4  10  21  35  50  74 105 133 166 210 261 313
#     4   8  14  26  46  71  94 117 152 197 242 292
#     4  10  19  32  50  70  95 128 163 203 247 298
#     4   9  17  32  55  77  96 127 173 214 247 294
#     4   8  14  26  44  66  93 124 160 200 235 272
#     4  10  19  29  45  71 100 129 162 199 242 293
#
# _framework density 21.589779
#
# number of rings (size 3 to 8) (size 9 to 14) (size 15 to 20)
#    0.000    2.833    1.667    2.000    0.000    2.000 
#    0.000    2.500    0.000    4.000    0.000    3.500 
#    0.000    0.000    0.000    0.000    0.000    0.000 
#
# Total GULP energy -267448.578105 kJ/mol
# GULP energy per Si atom -5571.845377 kJ/mol
# Density = 2.154064 g / cm^3
# Si number density = 21.589779 Si / 1000 Ang^3
#
#
#
# Elastic Constant Matrix: (Units=GPa)
#
#
# Indices 1 2 3 4 5 6 
#
# 1 157.0260 84.3826 7.9489 0.0000 0.0000 0.0000
# 2 84.3826 172.6643 -2.3902 0.0000 0.0000 0.0000
# 3 7.9489 -2.3902 75.7907 0.0000 0.0000 0.0000
# 4 0.0000 0.0000 0.0000 15.1546 0.0000 0.0000
# 5 0.0000 0.0000 0.0000 0.0000 1.1242 0.0000
# 6 0.0000 0.0000 0.0000 0.0000 0.0000 42.1404
#
#
#
# Elastic Compliance Matrix: (Units=1/GPa)
#
#
# Indices 1 2 3 4 5 6 
#
# 1 0.008719 -0.004276 -0.001049 0.000000 0.000000 0.000000
# 2 -0.004276 0.007891 0.000697 0.000000 0.000000 0.000000
# 3 -0.001049 0.000697 0.013326 0.000000 0.000000 0.000000
# 4 0.000000 0.000000 0.000000 0.065986 0.000000 0.000000
# 5 0.000000 0.000000 0.000000 0.000000 0.889500 0.000000
# 6 0.000000 0.000000 0.000000 0.000000 0.000000 0.023730
#
#
# Mechanical properties :
#
#
# Convention : Reuss Voigt Hill
#
# Bulk Modulus (GPa) = 48.35389 65.04039 56.69714
# Shear Modulus (GPa) = 4.87661 32.71983 18.79822
#
# Velocity S-wave (km/s) = 1.50455 3.89720 2.95396
# Velocity P-wave (km/s) = 5.04614 7.10224 6.16057
#
# Compressibility (1/GPa) = 0.02068086
#
# Stress axis : x y z
#
# Youngs Moduli (GPa) = 114.69027 126.73010 75.03973
#
# Poissons Ratio (x) = 0.54185 0.07874
# Poissons Ratio (y) = 0.49037 -0.05232
# Poissons Ratio (z) = 0.12035 -0.08837
#
# Static dielectric constant tensor:
#      x y z
#    x 1.759800 0.000000 0.000000 
#    y 0.000000 1.811580 0.000000 
#    z 0.000000 0.000000 1.865780 
# 
# From -- ./inp_files/12314.got.cif
#   From: 2010.05.17/outbox.cif.g08.bks.cpg/sg65_7_cif.got.tgz:12314.got - 2010.06.03 17:01:31.
