data_PCOD9484899
_publ_section_title
;
Structure prediction by ZEFSAII (Michael W. Deem and Ramdas Pophale) SiO2 
 PCOD9484899
Probable space group: C M M M
;
_chemical_formula_sum "Si O2"
_cell_formula_units_Z 88
_cell_length_a 20.529976
_cell_length_b 20.232547
_cell_length_c 11.818461
_cell_angle_alpha 90.000000
_cell_angle_beta 90.000000
_cell_angle_gamma 90.000000
_cell_volume 4909.077925
_symmetry_space_group_name_H-M "C M M M"
_symmetry_group_IT_number 65
_symmetry_cell_setting 'orthorhombic'
loop_
_space_group_symop_operation_xyz
x,y,z
-x,-y,z
x,-y,-z
-x,y,-z
-x,-y,-z
x,y,-z
-x,y,z
x,-y,z
1/2+x,1/2+y,z
1/2-x,1/2-y,z
1/2+x,1/2-y,-z
1/2-x,1/2+y,-z
1/2-x,1/2-y,-z
1/2+x,1/2+y,-z
1/2-x,1/2+y,z
1/2+x,1/2-y,z
loop_
_atom_site_type_symbol
_atom_site_label
_atom_site_fract_x
_atom_site_fract_y
_atom_site_fract_z
Si Si1 0.369067 0.784961 0.500000
Si Si2 0.132080 0.076822 0.725745
Si Si3 0.574981 0.309141 0.865256
Si Si4 0.924139 0.142188 0.500000
Si Si5 0.362241 0.071004 0.500000
Si Si6 0.181365 0.283819 0.752278
Si Si7 0.211836 0.572617 0.261972
O O1 0.415098 0.721307 0.500000
O O2 0.399627 0.858994 0.500000
O O3 0.327718 0.780949 0.384120
O O4 0.099346 0.119139 0.824733
O O5 0.109700 0.111422 0.610017
O O6 0.210301 0.080415 0.734464
O O7 0.113193 0.000000 0.726523
O O8 0.500000 0.299883 0.829158
O O9 0.622455 0.256390 0.806954
O O10 0.578795 0.303360 0.000000
O O11 0.000000 0.125299 0.500000
O O12 0.316619 0.071389 0.610661
O O13 0.398260 0.000000 0.500000
O O14 0.250000 0.250000 0.781412
O O15 0.182919 0.360427 0.789938
O O16 0.196860 0.500000 0.211411
#
# Coordination Sequence:
#
# PCOD9484899 Si02
#       7
#     8  16  16   8   8  16  16
#     4  10  19  29  54  85 115 142 178 227 283 338
#     4  11  22  37  56  81 115 150 187 230 280 336
#     4  11  25  42  58  78 108 150 198 242 282 329
#     4  12  22  33  50  80 117 152 189 227 275 338
#     4   8  15  27  47  77 115 149 174 209 267 339
#     4  11  19  35  59  87 113 147 187 231 282 341
#     4   9  17  31  53  84 116 145 179 224 277 331
#
# _framework density 17.925974
#
# number of rings (size 3 to 8) (size 9 to 14) (size 15 to 20)
#    0.000    1.636    3.636    1.636    0.000    5.455 
#    0.000    0.909    0.000    1.364    0.000    6.364 
#    0.000    0.000    0.000    0.000    0.000    0.000 
#
# Total GULP energy -245382.961665 kJ/mol
# GULP energy per Si atom -5576.885492 kJ/mol
# Density = 1.788517 g / cm^3
# Si number density = 17.925974 Si / 1000 Ang^3
#
#
#
# Elastic Constant Matrix: (Units=GPa)
#
#
# Indices 1 2 3 4 5 6 
#
# 1 46.3825 56.6052 19.9363 0.0000 0.0000 0.0000
# 2 56.6052 187.7507 35.0998 0.0000 0.0000 0.0000
# 3 19.9363 35.0998 37.3424 0.0000 0.0000 0.0000
# 4 0.0000 0.0000 0.0000 2.2934 0.0000 0.0000
# 5 0.0000 0.0000 0.0000 0.0000 13.2044 0.0000
# 6 0.0000 0.0000 0.0000 0.0000 0.0000 16.0156
#
#
#
# Elastic Compliance Matrix: (Units=1/GPa)
#
#
# Indices 1 2 3 4 5 6 
#
# 1 0.037773 -0.009242 -0.011479 0.000000 0.000000 0.000000
# 2 -0.009242 0.008723 -0.003265 0.000000 0.000000 0.000000
# 3 -0.011479 -0.003265 0.035976 0.000000 0.000000 0.000000
# 4 0.000000 0.000000 0.000000 0.436038 0.000000 0.000000
# 5 0.000000 0.000000 0.000000 0.000000 0.075732 0.000000
# 6 0.000000 0.000000 0.000000 0.000000 0.000000 0.062439
#
#
# Mechanical properties :
#
#
# Convention : Reuss Voigt Hill
#
# Bulk Modulus (GPa) = 28.98539 54.97314 41.97927
# Shear Modulus (GPa) = 6.98173 16.95828 11.97001
#
# Velocity S-wave (km/s) = 1.97565 3.07908 2.58688
# Velocity P-wave (km/s) = 4.62697 6.58591 5.69136
#
# Compressibility (1/GPa) = 0.03450014
#
# Stress axis : x y z
#
# Youngs Moduli (GPa) = 26.47387 114.63879 27.79593
#
# Poissons Ratio (x) = 1.05952 0.31907
# Poissons Ratio (y) = 0.24468 0.09075
# Poissons Ratio (z) = 0.30389 0.37429
#
# Static dielectric constant tensor:
#      x y z
#    x 1.578590 0.000000 0.000000 
#    y 0.000000 1.665300 0.000000 
#    z 0.000000 0.000000 1.584480 
# 
# From -- ./inp_files/26873.got.cif
#   From: 2010.05.17/outbox.cif.g08.bks.cpg/sg65_14_cif.got.tgz:26873.got - 2010.06.03 17:01:31.
