data_PCOD9484591
_publ_section_title
;
Structure prediction by ZEFSAII (Michael W. Deem and Ramdas Pophale) SiO2 
 PCOD9484591
Probable space group: C M M M
;
_chemical_formula_sum "Si O2"
_cell_formula_units_Z 58
_cell_length_a 14.960028
_cell_length_b 26.417570
_cell_length_c 8.639921
_cell_angle_alpha 90.000000
_cell_angle_beta 90.000000
_cell_angle_gamma 90.000000
_cell_volume 3414.562329
_symmetry_space_group_name_H-M "C M M M"
_symmetry_group_IT_number 65
_symmetry_cell_setting 'orthorhombic'
loop_
_space_group_symop_operation_xyz
x,y,z
-x,-y,z
x,-y,-z
-x,y,-z
-x,-y,-z
x,y,-z
-x,y,z
x,-y,z
1/2+x,1/2+y,z
1/2-x,1/2-y,z
1/2+x,1/2-y,-z
1/2-x,1/2+y,-z
1/2-x,1/2-y,-z
1/2+x,1/2+y,-z
1/2-x,1/2+y,z
1/2+x,1/2-y,z
loop_
_atom_site_type_symbol
_atom_site_label
_atom_site_fract_x
_atom_site_fract_y
_atom_site_fract_z
Si Si1 0.500000 0.000000 0.500000
Si Si2 0.500000 0.850301 0.684823
Si Si3 0.314650 0.892657 0.185364
Si Si4 0.000000 0.763803 0.187981
Si Si5 0.813487 0.500000 0.329861
Si Si6 0.693730 0.700735 0.188262
O O1 0.419929 0.000000 0.367989
O O2 0.500000 0.854015 0.500000
O O3 0.589042 0.876849 0.747852
O O4 0.500000 0.792329 0.741375
O O5 0.243341 0.850259 0.238422
O O6 0.291293 0.948659 0.241335
O O7 0.319578 0.891017 0.000000
O O8 0.909098 0.792130 0.234445
O O9 0.000000 0.758496 0.000000
O O10 0.769808 0.500000 0.500000
O O11 0.750000 0.750000 0.239093
O O12 0.695263 0.700867 0.000000
#
# Coordination Sequence:
#
# PCOD9484591 Si02
#       6
#     2   8  16   8   8  16
#     4   8  20  36  54  68 108 142 170 212 264 322
#     4  12  23  32  48  78 113 148 176 218 266 317
#     4  11  21  35  56  79 105 143 187 220 259 319
#     4  10  18  35  56  77 110 144 176 221 271 312
#     4  10  21  37  53  76 109 142 172 222 271 312
#     4   9  17  31  54  83 107 135 178 223 265 312
#
# _framework density 16.986072
#
# number of rings (size 3 to 8) (size 9 to 14) (size 15 to 20)
#    0.414    1.379    2.759    3.310    1.931    0.000 
#    0.000    6.207    0.000    0.828    0.000    5.793 
#    0.000    0.000    0.000    0.000    0.000    0.000 
#
# Total GULP energy -161527.914611 kJ/mol
# GULP energy per Si atom -5569.928090 kJ/mol
# Density = 1.694741 g / cm^3
# Si number density = 16.986072 Si / 1000 Ang^3
#
#
#
# Elastic Constant Matrix: (Units=GPa)
#
#
# Indices 1 2 3 4 5 6 
#
# 1 128.3686 82.3909 28.2648 0.0000 0.0000 0.0000
# 2 82.3909 174.6260 41.1153 0.0000 0.0000 0.0000
# 3 28.2648 41.1153 60.3804 0.0000 0.0000 0.0000
# 4 0.0000 0.0000 0.0000 2.6608 0.0000 0.0000
# 5 0.0000 0.0000 0.0000 0.0000 4.5795 0.0000
# 6 0.0000 0.0000 0.0000 0.0000 0.0000 -9.8225
#
#
#
# Elastic Compliance Matrix: (Units=1/GPa)
#
#
# Indices 1 2 3 4 5 6 
#
# 1 0.011371 -0.004897 -0.001988 0.000000 0.000000 0.000000
# 2 -0.004897 0.008929 -0.003788 0.000000 0.000000 0.000000
# 3 -0.001988 -0.003788 0.020072 0.000000 0.000000 0.000000
# 4 0.000000 0.000000 0.000000 0.375822 0.000000 0.000000
# 5 0.000000 0.000000 0.000000 0.000000 0.218364 0.000000
# 6 0.000000 0.000000 0.000000 0.000000 0.000000 -0.101807
#
#
# Mechanical properties :
#
#
# Convention : Reuss Voigt Hill
#
# Bulk Modulus (GPa) = 52.56115 74.10188 63.33152
# Shear Modulus (GPa) = 8.92161 13.59050 11.25605
#
# Velocity S-wave (km/s) = 2.29428 2.83167 2.57702
# Velocity P-wave (km/s) = 6.16678 7.37637 6.79853
#
# Compressibility (1/GPa) = 0.01902546
#
# Stress axis : x y z
#
# Youngs Moduli (GPa) = 87.94501 111.99907 49.82152
#
# Poissons Ratio (x) = 0.54843 0.09907
# Poissons Ratio (y) = 0.43064 0.18871
# Poissons Ratio (z) = 0.17487 0.42421
#
# Static dielectric constant tensor:
#      x y z
#    x 1.556820 0.000000 0.000000 
#    y 0.000000 1.576630 0.000000 
#    z 0.000000 0.000000 1.574540 
# 
# From -- ./inp_files/7065.got.cif
#   From: 2010.05.17/outbox.cif.g08.bks.cpg/sg65_4_cif.got.tgz:7065.got - 2010.06.03 17:01:31.
