data_PCOD9484668
_publ_section_title
;
Structure prediction by ZEFSAII (Michael W. Deem and Ramdas Pophale) SiO2 
 PCOD9484668
Probable space group: C M M M
;
_chemical_formula_sum "Si O2"
_cell_formula_units_Z 112
_cell_length_a 23.228048
_cell_length_b 14.646538
_cell_length_c 15.488287
_cell_angle_alpha 90.000000
_cell_angle_beta 90.000000
_cell_angle_gamma 90.000000
_cell_volume 5269.277674
_symmetry_space_group_name_H-M "C M M M"
_symmetry_group_IT_number 65
_symmetry_cell_setting 'orthorhombic'
loop_
_space_group_symop_operation_xyz
x,y,z
-x,-y,z
x,-y,-z
-x,y,-z
-x,-y,-z
x,y,-z
-x,y,z
x,-y,z
1/2+x,1/2+y,z
1/2-x,1/2-y,z
1/2+x,1/2-y,-z
1/2-x,1/2+y,-z
1/2-x,1/2-y,-z
1/2+x,1/2+y,-z
1/2-x,1/2+y,z
1/2+x,1/2-y,z
loop_
_atom_site_type_symbol
_atom_site_label
_atom_site_fract_x
_atom_site_fract_y
_atom_site_fract_z
Si Si1 0.163403 0.610794 0.598472
Si Si2 0.437801 0.105375 0.717173
Si Si3 0.566116 0.359463 0.096885
Si Si4 0.769314 0.389267 0.097588
Si Si5 0.795927 0.888301 0.595702
Si Si6 0.402269 0.850784 0.904777
Si Si7 0.669657 0.392836 0.776660
O O1 0.146312 0.631937 0.500000
O O2 0.165861 0.500000 0.605674
O O3 0.116934 0.645322 0.667138
O O4 0.229425 0.639568 0.611296
O O5 0.500000 0.149198 0.699153
O O6 0.427381 0.104319 0.819524
O O7 0.441000 0.000000 0.688699
O O8 0.500000 0.385149 0.114148
O O9 0.571765 0.250179 0.093856
O O10 0.611242 0.387064 0.169445
O O11 0.581665 0.392624 0.000000
O O12 0.775800 0.500000 0.104854
O O13 0.833110 0.349105 0.106917
O O14 0.722528 0.355702 0.166040
O O15 0.748557 0.370077 0.000000
O O16 0.813337 0.855849 0.500000
O O17 0.831340 0.856754 0.679059
O O18 0.797605 0.000000 0.591739
O O19 0.413046 0.891952 0.000000
O O20 0.683087 0.500000 0.768235
#
# Coordination Sequence:
#
# PCOD9484668 Si02
#       7
#    16  16  16  16  16  16  16
#     4   8  14  26  44  67  97 129 159 196 244 293
#     4  10  19  28  42  67  95 126 169 214 250 288
#     4  10  22  38  53  70  95 132 175 209 240 286
#     4   9  17  29  48  76 105 130 160 202 252 299
#     4   8  14  26  47  74  99 122 149 186 239 301
#     4  10  20  34  50  67  95 133 168 204 245 291
#     4  10  19  32  53  79 105 128 155 200 251 295
#
# _framework density 21.255286000000002
#
# number of rings (size 3 to 8) (size 9 to 14) (size 15 to 20)
#    0.000    2.714    0.000    3.000    0.000    6.000 
#    0.000    5.000    0.000    1.286    0.000    5.000 
#    0.000    0.000    0.000    0.000    0.000    0.000 
#
# Total GULP energy -312494.314601 kJ/mol
# GULP energy per Si atom -5580.255618 kJ/mol
# Density = 2.120691 g / cm^3
# Si number density = 21.255286 Si / 1000 Ang^3
#
#
#
# Elastic Constant Matrix: (Units=GPa)
#
#
# Indices 1 2 3 4 5 6 
#
# 1 92.2666 4.5740 86.1949 0.0000 0.0000 0.0000
# 2 4.5740 46.3691 3.8825 0.0000 0.0000 0.0000
# 3 86.1949 3.8825 154.6566 0.0000 0.0000 0.0000
# 4 0.0000 0.0000 0.0000 103.7366 0.0000 0.0000
# 5 0.0000 0.0000 0.0000 0.0000 17.5985 0.0000
# 6 0.0000 0.0000 0.0000 0.0000 0.0000 10.2314
#
#
#
# Elastic Compliance Matrix: (Units=1/GPa)
#
#
# Indices 1 2 3 4 5 6 
#
# 1 0.022675 -0.001181 -0.012608 0.000000 0.000000 0.000000
# 2 -0.001181 0.021673 0.000114 0.000000 0.000000 0.000000
# 3 -0.012608 0.000114 0.013490 0.000000 0.000000 0.000000
# 4 0.000000 0.000000 0.000000 0.009640 0.000000 0.000000
# 5 0.000000 0.000000 0.000000 0.000000 0.056823 0.000000
# 6 0.000000 0.000000 0.000000 0.000000 0.000000 0.097738
#
#
# Mechanical properties :
#
#
# Convention : Reuss Voigt Hill
#
# Bulk Modulus (GPa) = 32.79944 53.62168 43.21056
# Shear Modulus (GPa) = 19.26409 39.55604 29.41006
#
# Velocity S-wave (km/s) = 3.01378 4.31861 3.72379
# Velocity P-wave (km/s) = 5.25121 7.08162 6.23396
#
# Compressibility (1/GPa) = 0.03048833
#
# Stress axis : x y z
#
# Youngs Moduli (GPa) = 44.10205 46.14026 74.13060
#
# Poissons Ratio (x) = 0.05449 0.93461
# Poissons Ratio (y) = 0.05209 -0.00846
# Poissons Ratio (z) = 0.55602 -0.00527
#
# Static dielectric constant tensor:
#      x y z
#    x 1.753010 0.000000 0.000000 
#    y 0.000000 1.836580 0.000000 
#    z 0.000000 0.000000 1.790580 
# 
# From -- ./inp_files/45768.got.cif
#   From: 2010.05.17/outbox.cif.g08.bks.cpg/sg65_23_cif.got.tgz:45768.got - 2010.06.03 17:01:31.
