data_PCOD9484624
_publ_section_title
;
Structure prediction by ZEFSAII (Michael W. Deem and Ramdas Pophale) SiO2 
 PCOD9484624
Probable space group: C M M M
;
_chemical_formula_sum "Si O2"
_cell_formula_units_Z 90
_cell_length_a 24.611095
_cell_length_b 9.188931
_cell_length_c 20.104555
_cell_angle_alpha 90.000000
_cell_angle_beta 90.000000
_cell_angle_gamma 90.000000
_cell_volume 4546.638153
_symmetry_space_group_name_H-M "C M M M"
_symmetry_group_IT_number 65
_symmetry_cell_setting 'orthorhombic'
loop_
_space_group_symop_operation_xyz
x,y,z
-x,-y,z
x,-y,-z
-x,y,-z
-x,-y,-z
x,y,-z
-x,y,z
x,-y,z
1/2+x,1/2+y,z
1/2-x,1/2-y,z
1/2+x,1/2-y,-z
1/2-x,1/2+y,-z
1/2-x,1/2-y,-z
1/2+x,1/2+y,-z
1/2-x,1/2+y,z
1/2+x,1/2-y,z
loop_
_atom_site_type_symbol
_atom_site_label
_atom_site_fract_x
_atom_site_fract_y
_atom_site_fract_z
Si Si1 0.809040 0.175569 0.238325
Si Si2 0.000000 0.227823 0.371579
Si Si3 0.799531 0.161732 0.577165
Si Si4 0.435064 0.825807 0.000000
Si Si5 0.500000 0.665018 0.217784
Si Si6 0.000000 0.000000 0.500000
Si Si7 0.619849 0.832336 0.647419
Si Si8 0.602629 0.676004 0.134431
O O1 0.750000 0.250000 0.241450
O O2 0.850718 0.238704 0.294360
O O3 0.840028 0.208654 0.169184
O O4 0.804778 0.000000 0.244268
O O5 0.000000 0.157018 0.297295
O O6 0.000000 0.126776 0.438243
O O7 0.056051 0.316143 0.365283
O O8 0.787015 0.143953 0.500000
O O9 0.750000 0.250000 0.608975
O O10 0.852062 0.259767 0.583768
O O11 0.806509 0.000000 0.604925
O O12 0.408971 0.754393 0.934657
O O13 0.500000 0.794841 0.000000
O O14 0.428174 0.000000 0.000000
O O15 0.500000 0.500000 0.193761
O O16 0.554848 0.727682 0.185665
O O17 0.634398 0.000000 0.656603
O O18 0.600174 0.500000 0.126410
#
# Coordination Sequence:
#
# PCOD9484624 Si02
#       8
#    16   8  16   8   8   2  16  16
#     4  11  24  43  69 100 133 177 234 296 352 414
#     4  12  27  46  67 102 134 179 224 272 353 407
#     4  10  22  40  64  89 117 156 206 262 328 396
#     4  11  23  37  58 101 150 185 232 284 353 414
#     4  10  18  38  68  96 132 166 228 284 336 401
#     4  12  32  44  78 100 148 182 230 288 340 446
#     4  12  26  43  65  93 131 169 218 278 339 406
#     4  10  21  39  67  98 131 187 227 288 336 412
#
# _framework density 19.794844999999999
#
# number of rings (size 3 to 8) (size 9 to 14) (size 15 to 20)
#    0.000    1.156    3.111    2.667    3.733    2.844 
#    0.000    0.889    0.000    0.000    0.000    0.000 
#    0.000    0.000    0.000    0.000    0.000    0.000 
#
# Total GULP energy -250545.642628 kJ/mol
# GULP energy per Si atom -5567.680947 kJ/mol
# Density = 1.974979 g / cm^3
# Si number density = 19.794845 Si / 1000 Ang^3
#
#
#
# Elastic Constant Matrix: (Units=GPa)
#
#
# Indices 1 2 3 4 5 6 
#
# 1 141.1380 66.2787 44.2181 0.0000 0.0000 0.0000
# 2 66.2787 123.9322 41.4810 0.0000 0.0000 0.0000
# 3 44.2181 41.4810 151.7157 0.0000 0.0000 0.0000
# 4 0.0000 0.0000 0.0000 9.6127 0.0000 0.0000
# 5 0.0000 0.0000 0.0000 0.0000 45.4534 0.0000
# 6 0.0000 0.0000 0.0000 0.0000 0.0000 18.4602
#
#
#
# Elastic Compliance Matrix: (Units=1/GPa)
#
#
# Indices 1 2 3 4 5 6 
#
# 1 0.009788 -0.004711 -0.001565 0.000000 0.000000 0.000000
# 2 -0.004711 0.011149 -0.001675 0.000000 0.000000 0.000000
# 3 -0.001565 -0.001675 0.007505 0.000000 0.000000 0.000000
# 4 0.000000 0.000000 0.000000 0.104029 0.000000 0.000000
# 5 0.000000 0.000000 0.000000 0.000000 0.022001 0.000000
# 6 0.000000 0.000000 0.000000 0.000000 0.000000 0.054171
#
#
# Mechanical properties :
#
#
# Convention : Reuss Voigt Hill
#
# Bulk Modulus (GPa) = 79.74128 80.08239 79.91184
# Shear Modulus (GPa) = 21.86041 32.35912 27.10976
#
# Velocity S-wave (km/s) = 3.32678 4.04756 3.70474
# Velocity P-wave (km/s) = 7.42482 7.89859 7.66536
#
# Compressibility (1/GPa) = 0.01254056
#
# Stress axis : x y z
#
# Youngs Moduli (GPa) = 102.16985 89.69463 133.23813
#
# Poissons Ratio (x) = 0.42252 0.20847
# Poissons Ratio (y) = 0.48129 0.22322
# Poissons Ratio (z) = 0.15986 0.15027
#
# Static dielectric constant tensor:
#      x y z
#    x 1.576410 0.000000 0.000000 
#    y 0.000000 1.728130 0.000000 
#    z 0.000000 0.000000 1.739190 
# 
# From -- ./inp_files/65304.got.cif
#   From: 2010.05.17/outbox.cif.g08.bks.cpg/sg65_33_cif.got.tgz:65304.got - 2010.06.03 17:01:31.
