data_PCOD9484736
_publ_section_title
;
Structure prediction by ZEFSAII (Michael W. Deem and Ramdas Pophale) SiO2 
 PCOD9484736
Probable space group: C M M M
;
_chemical_formula_sum "Si O2"
_cell_formula_units_Z 80
_cell_length_a 20.862002
_cell_length_b 14.901820
_cell_length_c 13.135116
_cell_angle_alpha 90.000000
_cell_angle_beta 90.000000
_cell_angle_gamma 90.000000
_cell_volume 4083.468487
_symmetry_space_group_name_H-M "C M M M"
_symmetry_group_IT_number 65
_symmetry_cell_setting 'orthorhombic'
loop_
_space_group_symop_operation_xyz
x,y,z
-x,-y,z
x,-y,-z
-x,y,-z
-x,-y,-z
x,y,-z
-x,y,z
x,-y,z
1/2+x,1/2+y,z
1/2-x,1/2-y,z
1/2+x,1/2-y,-z
1/2-x,1/2+y,-z
1/2-x,1/2-y,-z
1/2+x,1/2+y,-z
1/2-x,1/2+y,z
1/2+x,1/2-y,z
loop_
_atom_site_type_symbol
_atom_site_label
_atom_site_fract_x
_atom_site_fract_y
_atom_site_fract_z
Si Si1 0.658666 0.836477 0.000000
Si Si2 0.612488 0.404257 0.192693
Si Si3 0.839327 0.338419 0.384650
Si Si4 0.800662 0.871553 0.000000
Si Si5 0.925587 0.695398 0.805625
Si Si6 0.197124 0.127820 0.384980
O O1 0.725031 0.891032 0.000000
O O2 0.684648 0.734544 0.000000
O O3 0.615216 0.843796 0.100307
O O4 0.576087 0.500000 0.183577
O O5 0.579341 0.305663 0.189760
O O6 0.650723 0.406634 0.298477
O O7 0.663664 0.403581 0.101105
O O8 0.859498 0.363194 0.500000
O O9 0.892767 0.341107 0.297785
O O10 0.817749 0.234196 0.386993
O O11 0.772098 0.387418 0.360161
O O12 0.000000 0.671697 0.811948
O O13 0.185390 0.096521 0.500000
#
# Coordination Sequence:
#
# PCOD9484736 Si02
#       6
#     8  16  16   8  16  16
#     4   9  17  30  47  63  79 103 139 185 231 260
#     4  10  19  29  42  62  90 122 150 173 201 245
#     4   8  14  26  44  63  82 107 142 186 231 260
#     4   9  17  30  47  63  79 103 139 185 231 260
#     4  10  19  29  42  62  90 122 150 173 201 245
#     4   8  14  26  44  63  82 107 142 186 231 260
#
# _framework density 19.591187000000001
#
# number of rings (size 3 to 8) (size 9 to 14) (size 15 to 20)
#    0.000    3.000    0.000    3.000    0.000    6.000 
#    0.000    0.000    0.000    3.600    0.000    5.600 
#    0.000   32.800    0.000   17.600    0.000    1.600 
#
# Total GULP energy -222688.106269 kJ/mol
# GULP energy per Si atom -5567.202657 kJ/mol
# Density = 1.954660 g / cm^3
# Si number density = 19.591187 Si / 1000 Ang^3
#
#
#
# Elastic Constant Matrix: (Units=GPa)
#
#
# Indices 1 2 3 4 5 6 
#
# 1 129.0678 -15.3773 70.9060 0.0000 0.0000 0.0000
# 2 -15.3773 15.2262 -10.0716 0.0000 0.0000 0.0000
# 3 70.9060 -10.0716 115.5883 0.0000 0.0000 0.0000
# 4 0.0000 0.0000 0.0000 0.3405 0.0000 0.0000
# 5 0.0000 0.0000 0.0000 0.0000 12.5802 0.0000
# 6 0.0000 0.0000 0.0000 0.0000 0.0000 -5.1914
#
#
#
# Elastic Compliance Matrix: (Units=1/GPa)
#
#
# Indices 1 2 3 4 5 6 
#
# 1 0.012551 0.008047 -0.006998 0.000000 0.000000 0.000000
# 2 0.008047 0.074852 0.001586 0.000000 0.000000 0.000000
# 3 -0.006998 0.001586 0.013083 0.000000 0.000000 0.000000
# 4 0.000000 0.000000 0.000000 2.937111 0.000000 0.000000
# 5 0.000000 0.000000 0.000000 0.000000 0.079490 0.000000
# 6 0.000000 0.000000 0.000000 0.000000 0.000000 -0.192626
#
#
# Mechanical properties :
#
#
# Convention : Reuss Voigt Hill
#
# Bulk Modulus (GPa) = 9.45586 38.97739 24.21662
# Shear Modulus (GPa) = 1.69237 15.84085 8.76661
#
# Velocity S-wave (km/s) = 0.93044 2.84662 2.11766
# Velocity P-wave (km/s) = 2.44772 5.54463 4.28569
#
# Compressibility (1/GPa) = 0.10575456
#
# Stress axis : x y z
#
# Youngs Moduli (GPa) = 79.67388 13.35971 76.43775
#
# Poissons Ratio (x) = -0.10750 0.53493
# Poissons Ratio (y) = -0.64111 -0.12123
# Poissons Ratio (z) = 0.55757 -0.02119
#
# Static dielectric constant tensor:
#      x y z
#    x 1.645470 0.000000 0.000000 
#    y 0.000000 1.764880 0.000000 
#    z 0.000000 0.000000 1.670910 
# 
# From -- ./inp_files/30715.got.cif
#   From: 2010.05.17/outbox.cif.g08.bks.cpg/sg65_16_cif.got.tgz:30715.got - 2010.06.03 17:01:31.
