data_PCOD9484569
_publ_section_title
;
Structure prediction by ZEFSAII (Michael W. Deem and Ramdas Pophale) SiO2 
 PCOD9484569
Probable space group: C M M M
;
_chemical_formula_sum "Si O2"
_cell_formula_units_Z 104
_cell_length_a 7.588520
_cell_length_b 24.665047
_cell_length_c 26.152856
_cell_angle_alpha 90.000000
_cell_angle_beta 90.000000
_cell_angle_gamma 90.000000
_cell_volume 4895.061505
_symmetry_space_group_name_H-M "C M M M"
_symmetry_group_IT_number 65
_symmetry_cell_setting 'orthorhombic'
loop_
_space_group_symop_operation_xyz
x,y,z
-x,-y,z
x,-y,-z
-x,y,-z
-x,-y,-z
x,y,-z
-x,y,z
x,-y,z
1/2+x,1/2+y,z
1/2-x,1/2-y,z
1/2+x,1/2-y,-z
1/2-x,1/2+y,-z
1/2-x,1/2-y,-z
1/2+x,1/2+y,-z
1/2-x,1/2+y,z
1/2+x,1/2-y,z
loop_
_atom_site_type_symbol
_atom_site_label
_atom_site_fract_x
_atom_site_fract_y
_atom_site_fract_z
Si Si1 0.791713 0.813457 0.650009
Si Si2 0.794260 0.000000 0.269747
Si Si3 0.201360 0.000000 0.937816
Si Si4 0.716487 0.618639 0.941476
Si Si5 0.790161 0.610662 0.557304
Si Si6 0.714710 0.000000 0.610763
Si Si7 0.210868 0.812963 0.153211
Si Si8 0.217086 0.119721 0.251357
O O1 0.750000 0.750000 0.654106
O O2 0.738305 0.840336 0.596493
O O3 0.721393 0.848974 0.697545
O O4 0.000000 0.818385 0.652806
O O5 0.721277 0.057499 0.251050
O O6 0.779077 0.000000 0.331157
O O7 0.000000 0.000000 0.255256
O O8 0.278031 0.941533 0.924491
O O9 0.000000 0.000000 0.918331
O O10 0.194849 0.000000 0.000000
O O11 0.500000 0.616841 0.942217
O O12 0.775250 0.662583 0.900445
O O13 0.771256 0.628904 0.000000
O O14 0.720374 0.619502 0.500000
O O15 0.724199 0.554515 0.582217
O O16 0.000000 0.603894 0.553202
O O17 0.500000 0.000000 0.612033
O O18 0.250000 0.750000 0.158999
O O19 0.274870 0.847378 0.201556
O O20 0.000000 0.819065 0.152666
O O21 0.000000 0.119116 0.252215
#
# Coordination Sequence:
#
# PCOD9484569 Si02
#       8
#    16   8   8  16  16   8  16  16
#     4  11  22  37  56  77 103 139 181 221 263 309
#     4  10  18  34  57  80 106 132 164 212 264 314
#     4   7  10  19  37  64  96 125 155 200 254 299
#     4   8  14  25  44  71 102 133 168 212 260 308
#     4  10  21  37  57  82 111 141 173 211 257 311
#     4  10  19  34  57  85 112 137 169 208 258 312
#     4  10  20  34  50  72 102 137 175 213 256 304
#     4   9  19  34  54  78 103 132 168 212 261 313
#
# _framework density 21.245902000000001
#
# number of rings (size 3 to 8) (size 9 to 14) (size 15 to 20)
#    0.000    2.538    1.538    2.077    0.000    2.462 
#    0.000    4.615    0.000    1.385    0.000    1.615 
#    0.000    1.846    0.000    0.000    0.000    0.000 
#
# Total GULP energy -290261.227102 kJ/mol
# GULP energy per Si atom -5581.946675 kJ/mol
# Density = 2.119754 g / cm^3
# Si number density = 21.245902 Si / 1000 Ang^3
#
#
#
# Elastic Constant Matrix: (Units=GPa)
#
#
# Indices 1 2 3 4 5 6 
#
# 1 41.9876 -2.7427 -3.3461 0.0000 0.0000 0.0000
# 2 -2.7427 209.9627 108.4649 0.0000 0.0000 0.0000
# 3 -3.3461 108.4649 143.6679 0.0000 0.0000 0.0000
# 4 0.0000 0.0000 0.0000 24.2639 0.0000 0.0000
# 5 0.0000 0.0000 0.0000 0.0000 -46.7634 0.0000
# 6 0.0000 0.0000 0.0000 0.0000 0.0000 -18.0105
#
#
#
# Elastic Compliance Matrix: (Units=1/GPa)
#
#
# Indices 1 2 3 4 5 6 
#
# 1 0.023861 0.000040 0.000525 0.000000 0.000000 0.000000
# 2 0.000040 0.007808 -0.005894 0.000000 0.000000 0.000000
# 3 0.000525 -0.005894 0.011422 0.000000 0.000000 0.000000
# 4 0.000000 0.000000 0.000000 0.041213 0.000000 0.000000
# 5 0.000000 0.000000 0.000000 0.000000 -0.021384 0.000000
# 6 0.000000 0.000000 0.000000 0.000000 0.000000 -0.055523
#
#
# Mechanical properties :
#
#
# Convention : Reuss Voigt Hill
#
# Bulk Modulus (GPa) = 30.83092 66.70784 48.76938
# Shear Modulus (GPa) = 173.21577 11.44747 92.33162
#
# Velocity S-wave (km/s) = 9.03914 2.32374 6.59946
# Velocity P-wave (km/s) = 11.11235 6.21819 9.00417
#
# Compressibility (1/GPa) = 0.03243497
#
# Stress axis : x y z
#
# Youngs Moduli (GPa) = 41.90930 128.07392 87.54718
#
# Poissons Ratio (x) = -0.00517 -0.04599
# Poissons Ratio (y) = -0.00169 0.51599
# Poissons Ratio (z) = -0.02201 0.75485
#
# Static dielectric constant tensor:
#      x y z
#    x 1.846650 0.000000 0.000000 
#    y 0.000000 1.717200 0.000000 
#    z 0.000000 0.000000 1.759630 
# 
# From -- ./inp_files/73670.got.cif
#   From: 2010.05.17/outbox.cif.g08.bks.cpg/sg65_37_cif.got.tgz:73670.got - 2010.06.03 17:01:31.
