data_PCOD9484487
_publ_section_title
;
Structure prediction by ZEFSAII (Michael W. Deem and Ramdas Pophale) SiO2 
 PCOD9484487
Probable space group: C M M M
;
_chemical_formula_sum "Si O2"
_cell_formula_units_Z 96
_cell_length_a 7.614290
_cell_length_b 24.644159
_cell_length_c 26.268630
_cell_angle_alpha 90.000000
_cell_angle_beta 90.000000
_cell_angle_gamma 90.000000
_cell_volume 4929.249931
_symmetry_space_group_name_H-M "C M M M"
_symmetry_group_IT_number 65
_symmetry_cell_setting 'orthorhombic'
loop_
_space_group_symop_operation_xyz
x,y,z
-x,-y,z
x,-y,-z
-x,y,-z
-x,-y,-z
x,y,-z
-x,y,z
x,-y,z
1/2+x,1/2+y,z
1/2-x,1/2-y,z
1/2+x,1/2-y,-z
1/2-x,1/2+y,-z
1/2-x,1/2-y,-z
1/2+x,1/2+y,-z
1/2-x,1/2+y,z
1/2+x,1/2-y,z
loop_
_atom_site_type_symbol
_atom_site_label
_atom_site_fract_x
_atom_site_fract_y
_atom_site_fract_z
Si Si1 0.785425 0.937131 0.557344
Si Si2 0.798359 0.000000 0.164936
Si Si3 0.707954 0.611168 0.340211
Si Si4 0.209214 0.313207 0.943138
Si Si5 0.788469 0.813572 0.251224
Si Si6 0.706333 0.382025 0.845391
Si Si7 0.210161 0.500000 0.718103
O O1 0.731041 0.922440 0.500000
O O2 0.721525 0.898888 0.602919
O O3 0.000000 0.936847 0.558122
O O4 0.733461 0.000000 0.566788
O O5 0.716217 0.942391 0.149576
O O6 0.793806 0.000000 0.226168
O O7 0.000000 0.000000 0.145800
O O8 0.500000 0.621305 0.345609
O O9 0.778915 0.657761 0.302859
O O10 0.732476 0.553948 0.311395
O O11 0.250000 0.250000 0.933873
O O12 0.279680 0.349147 0.897454
O O13 0.000000 0.319462 0.943443
O O14 0.276193 0.326733 0.000000
O O15 0.750000 0.750000 0.247854
O O16 0.721532 0.846930 0.201933
O O17 0.000000 0.818596 0.251377
O O18 0.500000 0.389879 0.833719
O O19 0.000000 0.500000 0.723064
#
# Coordination Sequence:
#
# PCOD9484487 Si02
#       7
#    16   8  16  16  16  16   8
#     4   8  13  22  44  76  98 119 163 216 254 290
#     4  10  20  38  57  76 107 141 172 204 248 311
#     4  10  18  33  53  70 100 140 170 206 255 309
#     4  10  21  37  57  80 107 140 178 219 260 300
#     4  10  21  34  51  74 100 134 170 209 258 302
#     4  10  20  35  57  81 104 134 171 211 257 309
#     4  12  22  30  47  78 107 135 170 208 252 303
#
# _framework density 19.475580999999998
#
# number of rings (size 3 to 8) (size 9 to 14) (size 15 to 20)
#    0.000    2.167    2.500    2.250    0.000    4.333 
#    0.000    0.417    0.000    4.000    0.000    0.000 
#    0.000    0.000    0.000    0.000    0.000    0.000 
#
# Total GULP energy -267812.851974 kJ/mol
# GULP energy per Si atom -5579.434416 kJ/mol
# Density = 1.943125 g / cm^3
# Si number density = 19.475581 Si / 1000 Ang^3
#
#
#
# Elastic Constant Matrix: (Units=GPa)
#
#
# Indices 1 2 3 4 5 6 
#
# 1 42.3091 -2.4786 0.0645 0.0000 0.0000 0.0000
# 2 -2.4786 146.3332 94.7779 0.0000 0.0000 0.0000
# 3 0.0645 94.7779 149.5015 0.0000 0.0000 0.0000
# 4 0.0000 0.0000 0.0000 -0.8625 0.0000 0.0000
# 5 0.0000 0.0000 0.0000 0.0000 -20.0334 0.0000
# 6 0.0000 0.0000 0.0000 0.0000 0.0000 15.4591
#
#
#
# Elastic Compliance Matrix: (Units=1/GPa)
#
#
# Indices 1 2 3 4 5 6 
#
# 1 0.023677 0.000692 -0.000449 0.000000 0.000000 0.000000
# 2 0.000692 0.011615 -0.007364 0.000000 0.000000 0.000000
# 3 -0.000449 -0.007364 0.011357 0.000000 0.000000 0.000000
# 4 0.000000 0.000000 0.000000 -1.159401 0.000000 0.000000
# 5 0.000000 0.000000 0.000000 0.000000 -0.049917 0.000000
# 6 0.000000 0.000000 0.000000 0.000000 0.000000 0.064687
#
#
# Mechanical properties :
#
#
# Convention : Reuss Voigt Hill
#
# Bulk Modulus (GPa) = 30.85697 58.09683 44.47690
# Shear Modulus (GPa) = -4.66010 15.29798 5.31894
#
# Velocity S-wave (km/s) = -1.54854 2.80571 1.65439
# Velocity P-wave (km/s) = 3.56104 6.35542 5.15133
#
# Compressibility (1/GPa) = 0.03240759
#
# Stress axis : x y z
#
# Youngs Moduli (GPa) = 42.23545 86.09780 88.04925
#
# Poissons Ratio (x) = -0.05955 0.03951
# Poissons Ratio (y) = -0.02921 0.64835
# Poissons Ratio (z) = 0.01895 0.63399
#
# Static dielectric constant tensor:
#      x y z
#    x 1.800020 0.000000 0.000000 
#    y 0.000000 1.666670 0.000000 
#    z 0.000000 0.000000 1.689890 
# 
# From -- ./inp_files/73525.got.cif
#   From: 2010.05.17/outbox.cif.g08.bks.cpg/sg65_37_cif.got.tgz:73525.got - 2010.06.03 17:01:31.
