data_PCOD9484697
_publ_section_title
;
Structure prediction by ZEFSAII (Michael W. Deem and Ramdas Pophale) SiO2 
 PCOD9484697
Probable space group: C M M M
;
_chemical_formula_sum "Si O2"
_cell_formula_units_Z 64
_cell_length_a 14.631812
_cell_length_b 7.158595
_cell_length_c 22.991412
_cell_angle_alpha 90.000000
_cell_angle_beta 90.000000
_cell_angle_gamma 90.000000
_cell_volume 2408.194438
_symmetry_space_group_name_H-M "C M M M"
_symmetry_group_IT_number 65
_symmetry_cell_setting 'orthorhombic'
loop_
_space_group_symop_operation_xyz
x,y,z
-x,-y,z
x,-y,-z
-x,y,-z
-x,-y,-z
x,y,-z
-x,y,z
x,-y,z
1/2+x,1/2+y,z
1/2-x,1/2-y,z
1/2+x,1/2-y,-z
1/2-x,1/2+y,-z
1/2-x,1/2-y,-z
1/2+x,1/2+y,-z
1/2-x,1/2+y,z
1/2+x,1/2-y,z
loop_
_atom_site_type_symbol
_atom_site_label
_atom_site_fract_x
_atom_site_fract_y
_atom_site_fract_z
Si Si1 0.890526 0.225012 0.500000
Si Si2 0.608336 0.289663 0.127027
Si Si3 0.856847 0.780219 0.000000
Si Si4 0.609425 0.274938 0.624770
Si Si5 0.108022 0.226746 0.250531
O O1 0.854365 0.292955 0.562395
O O2 0.000000 0.262394 0.500000
O O3 0.881362 0.000000 0.500000
O O4 0.500000 0.305193 0.136739
O O5 0.648005 0.500000 0.121547
O O6 0.644232 0.207084 0.187808
O O7 0.615380 0.203838 0.063039
O O8 0.750000 0.750000 0.000000
O O9 0.885391 0.000000 0.000000
O O10 0.500000 0.236677 0.624450
O O11 0.617959 0.500000 0.624967
O O12 0.646487 0.209261 0.687222
O O13 0.000000 0.273615 0.253141
O O14 0.113692 0.000000 0.248635
#
# Coordination Sequence:
#
# PCOD9484697 Si02
#       5
#     8  16   8  16  16
#     4   7   8   8  10  18  36  66  99 122 145 187
#     4   8  13  22  37  54  68  86 117 152 179 205
#     4  10  19  29  41  57  77  98 118 144 180 218
#     4   7   8   9  13  23  42  68  96 125 156 190
#     4   7   9  13  22  37  55  73  98 136 173 196
#
# _framework density 26.575928000000001
#
# number of rings (size 3 to 8) (size 9 to 14) (size 15 to 20)
#    0.000    4.375    0.000    4.875    0.000    1.500 
#    0.000    0.000    0.000    1.500    0.000    0.000 
#    0.000    0.000    0.000    1.125    0.000    6.750 
#
# Total GULP energy -178246.337250 kJ/mol
# GULP energy per Si atom -5570.198039 kJ/mol
# Density = 2.651544 g / cm^3
# Si number density = 26.575928 Si / 1000 Ang^3
#
#
#
# Elastic Constant Matrix: (Units=GPa)
#
#
# Indices 1 2 3 4 5 6 
#
# 1 74.7794 -8.8273 11.3573 0.0000 0.0000 0.0000
# 2 -8.8273 144.4381 25.1967 0.0000 0.0000 0.0000
# 3 11.3573 25.1967 435.6331 0.0000 0.0000 0.0000
# 4 0.0000 0.0000 0.0000 -70.7295 0.0000 0.0000
# 5 0.0000 0.0000 0.0000 0.0000 -78.8719 0.0000
# 6 0.0000 0.0000 0.0000 0.0000 0.0000 -5.5042
#
#
#
# Elastic Compliance Matrix: (Units=1/GPa)
#
#
# Indices 1 2 3 4 5 6 
#
# 1 0.013540 0.000898 -0.000405 0.000000 0.000000 0.000000
# 2 0.000898 0.007054 -0.000431 0.000000 0.000000 0.000000
# 3 -0.000405 -0.000431 0.002331 0.000000 0.000000 0.000000
# 4 0.000000 0.000000 0.000000 -0.014138 0.000000 0.000000
# 5 0.000000 0.000000 0.000000 0.000000 -0.012679 0.000000
# 6 0.000000 0.000000 0.000000 0.000000 0.000000 -0.181680
#
#
# Mechanical properties :
#
#
# Convention : Reuss Voigt Hill
#
# Bulk Modulus (GPa) = 43.38703 78.92266 61.15485
# Shear Modulus (GPa) = -28.08781 10.78716 -8.65033
#
# Velocity S-wave (km/s) = -3.25451 2.01688 -1.80610
# Velocity P-wave (km/s) = 1.49622 5.93172 4.32573
#
# Compressibility (1/GPa) = 0.02304836
#
# Stress axis : x y z
#
# Youngs Moduli (GPa) = 73.85417 141.77306 428.99712
#
# Poissons Ratio (x) = -0.12733 0.17372
# Poissons Ratio (y) = -0.06633 0.18506
# Poissons Ratio (z) = 0.02991 0.06116
#
# Static dielectric constant tensor:
#      x y z
#    x 2.006300 0.000000 0.000000 
#    y 0.000000 1.986600 0.000000 
#    z 0.000000 0.000000 2.215870 
# 
# From -- ./inp_files/64498.got.cif
#   From: 2010.05.17/outbox.cif.g08.bks.cpg/sg65_33_cif.got.tgz:64498.got - 2010.06.03 17:01:31.
