data_PCOD9484874
_publ_section_title
;
Structure prediction by ZEFSAII (Michael W. Deem and Ramdas Pophale) SiO2 
 PCOD9484874
Probable space group: C M M M
;
_chemical_formula_sum "Si O2"
_cell_formula_units_Z 72
_cell_length_a 18.354866
_cell_length_b 22.917514
_cell_length_c 7.280519
_cell_angle_alpha 90.000000
_cell_angle_beta 90.000000
_cell_angle_gamma 90.000000
_cell_volume 3062.535018
_symmetry_space_group_name_H-M "C M M M"
_symmetry_group_IT_number 65
_symmetry_cell_setting 'orthorhombic'
loop_
_space_group_symop_operation_xyz
x,y,z
-x,-y,z
x,-y,-z
-x,y,-z
-x,-y,-z
x,y,-z
-x,y,z
x,-y,z
1/2+x,1/2+y,z
1/2-x,1/2-y,z
1/2+x,1/2-y,-z
1/2-x,1/2+y,-z
1/2-x,1/2-y,-z
1/2+x,1/2+y,-z
1/2-x,1/2+y,z
1/2+x,1/2-y,z
loop_
_atom_site_type_symbol
_atom_site_label
_atom_site_fract_x
_atom_site_fract_y
_atom_site_fract_z
Si Si1 0.304322 0.833608 0.708627
Si Si2 0.417507 0.066924 0.778181
Si Si3 0.648972 0.376806 0.723616
Si Si4 0.915307 0.000000 0.724095
Si Si5 0.580055 0.742163 0.276479
O O1 0.286874 0.815374 0.500000
O O2 0.358698 0.888371 0.706264
O O3 0.228217 0.855301 0.788931
O O4 0.352548 0.781372 0.790155
O O5 0.500000 0.081940 0.721227
O O6 0.403073 0.000000 0.724279
O O7 0.415464 0.069167 0.000000
O O8 0.651565 0.379657 0.500000
O O9 0.624357 0.440685 0.784773
O O10 0.593319 0.325158 0.771202
O O11 0.914402 0.000000 0.500000
O O12 0.000000 0.000000 0.778487
O O13 0.580555 0.746296 0.500000
O O14 0.500000 0.762275 0.215539
#
# Coordination Sequence:
#
# PCOD9484874 Si02
#       5
#    16  16  16   8  16
#     4  10  19  29  47  74 102 124 153 200 252 291
#     4   9  19  35  51  67  93 131 169 199 232 284
#     4   9  17  27  41  64  97 130 160 199 244 286
#     4   9  16  26  40  60  90 131 170 198 233 285
#     4   9  16  27  43  64  93 131 168 197 234 290
#
# _framework density 23.509934999999999
#
# number of rings (size 3 to 8) (size 9 to 14) (size 15 to 20)
#    0.000    2.778    0.000    2.667    1.556    7.111 
#    0.000    1.111    0.000    2.667    0.000    0.000 
#    0.000    3.556    0.000    0.000    0.000    0.222 
#
# Total GULP energy -201221.408888 kJ/mol
# GULP energy per Si atom -5589.483580 kJ/mol
# Density = 2.345642 g / cm^3
# Si number density = 23.509935 Si / 1000 Ang^3
#
#
#
# Elastic Constant Matrix: (Units=GPa)
#
#
# Indices 1 2 3 4 5 6 
#
# 1 152.2064 97.2013 4.6525 0.0000 0.0000 0.0000
# 2 97.2013 158.0076 3.7268 0.0000 0.0000 0.0000
# 3 4.6525 3.7268 102.4579 0.0000 0.0000 0.0000
# 4 0.0000 0.0000 0.0000 85.1061 0.0000 0.0000
# 5 0.0000 0.0000 0.0000 0.0000 43.8917 0.0000
# 6 0.0000 0.0000 0.0000 0.0000 0.0000 59.5339
#
#
#
# Elastic Compliance Matrix: (Units=1/GPa)
#
#
# Indices 1 2 3 4 5 6 
#
# 1 0.010828 -0.006655 -0.000250 0.000000 0.000000 0.000000
# 2 -0.006655 0.010425 -0.000077 0.000000 0.000000 0.000000
# 3 -0.000250 -0.000077 0.009774 0.000000 0.000000 0.000000
# 4 0.000000 0.000000 0.000000 0.011750 0.000000 0.000000
# 5 0.000000 0.000000 0.000000 0.000000 0.022783 0.000000
# 6 0.000000 0.000000 0.000000 0.000000 0.000000 0.016797
#
#
# Mechanical properties :
#
#
# Convention : Reuss Voigt Hill
#
# Bulk Modulus (GPa) = 58.60516 69.31478 63.95997
# Shear Modulus (GPa) = 49.01596 58.17909 53.59752
#
# Velocity S-wave (km/s) = 4.57103 4.97999 4.77989
# Velocity P-wave (km/s) = 7.26918 7.91292 7.59787
#
# Compressibility (1/GPa) = 0.01706334
#
# Stress axis : x y z
#
# Youngs Moduli (GPa) = 92.35683 95.92786 102.30978
#
# Poissons Ratio (x) = 0.63839 0.02554
# Poissons Ratio (y) = 0.61462 0.00788
# Poissons Ratio (z) = 0.02305 0.00739
#
# Static dielectric constant tensor:
#      x y z
#    x 1.844680 0.000000 0.000000 
#    y 0.000000 1.835460 0.000000 
#    z 0.000000 0.000000 1.892280 
# 
# From -- ./inp_files/9235.got.cif
#   From: 2010.05.17/outbox.cif.g08.bks.cpg/sg65_5_cif.got.tgz:9235.got - 2010.06.03 17:01:31.
