data_PCOD9484664
_publ_section_title
;
Structure prediction by ZEFSAII (Michael W. Deem and Ramdas Pophale) SiO2 
 PCOD9484664
Probable space group: C M M M
;
_chemical_formula_sum "Si O2"
_cell_formula_units_Z 72
_cell_length_a 28.875772
_cell_length_b 17.208750
_cell_length_c 9.377728
_cell_angle_alpha 90.000000
_cell_angle_beta 90.000000
_cell_angle_gamma 90.000000
_cell_volume 4659.942537
_symmetry_space_group_name_H-M "C M M M"
_symmetry_group_IT_number 65
_symmetry_cell_setting 'orthorhombic'
loop_
_space_group_symop_operation_xyz
x,y,z
-x,-y,z
x,-y,-z
-x,y,-z
-x,-y,-z
x,y,-z
-x,y,z
x,-y,z
1/2+x,1/2+y,z
1/2-x,1/2-y,z
1/2+x,1/2-y,-z
1/2-x,1/2+y,-z
1/2-x,1/2-y,-z
1/2+x,1/2+y,-z
1/2-x,1/2+y,z
1/2+x,1/2-y,z
loop_
_atom_site_type_symbol
_atom_site_label
_atom_site_fract_x
_atom_site_fract_y
_atom_site_fract_z
Si Si1 0.443884 0.500000 0.338902
Si Si2 0.446636 0.655493 0.169428
Si Si3 0.303795 0.411201 0.670775
Si Si4 0.354189 0.729187 0.169217
Si Si5 0.215152 0.324460 0.336911
O O1 0.500000 0.500000 0.346192
O O2 0.425226 0.500000 0.500000
O O3 0.432125 0.578294 0.255010
O O4 0.500000 0.674453 0.205736
O O5 0.409052 0.722214 0.197356
O O6 0.445114 0.638078 0.000000
O O7 0.309892 0.397624 0.500000
O O8 0.316408 0.500000 0.702370
O O9 0.332247 0.347982 0.759135
O O10 0.249306 0.394961 0.701103
O O11 0.327407 0.801834 0.237268
O O12 0.346481 0.727464 0.000000
O O13 0.199433 0.333123 0.500000
O O14 0.250000 0.250000 0.332479
#
# Coordination Sequence:
#
# PCOD9484664 Si02
#       5
#     8  16  16  16  16
#     4   9  17  27  39  55  73  97 133 175 209 231
#     4   9  18  31  42  53  77 111 140 167 202 243
#     4   9  18  31  45  61  82 109 137 165 200 245
#     4  10  19  28  42  62  82 107 140 172 203 238
#     4   8  15  29  45  59  79 107 134 161 202 249
#
# _framework density 15.450835
#
# number of rings (size 3 to 8) (size 9 to 14) (size 15 to 20)
#    0.000    3.000    0.000    2.333    1.556    7.556 
#    0.000    0.000    0.000    0.000    0.000    0.000 
#    0.000    0.889    0.000   11.111    0.000    0.000 
#
# Total GULP energy -200456.378590 kJ/mol
# GULP energy per Si atom -5568.232739 kJ/mol
# Density = 1.541567 g / cm^3
# Si number density = 15.450835 Si / 1000 Ang^3
#
#
#
# Elastic Constant Matrix: (Units=GPa)
#
#
# Indices 1 2 3 4 5 6 
#
# 1 84.4013 11.3511 40.3781 0.0000 0.0000 0.0000
# 2 11.3511 14.0234 6.9101 0.0000 0.0000 0.0000
# 3 40.3781 6.9101 41.8468 0.0000 0.0000 0.0000
# 4 0.0000 0.0000 0.0000 16.0281 0.0000 0.0000
# 5 0.0000 0.0000 0.0000 0.0000 12.1682 0.0000
# 6 0.0000 0.0000 0.0000 0.0000 0.0000 24.6869
#
#
#
# Elastic Compliance Matrix: (Units=1/GPa)
#
#
# Indices 1 2 3 4 5 6 
#
# 1 0.022864 -0.008312 -0.020689 0.000000 0.000000 0.000000
# 2 -0.008312 0.080647 -0.005297 0.000000 0.000000 0.000000
# 3 -0.020689 -0.005297 0.044734 0.000000 0.000000 0.000000
# 4 0.000000 0.000000 0.000000 0.062391 0.000000 0.000000
# 5 0.000000 0.000000 0.000000 0.000000 0.082181 0.000000
# 6 0.000000 0.000000 0.000000 0.000000 0.000000 0.040507
#
#
# Mechanical properties :
#
#
# Convention : Reuss Voigt Hill
#
# Bulk Modulus (GPa) = 12.55496 28.61666 20.58581
# Shear Modulus (GPa) = 11.66945 16.01878 13.84411
#
# Velocity S-wave (km/s) = 2.75119 3.22337 2.99659
# Velocity P-wave (km/s) = 4.27030 5.69340 5.03240
#
# Compressibility (1/GPa) = 0.07964981
#
# Stress axis : x y z
#
# Youngs Moduli (GPa) = 43.73759 12.39967 22.35444
#
# Poissons Ratio (x) = 0.10307 0.46248
# Poissons Ratio (y) = 0.36356 0.11840
# Poissons Ratio (z) = 0.90487 0.06568
#
# Static dielectric constant tensor:
#      x y z
#    x 1.560930 0.000000 0.000000 
#    y 0.000000 1.498450 0.000000 
#    z 0.000000 0.000000 1.519890 
# 
# From -- ./inp_files/9494.got.cif
#   From: 2010.05.17/outbox.cif.g08.bks.cpg/sg65_5_cif.got.tgz:9494.got - 2010.06.03 17:01:31.
