data_PCOD9484062
_publ_section_title
;
Structure prediction by ZEFSAII (Michael W. Deem and Ramdas Pophale) SiO2 
 PCOD9484062
Probable space group: C M M M
;
_chemical_formula_sum "Si O2"
_cell_formula_units_Z 120
_cell_length_a 35.367067
_cell_length_b 13.945632
_cell_length_c 14.623819
_cell_angle_alpha 90.000000
_cell_angle_beta 90.000000
_cell_angle_gamma 90.000000
_cell_volume 7212.702993
_symmetry_space_group_name_H-M "C M M M"
_symmetry_group_IT_number 65
_symmetry_cell_setting 'orthorhombic'
loop_
_space_group_symop_operation_xyz
x,y,z
-x,-y,z
x,-y,-z
-x,y,-z
-x,-y,-z
x,y,-z
-x,y,z
x,-y,z
1/2+x,1/2+y,z
1/2-x,1/2-y,z
1/2+x,1/2-y,-z
1/2-x,1/2+y,-z
1/2-x,1/2-y,-z
1/2+x,1/2+y,-z
1/2-x,1/2+y,z
1/2+x,1/2-y,z
loop_
_atom_site_type_symbol
_atom_site_label
_atom_site_fract_x
_atom_site_fract_y
_atom_site_fract_z
Si Si1 0.180797 0.720139 0.105072
Si Si2 0.861992 0.762350 0.604224
Si Si3 0.668150 0.388447 0.766142
Si Si4 0.603825 0.113946 0.899609
Si Si5 0.079423 0.383258 0.301279
Si Si6 0.280480 0.164354 0.402040
Si Si7 0.500000 0.115480 0.395713
Si Si8 0.241655 0.396542 0.786374
O O1 0.161989 0.813178 0.152055
O O2 0.147931 0.640669 0.110808
O O3 0.217859 0.680590 0.156500
O O4 0.190077 0.740014 0.000000
O O5 0.872532 0.791738 0.500000
O O6 0.853420 0.847544 0.676831
O O7 0.890837 0.683332 0.644528
O O8 0.821557 0.710661 0.597912
O O9 0.658801 0.500000 0.781895
O O10 0.714163 0.381996 0.762320
O O11 0.582935 0.142683 0.806225
O O12 0.599930 0.000000 0.903476
O O13 0.591668 0.152840 0.000000
O O14 0.086235 0.500000 0.311306
O O15 0.038189 0.360440 0.341756
O O16 0.273499 0.116555 0.500000
O O17 0.250000 0.250000 0.393585
O O18 0.277420 0.102116 0.312547
O O19 0.500000 0.153027 0.500000
O O20 0.500000 0.000000 0.401878
O O21 0.238596 0.500000 0.833548
#
# Coordination Sequence:
#
# PCOD9484062 Si02
#       8
#    16  16  16  16  16  16   8  16
#     4  11  21  36  55  73 100 135 174 226 280 322
#     4  11  21  34  54  76 102 138 179 218 261 319
#     4  11  23  37  51  70  97 131 178 228 271 315
#     4   9  17  30  52  81 109 139 176 215 261 319
#     4  10  19  34  56  83 116 148 178 215 261 319
#     4  10  18  31  49  68  97 132 172 218 261 302
#     4   9  18  32  51  81 120 154 178 207 255 317
#     4  11  21  33  50  71  97 131 172 217 271 330
#
# _framework density 16.637312999999999
#
# number of rings (size 3 to 8) (size 9 to 14) (size 15 to 20)
#    0.000    1.667    4.000    1.200    0.000    5.067 
#    0.000    4.333    0.000    2.000    0.000    0.467 
#    0.000    1.600    0.000    2.933    0.000    0.133 
#
# Total GULP energy -334009.852553 kJ/mol
# GULP energy per Si atom -5566.830876 kJ/mol
# Density = 1.659945 g / cm^3
# Si number density = 16.637313 Si / 1000 Ang^3
#
#
#
# Elastic Constant Matrix: (Units=GPa)
#
#
# Indices 1 2 3 4 5 6 
#
# 1 87.0369 22.8142 43.3695 0.0000 0.0000 0.0000
# 2 22.8142 60.7231 36.3227 0.0000 0.0000 0.0000
# 3 43.3695 36.3227 140.2018 0.0000 0.0000 0.0000
# 4 0.0000 0.0000 0.0000 25.2432 0.0000 0.0000
# 5 0.0000 0.0000 0.0000 0.0000 20.3477 0.0000
# 6 0.0000 0.0000 0.0000 0.0000 0.0000 17.1967
#
#
#
# Elastic Compliance Matrix: (Units=1/GPa)
#
#
# Indices 1 2 3 4 5 6 
#
# 1 0.014083 -0.003178 -0.003533 0.000000 0.000000 0.000000
# 2 -0.003178 0.020205 -0.004252 0.000000 0.000000 0.000000
# 3 -0.003533 -0.004252 0.009327 0.000000 0.000000 0.000000
# 4 0.000000 0.000000 0.000000 0.039615 0.000000 0.000000
# 5 0.000000 0.000000 0.000000 0.000000 0.049145 0.000000
# 6 0.000000 0.000000 0.000000 0.000000 0.000000 0.058151
#
#
# Mechanical properties :
#
#
# Convention : Reuss Voigt Hill
#
# Bulk Modulus (GPa) = 46.10370 54.77496 50.43933
# Shear Modulus (GPa) = 22.76031 24.92124 23.84078
#
# Velocity S-wave (km/s) = 3.70270 3.87449 3.78957
# Velocity P-wave (km/s) = 6.78610 7.28079 7.03779
#
# Compressibility (1/GPa) = 0.02169023
#
# Stress axis : x y z
#
# Youngs Moduli (GPa) = 71.00866 49.49190 107.21567
#
# Poissons Ratio (x) = 0.15727 0.37880
# Poissons Ratio (y) = 0.22564 0.45585
# Poissons Ratio (z) = 0.25088 0.21043
#
# Static dielectric constant tensor:
#      x y z
#    x 1.540400 0.000000 0.000000 
#    y 0.000000 1.584840 0.000000 
#    z 0.000000 0.000000 1.623880 
# 
# From -- ./inp_files/48097.got.cif
#   From: 2010.05.17/outbox.cif.g08.bks.cpg/sg65_25_cif.got.tgz:48097.got - 2010.06.03 17:01:31.
