data_PCOD9484970
_publ_section_title
;
Structure prediction by ZEFSAII (Michael W. Deem and Ramdas Pophale) SiO2 
 PCOD9484970
Probable space group: C M M M
;
_chemical_formula_sum "Si O2"
_cell_formula_units_Z 80
_cell_length_a 16.397132
_cell_length_b 21.827563
_cell_length_c 12.298520
_cell_angle_alpha 90.000000
_cell_angle_beta 90.000000
_cell_angle_gamma 90.000000
_cell_volume 4401.756305
_symmetry_space_group_name_H-M "C M M M"
_symmetry_group_IT_number 65
_symmetry_cell_setting 'orthorhombic'
loop_
_space_group_symop_operation_xyz
x,y,z
-x,-y,z
x,-y,-z
-x,y,-z
-x,-y,-z
x,y,-z
-x,y,z
x,-y,z
1/2+x,1/2+y,z
1/2-x,1/2-y,z
1/2+x,1/2-y,-z
1/2-x,1/2+y,-z
1/2-x,1/2-y,-z
1/2+x,1/2+y,-z
1/2-x,1/2+y,z
1/2+x,1/2-y,z
loop_
_atom_site_type_symbol
_atom_site_label
_atom_site_fract_x
_atom_site_fract_y
_atom_site_fract_z
Si Si1 0.903492 0.068771 0.802446
Si Si2 0.590558 0.733548 0.616430
Si Si3 0.902049 0.845699 0.000000
Si Si4 0.708543 0.382288 0.375452
Si Si5 0.598840 0.800767 0.000000
Si Si6 0.815622 0.693654 0.782032
O O1 0.849966 0.073437 0.693614
O O2 0.000000 0.079190 0.780070
O O3 0.896544 0.000000 0.848547
O O4 0.874316 0.119344 0.890503
O O5 0.598111 0.766662 0.500000
O O6 0.500000 0.707901 0.624989
O O7 0.654663 0.679305 0.615088
O O8 0.610320 0.776435 0.715495
O O9 0.885895 0.773437 0.000000
O O10 0.000000 0.853045 0.000000
O O11 0.729362 0.400856 0.500000
O O12 0.779958 0.359715 0.294819
O O13 0.646449 0.826069 0.104434
O O14 0.500000 0.809660 0.000000
O O15 0.750000 0.750000 0.795695
#
# Coordination Sequence:
#
# PCOD9484970 Si02
#       6
#    16  16   8  16   8  16
#     4  10  20  33  50  71  97 133 177 219 249 278
#     4   9  16  27  44  64  89 124 163 199 236 286
#     4   9  17  31  49  69  95 128 165 203 245 286
#     4  10  20  32  46  66  96 132 167 206 252 295
#     4  11  21  32  50  74 100 130 163 202 243 291
#     4  10  19  30  44  66  96 127 161 196 240 296
#
# _framework density 18.174564
#
# number of rings (size 3 to 8) (size 9 to 14) (size 15 to 20)
#    0.000    2.200    0.000    4.800    0.000    7.600 
#    0.000    1.000    0.000    0.000    0.000    0.000 
#    0.000    4.000    0.000    9.800    0.000    0.200 
#
# Total GULP energy -222859.748514 kJ/mol
# GULP energy per Si atom -5571.493713 kJ/mol
# Density = 1.813320 g / cm^3
# Si number density = 18.174564 Si / 1000 Ang^3
#
#
#
# Elastic Constant Matrix: (Units=GPa)
#
#
# Indices 1 2 3 4 5 6 
#
# 1 51.8790 7.9518 40.0926 0.0000 0.0000 0.0000
# 2 7.9518 25.4812 17.2468 0.0000 0.0000 0.0000
# 3 40.0926 17.2468 132.2979 0.0000 0.0000 0.0000
# 4 0.0000 0.0000 0.0000 5.2015 0.0000 0.0000
# 5 0.0000 0.0000 0.0000 0.0000 29.8502 0.0000
# 6 0.0000 0.0000 0.0000 0.0000 0.0000 17.3951
#
#
#
# Elastic Compliance Matrix: (Units=1/GPa)
#
#
# Indices 1 2 3 4 5 6 
#
# 1 0.025375 -0.002976 -0.007302 0.000000 0.000000 0.000000
# 2 -0.002976 0.043392 -0.004755 0.000000 0.000000 0.000000
# 3 -0.007302 -0.004755 0.010391 0.000000 0.000000 0.000000
# 4 0.000000 0.000000 0.000000 0.192254 0.000000 0.000000
# 5 0.000000 0.000000 0.000000 0.000000 0.033501 0.000000
# 6 0.000000 0.000000 0.000000 0.000000 0.000000 0.057488
#
#
# Mechanical properties :
#
#
# Convention : Reuss Voigt Hill
#
# Bulk Modulus (GPa) = 20.36992 37.80449 29.08721
# Shear Modulus (GPa) = 12.23005 20.11382 16.17193
#
# Velocity S-wave (km/s) = 2.59689 3.33032 2.98621
# Velocity P-wave (km/s) = 4.49711 5.96942 5.28479
#
# Compressibility (1/GPa) = 0.04909199
#
# Stress axis : x y z
#
# Youngs Moduli (GPa) = 39.40941 23.04592 96.23430
#
# Poissons Ratio (x) = 0.06859 0.70268
# Poissons Ratio (y) = 0.11730 0.45756
# Poissons Ratio (z) = 0.28776 0.10958
#
# Static dielectric constant tensor:
#      x y z
#    x 1.632810 0.000000 0.000000 
#    y 0.000000 1.602080 0.000000 
#    z 0.000000 0.000000 1.698610 
# 
# From -- ./inp_files/24685.got.cif
#   From: 2010.05.17/outbox.cif.g08.bks.cpg/sg65_13_cif.got.tgz:24685.got - 2010.06.03 17:01:31.
