data_PCOD9484574
_publ_section_title
;
Structure prediction by ZEFSAII (Michael W. Deem and Ramdas Pophale) SiO2 
 PCOD9484574
Probable space group: C M M M
;
_chemical_formula_sum "Si O2"
_cell_formula_units_Z 88
_cell_length_a 18.847397
_cell_length_b 28.827149
_cell_length_c 8.741381
_cell_angle_alpha 90.000000
_cell_angle_beta 90.000000
_cell_angle_gamma 90.000000
_cell_volume 4749.338467
_symmetry_space_group_name_H-M "C M M M"
_symmetry_group_IT_number 65
_symmetry_cell_setting 'orthorhombic'
loop_
_space_group_symop_operation_xyz
x,y,z
-x,-y,z
x,-y,-z
-x,y,-z
-x,-y,-z
x,y,-z
-x,y,z
x,-y,z
1/2+x,1/2+y,z
1/2-x,1/2-y,z
1/2+x,1/2-y,-z
1/2-x,1/2+y,-z
1/2-x,1/2-y,-z
1/2+x,1/2+y,-z
1/2-x,1/2+y,z
1/2+x,1/2-y,z
loop_
_atom_site_type_symbol
_atom_site_label
_atom_site_fract_x
_atom_site_fract_y
_atom_site_fract_z
Si Si1 0.139606 0.389330 0.185031
Si Si2 0.919980 0.054657 0.815969
Si Si3 0.313901 0.286760 0.818872
Si Si4 0.000000 0.446567 0.813523
Si Si5 0.209667 0.112552 0.680912
Si Si6 0.081078 0.709872 0.813532
O O1 0.215451 0.404222 0.248943
O O2 0.123691 0.336138 0.232861
O O3 0.071821 0.419979 0.233337
O O4 0.142857 0.390316 0.000000
O O5 0.857131 0.083755 0.742632
O O6 0.000000 0.069083 0.769050
O O7 0.912395 0.000000 0.780242
O O8 0.916114 0.059352 0.000000
O O9 0.250000 0.250000 0.804002
O O10 0.300495 0.334058 0.731472
O O11 0.382232 0.257604 0.765953
O O12 0.320207 0.297871 0.000000
O O13 0.000000 0.500000 0.764314
O O14 0.000000 0.445764 0.000000
O O15 0.213194 0.109059 0.500000
O O16 0.000000 0.706033 0.763972
O O17 0.082139 0.709823 0.000000
#
# Coordination Sequence:
#
# PCOD9484574 Si02
#       6
#    16  16  16   8  16  16
#     4  10  18  34  58  81 111 151 199 246 290 341
#     4   9  20  42  70  93 112 142 191 247 296 345
#     4  10  19  34  56  80 108 147 198 246 288 330
#     4   9  18  32  57  91 117 141 187 255 308 339
#     4  12  25  37  55  87 127 161 192 231 289 360
#     4   9  16  29  53  81 103 138 192 247 293 332
#
# _framework density 18.528896
#
# number of rings (size 3 to 8) (size 9 to 14) (size 15 to 20)
#    0.000    2.091    2.727    2.182    0.000    2.545 
#    0.000    5.000    0.000    1.636    0.000    0.000 
#    0.000    0.000    0.000    0.000    0.000    0.000 
#
# Total GULP energy -245554.151643 kJ/mol
# GULP energy per Si atom -5580.776174 kJ/mol
# Density = 1.848672 g / cm^3
# Si number density = 18.528896 Si / 1000 Ang^3
#
#
#
# Elastic Constant Matrix: (Units=GPa)
#
#
# Indices 1 2 3 4 5 6 
#
# 1 178.1148 73.9067 46.8615 0.0000 0.0000 0.0000
# 2 73.9067 89.2258 33.5756 0.0000 0.0000 0.0000
# 3 46.8615 33.5756 34.7623 0.0000 0.0000 0.0000
# 4 0.0000 0.0000 0.0000 -31.0530 0.0000 0.0000
# 5 0.0000 0.0000 0.0000 0.0000 -3.6021 0.0000
# 6 0.0000 0.0000 0.0000 0.0000 0.0000 31.8079
#
#
#
# Elastic Compliance Matrix: (Units=1/GPa)
#
#
# Indices 1 2 3 4 5 6 
#
# 1 0.009951 -0.005019 -0.008567 0.000000 0.000000 0.000000
# 2 -0.005019 0.020138 -0.012685 0.000000 0.000000 0.000000
# 3 -0.008567 -0.012685 0.052567 0.000000 0.000000 0.000000
# 4 0.000000 0.000000 0.000000 -0.032203 0.000000 0.000000
# 5 0.000000 0.000000 0.000000 0.000000 -0.277613 0.000000
# 6 0.000000 0.000000 0.000000 0.000000 0.000000 0.031439
#
#
# Mechanical properties :
#
#
# Convention : Reuss Voigt Hill
#
# Bulk Modulus (GPa) = 33.20608 67.86559 50.53584
# Shear Modulus (GPa) = -37.55387 9.28116 -14.13636
#
# Velocity S-wave (km/s) = -4.50685 2.24051 -2.76513
# Velocity P-wave (km/s) = 3.02029 6.58784 4.13989
#
# Compressibility (1/GPa) = 0.03011497
#
# Stress axis : x y z
#
# Youngs Moduli (GPa) = 100.49610 49.65773 19.02319
#
# Poissons Ratio (x) = 0.24921 0.16297
# Poissons Ratio (y) = 0.50434 0.24131
# Poissons Ratio (z) = 0.86093 0.62992
#
# Static dielectric constant tensor:
#      x y z
#    x 1.653610 0.000000 0.000000 
#    y 0.000000 1.623480 0.000000 
#    z 0.000000 0.000000 1.621680 
# 
# From -- ./inp_files/10086.got.cif
#   From: 2010.05.17/outbox.cif.g08.bks.cpg/sg65_6_cif.got.tgz:10086.got - 2010.06.03 17:01:31.
