data_PCOD9484006
_publ_section_title
;
Structure prediction by ZEFSAII (Michael W. Deem and Ramdas Pophale) SiO2 
 PCOD9484006
Probable space group: C M M M
;
_chemical_formula_sum "Si O2"
_cell_formula_units_Z 88
_cell_length_a 24.965719
_cell_length_b 15.441729
_cell_length_c 11.747135
_cell_angle_alpha 90.000000
_cell_angle_beta 90.000000
_cell_angle_gamma 90.000000
_cell_volume 4528.683441
_symmetry_space_group_name_H-M "C M M M"
_symmetry_group_IT_number 65
_symmetry_cell_setting 'orthorhombic'
loop_
_space_group_symop_operation_xyz
x,y,z
-x,-y,z
x,-y,-z
-x,y,-z
-x,-y,-z
x,y,-z
-x,y,z
x,-y,z
1/2+x,1/2+y,z
1/2-x,1/2-y,z
1/2+x,1/2-y,-z
1/2-x,1/2+y,-z
1/2-x,1/2-y,-z
1/2+x,1/2+y,-z
1/2-x,1/2+y,z
1/2+x,1/2-y,z
loop_
_atom_site_type_symbol
_atom_site_label
_atom_site_fract_x
_atom_site_fract_y
_atom_site_fract_z
Si Si1 0.601732 0.658038 0.734511
Si Si2 0.436898 0.829542 0.368327
Si Si3 0.268403 0.348093 0.500000
Si Si4 0.210143 0.500000 0.133987
Si Si5 0.385978 0.597691 0.500000
Si Si6 0.636751 0.000000 0.634743
Si Si7 0.936595 0.000000 0.121495
Si Si8 0.230324 0.848911 0.249582
O O1 0.582389 0.756368 0.720516
O O2 0.583881 0.615591 0.614744
O O3 0.578801 0.591046 0.823252
O O4 0.665967 0.653402 0.748176
O O5 0.430278 0.797779 0.500000
O O6 0.500000 0.848004 0.352598
O O7 0.400520 0.914486 0.359260
O O8 0.250000 0.250000 0.500000
O O9 0.332650 0.345157 0.500000
O O10 0.252063 0.383446 0.623559
O O11 0.169715 0.500000 0.244481
O O12 0.245874 0.585732 0.157596
O O13 0.191513 0.500000 0.000000
O O14 0.365038 0.500000 0.500000
O O15 0.658638 0.000000 0.500000
O O16 0.000000 0.000000 0.115174
O O17 0.909277 0.000000 0.000000
O O18 0.250000 0.750000 0.236441
#
# Coordination Sequence:
#
# PCOD9484006 Si02
#       8
#    16  16   8   8   8   8   8  16
#     4  11  20  37  60  87 127 162 199 248 310 374
#     4  10  20  37  65  99 130 160 202 265 333 392
#     4   8  18  32  54  84 117 153 200 250 296 348
#     4  12  27  43  61  92 128 171 222 266 317 377
#     4  10  18  30  52  85 119 154 192 236 300 373
#     4  10  23  43  67  95 127 167 215 269 331 391
#     4  11  25  42  58  81 115 162 217 257 294 364
#     4  10  22  38  60  90 124 164 205 254 303 374
#
# _framework density 19.431695999999999
#
# number of rings (size 3 to 8) (size 9 to 14) (size 15 to 20)
#    0.000    1.727    1.818    2.455    5.091    2.909 
#    0.000    3.182    0.000    2.182    0.000    0.000 
#    0.000    0.000    0.000    0.000    0.000    0.000 
#
# Total GULP energy -245087.818029 kJ/mol
# GULP energy per Si atom -5570.177682 kJ/mol
# Density = 1.938747 g / cm^3
# Si number density = 19.431696 Si / 1000 Ang^3
#
#
#
# Elastic Constant Matrix: (Units=GPa)
#
#
# Indices 1 2 3 4 5 6 
#
# 1 63.4514 39.7468 35.1978 0.0000 0.0000 0.0000
# 2 39.7468 102.2825 47.8140 0.0000 0.0000 0.0000
# 3 35.1978 47.8140 121.5236 0.0000 0.0000 0.0000
# 4 0.0000 0.0000 0.0000 -102.1092 0.0000 0.0000
# 5 0.0000 0.0000 0.0000 0.0000 16.6545 0.0000
# 6 0.0000 0.0000 0.0000 0.0000 0.0000 29.2789
#
#
#
# Elastic Compliance Matrix: (Units=1/GPa)
#
#
# Indices 1 2 3 4 5 6 
#
# 1 0.022113 -0.006861 -0.003705 0.000000 0.000000 0.000000
# 2 -0.006861 0.014109 -0.003564 0.000000 0.000000 0.000000
# 3 -0.003705 -0.003564 0.010704 0.000000 0.000000 0.000000
# 4 0.000000 0.000000 0.000000 -0.009793 0.000000 0.000000
# 5 0.000000 0.000000 0.000000 0.000000 0.060044 0.000000
# 6 0.000000 0.000000 0.000000 0.000000 0.000000 0.034154
#
#
# Mechanical properties :
#
#
# Convention : Reuss Voigt Hill
#
# Bulk Modulus (GPa) = 53.57366 59.19719 56.38543
# Shear Modulus (GPa) = 30.15419 -0.26856 14.94281
#
# Velocity S-wave (km/s) = 3.94357 -0.37217 2.77608
# Velocity P-wave (km/s) = 6.95455 5.50869 6.27341
#
# Compressibility (1/GPa) = 0.01866589
#
# Stress axis : x y z
#
# Youngs Moduli (GPa) = 45.22145 70.87602 93.41983
#
# Poissons Ratio (x) = 0.48629 0.34615
# Poissons Ratio (y) = 0.31027 0.33296
# Poissons Ratio (z) = 0.16756 0.25261
#
# Static dielectric constant tensor:
#      x y z
#    x 1.521090 0.000000 0.000000 
#    y 0.000000 1.809260 0.000000 
#    z 0.000000 0.000000 1.756440 
# 
# From -- ./inp_files/32320.got.cif
#   From: 2010.05.17/outbox.cif.g08.bks.cpg/sg65_17_cif.got.tgz:32320.got - 2010.06.03 17:01:31.
