data_PCOD9484589
_publ_section_title
;
Structure prediction by ZEFSAII (Michael W. Deem and Ramdas Pophale) SiO2 
 PCOD9484589
Probable space group: C M M M
;
_chemical_formula_sum "Si O2"
_cell_formula_units_Z 104
_cell_length_a 24.343853
_cell_length_b 7.651970
_cell_length_c 27.037380
_cell_angle_alpha 90.000000
_cell_angle_beta 90.000000
_cell_angle_gamma 90.000000
_cell_volume 5036.480775
_symmetry_space_group_name_H-M "C M M M"
_symmetry_group_IT_number 65
_symmetry_cell_setting 'orthorhombic'
loop_
_space_group_symop_operation_xyz
x,y,z
-x,-y,z
x,-y,-z
-x,y,-z
-x,-y,-z
x,y,-z
-x,y,z
x,-y,z
1/2+x,1/2+y,z
1/2-x,1/2-y,z
1/2+x,1/2-y,-z
1/2-x,1/2+y,-z
1/2-x,1/2-y,-z
1/2+x,1/2+y,-z
1/2-x,1/2+y,z
1/2+x,1/2-y,z
loop_
_atom_site_type_symbol
_atom_site_label
_atom_site_fract_x
_atom_site_fract_y
_atom_site_fract_z
Si Si1 0.813995 0.790439 0.244471
Si Si2 0.500000 0.794582 0.297281
Si Si3 0.500000 0.704836 0.182377
Si Si4 0.880495 0.789350 0.660684
Si Si5 0.186961 0.790070 0.944154
Si Si6 0.881730 0.785044 0.149008
Si Si7 0.877737 0.201038 0.444612
Si Si8 0.500000 0.194942 0.558445
O O1 0.750000 0.750000 0.244682
O O2 0.844861 0.723177 0.293269
O O3 0.843598 0.728017 0.194689
O O4 0.820496 0.000000 0.245017
O O5 0.500000 0.716176 0.242043
O O6 0.444331 0.745878 0.326200
O O7 0.500000 0.000000 0.290292
O O8 0.500000 0.500000 0.169952
O O9 0.556590 0.776597 0.160266
O O10 0.858814 0.719023 0.607581
O O11 0.875194 0.000000 0.657930
O O12 0.250000 0.750000 0.930188
O O13 0.145020 0.726763 0.902471
O O14 0.182014 0.000000 0.945922
O O15 0.177804 0.722693 0.000000
O O16 0.881967 0.000000 0.148896
O O17 0.868226 0.277940 0.500000
O O18 0.943379 0.205296 0.434298
O O19 0.859428 0.000000 0.447391
O O20 0.500000 0.168120 0.500000
O O21 0.500000 0.000000 0.582050
#
# Coordination Sequence:
#
# PCOD9484589 Si02
#       8
#    16   8   8  16  16  16  16   8
#     4  10  20  34  52  73  96 127 167 208 252 299
#     4  12  23  33  49  77 106 131 166 211 251 292
#     4  10  18  35  56  71  99 140 174 202 249 314
#     4  10  20  35  53  71  98 136 167 197 248 310
#     4   9  17  30  49  76 107 137 173 215 254 293
#     4   9  17  31  53  76  99 134 172 205 246 301
#     4   9  17  29  46  67  89 118 161 204 236 280
#     4   9  16  25  38  60  92 124 149 181 234 289
#
# _framework density 20.649339999999999
#
# number of rings (size 3 to 8) (size 9 to 14) (size 15 to 20)
#    0.000    2.385    1.538    1.846    0.000    4.000 
#    0.000    1.154    0.000    2.769    0.000    0.000 
#    0.000    3.077    0.000    0.000    0.000    0.000 
#
# Total GULP energy -289917.366741 kJ/mol
# GULP energy per Si atom -5575.333976 kJ/mol
# Density = 2.060234 g / cm^3
# Si number density = 20.649340 Si / 1000 Ang^3
#
#
#
# Elastic Constant Matrix: (Units=GPa)
#
#
# Indices 1 2 3 4 5 6 
#
# 1 123.5401 -2.7460 98.9306 0.0000 0.0000 0.0000
# 2 -2.7460 42.9359 2.5794 0.0000 0.0000 0.0000
# 3 98.9306 2.5794 188.5359 0.0000 0.0000 0.0000
# 4 0.0000 0.0000 0.0000 0.1997 0.0000 0.0000
# 5 0.0000 0.0000 0.0000 0.0000 1.6043 0.0000
# 6 0.0000 0.0000 0.0000 0.0000 0.0000 16.3106
#
#
#
# Elastic Compliance Matrix: (Units=1/GPa)
#
#
# Indices 1 2 3 4 5 6 
#
# 1 0.014038 0.001341 -0.007384 0.000000 0.000000 0.000000
# 2 0.001341 0.023438 -0.001025 0.000000 0.000000 0.000000
# 3 -0.007384 -0.001025 0.009193 0.000000 0.000000 0.000000
# 4 0.000000 0.000000 0.000000 5.006949 0.000000 0.000000
# 5 0.000000 0.000000 0.000000 0.000000 0.623337 0.000000
# 6 0.000000 0.000000 0.000000 0.000000 0.000000 0.061310
#
#
# Mechanical properties :
#
#
# Convention : Reuss Voigt Hill
#
# Bulk Modulus (GPa) = 30.73759 61.39331 46.06545
# Shear Modulus (GPa) = 0.86757 20.70612 10.78684
#
# Velocity S-wave (km/s) = 0.64889 3.17006 2.28805
# Velocity P-wave (km/s) = 3.93436 6.57228 5.41637
#
# Compressibility (1/GPa) = 0.03253346
#
# Stress axis : x y z
#
# Youngs Moduli (GPa) = 71.23650 42.66600 108.78006
#
# Poissons Ratio (x) = -0.05723 0.80327
# Poissons Ratio (y) = -0.09556 0.11145
# Poissons Ratio (z) = 0.52604 0.04371
#
# Static dielectric constant tensor:
#      x y z
#    x 1.722230 0.000000 0.000000 
#    y 0.000000 1.851450 0.000000 
#    z 0.000000 0.000000 1.787340 
# 
# From -- ./inp_files/71940.got.cif
#   From: 2010.05.17/outbox.cif.g08.bks.cpg/sg65_36_cif.got.tgz:71940.got - 2010.06.03 17:01:31.
