data_PCOD9484026
_publ_section_title
;
Structure prediction by ZEFSAII (Michael W. Deem and Ramdas Pophale) SiO2 
 PCOD9484026
Probable space group: C M M M
;
_chemical_formula_sum "Si O2"
_cell_formula_units_Z 96
_cell_length_a 12.077777
_cell_length_b 30.823407
_cell_length_c 14.164592
_cell_angle_alpha 90.000000
_cell_angle_beta 90.000000
_cell_angle_gamma 90.000000
_cell_volume 5273.169325
_symmetry_space_group_name_H-M "C M M M"
_symmetry_group_IT_number 65
_symmetry_cell_setting 'orthorhombic'
loop_
_space_group_symop_operation_xyz
x,y,z
-x,-y,z
x,-y,-z
-x,y,-z
-x,-y,-z
x,y,-z
-x,y,z
x,-y,z
1/2+x,1/2+y,z
1/2-x,1/2-y,z
1/2+x,1/2-y,-z
1/2-x,1/2+y,-z
1/2-x,1/2-y,-z
1/2+x,1/2+y,-z
1/2-x,1/2+y,z
1/2+x,1/2-y,z
loop_
_atom_site_type_symbol
_atom_site_label
_atom_site_fract_x
_atom_site_fract_y
_atom_site_fract_z
Si Si1 0.368221 0.000000 0.113178
Si Si2 0.738217 0.198545 0.387005
Si Si3 0.737662 0.094161 0.107962
Si Si4 0.000000 0.395397 0.107417
Si Si5 0.500000 0.831910 0.610061
Si Si6 0.631734 0.375770 0.286076
Si Si7 0.261000 0.047169 0.612611
Si Si8 0.000000 0.428479 0.320764
O O1 0.303499 0.955034 0.137030
O O2 0.500000 0.000000 0.142135
O O3 0.369240 0.000000 0.000000
O O4 0.747948 0.188263 0.500000
O O5 0.750000 0.250000 0.376916
O O6 0.615536 0.185630 0.351709
O O7 0.824332 0.169546 0.328815
O O8 0.624256 0.122948 0.108306
O O9 0.822806 0.114137 0.181238
O O10 0.777748 0.091718 0.000000
O O11 0.000000 0.416958 0.210745
O O12 0.000000 0.417031 0.000000
O O13 0.500000 0.819911 0.500000
O O14 0.500000 0.883184 0.623072
O O15 0.500000 0.378084 0.290467
O O16 0.690139 0.413487 0.347362
O O17 0.267015 0.050828 0.500000
O O18 0.386193 0.048892 0.651384
O O19 0.212816 0.000000 0.637515
#
# Coordination Sequence:
#
# PCOD9484026 Si02
#       8
#     8  16  16   8   8  16  16   8
#     4   9  16  30  57  89 118 149 197 260 318 362
#     4  10  22  40  65  94 121 151 192 252 319 377
#     4  10  20  36  58  88 122 159 204 254 309 364
#     4  10  18  30  54  86 115 144 188 246 305 351
#     4  10  18  33  61  91 118 147 187 243 307 368
#     4  12  26  41  59  85 120 167 211 250 300 361
#     4  11  24  40  58  83 117 159 205 250 297 357
#     4  12  19  35  61  88 121 153 190 245 308 364
#
# _framework density 18.205371
#
# number of rings (size 3 to 8) (size 9 to 14) (size 15 to 20)
#    0.000    1.417    4.167    1.500    2.333    2.667 
#    1.500    0.833    0.000    2.000    0.000    0.000 
#    0.000    0.000    0.000    0.000    0.000    0.000 
#
# Total GULP energy -267479.257642 kJ/mol
# GULP energy per Si atom -5572.484534 kJ/mol
# Density = 1.816393 g / cm^3
# Si number density = 18.205371 Si / 1000 Ang^3
#
#
#
# Elastic Constant Matrix: (Units=GPa)
#
#
# Indices 1 2 3 4 5 6 
#
# 1 135.5496 47.9863 44.6939 0.0000 0.0000 0.0000
# 2 47.9863 80.9373 28.0218 0.0000 0.0000 0.0000
# 3 44.6939 28.0218 88.7377 0.0000 0.0000 0.0000
# 4 0.0000 0.0000 0.0000 34.6109 0.0000 0.0000
# 5 0.0000 0.0000 0.0000 0.0000 19.5356 0.0000
# 6 0.0000 0.0000 0.0000 0.0000 0.0000 -8.5233
#
#
#
# Elastic Compliance Matrix: (Units=1/GPa)
#
#
# Indices 1 2 3 4 5 6 
#
# 1 0.010296 -0.004838 -0.003658 0.000000 0.000000 0.000000
# 2 -0.004838 0.016145 -0.002662 0.000000 0.000000 0.000000
# 3 -0.003658 -0.002662 0.013952 0.000000 0.000000 0.000000
# 4 0.000000 0.000000 0.000000 0.028893 0.000000 0.000000
# 5 0.000000 0.000000 0.000000 0.000000 0.051188 0.000000
# 6 0.000000 0.000000 0.000000 0.000000 0.000000 -0.117326
#
#
# Mechanical properties :
#
#
# Convention : Reuss Voigt Hill
#
# Bulk Modulus (GPa) = 55.31569 60.73654 58.02611
# Shear Modulus (GPa) = 158.77873 21.42616 90.10245
#
# Velocity S-wave (km/s) = 9.34905 3.43434 7.04270
# Velocity P-wave (km/s) = 12.12393 7.01146 9.90329
#
# Compressibility (1/GPa) = 0.01807805
#
# Stress axis : x y z
#
# Youngs Moduli (GPa) = 97.12289 61.93835 71.67379
#
# Poissons Ratio (x) = 0.29966 0.26219
# Poissons Ratio (y) = 0.46988 0.19077
# Poissons Ratio (z) = 0.35528 0.16486
#
# Static dielectric constant tensor:
#      x y z
#    x 1.626860 0.000000 0.000000 
#    y 0.000000 1.657800 0.000000 
#    z 0.000000 0.000000 1.662800 
# 
# From -- ./inp_files/38963.got.cif
#   From: 2010.05.17/outbox.cif.g08.bks.cpg/sg65_20_cif.got.tgz:38963.got - 2010.06.03 17:01:31.
