data_PCOD9484156
_publ_section_title
;
Structure prediction by ZEFSAII (Michael W. Deem and Ramdas Pophale) SiO2 
 PCOD9484156
Probable space group: C M M M
;
_chemical_formula_sum "Si O2"
_cell_formula_units_Z 88
_cell_length_a 14.733047
_cell_length_b 34.054495
_cell_length_c 7.844963
_cell_angle_alpha 90.000000
_cell_angle_beta 90.000000
_cell_angle_gamma 90.000000
_cell_volume 3936.025636
_symmetry_space_group_name_H-M "C M M M"
_symmetry_group_IT_number 65
_symmetry_cell_setting 'orthorhombic'
loop_
_space_group_symop_operation_xyz
x,y,z
-x,-y,z
x,-y,-z
-x,y,-z
-x,-y,-z
x,y,-z
-x,y,z
x,-y,z
1/2+x,1/2+y,z
1/2-x,1/2-y,z
1/2+x,1/2-y,-z
1/2-x,1/2+y,-z
1/2-x,1/2-y,-z
1/2+x,1/2+y,-z
1/2-x,1/2+y,z
1/2+x,1/2-y,z
loop_
_atom_site_type_symbol
_atom_site_label
_atom_site_fract_x
_atom_site_fract_y
_atom_site_fract_z
Si Si1 0.358098 0.257459 0.192025
Si Si2 0.403113 0.175803 0.304387
Si Si3 0.789383 0.077597 0.793526
Si Si4 0.396214 0.500000 0.791704
Si Si5 0.201892 0.837361 0.300263
Si Si6 0.600155 0.953992 0.792407
O O1 0.250000 0.250000 0.204932
O O2 0.401255 0.223429 0.303741
O O3 0.363776 0.303533 0.230437
O O4 0.388116 0.249828 0.000000
O O5 0.402515 0.161949 0.500000
O O6 0.500000 0.163149 0.226009
O O7 0.305406 0.164667 0.224623
O O8 0.828958 0.118431 0.729156
O O9 0.685329 0.071375 0.734218
O O10 0.844647 0.039331 0.737913
O O11 0.789665 0.078546 0.000000
O O12 0.500000 0.500000 0.736438
O O13 0.394562 0.500000 0.000000
O O14 0.210657 0.828628 0.500000
O O15 0.500000 0.941695 0.733521
O O16 0.613468 0.000000 0.747048
O O17 0.599984 0.952904 0.000000
#
# Coordination Sequence:
#
# PCOD9484156 Si02
#       6
#    16  16  16   8  16  16
#     4   9  17  31  51  74  99 130 170 214 252 289
#     4   9  18  33  52  74 103 139 172 201 243 305
#     4  10  18  31  52  76 100 131 171 216 263 310
#     4   9  18  34  56  78  98 125 167 219 270 314
#     4  10  20  33  50  73 103 138 171 206 253 310
#     4   8  13  23  42  69  98 126 159 201 250 306
#
# _framework density 22.357579000000001
#
# number of rings (size 3 to 8) (size 9 to 14) (size 15 to 20)
#    0.000    2.818    0.909    1.636    0.000    4.000 
#    0.000    1.364    0.000    4.364    0.000    1.273 
#    0.000    0.000    0.000    0.000    0.000    0.000 
#
# Total GULP energy -245413.760645 kJ/mol
# GULP energy per Si atom -5577.585469 kJ/mol
# Density = 2.230669 g / cm^3
# Si number density = 22.357579 Si / 1000 Ang^3
#
#
#
# Elastic Constant Matrix: (Units=GPa)
#
#
# Indices 1 2 3 4 5 6 
#
# 1 50.8274 5.7640 -1.1686 0.0000 0.0000 0.0000
# 2 5.7640 115.1629 -11.3735 0.0000 0.0000 0.0000
# 3 -1.1686 -11.3735 35.1451 0.0000 0.0000 0.0000
# 4 0.0000 0.0000 0.0000 24.9600 0.0000 0.0000
# 5 0.0000 0.0000 0.0000 0.0000 -0.6710 0.0000
# 6 0.0000 0.0000 0.0000 0.0000 0.0000 -6.4424
#
#
#
# Elastic Compliance Matrix: (Units=1/GPa)
#
#
# Indices 1 2 3 4 5 6 
#
# 1 0.019791 -0.000956 0.000349 0.000000 0.000000 0.000000
# 2 -0.000956 0.009016 0.002886 0.000000 0.000000 0.000000
# 3 0.000349 0.002886 0.029399 0.000000 0.000000 0.000000
# 4 0.000000 0.000000 0.000000 0.040064 0.000000 0.000000
# 5 0.000000 0.000000 0.000000 0.000000 -1.490399 0.000000
# 6 0.000000 0.000000 0.000000 0.000000 0.000000 -0.155221
#
#
# Mechanical properties :
#
#
# Convention : Reuss Voigt Hill
#
# Bulk Modulus (GPa) = 15.93290 20.84214 18.38752
# Shear Modulus (GPa) = -3.26587 17.43022 7.08217
#
# Velocity S-wave (km/s) = -1.20992 2.79518 1.78173
# Velocity P-wave (km/s) = 2.27815 4.44520 3.53198
#
# Compressibility (1/GPa) = 0.06276320
#
# Stress axis : x y z
#
# Youngs Moduli (GPa) = 50.52839 110.91114 34.01469
#
# Poissons Ratio (x) = 0.10604 -0.01186
# Poissons Ratio (y) = 0.04831 -0.09817
# Poissons Ratio (z) = -0.01762 -0.32009
#
# Static dielectric constant tensor:
#      x y z
#    x 1.856760 0.000000 0.000000 
#    y 0.000000 1.829480 0.000000 
#    z 0.000000 0.000000 1.811000 
# 
# From -- ./inp_files/10056.got.cif
#   From: 2010.05.17/outbox.cif.g08.bks.cpg/sg65_6_cif.got.tgz:10056.got - 2010.06.03 17:01:31.
