data_PCOD9484403
_publ_section_title
;
Structure prediction by ZEFSAII (Michael W. Deem and Ramdas Pophale) SiO2 
 PCOD9484403
Probable space group: C M M M
;
_chemical_formula_sum "Si O2"
_cell_formula_units_Z 112
_cell_length_a 15.016573
_cell_length_b 28.260275
_cell_length_c 14.511608
_cell_angle_alpha 90.000000
_cell_angle_beta 90.000000
_cell_angle_gamma 90.000000
_cell_volume 6158.327113
_symmetry_space_group_name_H-M "C M M M"
_symmetry_group_IT_number 65
_symmetry_cell_setting 'orthorhombic'
loop_
_space_group_symop_operation_xyz
x,y,z
-x,-y,z
x,-y,-z
-x,y,-z
-x,-y,-z
x,y,-z
-x,y,z
x,-y,z
1/2+x,1/2+y,z
1/2-x,1/2-y,z
1/2+x,1/2-y,-z
1/2-x,1/2+y,-z
1/2-x,1/2-y,-z
1/2+x,1/2+y,-z
1/2-x,1/2+y,z
1/2+x,1/2-y,z
loop_
_atom_site_type_symbol
_atom_site_label
_atom_site_fract_x
_atom_site_fract_y
_atom_site_fract_z
Si Si1 0.280642 0.444296 0.276373
Si Si2 0.601415 0.623851 0.610043
Si Si3 0.169636 0.639920 0.229837
Si Si4 0.599357 0.442945 0.101177
Si Si5 0.802354 0.200149 0.110462
Si Si6 0.238597 0.305724 0.391872
Si Si7 0.000000 0.338025 0.110356
Si Si8 0.500000 0.724343 0.109944
O O1 0.265913 0.500000 0.289215
O O2 0.347834 0.421967 0.350804
O O3 0.193516 0.411872 0.268480
O O4 0.331123 0.435106 0.180301
O O5 0.596567 0.620362 0.500000
O O6 0.500000 0.628689 0.645265
O O7 0.668167 0.667458 0.629908
O O8 0.249683 0.661292 0.167978
O O9 0.167343 0.673461 0.320112
O O10 0.085404 0.642100 0.163522
O O11 0.500000 0.424824 0.122567
O O12 0.592743 0.500000 0.095258
O O13 0.625021 0.424886 0.000000
O O14 0.750000 0.250000 0.124469
O O15 0.905007 0.204467 0.142499
O O16 0.799865 0.191306 0.000000
O O17 0.217637 0.314734 0.500000
O O18 0.250000 0.250000 0.379217
O O19 0.000000 0.281049 0.122305
O O20 0.000000 0.347308 0.000000
O O21 0.500000 0.716159 0.000000
#
# Coordination Sequence:
#
# PCOD9484403 Si02
#       8
#    16  16  16  16  16  16   8   8
#     4  10  21  36  53  74 105 143 187 236 286 336
#     4   9  18  34  57  86 117 148 186 233 286 343
#     4  11  22  37  56  82 107 148 191 235 291 346
#     4   8  14  26  44  65  92 128 168 210 258 315
#     4  10  18  32  54  81 113 144 181 227 281 346
#     4   9  19  37  56  80 118 155 186 225 275 338
#     4  11  22  38  60  85 114 143 185 245 301 351
#     4   9  18  32  52  80 112 146 177 219 277 339
#
# _framework density 18.186757
#
# number of rings (size 3 to 8) (size 9 to 14) (size 15 to 20)
#    0.000    2.429    1.429    1.714    0.000    2.286 
#    7.714    1.429    0.000    0.429    0.000    0.000 
#    0.000    4.571    0.000    0.000    0.000    0.000 
#
# Total GULP energy -312229.963838 kJ/mol
# GULP energy per Si atom -5575.535069 kJ/mol
# Density = 1.814536 g / cm^3
# Si number density = 18.186757 Si / 1000 Ang^3
#
#
#
# Elastic Constant Matrix: (Units=GPa)
#
#
# Indices 1 2 3 4 5 6 
#
# 1 98.6205 37.4620 31.4658 0.0000 0.0000 0.0000
# 2 37.4620 103.7778 29.1758 0.0000 0.0000 0.0000
# 3 31.4658 29.1758 71.5430 0.0000 0.0000 0.0000
# 4 0.0000 0.0000 0.0000 18.5162 0.0000 0.0000
# 5 0.0000 0.0000 0.0000 0.0000 26.7968 0.0000
# 6 0.0000 0.0000 0.0000 0.0000 0.0000 9.0478
#
#
#
# Elastic Compliance Matrix: (Units=1/GPa)
#
#
# Indices 1 2 3 4 5 6 
#
# 1 0.012791 -0.003429 -0.004227 0.000000 0.000000 0.000000
# 2 -0.003429 0.011803 -0.003305 0.000000 0.000000 0.000000
# 3 -0.004227 -0.003305 0.017185 0.000000 0.000000 0.000000
# 4 0.000000 0.000000 0.000000 0.054007 0.000000 0.000000
# 5 0.000000 0.000000 0.000000 0.000000 0.037318 0.000000
# 6 0.000000 0.000000 0.000000 0.000000 0.000000 0.110524
#
#
# Mechanical properties :
#
#
# Convention : Reuss Voigt Hill
#
# Bulk Modulus (GPa) = 50.36321 52.23874 51.30098
# Shear Modulus (GPa) = 18.37093 22.59468 20.48281
#
# Velocity S-wave (km/s) = 3.18170 3.52855 3.35960
# Velocity P-wave (km/s) = 6.42261 6.73697 6.58167
#
# Compressibility (1/GPa) = 0.01985576
#
# Stress axis : x y z
#
# Youngs Moduli (GPa) = 78.17879 84.72431 58.19088
#
# Poissons Ratio (x) = 0.29051 0.24600
# Poissons Ratio (y) = 0.26807 0.19234
# Poissons Ratio (z) = 0.33050 0.28004
#
# Static dielectric constant tensor:
#      x y z
#    x 1.649050 0.000000 0.000000 
#    y 0.000000 1.627200 0.000000 
#    z 0.000000 0.000000 1.645940 
# 
# From -- ./inp_files/41199.got.cif
#   From: 2010.05.17/outbox.cif.g08.bks.cpg/sg65_21_cif.got.tgz:41199.got - 2010.06.03 17:01:31.
