data_PCOD9484486
_publ_section_title
;
Structure prediction by ZEFSAII (Michael W. Deem and Ramdas Pophale) SiO2 
 PCOD9484486
Probable space group: C M M M
;
_chemical_formula_sum "Si O2"
_cell_formula_units_Z 72
_cell_length_a 32.676941
_cell_length_b 15.005249
_cell_length_c 7.695826
_cell_angle_alpha 90.000000
_cell_angle_beta 90.000000
_cell_angle_gamma 90.000000
_cell_volume 3773.460780
_symmetry_space_group_name_H-M "C M M M"
_symmetry_group_IT_number 65
_symmetry_cell_setting 'orthorhombic'
loop_
_space_group_symop_operation_xyz
x,y,z
-x,-y,z
x,-y,-z
-x,y,-z
-x,-y,-z
x,y,-z
-x,y,z
x,-y,z
1/2+x,1/2+y,z
1/2-x,1/2-y,z
1/2+x,1/2-y,-z
1/2-x,1/2+y,-z
1/2-x,1/2-y,-z
1/2+x,1/2+y,-z
1/2-x,1/2+y,z
1/2+x,1/2-y,z
loop_
_atom_site_type_symbol
_atom_site_label
_atom_site_fract_x
_atom_site_fract_y
_atom_site_fract_z
Si Si1 0.263999 0.500000 0.795962
Si Si2 0.710767 0.692163 0.787060
Si Si3 0.545877 0.197284 0.800026
Si Si4 0.169106 0.500000 0.703891
Si Si5 0.548364 0.000000 0.693862
Si Si6 0.133218 0.693916 0.789988
O O1 0.282297 0.408355 0.723969
O O2 0.214582 0.500000 0.784582
O O3 0.274099 0.500000 0.000000
O O4 0.750000 0.750000 0.735213
O O5 0.669904 0.742530 0.729973
O O6 0.710316 0.691194 0.000000
O O7 0.500000 0.212254 0.723751
O O8 0.554630 0.091005 0.794945
O O9 0.589037 0.227926 0.720844
O O10 0.543610 0.226839 0.000000
O O11 0.175523 0.500000 0.500000
O O12 0.145269 0.591195 0.749975
O O13 0.500000 0.000000 0.667159
O O14 0.567862 0.000000 0.500000
O O15 0.131130 0.699145 0.000000
#
# Coordination Sequence:
#
# PCOD9484486 Si02
#       6
#     8  16  16   8   8  16
#     4  10  18  33  53  69  90 119 153 189 224 265
#     4   9  16  28  50  73  88 111 151 190 223 262
#     4   9  17  28  42  60  83 113 149 185 219 257
#     4  12  23  31  43  68  97 123 154 186 226 271
#     4   9  16  25  38  56  82 115 147 180 217 257
#     4  10  19  32  48  66  90 122 156 188 222 264
#
# _framework density 19.080628000000001
#
# number of rings (size 3 to 8) (size 9 to 14) (size 15 to 20)
#    0.000    2.333    2.222    2.000    0.000    4.889 
#    0.000    2.222    0.000    0.000    0.000    0.778 
#    0.000    6.222    0.000    0.000    0.000   13.889 
#
# Total GULP energy -200498.553635 kJ/mol
# GULP energy per Si atom -5569.404268 kJ/mol
# Density = 1.903720 g / cm^3
# Si number density = 19.080628 Si / 1000 Ang^3
#
#
#
# Elastic Constant Matrix: (Units=GPa)
#
#
# Indices 1 2 3 4 5 6 
#
# 1 195.4186 77.0779 -3.5069 0.0000 0.0000 0.0000
# 2 77.0779 108.4205 4.0766 0.0000 0.0000 0.0000
# 3 -3.5069 4.0766 40.0801 0.0000 0.0000 0.0000
# 4 0.0000 0.0000 0.0000 23.4755 0.0000 0.0000
# 5 0.0000 0.0000 0.0000 0.0000 -6.0462 0.0000
# 6 0.0000 0.0000 0.0000 0.0000 0.0000 20.0003
#
#
#
# Elastic Compliance Matrix: (Units=1/GPa)
#
#
# Indices 1 2 3 4 5 6 
#
# 1 0.007164 -0.005136 0.001149 0.000000 0.000000 0.000000
# 2 -0.005136 0.012941 -0.001766 0.000000 0.000000 0.000000
# 3 0.001149 -0.001766 0.025230 0.000000 0.000000 0.000000
# 4 0.000000 0.000000 0.000000 0.042598 0.000000 0.000000
# 5 0.000000 0.000000 0.000000 0.000000 -0.165394 0.000000
# 6 0.000000 0.000000 0.000000 0.000000 0.000000 0.049999
#
#
# Mechanical properties :
#
#
# Convention : Reuss Voigt Hill
#
# Bulk Modulus (GPa) = 29.55960 55.46828 42.51394
# Shear Modulus (GPa) = -1068.12551 25.23736 -521.44407
#
# Velocity S-wave (km/s) = -23.68567 3.64080 -16.54925
# Velocity P-wave (km/s) = 27.06454 6.84160 18.51596
#
# Compressibility (1/GPa) = 0.03382996
#
# Stress axis : x y z
#
# Youngs Moduli (GPa) = 139.59518 77.27417 39.63508
#
# Poissons Ratio (x) = 0.39687 -0.04555
# Poissons Ratio (y) = 0.71695 0.06998
# Poissons Ratio (z) = -0.16042 0.13644
#
# Static dielectric constant tensor:
#      x y z
#    x 1.743960 0.000000 0.000000 
#    y 0.000000 1.666900 0.000000 
#    z 0.000000 0.000000 1.701920 
# 
# From -- ./inp_files/18050.got.cif
#   From: 2010.05.17/outbox.cif.g08.bks.cpg/sg65_10_cif.got.tgz:18050.got - 2010.06.03 17:01:31.
