data_PCOD9484065
_publ_section_title
;
Structure prediction by ZEFSAII (Michael W. Deem and Ramdas Pophale) SiO2 
 PCOD9484065
Probable space group: C M M M
;
_chemical_formula_sum "Si O2"
_cell_formula_units_Z 88
_cell_length_a 29.806480
_cell_length_b 17.229708
_cell_length_c 7.265965
_cell_angle_alpha 90.000000
_cell_angle_beta 90.000000
_cell_angle_gamma 90.000000
_cell_volume 3731.486802
_symmetry_space_group_name_H-M "C M M M"
_symmetry_group_IT_number 65
_symmetry_cell_setting 'orthorhombic'
loop_
_space_group_symop_operation_xyz
x,y,z
-x,-y,z
x,-y,-z
-x,y,-z
-x,-y,-z
x,y,-z
-x,y,z
x,-y,z
1/2+x,1/2+y,z
1/2-x,1/2-y,z
1/2+x,1/2-y,-z
1/2-x,1/2+y,-z
1/2-x,1/2-y,-z
1/2+x,1/2+y,-z
1/2-x,1/2+y,z
1/2+x,1/2-y,z
loop_
_atom_site_type_symbol
_atom_site_label
_atom_site_fract_x
_atom_site_fract_y
_atom_site_fract_z
Si Si1 0.550716 0.683889 0.275450
Si Si2 0.685636 0.913974 0.275743
Si Si3 0.226955 0.829999 0.723566
Si Si4 0.051655 0.500000 0.220551
Si Si5 0.099382 0.337175 0.287908
Si Si6 0.136926 0.911007 0.724158
O O1 0.549167 0.683394 0.500000
O O2 0.500000 0.669218 0.213460
O O3 0.568553 0.768611 0.213566
O O4 0.588748 0.622678 0.220146
O O5 0.683867 0.913127 0.500000
O O6 0.736270 0.894488 0.226081
O O7 0.648938 0.852140 0.209796
O O8 0.672674 0.000000 0.215709
O O9 0.224727 0.825625 0.500000
O O10 0.250000 0.750000 0.784522
O O11 0.177663 0.855252 0.784640
O O12 0.075258 0.420670 0.282526
O O13 0.000000 0.500000 0.280942
O O14 0.052837 0.500000 0.000000
O O15 0.106852 0.314851 0.500000
O O16 0.137682 0.910642 0.500000
O O17 0.143744 0.000000 0.781396
#
# Coordination Sequence:
#
# PCOD9484065 Si02
#       6
#    16  16  16   8  16  16
#     4   9  17  27  40  59  83 117 163 206 238 280
#     4   9  15  23  37  58  82 110 145 184 223 269
#     4   9  15  22  33  52  81 118 152 184 232 288
#     4  11  23  35  47  67  97 129 161 201 246 289
#     4  10  18  31  49  69  92 124 165 202 239 285
#     4   9  16  25  36  54  86 127 161 193 242 298
#
# _framework density 23.583093000000002
#
# number of rings (size 3 to 8) (size 9 to 14) (size 15 to 20)
#    0.000    2.636    0.909    2.455    0.000    8.364 
#    0.000    1.818    0.000    0.000    0.000    0.000 
#    0.000    7.273    0.000    3.818    0.000    3.636 
#
# Total GULP energy -245862.285368 kJ/mol
# GULP energy per Si atom -5587.779213 kJ/mol
# Density = 2.352942 g / cm^3
# Si number density = 23.583093 Si / 1000 Ang^3
#
#
#
# Elastic Constant Matrix: (Units=GPa)
#
#
# Indices 1 2 3 4 5 6 
#
# 1 220.6254 78.8072 3.6935 0.0000 0.0000 0.0000
# 2 78.8072 133.0635 -4.3593 0.0000 0.0000 0.0000
# 3 3.6935 -4.3593 105.1551 0.0000 0.0000 0.0000
# 4 0.0000 0.0000 0.0000 -44.9546 0.0000 0.0000
# 5 0.0000 0.0000 0.0000 0.0000 -58.5083 0.0000
# 6 0.0000 0.0000 0.0000 0.0000 0.0000 33.9186
#
#
#
# Elastic Compliance Matrix: (Units=1/GPa)
#
#
# Indices 1 2 3 4 5 6 
#
# 1 0.005761 -0.003423 -0.000344 0.000000 0.000000 0.000000
# 2 -0.003423 0.009560 0.000517 0.000000 0.000000 0.000000
# 3 -0.000344 0.000517 0.009543 0.000000 0.000000 0.000000
# 4 0.000000 0.000000 0.000000 -0.022245 0.000000 0.000000
# 5 0.000000 0.000000 0.000000 0.000000 -0.017092 0.000000
# 6 0.000000 0.000000 0.000000 0.000000 0.000000 0.029482
#
#
# Mechanical properties :
#
#
# Convention : Reuss Voigt Hill
#
# Bulk Modulus (GPa) = 54.46058 68.34741 61.40400
# Shear Modulus (GPa) = 180.94417 11.47133 96.20775
#
# Velocity S-wave (km/s) = 8.76885 2.20789 6.39404
# Velocity P-wave (km/s) = 11.21013 5.96189 8.97806
#
# Compressibility (1/GPa) = 0.01836190
#
# Stress axis : x y z
#
# Youngs Moduli (GPa) = 173.57670 104.60685 104.78588
#
# Poissons Ratio (x) = 0.35810 0.03607
# Poissons Ratio (y) = 0.59421 -0.05413
# Poissons Ratio (z) = 0.05976 -0.05403
#
# Static dielectric constant tensor:
#      x y z
#    x 1.856940 0.000000 0.000000 
#    y 0.000000 1.855750 0.000000 
#    z 0.000000 0.000000 1.905810 
# 
# From -- ./inp_files/18275.got.cif
#   From: 2010.05.17/outbox.cif.g08.bks.cpg/sg65_10_cif.got.tgz:18275.got - 2010.06.03 17:01:31.
