data_PCOD9484064
_publ_section_title
;
Structure prediction by ZEFSAII (Michael W. Deem and Ramdas Pophale) SiO2 
 PCOD9484064
Probable space group: C M M M
;
_chemical_formula_sum "Si O2"
_cell_formula_units_Z 112
_cell_length_a 21.600604
_cell_length_b 18.358889
_cell_length_c 16.507413
_cell_angle_alpha 90.000000
_cell_angle_beta 90.000000
_cell_angle_gamma 90.000000
_cell_volume 6546.230726
_symmetry_space_group_name_H-M "C M M M"
_symmetry_group_IT_number 65
_symmetry_cell_setting 'orthorhombic'
loop_
_space_group_symop_operation_xyz
x,y,z
-x,-y,z
x,-y,-z
-x,y,-z
-x,-y,-z
x,y,-z
-x,y,z
x,-y,z
1/2+x,1/2+y,z
1/2-x,1/2-y,z
1/2+x,1/2-y,-z
1/2-x,1/2+y,-z
1/2-x,1/2-y,-z
1/2+x,1/2+y,-z
1/2-x,1/2+y,z
1/2+x,1/2-y,z
loop_
_atom_site_type_symbol
_atom_site_label
_atom_site_fract_x
_atom_site_fract_y
_atom_site_fract_z
Si Si1 0.072154 0.198600 0.096375
Si Si2 0.770054 0.081002 0.589040
Si Si3 0.317051 0.223750 0.813267
Si Si4 0.361984 0.306394 0.344574
Si Si5 0.573458 0.418792 0.773181
Si Si6 0.660671 0.916520 0.718479
Si Si7 0.573830 0.836315 0.592898
O O1 0.124624 0.251669 0.132292
O O2 0.084660 0.122118 0.141778
O O3 0.000000 0.219122 0.116307
O O4 0.076781 0.193185 0.000000
O O5 0.740597 0.085608 0.500000
O O6 0.816966 0.147049 0.599494
O O7 0.719898 0.085637 0.659261
O O8 0.799602 0.000000 0.594549
O O9 0.250000 0.250000 0.845552
O O10 0.324954 0.264473 0.726496
O O11 0.324442 0.138774 0.791438
O O12 0.402156 0.365908 0.296531
O O13 0.401027 0.245295 0.390646
O O14 0.500000 0.424084 0.764261
O O15 0.600527 0.500000 0.770229
O O16 0.605493 0.886023 0.661676
O O17 0.649649 0.000000 0.742978
O O18 0.589080 0.857764 0.500000
O O19 0.500000 0.837673 0.601511
#
# Coordination Sequence:
#
# PCOD9484064 Si02
#       7
#    16  16  16  16  16  16  16
#     4   9  19  35  55  79 108 139 172 213 259 313
#     4  10  19  30  47  72 100 134 173 213 260 312
#     4  10  19  34  54  80 103 134 174 210 260 314
#     4  10  18  31  49  69 101 135 172 212 258 306
#     4   9  17  29  48  74 103 136 172 208 249 302
#     4  10  21  36  53  74 102 134 170 219 270 318
#     4  10  21  34  49  70  97 133 178 227 274 319
#
# _framework density 17.109082000000001
#
# number of rings (size 3 to 8) (size 9 to 14) (size 15 to 20)
#    0.000    2.286    1.429    1.714    0.000    5.143 
#    0.000    4.286    0.000    0.429    0.000    7.000 
#    0.000    0.000    0.000    0.000    0.000    0.000 
#
# Total GULP energy -312053.528572 kJ/mol
# GULP energy per Si atom -5572.384439 kJ/mol
# Density = 1.707014 g / cm^3
# Si number density = 17.109082 Si / 1000 Ang^3
#
#
#
# Elastic Constant Matrix: (Units=GPa)
#
#
# Indices 1 2 3 4 5 6 
#
# 1 71.1500 39.0537 19.6351 0.0000 0.0000 0.0000
# 2 39.0537 111.9885 6.2996 0.0000 0.0000 0.0000
# 3 19.6351 6.2996 30.3606 0.0000 0.0000 0.0000
# 4 0.0000 0.0000 0.0000 12.6578 0.0000 0.0000
# 5 0.0000 0.0000 0.0000 0.0000 18.1985 0.0000
# 6 0.0000 0.0000 0.0000 0.0000 0.0000 23.3340
#
#
#
# Elastic Compliance Matrix: (Units=1/GPa)
#
#
# Indices 1 2 3 4 5 6 
#
# 1 0.021099 -0.006668 -0.012262 0.000000 0.000000 0.000000
# 2 -0.006668 0.011142 0.002000 0.000000 0.000000 0.000000
# 3 -0.012262 0.002000 0.040452 0.000000 0.000000 0.000000
# 4 0.000000 0.000000 0.000000 0.079003 0.000000 0.000000
# 5 0.000000 0.000000 0.000000 0.000000 0.054950 0.000000
# 6 0.000000 0.000000 0.000000 0.000000 0.000000 0.042856
#
#
# Mechanical properties :
#
#
# Convention : Reuss Voigt Hill
#
# Bulk Modulus (GPa) = 25.74997 38.16400 31.95699
# Shear Modulus (GPa) = 16.87452 20.73876 18.80664
#
# Velocity S-wave (km/s) = 3.14393 3.48537 3.31905
# Velocity P-wave (km/s) = 5.31622 6.20901 5.77988
#
# Compressibility (1/GPa) = 0.03883499
#
# Stress axis : x y z
#
# Youngs Moduli (GPa) = 47.39644 89.74823 24.72048
#
# Poissons Ratio (x) = 0.59844 0.30311
# Poissons Ratio (y) = 0.31604 -0.04945
# Poissons Ratio (z) = 0.58116 -0.17954
#
# Static dielectric constant tensor:
#      x y z
#    x 1.594500 0.000000 0.000000 
#    y 0.000000 1.601390 0.000000 
#    z 0.000000 0.000000 1.564070 
# 
# From -- ./inp_files/54895.got.cif
#   From: 2010.05.17/outbox.cif.g08.bks.cpg/sg65_28_cif.got.tgz:54895.got - 2010.06.03 17:01:31.
