data_PCOD9484079
_publ_section_title
;
Structure prediction by ZEFSAII (Michael W. Deem and Ramdas Pophale) SiO2 
 PCOD9484079
Probable space group: C M M M
;
_chemical_formula_sum "Si O2"
_cell_formula_units_Z 104
_cell_length_a 30.547727
_cell_length_b 7.670351
_cell_length_c 23.919380
_cell_angle_alpha 90.000000
_cell_angle_beta 90.000000
_cell_angle_gamma 90.000000
_cell_volume 5604.592704
_symmetry_space_group_name_H-M "C M M M"
_symmetry_group_IT_number 65
_symmetry_cell_setting 'orthorhombic'
loop_
_space_group_symop_operation_xyz
x,y,z
-x,-y,z
x,-y,-z
-x,y,-z
-x,-y,-z
x,y,-z
-x,y,z
x,-y,z
1/2+x,1/2+y,z
1/2-x,1/2-y,z
1/2+x,1/2-y,-z
1/2-x,1/2+y,-z
1/2-x,1/2-y,-z
1/2+x,1/2+y,-z
1/2-x,1/2+y,z
1/2+x,1/2-y,z
loop_
_atom_site_type_symbol
_atom_site_label
_atom_site_fract_x
_atom_site_fract_y
_atom_site_fract_z
Si Si1 0.698866 0.710197 0.288859
Si Si2 0.048757 0.212697 0.434529
Si Si3 0.801750 0.293572 0.500000
Si Si4 0.199191 0.790256 0.835818
Si Si5 0.546598 0.790533 0.933797
Si Si6 0.641496 0.706879 0.608812
Si Si7 0.857764 0.204218 0.936483
O O1 0.695635 0.500000 0.288325
O O2 0.750000 0.750000 0.299946
O O3 0.687272 0.774298 0.226413
O O4 0.667269 0.778541 0.337454
O O5 0.052844 0.260460 0.500000
O O6 0.092514 0.275813 0.403325
O O7 0.000000 0.268104 0.415143
O O8 0.049059 0.000000 0.432661
O O9 0.805329 0.500000 0.500000
O O10 0.750000 0.250000 0.500000
O O11 0.827448 0.227900 0.445276
O O12 0.250000 0.750000 0.843447
O O13 0.172910 0.718249 0.888768
O O14 0.193220 0.000000 0.834998
O O15 0.500000 0.729967 0.909661
O O16 0.592531 0.717534 0.914381
O O17 0.548161 0.000000 0.928891
O O18 0.545580 0.749020 0.000000
O O19 0.636267 0.500000 0.617733
O O20 0.847002 0.000000 0.941665
O O21 0.855157 0.278474 0.000000
#
# Coordination Sequence:
#
# PCOD9484079 Si02
#       7
#    16  16   8  16  16  16  16
#     4   9  18  31  48  66  86 116 150 187 225 266
#     4   8  13  23  43  69  92 114 144 181 215 253
#     4  12  24  34  45  66  97 125 148 181 227 270
#     4   9  18  32  46  63  88 116 151 189 225 267
#     4   8  14  25  41  62  88 115 144 180 219 262
#     4  10  18  31  50  70  92 119 152 186 224 265
#     4   9  17  28  43  64  90 118 147 183 228 276
#
# _framework density 18.556208999999999
#
# number of rings (size 3 to 8) (size 9 to 14) (size 15 to 20)
#    0.000    2.923    0.769    2.077    0.000    3.077 
#    0.000    1.538    0.000    1.846    0.000    4.308 
#    0.000    0.000    0.000    0.000    0.000    0.000 
#
# Total GULP energy -289585.097687 kJ/mol
# GULP energy per Si atom -5568.944186 kJ/mol
# Density = 1.851397 g / cm^3
# Si number density = 18.556209 Si / 1000 Ang^3
#
#
#
# Elastic Constant Matrix: (Units=GPa)
#
#
# Indices 1 2 3 4 5 6 
#
# 1 152.5031 -0.5128 105.0419 0.0000 0.0000 0.0000
# 2 -0.5128 29.7962 3.3244 0.0000 0.0000 0.0000
# 3 105.0419 3.3244 128.6561 0.0000 0.0000 0.0000
# 4 0.0000 0.0000 0.0000 -1.5681 0.0000 0.0000
# 5 0.0000 0.0000 0.0000 0.0000 -4.6978 0.0000
# 6 0.0000 0.0000 0.0000 0.0000 0.0000 17.0621
#
#
#
# Elastic Compliance Matrix: (Units=1/GPa)
#
#
# Indices 1 2 3 4 5 6 
#
# 1 0.015062 0.001636 -0.012340 0.000000 0.000000 0.000000
# 2 0.001636 0.033836 -0.002210 0.000000 0.000000 0.000000
# 3 -0.012340 -0.002210 0.017905 0.000000 0.000000 0.000000
# 4 0.000000 0.000000 0.000000 -0.637728 0.000000 0.000000
# 5 0.000000 0.000000 0.000000 0.000000 -0.212865 0.000000
# 6 0.000000 0.000000 0.000000 0.000000 0.000000 0.058610
#
#
# Mechanical properties :
#
#
# Convention : Reuss Voigt Hill
#
# Bulk Modulus (GPa) = 24.40502 58.51803 41.46153
# Shear Modulus (GPa) = -7.29189 15.69937 4.20374
#
# Velocity S-wave (km/s) = -1.98448 2.91184 1.50676
# Velocity P-wave (km/s) = 2.81596 6.55050 5.04176
#
# Compressibility (1/GPa) = 0.04097517
#
# Stress axis : x y z
#
# Youngs Moduli (GPa) = 66.39069 29.55429 55.85088
#
# Poissons Ratio (x) = -0.04835 0.68920
# Poissons Ratio (y) = -0.10861 0.12343
# Poissons Ratio (z) = 0.81926 0.06532
#
# Static dielectric constant tensor:
#      x y z
#    x 1.684670 0.000000 0.000000 
#    y 0.000000 1.688290 0.000000 
#    z 0.000000 0.000000 1.600840 
# 
# From -- ./inp_files/76015.got.cif
#   From: 2010.05.17/outbox.cif.g08.bks.cpg/sg65_39_cif.got.tgz:76015.got - 2010.06.03 17:01:31.
