data_PCOD9484559
_publ_section_title
;
Structure prediction by ZEFSAII (Michael W. Deem and Ramdas Pophale) SiO2 
 PCOD9484559
Probable space group: C M M M
;
_chemical_formula_sum "Si O2"
_cell_formula_units_Z 88
_cell_length_a 23.794441
_cell_length_b 9.211994
_cell_length_c 23.173040
_cell_angle_alpha 90.000000
_cell_angle_beta 90.000000
_cell_angle_gamma 90.000000
_cell_volume 5079.397070
_symmetry_space_group_name_H-M "C M M M"
_symmetry_group_IT_number 65
_symmetry_cell_setting 'orthorhombic'
loop_
_space_group_symop_operation_xyz
x,y,z
-x,-y,z
x,-y,-z
-x,y,-z
-x,-y,-z
x,y,-z
-x,y,z
x,-y,z
1/2+x,1/2+y,z
1/2-x,1/2-y,z
1/2+x,1/2-y,-z
1/2-x,1/2+y,-z
1/2-x,1/2-y,-z
1/2+x,1/2+y,-z
1/2-x,1/2+y,z
1/2+x,1/2-y,z
loop_
_atom_site_type_symbol
_atom_site_label
_atom_site_fract_x
_atom_site_fract_y
_atom_site_fract_z
Si Si1 0.000000 0.172508 0.632511
Si Si2 0.386728 0.829049 0.173297
Si Si3 0.114776 0.674004 0.610661
Si Si4 0.565477 0.325471 0.065998
Si Si5 0.309683 0.826706 0.500000
Si Si6 0.809718 0.674957 0.722057
Si Si7 0.000000 0.667694 0.247620
O O1 0.943669 0.242135 0.606548
O O2 0.000000 0.223448 0.699268
O O3 0.000000 0.000000 0.627313
O O4 0.395093 0.744053 0.114052
O O5 0.337589 0.781602 0.216898
O O6 0.444663 0.813206 0.209221
O O7 0.379453 0.000000 0.161369
O O8 0.104505 0.500000 0.610709
O O9 0.154832 0.709810 0.557024
O O10 0.147155 0.710201 0.670191
O O11 0.500000 0.282878 0.076392
O O12 0.567772 0.500000 0.069738
O O13 0.579290 0.284158 0.000000
O O14 0.250000 0.750000 0.500000
O O15 0.301135 0.000000 0.500000
O O16 0.803416 0.500000 0.721883
O O17 0.750000 0.750000 0.713031
O O18 0.000000 0.500000 0.269541
#
# Coordination Sequence:
#
# PCOD9484559 Si02
#       7
#     8  16  16  16   8  16   8
#     4  12  24  35  55  87 114 144 183 227 277 324
#     4  10  19  32  53  78 104 141 178 216 267 319
#     4  10  21  40  60  81 113 150 182 220 274 336
#     4   9  18  31  47  73 110 144 172 212 266 318
#     4  10  22  39  64  87 109 150 194 230 275 324
#     4  10  21  36  55  78 107 140 178 225 272 317
#     4  10  18  34  54  76 112 147 174 216 273 334
#
# _framework density 17.32489
#
# number of rings (size 3 to 8) (size 9 to 14) (size 15 to 20)
#    0.000    2.000    2.727    1.909    0.000    3.636 
#    0.000    2.727    0.000    0.545    0.000    0.000 
#    0.000    0.000    0.000    0.000    0.000    0.000 
#
# Total GULP energy -245603.284417 kJ/mol
# GULP energy per Si atom -5581.892828 kJ/mol
# Density = 1.728546 g / cm^3
# Si number density = 17.324890 Si / 1000 Ang^3
#
#
#
# Elastic Constant Matrix: (Units=GPa)
#
#
# Indices 1 2 3 4 5 6 
#
# 1 131.3754 56.8376 59.7981 0.0000 0.0000 0.0000
# 2 56.8376 44.4618 48.9682 0.0000 0.0000 0.0000
# 3 59.7981 48.9682 127.8767 0.0000 0.0000 0.0000
# 4 0.0000 0.0000 0.0000 20.1810 0.0000 0.0000
# 5 0.0000 0.0000 0.0000 0.0000 14.9761 0.0000
# 6 0.0000 0.0000 0.0000 0.0000 0.0000 31.7666
#
#
#
# Elastic Compliance Matrix: (Units=1/GPa)
#
#
# Indices 1 2 3 4 5 6 
#
# 1 0.017062 -0.022522 0.000646 0.000000 0.000000 0.000000
# 2 -0.022522 0.068625 -0.015747 0.000000 0.000000 0.000000
# 3 0.000646 -0.015747 0.013548 0.000000 0.000000 0.000000
# 4 0.000000 0.000000 0.000000 0.049551 0.000000 0.000000
# 5 0.000000 0.000000 0.000000 0.000000 0.066773 0.000000
# 6 0.000000 0.000000 0.000000 0.000000 0.000000 0.031480
#
#
# Mechanical properties :
#
#
# Convention : Reuss Voigt Hill
#
# Bulk Modulus (GPa) = 41.68633 70.54685 56.11659
# Shear Modulus (GPa) = 15.13862 22.59209 18.86535
#
# Velocity S-wave (km/s) = 2.95923 3.61505 3.30345
# Velocity P-wave (km/s) = 5.98246 7.63106 6.85649
#
# Compressibility (1/GPa) = 0.02398868
#
# Stress axis : x y z
#
# Youngs Moduli (GPa) = 58.61135 14.57191 73.81190
#
# Poissons Ratio (x) = 0.32819 -0.04769
# Poissons Ratio (y) = 1.32005 1.16232
# Poissons Ratio (z) = -0.03787 0.22946
#
# Static dielectric constant tensor:
#      x y z
#    x 1.568240 0.000000 0.000000 
#    y 0.000000 1.578340 0.000000 
#    z 0.000000 0.000000 1.587100 
# 
# From -- ./inp_files/71113.got.cif
#   From: 2010.05.17/outbox.cif.g08.bks.cpg/sg65_36_cif.got.tgz:71113.got - 2010.06.03 17:01:31.
