data_PCOD9484140
_publ_section_title
;
Structure prediction by ZEFSAII (Michael W. Deem and Ramdas Pophale) SiO2 
 PCOD9484140
Probable space group: C M M M
;
_chemical_formula_sum "Si O2"
_cell_formula_units_Z 104
_cell_length_a 22.888048
_cell_length_b 27.684016
_cell_length_c 9.059736
_cell_angle_alpha 90.000000
_cell_angle_beta 90.000000
_cell_angle_gamma 90.000000
_cell_volume 5740.548489
_symmetry_space_group_name_H-M "C M M M"
_symmetry_group_IT_number 65
_symmetry_cell_setting 'orthorhombic'
loop_
_space_group_symop_operation_xyz
x,y,z
-x,-y,z
x,-y,-z
-x,y,-z
-x,-y,-z
x,y,-z
-x,y,z
x,-y,z
1/2+x,1/2+y,z
1/2-x,1/2-y,z
1/2+x,1/2-y,-z
1/2-x,1/2+y,-z
1/2-x,1/2-y,-z
1/2+x,1/2+y,-z
1/2-x,1/2+y,z
1/2+x,1/2-y,z
loop_
_atom_site_type_symbol
_atom_site_label
_atom_site_fract_x
_atom_site_fract_y
_atom_site_fract_z
Si Si1 0.874283 0.591887 0.678440
Si Si2 0.836394 0.872870 0.171557
Si Si3 0.567980 0.703943 0.177003
Si Si4 0.110515 0.697539 0.327111
Si Si5 0.746234 0.443627 0.322593
Si Si6 0.069633 0.500000 0.169260
Si Si7 0.225175 0.303468 0.839127
O O1 0.875462 0.589793 0.500000
O O2 0.904327 0.642763 0.721967
O O3 0.805838 0.584703 0.722996
O O4 0.907416 0.547068 0.747525
O O5 0.890335 0.840161 0.228266
O O6 0.812010 0.919266 0.257298
O O7 0.780606 0.837461 0.177087
O O8 0.847936 0.885234 0.000000
O O9 0.500000 0.694158 0.207210
O O10 0.584994 0.755921 0.244750
O O11 0.576498 0.707451 0.000000
O O12 0.098006 0.702393 0.500000
O O13 0.179595 0.696183 0.292955
O O14 0.743596 0.441243 0.500000
O O15 0.752060 0.500000 0.280025
O O16 0.000000 0.500000 0.169463
O O17 0.090643 0.500000 0.000000
O O18 0.250000 0.250000 0.846373
O O19 0.196428 0.314180 0.000000
#
# Coordination Sequence:
#
# PCOD9484140 Si02
#       7
#    16  16  16  16  16   8  16
#     4  10  21  38  57  80 112 150 186 226 278 333
#     4  10  20  34  56  85 111 142 185 230 280 336
#     4  10  22  41  60  78 110 155 194 229 275 331
#     4  11  22  34  54  84 116 146 184 227 273 327
#     4  10  20  36  57  83 115 145 179 225 285 345
#     4  11  25  41  57  79 105 141 194 243 278 319
#     4  10  18  31  51  78 113 144 177 219 268 326
#
# _framework density 18.116734999999998
#
# number of rings (size 3 to 8) (size 9 to 14) (size 15 to 20)
#    0.000    1.769    3.846    0.692    0.000    4.615 
#    0.000    3.077    0.000    0.462    0.000    3.231 
#    0.000    0.000    0.000    0.000    0.000    0.000 
#
# Total GULP energy -289841.222827 kJ/mol
# GULP energy per Si atom -5573.869670 kJ/mol
# Density = 1.807550 g / cm^3
# Si number density = 18.116735 Si / 1000 Ang^3
#
#
#
# Elastic Constant Matrix: (Units=GPa)
#
#
# Indices 1 2 3 4 5 6 
#
# 1 67.1354 32.3280 18.7603 0.0000 0.0000 0.0000
# 2 32.3280 82.3478 20.0850 0.0000 0.0000 0.0000
# 3 18.7603 20.0850 9.3049 0.0000 0.0000 0.0000
# 4 0.0000 0.0000 0.0000 18.4787 0.0000 0.0000
# 5 0.0000 0.0000 0.0000 0.0000 7.3872 0.0000
# 6 0.0000 0.0000 0.0000 0.0000 0.0000 14.5981
#
#
#
# Elastic Compliance Matrix: (Units=1/GPa)
#
#
# Indices 1 2 3 4 5 6 
#
# 1 0.036231 0.007588 -0.089426 0.000000 0.000000 0.000000
# 2 0.007588 0.027234 -0.074085 0.000000 0.000000 0.000000
# 3 -0.089426 -0.074085 0.447682 0.000000 0.000000 0.000000
# 4 0.000000 0.000000 0.000000 0.054116 0.000000 0.000000
# 5 0.000000 0.000000 0.000000 0.000000 0.135369 0.000000
# 6 0.000000 0.000000 0.000000 0.000000 0.000000 0.068502
#
#
# Mechanical properties :
#
#
# Convention : Reuss Voigt Hill
#
# Bulk Modulus (GPa) = 5.01753 33.45940 19.23847
# Shear Modulus (GPa) = 4.35762 13.93380 9.14571
#
# Velocity S-wave (km/s) = 1.55259 2.77630 2.24926
# Velocity P-wave (km/s) = 2.44737 5.36526 4.16987
#
# Compressibility (1/GPa) = 0.19930134
#
# Stress axis : x y z
#
# Youngs Moduli (GPa) = 27.60097 36.71834 2.23373
#
# Poissons Ratio (x) = -0.27862 0.19975
# Poissons Ratio (y) = -0.20944 0.16549
# Poissons Ratio (z) = 2.46824 2.72027
#
# Static dielectric constant tensor:
#      x y z
#    x 1.623620 0.000000 0.000000 
#    y 0.000000 1.639330 0.000000 
#    z 0.000000 0.000000 1.652880 
# 
# From -- ./inp_files/12395.got.cif
#   From: 2010.05.17/outbox.cif.g08.bks.cpg/sg65_7_cif.got.tgz:12395.got - 2010.06.03 17:01:31.
