data_PCOD9484144
_publ_section_title
;
Structure prediction by ZEFSAII (Michael W. Deem and Ramdas Pophale) SiO2 
 PCOD9484144
Probable space group: C M M M
;
_chemical_formula_sum "Si O2"
_cell_formula_units_Z 88
_cell_length_a 23.694478
_cell_length_b 23.285327
_cell_length_c 7.474620
_cell_angle_alpha 90.000000
_cell_angle_beta 90.000000
_cell_angle_gamma 90.000000
_cell_volume 4123.999512
_symmetry_space_group_name_H-M "C M M M"
_symmetry_group_IT_number 65
_symmetry_cell_setting 'orthorhombic'
loop_
_space_group_symop_operation_xyz
x,y,z
-x,-y,z
x,-y,-z
-x,y,-z
-x,-y,-z
x,y,-z
-x,y,z
x,-y,z
1/2+x,1/2+y,z
1/2-x,1/2-y,z
1/2+x,1/2-y,-z
1/2-x,1/2+y,-z
1/2-x,1/2-y,-z
1/2+x,1/2+y,-z
1/2-x,1/2+y,z
1/2+x,1/2-y,z
loop_
_atom_site_type_symbol
_atom_site_label
_atom_site_fract_x
_atom_site_fract_y
_atom_site_fract_z
Si Si1 0.359049 0.836010 0.713699
Si Si2 0.562520 0.729161 0.212866
Si Si3 0.433692 0.500000 0.719503
Si Si4 0.763192 0.815930 0.718476
Si Si5 0.435297 0.937314 0.718347
Si Si6 0.125738 0.882830 0.293458
O O1 0.356478 0.841549 0.500000
O O2 0.388346 0.774603 0.744775
O O3 0.295321 0.844878 0.774850
O O4 0.399464 0.884802 0.786877
O O5 0.500000 0.748092 0.275725
O O6 0.578634 0.666955 0.286858
O O7 0.560709 0.724137 0.000000
O O8 0.500000 0.500000 0.773856
O O9 0.434389 0.500000 0.500000
O O10 0.400447 0.442189 0.779113
O O11 0.767982 0.813705 0.500000
O O12 0.750000 0.750000 0.773488
O O13 0.818244 0.850700 0.783040
O O14 0.435276 0.935631 0.500000
O O15 0.500000 0.932187 0.774276
O O16 0.413655 0.000000 0.770707
O O17 0.139767 0.895589 0.500000
#
# Coordination Sequence:
#
# PCOD9484144 Si02
#       6
#    16  16   8  16  16  16
#     4  10  18  31  52  74 100 136 173 206 251 311
#     4  11  23  35  49  75 106 131 166 218 267 311
#     4   9  18  32  53  81 105 133 180 225 258 306
#     4   9  16  29  49  75 104 129 163 209 250 296
#     4   8  14  25  42  68  99 126 159 204 246 289
#     4  10  19  35  56  76 104 139 174 214 260 311
#
# _framework density 21.338508000000001
#
# number of rings (size 3 to 8) (size 9 to 14) (size 15 to 20)
#    0.000    2.455    1.818    2.182    0.000    2.909 
#    1.636    2.273    0.000    2.182    0.000    2.545 
#    0.000    0.000    0.000    0.000    0.000    0.000 
#
# Total GULP energy -245371.296936 kJ/mol
# GULP energy per Si atom -5576.620385 kJ/mol
# Density = 2.128994 g / cm^3
# Si number density = 21.338508 Si / 1000 Ang^3
#
#
#
# Elastic Constant Matrix: (Units=GPa)
#
#
# Indices 1 2 3 4 5 6 
#
# 1 143.0607 72.2728 4.9329 0.0000 0.0000 0.0000
# 2 72.2728 139.3644 -1.6432 0.0000 0.0000 0.0000
# 3 4.9329 -1.6432 59.7077 0.0000 0.0000 0.0000
# 4 0.0000 0.0000 0.0000 -100.2999 0.0000 0.0000
# 5 0.0000 0.0000 0.0000 0.0000 -17.3733 0.0000
# 6 0.0000 0.0000 0.0000 0.0000 0.0000 60.6058
#
#
#
# Elastic Compliance Matrix: (Units=1/GPa)
#
#
# Indices 1 2 3 4 5 6 
#
# 1 0.009522 -0.004949 -0.000923 0.000000 0.000000 0.000000
# 2 -0.004949 0.009750 0.000677 0.000000 0.000000 0.000000
# 3 -0.000923 0.000677 0.016843 0.000000 0.000000 0.000000
# 4 0.000000 0.000000 0.000000 -0.009970 0.000000 0.000000
# 5 0.000000 0.000000 0.000000 0.000000 -0.057560 0.000000
# 6 0.000000 0.000000 0.000000 0.000000 0.000000 0.016500
#
#
# Mechanical properties :
#
#
# Convention : Reuss Voigt Hill
#
# Bulk Modulus (GPa) = 38.87142 54.80642 46.83892
# Shear Modulus (GPa) = 1234.61908 6.35787 620.48848
#
# Velocity S-wave (km/s) = 24.07994 1.72800 17.07087
# Velocity P-wave (km/s) = 28.13149 5.45173 20.26206
#
# Compressibility (1/GPa) = 0.02572584
#
# Stress axis : x y z
#
# Youngs Moduli (GPa) = 105.02017 102.56578 59.37133
#
# Poissons Ratio (x) = 0.50758 0.05479
# Poissons Ratio (y) = 0.51973 -0.04021
# Poissons Ratio (z) = 0.09692 -0.06946
#
# Static dielectric constant tensor:
#      x y z
#    x 1.697510 0.000000 0.000000 
#    y 0.000000 1.765390 0.000000 
#    z 0.000000 0.000000 1.808880 
# 
# From -- ./inp_files/11805.got.cif
#   From: 2010.05.17/outbox.cif.g08.bks.cpg/sg65_6_cif.got.tgz:11805.got - 2010.06.03 17:01:31.
