data_PCOD9484291
_publ_section_title
;
Structure prediction by ZEFSAII (Michael W. Deem and Ramdas Pophale) SiO2 
 PCOD9484291
Probable space group: C M M M
;
_chemical_formula_sum "Si O2"
_cell_formula_units_Z 80
_cell_length_a 28.879689
_cell_length_b 8.581382
_cell_length_c 19.057468
_cell_angle_alpha 90.000000
_cell_angle_beta 90.000000
_cell_angle_gamma 90.000000
_cell_volume 4722.967383
_symmetry_space_group_name_H-M "C M M M"
_symmetry_group_IT_number 65
_symmetry_cell_setting 'orthorhombic'
loop_
_space_group_symop_operation_xyz
x,y,z
-x,-y,z
x,-y,-z
-x,y,-z
-x,-y,-z
x,y,-z
-x,y,z
x,-y,z
1/2+x,1/2+y,z
1/2-x,1/2-y,z
1/2+x,1/2-y,-z
1/2-x,1/2+y,-z
1/2-x,1/2-y,-z
1/2+x,1/2+y,-z
1/2-x,1/2+y,z
1/2+x,1/2-y,z
loop_
_atom_site_type_symbol
_atom_site_label
_atom_site_fract_x
_atom_site_fract_y
_atom_site_fract_z
Si Si1 0.553548 0.690710 0.347023
Si Si2 0.111065 0.813729 0.788584
Si Si3 0.444542 0.186234 0.078908
Si Si4 0.802641 0.185879 0.000000
Si Si5 0.801762 0.315497 0.146925
Si Si6 0.443672 0.680742 0.500000
O O1 0.500000 0.737148 0.336219
O O2 0.553768 0.500000 0.349289
O O3 0.584592 0.738715 0.281618
O O4 0.569633 0.747646 0.424093
O O5 0.081219 0.766622 0.856813
O O6 0.161568 0.738443 0.795702
O O7 0.115673 0.000000 0.787139
O O8 0.500000 0.209718 0.085022
O O9 0.435967 0.000000 0.082652
O O10 0.430854 0.239076 0.000000
O O11 0.750000 0.250000 0.000000
O O12 0.821565 0.250186 0.927089
O O13 0.802993 0.000000 0.000000
O O14 0.798880 0.500000 0.141906
O O15 0.750000 0.250000 0.157352
O O16 0.428528 0.500000 0.500000
O O17 0.500000 0.679867 0.500000
#
# Coordination Sequence:
#
# PCOD9484291 Si02
#       6
#    16  16  16   8  16   8
#     4   8  14  25  43  70 103 134 163 197 236 283
#     4  11  21  31  47  73 101 128 162 204 249 294
#     4   9  19  35  50  64  89 128 171 209 243 282
#     4  10  18  32  52  72  91 114 149 196 248 294
#     4  11  22  37  53  70  94 125 161 204 252 299
#     4   7  10  20  40  66  98 133 162 191 234 283
#
# _framework density 16.938504999999999
#
# number of rings (size 3 to 8) (size 9 to 14) (size 15 to 20)
#    0.000    2.500    0.000    6.900    1.400    1.600 
#    0.000    1.000    0.000    0.000    0.000    3.500 
#    0.000   11.200    0.000    0.000    0.000    0.000 
#
# Total GULP energy -223049.410536 kJ/mol
# GULP energy per Si atom -5576.235263 kJ/mol
# Density = 1.689995 g / cm^3
# Si number density = 16.938505 Si / 1000 Ang^3
#
#
#
# Elastic Constant Matrix: (Units=GPa)
#
#
# Indices 1 2 3 4 5 6 
#
# 1 75.9337 30.3241 72.7708 0.0000 0.0000 0.0000
# 2 30.3241 71.4262 36.7250 0.0000 0.0000 0.0000
# 3 72.7708 36.7250 151.7358 0.0000 0.0000 0.0000
# 4 0.0000 0.0000 0.0000 4.2501 0.0000 0.0000
# 5 0.0000 0.0000 0.0000 0.0000 18.1549 0.0000
# 6 0.0000 0.0000 0.0000 0.0000 0.0000 22.5777
#
#
#
# Elastic Compliance Matrix: (Units=1/GPa)
#
#
# Indices 1 2 3 4 5 6 
#
# 1 0.026008 -0.005286 -0.011194 0.000000 0.000000 0.000000
# 2 -0.005286 0.017065 -0.001595 0.000000 0.000000 0.000000
# 3 -0.011194 -0.001595 0.012345 0.000000 0.000000 0.000000
# 4 0.000000 0.000000 0.000000 0.235290 0.000000 0.000000
# 5 0.000000 0.000000 0.000000 0.000000 0.055081 0.000000
# 6 0.000000 0.000000 0.000000 0.000000 0.000000 0.044292
#
#
# Mechanical properties :
#
#
# Convention : Reuss Voigt Hill
#
# Bulk Modulus (GPa) = 51.90045 64.30394 58.10220
# Shear Modulus (GPa) = 11.55662 19.61493 15.58577
#
# Velocity S-wave (km/s) = 2.61486 3.40664 3.03667
# Velocity P-wave (km/s) = 6.31060 7.31568 6.83165
#
# Compressibility (1/GPa) = 0.01926765
#
# Stress axis : x y z
#
# Youngs Moduli (GPa) = 38.45005 58.59997 81.00599
#
# Poissons Ratio (x) = 0.30978 0.90675
# Poissons Ratio (y) = 0.20326 0.12921
# Poissons Ratio (z) = 0.43039 0.09347
#
# Static dielectric constant tensor:
#      x y z
#    x 1.565200 0.000000 0.000000 
#    y 0.000000 1.581940 0.000000 
#    z 0.000000 0.000000 1.605230 
# 
# From -- ./inp_files/57909.got.cif
#   From: 2010.05.17/outbox.cif.g08.bks.cpg/sg65_29_cif.got.tgz:57909.got - 2010.06.03 17:01:31.
