data_PCOD9484826
_publ_section_title
;
Structure prediction by ZEFSAII (Michael W. Deem and Ramdas Pophale) SiO2 
 PCOD9484826
Probable space group: C M M M
;
_chemical_formula_sum "Si O2"
_cell_formula_units_Z 88
_cell_length_a 19.331444
_cell_length_b 29.124340
_cell_length_c 7.407266
_cell_angle_alpha 90.000000
_cell_angle_beta 90.000000
_cell_angle_gamma 90.000000
_cell_volume 4170.405924
_symmetry_space_group_name_H-M "C M M M"
_symmetry_group_IT_number 65
_symmetry_cell_setting 'orthorhombic'
loop_
_space_group_symop_operation_xyz
x,y,z
-x,-y,z
x,-y,-z
-x,y,-z
-x,-y,-z
x,y,-z
-x,y,z
x,-y,z
1/2+x,1/2+y,z
1/2-x,1/2-y,z
1/2+x,1/2-y,-z
1/2-x,1/2+y,-z
1/2-x,1/2-y,-z
1/2+x,1/2+y,-z
1/2-x,1/2+y,z
1/2+x,1/2-y,z
loop_
_atom_site_type_symbol
_atom_site_label
_atom_site_fract_x
_atom_site_fract_y
_atom_site_fract_z
Si Si1 0.078292 0.352550 0.783393
Si Si2 0.650875 0.553969 0.780233
Si Si3 0.423519 0.254880 0.716112
Si Si4 0.782597 0.391868 0.204757
Si Si5 0.712771 0.702164 0.282188
Si Si6 0.000000 0.055050 0.782498
O O1 0.093981 0.298726 0.748466
O O2 0.140981 0.384190 0.713709
O O3 0.000000 0.361451 0.716622
O O4 0.077266 0.357741 0.000000
O O5 0.653752 0.500000 0.738159
O O6 0.720486 0.578307 0.712547
O O7 0.575291 0.572370 0.718145
O O8 0.650854 0.558292 0.000000
O O9 0.425230 0.259720 0.500000
O O10 0.500000 0.262993 0.789012
O O11 0.365476 0.289721 0.780964
O O12 0.750661 0.340904 0.199610
O O13 0.792854 0.409261 0.000000
O O14 0.714723 0.696252 0.500000
O O15 0.750000 0.750000 0.241218
O O16 0.000000 0.000000 0.747548
O O17 0.000000 0.060212 0.000000
#
# Coordination Sequence:
#
# PCOD9484826 Si02
#       6
#    16  16  16  16  16   8
#     4   9  17  28  42  61  86 114 144 180 218 254
#     4   8  14  26  44  65  88 113 142 177 216 258
#     4   9  17  30  46  60  79 114 155 183 206 248
#     4  10  19  29  45  68  89 113 146 182 221 261
#     4  10  19  31  45  63  89 119 147 179 218 258
#     4   7  10  20  40  62  85 113 141 171 209 253
#
# _framework density 21.101064000000001
#
# number of rings (size 3 to 8) (size 9 to 14) (size 15 to 20)
#    0.000    3.000    1.818    1.091    0.000    1.091 
#    1.636    0.000    0.000    1.091    0.000    3.818 
#    0.000    2.182    0.000    6.182    0.000    6.545 
#
# Total GULP energy -245232.221487 kJ/mol
# GULP energy per Si atom -5573.459579 kJ/mol
# Density = 2.105304 g / cm^3
# Si number density = 21.101064 Si / 1000 Ang^3
#
#
#
# Elastic Constant Matrix: (Units=GPa)
#
#
# Indices 1 2 3 4 5 6 
#
# 1 192.6988 36.8856 4.6680 0.0000 0.0000 0.0000
# 2 36.8856 26.8853 -1.8063 0.0000 0.0000 0.0000
# 3 4.6680 -1.8063 68.4881 0.0000 0.0000 0.0000
# 4 0.0000 0.0000 0.0000 85.6008 0.0000 0.0000
# 5 0.0000 0.0000 0.0000 0.0000 -4.3482 0.0000
# 6 0.0000 0.0000 0.0000 0.0000 0.0000 37.7628
#
#
#
# Elastic Compliance Matrix: (Units=1/GPa)
#
#
# Indices 1 2 3 4 5 6 
#
# 1 0.007075 -0.009756 -0.000740 0.000000 0.000000 0.000000
# 2 -0.009756 0.050715 0.002002 0.000000 0.000000 0.000000
# 3 -0.000740 0.002002 0.014704 0.000000 0.000000 0.000000
# 4 0.000000 0.000000 0.000000 0.011682 0.000000 0.000000
# 5 0.000000 0.000000 0.000000 0.000000 -0.229981 0.000000
# 6 0.000000 0.000000 0.000000 0.000000 0.000000 0.026481
#
#
# Mechanical properties :
#
#
# Convention : Reuss Voigt Hill
#
# Bulk Modulus (GPa) = 18.01559 40.84075 29.42817
# Shear Modulus (GPa) = -59.64078 40.35807 -9.64135
#
# Velocity S-wave (km/s) = -5.32219 4.37808 -2.13987
# Velocity P-wave (km/s) = 5.40475 6.70475 2.80556
#
# Compressibility (1/GPa) = 0.05550748
#
# Stress axis : x y z
#
# Youngs Moduli (GPa) = 141.34629 19.71821 68.00732
#
# Poissons Ratio (x) = 0.19237 0.05029
# Poissons Ratio (y) = 1.37898 -0.13618
# Poissons Ratio (z) = 0.10453 -0.03949
#
# Static dielectric constant tensor:
#      x y z
#    x 1.850520 0.000000 0.000000 
#    y 0.000000 1.697250 0.000000 
#    z 0.000000 0.000000 1.812520 
# 
# From -- ./inp_files/12611.got.cif
#   From: 2010.05.17/outbox.cif.g08.bks.cpg/sg65_7_cif.got.tgz:12611.got - 2010.06.03 17:01:31.
