data_PCOD9484729
_publ_section_title
;
Structure prediction by ZEFSAII (Michael W. Deem and Ramdas Pophale) SiO2 
 PCOD9484729
Probable space group: C M M M
;
_chemical_formula_sum "Si O2"
_cell_formula_units_Z 104
_cell_length_a 28.253840
_cell_length_b 7.976428
_cell_length_c 27.844284
_cell_angle_alpha 90.000000
_cell_angle_beta 90.000000
_cell_angle_gamma 90.000000
_cell_volume 6275.119281
_symmetry_space_group_name_H-M "C M M M"
_symmetry_group_IT_number 65
_symmetry_cell_setting 'orthorhombic'
loop_
_space_group_symop_operation_xyz
x,y,z
-x,-y,z
x,-y,-z
-x,y,-z
-x,-y,-z
x,y,-z
-x,y,z
x,-y,z
1/2+x,1/2+y,z
1/2-x,1/2-y,z
1/2+x,1/2-y,-z
1/2-x,1/2+y,-z
1/2-x,1/2-y,-z
1/2+x,1/2+y,-z
1/2-x,1/2+y,z
1/2+x,1/2-y,z
loop_
_atom_site_type_symbol
_atom_site_label
_atom_site_fract_x
_atom_site_fract_y
_atom_site_fract_z
Si Si1 0.194778 0.297108 0.343746
Si Si2 0.945081 0.794687 0.000000
Si Si3 0.647499 0.199577 0.753222
Si Si4 0.947267 0.797975 0.802968
Si Si5 0.694492 0.202255 0.551628
Si Si6 0.102523 0.205136 0.901092
Si Si7 0.696502 0.301204 0.148365
O O1 0.192259 0.500000 0.343917
O O2 0.250000 0.250000 0.338926
O O3 0.166338 0.233073 0.297564
O O4 0.176743 0.237789 0.396272
O O5 0.918346 0.739112 0.048235
O O6 0.000000 0.743180 0.000000
O O7 0.944897 0.000000 0.000000
O O8 0.594068 0.248781 0.766471
O O9 0.680436 0.253849 0.797769
O O10 0.649866 0.000000 0.751212
O O11 0.930315 0.743795 0.856135
O O12 0.000000 0.735886 0.792065
O O13 0.948554 0.000000 0.803920
O O14 0.674818 0.263017 0.500000
O O15 0.750000 0.250000 0.551595
O O16 0.690919 0.000000 0.551487
O O17 0.155524 0.263505 0.887531
O O18 0.102637 0.000000 0.901912
O O19 0.694506 0.500000 0.145602
O O20 0.750000 0.250000 0.138208
#
# Coordination Sequence:
#
# PCOD9484729 Si02
#       7
#    16   8  16  16  16  16  16
#     4   9  17  26  37  56  81 108 137 169 201 235
#     4   9  14  22  41  66  87 105 129 165 208 249
#     4  10  19  29  42  62  86 110 139 172 206 245
#     4   9  17  30  46  63  85 111 137 166 203 246
#     4   8  13  22  35  50  71 101 134 164 196 234
#     4   8  15  26  41  63  87 108 132 165 202 242
#     4  10  19  31  45  61  84 113 144 174 205 241
#
# _framework density 16.573391000000001
#
# number of rings (size 3 to 8) (size 9 to 14) (size 15 to 20)
#    0.000    3.000    0.000    2.769    0.000    4.615 
#    0.000    0.385    0.000    0.000    0.000   12.923 
#    0.000   20.923    0.000    7.692    0.000    1.231 
#
# Total GULP energy -289538.295358 kJ/mol
# GULP energy per Si atom -5568.044141 kJ/mol
# Density = 1.653567 g / cm^3
# Si number density = 16.573391 Si / 1000 Ang^3
#
#
#
# Elastic Constant Matrix: (Units=GPa)
#
#
# Indices 1 2 3 4 5 6 
#
# 1 115.6552 7.7786 79.5596 0.0000 0.0000 0.0000
# 2 7.7786 15.7402 6.5284 0.0000 0.0000 0.0000
# 3 79.5596 6.5284 172.3405 0.0000 0.0000 0.0000
# 4 0.0000 0.0000 0.0000 8.7582 0.0000 0.0000
# 5 0.0000 0.0000 0.0000 0.0000 16.2673 0.0000
# 6 0.0000 0.0000 0.0000 0.0000 0.0000 18.3562
#
#
#
# Elastic Compliance Matrix: (Units=1/GPa)
#
#
# Indices 1 2 3 4 5 6 
#
# 1 0.012910 -0.003970 -0.005809 0.000000 0.000000 0.000000
# 2 -0.003970 0.065767 -0.000658 0.000000 0.000000 0.000000
# 3 -0.005809 -0.000658 0.008509 0.000000 0.000000 0.000000
# 4 0.000000 0.000000 0.000000 0.114179 0.000000 0.000000
# 5 0.000000 0.000000 0.000000 0.000000 0.061473 0.000000
# 6 0.000000 0.000000 0.000000 0.000000 0.000000 0.054477
#
#
# Mechanical properties :
#
#
# Convention : Reuss Voigt Hill
#
# Bulk Modulus (GPa) = 15.08075 54.60769 34.84422
# Shear Modulus (GPa) = 13.87755 22.66763 18.27259
#
# Velocity S-wave (km/s) = 2.89682 3.70227 3.32403
# Velocity P-wave (km/s) = 4.50643 7.16214 5.98348
#
# Compressibility (1/GPa) = 0.06630971
#
# Stress axis : x y z
#
# Youngs Moduli (GPa) = 77.46173 15.20521 117.52005
#
# Poissons Ratio (x) = 0.06037 0.68270
# Poissons Ratio (y) = 0.30755 0.07738
# Poissons Ratio (z) = 0.44999 0.01001
#
# Static dielectric constant tensor:
#      x y z
#    x 1.535780 0.000000 0.000000 
#    y 0.000000 1.613850 0.000000 
#    z 0.000000 0.000000 1.600400 
# 
# From -- ./inp_files/76055.got.cif
#   From: 2010.05.17/outbox.cif.g08.bks.cpg/sg65_39_cif.got.tgz:76055.got - 2010.06.03 17:01:31.
