data_PCOD9484928
_publ_section_title
;
Structure prediction by ZEFSAII (Michael W. Deem and Ramdas Pophale) SiO2 
 PCOD9484928
Probable space group: C M M M
;
_chemical_formula_sum "Si O2"
_cell_formula_units_Z 64
_cell_length_a 35.184891
_cell_length_b 7.578149
_cell_length_c 13.487967
_cell_angle_alpha 90.000000
_cell_angle_beta 90.000000
_cell_angle_gamma 90.000000
_cell_volume 3596.382243
_symmetry_space_group_name_H-M "C M M M"
_symmetry_group_IT_number 65
_symmetry_cell_setting 'orthorhombic'
loop_
_space_group_symop_operation_xyz
x,y,z
-x,-y,z
x,-y,-z
-x,y,-z
-x,-y,-z
x,y,-z
-x,y,z
x,-y,z
1/2+x,1/2+y,z
1/2-x,1/2-y,z
1/2+x,1/2-y,-z
1/2-x,1/2+y,-z
1/2-x,1/2-y,-z
1/2+x,1/2+y,-z
1/2-x,1/2+y,z
1/2+x,1/2-y,z
loop_
_atom_site_type_symbol
_atom_site_label
_atom_site_fract_x
_atom_site_fract_y
_atom_site_fract_z
Si Si1 0.082595 0.286943 0.886209
Si Si2 0.705753 0.287988 0.610895
Si Si3 0.663006 0.289654 0.803404
Si Si4 0.705359 0.711991 0.000000
Si Si5 0.000000 0.704709 0.120601
O O1 0.080098 0.500000 0.890011
O O2 0.118430 0.239748 0.819882
O O3 0.041156 0.219587 0.851564
O O4 0.089456 0.226020 0.000000
O O5 0.697164 0.219826 0.500000
O O6 0.701475 0.500000 0.607256
O O7 0.750000 0.250000 0.631971
O O8 0.680035 0.219304 0.700694
O O9 0.669473 0.500000 0.802148
O O10 0.685087 0.219199 0.900404
O O11 0.750000 0.750000 0.000000
O O12 0.700605 0.500000 0.000000
O O13 0.000000 0.500000 0.152964
O O14 0.000000 0.705306 0.000000
#
# Coordination Sequence:
#
# PCOD9484928 Si02
#       5
#    16  16  16   8   8
#     4   9  16  27  44  65  88 116 146 174 206 253
#     4   9  18  32  48  64  83 111 147 185 221 253
#     4  10  19  30  43  62  90 116 139 175 218 256
#     4  10  20  30  40  57  84 115 141 168 207 252
#     4   7  12  24  41  61  86 113 142 174 207 244
#
# _framework density 17.795660999999999
#
# number of rings (size 3 to 8) (size 9 to 14) (size 15 to 20)
#    0.000    2.875    1.250    2.250    0.000    2.000 
#    0.000    0.625    0.000    2.250    0.000    0.875 
#    0.000    7.000    0.000    0.000    0.000    0.000 
#
# Total GULP energy -178341.478863 kJ/mol
# GULP energy per Si atom -5573.171214 kJ/mol
# Density = 1.775516 g / cm^3
# Si number density = 17.795661 Si / 1000 Ang^3
#
#
#
# Elastic Constant Matrix: (Units=GPa)
#
#
# Indices 1 2 3 4 5 6 
#
# 1 165.6883 -6.9193 104.3622 0.0000 0.0000 0.0000
# 2 -6.9193 38.8214 10.9025 0.0000 0.0000 0.0000
# 3 104.3622 10.9025 131.6559 0.0000 0.0000 0.0000
# 4 0.0000 0.0000 0.0000 -12.7042 0.0000 0.0000
# 5 0.0000 0.0000 0.0000 0.0000 10.4289 0.0000
# 6 0.0000 0.0000 0.0000 0.0000 0.0000 16.3250
#
#
#
# Elastic Compliance Matrix: (Units=1/GPa)
#
#
# Indices 1 2 3 4 5 6 
#
# 1 0.013059 0.005359 -0.010796 0.000000 0.000000 0.000000
# 2 0.005359 0.028572 -0.006614 0.000000 0.000000 0.000000
# 3 -0.010796 -0.006614 0.016701 0.000000 0.000000 0.000000
# 4 0.000000 0.000000 0.000000 -0.078714 0.000000 0.000000
# 5 0.000000 0.000000 0.000000 0.000000 0.095887 0.000000
# 6 0.000000 0.000000 0.000000 0.000000 0.000000 0.061256
#
#
# Mechanical properties :
#
#
# Convention : Reuss Voigt Hill
#
# Bulk Modulus (GPa) = 29.21370 61.42847 45.32109
# Shear Modulus (GPa) = 29.02386 17.99796 23.51091
#
# Velocity S-wave (km/s) = 4.04289 3.18365 3.63872
# Velocity P-wave (km/s) = 6.18426 6.93599 6.57088
#
# Compressibility (1/GPa) = 0.03423052
#
# Stress axis : x y z
#
# Youngs Moduli (GPa) = 76.57517 34.99961 59.87727
#
# Poissons Ratio (x) = -0.18758 0.64641
# Poissons Ratio (y) = -0.41039 0.39605
# Poissons Ratio (z) = 0.82667 0.23150
#
# Static dielectric constant tensor:
#      x y z
#    x 1.617800 0.000000 0.000000 
#    y 0.000000 1.669540 0.000000 
#    z 0.000000 0.000000 1.610050 
# 
# From -- ./inp_files/36871.got.cif
#   From: 2010.05.17/outbox.cif.g08.bks.cpg/sg65_19_cif.got.tgz:36871.got - 2010.06.03 17:01:31.
