data_PCOD9484405
_publ_section_title
;
Structure prediction by ZEFSAII (Michael W. Deem and Ramdas Pophale) SiO2 
 PCOD9484405
Probable space group: C M M M
;
_chemical_formula_sum "Si O2"
_cell_formula_units_Z 104
_cell_length_a 29.667155
_cell_length_b 8.604422
_cell_length_c 20.934859
_cell_angle_alpha 90.000000
_cell_angle_beta 90.000000
_cell_angle_gamma 90.000000
_cell_volume 5344.014685
_symmetry_space_group_name_H-M "C M M M"
_symmetry_group_IT_number 65
_symmetry_cell_setting 'orthorhombic'
loop_
_space_group_symop_operation_xyz
x,y,z
-x,-y,z
x,-y,-z
-x,y,-z
-x,-y,-z
x,y,-z
-x,y,z
x,-y,z
1/2+x,1/2+y,z
1/2-x,1/2-y,z
1/2+x,1/2-y,-z
1/2-x,1/2+y,-z
1/2-x,1/2-y,-z
1/2+x,1/2+y,-z
1/2-x,1/2+y,z
1/2+x,1/2-y,z
loop_
_atom_site_type_symbol
_atom_site_label
_atom_site_fract_x
_atom_site_fract_y
_atom_site_fract_z
Si Si1 0.104500 0.809481 0.427041
Si Si2 0.300441 0.184358 0.865720
Si Si3 0.446704 0.812978 0.926889
Si Si4 0.796592 0.823003 0.422176
Si Si5 0.198915 0.814338 0.000000
Si Si6 0.449337 0.689547 0.694966
Si Si7 0.613194 0.685845 0.188111
O O1 0.095301 0.761390 0.500000
O O2 0.154547 0.753495 0.406635
O O3 0.068341 0.762541 0.374613
O O4 0.106355 0.000000 0.427774
O O5 0.250000 0.250000 0.855349
O O6 0.337538 0.238243 0.815297
O O7 0.297389 0.000000 0.869807
O O8 0.319212 0.249485 0.933532
O O9 0.500000 0.778926 0.916987
O O10 0.416281 0.733542 0.873557
O O11 0.441226 0.000000 0.922545
O O12 0.435291 0.766964 0.000000
O O13 0.795565 0.822886 0.500000
O O14 0.750000 0.750000 0.399650
O O15 0.796805 0.000000 0.400047
O O16 0.250000 0.750000 0.000000
O O17 0.198307 0.000000 0.000000
O O18 0.500000 0.743678 0.707660
O O19 0.449941 0.500000 0.695603
O O20 0.414813 0.737404 0.749894
O O21 0.618344 0.500000 0.189264
#
# Coordination Sequence:
#
# PCOD9484405 Si02
#       7
#    16  16  16  16   8  16  16
#     4   8  14  26  46  73 104 137 176 224 277 330
#     4  11  22  38  58  81 111 147 187 231 275 325
#     4   9  19  36  56  78 105 137 178 230 282 328
#     4   8  13  22  39  65  97 131 164 201 248 303
#     4  10  18  32  54  82 113 144 179 220 270 320
#     4   9  18  32  50  74 105 141 181 226 278 335
#     4  11  22  35  53  78 110 147 185 226 275 335
#
# _framework density 19.461024999999999
#
# number of rings (size 3 to 8) (size 9 to 14) (size 15 to 20)
#    0.000    2.615    0.000    5.308    1.077    1.538 
#    0.000    3.077    0.000    3.692    0.000    0.000 
#    0.000    0.000    0.000   13.538    0.000   14.154 
#
# Total GULP energy -289990.027163 kJ/mol
# GULP energy per Si atom -5576.731292 kJ/mol
# Density = 1.941673 g / cm^3
# Si number density = 19.461025 Si / 1000 Ang^3
#
#
#
# Elastic Constant Matrix: (Units=GPa)
#
#
# Indices 1 2 3 4 5 6 
#
# 1 128.0437 36.0149 72.6172 0.0000 0.0000 0.0000
# 2 36.0149 63.5623 23.6576 0.0000 0.0000 0.0000
# 3 72.6172 23.6576 90.3340 0.0000 0.0000 0.0000
# 4 0.0000 0.0000 0.0000 6.2405 0.0000 0.0000
# 5 0.0000 0.0000 0.0000 0.0000 32.5302 0.0000
# 6 0.0000 0.0000 0.0000 0.0000 0.0000 27.0980
#
#
#
# Elastic Compliance Matrix: (Units=1/GPa)
#
#
# Indices 1 2 3 4 5 6 
#
# 1 0.015472 -0.004584 -0.011237 0.000000 0.000000 0.000000
# 2 -0.004584 0.018790 -0.001236 0.000000 0.000000 0.000000
# 3 -0.011237 -0.001236 0.020427 0.000000 0.000000 0.000000
# 4 0.000000 0.000000 0.000000 0.160244 0.000000 0.000000
# 5 0.000000 0.000000 0.000000 0.000000 0.030741 0.000000
# 6 0.000000 0.000000 0.000000 0.000000 0.000000 0.036903
#
#
# Mechanical properties :
#
#
# Convention : Reuss Voigt Hill
#
# Bulk Modulus (GPa) = 48.60310 60.72438 54.66374
# Shear Modulus (GPa) = 15.45362 23.15043 19.30203
#
# Velocity S-wave (km/s) = 2.82100 3.45277 3.15275
# Velocity P-wave (km/s) = 5.96989 6.86777 6.43451
#
# Compressibility (1/GPa) = 0.02057482
#
# Stress axis : x y z
#
# Youngs Moduli (GPa) = 64.63250 53.21979 48.95516
#
# Poissons Ratio (x) = 0.24397 0.55011
# Poissons Ratio (y) = 0.29629 0.06050
# Poissons Ratio (z) = 0.72628 0.06577
#
# Static dielectric constant tensor:
#      x y z
#    x 1.688540 0.000000 0.000000 
#    y 0.000000 1.671750 0.000000 
#    z 0.000000 0.000000 1.693930 
# 
# From -- ./inp_files/66419.got.cif
#   From: 2010.05.17/outbox.cif.g08.bks.cpg/sg65_34_cif.got.tgz:66419.got - 2010.06.03 17:01:31.
