data_PCOD9484365
_publ_section_title
;
Structure prediction by ZEFSAII (Michael W. Deem and Ramdas Pophale) SiO2 
 PCOD9484365
Probable space group: C M M M
;
_chemical_formula_sum "Si O2"
_cell_formula_units_Z 56
_cell_length_a 15.042208
_cell_length_b 28.951970
_cell_length_c 7.645472
_cell_angle_alpha 90.000000
_cell_angle_beta 90.000000
_cell_angle_gamma 90.000000
_cell_volume 3329.614943
_symmetry_space_group_name_H-M "C M M M"
_symmetry_group_IT_number 65
_symmetry_cell_setting 'orthorhombic'
loop_
_space_group_symop_operation_xyz
x,y,z
-x,-y,z
x,-y,-z
-x,y,-z
-x,-y,-z
x,y,-z
-x,y,z
x,-y,z
1/2+x,1/2+y,z
1/2-x,1/2-y,z
1/2+x,1/2-y,-z
1/2-x,1/2+y,-z
1/2-x,1/2-y,-z
1/2+x,1/2+y,-z
1/2-x,1/2+y,z
1/2+x,1/2-y,z
loop_
_atom_site_type_symbol
_atom_site_label
_atom_site_fract_x
_atom_site_fract_y
_atom_site_fract_z
Si Si1 0.607758 0.554922 0.000000
Si Si2 0.500000 0.782338 0.788798
Si Si3 0.698258 0.797145 0.211758
Si Si4 0.000000 0.825907 0.788689
Si Si5 0.826000 0.880764 0.304301
O O1 0.654834 0.578920 0.165808
O O2 0.618387 0.500000 0.000000
O O3 0.500000 0.564106 0.000000
O O4 0.403914 0.799486 0.725455
O O5 0.500000 0.727961 0.752918
O O6 0.500000 0.788867 0.000000
O O7 0.750000 0.750000 0.270840
O O8 0.748930 0.844043 0.260479
O O9 0.697365 0.794152 0.000000
O O10 0.085939 0.849638 0.710930
O O11 0.000000 0.831031 0.000000
O O12 0.814697 0.898737 0.500000
#
# Coordination Sequence:
#
# PCOD9484365 Si02
#       5
#     8   8  16   8  16
#     4  11  24  42  61  81 109 141 177 230 285 331
#     4   9  18  29  51  79 111 157 196 225 256 306
#     4  10  18  32  53  78 113 154 191 224 263 315
#     4  11  17  33  53  75 114 153 186 222 264 312
#     4  12  22  35  56  82 110 149 188 221 271 329
#
# _framework density 16.818760999999999
#
# number of rings (size 3 to 8) (size 9 to 14) (size 15 to 20)
#    0.000    1.286    7.143    0.429    0.000    1.143 
#    0.000    2.143    0.000    0.000    0.000    2.000 
#    0.000    2.286    0.000    0.000    0.000    0.000 
#
# Total GULP energy -156212.676773 kJ/mol
# GULP energy per Si atom -5579.024170 kJ/mol
# Density = 1.678048 g / cm^3
# Si number density = 16.818761 Si / 1000 Ang^3
#
#
#
# Elastic Constant Matrix: (Units=GPa)
#
#
# Indices 1 2 3 4 5 6 
#
# 1 138.3920 68.3905 31.6020 0.0000 0.0000 0.0000
# 2 68.3905 122.4340 46.4312 0.0000 0.0000 0.0000
# 3 31.6020 46.4312 95.7742 0.0000 0.0000 0.0000
# 4 0.0000 0.0000 0.0000 -10.1716 0.0000 0.0000
# 5 0.0000 0.0000 0.0000 0.0000 -1.3392 0.0000
# 6 0.0000 0.0000 0.0000 0.0000 0.0000 32.4024
#
#
#
# Elastic Compliance Matrix: (Units=1/GPa)
#
#
# Indices 1 2 3 4 5 6 
#
# 1 0.010022 -0.005323 -0.000726 0.000000 0.000000 0.000000
# 2 -0.005323 0.012835 -0.004466 0.000000 0.000000 0.000000
# 3 -0.000726 -0.004466 0.012846 0.000000 0.000000 0.000000
# 4 0.000000 0.000000 0.000000 -0.098313 0.000000 0.000000
# 5 0.000000 0.000000 0.000000 0.000000 -0.746696 0.000000
# 6 0.000000 0.000000 0.000000 0.000000 0.000000 0.030862
#
#
# Mechanical properties :
#
#
# Convention : Reuss Voigt Hill
#
# Bulk Modulus (GPa) = 68.15487 72.16087 70.15787
# Shear Modulus (GPa) = -6.64432 18.19006 5.77287
#
# Velocity S-wave (km/s) = -1.98975 3.29224 1.85468
# Velocity P-wave (km/s) = 5.94410 7.57957 6.81110
#
# Compressibility (1/GPa) = 0.01467247
#
# Stress axis : x y z
#
# Youngs Moduli (GPa) = 99.77895 77.91482 77.84542
#
# Poissons Ratio (x) = 0.41472 0.05655
# Poissons Ratio (y) = 0.53110 0.34765
# Poissons Ratio (z) = 0.07249 0.34796
#
# Static dielectric constant tensor:
#      x y z
#    x 1.587810 0.000000 0.000000 
#    y 0.000000 1.527770 0.000000 
#    z 0.000000 0.000000 1.632620 
# 
# From -- ./inp_files/7039.got.cif
#   From: 2010.05.17/outbox.cif.g08.bks.cpg/sg65_4_cif.got.tgz:7039.got - 2010.06.03 17:01:31.
