data_PCOD9484498
_publ_section_title
;
Structure prediction by ZEFSAII (Michael W. Deem and Ramdas Pophale) SiO2 
 PCOD9484498
Probable space group: C M M M
;
_chemical_formula_sum "Si O2"
_cell_formula_units_Z 88
_cell_length_a 8.313612
_cell_length_b 24.348410
_cell_length_c 23.411195
_cell_angle_alpha 90.000000
_cell_angle_beta 90.000000
_cell_angle_gamma 90.000000
_cell_volume 4738.969793
_symmetry_space_group_name_H-M "C M M M"
_symmetry_group_IT_number 65
_symmetry_cell_setting 'orthorhombic'
loop_
_space_group_symop_operation_xyz
x,y,z
-x,-y,z
x,-y,-z
-x,y,-z
-x,-y,-z
x,y,-z
-x,y,z
x,-y,z
1/2+x,1/2+y,z
1/2-x,1/2-y,z
1/2+x,1/2-y,-z
1/2-x,1/2+y,-z
1/2-x,1/2-y,-z
1/2+x,1/2+y,-z
1/2-x,1/2+y,z
1/2+x,1/2-y,z
loop_
_atom_site_type_symbol
_atom_site_label
_atom_site_fract_x
_atom_site_fract_y
_atom_site_fract_z
Si Si1 0.694988 0.500000 0.757126
Si Si2 0.808361 0.888739 0.821764
Si Si3 0.306126 0.063001 0.064932
Si Si4 0.691761 0.187717 0.276259
Si Si5 0.808875 0.500000 0.371797
Si Si6 0.694070 0.812285 0.500000
Si Si7 0.302802 0.121375 0.611660
O O1 0.500000 0.500000 0.751276
O O2 0.744027 0.554709 0.790720
O O3 0.775928 0.500000 0.695654
O O4 0.753240 0.895552 0.886890
O O5 0.743528 0.839078 0.783642
O O6 0.000000 0.886488 0.820447
O O7 0.500000 0.062363 0.065992
O O8 0.251286 0.000000 0.077386
O O9 0.255558 0.076068 0.000000
O O10 0.500000 0.187669 0.278869
O O11 0.750000 0.250000 0.282584
O O12 0.750987 0.149658 0.329058
O O13 0.745930 0.441537 0.393777
O O14 0.000000 0.500000 0.382669
O O15 0.500000 0.813419 0.500000
O O16 0.750000 0.750000 0.500000
O O17 0.748357 0.843170 0.557311
O O18 0.500000 0.120552 0.612804
#
# Coordination Sequence:
#
# PCOD9484498 Si02
#       7
#     8  16  16  16   8   8  16
#     4  10  20  32  48  78 113 143 175 216 269 322
#     4  11  21  34  53  80 111 145 181 223 271 320
#     4   9  18  32  51  78 112 148 183 219 263 318
#     4  11  22  37  55  79 106 140 182 228 273 322
#     4  10  18  33  54  79 107 140 175 215 271 332
#     4  10  20  37  55  77 105 140 183 226 268 317
#     4   9  19  33  55  81 107 137 177 221 269 324
#
# _framework density 18.569437000000001
#
# number of rings (size 3 to 8) (size 9 to 14) (size 15 to 20)
#    0.000    2.000    2.727    2.182    0.000    1.455 
#    0.000    4.545    0.000    0.545    0.000    1.273 
#    0.000    0.000    0.000    0.000    0.000    0.000 
#
# Total GULP energy -245575.673146 kJ/mol
# GULP energy per Si atom -5581.265299 kJ/mol
# Density = 1.852717 g / cm^3
# Si number density = 18.569437 Si / 1000 Ang^3
#
#
#
# Elastic Constant Matrix: (Units=GPa)
#
#
# Indices 1 2 3 4 5 6 
#
# 1 14.4983 16.7005 14.3826 0.0000 0.0000 0.0000
# 2 16.7005 150.6003 76.0833 0.0000 0.0000 0.0000
# 3 14.3826 76.0833 134.5147 0.0000 0.0000 0.0000
# 4 0.0000 0.0000 0.0000 11.1560 0.0000 0.0000
# 5 0.0000 0.0000 0.0000 0.0000 6.6990 0.0000
# 6 0.0000 0.0000 0.0000 0.0000 0.0000 22.5628
#
#
#
# Elastic Compliance Matrix: (Units=1/GPa)
#
#
# Indices 1 2 3 4 5 6 
#
# 1 0.081443 -0.006485 -0.005040 0.000000 0.000000 0.000000
# 2 -0.006485 0.009813 -0.004857 0.000000 0.000000 0.000000
# 3 -0.005040 -0.004857 0.010720 0.000000 0.000000 0.000000
# 4 0.000000 0.000000 0.000000 0.089638 0.000000 0.000000
# 5 0.000000 0.000000 0.000000 0.000000 0.149277 0.000000
# 6 0.000000 0.000000 0.000000 0.000000 0.000000 0.044321
#
#
# Mechanical properties :
#
#
# Convention : Reuss Voigt Hill
#
# Bulk Modulus (GPa) = 14.44831 57.10513 35.77672
# Shear Modulus (GPa) = 11.33665 20.91335 16.12500
#
# Velocity S-wave (km/s) = 2.47351 3.35957 2.95000
# Velocity P-wave (km/s) = 3.99440 6.77258 5.55982
#
# Compressibility (1/GPa) = 0.06921226
#
# Stress axis : x y z
#
# Youngs Moduli (GPa) = 12.27845 101.90576 93.28226
#
# Poissons Ratio (x) = 0.66089 0.47013
# Poissons Ratio (y) = 0.07963 0.45307
# Poissons Ratio (z) = 0.06188 0.49495
#
# Static dielectric constant tensor:
#      x y z
#    x 1.644330 0.000000 0.000000 
#    y 0.000000 1.643160 0.000000 
#    z 0.000000 0.000000 1.635550 
# 
# From -- ./inp_files/67661.got.cif
#   From: 2010.05.17/outbox.cif.g08.bks.cpg/sg65_34_cif.got.tgz:67661.got - 2010.06.03 17:01:31.
