data_PCOD9484096
_publ_section_title
;
Structure prediction by ZEFSAII (Michael W. Deem and Ramdas Pophale) SiO2 
 PCOD9484096
Probable space group: C M M M
;
_chemical_formula_sum "Si O2"
_cell_formula_units_Z 104
_cell_length_a 28.636017
_cell_length_b 9.407112
_cell_length_c 21.337108
_cell_angle_alpha 90.000000
_cell_angle_beta 90.000000
_cell_angle_gamma 90.000000
_cell_volume 5747.837503
_symmetry_space_group_name_H-M "C M M M"
_symmetry_group_IT_number 65
_symmetry_cell_setting 'orthorhombic'
loop_
_space_group_symop_operation_xyz
x,y,z
-x,-y,z
x,-y,-z
-x,y,-z
-x,-y,-z
x,y,-z
-x,y,z
x,-y,z
1/2+x,1/2+y,z
1/2-x,1/2-y,z
1/2+x,1/2-y,-z
1/2-x,1/2+y,-z
1/2-x,1/2-y,-z
1/2+x,1/2+y,-z
1/2-x,1/2+y,z
1/2+x,1/2-y,z
loop_
_atom_site_type_symbol
_atom_site_label
_atom_site_fract_x
_atom_site_fract_y
_atom_site_fract_z
Si Si1 0.556115 0.836150 0.929641
Si Si2 0.791806 0.841232 0.680491
Si Si3 0.707563 0.658466 0.171709
Si Si4 0.398420 0.671933 0.817171
Si Si5 0.300332 0.830193 0.500000
Si Si6 0.444296 0.330244 0.317148
Si Si7 0.367352 0.169709 0.619522
O O1 0.500000 0.834730 0.929942
O O2 0.573379 0.734628 0.875114
O O3 0.570738 0.000000 0.918190
O O4 0.571836 0.795389 0.000000
O O5 0.750000 0.750000 0.651512
O O6 0.782402 0.857253 0.753959
O O7 0.837588 0.748062 0.673036
O O8 0.796187 0.000000 0.653483
O O9 0.706934 0.500000 0.144065
O O10 0.750000 0.750000 0.144878
O O11 0.655220 0.719834 0.171956
O O12 0.397565 0.500000 0.817344
O O13 0.422749 0.711504 0.750981
O O14 0.250000 0.750000 0.500000
O O15 0.334863 0.799680 0.441074
O O16 0.290616 0.000000 0.500000
O O17 0.500000 0.307107 0.317115
O O18 0.435727 0.500000 0.325324
O O19 0.417703 0.242588 0.371582
O O20 0.370430 0.000000 0.626339
#
# Coordination Sequence:
#
# PCOD9484096 Si02
#       7
#    16  16  16  16   8  16  16
#     4   9  19  35  53  77 111 147 183 226 275 325
#     4  10  18  31  50  75 107 139 173 213 264 319
#     4   9  18  31  48  73 107 139 171 212 263 317
#     4  10  19  34  55  81 111 144 181 225 275 325
#     4  10  24  42  59  84 113 145 182 225 275 328
#     4  10  21  38  58  81 112 147 182 227 282 333
#     4  11  22  37  56  79 109 143 182 225 274 329
#
# _framework density 18.093762000000002
#
# number of rings (size 3 to 8) (size 9 to 14) (size 15 to 20)
#    0.000    2.154    1.538    2.308    0.000    5.846 
#    0.000    1.154    0.000    2.769    0.000    0.000 
#    0.000    0.000    0.000    0.000    0.000    0.000 
#
# Total GULP energy -289510.187071 kJ/mol
# GULP energy per Si atom -5567.503598 kJ/mol
# Density = 1.805258 g / cm^3
# Si number density = 18.093762 Si / 1000 Ang^3
#
#
#
# Elastic Constant Matrix: (Units=GPa)
#
#
# Indices 1 2 3 4 5 6 
#
# 1 122.5663 53.2950 34.1073 0.0000 0.0000 0.0000
# 2 53.2950 53.6359 27.4721 0.0000 0.0000 0.0000
# 3 34.1073 27.4721 59.9569 0.0000 0.0000 0.0000
# 4 0.0000 0.0000 0.0000 18.8580 0.0000 0.0000
# 5 0.0000 0.0000 0.0000 0.0000 3.3537 0.0000
# 6 0.0000 0.0000 0.0000 0.0000 0.0000 27.1394
#
#
#
# Elastic Compliance Matrix: (Units=1/GPa)
#
#
# Indices 1 2 3 4 5 6 
#
# 1 0.014577 -0.013377 -0.002163 0.000000 0.000000 0.000000
# 2 -0.013377 0.036636 -0.009177 0.000000 0.000000 0.000000
# 3 -0.002163 -0.009177 0.022114 0.000000 0.000000 0.000000
# 4 0.000000 0.000000 0.000000 0.053028 0.000000 0.000000
# 5 0.000000 0.000000 0.000000 0.000000 0.298175 0.000000
# 6 0.000000 0.000000 0.000000 0.000000 0.000000 0.036847
#
#
# Mechanical properties :
#
#
# Convention : Reuss Voigt Hill
#
# Bulk Modulus (GPa) = 41.85230 51.76755 46.80993
# Shear Modulus (GPa) = 9.63806 17.95586 13.79696
#
# Velocity S-wave (km/s) = 2.31047 3.15362 2.76438
# Velocity P-wave (km/s) = 5.50443 6.47559 6.00966
#
# Compressibility (1/GPa) = 0.02389355
#
# Stress axis : x y z
#
# Youngs Moduli (GPa) = 68.59940 27.29528 45.21955
#
# Poissons Ratio (x) = 0.36512 0.09783
# Poissons Ratio (y) = 0.91763 0.41499
# Poissons Ratio (z) = 0.14841 0.25049
#
# Static dielectric constant tensor:
#      x y z
#    x 1.728530 0.000000 0.000000 
#    y 0.000000 1.641280 0.000000 
#    z 0.000000 0.000000 1.640550 
# 
# From -- ./inp_files/65873.got.cif
#   From: 2010.05.17/outbox.cif.g08.bks.cpg/sg65_33_cif.got.tgz:65873.got - 2010.06.03 17:01:31.
