data_PCOD9484257
_publ_section_title
;
Structure prediction by ZEFSAII (Michael W. Deem and Ramdas Pophale) SiO2 
 PCOD9484257
Probable space group: C M M M
;
_chemical_formula_sum "Si O2"
_cell_formula_units_Z 96
_cell_length_a 24.035305
_cell_length_b 7.525061
_cell_length_c 26.742819
_cell_angle_alpha 90.000000
_cell_angle_beta 90.000000
_cell_angle_gamma 90.000000
_cell_volume 4836.897089
_symmetry_space_group_name_H-M "C M M M"
_symmetry_group_IT_number 65
_symmetry_cell_setting 'orthorhombic'
loop_
_space_group_symop_operation_xyz
x,y,z
-x,-y,z
x,-y,-z
-x,y,-z
-x,-y,-z
x,y,-z
-x,y,z
x,-y,z
1/2+x,1/2+y,z
1/2-x,1/2-y,z
1/2+x,1/2-y,-z
1/2-x,1/2+y,-z
1/2-x,1/2-y,-z
1/2+x,1/2+y,-z
1/2-x,1/2+y,z
1/2+x,1/2-y,z
loop_
_atom_site_type_symbol
_atom_site_label
_atom_site_fract_x
_atom_site_fract_y
_atom_site_fract_z
Si Si1 0.436978 0.787380 0.443401
Si Si2 0.435599 0.717167 0.942826
Si Si3 0.500000 0.283689 0.699042
Si Si4 0.620125 0.298423 0.152630
Si Si5 0.883627 0.212200 0.344916
Si Si6 0.815160 0.213335 0.750307
Si Si7 0.000000 0.295458 0.813443
O O1 0.425902 0.724592 0.500000
O O2 0.500000 0.720690 0.429483
O O3 0.387966 0.747800 0.404018
O O4 0.440910 0.000000 0.444910
O O5 0.500000 0.769679 0.931259
O O6 0.435138 0.500000 0.940932
O O7 0.389991 0.781600 0.902624
O O8 0.424360 0.769355 0.000000
O O9 0.500000 0.500000 0.701017
O O10 0.444023 0.223829 0.672849
O O11 0.500000 0.210188 0.754156
O O12 0.641250 0.500000 0.145934
O O13 0.654474 0.217497 0.199075
O O14 0.556164 0.300085 0.170455
O O15 0.840556 0.279611 0.302741
O O16 0.881315 0.000000 0.340972
O O17 0.750000 0.250000 0.752469
O O18 0.824214 0.000000 0.751141
O O19 0.000000 0.500000 0.830383
#
# Coordination Sequence:
#
# PCOD9484257 Si02
#       7
#    16  16   8  16  16  16   8
#     4   9  18  31  47  73 110 143 165 190 235 293
#     4   8  13  22  44  77 102 125 163 203 238 287
#     4  10  18  32  49  70 103 133 160 198 250 309
#     4  10  18  33  53  70 100 138 165 202 251 300
#     4  10  19  32  52  75  99 129 165 203 246 298
#     4  10  22  37  53  72  95 130 171 213 261 301
#     4  12  22  28  43  76 107 131 164 202 246 303
#
# _framework density 19.847435000000001
#
# number of rings (size 3 to 8) (size 9 to 14) (size 15 to 20)
#    0.000    2.333    3.333    1.750    0.000    2.333 
#    0.000    0.833    0.000    2.000    0.000    0.000 
#    0.000    0.000    0.000    0.000    0.000    0.000 
#
# Total GULP energy -267294.417718 kJ/mol
# GULP energy per Si atom -5568.633702 kJ/mol
# Density = 1.980226 g / cm^3
# Si number density = 19.847435 Si / 1000 Ang^3
#
#
#
# Elastic Constant Matrix: (Units=GPa)
#
#
# Indices 1 2 3 4 5 6 
#
# 1 95.4306 -1.1433 70.4198 0.0000 0.0000 0.0000
# 2 -1.1433 55.6996 2.8042 0.0000 0.0000 0.0000
# 3 70.4198 2.8042 188.9571 0.0000 0.0000 0.0000
# 4 0.0000 0.0000 0.0000 124.7979 0.0000 0.0000
# 5 0.0000 0.0000 0.0000 0.0000 14.5478 0.0000
# 6 0.0000 0.0000 0.0000 0.0000 0.0000 5.6964
#
#
#
# Elastic Compliance Matrix: (Units=1/GPa)
#
#
# Indices 1 2 3 4 5 6 
#
# 1 0.014472 0.000569 -0.005402 0.000000 0.000000 0.000000
# 2 0.000569 0.017989 -0.000479 0.000000 0.000000 0.000000
# 3 -0.005402 -0.000479 0.007312 0.000000 0.000000 0.000000
# 4 0.000000 0.000000 0.000000 0.008013 0.000000 0.000000
# 5 0.000000 0.000000 0.000000 0.000000 0.068739 0.000000
# 6 0.000000 0.000000 0.000000 0.000000 0.000000 0.175549
#
#
# Mechanical properties :
#
#
# Convention : Reuss Voigt Hill
#
# Bulk Modulus (GPa) = 34.30545 53.80541 44.05543
# Shear Modulus (GPa) = 16.00441 46.87554 31.43997
#
# Velocity S-wave (km/s) = 2.84275 4.86510 3.98437
# Velocity P-wave (km/s) = 5.30067 7.66337 6.58879
#
# Compressibility (1/GPa) = 0.02914989
#
# Stress axis : x y z
#
# Youngs Moduli (GPa) = 69.10077 55.58871 136.75421
#
# Poissons Ratio (x) = -0.03163 0.73870
# Poissons Ratio (y) = -0.03932 0.06551
# Poissons Ratio (z) = 0.37326 0.02663
#
# Static dielectric constant tensor:
#      x y z
#    x 1.656070 0.000000 0.000000 
#    y 0.000000 1.765280 0.000000 
#    z 0.000000 0.000000 1.813030 
# 
# From -- ./inp_files/75740.got.cif
#   From: 2010.05.17/outbox.cif.g08.bks.cpg/sg65_38_cif.got.tgz:75740.got - 2010.06.03 17:01:31.
