data_PCOD9484825
_publ_section_title
;
Structure prediction by ZEFSAII (Michael W. Deem and Ramdas Pophale) SiO2 
 PCOD9484825
Probable space group: C M M M
;
_chemical_formula_sum "Si O2"
_cell_formula_units_Z 72
_cell_length_a 14.636250
_cell_length_b 8.105869
_cell_length_c 26.680267
_cell_angle_alpha 90.000000
_cell_angle_beta 90.000000
_cell_angle_gamma 90.000000
_cell_volume 3165.334208
_symmetry_space_group_name_H-M "C M M M"
_symmetry_group_IT_number 65
_symmetry_cell_setting 'orthorhombic'
loop_
_space_group_symop_operation_xyz
x,y,z
-x,-y,z
x,-y,-z
-x,y,-z
-x,-y,-z
x,y,-z
-x,y,z
x,-y,z
1/2+x,1/2+y,z
1/2-x,1/2-y,z
1/2+x,1/2-y,-z
1/2-x,1/2+y,-z
1/2-x,1/2-y,-z
1/2+x,1/2+y,-z
1/2-x,1/2+y,z
1/2+x,1/2-y,z
loop_
_atom_site_type_symbol
_atom_site_label
_atom_site_fract_x
_atom_site_fract_y
_atom_site_fract_z
Si Si1 0.355236 0.695494 0.768268
Si Si2 0.106044 0.187471 0.880484
Si Si3 0.143476 0.696296 0.338246
Si Si4 0.857008 0.300112 0.554000
Si Si5 0.612235 0.000000 0.941804
O O1 0.361614 0.500000 0.767021
O O2 0.250000 0.750000 0.768682
O O3 0.392425 0.745769 0.822427
O O4 0.396060 0.753979 0.715481
O O5 0.145481 0.333786 0.914195
O O6 0.000000 0.172417 0.895027
O O7 0.145137 0.000000 0.883623
O O8 0.139704 0.500000 0.339918
O O9 0.250000 0.750000 0.337262
O O10 0.106221 0.758568 0.391963
O O11 0.894049 0.241909 0.500000
O O12 0.864059 0.500000 0.553785
O O13 0.750000 0.250000 0.554094
O O14 0.500000 0.000000 0.938706
O O15 0.637175 0.000000 0.000000
#
# Coordination Sequence:
#
# PCOD9484825 Si02
#       5
#    16  16  16  16   8
#     4  10  19  29  45  67  91 124 155 189 231 275
#     4   9  19  34  51  74 100 126 157 193 231 273
#     4   9  15  22  34  52  78 108 144 185 222 269
#     4   8  13  20  29  43  66 100 138 176 220 265
#     4   9  18  32  54  80 100 124 154 190 234 272
#
# _framework density 22.746411999999999
#
# number of rings (size 3 to 8) (size 9 to 14) (size 15 to 20)
#    0.000    3.000    0.000    2.667    3.111    1.333 
#    0.000    2.222    0.000    0.667    0.000    0.000 
#    0.000    0.889    0.000   11.111    0.000    5.111 
#
# Total GULP energy -200577.674930 kJ/mol
# GULP energy per Si atom -5571.602081 kJ/mol
# Density = 2.269464 g / cm^3
# Si number density = 22.746412 Si / 1000 Ang^3
#
#
#
# Elastic Constant Matrix: (Units=GPa)
#
#
# Indices 1 2 3 4 5 6 
#
# 1 63.0334 4.5580 7.9198 0.0000 0.0000 0.0000
# 2 4.5580 68.9782 107.2896 0.0000 0.0000 0.0000
# 3 7.9198 107.2896 244.5010 0.0000 0.0000 0.0000
# 4 0.0000 0.0000 0.0000 22.5377 0.0000 0.0000
# 5 0.0000 0.0000 0.0000 0.0000 20.0483 0.0000
# 6 0.0000 0.0000 0.0000 0.0000 0.0000 -1.6941
#
#
#
# Elastic Compliance Matrix: (Units=1/GPa)
#
#
# Indices 1 2 3 4 5 6 
#
# 1 0.015943 -0.000788 -0.000171 0.000000 0.000000 0.000000
# 2 -0.000788 0.045704 -0.020030 0.000000 0.000000 0.000000
# 3 -0.000171 -0.020030 0.012885 0.000000 0.000000 0.000000
# 4 0.000000 0.000000 0.000000 0.044370 0.000000 0.000000
# 5 0.000000 0.000000 0.000000 0.000000 0.049879 0.000000
# 6 0.000000 0.000000 0.000000 0.000000 0.000000 -0.590268
#
#
# Mechanical properties :
#
#
# Convention : Reuss Voigt Hill
#
# Bulk Modulus (GPa) = 30.71755 68.44973 49.58364
# Shear Modulus (GPa) = -13.56275 25.29471 5.86598
#
# Velocity S-wave (km/s) = -2.44449 3.33833 1.60763
# Velocity P-wave (km/s) = 2.35930 6.70948 5.02909
#
# Compressibility (1/GPa) = 0.03255467
#
# Stress axis : x y z
#
# Youngs Moduli (GPa) = 62.72331 21.87972 77.61036
#
# Poissons Ratio (x) = 0.01725 0.01323
# Poissons Ratio (y) = 0.04944 1.55454
# Poissons Ratio (z) = 0.01070 0.43825
#
# Static dielectric constant tensor:
#      x y z
#    x 2.243880 0.000000 0.000000 
#    y 0.000000 1.815110 0.000000 
#    z 0.000000 0.000000 1.910760 
# 
# From -- ./inp_files/70730.got.cif
#   From: 2010.05.17/outbox.cif.g08.bks.cpg/sg65_36_cif.got.tgz:70730.got - 2010.06.03 17:01:31.
