data_PCOD9484319
_publ_section_title
;
Structure prediction by ZEFSAII (Michael W. Deem and Ramdas Pophale) SiO2 
 PCOD9484319
Probable space group: C M M M
;
_chemical_formula_sum "Si O2"
_cell_formula_units_Z 72
_cell_length_a 14.254746
_cell_length_b 18.556782
_cell_length_c 15.517399
_cell_angle_alpha 90.000000
_cell_angle_beta 90.000000
_cell_angle_gamma 90.000000
_cell_volume 4104.696739
_symmetry_space_group_name_H-M "C M M M"
_symmetry_group_IT_number 65
_symmetry_cell_setting 'orthorhombic'
loop_
_space_group_symop_operation_xyz
x,y,z
-x,-y,z
x,-y,-z
-x,y,-z
-x,-y,-z
x,y,-z
-x,y,z
x,-y,z
1/2+x,1/2+y,z
1/2-x,1/2-y,z
1/2+x,1/2-y,-z
1/2-x,1/2+y,-z
1/2-x,1/2-y,-z
1/2+x,1/2+y,-z
1/2-x,1/2+y,z
1/2+x,1/2-y,z
loop_
_atom_site_type_symbol
_atom_site_label
_atom_site_fract_x
_atom_site_fract_y
_atom_site_fract_z
Si Si1 0.203506 0.137987 0.674685
Si Si2 0.639131 0.737347 0.905346
Si Si3 0.391268 0.421266 0.837531
Si Si4 0.393818 0.790058 0.281338
Si Si5 0.109007 0.085853 0.500000
O O1 0.172018 0.087184 0.753019
O O2 0.313953 0.155129 0.685774
O O3 0.146397 0.212442 0.689860
O O4 0.167057 0.109617 0.583926
O O5 0.750000 0.750000 0.903384
O O6 0.622390 0.651718 0.891934
O O7 0.603537 0.781539 0.822814
O O8 0.604590 0.758622 0.000000
O O9 0.500000 0.419824 0.809779
O O10 0.374455 0.500000 0.878970
O O11 0.500000 0.802937 0.311783
O O12 0.000000 0.113231 0.500000
O O13 0.103147 0.000000 0.500000
#
# Coordination Sequence:
#
# PCOD9484319 Si02
#       5
#    16  16  16  16   8
#     4  10  19  35  51  78 109 140 172 224 267 319
#     4  10  18  32  52  78 110 144 182 226 273 320
#     4  10  19  32  52  77 108 143 177 220 279 335
#     4  10  19  33  54  78 105 145 184 218 267 321
#     4  11  22  35  57  83 105 135 171 210 268 335
#
# _framework density 17.540883000000001
#
# number of rings (size 3 to 8) (size 9 to 14) (size 15 to 20)
#    0.000    1.889    4.444    4.667    0.000    5.778 
#    0.000    2.778    0.000    3.333    0.000    0.000 
#    0.000    3.556    0.000    0.000    0.000    0.000 
#
# Total GULP energy -200542.158167 kJ/mol
# GULP energy per Si atom -5570.615505 kJ/mol
# Density = 1.750096 g / cm^3
# Si number density = 17.540883 Si / 1000 Ang^3
#
#
#
# Elastic Constant Matrix: (Units=GPa)
#
#
# Indices 1 2 3 4 5 6 
#
# 1 167.7205 38.8515 32.1499 0.0000 0.0000 0.0000
# 2 38.8515 52.4753 7.2986 0.0000 0.0000 0.0000
# 3 32.1499 7.2986 91.3486 0.0000 0.0000 0.0000
# 4 0.0000 0.0000 0.0000 4.9431 0.0000 0.0000
# 5 0.0000 0.0000 0.0000 0.0000 3.3503 0.0000
# 6 0.0000 0.0000 0.0000 0.0000 0.0000 21.6683
#
#
#
# Elastic Compliance Matrix: (Units=1/GPa)
#
#
# Indices 1 2 3 4 5 6 
#
# 1 0.007631 -0.005336 -0.002260 0.000000 0.000000 0.000000
# 2 -0.005336 0.023002 0.000040 0.000000 0.000000 0.000000
# 3 -0.002260 0.000040 0.011739 0.000000 0.000000 0.000000
# 4 0.000000 0.000000 0.000000 0.202300 0.000000 0.000000
# 5 0.000000 0.000000 0.000000 0.000000 0.298482 0.000000
# 6 0.000000 0.000000 0.000000 0.000000 0.000000 0.046150
#
#
# Mechanical properties :
#
#
# Convention : Reuss Voigt Hill
#
# Bulk Modulus (GPa) = 36.68163 52.01606 44.34885
# Shear Modulus (GPa) = 8.14993 21.54197 14.84595
#
# Velocity S-wave (km/s) = 2.15785 3.50823 2.91239
# Velocity P-wave (km/s) = 5.21209 6.79182 6.05371
#
# Compressibility (1/GPa) = 0.02726160
#
# Stress axis : x y z
#
# Youngs Moduli (GPa) = 131.03668 43.47530 85.18540
#
# Poissons Ratio (x) = 0.23198 0.19248
# Poissons Ratio (y) = 0.69920 -0.00342
# Poissons Ratio (z) = 0.29608 -0.00175
#
# Static dielectric constant tensor:
#      x y z
#    x 1.615700 0.000000 0.000000 
#    y 0.000000 1.614430 0.000000 
#    z 0.000000 0.000000 1.616850 
# 
# From -- ./inp_files/39796.got.cif
#   From: 2010.05.17/outbox.cif.g08.bks.cpg/sg65_20_cif.got.tgz:39796.got - 2010.06.03 17:01:31.
