data_PCOD9484911
_publ_section_title
;
Structure prediction by ZEFSAII (Michael W. Deem and Ramdas Pophale) SiO2 
 PCOD9484911
Probable space group: C M M M
;
_chemical_formula_sum "Si O2"
_cell_formula_units_Z 104
_cell_length_a 26.169694
_cell_length_b 8.861379
_cell_length_c 28.500596
_cell_angle_alpha 90.000000
_cell_angle_beta 90.000000
_cell_angle_gamma 90.000000
_cell_volume 6609.276152
_symmetry_space_group_name_H-M "C M M M"
_symmetry_group_IT_number 65
_symmetry_cell_setting 'orthorhombic'
loop_
_space_group_symop_operation_xyz
x,y,z
-x,-y,z
x,-y,-z
-x,y,-z
-x,-y,-z
x,y,-z
-x,y,z
x,-y,z
1/2+x,1/2+y,z
1/2-x,1/2-y,z
1/2+x,1/2-y,-z
1/2-x,1/2+y,-z
1/2-x,1/2-y,-z
1/2+x,1/2+y,-z
1/2-x,1/2+y,z
1/2+x,1/2-y,z
loop_
_atom_site_type_symbol
_atom_site_label
_atom_site_fract_x
_atom_site_fract_y
_atom_site_fract_z
Si Si1 0.106949 0.319159 0.118517
Si Si2 0.693160 0.818413 0.698236
Si Si3 0.195033 0.819854 0.944973
Si Si4 0.693112 0.681121 0.500000
Si Si5 0.500000 0.673253 0.768736
Si Si6 0.893319 0.681141 0.772142
Si Si7 0.307327 0.318193 0.601732
Si Si8 0.500000 0.325648 0.117306
O O1 0.107421 0.500000 0.115916
O O2 0.151302 0.250133 0.087063
O O3 0.114188 0.274694 0.173342
O O4 0.051846 0.256913 0.102641
O O5 0.750000 0.750000 0.704893
O O6 0.654646 0.775742 0.739968
O O7 0.671127 0.754868 0.649003
O O8 0.697273 0.000000 0.695773
O O9 0.250000 0.750000 0.932741
O O10 0.196628 0.000000 0.939422
O O11 0.185446 0.785970 0.000000
O O12 0.698418 0.500000 0.500000
O O13 0.750000 0.750000 0.500000
O O14 0.669055 0.720812 0.550611
O O15 0.500000 0.500000 0.753871
O O16 0.552926 0.751746 0.754579
O O17 0.500000 0.678569 0.825742
O O18 0.897556 0.500000 0.771076
O O19 0.305381 0.500000 0.606469
O O20 0.250000 0.250000 0.600012
O O21 0.500000 0.500000 0.102540
#
# Coordination Sequence:
#
# PCOD9484911 Si02
#       8
#    16  16  16   8   8  16  16   8
#     4  10  19  33  53  75  97 123 155 190 229 274
#     4  10  19  30  42  60  89 124 155 184 222 266
#     4  10  21  37  55  74  97 125 156 192 232 272
#     4   8  14  22  34  52  74 103 142 183 222 262
#     4   9  17  29  49  72  90 114 152 193 228 263
#     4   9  19  33  48  67  94 125 153 184 226 272
#     4   9  15  24  37  54  78 110 146 184 223 264
#     4   9  17  31  50  74 101 125 150 185 230 275
#
# _framework density 15.735461000000001
#
# number of rings (size 3 to 8) (size 9 to 14) (size 15 to 20)
#    0.000    2.615    0.000    3.231    0.000    5.846 
#    0.000    1.923    0.000    2.308    0.000    0.000 
#    0.000    0.615    0.000    6.923    0.000    3.538 
#
# Total GULP energy -289598.576298 kJ/mol
# GULP energy per Si atom -5569.203390 kJ/mol
# Density = 1.569965 g / cm^3
# Si number density = 15.735461 Si / 1000 Ang^3
#
#
#
# Elastic Constant Matrix: (Units=GPa)
#
#
# Indices 1 2 3 4 5 6 
#
# 1 115.5252 46.4653 78.0386 0.0000 0.0000 0.0000
# 2 46.4653 53.7160 43.7799 0.0000 0.0000 0.0000
# 3 78.0386 43.7799 88.2803 0.0000 0.0000 0.0000
# 4 0.0000 0.0000 0.0000 22.4837 0.0000 0.0000
# 5 0.0000 0.0000 0.0000 0.0000 -2.8275 0.0000
# 6 0.0000 0.0000 0.0000 0.0000 0.0000 26.5952
#
#
#
# Elastic Compliance Matrix: (Units=1/GPa)
#
#
# Indices 1 2 3 4 5 6 
#
# 1 0.022393 -0.005433 -0.017101 0.000000 0.000000 0.000000
# 2 -0.005433 0.032563 -0.011346 0.000000 0.000000 0.000000
# 3 -0.017101 -0.011346 0.032072 0.000000 0.000000 0.000000
# 4 0.000000 0.000000 0.000000 0.044477 0.000000 0.000000
# 5 0.000000 0.000000 0.000000 0.000000 -0.353675 0.000000
# 6 0.000000 0.000000 0.000000 0.000000 0.000000 0.037601
#
#
# Mechanical properties :
#
#
# Convention : Reuss Voigt Hill
#
# Bulk Modulus (GPa) = 51.89998 66.00989 58.95494
# Shear Modulus (GPa) = -45.29530 15.19947 -15.04792
#
# Velocity S-wave (km/s) = -5.37103 3.11133 -3.09577
# Velocity P-wave (km/s) = 2.32585 7.41269 4.97687
#
# Compressibility (1/GPa) = 0.01926783
#
# Stress axis : x y z
#
# Youngs Moduli (GPa) = 44.65633 30.70931 31.18022
#
# Poissons Ratio (x) = 0.16684 0.53322
# Poissons Ratio (y) = 0.24261 0.35378
# Poissons Ratio (z) = 0.76367 0.34844
#
# Static dielectric constant tensor:
#      x y z
#    x 1.494630 0.000000 0.000000 
#    y 0.000000 1.527940 0.000000 
#    z 0.000000 0.000000 1.563220 
# 
# From -- ./inp_files/76084.got.cif
#   From: 2010.05.17/outbox.cif.g08.bks.cpg/sg65_39_cif.got.tgz:76084.got - 2010.06.03 17:01:31.
