data_PCOD9484776
_publ_section_title
;
Structure prediction by ZEFSAII (Michael W. Deem and Ramdas Pophale) SiO2 
 PCOD9484776
Probable space group: C M M M
;
_chemical_formula_sum "Si O2"
_cell_formula_units_Z 88
_cell_length_a 19.179628
_cell_length_b 8.381609
_cell_length_c 29.639999
_cell_angle_alpha 90.000000
_cell_angle_beta 90.000000
_cell_angle_gamma 90.000000
_cell_volume 4764.811908
_symmetry_space_group_name_H-M "C M M M"
_symmetry_group_IT_number 65
_symmetry_cell_setting 'orthorhombic'
loop_
_space_group_symop_operation_xyz
x,y,z
-x,-y,z
x,-y,-z
-x,y,-z
-x,-y,-z
x,y,-z
-x,y,z
x,-y,z
1/2+x,1/2+y,z
1/2-x,1/2-y,z
1/2+x,1/2-y,-z
1/2-x,1/2+y,-z
1/2-x,1/2-y,-z
1/2+x,1/2+y,-z
1/2-x,1/2+y,z
1/2+x,1/2-y,z
loop_
_atom_site_type_symbol
_atom_site_label
_atom_site_fract_x
_atom_site_fract_y
_atom_site_fract_z
Si Si1 0.580901 0.304544 0.085695
Si Si2 0.580419 0.306795 0.282363
Si Si3 0.915183 0.184606 0.184107
Si Si4 0.671233 0.188826 0.365754
Si Si5 0.580420 0.307257 0.551415
Si Si6 0.329065 0.306997 0.000000
O O1 0.500000 0.259055 0.078243
O O2 0.581504 0.500000 0.087148
O O3 0.604491 0.245962 0.135381
O O4 0.629560 0.253251 0.044727
O O5 0.500000 0.255832 0.290038
O O6 0.579626 0.500000 0.280146
O O7 0.604440 0.245821 0.232828
O O8 0.629152 0.255682 0.322948
O O9 0.000000 0.182462 0.184125
O O10 0.891651 0.000000 0.184023
O O11 0.750000 0.250000 0.366001
O O12 0.631526 0.240616 0.411150
O O13 0.671610 0.000000 0.362872
O O14 0.597624 0.258878 0.500000
O O15 0.500000 0.260054 0.560527
O O16 0.582779 0.500000 0.553105
O O17 0.250000 0.250000 0.000000
O O18 0.330162 0.500000 0.000000
#
# Coordination Sequence:
#
# PCOD9484776 Si02
#       6
#    16  16  16  16  16   8
#     4   8  13  24  45  71  93 117 159 207 242 279
#     4   9  17  32  55  79 103 132 165 204 253 307
#     4   7  11  22  44  73  98 120 153 200 248 291
#     4  12  25  38  53  75 106 142 177 214 254 297
#     4   9  19  38  63  87 110 137 169 206 250 301
#     4  10  19  29  43  65  95 128 158 196 244 292
#
# _framework density 18.468726
#
# number of rings (size 3 to 8) (size 9 to 14) (size 15 to 20)
#    0.000    2.909    0.000    5.182    0.000    4.727 
#    0.000    1.818    0.000    4.364    0.000    2.545 
#    0.000    0.000    0.000    0.000    0.000    0.000 
#
# Total GULP energy -245207.913491 kJ/mol
# GULP energy per Si atom -5572.907125 kJ/mol
# Density = 1.842669 g / cm^3
# Si number density = 18.468726 Si / 1000 Ang^3
#
#
#
# Elastic Constant Matrix: (Units=GPa)
#
#
# Indices 1 2 3 4 5 6 
#
# 1 111.8507 19.8601 115.7754 0.0000 0.0000 0.0000
# 2 19.8601 18.7284 28.9827 0.0000 0.0000 0.0000
# 3 115.7754 28.9827 209.9028 0.0000 0.0000 0.0000
# 4 0.0000 0.0000 0.0000 2.3054 0.0000 0.0000
# 5 0.0000 0.0000 0.0000 0.0000 -6.9166 0.0000
# 6 0.0000 0.0000 0.0000 0.0000 0.0000 24.2888
#
#
#
# Elastic Compliance Matrix: (Units=1/GPa)
#
#
# Indices 1 2 3 4 5 6 
#
# 1 0.021289 -0.005600 -0.010969 0.000000 0.000000 0.000000
# 2 -0.005600 0.069378 -0.006490 0.000000 0.000000 0.000000
# 3 -0.010969 -0.006490 0.011710 0.000000 0.000000 0.000000
# 4 0.000000 0.000000 0.000000 0.433756 0.000000 0.000000
# 5 0.000000 0.000000 0.000000 0.000000 -0.144580 0.000000
# 6 0.000000 0.000000 0.000000 0.000000 0.000000 0.041171
#
#
# Mechanical properties :
#
#
# Convention : Reuss Voigt Hill
#
# Bulk Modulus (GPa) = 17.77542 74.41313 46.09428
# Shear Modulus (GPa) = 10.04831 15.65978 12.85404
#
# Velocity S-wave (km/s) = 2.33507 2.91504 2.64102
# Velocity P-wave (km/s) = 4.11285 7.19089 5.85766
#
# Compressibility (1/GPa) = 0.05625746
#
# Stress axis : x y z
#
# Youngs Moduli (GPa) = 46.97369 14.41380 85.39504
#
# Poissons Ratio (x) = 0.08072 0.93668
# Poissons Ratio (y) = 0.26307 0.55425
# Poissons Ratio (z) = 0.51524 0.09355
#
# Static dielectric constant tensor:
#      x y z
#    x 1.555220 0.000000 0.000000 
#    y 0.000000 1.648180 0.000000 
#    z 0.000000 0.000000 1.676730 
# 
# From -- ./inp_files/77807.got.cif
#   From: 2010.05.17/outbox.cif.g08.bks.cpg/sg65_39_cif.got.tgz:77807.got - 2010.06.03 17:01:31.
