data_PCOD9484528
_publ_section_title
;
Structure prediction by ZEFSAII (Michael W. Deem and Ramdas Pophale) SiO2 
 PCOD9484528
Probable space group: C M M M
;
_chemical_formula_sum "Si O2"
_cell_formula_units_Z 88
_cell_length_a 18.974868
_cell_length_b 22.613528
_cell_length_c 12.232353
_cell_angle_alpha 90.000000
_cell_angle_beta 90.000000
_cell_angle_gamma 90.000000
_cell_volume 5248.764555
_symmetry_space_group_name_H-M "C M M M"
_symmetry_group_IT_number 65
_symmetry_cell_setting 'orthorhombic'
loop_
_space_group_symop_operation_xyz
x,y,z
-x,-y,z
x,-y,-z
-x,y,-z
-x,-y,-z
x,y,-z
-x,y,z
x,-y,z
1/2+x,1/2+y,z
1/2-x,1/2-y,z
1/2+x,1/2-y,-z
1/2-x,1/2+y,-z
1/2-x,1/2-y,-z
1/2+x,1/2+y,-z
1/2-x,1/2+y,z
1/2+x,1/2-y,z
loop_
_atom_site_type_symbol
_atom_site_label
_atom_site_fract_x
_atom_site_fract_y
_atom_site_fract_z
Si Si1 0.330368 0.068048 0.500000
Si Si2 0.329512 0.274335 0.129931
Si Si3 0.419686 0.840596 0.868970
Si Si4 0.338119 0.604000 0.257114
Si Si5 0.172943 0.570843 0.738022
Si Si6 0.084350 0.000000 0.128759
Si Si7 0.340385 0.431191 0.500000
O O1 0.350692 0.093212 0.382791
O O2 0.245085 0.067263 0.500000
O O3 0.354361 0.000000 0.500000
O O4 0.250000 0.250000 0.145295
O O5 0.382364 0.221320 0.159215
O O6 0.343055 0.331583 0.203492
O O7 0.337222 0.288495 0.000000
O O8 0.500000 0.843506 0.829298
O O9 0.372859 0.893974 0.824370
O O10 0.420294 0.843546 0.000000
O O11 0.255849 0.584717 0.249825
O O12 0.383089 0.557116 0.188100
O O13 0.359972 0.599169 0.385062
O O14 0.164339 0.500000 0.744110
O O15 0.000000 0.000000 0.138625
O O16 0.102603 0.000000 0.000000
O O17 0.363996 0.500000 0.500000
#
# Coordination Sequence:
#
# PCOD9484528 Si02
#       7
#     8  16  16  16  16   8   8
#     4   7  14  28  50  78 108 135 175 220 265 319
#     4  10  20  35  56  80 108 146 193 233 273 333
#     4  10  22  38  54  77 111 147 182 227 284 336
#     4  11  19  36  59  84 111 147 187 230 275 331
#     4  10  18  33  57  84 108 143 184 228 276 330
#     4  11  24  37  53  85 120 145 181 234 287 336
#     4   9  16  32  56  84 114 145 179 225 281 333
#
# _framework density 16.765851000000001
#
# number of rings (size 3 to 8) (size 9 to 14) (size 15 to 20)
#    0.000    2.091    3.636    1.636    0.000    2.182 
#    0.000    5.455    0.000    1.636    0.000    0.000 
#    0.000    0.000    0.000    0.000    0.000    0.000 
#
# Total GULP energy -245228.378015 kJ/mol
# GULP energy per Si atom -5573.372228 kJ/mol
# Density = 1.672769 g / cm^3
# Si number density = 16.765851 Si / 1000 Ang^3
#
#
#
# Elastic Constant Matrix: (Units=GPa)
#
#
# Indices 1 2 3 4 5 6 
#
# 1 72.8844 37.7188 43.1637 0.0000 0.0000 0.0000
# 2 37.7188 111.8624 61.6498 0.0000 0.0000 0.0000
# 3 43.1637 61.6498 91.2501 0.0000 0.0000 0.0000
# 4 0.0000 0.0000 0.0000 18.1557 0.0000 0.0000
# 5 0.0000 0.0000 0.0000 0.0000 13.4328 0.0000
# 6 0.0000 0.0000 0.0000 0.0000 0.0000 19.5627
#
#
#
# Elastic Compliance Matrix: (Units=1/GPa)
#
#
# Indices 1 2 3 4 5 6 
#
# 1 0.019446 -0.002370 -0.007597 0.000000 0.000000 0.000000
# 2 -0.002370 0.014532 -0.008697 0.000000 0.000000 0.000000
# 3 -0.007597 -0.008697 0.020428 0.000000 0.000000 0.000000
# 4 0.000000 0.000000 0.000000 0.055079 0.000000 0.000000
# 5 0.000000 0.000000 0.000000 0.000000 0.074445 0.000000
# 6 0.000000 0.000000 0.000000 0.000000 0.000000 0.051118
#
#
# Mechanical properties :
#
#
# Convention : Reuss Voigt Hill
#
# Bulk Modulus (GPa) = 58.55494 62.34015 60.44754
# Shear Modulus (GPa) = 17.98118 19.12788 18.55453
#
# Velocity S-wave (km/s) = 3.27844 3.38136 3.33030
# Velocity P-wave (km/s) = 7.02366 7.24626 7.13583
#
# Compressibility (1/GPa) = 0.01707798
#
# Stress axis : x y z
#
# Youngs Moduli (GPa) = 51.42402 68.81549 48.95182
#
# Poissons Ratio (x) = 0.16309 0.37190
# Poissons Ratio (y) = 0.12187 0.42572
# Poissons Ratio (z) = 0.39069 0.59847
#
# Static dielectric constant tensor:
#      x y z
#    x 1.554280 0.000000 0.000000 
#    y 0.000000 1.534150 0.000000 
#    z 0.000000 0.000000 1.588170 
# 
# From -- ./inp_files/26858.got.cif
#   From: 2010.05.17/outbox.cif.g08.bks.cpg/sg65_14_cif.got.tgz:26858.got - 2010.06.03 17:01:31.
