data_PCOD9484463
_publ_section_title
;
Structure prediction by ZEFSAII (Michael W. Deem and Ramdas Pophale) SiO2 
 PCOD9484463
Probable space group: C M M M
;
_chemical_formula_sum "Si O2"
_cell_formula_units_Z 104
_cell_length_a 26.345939
_cell_length_b 24.770569
_cell_length_c 8.239935
_cell_angle_alpha 90.000000
_cell_angle_beta 90.000000
_cell_angle_gamma 90.000000
_cell_volume 5377.413716
_symmetry_space_group_name_H-M "C M M M"
_symmetry_group_IT_number 65
_symmetry_cell_setting 'orthorhombic'
loop_
_space_group_symop_operation_xyz
x,y,z
-x,-y,z
x,-y,-z
-x,y,-z
-x,-y,-z
x,y,-z
-x,y,z
x,-y,z
1/2+x,1/2+y,z
1/2-x,1/2-y,z
1/2+x,1/2-y,-z
1/2-x,1/2+y,-z
1/2-x,1/2-y,-z
1/2+x,1/2+y,-z
1/2-x,1/2+y,z
1/2+x,1/2-y,z
loop_
_atom_site_type_symbol
_atom_site_label
_atom_site_fract_x
_atom_site_fract_y
_atom_site_fract_z
Si Si1 0.690028 0.740556 0.681557
Si Si2 0.839042 0.121502 0.196857
Si Si3 0.438336 0.000000 0.316631
Si Si4 0.155025 0.348428 0.814610
Si Si5 0.557463 0.436993 0.802339
Si Si6 0.764257 0.561885 0.802019
Si Si7 0.055985 0.614457 0.693591
O O1 0.669008 0.749901 0.500000
O O2 0.750000 0.750000 0.670968
O O3 0.674149 0.681061 0.738390
O O4 0.674713 0.788017 0.801776
O O5 0.894002 0.098390 0.250573
O O6 0.792160 0.082260 0.244596
O O7 0.839449 0.123589 0.000000
O O8 0.426253 0.056474 0.235680
O O9 0.500000 0.000000 0.328735
O O10 0.416969 0.000000 0.500000
O O11 0.194618 0.393121 0.746320
O O12 0.101228 0.346483 0.727442
O O13 0.146386 0.363463 0.000000
O O14 0.500000 0.420505 0.750898
O O15 0.564589 0.500000 0.756125
O O16 0.557543 0.435576 0.000000
O O17 0.774220 0.500000 0.749350
O O18 0.765321 0.562058 0.000000
O O19 0.051734 0.606951 0.500000
O O20 0.000000 0.628542 0.754995
#
# Coordination Sequence:
#
# PCOD9484463 Si02
#       7
#    16  16   8  16  16  16  16
#     4  11  23  39  57  75 102 140 185 232 276 325
#     4  10  18  32  57  82 108 143 183 224 270 322
#     4   7  12  26  49  73  97 133 175 207 242 299
#     4  11  22  35  55  80 108 139 177 225 273 324
#     4   8  14  26  49  85 122 150 179 217 263 320
#     4   9  18  31  49  78 112 141 170 212 272 334
#     4   9  18  34  54  75 103 139 177 215 258 312
#
# _framework density 19.340150999999999
#
# number of rings (size 3 to 8) (size 9 to 14) (size 15 to 20)
#    0.000    2.538    1.538    2.769    1.077    2.769 
#    0.000    0.769    0.000    8.308    0.000    1.077 
#    0.000    0.000    0.000    0.000    0.000    0.000 
#
# Total GULP energy -289532.585485 kJ/mol
# GULP energy per Si atom -5567.934336 kJ/mol
# Density = 1.929613 g / cm^3
# Si number density = 19.340151 Si / 1000 Ang^3
#
#
#
# Elastic Constant Matrix: (Units=GPa)
#
#
# Indices 1 2 3 4 5 6 
#
# 1 129.1841 58.0278 17.1078 0.0000 0.0000 0.0000
# 2 58.0278 110.6260 7.8392 0.0000 0.0000 0.0000
# 3 17.1078 7.8392 17.8803 0.0000 0.0000 0.0000
# 4 0.0000 0.0000 0.0000 9.0878 0.0000 0.0000
# 5 0.0000 0.0000 0.0000 0.0000 16.2301 0.0000
# 6 0.0000 0.0000 0.0000 0.0000 0.0000 32.1377
#
#
#
# Elastic Compliance Matrix: (Units=1/GPa)
#
#
# Indices 1 2 3 4 5 6 
#
# 1 0.011236 -0.005297 -0.008429 0.000000 0.000000 0.000000
# 2 -0.005297 0.011826 -0.000117 0.000000 0.000000 0.000000
# 3 -0.008429 -0.000117 0.064043 0.000000 0.000000 0.000000
# 4 0.000000 0.000000 0.000000 0.110037 0.000000 0.000000
# 5 0.000000 0.000000 0.000000 0.000000 0.061614 0.000000
# 6 0.000000 0.000000 0.000000 0.000000 0.000000 0.031116
#
#
# Mechanical properties :
#
#
# Convention : Reuss Voigt Hill
#
# Bulk Modulus (GPa) = 16.82907 47.07112 31.95009
# Shear Modulus (GPa) = 14.82077 23.13884 18.97980
#
# Velocity S-wave (km/s) = 2.77125 3.46268 3.13608
# Velocity P-wave (km/s) = 4.35434 6.35439 5.44695
#
# Compressibility (1/GPa) = 0.05942099
#
# Stress axis : x y z
#
# Youngs Moduli (GPa) = 88.99754 84.55913 15.61443
#
# Poissons Ratio (x) = 0.44788 0.13161
# Poissons Ratio (y) = 0.47138 0.00183
# Poissons Ratio (z) = 0.75013 0.00990
#
# Static dielectric constant tensor:
#      x y z
#    x 1.683660 0.000000 0.000000 
#    y 0.000000 1.650330 0.000000 
#    z 0.000000 0.000000 1.713100 
# 
# From -- ./inp_files/16798.got.cif
#   From: 2010.05.17/outbox.cif.g08.bks.cpg/sg65_9_cif.got.tgz:16798.got - 2010.06.03 17:01:31.
