data_PCOD9484454
_publ_section_title
;
Structure prediction by ZEFSAII (Michael W. Deem and Ramdas Pophale) SiO2 
 PCOD9484454
Probable space group: C M M M
;
_chemical_formula_sum "Si O2"
_cell_formula_units_Z 88
_cell_length_a 7.767842
_cell_length_b 29.177787
_cell_length_c 18.898891
_cell_angle_alpha 90.000000
_cell_angle_beta 90.000000
_cell_angle_gamma 90.000000
_cell_volume 4283.404150
_symmetry_space_group_name_H-M "C M M M"
_symmetry_group_IT_number 65
_symmetry_cell_setting 'orthorhombic'
loop_
_space_group_symop_operation_xyz
x,y,z
-x,-y,z
x,-y,-z
-x,y,-z
-x,-y,-z
x,y,-z
-x,y,z
x,-y,z
1/2+x,1/2+y,z
1/2-x,1/2-y,z
1/2+x,1/2-y,-z
1/2-x,1/2+y,-z
1/2-x,1/2-y,-z
1/2+x,1/2+y,-z
1/2-x,1/2+y,z
1/2+x,1/2-y,z
loop_
_atom_site_type_symbol
_atom_site_label
_atom_site_fract_x
_atom_site_fract_y
_atom_site_fract_z
Si Si1 0.289086 0.946841 0.216777
Si Si2 0.704600 0.301194 0.694971
Si Si3 0.705484 0.301363 0.142691
Si Si4 0.211303 0.446696 0.500000
Si Si5 0.796877 0.604423 0.077500
Si Si6 0.795818 0.397073 0.641616
O O1 0.500000 0.944466 0.216452
O O2 0.225918 0.923270 0.144622
O O3 0.227060 0.919815 0.286160
O O4 0.241901 0.000000 0.220354
O O5 0.500000 0.304633 0.698304
O O6 0.750000 0.250000 0.670841
O O7 0.771715 0.306420 0.776047
O O8 0.769433 0.342755 0.647457
O O9 0.500000 0.305974 0.143545
O O10 0.750000 0.250000 0.119078
O O11 0.778135 0.341936 0.095347
O O12 0.261337 0.500000 0.500000
O O13 0.271762 0.420710 0.429364
O O14 0.000000 0.445712 0.500000
O O15 0.000000 0.593765 0.074614
O O16 0.722626 0.594236 0.000000
O O17 0.000000 0.405762 0.641716
#
# Coordination Sequence:
#
# PCOD9484454 Si02
#       6
#    16  16  16   8  16  16
#     4   9  17  30  51  77 103 136 177 218 261 308
#     4  10  20  34  55  82 109 139 178 220 264 317
#     4  10  20  34  54  77 104 137 175 219 266 318
#     4   9  18  32  54  87 118 143 178 223 266 309
#     4  10  20  33  50  75 107 139 175 220 265 312
#     4  10  18  32  56  82 111 143 176 217 263 313
#
# _framework density 20.544407
#
# number of rings (size 3 to 8) (size 9 to 14) (size 15 to 20)
#    0.000    2.273    1.818    1.636    0.000    4.727 
#    0.000    2.727    0.000    4.364    0.000    1.273 
#    0.000    0.000    0.000    0.000    0.000    0.000 
#
# Total GULP energy -245679.931402 kJ/mol
# GULP energy per Si atom -5583.634805 kJ/mol
# Density = 2.049765 g / cm^3
# Si number density = 20.544407 Si / 1000 Ang^3
#
#
#
# Elastic Constant Matrix: (Units=GPa)
#
#
# Indices 1 2 3 4 5 6 
#
# 1 28.7036 -12.1253 10.6415 0.0000 0.0000 0.0000
# 2 -12.1253 135.7196 102.5496 0.0000 0.0000 0.0000
# 3 10.6415 102.5496 172.6643 0.0000 0.0000 0.0000
# 4 0.0000 0.0000 0.0000 16.8267 0.0000 0.0000
# 5 0.0000 0.0000 0.0000 0.0000 1.7044 0.0000
# 6 0.0000 0.0000 0.0000 0.0000 0.0000 15.0014
#
#
#
# Elastic Compliance Matrix: (Units=1/GPa)
#
#
# Indices 1 2 3 4 5 6 
#
# 1 0.042553 0.010492 -0.008854 0.000000 0.000000 0.000000
# 2 0.010492 0.015953 -0.010122 0.000000 0.000000 0.000000
# 3 -0.008854 -0.010122 0.012349 0.000000 0.000000 0.000000
# 4 0.000000 0.000000 0.000000 0.059429 0.000000 0.000000
# 5 0.000000 0.000000 0.000000 0.000000 0.586724 0.000000
# 6 0.000000 0.000000 0.000000 0.000000 0.000000 0.066660
#
#
# Mechanical properties :
#
#
# Convention : Reuss Voigt Hill
#
# Bulk Modulus (GPa) = 18.55710 59.91323 39.23517
# Shear Modulus (GPa) = 6.10799 22.44128 14.27463
#
# Velocity S-wave (km/s) = 1.72613 3.30863 2.63880
# Velocity P-wave (km/s) = 3.60901 6.61983 5.33137
#
# Compressibility (1/GPa) = 0.05388774
#
# Stress axis : x y z
#
# Youngs Moduli (GPa) = 23.49993 62.68222 80.97921
#
# Poissons Ratio (x) = -0.65765 0.71698
# Poissons Ratio (y) = -0.24656 0.81965
# Poissons Ratio (z) = 0.20807 0.63446
#
# Static dielectric constant tensor:
#      x y z
#    x 1.754350 0.000000 0.000000 
#    y 0.000000 1.679480 0.000000 
#    z 0.000000 0.000000 1.743590 
# 
# From -- ./inp_files/50341.got.cif
#   From: 2010.05.17/outbox.cif.g08.bks.cpg/sg65_26_cif.got.tgz:50341.got - 2010.06.03 17:01:31.
