data_PCOD9484478
_publ_section_title
;
Structure prediction by ZEFSAII (Michael W. Deem and Ramdas Pophale) SiO2 
 PCOD9484478
Probable space group: C M M M
;
_chemical_formula_sum "Si O2"
_cell_formula_units_Z 104
_cell_length_a 7.911225
_cell_length_b 34.064288
_cell_length_c 21.613994
_cell_angle_alpha 90.000000
_cell_angle_beta 90.000000
_cell_angle_gamma 90.000000
_cell_volume 5824.760578
_symmetry_space_group_name_H-M "C M M M"
_symmetry_group_IT_number 65
_symmetry_cell_setting 'orthorhombic'
loop_
_space_group_symop_operation_xyz
x,y,z
-x,-y,z
x,-y,-z
-x,y,-z
-x,-y,-z
x,y,-z
-x,y,z
x,-y,z
1/2+x,1/2+y,z
1/2-x,1/2-y,z
1/2+x,1/2-y,-z
1/2-x,1/2+y,-z
1/2-x,1/2-y,-z
1/2+x,1/2+y,-z
1/2-x,1/2+y,z
1/2+x,1/2-y,z
loop_
_atom_site_type_symbol
_atom_site_label
_atom_site_fract_x
_atom_site_fract_y
_atom_site_fract_z
Si Si1 0.200494 0.412219 0.567164
Si Si2 0.797852 0.204553 0.365662
Si Si3 0.702858 0.921024 0.194269
Si Si4 0.703202 0.703877 0.500000
Si Si5 0.204594 0.500000 0.265127
Si Si6 0.702597 0.544524 0.069461
Si Si7 0.195787 0.000000 0.593645
Si Si8 0.299371 0.128333 0.692767
O O1 0.271363 0.398854 0.500000
O O2 0.223946 0.459231 0.571286
O O3 0.271163 0.393245 0.630720
O O4 0.000000 0.404039 0.566356
O O5 0.750000 0.250000 0.357366
O O6 0.732374 0.189946 0.433448
O O7 0.729038 0.174363 0.315937
O O8 0.000000 0.202285 0.366197
O O9 0.500000 0.919095 0.193279
O O10 0.753337 0.961657 0.227229
O O11 0.755449 0.924972 0.123277
O O12 0.767159 0.888079 0.242044
O O13 0.500000 0.699991 0.500000
O O14 0.750000 0.750000 0.500000
O O15 0.284589 0.500000 0.332374
O O16 0.000000 0.500000 0.273136
O O17 0.500000 0.542218 0.067076
O O18 0.765541 0.500000 0.084419
O O19 0.762961 0.554310 0.000000
O O20 0.000000 0.000000 0.575897
O O21 0.500000 0.120066 0.692480
#
# Coordination Sequence:
#
# PCOD9484478 Si02
#       8
#    16  16  16   8   8  16   8  16
#     4  10  21  37  53  66  88 127 167 206 254 304
#     4  10  20  35  53  73  98 127 159 199 251 308
#     4  10  19  32  51  71  96 129 168 211 244 282
#     4   8  16  30  48  70  92 117 148 187 238 296
#     4  10  18  33  50  65  92 129 166 203 244 290
#     4   9  18  31  47  71 104 137 167 202 244 291
#     4  12  23  33  48  68  91 121 164 216 261 296
#     4  10  21  35  51  73  97 124 163 208 252 298
#
# _framework density 17.854811000000002
#
# number of rings (size 3 to 8) (size 9 to 14) (size 15 to 20)
#    0.000    2.154    2.308    1.846    1.077    4.000 
#    0.000    0.769    0.000    0.000    0.000    0.000 
#    0.000    0.615    0.000    2.000    0.000    2.923 
#
# Total GULP energy -290033.335982 kJ/mol
# GULP energy per Si atom -5577.564154 kJ/mol
# Density = 1.781417 g / cm^3
# Si number density = 17.854811 Si / 1000 Ang^3
#
#
#
# Elastic Constant Matrix: (Units=GPa)
#
#
# Indices 1 2 3 4 5 6 
#
# 1 20.7182 -2.5604 11.7792 0.0000 0.0000 0.0000
# 2 -2.5604 73.4700 57.0756 0.0000 0.0000 0.0000
# 3 11.7792 57.0756 157.4329 0.0000 0.0000 0.0000
# 4 0.0000 0.0000 0.0000 22.1336 0.0000 0.0000
# 5 0.0000 0.0000 0.0000 0.0000 10.3485 0.0000
# 6 0.0000 0.0000 0.0000 0.0000 0.0000 12.0865
#
#
#
# Elastic Compliance Matrix: (Units=1/GPa)
#
#
# Indices 1 2 3 4 5 6 
#
# 1 0.052763 0.006829 -0.006423 0.000000 0.000000 0.000000
# 2 0.006829 0.019831 -0.007701 0.000000 0.000000 0.000000
# 3 -0.006423 -0.007701 0.009624 0.000000 0.000000 0.000000
# 4 0.000000 0.000000 0.000000 0.045180 0.000000 0.000000
# 5 0.000000 0.000000 0.000000 0.000000 0.096633 0.000000
# 6 0.000000 0.000000 0.000000 0.000000 0.000000 0.082737
#
#
# Mechanical properties :
#
#
# Convention : Reuss Voigt Hill
#
# Bulk Modulus (GPa) = 14.78677 42.68998 28.73837
# Shear Modulus (GPa) = 14.53907 21.26882 17.90394
#
# Velocity S-wave (km/s) = 2.85668 3.45513 3.17006
# Velocity P-wave (km/s) = 4.37955 6.31496 5.43411
#
# Compressibility (1/GPa) = 0.06762801
#
# Stress axis : x y z
#
# Youngs Moduli (GPa) = 18.95277 50.42556 103.90397
#
# Poissons Ratio (x) = -0.34435 0.66743
# Poissons Ratio (y) = -0.12943 0.80012
# Poissons Ratio (z) = 0.12174 0.38830
#
# Static dielectric constant tensor:
#      x y z
#    x 1.642840 0.000000 0.000000 
#    y 0.000000 1.603130 0.000000 
#    z 0.000000 0.000000 1.654240 
# 
# From -- ./inp_files/60950.got.cif
#   From: 2010.05.17/outbox.cif.g08.bks.cpg/sg65_31_cif.got.tgz:60950.got - 2010.06.03 17:01:31.
