data_PCOD9484946
_publ_section_title
;
Structure prediction by ZEFSAII (Michael W. Deem and Ramdas Pophale) SiO2 
 PCOD9484946
Probable space group: C M M M
;
_chemical_formula_sum "Si O2"
_cell_formula_units_Z 96
_cell_length_a 9.023200
_cell_length_b 25.883322
_cell_length_c 28.194717
_cell_angle_alpha 90.000000
_cell_angle_beta 90.000000
_cell_angle_gamma 90.000000
_cell_volume 6584.887181
_symmetry_space_group_name_H-M "C M M M"
_symmetry_group_IT_number 65
_symmetry_cell_setting 'orthorhombic'
loop_
_space_group_symop_operation_xyz
x,y,z
-x,-y,z
x,-y,-z
-x,y,-z
-x,-y,-z
x,y,-z
-x,y,z
x,-y,z
1/2+x,1/2+y,z
1/2-x,1/2-y,z
1/2+x,1/2-y,-z
1/2-x,1/2+y,-z
1/2-x,1/2-y,-z
1/2+x,1/2+y,-z
1/2-x,1/2+y,z
1/2+x,1/2-y,z
loop_
_atom_site_type_symbol
_atom_site_label
_atom_site_fract_x
_atom_site_fract_y
_atom_site_fract_z
Si Si1 0.822667 0.902202 0.107412
Si Si2 0.827265 0.437199 0.500000
Si Si3 0.175916 0.694504 0.056302
Si Si4 0.672856 0.562773 0.700560
Si Si5 0.674231 0.062299 0.797735
Si Si6 0.824451 0.937753 0.403933
Si Si7 0.673926 0.000000 0.056858
O O1 0.756001 0.849838 0.085998
O O2 0.768281 0.911019 0.161132
O O3 0.000000 0.902809 0.104414
O O4 0.753243 0.949677 0.077776
O O5 0.810103 0.500000 0.500000
O O6 0.754300 0.417938 0.548801
O O7 0.000000 0.425742 0.500000
O O8 0.250000 0.750000 0.065552
O O9 0.000000 0.695710 0.066177
O O10 0.194102 0.683507 0.000000
O O11 0.500000 0.577331 0.706776
O O12 0.675954 0.500000 0.699463
O O13 0.769259 0.578359 0.745662
O O14 0.724967 0.580635 0.648329
O O15 0.500000 0.072854 0.803597
O O16 0.694848 0.000000 0.802000
O O17 0.000000 0.928461 0.407431
O O18 0.803961 0.000000 0.403774
O O19 0.500000 0.000000 0.070937
O O20 0.681561 0.000000 0.000000
#
# Coordination Sequence:
#
# PCOD9484946 Si02
#       7
#    16   8  16  16  16  16   8
#     4  12  23  34  51  72  95 122 151 183 219 264
#     4   9  15  19  25  39  59  81 111 157 204 247
#     4  10  21  38  58  77  97 120 147 181 219 261
#     4   8  14  24  37  51  69  94 129 168 207 253
#     4  10  19  30  44  61  85 114 143 177 218 262
#     4   8  13  21  31  42  58  85 118 156 202 251
#     4  11  23  37  51  69  95 123 149 180 221 266
#
# _framework density 14.578837
#
# number of rings (size 3 to 8) (size 9 to 14) (size 15 to 20)
#    0.000    2.333    0.833    4.500    0.000    6.000 
#    0.000    3.333    0.000    0.000    0.000    0.000 
#    0.000    0.000    0.000    0.000    0.000    0.000 
#
# Total GULP energy -267525.500259 kJ/mol
# GULP energy per Si atom -5573.447922 kJ/mol
# Density = 1.454566 g / cm^3
# Si number density = 14.578837 Si / 1000 Ang^3
#
#
#
# Elastic Constant Matrix: (Units=GPa)
#
#
# Indices 1 2 3 4 5 6 
#
# 1 101.9223 41.1228 75.9789 0.0000 0.0000 0.0000
# 2 41.1228 48.4073 45.4089 0.0000 0.0000 0.0000
# 3 75.9789 45.4089 128.7799 0.0000 0.0000 0.0000
# 4 0.0000 0.0000 0.0000 13.1619 0.0000 0.0000
# 5 0.0000 0.0000 0.0000 0.0000 22.1586 0.0000
# 6 0.0000 0.0000 0.0000 0.0000 0.0000 16.1443
#
#
#
# Elastic Compliance Matrix: (Units=1/GPa)
#
#
# Indices 1 2 3 4 5 6 
#
# 1 0.019703 -0.008717 -0.008551 0.000000 0.000000 0.000000
# 2 -0.008717 0.034724 -0.007101 0.000000 0.000000 0.000000
# 3 -0.008551 -0.007101 0.015314 0.000000 0.000000 0.000000
# 4 0.000000 0.000000 0.000000 0.075977 0.000000 0.000000
# 5 0.000000 0.000000 0.000000 0.000000 0.045129 0.000000
# 6 0.000000 0.000000 0.000000 0.000000 0.000000 0.061941
#
#
# Mechanical properties :
#
#
# Convention : Reuss Voigt Hill
#
# Bulk Modulus (GPa) = 47.61096 67.12561 57.36829
# Shear Modulus (GPa) = 16.20600 18.06621 17.13610
#
# Velocity S-wave (km/s) = 3.33770 3.52406 3.43214
# Velocity P-wave (km/s) = 6.89798 7.91845 7.42576
#
# Compressibility (1/GPa) = 0.02100357
#
# Stress axis : x y z
#
# Youngs Moduli (GPa) = 50.75490 28.79811 65.29921
#
# Poissons Ratio (x) = 0.25102 0.55836
# Poissons Ratio (y) = 0.44241 0.46372
# Poissons Ratio (z) = 0.43399 0.20451
#
# Static dielectric constant tensor:
#      x y z
#    x 1.481370 0.000000 0.000000 
#    y 0.000000 1.444940 0.000000 
#    z 0.000000 0.000000 1.509190 
# 
# From -- ./inp_files/73524.got.cif
#   From: 2010.05.17/outbox.cif.g08.bks.cpg/sg65_37_cif.got.tgz:73524.got - 2010.06.03 17:01:31.
