data_PCOD9484356
_publ_section_title
;
Structure prediction by ZEFSAII (Michael W. Deem and Ramdas Pophale) SiO2 
 PCOD9484356
Probable space group: C M M M
;
_chemical_formula_sum "Si O2"
_cell_formula_units_Z 104
_cell_length_a 22.302670
_cell_length_b 27.853038
_cell_length_c 9.110791
_cell_angle_alpha 90.000000
_cell_angle_beta 90.000000
_cell_angle_gamma 90.000000
_cell_volume 5659.597085
_symmetry_space_group_name_H-M "C M M M"
_symmetry_group_IT_number 65
_symmetry_cell_setting 'orthorhombic'
loop_
_space_group_symop_operation_xyz
x,y,z
-x,-y,z
x,-y,-z
-x,y,-z
-x,-y,-z
x,y,-z
-x,y,z
x,-y,z
1/2+x,1/2+y,z
1/2-x,1/2-y,z
1/2+x,1/2-y,-z
1/2-x,1/2+y,-z
1/2-x,1/2-y,-z
1/2+x,1/2+y,-z
1/2-x,1/2+y,z
1/2+x,1/2-y,z
loop_
_atom_site_type_symbol
_atom_site_label
_atom_site_fract_x
_atom_site_fract_y
_atom_site_fract_z
Si Si1 0.500000 0.443722 0.836507
Si Si2 0.069471 0.687054 0.176478
Si Si3 0.772091 0.944471 0.678485
Si Si4 0.104256 0.107244 0.324808
Si Si5 0.324594 0.129532 0.326723
Si Si6 0.262275 0.693911 0.840167
Si Si7 0.095780 0.797539 0.831818
O O1 0.500000 0.500000 0.852318
O O2 0.558429 0.429372 0.746924
O O3 0.500000 0.421296 0.000000
O O4 0.116158 0.649958 0.248022
O O5 0.083303 0.742928 0.217823
O O6 0.000000 0.676919 0.212850
O O7 0.076443 0.685118 0.000000
O O8 0.772351 0.944703 0.500000
O O9 0.828795 0.910886 0.722885
O O10 0.708959 0.919575 0.722683
O O11 0.778161 0.000000 0.726899
O O12 0.104023 0.106225 0.500000
O O13 0.078098 0.158736 0.271893
O O14 0.335708 0.126803 0.500000
O O15 0.273078 0.168368 0.288633
O O16 0.250000 0.750000 0.836097
O O17 0.333279 0.692423 0.835277
O O18 0.241103 0.674852 0.000000
O O19 0.073118 0.801774 0.000000
#
# Coordination Sequence:
#
# PCOD9484356 Si02
#       7
#     8  16  16  16  16  16  16
#     4  11  25  43  59  77 107 151 203 249 286 331
#     4  10  22  40  59  79 110 156 198 229 276 346
#     4   9  19  36  57  82 113 146 181 228 289 351
#     4  11  22  37  58  85 115 149 191 238 290 339
#     4  11  21  34  56  85 115 143 183 238 289 338
#     4  10  18  32  53  77 109 148 183 215 262 327
#     4  10  20  34  54  80 112 150 187 225 269 330
#
# _framework density 18.375867
#
# number of rings (size 3 to 8) (size 9 to 14) (size 15 to 20)
#    0.000    1.769    3.077    1.615    1.077    2.462 
#    0.000    0.000    0.000    5.077    0.000    3.231 
#    0.000    0.000    0.000    0.000    0.000    0.000 
#
# Total GULP energy -289717.147712 kJ/mol
# GULP energy per Si atom -5571.483610 kJ/mol
# Density = 1.833404 g / cm^3
# Si number density = 18.375867 Si / 1000 Ang^3
#
#
#
# Elastic Constant Matrix: (Units=GPa)
#
#
# Indices 1 2 3 4 5 6 
#
# 1 123.1402 49.4439 30.1599 0.0000 0.0000 0.0000
# 2 49.4439 87.2146 27.6725 0.0000 0.0000 0.0000
# 3 30.1599 27.6725 38.0071 0.0000 0.0000 0.0000
# 4 0.0000 0.0000 0.0000 19.9869 0.0000 0.0000
# 5 0.0000 0.0000 0.0000 0.0000 52.0997 0.0000
# 6 0.0000 0.0000 0.0000 0.0000 0.0000 50.7268
#
#
#
# Elastic Compliance Matrix: (Units=1/GPa)
#
#
# Indices 1 2 3 4 5 6 
#
# 1 0.011371 -0.004660 -0.005630 0.000000 0.000000 0.000000
# 2 -0.004660 0.016820 -0.008549 0.000000 0.000000 0.000000
# 3 -0.005630 -0.008549 0.037003 0.000000 0.000000 0.000000
# 4 0.000000 0.000000 0.000000 0.050033 0.000000 0.000000
# 5 0.000000 0.000000 0.000000 0.000000 0.019194 0.000000
# 6 0.000000 0.000000 0.000000 0.000000 0.000000 0.019713
#
#
# Mechanical properties :
#
#
# Convention : Reuss Voigt Hill
#
# Bulk Modulus (GPa) = 36.34248 51.43494 43.88871
# Shear Modulus (GPa) = 24.87753 33.96837 29.42295
#
# Velocity S-wave (km/s) = 3.68341 4.30412 4.00581
# Velocity P-wave (km/s) = 6.15713 7.26305 6.73283
#
# Compressibility (1/GPa) = 0.02751601
#
# Stress axis : x y z
#
# Youngs Moduli (GPa) = 87.94355 59.45211 27.02482
#
# Poissons Ratio (x) = 0.27704 0.15216
# Poissons Ratio (y) = 0.40981 0.23103
# Poissons Ratio (z) = 0.49515 0.50824
#
# Static dielectric constant tensor:
#      x y z
#    x 1.814190 0.000000 0.000000 
#    y 0.000000 1.722490 0.000000 
#    z 0.000000 0.000000 1.653960 
# 
# From -- ./inp_files/14789.got.cif
#   From: 2010.05.17/outbox.cif.g08.bks.cpg/sg65_8_cif.got.tgz:14789.got - 2010.06.03 17:01:31.
