data_PCOD9484417
_publ_section_title
;
Structure prediction by ZEFSAII (Michael W. Deem and Ramdas Pophale) SiO2 
 PCOD9484417
Probable space group: C M M M
;
_chemical_formula_sum "Si O2"
_cell_formula_units_Z 104
_cell_length_a 21.130337
_cell_length_b 19.663309
_cell_length_c 14.018863
_cell_angle_alpha 90.000000
_cell_angle_beta 90.000000
_cell_angle_gamma 90.000000
_cell_volume 5824.730272
_symmetry_space_group_name_H-M "C M M M"
_symmetry_group_IT_number 65
_symmetry_cell_setting 'orthorhombic'
loop_
_space_group_symop_operation_xyz
x,y,z
-x,-y,z
x,-y,-z
-x,y,-z
-x,-y,-z
x,y,-z
-x,y,z
x,-y,z
1/2+x,1/2+y,z
1/2-x,1/2-y,z
1/2+x,1/2-y,-z
1/2-x,1/2+y,-z
1/2-x,1/2-y,-z
1/2+x,1/2+y,-z
1/2-x,1/2+y,z
1/2+x,1/2-y,z
loop_
_atom_site_type_symbol
_atom_site_label
_atom_site_fract_x
_atom_site_fract_y
_atom_site_fract_z
Si Si1 0.809559 0.299005 0.385719
Si Si2 0.132828 0.923869 0.388082
Si Si3 0.928058 0.350324 0.883847
Si Si4 0.762712 0.578835 0.729583
Si Si5 0.431107 0.285177 0.384564
Si Si6 0.790904 0.316313 0.886658
Si Si7 0.576299 0.000000 0.107487
O O1 0.809311 0.305417 0.500000
O O2 0.750000 0.250000 0.361305
O O3 0.803686 0.372510 0.338784
O O4 0.873345 0.261697 0.353995
O O5 0.152344 0.913845 0.500000
O O6 0.193725 0.919738 0.320426
O O7 0.085535 0.863395 0.363310
O O8 0.105890 0.000000 0.381097
O O9 0.865695 0.306445 0.863264
O O10 0.910269 0.426686 0.847947
O O11 0.000000 0.332507 0.852911
O O12 0.931564 0.354890 0.000000
O O13 0.781992 0.500000 0.737072
O O14 0.764814 0.618933 0.829227
O O15 0.432721 0.280322 0.500000
O O16 0.500000 0.266010 0.347394
O O17 0.750000 0.250000 0.862470
O O18 0.786304 0.327652 0.000000
O O19 0.500000 0.000000 0.098729
O O20 0.604034 0.000000 0.000000
#
# Coordination Sequence:
#
# PCOD9484417 Si02
#       7
#    16  16  16  16  16  16   8
#     4  10  18  32  55  79 106 141 175 212 258 312
#     4   9  17  30  50  79 112 143 178 219 263 315
#     4   8  14  27  49  73  96 125 162 206 261 320
#     4  11  22  34  53  77 103 140 182 222 263 312
#     4   9  17  29  49  79 110 143 180 217 265 316
#     4  10  22  37  53  75 106 140 174 221 277 322
#     4   7  10  18  38  68  94 118 148 186 240 301
#
# _framework density 17.854904000000001
#
# number of rings (size 3 to 8) (size 9 to 14) (size 15 to 20)
#    0.000    2.692    1.538    1.846    1.077    1.538 
#    0.000    2.308    0.000    1.385    0.000    2.154 
#    0.000    0.000    0.000    9.385    0.000    0.154 
#
# Total GULP energy -289666.836544 kJ/mol
# GULP energy per Si atom -5570.516087 kJ/mol
# Density = 1.781427 g / cm^3
# Si number density = 17.854904 Si / 1000 Ang^3
#
#
#
# Elastic Constant Matrix: (Units=GPa)
#
#
# Indices 1 2 3 4 5 6 
#
# 1 132.6578 73.5041 20.2675 0.0000 0.0000 0.0000
# 2 73.5041 131.8157 37.6933 0.0000 0.0000 0.0000
# 3 20.2675 37.6933 73.1639 0.0000 0.0000 0.0000
# 4 0.0000 0.0000 0.0000 21.9833 0.0000 0.0000
# 5 0.0000 0.0000 0.0000 0.0000 -0.5565 0.0000
# 6 0.0000 0.0000 0.0000 0.0000 0.0000 22.7632
#
#
#
# Elastic Compliance Matrix: (Units=1/GPa)
#
#
# Indices 1 2 3 4 5 6 
#
# 1 0.010910 -0.006121 0.000131 0.000000 0.000000 0.000000
# 2 -0.006121 0.012331 -0.004657 0.000000 0.000000 0.000000
# 3 0.000131 -0.004657 0.016031 0.000000 0.000000 0.000000
# 4 0.000000 0.000000 0.000000 0.045489 0.000000 0.000000
# 5 0.000000 0.000000 0.000000 0.000000 -1.796878 0.000000
# 6 0.000000 0.000000 0.000000 0.000000 0.000000 0.043931
#
#
# Mechanical properties :
#
#
# Convention : Reuss Voigt Hill
#
# Bulk Modulus (GPa) = 55.62384 66.72970 61.17677
# Shear Modulus (GPa) = -3.04711 22.58283 9.76786
#
# Velocity S-wave (km/s) = -1.30778 3.56026 2.34149
# Velocity P-wave (km/s) = 5.37964 7.37259 6.45351
#
# Compressibility (1/GPa) = 0.01797790
#
# Stress axis : x y z
#
# Youngs Moduli (GPa) = 91.66080 81.09317 62.37914
#
# Poissons Ratio (x) = 0.49639 -0.00820
# Poissons Ratio (y) = 0.56107 0.29053
# Poissons Ratio (z) = -0.01204 0.37768
#
# Static dielectric constant tensor:
#      x y z
#    x 1.636930 0.000000 0.000000 
#    y 0.000000 1.631320 0.000000 
#    z 0.000000 0.000000 1.630020 
# 
# From -- ./inp_files/44379.got.cif
#   From: 2010.05.17/outbox.cif.g08.bks.cpg/sg65_23_cif.got.tgz:44379.got - 2010.06.03 17:01:31.
