data_PCOD9484862
_publ_section_title
;
Structure prediction by ZEFSAII (Michael W. Deem and Ramdas Pophale) SiO2 
 PCOD9484862
Probable space group: C M M M
;
_chemical_formula_sum "Si O2"
_cell_formula_units_Z 112
_cell_length_a 16.612688
_cell_length_b 15.131596
_cell_length_c 23.306972
_cell_angle_alpha 90.000000
_cell_angle_beta 90.000000
_cell_angle_gamma 90.000000
_cell_volume 5858.824657
_symmetry_space_group_name_H-M "C M M M"
_symmetry_group_IT_number 65
_symmetry_cell_setting 'orthorhombic'
loop_
_space_group_symop_operation_xyz
x,y,z
-x,-y,z
x,-y,-z
-x,y,-z
-x,-y,-z
x,y,-z
-x,y,z
x,-y,z
1/2+x,1/2+y,z
1/2-x,1/2-y,z
1/2+x,1/2-y,-z
1/2-x,1/2+y,-z
1/2-x,1/2-y,-z
1/2+x,1/2+y,-z
1/2-x,1/2+y,z
1/2+x,1/2-y,z
loop_
_atom_site_type_symbol
_atom_site_label
_atom_site_fract_x
_atom_site_fract_y
_atom_site_fract_z
Si Si1 0.907163 0.106202 0.149326
Si Si2 0.764919 0.891847 0.933392
Si Si3 0.382929 0.599331 0.432966
Si Si4 0.413193 0.233377 0.356296
Si Si5 0.225704 0.598785 0.365957
Si Si6 0.087875 0.394077 0.930742
Si Si7 0.680804 0.683338 0.258245
O O1 0.843853 0.137787 0.100952
O O2 0.863750 0.130274 0.208954
O O3 0.000000 0.138413 0.145342
O O4 0.910999 0.000000 0.144785
O O5 0.676373 0.862343 0.910396
O O6 0.763646 0.000000 0.931650
O O7 0.771529 0.866051 0.000000
O O8 0.398964 0.611576 0.500000
O O9 0.409995 0.500000 0.416447
O O10 0.415568 0.678774 0.394965
O O11 0.288317 0.600729 0.418139
O O12 0.500000 0.190154 0.356942
O O13 0.343144 0.169233 0.376637
O O14 0.386693 0.262294 0.292821
O O15 0.194246 0.500000 0.358606
O O16 0.275095 0.626016 0.308271
O O17 0.086649 0.500000 0.920061
O O18 0.000000 0.359245 0.910298
O O19 0.089183 0.383371 0.000000
O O20 0.750000 0.750000 0.236176
#
# Coordination Sequence:
#
# PCOD9484862 Si02
#       7
#    16  16  16  16  16  16  16
#     4  10  19  29  46  73 100 126 158 200 250 301
#     4   8  14  24  38  61  95 129 158 192 239 296
#     4   9  18  33  52  73 100 137 178 214 246 285
#     4  10  20  32  49  75 103 130 162 205 258 311
#     4   9  18  33  53  74  96 128 168 208 252 303
#     4   7   9  15  30  51  75 108 149 187 223 266
#     4   9  18  34  53  69  90 123 165 208 248 294
#
# _framework density 19.116463
#
# number of rings (size 3 to 8) (size 9 to 14) (size 15 to 20)
#    0.000    3.143    0.000    3.429    0.000    2.857 
#    0.000    2.143    0.000    4.714    0.000    7.000 
#    0.000    0.000    0.000    0.000    0.000    0.000 
#
# Total GULP energy -311803.876794 kJ/mol
# GULP energy per Si atom -5567.926371 kJ/mol
# Density = 1.907295 g / cm^3
# Si number density = 19.116463 Si / 1000 Ang^3
#
#
#
# Elastic Constant Matrix: (Units=GPa)
#
#
# Indices 1 2 3 4 5 6 
#
# 1 177.2190 35.2196 52.6673 0.0000 0.0000 0.0000
# 2 35.2196 46.3764 5.7375 0.0000 0.0000 0.0000
# 3 52.6673 5.7375 40.0873 0.0000 0.0000 0.0000
# 4 0.0000 0.0000 0.0000 -17.6781 0.0000 0.0000
# 5 0.0000 0.0000 0.0000 0.0000 12.8681 0.0000
# 6 0.0000 0.0000 0.0000 0.0000 0.0000 -23.8278
#
#
#
# Elastic Compliance Matrix: (Units=1/GPa)
#
#
# Indices 1 2 3 4 5 6 
#
# 1 0.010965 -0.006663 -0.013452 0.000000 0.000000 0.000000
# 2 -0.006663 0.026000 0.005032 0.000000 0.000000 0.000000
# 3 -0.013452 0.005032 0.041898 0.000000 0.000000 0.000000
# 4 0.000000 0.000000 0.000000 -0.056567 0.000000 0.000000
# 5 0.000000 0.000000 0.000000 0.000000 0.077711 0.000000
# 6 0.000000 0.000000 0.000000 0.000000 0.000000 -0.041968
#
#
# Mechanical properties :
#
#
# Convention : Reuss Voigt Hill
#
# Bulk Modulus (GPa) = 20.53454 50.10350 35.31902
# Shear Modulus (GPa) = 47.87611 5.60968 26.74289
#
# Velocity S-wave (km/s) = 5.00987 1.71489 3.74431
# Velocity P-wave (km/s) = 6.65058 5.49433 6.09991
#
# Compressibility (1/GPa) = 0.04869844
#
# Stress axis : x y z
#
# Youngs Moduli (GPa) = 91.20332 38.46170 23.86728
#
# Poissons Ratio (x) = 0.25625 0.32106
# Poissons Ratio (y) = 0.60765 -0.12010
# Poissons Ratio (z) = 1.22684 -0.19355
#
# Static dielectric constant tensor:
#      x y z
#    x 1.705480 0.000000 0.000000 
#    y 0.000000 1.682190 0.000000 
#    z 0.000000 0.000000 1.640480 
# 
# From -- ./inp_files/70010.got.cif
#   From: 2010.05.17/outbox.cif.g08.bks.cpg/sg65_36_cif.got.tgz:70010.got - 2010.06.03 17:01:31.
