data_PCOD9484138
_publ_section_title
;
Structure prediction by ZEFSAII (Michael W. Deem and Ramdas Pophale) SiO2 
 PCOD9484138
Probable space group: C M M M
;
_chemical_formula_sum "Si O2"
_cell_formula_units_Z 88
_cell_length_a 14.843038
_cell_length_b 17.728327
_cell_length_c 17.861240
_cell_angle_alpha 90.000000
_cell_angle_beta 90.000000
_cell_angle_gamma 90.000000
_cell_volume 4700.046548
_symmetry_space_group_name_H-M "C M M M"
_symmetry_group_IT_number 65
_symmetry_cell_setting 'orthorhombic'
loop_
_space_group_symop_operation_xyz
x,y,z
-x,-y,z
x,-y,-z
-x,y,-z
-x,-y,-z
x,y,-z
-x,y,z
x,-y,z
1/2+x,1/2+y,z
1/2-x,1/2-y,z
1/2+x,1/2-y,-z
1/2-x,1/2+y,-z
1/2-x,1/2-y,-z
1/2+x,1/2+y,-z
1/2-x,1/2+y,z
1/2+x,1/2-y,z
loop_
_atom_site_type_symbol
_atom_site_label
_atom_site_fract_x
_atom_site_fract_y
_atom_site_fract_z
Si Si1 0.897462 0.135826 0.804726
Si Si2 0.898376 0.408211 0.413175
Si Si3 0.736155 0.089049 0.286292
Si Si4 0.390748 0.500000 0.914719
Si Si5 0.604470 0.916655 0.144527
Si Si6 0.642834 0.760119 0.918998
O O1 0.826505 0.132061 0.737629
O O2 0.865807 0.073126 0.865922
O O3 0.895954 0.213831 0.849730
O O4 0.000000 0.117927 0.782252
O O5 0.884213 0.387750 0.500000
O O6 0.898445 0.500000 0.409231
O O7 0.819510 0.382696 0.357939
O O8 0.000000 0.384133 0.390973
O O9 0.667853 0.093893 0.216286
O O10 0.758372 0.000000 0.296494
O O11 0.500000 0.500000 0.919012
O O12 0.356376 0.500000 0.000000
O O13 0.500000 0.915095 0.168040
O O14 0.620855 0.847709 0.089489
O O15 0.623027 0.000000 0.112489
O O16 0.750000 0.750000 0.916188
O O17 0.610554 0.731266 0.000000
#
# Coordination Sequence:
#
# PCOD9484138 Si02
#       6
#    16  16  16   8  16  16
#     4  11  21  34  52  75 103 143 190 232 279 328
#     4   8  14  26  48  80 114 145 179 222 273 325
#     4  10  18  31  51  77 111 144 178 225 275 324
#     4   9  18  32  50  72  96 129 182 240 282 315
#     4  10  21  37  57  80 105 138 179 226 287 351
#     4  11  23  39  56  76 105 141 185 237 291 341
#
# _framework density 18.723217999999999
#
# number of rings (size 3 to 8) (size 9 to 14) (size 15 to 20)
#    0.000    2.091    2.727    2.182    0.000    4.727 
#    0.000    0.909    0.000    0.545    0.000    5.091 
#    0.000    2.909    0.000    0.182    0.000    0.000 
#
# Total GULP energy -245562.645710 kJ/mol
# GULP energy per Si atom -5580.969221 kJ/mol
# Density = 1.868060 g / cm^3
# Si number density = 18.723218 Si / 1000 Ang^3
#
#
#
# Elastic Constant Matrix: (Units=GPa)
#
#
# Indices 1 2 3 4 5 6 
#
# 1 127.4967 21.5224 62.4122 0.0000 0.0000 0.0000
# 2 21.5224 59.2264 19.2363 0.0000 0.0000 0.0000
# 3 62.4122 19.2363 88.6794 0.0000 0.0000 0.0000
# 4 0.0000 0.0000 0.0000 14.4591 0.0000 0.0000
# 5 0.0000 0.0000 0.0000 0.0000 54.4206 0.0000
# 6 0.0000 0.0000 0.0000 0.0000 0.0000 18.6164
#
#
#
# Elastic Compliance Matrix: (Units=1/GPa)
#
#
# Indices 1 2 3 4 5 6 
#
# 1 0.012134 -0.001760 -0.008158 0.000000 0.000000 0.000000
# 2 -0.001760 0.018419 -0.002757 0.000000 0.000000 0.000000
# 3 -0.008158 -0.002757 0.017616 0.000000 0.000000 0.000000
# 4 0.000000 0.000000 0.000000 0.069160 0.000000 0.000000
# 5 0.000000 0.000000 0.000000 0.000000 0.018375 0.000000
# 6 0.000000 0.000000 0.000000 0.000000 0.000000 0.053716
#
#
# Mechanical properties :
#
#
# Convention : Reuss Voigt Hill
#
# Bulk Modulus (GPa) = 43.82155 53.52715 48.67435
# Shear Modulus (GPa) = 22.48426 28.98134 25.73280
#
# Velocity S-wave (km/s) = 3.46913 3.93858 3.71128
# Velocity P-wave (km/s) = 6.28508 7.02381 6.66469
#
# Compressibility (1/GPa) = 0.02281982
#
# Stress axis : x y z
#
# Youngs Moduli (GPa) = 82.41337 54.29093 56.76559
#
# Poissons Ratio (x) = 0.09553 0.46310
# Poissons Ratio (y) = 0.14502 0.15651
# Poissons Ratio (z) = 0.67234 0.14968
#
# Static dielectric constant tensor:
#      x y z
#    x 1.667090 0.000000 0.000000 
#    y 0.000000 1.671100 0.000000 
#    z 0.000000 0.000000 1.632590 
# 
# From -- ./inp_files/53023.got.cif
#   From: 2010.05.17/outbox.cif.g08.bks.cpg/sg65_27_cif.got.tgz:53023.got - 2010.06.03 17:01:31.
