data_PCOD9484022
_publ_section_title
;
Structure prediction by ZEFSAII (Michael W. Deem and Ramdas Pophale) SiO2 
 PCOD9484022
Probable space group: C M M M
;
_chemical_formula_sum "Si O2"
_cell_formula_units_Z 88
_cell_length_a 23.551767
_cell_length_b 22.652520
_cell_length_c 7.677247
_cell_angle_alpha 90.000000
_cell_angle_beta 90.000000
_cell_angle_gamma 90.000000
_cell_volume 4095.864040
_symmetry_space_group_name_H-M "C M M M"
_symmetry_group_IT_number 65
_symmetry_cell_setting 'orthorhombic'
loop_
_space_group_symop_operation_xyz
x,y,z
-x,-y,z
x,-y,-z
-x,y,-z
-x,-y,-z
x,y,-z
-x,y,z
x,-y,z
1/2+x,1/2+y,z
1/2-x,1/2-y,z
1/2+x,1/2-y,-z
1/2-x,1/2+y,-z
1/2-x,1/2-y,-z
1/2+x,1/2+y,-z
1/2-x,1/2+y,z
1/2+x,1/2-y,z
loop_
_atom_site_type_symbol
_atom_site_label
_atom_site_fract_x
_atom_site_fract_y
_atom_site_fract_z
Si Si1 0.833408 0.131228 0.704173
Si Si2 0.000000 0.568680 0.787791
Si Si3 0.796253 0.627899 0.288832
Si Si4 0.939357 0.200301 0.703142
Si Si5 0.706356 0.000000 0.710697
Si Si6 0.914353 0.330349 0.203680
Si Si7 0.161095 0.000000 0.201895
O O1 0.827250 0.145665 0.500000
O O2 0.768619 0.136919 0.774220
O O3 0.882250 0.172454 0.781709
O O4 0.854576 0.063364 0.719065
O O5 0.946012 0.609709 0.734096
O O6 0.000000 0.500000 0.726607
O O7 0.000000 0.565383 0.000000
O O8 0.794943 0.629093 0.500000
O O9 0.816932 0.562473 0.230919
O O10 0.846569 0.669241 0.228697
O O11 0.939724 0.182250 0.500000
O O12 0.936214 0.270887 0.709547
O O13 0.000000 0.181616 0.780778
O O14 0.706714 0.000000 0.500000
O O15 0.771032 0.000000 0.773081
O O16 0.927469 0.325646 0.000000
O O17 0.145785 0.000000 0.000000
#
# Coordination Sequence:
#
# PCOD9484022 Si02
#       7
#    16   8  16  16   8  16   8
#     4   9  19  37  59  81 111 149 181 222 279 332
#     4   9  20  38  55  75 109 152 189 220 269 329
#     4   9  18  33  53  79 109 142 182 224 271 327
#     4  10  21  39  62  82 103 140 191 235 274 329
#     4   8  16  32  52  74 110 152 183 219 273 329
#     4  11  22  36  56  80 111 147 184 229 280 330
#     4  10  18  30  53  85 115 142 176 221 267 322
#
# _framework density 21.485088000000001
#
# number of rings (size 3 to 8) (size 9 to 14) (size 15 to 20)
#    0.000    2.455    0.909    2.455    1.273    4.364 
#    0.000    4.091    0.000    4.909    0.000    0.000 
#    0.000    0.000    0.000    0.000    0.000    0.000 
#
# Total GULP energy -245135.678554 kJ/mol
# GULP energy per Si atom -5571.265422 kJ/mol
# Density = 2.143619 g / cm^3
# Si number density = 21.485088 Si / 1000 Ang^3
#
#
#
# Elastic Constant Matrix: (Units=GPa)
#
#
# Indices 1 2 3 4 5 6 
#
# 1 156.8838 59.5596 6.1674 0.0000 0.0000 0.0000
# 2 59.5596 72.8488 -17.4314 0.0000 0.0000 0.0000
# 3 6.1674 -17.4314 39.9666 0.0000 0.0000 0.0000
# 4 0.0000 0.0000 0.0000 -11.9650 0.0000 0.0000
# 5 0.0000 0.0000 0.0000 0.0000 9.6476 0.0000
# 6 0.0000 0.0000 0.0000 0.0000 0.0000 38.3985
#
#
#
# Elastic Compliance Matrix: (Units=1/GPa)
#
#
# Indices 1 2 3 4 5 6 
#
# 1 0.010358 -0.009882 -0.005909 0.000000 0.000000 0.000000
# 2 -0.009882 0.024755 0.012322 0.000000 0.000000 0.000000
# 3 -0.005909 0.012322 0.031307 0.000000 0.000000 0.000000
# 4 0.000000 0.000000 0.000000 -0.083577 0.000000 0.000000
# 5 0.000000 0.000000 0.000000 0.000000 0.103653 0.000000
# 6 0.000000 0.000000 0.000000 0.000000 0.000000 0.026043
#
#
# Mechanical properties :
#
#
# Convention : Reuss Voigt Hill
#
# Bulk Modulus (GPa) = 16.81186 40.69895 28.75540
# Shear Modulus (GPa) = 35.89255 21.97645 28.93450
#
# Velocity S-wave (km/s) = 4.09171 3.20170 3.67376
# Velocity P-wave (km/s) = 5.49223 5.71418 5.60431
#
# Compressibility (1/GPa) = 0.05948183
#
# Stress axis : x y z
#
# Youngs Moduli (GPa) = 96.54163 40.39560 31.94190
#
# Poissons Ratio (x) = 0.39921 0.18873
# Poissons Ratio (y) = 0.95407 -0.39359
# Poissons Ratio (z) = 0.57043 -0.49775
#
# Static dielectric constant tensor:
#      x y z
#    x 1.811440 0.000000 0.000000 
#    y 0.000000 1.804450 0.000000 
#    z 0.000000 0.000000 1.811250 
# 
# From -- ./inp_files/14020.got.cif
#   From: 2010.05.17/outbox.cif.g08.bks.cpg/sg65_8_cif.got.tgz:14020.got - 2010.06.03 17:01:31.
