data_PCOD9484656
_publ_section_title
;
Structure prediction by ZEFSAII (Michael W. Deem and Ramdas Pophale) SiO2 
 PCOD9484656
Probable space group: C M M M
;
_chemical_formula_sum "Si O2"
_cell_formula_units_Z 88
_cell_length_a 20.583898
_cell_length_b 32.970135
_cell_length_c 9.204324
_cell_angle_alpha 90.000000
_cell_angle_beta 90.000000
_cell_angle_gamma 90.000000
_cell_volume 6246.550342
_symmetry_space_group_name_H-M "C M M M"
_symmetry_group_IT_number 65
_symmetry_cell_setting 'orthorhombic'
loop_
_space_group_symop_operation_xyz
x,y,z
-x,-y,z
x,-y,-z
-x,y,-z
-x,-y,-z
x,y,-z
-x,y,z
x,-y,z
1/2+x,1/2+y,z
1/2-x,1/2-y,z
1/2+x,1/2-y,-z
1/2-x,1/2+y,-z
1/2-x,1/2-y,-z
1/2+x,1/2+y,-z
1/2-x,1/2+y,z
1/2+x,1/2-y,z
loop_
_atom_site_type_symbol
_atom_site_label
_atom_site_fract_x
_atom_site_fract_y
_atom_site_fract_z
Si Si1 0.000000 0.549031 0.164695
Si Si2 0.303898 0.118434 0.826296
Si Si3 0.772562 0.815370 0.329910
Si Si4 0.072258 0.674174 0.174032
Si Si5 0.144361 0.258064 0.330610
Si Si6 0.633633 0.048248 0.328131
O O1 0.934732 0.559141 0.250993
O O2 0.000000 0.500000 0.153647
O O3 0.000000 0.565984 0.000000
O O4 0.245267 0.145734 0.765164
O O5 0.370296 0.143052 0.786855
O O6 0.311845 0.075408 0.748231
O O7 0.300893 0.114567 0.000000
O O8 0.781112 0.825940 0.500000
O O9 0.832251 0.786593 0.282501
O O10 0.709007 0.786246 0.322581
O O11 0.091057 0.717772 0.240206
O O12 0.000000 0.661442 0.221155
O O13 0.072815 0.676995 0.000000
O O14 0.125877 0.255846 0.500000
O O15 0.630145 0.056420 0.500000
O O16 0.643714 0.000000 0.308379
#
# Coordination Sequence:
#
# PCOD9484656 Si02
#       6
#     8  16  16  16  16  16
#     4   9  17  29  43  55  67  87 117 153 191 231
#     4  10  19  28  41  58  75  98 128 161 196 233
#     4   8  14  26  41  56  75  94 118 154 192 226
#     4   9  18  29  38  53  78 103 125 155 194 230
#     4   8  14  25  41  57  72  95 123 152 186 225
#     4  10  20  32  43  55  72  95 125 159 197 238
#
# _framework density 14.087775000000001
#
# number of rings (size 3 to 8) (size 9 to 14) (size 15 to 20)
#    0.000    3.000    0.000    2.455    1.273    4.000 
#    0.000    3.636    0.000    0.000    0.000    0.000 
#    0.000    0.000    0.000    0.000    0.000    0.909 
#
# Total GULP energy -244981.725502 kJ/mol
# GULP energy per Si atom -5567.766489 kJ/mol
# Density = 1.405571 g / cm^3
# Si number density = 14.087775 Si / 1000 Ang^3
#
#
#
# Elastic Constant Matrix: (Units=GPa)
#
#
# Indices 1 2 3 4 5 6 
#
# 1 10.4498 11.6546 7.1196 0.0000 0.0000 0.0000
# 2 11.6546 65.8566 40.2352 0.0000 0.0000 0.0000
# 3 7.1196 40.2352 49.5066 0.0000 0.0000 0.0000
# 4 0.0000 0.0000 0.0000 21.4191 0.0000 0.0000
# 5 0.0000 0.0000 0.0000 0.0000 15.7134 0.0000
# 6 0.0000 0.0000 0.0000 0.0000 0.0000 22.2735
#
#
#
# Elastic Compliance Matrix: (Units=1/GPa)
#
#
# Indices 1 2 3 4 5 6 
#
# 1 0.119228 -0.021102 0.000004 0.000000 0.000000 0.000000
# 2 -0.021102 0.033895 -0.024512 0.000000 0.000000 0.000000
# 3 0.000004 -0.024512 0.040121 0.000000 0.000000 0.000000
# 4 0.000000 0.000000 0.000000 0.046687 0.000000 0.000000
# 5 0.000000 0.000000 0.000000 0.000000 0.063640 0.000000
# 6 0.000000 0.000000 0.000000 0.000000 0.000000 0.044896
#
#
# Mechanical properties :
#
#
# Convention : Reuss Voigt Hill
#
# Bulk Modulus (GPa) = 9.80175 27.09241 18.44708
# Shear Modulus (GPa) = 10.55530 16.33479 13.44504
#
# Velocity S-wave (km/s) = 2.74022 3.40884 3.09265
# Velocity P-wave (km/s) = 4.12122 5.89631 5.08679
#
# Compressibility (1/GPa) = 0.10202255
#
# Stress axis : x y z
#
# Youngs Moduli (GPa) = 8.38726 29.50309 24.92489
#
# Poissons Ratio (x) = 0.62258 -0.00010
# Poissons Ratio (y) = 0.17699 0.61097
# Poissons Ratio (z) = -0.00003 0.72319
#
# Static dielectric constant tensor:
#      x y z
#    x 1.456610 0.000000 0.000000 
#    y 0.000000 1.492320 0.000000 
#    z 0.000000 0.000000 1.466870 
# 
# From -- ./inp_files/14930.got.cif
#   From: 2010.05.17/outbox.cif.g08.bks.cpg/sg65_8_cif.got.tgz:14930.got - 2010.06.03 17:01:31.
