data_PCOD9484634
_publ_section_title
;
Structure prediction by ZEFSAII (Michael W. Deem and Ramdas Pophale) SiO2 
 PCOD9484634
Probable space group: C M M M
;
_chemical_formula_sum "Si O2"
_cell_formula_units_Z 88
_cell_length_a 32.478305
_cell_length_b 7.264776
_cell_length_c 14.613463
_cell_angle_alpha 90.000000
_cell_angle_beta 90.000000
_cell_angle_gamma 90.000000
_cell_volume 3448.011679
_symmetry_space_group_name_H-M "C M M M"
_symmetry_group_IT_number 65
_symmetry_cell_setting 'orthorhombic'
loop_
_space_group_symop_operation_xyz
x,y,z
-x,-y,z
x,-y,-z
-x,y,-z
-x,-y,-z
x,y,-z
-x,y,z
x,-y,z
1/2+x,1/2+y,z
1/2-x,1/2-y,z
1/2+x,1/2-y,-z
1/2-x,1/2+y,-z
1/2-x,1/2-y,-z
1/2+x,1/2+y,-z
1/2-x,1/2+y,z
1/2+x,1/2-y,z
loop_
_atom_site_type_symbol
_atom_site_label
_atom_site_fract_x
_atom_site_fract_y
_atom_site_fract_z
Si Si1 0.798169 0.282440 0.000000
Si Si2 0.000000 0.790385 0.340517
Si Si3 0.907843 0.722628 0.900931
Si Si4 0.000000 0.276788 0.131281
Si Si5 0.669896 0.224428 0.800419
Si Si6 0.681124 0.207274 0.604226
Si Si7 0.912835 0.207721 0.607726
O O1 0.750000 0.250000 0.000000
O O2 0.811497 0.216412 0.101824
O O3 0.809228 0.500000 0.000000
O O4 0.000000 0.791795 0.233164
O O5 0.955789 0.704343 0.362437
O O6 0.000000 0.000000 0.379512
O O7 0.908806 0.500000 0.897605
O O8 0.878392 0.776983 0.817330
O O9 0.955127 0.783776 0.902338
O O10 0.889435 0.774250 0.000000
O O11 0.000000 0.500000 0.123146
O O12 0.691010 0.289610 0.705173
O O13 0.671878 0.000000 0.795883
O O14 0.688576 0.285214 0.500000
O O15 0.631459 0.199619 0.616504
O O16 0.698115 0.000000 0.601052
O O17 0.918051 0.191556 0.500000
O O18 0.910184 0.000000 0.646058
#
# Coordination Sequence:
#
# PCOD9484634 Si02
#       7
#     8   8  16   8  16  16  16
#     4  10  20  36  58  81 103 129 163 202 242 284
#     4  10  19  29  39  53  79 120 166 206 249 296
#     4   9  15  25  42  67  94 121 159 203 241 281
#     4  10  19  27  41  65  91 118 155 206 250 282
#     4   9  16  29  50  74 101 133 164 195 239 294
#     4   9  17  29  47  73 101 125 153 193 240 290
#     4   9  17  29  43  59  83 121 168 211 247 286
#
# _framework density 25.521957
#
# number of rings (size 3 to 8) (size 9 to 14) (size 15 to 20)
#    0.000    2.727    0.909    1.636    0.000    4.364 
#    0.000    0.909    0.000    5.455    0.000    0.000 
#    0.000    0.000    0.000    0.000    0.000    0.000 
#
# Total GULP energy -245020.166283 kJ/mol
# GULP energy per Si atom -5568.640143 kJ/mol
# Density = 2.546387 g / cm^3
# Si number density = 25.521957 Si / 1000 Ang^3
#
#
#
# Elastic Constant Matrix: (Units=GPa)
#
#
# Indices 1 2 3 4 5 6 
#
# 1 41.0201 -5.6281 29.2576 0.0000 0.0000 0.0000
# 2 -5.6281 107.8083 10.3858 0.0000 0.0000 0.0000
# 3 29.2576 10.3858 226.8116 0.0000 0.0000 0.0000
# 4 0.0000 0.0000 0.0000 -1.0783 0.0000 0.0000
# 5 0.0000 0.0000 0.0000 0.0000 15.5975 0.0000
# 6 0.0000 0.0000 0.0000 0.0000 0.0000 282.1747
#
#
#
# Elastic Compliance Matrix: (Units=1/GPa)
#
#
# Indices 1 2 3 4 5 6 
#
# 1 0.027179 0.001764 -0.003587 0.000000 0.000000 0.000000
# 2 0.001764 0.009431 -0.000659 0.000000 0.000000 0.000000
# 3 -0.003587 -0.000659 0.004902 0.000000 0.000000 0.000000
# 4 0.000000 0.000000 0.000000 -0.927362 0.000000 0.000000
# 5 0.000000 0.000000 0.000000 0.000000 0.064113 0.000000
# 6 0.000000 0.000000 0.000000 0.000000 0.000000 0.003544
#
#
# Mechanical properties :
#
#
# Convention : Reuss Voigt Hill
#
# Bulk Modulus (GPa) = 27.36114 49.29675 38.32894
# Shear Modulus (GPa) = -6.24183 82.11375 37.93596
#
# Velocity S-wave (km/s) = -1.56556 5.67835 3.85957
# Velocity P-wave (km/s) = 2.73421 7.89613 5.90867
#
# Compressibility (1/GPa) = 0.03654819
#
# Stress axis : x y z
#
# Youngs Moduli (GPa) = 36.79364 106.02927 204.00633
#
# Poissons Ratio (x) = -0.18707 0.73171
# Poissons Ratio (y) = -0.06492 0.13453
# Poissons Ratio (z) = 0.13197 0.06992
#
# Static dielectric constant tensor:
#      x y z
#    x 2.244030 0.000000 0.000000 
#    y 0.000000 1.856170 0.000000 
#    z 0.000000 0.000000 2.023730 
# 
# From -- ./inp_files/47689.got.cif
#   From: 2010.05.17/outbox.cif.g08.bks.cpg/sg65_24_cif.got.tgz:47689.got - 2010.06.03 17:01:31.
