data_PCOD9484047
_publ_section_title
;
Structure prediction by ZEFSAII (Michael W. Deem and Ramdas Pophale) SiO2 
 PCOD9484047
Probable space group: C M M M
;
_chemical_formula_sum "Si O2"
_cell_formula_units_Z 88
_cell_length_a 10.817531
_cell_length_b 14.833958
_cell_length_c 26.067228
_cell_angle_alpha 90.000000
_cell_angle_beta 90.000000
_cell_angle_gamma 90.000000
_cell_volume 4182.924676
_symmetry_space_group_name_H-M "C M M M"
_symmetry_group_IT_number 65
_symmetry_cell_setting 'orthorhombic'
loop_
_space_group_symop_operation_xyz
x,y,z
-x,-y,z
x,-y,-z
-x,y,-z
-x,-y,-z
x,y,-z
-x,y,z
x,-y,z
1/2+x,1/2+y,z
1/2-x,1/2-y,z
1/2+x,1/2-y,-z
1/2-x,1/2+y,-z
1/2-x,1/2-y,-z
1/2+x,1/2+y,-z
1/2-x,1/2+y,z
1/2+x,1/2-y,z
loop_
_atom_site_type_symbol
_atom_site_label
_atom_site_fract_x
_atom_site_fract_y
_atom_site_fract_z
Si Si1 0.500000 0.854104 0.218761
Si Si2 0.500000 0.109216 0.339344
Si Si3 0.254631 0.144556 0.834597
Si Si4 0.500000 0.393190 0.330279
Si Si5 0.742918 0.610205 0.389972
Si Si6 0.500000 0.639836 0.209672
Si Si7 0.857539 0.608818 0.942780
Si Si8 0.643966 0.390023 0.500000
O O1 0.500000 0.862489 0.279936
O O2 0.375429 0.893818 0.193924
O O3 0.500000 0.748402 0.204298
O O4 0.374711 0.139625 0.367661
O O5 0.500000 0.000000 0.339835
O O6 0.250000 0.250000 0.820571
O O7 0.274910 0.137953 0.895341
O O8 0.125368 0.105011 0.816002
O O9 0.500000 0.500000 0.340976
O O10 0.373232 0.358788 0.355525
O O11 0.500000 0.379559 0.269843
O O12 0.744759 0.500000 0.388989
O O13 0.713594 0.637610 0.448212
O O14 0.858716 0.500000 0.942888
O O15 0.000000 0.638643 0.934139
O O16 0.819470 0.638324 0.000000
O O17 0.641072 0.500000 0.500000
O O18 0.500000 0.360956 0.500000
#
# Coordination Sequence:
#
# PCOD9484047 Si02
#       8
#     8   8  16   8  16   8  16   8
#     4  10  20  36  52  70 101 139 174 211 254 307
#     4  10  20  31  46  73 101 126 164 216 260 295
#     4  10  20  35  54  76 104 136 175 217 255 304
#     4  10  18  31  48  69  97 128 164 204 242 299
#     4   9  17  28  45  70  98 126 161 205 252 300
#     4  10  22  34  50  76 103 137 172 207 258 307
#     4   9  18  34  57  82 106 136 176 216 255 307
#     4   9  14  25  45  67  96 132 161 196 252 309
#
# _framework density 21.037911000000001
#
# number of rings (size 3 to 8) (size 9 to 14) (size 15 to 20)
#    0.000    2.455    1.818    1.636    0.000    2.182 
#    0.000    2.273    0.000    1.091    0.000    3.818 
#    0.000    0.000    0.000    0.000    0.000    0.000 
#
# Total GULP energy -245681.750646 kJ/mol
# GULP energy per Si atom -5583.676151 kJ/mol
# Density = 2.099003 g / cm^3
# Si number density = 21.037911 Si / 1000 Ang^3
#
#
#
# Elastic Constant Matrix: (Units=GPa)
#
#
# Indices 1 2 3 4 5 6 
#
# 1 227.1255 13.9362 132.0602 0.0000 0.0000 0.0000
# 2 13.9362 51.7791 -17.6600 0.0000 0.0000 0.0000
# 3 132.0602 -17.6600 177.1751 0.0000 0.0000 0.0000
# 4 0.0000 0.0000 0.0000 30.4244 0.0000 0.0000
# 5 0.0000 0.0000 0.0000 0.0000 -20.7466 0.0000
# 6 0.0000 0.0000 0.0000 0.0000 0.0000 -11.8512
#
#
#
# Elastic Compliance Matrix: (Units=1/GPa)
#
#
# Indices 1 2 3 4 5 6 
#
# 1 0.008771 -0.004752 -0.007011 0.000000 0.000000 0.000000
# 2 -0.004752 0.022567 0.005791 0.000000 0.000000 0.000000
# 3 -0.007011 0.005791 0.011447 0.000000 0.000000 0.000000
# 4 0.000000 0.000000 0.000000 0.032868 0.000000 0.000000
# 5 0.000000 0.000000 0.000000 0.000000 -0.048201 0.000000
# 6 0.000000 0.000000 0.000000 0.000000 0.000000 -0.084380
#
#
# Mechanical properties :
#
#
# Convention : Reuss Voigt Hill
#
# Bulk Modulus (GPa) = 32.42380 79.19475 55.80927
# Shear Modulus (GPa) = -144.08457 21.41487 -61.33485
#
# Velocity S-wave (km/s) = -8.28473 3.19394 -5.40534
# Velocity P-wave (km/s) = 8.72182 7.16430 3.51730
#
# Compressibility (1/GPa) = 0.03084154
#
# Stress axis : x y z
#
# Youngs Moduli (GPa) = 114.01040 44.31243 87.35594
#
# Poissons Ratio (x) = 0.21057 0.61248
# Poissons Ratio (y) = 0.54178 -0.50591
# Poissons Ratio (z) = 0.79937 -0.25663
#
# Static dielectric constant tensor:
#      x y z
#    x 1.762880 0.000000 0.000000 
#    y 0.000000 1.780540 0.000000 
#    z 0.000000 0.000000 1.711130 
# 
# From -- ./inp_files/67732.got.cif
#   From: 2010.05.17/outbox.cif.g08.bks.cpg/sg65_34_cif.got.tgz:67732.got - 2010.06.03 17:01:31.
