data_PCOD9484246
_publ_section_title
;
Structure prediction by ZEFSAII (Michael W. Deem and Ramdas Pophale) SiO2 
 PCOD9484246
Probable space group: C M M M
;
_chemical_formula_sum "Si O2"
_cell_formula_units_Z 96
_cell_length_a 18.854845
_cell_length_b 11.759461
_cell_length_c 20.941491
_cell_angle_alpha 90.000000
_cell_angle_beta 90.000000
_cell_angle_gamma 90.000000
_cell_volume 4643.206323
_symmetry_space_group_name_H-M "C M M M"
_symmetry_group_IT_number 65
_symmetry_cell_setting 'orthorhombic'
loop_
_space_group_symop_operation_xyz
x,y,z
-x,-y,z
x,-y,-z
-x,y,-z
-x,-y,-z
x,y,-z
-x,y,z
x,-y,z
1/2+x,1/2+y,z
1/2-x,1/2-y,z
1/2+x,1/2-y,-z
1/2-x,1/2+y,-z
1/2-x,1/2-y,-z
1/2+x,1/2+y,-z
1/2-x,1/2+y,z
1/2+x,1/2-y,z
loop_
_atom_site_type_symbol
_atom_site_label
_atom_site_fract_x
_atom_site_fract_y
_atom_site_fract_z
Si Si1 0.222726 0.623891 0.393304
Si Si2 0.720858 0.875850 0.761643
Si Si3 0.584465 0.623156 0.312803
Si Si4 0.413911 0.628826 0.072586
Si Si5 0.584352 0.218635 0.191769
Si Si6 0.418116 0.215362 0.572546
O O1 0.254804 0.500000 0.412677
O O2 0.250000 0.750000 0.415504
O O3 0.223006 0.627052 0.315757
O O4 0.141530 0.622188 0.417422
O O5 0.750000 0.750000 0.782276
O O6 0.640299 0.875562 0.787946
O O7 0.752354 0.000000 0.781223
O O8 0.500000 0.612800 0.317229
O O9 0.617650 0.500000 0.311263
O O10 0.596473 0.688796 0.247660
O O11 0.604433 0.690946 0.375592
O O12 0.500000 0.625948 0.072301
O O13 0.390842 0.500000 0.089415
O O14 0.395682 0.722292 0.124966
O O15 0.390848 0.653695 0.000000
O O16 0.500000 0.189118 0.191579
O O17 0.416317 0.257841 0.500000
O O18 0.500000 0.180784 0.585893
#
# Coordination Sequence:
#
# PCOD9484246 Si02
#       6
#    16  16  16  16  16  16
#     4  10  22  41  61  84 113 148 190 235 286 345
#     4  10  22  39  58  84 118 154 190 234 289 344
#     4   9  17  29  47  76 112 147 184 228 278 332
#     4   8  14  25  44  77 121 160 191 228 279 339
#     4  10  18  31  55  86 114 145 189 240 287 335
#     4  10  21  37  56  81 113 148 188 237 289 339
#
# _framework density 20.675369
#
# number of rings (size 3 to 8) (size 9 to 14) (size 15 to 20)
#    0.000    2.500    1.667    1.000    0.000    5.667 
#    0.000    4.167    0.000    1.000    0.000    2.333 
#    0.000    0.000    0.000    0.000    0.000    0.000 
#
# Total GULP energy -267280.629573 kJ/mol
# GULP energy per Si atom -5568.346449 kJ/mol
# Density = 2.062831 g / cm^3
# Si number density = 20.675369 Si / 1000 Ang^3
#
#
#
# Elastic Constant Matrix: (Units=GPa)
#
#
# Indices 1 2 3 4 5 6 
#
# 1 72.8818 38.3608 6.2527 0.0000 0.0000 0.0000
# 2 38.3608 143.6619 28.2553 0.0000 0.0000 0.0000
# 3 6.2527 28.2553 69.2011 0.0000 0.0000 0.0000
# 4 0.0000 0.0000 0.0000 9.7088 0.0000 0.0000
# 5 0.0000 0.0000 0.0000 0.0000 16.8647 0.0000
# 6 0.0000 0.0000 0.0000 0.0000 0.0000 15.9604
#
#
#
# Elastic Compliance Matrix: (Units=1/GPa)
#
#
# Indices 1 2 3 4 5 6 
#
# 1 0.015971 -0.004328 0.000324 0.000000 0.000000 0.000000
# 2 -0.004328 0.008742 -0.003178 0.000000 0.000000 0.000000
# 3 0.000324 -0.003178 0.015719 0.000000 0.000000 0.000000
# 4 0.000000 0.000000 0.000000 0.103000 0.000000 0.000000
# 5 0.000000 0.000000 0.000000 0.000000 0.059295 0.000000
# 6 0.000000 0.000000 0.000000 0.000000 0.000000 0.062655
#
#
# Mechanical properties :
#
#
# Convention : Reuss Voigt Hill
#
# Bulk Modulus (GPa) = 38.36238 47.94246 43.15242
# Shear Modulus (GPa) = 17.33488 22.69852 20.01670
#
# Velocity S-wave (km/s) = 2.89871 3.31698 3.11487
# Velocity P-wave (km/s) = 5.45878 6.15698 5.81836
#
# Compressibility (1/GPa) = 0.02606720
#
# Stress axis : x y z
#
# Youngs Moduli (GPa) = 62.61240 114.39483 63.61722
#
# Poissons Ratio (x) = 0.49515 -0.02063
# Poissons Ratio (y) = 0.27101 0.20219
# Poissons Ratio (z) = -0.02030 0.36357
#
# Static dielectric constant tensor:
#      x y z
#    x 1.820430 0.000000 0.000000 
#    y 0.000000 1.787950 0.000000 
#    z 0.000000 0.000000 1.711820 
# 
# From -- ./inp_files/64586.got.cif
#   From: 2010.05.17/outbox.cif.g08.bks.cpg/sg65_33_cif.got.tgz:64586.got - 2010.06.03 17:01:31.
