data_PCOD9484728
_publ_section_title
;
Structure prediction by ZEFSAII (Michael W. Deem and Ramdas Pophale) SiO2 
 PCOD9484728
Probable space group: C M M M
;
_chemical_formula_sum "Si O2"
_cell_formula_units_Z 104
_cell_length_a 26.759794
_cell_length_b 29.787061
_cell_length_c 7.362795
_cell_angle_alpha 90.000000
_cell_angle_beta 90.000000
_cell_angle_gamma 90.000000
_cell_volume 5868.851618
_symmetry_space_group_name_H-M "C M M M"
_symmetry_group_IT_number 65
_symmetry_cell_setting 'orthorhombic'
loop_
_space_group_symop_operation_xyz
x,y,z
-x,-y,z
x,-y,-z
-x,y,-z
-x,-y,-z
x,y,-z
-x,y,z
x,-y,z
1/2+x,1/2+y,z
1/2-x,1/2-y,z
1/2+x,1/2-y,-z
1/2-x,1/2+y,-z
1/2-x,1/2-y,-z
1/2+x,1/2+y,-z
1/2-x,1/2+y,z
1/2+x,1/2-y,z
loop_
_atom_site_type_symbol
_atom_site_label
_atom_site_fract_x
_atom_site_fract_y
_atom_site_fract_z
Si Si1 0.641955 0.552619 0.284404
Si Si2 0.892169 0.291700 0.794196
Si Si3 0.895190 0.812721 0.721477
Si Si4 0.000000 0.281160 0.777313
Si Si5 0.782786 0.707987 0.789908
Si Si6 0.500000 0.325165 0.293472
Si Si7 0.442724 0.554574 0.000000
Si Si8 0.703881 0.365676 0.281962
O O1 0.633242 0.559677 0.500000
O O2 0.651811 0.500000 0.253569
O O3 0.592267 0.565308 0.173190
O O4 0.688936 0.583730 0.230036
O O5 0.893393 0.237518 0.794328
O O6 0.947376 0.303203 0.718901
O O7 0.837840 0.300786 0.708798
O O8 0.891575 0.309692 0.000000
O O9 0.897069 0.810499 0.500000
O O10 0.845325 0.837985 0.772938
O O11 0.946235 0.835919 0.786838
O O12 0.000000 0.229720 0.707266
O O13 0.000000 0.278799 0.000000
O O14 0.750000 0.750000 0.713078
O O15 0.750694 0.662593 0.786140
O O16 0.792244 0.720828 0.000000
O O17 0.500000 0.342137 0.500000
O O18 0.446638 0.500000 0.000000
O O19 0.500000 0.571642 0.000000
O O20 0.708004 0.364519 0.500000
#
# Coordination Sequence:
#
# PCOD9484728 Si02
#       8
#    16  16  16   8  16   8   8  16
#     4   9  19  36  54  72  96 125 158 199 248 299
#     4   9  16  27  40  57  79 109 144 177 220 261
#     4   9  16  26  39  55  77 104 139 178 218 261
#     4   8  14  24  40  54  72 101 140 180 207 254
#     4  10  19  29  42  61  88 119 147 183 230 275
#     4   8  14  24  36  50  71 100 131 172 215 253
#     4   9  18  34  56  78  97 120 158 203 254 309
#     4  10  20  31  45  65  85 115 153 189 232 281
#
# _framework density 17.720670999999999
#
# number of rings (size 3 to 8) (size 9 to 14) (size 15 to 20)
#    0.000    2.846    1.538    0.000    1.077    1.231 
#    1.385    1.538    0.000    0.000    0.000    0.000 
#    0.000    0.000    0.000    0.692    0.000   15.538 
#
# Total GULP energy -289587.567058 kJ/mol
# GULP energy per Si atom -5568.991674 kJ/mol
# Density = 1.768034 g / cm^3
# Si number density = 17.720671 Si / 1000 Ang^3
#
#
#
# Elastic Constant Matrix: (Units=GPa)
#
#
# Indices 1 2 3 4 5 6 
#
# 1 179.9491 43.7482 15.2979 0.0000 0.0000 0.0000
# 2 43.7482 54.8441 8.6976 0.0000 0.0000 0.0000
# 3 15.2979 8.6976 66.7850 0.0000 0.0000 0.0000
# 4 0.0000 0.0000 0.0000 7.9199 0.0000 0.0000
# 5 0.0000 0.0000 0.0000 0.0000 2.7565 0.0000
# 6 0.0000 0.0000 0.0000 0.0000 0.0000 23.9970
#
#
#
# Elastic Compliance Matrix: (Units=1/GPa)
#
#
# Indices 1 2 3 4 5 6 
#
# 1 0.006945 -0.005399 -0.000888 0.000000 0.000000 0.000000
# 2 -0.005399 0.022816 -0.001735 0.000000 0.000000 0.000000
# 3 -0.000888 -0.001735 0.015403 0.000000 0.000000 0.000000
# 4 0.000000 0.000000 0.000000 0.126265 0.000000 0.000000
# 5 0.000000 0.000000 0.000000 0.000000 0.362777 0.000000
# 6 0.000000 0.000000 0.000000 0.000000 0.000000 0.041672
#
#
# Mechanical properties :
#
#
# Convention : Reuss Voigt Hill
#
# Bulk Modulus (GPa) = 34.34036 48.56283 41.45160
# Shear Modulus (GPa) = 8.31080 22.52365 15.41722
#
# Velocity S-wave (km/s) = 2.16796 3.56903 2.95280
# Velocity P-wave (km/s) = 5.06829 6.66694 5.92181
#
# Compressibility (1/GPa) = 0.02912026
#
# Stress axis : x y z
#
# Youngs Moduli (GPa) = 143.98325 43.82975 64.92387
#
# Poissons Ratio (x) = 0.23665 0.05763
# Poissons Ratio (y) = 0.77741 0.11261
# Poissons Ratio (z) = 0.12782 0.07602
#
# Static dielectric constant tensor:
#      x y z
#    x 1.673020 0.000000 0.000000 
#    y 0.000000 1.591260 0.000000 
#    z 0.000000 0.000000 1.397170 
# 
# From -- ./inp_files/15081.got.cif
#   From: 2010.05.17/outbox.cif.g08.bks.cpg/sg65_8_cif.got.tgz:15081.got - 2010.06.03 17:01:31.
