data_PCOD9484213
_publ_section_title
;
Structure prediction by ZEFSAII (Michael W. Deem and Ramdas Pophale) SiO2 
 PCOD9484213
Probable space group: C M M M
;
_chemical_formula_sum "Si O2"
_cell_formula_units_Z 56
_cell_length_a 19.551425
_cell_length_b 7.642442
_cell_length_c 19.751490
_cell_angle_alpha 90.000000
_cell_angle_beta 90.000000
_cell_angle_gamma 90.000000
_cell_volume 2951.280110
_symmetry_space_group_name_H-M "C M M M"
_symmetry_group_IT_number 65
_symmetry_cell_setting 'orthorhombic'
loop_
_space_group_symop_operation_xyz
x,y,z
-x,-y,z
x,-y,-z
-x,y,-z
-x,-y,-z
x,y,-z
-x,y,z
x,-y,z
1/2+x,1/2+y,z
1/2-x,1/2-y,z
1/2+x,1/2-y,-z
1/2-x,1/2+y,-z
1/2-x,1/2-y,-z
1/2+x,1/2+y,-z
1/2-x,1/2+y,z
1/2+x,1/2-y,z
loop_
_atom_site_type_symbol
_atom_site_label
_atom_site_fract_x
_atom_site_fract_y
_atom_site_fract_z
Si Si1 0.920150 0.000000 0.918870
Si Si2 0.329903 0.198286 0.146652
Si Si3 0.420772 0.713357 0.424948
Si Si4 0.828552 0.790476 0.300822
O O1 0.879687 0.167369 0.890309
O O2 0.000000 0.000000 0.898004
O O3 0.917452 0.000000 0.000000
O O4 0.250000 0.250000 0.137112
O O5 0.343218 0.210577 0.227340
O O6 0.339661 0.000000 0.123429
O O7 0.397156 0.769260 0.500000
O O8 0.500000 0.764152 0.417382
O O9 0.418779 0.500000 0.424575
O O10 0.376018 0.773015 0.361845
O O11 0.750000 0.750000 0.317448
O O12 0.836410 0.000000 0.293591
#
# Coordination Sequence:
#
# PCOD9484213 Si02
#       4
#     8  16  16  16
#     4  11  26  46  66  96 134 164 200 253 308 368
#     4  11  21  41  67  94 125 164 211 256 304 368
#     4   8  15  28  46  71 104 146 197 245 292 353
#     4  10  18  31  53  82 113 150 191 249 302 351
#
# _framework density 18.974817000000002
#
# number of rings (size 3 to 8) (size 9 to 14) (size 15 to 20)
#    0.000    2.143    2.857    3.429    0.000    3.429 
#    0.000    1.429    0.000    5.143    0.000    8.000 
#    0.000    0.000    0.000    0.000    0.000    0.000 
#
# Total GULP energy -156331.506247 kJ/mol
# GULP energy per Si atom -5583.268080 kJ/mol
# Density = 1.893163 g / cm^3
# Si number density = 18.974817 Si / 1000 Ang^3
#
#
#
# Elastic Constant Matrix: (Units=GPa)
#
#
# Indices 1 2 3 4 5 6 
#
# 1 113.1640 49.7223 88.0094 0.0000 0.0000 0.0000
# 2 49.7223 127.0382 35.6840 0.0000 0.0000 0.0000
# 3 88.0094 35.6840 94.4146 0.0000 0.0000 0.0000
# 4 0.0000 0.0000 0.0000 1.4729 0.0000 0.0000
# 5 0.0000 0.0000 0.0000 0.0000 38.6177 0.0000
# 6 0.0000 0.0000 0.0000 0.0000 0.0000 225.6686
#
#
#
# Elastic Compliance Matrix: (Units=1/GPa)
#
#
# Indices 1 2 3 4 5 6 
#
# 1 0.034795 -0.005044 -0.030529 0.000000 0.000000 0.000000
# 2 -0.005044 0.009538 0.001097 0.000000 0.000000 0.000000
# 3 -0.030529 0.001097 0.038635 0.000000 0.000000 0.000000
# 4 0.000000 0.000000 0.000000 0.678935 0.000000 0.000000
# 5 0.000000 0.000000 0.000000 0.000000 0.025895 0.000000
# 6 0.000000 0.000000 0.000000 0.000000 0.000000 0.004431
#
#
# Mechanical properties :
#
#
# Convention : Reuss Voigt Hill
#
# Bulk Modulus (GPa) = 71.34401 75.71648 73.53025
# Shear Modulus (GPa) = 5.77466 63.89859 34.83662
#
# Velocity S-wave (km/s) = 1.74641 5.80935 4.28944
# Velocity P-wave (km/s) = 6.46123 9.21892 7.96040
#
# Compressibility (1/GPa) = 0.01401659
#
# Stress axis : x y z
#
# Youngs Moduli (GPa) = 28.73945 104.84773 25.88353
#
# Poissons Ratio (x) = 0.52881 0.79019
# Poissons Ratio (y) = 0.14495 -0.02839
# Poissons Ratio (z) = 0.87738 -0.11498
#
# Static dielectric constant tensor:
#      x y z
#    x 1.624050 0.000000 0.000000 
#    y 0.000000 1.698910 0.000000 
#    z 0.000000 0.000000 1.644620 
# 
# From -- ./inp_files/63215.got.cif
#   From: 2010.05.17/outbox.cif.g08.bks.cpg/sg65_32_cif.got.tgz:63215.got - 2010.06.03 17:01:31.
