data_PCOD9484390
_publ_section_title
;
Structure prediction by ZEFSAII (Michael W. Deem and Ramdas Pophale) SiO2 
 PCOD9484390
Probable space group: C M M M
;
_chemical_formula_sum "Si O2"
_cell_formula_units_Z 104
_cell_length_a 23.679856
_cell_length_b 14.067759
_cell_length_c 16.565797
_cell_angle_alpha 90.000000
_cell_angle_beta 90.000000
_cell_angle_gamma 90.000000
_cell_volume 5518.439833
_symmetry_space_group_name_H-M "C M M M"
_symmetry_group_IT_number 65
_symmetry_cell_setting 'orthorhombic'
loop_
_space_group_symop_operation_xyz
x,y,z
-x,-y,z
x,-y,-z
-x,y,-z
-x,-y,-z
x,y,-z
-x,y,z
x,-y,z
1/2+x,1/2+y,z
1/2-x,1/2-y,z
1/2+x,1/2-y,-z
1/2-x,1/2+y,-z
1/2-x,1/2-y,-z
1/2+x,1/2+y,-z
1/2-x,1/2+y,z
1/2+x,1/2-y,z
loop_
_atom_site_type_symbol
_atom_site_label
_atom_site_fract_x
_atom_site_fract_y
_atom_site_fract_z
Si Si1 0.933519 0.606340 0.180511
Si Si2 0.065318 0.000000 0.598710
Si Si3 0.729513 0.394245 0.098674
Si Si4 0.874612 0.394730 0.354115
Si Si5 0.751429 0.109351 0.594498
Si Si6 0.132356 0.186578 0.595773
Si Si7 0.840952 0.282201 0.096840
O O1 0.926649 0.500000 0.144412
O O2 0.903119 0.604483 0.267001
O O3 0.900328 0.683841 0.129489
O O4 0.000000 0.624355 0.188892
O O5 0.095502 0.097648 0.626341
O O6 0.066843 0.000000 0.500000
O O7 0.000000 0.000000 0.622812
O O8 0.720347 0.500000 0.128527
O O9 0.791291 0.355522 0.121603
O O10 0.681983 0.319827 0.124954
O O11 0.728827 0.394869 0.000000
O O12 0.887982 0.500000 0.391683
O O13 0.806450 0.389435 0.356063
O O14 0.891355 0.292503 0.391013
O O15 0.737073 0.132447 0.500000
O O16 0.802819 0.173805 0.624801
O O17 0.772493 0.000000 0.594292
O O18 0.136980 0.173056 0.500000
O O19 0.842253 0.281307 0.000000
#
# Coordination Sequence:
#
# PCOD9484390 Si02
#       7
#    16   8  16  16  16  16  16
#     4  10  22  39  54  70 100 142 180 218 266 314
#     4   9  18  32  52  78 104 136 176 216 266 313
#     4   8  14  27  50  81 115 140 157 195 262 323
#     4  10  21  34  50  74 104 142 175 207 265 334
#     4   9  16  30  53  80 109 135 167 217 270 317
#     4  10  18  32  54  79 107 136 175 225 266 308
#     4   9  17  31  55  84 107 134 176 220 261 311
#
# _framework density 18.845907
#
# number of rings (size 3 to 8) (size 9 to 14) (size 15 to 20)
#    0.000    2.692    0.769    2.308    0.000    4.000 
#    5.538    0.769    1.692    1.846    0.000   14.000 
#    0.000    0.000    0.000    0.000    0.000    0.000 
#
# Total GULP energy -289676.324479 kJ/mol
# GULP energy per Si atom -5570.698548 kJ/mol
# Density = 1.880301 g / cm^3
# Si number density = 18.845907 Si / 1000 Ang^3
#
#
#
# Elastic Constant Matrix: (Units=GPa)
#
#
# Indices 1 2 3 4 5 6 
#
# 1 102.4057 68.5047 26.8459 0.0000 0.0000 0.0000
# 2 68.5047 158.9185 17.8594 0.0000 0.0000 0.0000
# 3 26.8459 17.8594 9.3534 0.0000 0.0000 0.0000
# 4 0.0000 0.0000 0.0000 7872.7284 0.0000 0.0000
# 5 0.0000 0.0000 0.0000 0.0000 40.3985 0.0000
# 6 0.0000 0.0000 0.0000 0.0000 0.0000 21.8735
#
#
#
# Elastic Compliance Matrix: (Units=1/GPa)
#
#
# Indices 1 2 3 4 5 6 
#
# 1 0.043534 -0.006015 -0.113467 0.000000 0.000000 0.000000
# 2 -0.006015 0.008843 0.000379 0.000000 0.000000 0.000000
# 3 -0.113467 0.000379 0.431859 0.000000 0.000000 0.000000
# 4 0.000000 0.000000 0.000000 0.000127 0.000000 0.000000
# 5 0.000000 0.000000 0.000000 0.000000 0.024753 0.000000
# 6 0.000000 0.000000 0.000000 0.000000 0.000000 0.045717
#
#
# Mechanical properties :
#
#
# Convention : Reuss Voigt Hill
#
# Bulk Modulus (GPa) = 4.06452 55.23309 29.64880
# Shear Modulus (GPa) = 5.71396 1597.49792 801.60594
#
# Velocity S-wave (km/s) = 1.74314 29.14624 20.64633
# Velocity P-wave (km/s) = 2.49254 34.08874 24.16873
#
# Compressibility (1/GPa) = 0.24603180
#
# Stress axis : x y z
#
# Youngs Moduli (GPa) = 22.97041 113.08769 2.31557
#
# Poissons Ratio (x) = 0.68020 0.26274
# Poissons Ratio (y) = 0.13816 -0.00088
# Poissons Ratio (z) = 2.60638 -0.04288
#
# Static dielectric constant tensor:
#      x y z
#    x 1.635380 0.000000 0.000000 
#    y 0.000000 1.723300 0.000000 
#    z 0.000000 0.000000 1.661020 
# 
# From -- ./inp_files/56808.got.cif
#   From: 2010.05.17/outbox.cif.g08.bks.cpg/sg65_29_cif.got.tgz:56808.got - 2010.06.03 17:01:31.
