data_PCOD9484577
_publ_section_title
;
Structure prediction by ZEFSAII (Michael W. Deem and Ramdas Pophale) SiO2 
 PCOD9484577
Probable space group: C M M M
;
_chemical_formula_sum "Si O2"
_cell_formula_units_Z 88
_cell_length_a 25.789387
_cell_length_b 10.111253
_cell_length_c 18.873099
_cell_angle_alpha 90.000000
_cell_angle_beta 90.000000
_cell_angle_gamma 90.000000
_cell_volume 4921.406229
_symmetry_space_group_name_H-M "C M M M"
_symmetry_group_IT_number 65
_symmetry_cell_setting 'orthorhombic'
loop_
_space_group_symop_operation_xyz
x,y,z
-x,-y,z
x,-y,-z
-x,y,-z
-x,-y,-z
x,y,-z
-x,y,z
x,-y,z
1/2+x,1/2+y,z
1/2-x,1/2-y,z
1/2+x,1/2-y,-z
1/2-x,1/2+y,-z
1/2-x,1/2-y,-z
1/2+x,1/2+y,-z
1/2-x,1/2+y,z
1/2+x,1/2-y,z
loop_
_atom_site_type_symbol
_atom_site_label
_atom_site_fract_x
_atom_site_fract_y
_atom_site_fract_z
Si Si1 0.132415 0.224587 0.083847
Si Si2 0.560196 0.500000 0.415288
Si Si3 0.126779 0.782067 0.336137
Si Si4 0.941266 0.155973 0.204011
Si Si5 0.831298 0.500000 0.318816
Si Si6 0.290455 0.500000 0.306313
Si Si7 0.830725 0.500000 0.853528
Si Si8 0.209006 0.000000 0.136292
O O1 0.082179 0.174367 0.126243
O O2 0.144505 0.369526 0.113345
O O3 0.179639 0.127262 0.105263
O O4 0.125812 0.223436 0.000000
O O5 0.500000 0.500000 0.392154
O O6 0.562160 0.500000 0.500000
O O7 0.588897 0.368581 0.386031
O O8 0.097656 0.780508 0.260346
O O9 0.142769 0.631800 0.350722
O O10 0.178707 0.870344 0.331324
O O11 0.000000 0.205507 0.210039
O O12 0.941009 0.000000 0.220638
O O13 0.769137 0.500000 0.329176
O O14 0.836169 0.500000 0.232226
O O15 0.296029 0.500000 0.221230
O O16 0.770209 0.500000 0.875667
#
# Coordination Sequence:
#
# PCOD9484577 Si02
#       8
#    16   8  16  16   8   8   8   8
#     4  12  23  37  52  76 111 148 191 244 302 355
#     4  10  22  42  69  97 123 157 193 226 279 347
#     4  11  19  37  62  90 122 152 193 236 285 336
#     4  11  21  37  59  81 103 140 197 251 292 339
#     4  11  21  33  60  93 120 152 195 247 290 334
#     4  10  18  34  59  86 119 156 197 240 287 344
#     4  11  23  37  53  77 115 151 188 237 297 355
#     4  11  20  36  55  77 106 145 196 245 290 345
#
# _framework density 17.881067000000002
#
# number of rings (size 3 to 8) (size 9 to 14) (size 15 to 20)
#    0.000    1.000    6.364    2.182    0.000    5.455 
#    0.000    4.545    0.000   10.909    0.000    0.000 
#    0.000    0.000    0.000    0.000    0.000    0.000 
#
# Total GULP energy -245694.349246 kJ/mol
# GULP energy per Si atom -5583.962483 kJ/mol
# Density = 1.784037 g / cm^3
# Si number density = 17.881067 Si / 1000 Ang^3
#
#
#
# Elastic Constant Matrix: (Units=GPa)
#
#
# Indices 1 2 3 4 5 6 
#
# 1 108.4573 54.4277 28.7196 0.0000 0.0000 0.0000
# 2 54.4277 139.9140 25.5676 0.0000 0.0000 0.0000
# 3 28.7196 25.5676 56.5221 0.0000 0.0000 0.0000
# 4 0.0000 0.0000 0.0000 13.9164 0.0000 0.0000
# 5 0.0000 0.0000 0.0000 0.0000 18.2828 0.0000
# 6 0.0000 0.0000 0.0000 0.0000 0.0000 -8.4811
#
#
#
# Elastic Compliance Matrix: (Units=1/GPa)
#
#
# Indices 1 2 3 4 5 6 
#
# 1 0.012424 -0.004011 -0.004499 0.000000 0.000000 0.000000
# 2 -0.004011 0.009086 -0.002072 0.000000 0.000000 0.000000
# 3 -0.004499 -0.002072 0.020915 0.000000 0.000000 0.000000
# 4 0.000000 0.000000 0.000000 0.071858 0.000000 0.000000
# 5 0.000000 0.000000 0.000000 0.000000 0.054696 0.000000
# 6 0.000000 0.000000 0.000000 0.000000 0.000000 -0.117909
#
#
# Mechanical properties :
#
#
# Convention : Reuss Voigt Hill
#
# Bulk Modulus (GPa) = 47.03130 58.03591 52.53361
# Shear Modulus (GPa) = 63.03444 17.82218 40.42831
#
# Velocity S-wave (km/s) = 5.94379 3.16049 4.76011
# Velocity P-wave (km/s) = 8.57112 6.77092 7.72365
#
# Compressibility (1/GPa) = 0.02126244
#
# Stress axis : x y z
#
# Youngs Moduli (GPa) = 80.48695 110.05647 47.81199
#
# Poissons Ratio (x) = 0.44145 0.21509
# Poissons Ratio (y) = 0.32284 0.09907
# Poissons Ratio (z) = 0.36208 0.22804
#
# Static dielectric constant tensor:
#      x y z
#    x 1.620090 0.000000 0.000000 
#    y 0.000000 1.614020 0.000000 
#    z 0.000000 0.000000 1.602640 
# 
# From -- ./inp_files/65297.got.cif
#   From: 2010.05.17/outbox.cif.g08.bks.cpg/sg65_33_cif.got.tgz:65297.got - 2010.06.03 17:01:31.
