data_PCOD9484188
_publ_section_title
;
Structure prediction by ZEFSAII (Michael W. Deem and Ramdas Pophale) SiO2 
 PCOD9484188
Probable space group: C M M M
;
_chemical_formula_sum "Si O2"
_cell_formula_units_Z 64
_cell_length_a 15.603996
_cell_length_b 8.552678
_cell_length_c 24.979554
_cell_angle_alpha 90.000000
_cell_angle_beta 90.000000
_cell_angle_gamma 90.000000
_cell_volume 3333.670192
_symmetry_space_group_name_H-M "C M M M"
_symmetry_group_IT_number 65
_symmetry_cell_setting 'orthorhombic'
loop_
_space_group_symop_operation_xyz
x,y,z
-x,-y,z
x,-y,-z
-x,y,-z
-x,-y,-z
x,y,-z
-x,y,z
x,-y,z
1/2+x,1/2+y,z
1/2-x,1/2-y,z
1/2+x,1/2-y,-z
1/2-x,1/2+y,-z
1/2-x,1/2-y,-z
1/2+x,1/2+y,-z
1/2-x,1/2+y,z
1/2+x,1/2-y,z
loop_
_atom_site_type_symbol
_atom_site_label
_atom_site_fract_x
_atom_site_fract_y
_atom_site_fract_z
Si Si1 0.398786 0.186417 0.500000
Si Si2 0.500000 0.309047 0.313595
Si Si3 0.347296 0.312069 0.113181
Si Si4 0.158934 0.812990 0.385999
Si Si5 0.347632 0.813090 0.000000
Si Si6 0.500000 0.309510 0.190987
O O1 0.500000 0.223867 0.500000
O O2 0.358687 0.254367 0.553928
O O3 0.388248 0.000000 0.500000
O O4 0.500000 0.500000 0.313021
O O5 0.583179 0.258917 0.346897
O O6 0.500000 0.255764 0.252317
O O7 0.343147 0.500000 0.111221
O O8 0.250000 0.250000 0.121038
O O9 0.382570 0.251021 0.056012
O O10 0.414222 0.262754 0.158984
O O11 0.250000 0.750000 0.367475
O O12 0.159597 0.000000 0.386658
O O13 0.250000 0.750000 0.000000
O O14 0.348849 0.000000 0.000000
O O15 0.500000 0.500000 0.191361
#
# Coordination Sequence:
#
# PCOD9484188 Si02
#       6
#     8   8  16  16   8   8
#     4  11  22  37  60  88 120 150 184 231 281 333
#     4   9  20  39  59  80 110 149 190 231 276 331
#     4  10  19  34  56  81 110 143 182 226 274 329
#     4  11  22  38  61  87 116 150 190 230 279 335
#     4  10  18  31  52  79 112 144 178 221 275 333
#     4   9  20  37  57  80 108 147 190 227 272 333
#
# _framework density 19.198060000000002
#
# number of rings (size 3 to 8) (size 9 to 14) (size 15 to 20)
#    0.000    1.875    1.250    4.875    0.000    2.000 
#    0.000    5.000    0.000   10.500    0.000    0.000 
#    0.000    0.000    0.000    0.000    0.000    0.000 
#
# Total GULP energy -178721.772084 kJ/mol
# GULP energy per Si atom -5585.055378 kJ/mol
# Density = 1.915436 g / cm^3
# Si number density = 19.198060 Si / 1000 Ang^3
#
#
#
# Elastic Constant Matrix: (Units=GPa)
#
#
# Indices 1 2 3 4 5 6 
#
# 1 156.5816 36.8908 97.2845 0.0000 0.0000 0.0000
# 2 36.8908 49.3638 21.5905 0.0000 0.0000 0.0000
# 3 97.2845 21.5905 182.0333 0.0000 0.0000 0.0000
# 4 0.0000 0.0000 0.0000 10.0842 0.0000 0.0000
# 5 0.0000 0.0000 0.0000 0.0000 -11.4857 0.0000
# 6 0.0000 0.0000 0.0000 0.0000 0.0000 24.4998
#
#
#
# Elastic Compliance Matrix: (Units=1/GPa)
#
#
# Indices 1 2 3 4 5 6 
#
# 1 0.011006 -0.005962 -0.005175 0.000000 0.000000 0.000000
# 2 -0.005962 0.024596 0.000269 0.000000 0.000000 0.000000
# 3 -0.005175 0.000269 0.008227 0.000000 0.000000 0.000000
# 4 0.000000 0.000000 0.000000 0.099165 0.000000 0.000000
# 5 0.000000 0.000000 0.000000 0.000000 -0.087065 0.000000
# 6 0.000000 0.000000 0.000000 0.000000 0.000000 0.040817
#
#
# Mechanical properties :
#
#
# Convention : Reuss Voigt Hill
#
# Bulk Modulus (GPa) = 45.26236 77.72336 61.49286
# Shear Modulus (GPa) = 39.73097 20.10052 29.91574
#
# Velocity S-wave (km/s) = 4.55414 3.23926 3.95177
# Velocity P-wave (km/s) = 7.16110 7.38670 7.27477
#
# Compressibility (1/GPa) = 0.02209341
#
# Stress axis : x y z
#
# Youngs Moduli (GPa) = 90.85696 40.65772 121.54682
#
# Poissons Ratio (x) = 0.24240 0.62901
# Poissons Ratio (y) = 0.54168 -0.03270
# Poissons Ratio (z) = 0.47019 -0.01094
#
# Static dielectric constant tensor:
#      x y z
#    x 1.661590 0.000000 0.000000 
#    y 0.000000 1.653100 0.000000 
#    z 0.000000 0.000000 1.662180 
# 
# From -- ./inp_files/69563.got.cif
#   From: 2010.05.17/outbox.cif.g08.bks.cpg/sg65_35_cif.got.tgz:69563.got - 2010.06.03 17:01:31.
