data_PCOD9484780
_publ_section_title
;
Structure prediction by ZEFSAII (Michael W. Deem and Ramdas Pophale) SiO2 
 PCOD9484780
Probable space group: C M M M
;
_chemical_formula_sum "Si O2"
_cell_formula_units_Z 104
_cell_length_a 28.230464
_cell_length_b 8.653091
_cell_length_c 27.571172
_cell_angle_alpha 90.000000
_cell_angle_beta 90.000000
_cell_angle_gamma 90.000000
_cell_volume 6735.107235
_symmetry_space_group_name_H-M "C M M M"
_symmetry_group_IT_number 65
_symmetry_cell_setting 'orthorhombic'
loop_
_space_group_symop_operation_xyz
x,y,z
-x,-y,z
x,-y,-z
-x,y,-z
-x,-y,-z
x,y,-z
-x,y,z
x,-y,z
1/2+x,1/2+y,z
1/2-x,1/2-y,z
1/2+x,1/2-y,-z
1/2-x,1/2+y,-z
1/2-x,1/2-y,-z
1/2+x,1/2+y,-z
1/2-x,1/2+y,z
1/2+x,1/2-y,z
loop_
_atom_site_type_symbol
_atom_site_label
_atom_site_fract_x
_atom_site_fract_y
_atom_site_fract_z
Si Si1 0.554587 0.313810 0.945248
Si Si2 0.803406 0.186311 0.500000
Si Si3 0.696498 0.313070 0.393960
Si Si4 0.301706 0.185461 0.796561
Si Si5 0.605540 0.814396 0.852625
Si Si6 0.554121 0.813180 0.753639
Si Si7 0.855191 0.814420 0.296498
O O1 0.500000 0.264558 0.936375
O O2 0.555152 0.500000 0.944609
O O3 0.587844 0.253134 0.902948
O O4 0.567619 0.264093 0.000000
O O5 0.750000 0.250000 0.500000
O O6 0.822919 0.234377 0.447292
O O7 0.802561 0.000000 0.500000
O O8 0.699148 0.500000 0.392985
O O9 0.750000 0.250000 0.388516
O O10 0.664218 0.263958 0.348904
O O11 0.250000 0.250000 0.807234
O O12 0.341589 0.230693 0.835968
O O13 0.320634 0.249192 0.745221
O O14 0.300474 0.000000 0.793959
O O15 0.571394 0.767785 0.807794
O O16 0.603931 0.000000 0.855594
O O17 0.500000 0.765507 0.745226
O O18 0.592512 0.745238 0.716701
O O19 0.556608 0.000000 0.751341
O O20 0.854619 0.000000 0.294340
#
# Coordination Sequence:
#
# PCOD9484780 Si02
#       7
#    16   8  16  16  16  16  16
#     4   9  18  31  46  67  94 119 143 174 213 256
#     4   8  14  26  40  56  81 112 143 175 214 255
#     4   9  17  27  41  61  86 115 145 178 214 255
#     4  10  20  33  47  65  90 119 150 183 218 257
#     4   9  18  31  47  67  89 113 143 178 214 255
#     4   9  18  32  47  64  89 118 146 179 220 262
#     4  10  19  29  43  66  91 116 147 180 217 261
#
# _framework density 15.441477000000001
#
# number of rings (size 3 to 8) (size 9 to 14) (size 15 to 20)
#    0.000    2.769    0.000    3.231    0.000    7.077 
#    0.000    0.769    0.000    0.462    0.000    0.538 
#    0.000    4.308    0.000    0.000    0.000    0.000 
#
# Total GULP energy -289694.976885 kJ/mol
# GULP energy per Si atom -5571.057248 kJ/mol
# Density = 1.540633 g / cm^3
# Si number density = 15.441477 Si / 1000 Ang^3
#
#
#
# Elastic Constant Matrix: (Units=GPa)
#
#
# Indices 1 2 3 4 5 6 
#
# 1 119.6745 28.0311 86.0881 0.0000 0.0000 0.0000
# 2 28.0311 17.6059 29.3317 0.0000 0.0000 0.0000
# 3 86.0881 29.3317 161.5403 0.0000 0.0000 0.0000
# 4 0.0000 0.0000 0.0000 18.2678 0.0000 0.0000
# 5 0.0000 0.0000 0.0000 0.0000 22.9004 0.0000
# 6 0.0000 0.0000 0.0000 0.0000 0.0000 23.6874
#
#
#
# Elastic Compliance Matrix: (Units=1/GPa)
#
#
# Indices 1 2 3 4 5 6 
#
# 1 0.016320 -0.016479 -0.005705 0.000000 0.000000 0.000000
# 2 -0.016479 0.098072 -0.009026 0.000000 0.000000 0.000000
# 3 -0.005705 -0.009026 0.010870 0.000000 0.000000 0.000000
# 4 0.000000 0.000000 0.000000 0.054741 0.000000 0.000000
# 5 0.000000 0.000000 0.000000 0.000000 0.043667 0.000000
# 6 0.000000 0.000000 0.000000 0.000000 0.000000 0.042216
#
#
# Mechanical properties :
#
#
# Convention : Reuss Voigt Hill
#
# Bulk Modulus (GPa) = 15.91271 65.08028 40.49649
# Shear Modulus (GPa) = 14.31630 23.32911 18.82271
#
# Velocity S-wave (km/s) = 3.04819 3.89113 3.49516
# Velocity P-wave (km/s) = 4.76615 7.90100 6.52464
#
# Compressibility (1/GPa) = 0.06284284
#
# Stress axis : x y z
#
# Youngs Moduli (GPa) = 61.27604 10.19658 92.00020
#
# Poissons Ratio (x) = 0.16802 0.52486
# Poissons Ratio (y) = 1.00974 0.83037
# Poissons Ratio (z) = 0.34958 0.09203
#
# Static dielectric constant tensor:
#      x y z
#    x 1.493680 0.000000 0.000000 
#    y 0.000000 1.524930 0.000000 
#    z 0.000000 0.000000 1.525790 
# 
# From -- ./inp_files/76031.got.cif
#   From: 2010.05.17/outbox.cif.g08.bks.cpg/sg65_39_cif.got.tgz:76031.got - 2010.06.03 17:01:31.
