data_PCOD9484641
_publ_section_title
;
Structure prediction by ZEFSAII (Michael W. Deem and Ramdas Pophale) SiO2 
 PCOD9484641
Probable space group: C M M M
;
_chemical_formula_sum "Si O2"
_cell_formula_units_Z 80
_cell_length_a 25.196847
_cell_length_b 24.770694
_cell_length_c 7.596527
_cell_angle_alpha 90.000000
_cell_angle_beta 90.000000
_cell_angle_gamma 90.000000
_cell_volume 4741.322090
_symmetry_space_group_name_H-M "C M M M"
_symmetry_group_IT_number 65
_symmetry_cell_setting 'orthorhombic'
loop_
_space_group_symop_operation_xyz
x,y,z
-x,-y,z
x,-y,-z
-x,y,-z
-x,-y,-z
x,y,-z
-x,y,z
x,-y,z
1/2+x,1/2+y,z
1/2-x,1/2-y,z
1/2+x,1/2-y,-z
1/2-x,1/2+y,-z
1/2-x,1/2-y,-z
1/2+x,1/2+y,-z
1/2-x,1/2+y,z
1/2+x,1/2-y,z
loop_
_atom_site_type_symbol
_atom_site_label
_atom_site_fract_x
_atom_site_fract_y
_atom_site_fract_z
Si Si1 0.234305 0.664112 0.715038
Si Si2 0.668496 0.269394 0.289013
Si Si3 0.058863 0.603568 0.295432
Si Si4 0.170507 0.560491 0.715842
Si Si5 0.558638 0.772847 0.207951
O O1 0.233912 0.663379 0.500000
O O2 0.293208 0.682275 0.772029
O O3 0.195451 0.713052 0.770544
O O4 0.210696 0.607295 0.774200
O O5 0.671598 0.269114 0.500000
O O6 0.606948 0.267262 0.242693
O O7 0.055988 0.587349 0.500000
O O8 0.110875 0.574819 0.221616
O O9 0.068596 0.668132 0.290253
O O10 0.000000 0.593814 0.217786
O O11 0.169522 0.562268 0.500000
O O12 0.185122 0.500000 0.767963
O O13 0.500000 0.754510 0.266472
O O14 0.556908 0.782193 0.000000
#
# Coordination Sequence:
#
# PCOD9484641 Si02
#       5
#    16  16  16  16  16
#     4   8  14  24  39  60  81 102 130 163 200 234
#     4   9  15  26  44  59  77 104 133 163 193 238
#     4   9  16  26  40  56  76 106 142 171 195 227
#     4   9  15  23  38  60  83 103 130 170 205 229
#     4  10  19  28  39  58  83 106 130 165 205 238
#
# _framework density 16.87293
#
# number of rings (size 3 to 8) (size 9 to 14) (size 15 to 20)
#    0.000    3.000    2.000    1.800    0.000    1.600 
#    0.000    4.000    0.000    0.600    0.000    2.800 
#    0.000    0.800    0.000   10.000    0.000    1.600 
#
# Total GULP energy -222844.240216 kJ/mol
# GULP energy per Si atom -5571.106005 kJ/mol
# Density = 1.683453 g / cm^3
# Si number density = 16.872930 Si / 1000 Ang^3
#
#
#
# Elastic Constant Matrix: (Units=GPa)
#
#
# Indices 1 2 3 4 5 6 
#
# 1 122.9365 75.5116 1.5058 0.0000 0.0000 0.0000
# 2 75.5116 104.8471 5.0821 0.0000 0.0000 0.0000
# 3 1.5058 5.0821 34.5234 0.0000 0.0000 0.0000
# 4 0.0000 0.0000 0.0000 -19.8450 0.0000 0.0000
# 5 0.0000 0.0000 0.0000 0.0000 -150.5070 0.0000
# 6 0.0000 0.0000 0.0000 0.0000 0.0000 23.2502
#
#
#
# Elastic Compliance Matrix: (Units=1/GPa)
#
#
# Indices 1 2 3 4 5 6 
#
# 1 0.014616 -0.010571 0.000919 0.000000 0.000000 0.000000
# 2 -0.010571 0.017252 -0.002079 0.000000 0.000000 0.000000
# 3 0.000919 -0.002079 0.029232 0.000000 0.000000 0.000000
# 4 0.000000 0.000000 0.000000 -0.050390 0.000000 0.000000
# 5 0.000000 0.000000 0.000000 0.000000 -0.006644 0.000000
# 6 0.000000 0.000000 0.000000 0.000000 0.000000 0.043010
#
#
# Mechanical properties :
#
#
# Convention : Reuss Voigt Hill
#
# Bulk Modulus (GPa) = 26.56912 47.38956 36.97934
# Shear Modulus (GPa) = 60.18034 -17.40653 21.38691
#
# Velocity S-wave (km/s) = 5.97865 -3.21538 3.56410
# Velocity P-wave (km/s) = 7.96491 3.78976 6.23707
#
# Compressibility (1/GPa) = 0.03763768
#
# Stress axis : x y z
#
# Youngs Moduli (GPa) = 68.41718 57.96460 34.20938
#
# Poissons Ratio (x) = 0.61276 -0.03143
# Poissons Ratio (y) = 0.72325 0.07110
# Poissons Ratio (z) = -0.06285 0.12048
#
# Static dielectric constant tensor:
#      x y z
#    x 1.614000 0.000000 0.000000 
#    y 0.000000 1.545680 0.000000 
#    z 0.000000 0.000000 1.629490 
# 
# From -- ./inp_files/12505.got.cif
#   From: 2010.05.17/outbox.cif.g08.bks.cpg/sg65_7_cif.got.tgz:12505.got - 2010.06.03 17:01:31.
