data_PCOD9484189
_publ_section_title
;
Structure prediction by ZEFSAII (Michael W. Deem and Ramdas Pophale) SiO2 
 PCOD9484189
Probable space group: C M M M
;
_chemical_formula_sum "Si O2"
_cell_formula_units_Z 68
_cell_length_a 18.863047
_cell_length_b 15.901595
_cell_length_c 11.370208
_cell_angle_alpha 90.000000
_cell_angle_beta 90.000000
_cell_angle_gamma 90.000000
_cell_volume 3410.522700
_symmetry_space_group_name_H-M "C M M M"
_symmetry_group_IT_number 65
_symmetry_cell_setting 'orthorhombic'
loop_
_space_group_symop_operation_xyz
x,y,z
-x,-y,z
x,-y,-z
-x,y,-z
-x,-y,-z
x,y,-z
-x,y,z
x,-y,z
1/2+x,1/2+y,z
1/2-x,1/2-y,z
1/2+x,1/2-y,-z
1/2-x,1/2+y,-z
1/2-x,1/2-y,-z
1/2+x,1/2+y,-z
1/2-x,1/2+y,z
1/2+x,1/2-y,z
loop_
_atom_site_type_symbol
_atom_site_label
_atom_site_fract_x
_atom_site_fract_y
_atom_site_fract_z
Si Si1 0.500000 0.846333 0.500000
Si Si2 0.896859 0.901696 0.500000
Si Si3 0.227706 0.598365 0.500000
Si Si4 0.126757 0.653982 0.302615
Si Si5 0.083364 0.000000 0.860825
Si Si6 0.580732 0.329974 0.751854
Si Si7 0.585751 0.000000 0.138855
O O1 0.438059 0.848602 0.396489
O O2 0.811974 0.897648 0.500000
O O3 0.923398 0.854634 0.385111
O O4 0.917467 0.000000 0.500000
O O5 0.205228 0.500000 0.500000
O O6 0.195625 0.640071 0.383219
O O7 0.123608 0.744365 0.240371
O O8 0.115535 0.580808 0.207941
O O9 0.113214 0.087088 0.811710
O O10 0.000000 0.000000 0.822860
O O11 0.086018 0.000000 0.000000
O O12 0.500000 0.316500 0.796668
O O13 0.500000 0.000000 0.149820
O O14 0.602894 0.000000 0.000000
#
# Coordination Sequence:
#
# PCOD9484189 Si02
#       7
#     4   8   8  16   8  16   8
#     4  10  18  31  52  83 110 138 182 219 264 335
#     4  11  22  36  56  88 117 146 183 232 290 341
#     4  10  22  37  58  82 116 155 187 226 276 348
#     4  11  21  35  57  83 114 151 188 222 280 338
#     4   9  20  37  55  78 112 151 188 229 282 327
#     4  11  21  35  57  87 115 146 183 233 284 346
#     4  11  22  36  54  83 117 151 191 239 281 320
#
# _framework density 19.938293000000002
#
# number of rings (size 3 to 8) (size 9 to 14) (size 15 to 20)
#    0.000    1.412    4.706    1.765    0.000    3.765 
#    0.000    2.353    0.000    2.824    0.000    3.294 
#    0.000    0.000    0.000    0.000    0.000    0.000 
#
# Total GULP energy -189459.064529 kJ/mol
# GULP energy per Si atom -5572.325427 kJ/mol
# Density = 1.989291 g / cm^3
# Si number density = 19.938293 Si / 1000 Ang^3
#
#
#
# Elastic Constant Matrix: (Units=GPa)
#
#
# Indices 1 2 3 4 5 6 
#
# 1 65.4457 23.2193 7.2180 0.0000 0.0000 0.0000
# 2 23.2193 199.4502 58.5257 0.0000 0.0000 0.0000
# 3 7.2180 58.5257 90.6930 0.0000 0.0000 0.0000
# 4 0.0000 0.0000 0.0000 -11.5370 0.0000 0.0000
# 5 0.0000 0.0000 0.0000 0.0000 -33.8864 0.0000
# 6 0.0000 0.0000 0.0000 0.0000 0.0000 23.5958
#
#
#
# Elastic Compliance Matrix: (Units=1/GPa)
#
#
# Indices 1 2 3 4 5 6 
#
# 1 0.015939 -0.001830 -0.000088 0.000000 0.000000 0.000000
# 2 -0.001830 0.006395 -0.003981 0.000000 0.000000 0.000000
# 3 -0.000088 -0.003981 0.013602 0.000000 0.000000 0.000000
# 4 0.000000 0.000000 0.000000 -0.086677 0.000000 0.000000
# 5 0.000000 0.000000 0.000000 0.000000 -0.029510 0.000000
# 6 0.000000 0.000000 0.000000 0.000000 0.000000 0.042380
#
#
# Mechanical properties :
#
#
# Convention : Reuss Voigt Hill
#
# Bulk Modulus (GPa) = 41.42734 59.27943 50.35339
# Shear Modulus (GPa) = -277.35397 13.40952 -131.97223
#
# Velocity S-wave (km/s) = -11.80712 2.59617 -8.14457
# Velocity P-wave (km/s) = 12.84736 6.22758 7.94581
#
# Compressibility (1/GPa) = 0.02413865
#
# Stress axis : x y z
#
# Youngs Moduli (GPa) = 62.74035 156.37163 73.51684
#
# Poissons Ratio (x) = 0.28613 0.00645
# Poissons Ratio (y) = 0.11480 0.29268
# Poissons Ratio (z) = 0.00550 0.62255
#
# Static dielectric constant tensor:
#      x y z
#    x 1.693210 0.000000 0.000000 
#    y 0.000000 1.761520 0.000000 
#    z 0.000000 0.000000 1.654560 
# 
# From -- ./inp_files/28377.got.cif
#   From: 2010.05.17/outbox.cif.g08.bks.cpg/sg65_15_cif.got.tgz:28377.got - 2010.06.03 17:01:31.
