data_PCOD9484323
_publ_section_title
;
Structure prediction by ZEFSAII (Michael W. Deem and Ramdas Pophale) SiO2 
 PCOD9484323
Probable space group: C M M M
;
_chemical_formula_sum "Si O2"
_cell_formula_units_Z 96
_cell_length_a 23.139905
_cell_length_b 28.604699
_cell_length_c 7.675156
_cell_angle_alpha 90.000000
_cell_angle_beta 90.000000
_cell_angle_gamma 90.000000
_cell_volume 5080.262642
_symmetry_space_group_name_H-M "C M M M"
_symmetry_group_IT_number 65
_symmetry_cell_setting 'orthorhombic'
loop_
_space_group_symop_operation_xyz
x,y,z
-x,-y,z
x,-y,-z
-x,y,-z
-x,-y,-z
x,y,-z
-x,y,z
x,-y,z
1/2+x,1/2+y,z
1/2-x,1/2-y,z
1/2+x,1/2-y,-z
1/2-x,1/2+y,-z
1/2-x,1/2-y,-z
1/2+x,1/2+y,-z
1/2-x,1/2+y,z
1/2+x,1/2-y,z
loop_
_atom_site_type_symbol
_atom_site_label
_atom_site_fract_x
_atom_site_fract_y
_atom_site_fract_z
Si Si1 0.124099 0.226352 0.789397
Si Si2 0.000000 0.734163 0.211960
Si Si3 0.314596 0.632163 0.789283
Si Si4 0.000000 0.624907 0.704209
Si Si5 0.125587 0.392772 0.811576
Si Si6 0.315577 0.554283 0.500000
Si Si7 0.678285 0.948588 0.500000
Si Si8 0.796696 0.306956 0.201917
O O1 0.137551 0.172220 0.757776
O O2 0.178403 0.258298 0.723438
O O3 0.060484 0.242216 0.729595
O O4 0.125015 0.232896 0.000000
O O5 0.000000 0.680695 0.271951
O O6 0.000000 0.734754 0.000000
O O7 0.327229 0.586711 0.671289
O O8 0.255003 0.659436 0.732666
O O9 0.310943 0.622537 0.000000
O O10 0.942462 0.605404 0.789869
O O11 0.000000 0.613901 0.500000
O O12 0.156542 0.421689 0.666392
O O13 0.146332 0.339351 0.794562
O O14 0.144766 0.409360 0.000000
O O15 0.338500 0.500000 0.500000
O O16 0.246636 0.549452 0.500000
O O17 0.652950 0.000000 0.500000
O O18 0.779874 0.298476 0.000000
#
# Coordination Sequence:
#
# PCOD9484323 Si02
#       8
#    16   8  16   8  16   8   8  16
#     4   9  17  30  52  81 117 153 186 223 263 321
#     4  10  18  32  52  80 115 157 193 221 265 318
#     4  10  20  36  56  82 114 149 185 224 276 333
#     4  12  22  34  54  80 114 152 197 233 264 318
#     4  11  21  37  58  80 108 147 187 228 278 332
#     4  11  24  40  59  84 111 139 180 236 289 339
#     4  11  24  41  59  81 106 133 181 245 296 337
#     4   9  16  29  53  80 111 148 182 216 262 324
#
# _framework density 18.896660000000001
#
# number of rings (size 3 to 8) (size 9 to 14) (size 15 to 20)
#    0.000    1.833    4.167    1.250    0.000    2.667 
#    1.500    5.000    0.000    1.000    0.000    1.167 
#    0.000    3.333    0.000    0.000    0.000    0.000 
#
# Total GULP energy -267632.353901 kJ/mol
# GULP energy per Si atom -5575.674040 kJ/mol
# Density = 1.885365 g / cm^3
# Si number density = 18.896660 Si / 1000 Ang^3
#
#
#
# Elastic Constant Matrix: (Units=GPa)
#
#
# Indices 1 2 3 4 5 6 
#
# 1 34.7569 5.2353 2.6919 0.0000 0.0000 0.0000
# 2 5.2353 110.5545 54.8915 0.0000 0.0000 0.0000
# 3 2.6919 54.8915 88.9749 0.0000 0.0000 0.0000
# 4 0.0000 0.0000 0.0000 -94.6059 0.0000 0.0000
# 5 0.0000 0.0000 0.0000 0.0000 15.4357 0.0000
# 6 0.0000 0.0000 0.0000 0.0000 0.0000 17.2834
#
#
#
# Elastic Compliance Matrix: (Units=1/GPa)
#
#
# Indices 1 2 3 4 5 6 
#
# 1 0.028978 -0.001351 -0.000043 0.000000 0.000000 0.000000
# 2 -0.001351 0.013102 -0.008042 0.000000 0.000000 0.000000
# 3 -0.000043 -0.008042 0.016202 0.000000 0.000000 0.000000
# 4 0.000000 0.000000 0.000000 -0.010570 0.000000 0.000000
# 5 0.000000 0.000000 0.000000 0.000000 0.064785 0.000000
# 6 0.000000 0.000000 0.000000 0.000000 0.000000 0.057859
#
#
# Mechanical properties :
#
#
# Convention : Reuss Voigt Hill
#
# Bulk Modulus (GPa) = 25.37463 39.99152 32.68307
# Shear Modulus (GPa) = 24.70777 -0.94616 11.88080
#
# Velocity S-wave (km/s) = 3.61989 -0.70837 2.51016
# Velocity P-wave (km/s) = 5.56136 4.53213 5.07291
#
# Compressibility (1/GPa) = 0.03940944
#
# Stress axis : x y z
#
# Youngs Moduli (GPa) = 34.50889 76.32168 61.72043
#
# Poissons Ratio (x) = 0.10309 0.00268
# Poissons Ratio (y) = 0.04661 0.49638
# Poissons Ratio (z) = 0.00150 0.61381
#
# Static dielectric constant tensor:
#      x y z
#    x 1.672790 0.000000 0.000000 
#    y 0.000000 1.669170 0.000000 
#    z 0.000000 0.000000 1.692120 
# 
# From -- ./inp_files/14683.got.cif
#   From: 2010.05.17/outbox.cif.g08.bks.cpg/sg65_8_cif.got.tgz:14683.got - 2010.06.03 17:01:31.
