data_PCOD9484675
_publ_section_title
;
Structure prediction by ZEFSAII (Michael W. Deem and Ramdas Pophale) SiO2 
 PCOD9484675
Probable space group: C M M M
;
_chemical_formula_sum "Si O2"
_cell_formula_units_Z 100
_cell_length_a 23.694709
_cell_length_b 7.556266
_cell_length_c 32.012314
_cell_angle_alpha 90.000000
_cell_angle_beta 90.000000
_cell_angle_gamma 90.000000
_cell_volume 5731.597510
_symmetry_space_group_name_H-M "C M M M"
_symmetry_group_IT_number 65
_symmetry_cell_setting 'orthorhombic'
loop_
_space_group_symop_operation_xyz
x,y,z
-x,-y,z
x,-y,-z
-x,y,-z
-x,-y,-z
x,y,-z
-x,y,z
x,-y,z
1/2+x,1/2+y,z
1/2-x,1/2-y,z
1/2+x,1/2-y,-z
1/2-x,1/2+y,-z
1/2-x,1/2-y,-z
1/2+x,1/2+y,-z
1/2-x,1/2+y,z
1/2+x,1/2-y,z
loop_
_atom_site_type_symbol
_atom_site_label
_atom_site_fract_x
_atom_site_fract_y
_atom_site_fract_z
Si Si1 0.816269 0.791107 0.774633
Si Si2 0.817280 0.212648 0.954998
Si Si3 0.683557 0.211563 0.394541
Si Si4 0.500000 0.215640 0.657900
Si Si5 0.623793 0.500000 0.450826
Si Si6 0.878961 0.290316 0.689322
Si Si7 0.817145 0.787510 0.134916
Si Si8 0.000000 0.000000 0.585312
O O1 0.750000 0.750000 0.768169
O O2 0.852190 0.743897 0.734230
O O3 0.836256 0.717008 0.819788
O O4 0.819717 0.000000 0.778688
O O5 0.750000 0.250000 0.954948
O O6 0.839181 0.280080 0.910027
O O7 0.824237 0.000000 0.955096
O O8 0.839123 0.279704 0.000000
O O9 0.750000 0.250000 0.396328
O O10 0.651548 0.328314 0.428880
O O11 0.659465 0.272500 0.349323
O O12 0.674307 0.000000 0.399578
O O13 0.556793 0.268963 0.682423
O O14 0.500000 0.326233 0.615087
O O15 0.500000 0.000000 0.651523
O O16 0.634428 0.500000 0.500000
O O17 0.557220 0.500000 0.441071
O O18 0.880384 0.500000 0.684747
O O19 0.750000 0.750000 0.135012
O O20 0.825087 0.000000 0.134276
#
# Coordination Sequence:
#
# PCOD9484675 Si02
#       8
#    16  16  16   8   8  16  16   4
#     4  10  19  28  43  67  97 130 164 203 251 306
#     4   8  12  18  29  43  63  98 145 192 235 280
#     4  11  23  41  63  90 121 153 186 227 272 322
#     4  10  22  39  61  85 110 138 177 225 263 305
#     4  12  27  44  66  94 122 153 188 227 271 322
#     4  10  21  36  56  78 103 134 170 212 258 307
#     4   8  14  23  32  49  78 111 149 194 240 289
#     4  12  23  44  72  88 116 152 190 226 265 326
#
# _framework density 17.447141999999999
#
# number of rings (size 3 to 8) (size 9 to 14) (size 15 to 20)
#    0.000    2.240    2.400    1.080    2.240    2.560 
#    0.000    0.000    0.000    1.440    0.000    0.000 
#    0.000    0.000    0.000    0.720    0.000   16.960 
#
# Total GULP energy -278413.278248 kJ/mol
# GULP energy per Si atom -5568.265565 kJ/mol
# Density = 1.740743 g / cm^3
# Si number density = 17.447142 Si / 1000 Ang^3
#
#
#
# Elastic Constant Matrix: (Units=GPa)
#
#
# Indices 1 2 3 4 5 6 
#
# 1 87.6650 19.2277 61.2113 0.0000 0.0000 0.0000
# 2 19.2277 67.7189 31.7362 0.0000 0.0000 0.0000
# 3 61.2113 31.7362 204.5259 0.0000 0.0000 0.0000
# 4 0.0000 0.0000 0.0000 49.4273 0.0000 0.0000
# 5 0.0000 0.0000 0.0000 0.0000 2.0745 0.0000
# 6 0.0000 0.0000 0.0000 0.0000 0.0000 -1.4281
#
#
#
# Elastic Compliance Matrix: (Units=1/GPa)
#
#
# Indices 1 2 3 4 5 6 
#
# 1 0.014741 -0.002284 -0.004057 0.000000 0.000000 0.000000
# 2 -0.002284 0.016279 -0.001842 0.000000 0.000000 0.000000
# 3 -0.004057 -0.001842 0.006390 0.000000 0.000000 0.000000
# 4 0.000000 0.000000 0.000000 0.020232 0.000000 0.000000
# 5 0.000000 0.000000 0.000000 0.000000 0.482054 0.000000
# 6 0.000000 0.000000 0.000000 0.000000 0.000000 -0.700214
#
#
# Mechanical properties :
#
#
# Convention : Reuss Voigt Hill
#
# Bulk Modulus (GPa) = 47.52427 64.91782 56.22105
# Shear Modulus (GPa) = -36.45987 26.53038 -4.96475
#
# Velocity S-wave (km/s) = -4.57632 3.90374 -1.68872
# Velocity P-wave (km/s) = 0.79086 7.58999 5.33772
#
# Compressibility (1/GPa) = 0.02104188
#
# Stress axis : x y z
#
# Youngs Moduli (GPa) = 67.83795 61.42934 156.50578
#
# Poissons Ratio (x) = 0.14031 0.63500
# Poissons Ratio (y) = 0.15494 0.28835
# Poissons Ratio (z) = 0.27524 0.11318
#
# Static dielectric constant tensor:
#      x y z
#    x 1.545790 0.000000 0.000000 
#    y 0.000000 1.781880 0.000000 
#    z 0.000000 0.000000 1.687470 
# 
# From -- ./inp_files/78282.got.cif
#   From: 2010.05.17/outbox.cif.g08.bks.cpg/sg65_40_cif.got.tgz:78282.got - 2010.06.03 17:01:31.
