data_PCOD9484611
_publ_section_title
;
Structure prediction by ZEFSAII (Michael W. Deem and Ramdas Pophale) SiO2 
 PCOD9484611
Probable space group: C M M M
;
_chemical_formula_sum "Si O2"
_cell_formula_units_Z 72
_cell_length_a 31.037861
_cell_length_b 14.887319
_cell_length_c 8.437479
_cell_angle_alpha 90.000000
_cell_angle_beta 90.000000
_cell_angle_gamma 90.000000
_cell_volume 3898.710459
_symmetry_space_group_name_H-M "C M M M"
_symmetry_group_IT_number 65
_symmetry_cell_setting 'orthorhombic'
loop_
_space_group_symop_operation_xyz
x,y,z
-x,-y,z
x,-y,-z
-x,y,-z
-x,-y,-z
x,y,-z
-x,y,z
x,-y,z
1/2+x,1/2+y,z
1/2-x,1/2-y,z
1/2+x,1/2-y,-z
1/2-x,1/2+y,-z
1/2-x,1/2-y,-z
1/2+x,1/2+y,-z
1/2-x,1/2+y,z
1/2+x,1/2-y,z
loop_
_atom_site_type_symbol
_atom_site_label
_atom_site_fract_x
_atom_site_fract_y
_atom_site_fract_z
Si Si1 0.291006 0.189556 0.691410
Si Si2 0.447725 0.000000 0.183477
Si Si3 0.663403 0.500000 0.308198
Si Si4 0.261601 0.000000 0.812319
Si Si5 0.450823 0.807526 0.690773
Si Si6 0.372217 0.308846 0.693624
O O1 0.290728 0.185000 0.500000
O O2 0.250000 0.250000 0.739795
O O3 0.285471 0.089872 0.756125
O O4 0.334208 0.240820 0.741312
O O5 0.434114 0.906595 0.262340
O O6 0.500000 0.000000 0.195194
O O7 0.435540 0.000000 0.000000
O O8 0.662892 0.500000 0.500000
O O9 0.713230 0.500000 0.258041
O O10 0.640027 0.408948 0.253507
O O11 0.258330 0.000000 0.000000
O O12 0.452288 0.804333 0.500000
O O13 0.500000 0.796620 0.749813
O O14 0.417769 0.731548 0.746682
O O15 0.372599 0.310419 0.500000
#
# Coordination Sequence:
#
# PCOD9484611 Si02
#       6
#    16   8   8   8  16  16
#     4  10  19  35  57  76  97 135 181 217 249 300
#     4   9  17  30  49  72  98 134 174 207 247 303
#     4  10  18  36  58  75  98 137 185 216 246 305
#     4  12  24  35  51  79 113 139 165 213 276 320
#     4   9  17  31  51  77 108 137 166 209 262 306
#     4   9  18  32  55  80 100 131 178 219 251 301
#
# _framework density 18.467645000000001
#
# number of rings (size 3 to 8) (size 9 to 14) (size 15 to 20)
#    0.000    2.333    2.222    1.333    0.000    2.667 
#    0.000    7.222    0.000    3.333    0.000    0.000 
#    0.000    4.444    0.000    0.000    0.000    0.000 
#
# Total GULP energy -200840.283860 kJ/mol
# GULP energy per Si atom -5578.896774 kJ/mol
# Density = 1.842561 g / cm^3
# Si number density = 18.467645 Si / 1000 Ang^3
#
#
#
# Elastic Constant Matrix: (Units=GPa)
#
#
# Indices 1 2 3 4 5 6 
#
# 1 105.8253 88.0979 11.2420 0.0000 0.0000 0.0000
# 2 88.0979 196.7775 18.9128 0.0000 0.0000 0.0000
# 3 11.2420 18.9128 8.4467 0.0000 0.0000 0.0000
# 4 0.0000 0.0000 0.0000 -16.3418 0.0000 0.0000
# 5 0.0000 0.0000 0.0000 0.0000 4.1834 0.0000
# 6 0.0000 0.0000 0.0000 0.0000 0.0000 28.8907
#
#
#
# Elastic Compliance Matrix: (Units=1/GPa)
#
#
# Indices 1 2 3 4 5 6 
#
# 1 0.015332 -0.006247 -0.006418 0.000000 0.000000 0.000000
# 2 -0.006247 0.009021 -0.011884 0.000000 0.000000 0.000000
# 3 -0.006418 -0.011884 0.153539 0.000000 0.000000 0.000000
# 4 0.000000 0.000000 0.000000 -0.061193 0.000000 0.000000
# 5 0.000000 0.000000 0.000000 0.000000 0.239038 0.000000
# 6 0.000000 0.000000 0.000000 0.000000 0.000000 0.034613
#
#
# Mechanical properties :
#
#
# Convention : Reuss Voigt Hill
#
# Bulk Modulus (GPa) = 7.76431 60.83944 34.30188
# Shear Modulus (GPa) = 10.36529 16.19960 13.28245
#
# Velocity S-wave (km/s) = 2.37168 2.96495 2.68475
# Velocity P-wave (km/s) = 3.42246 6.68854 5.31271
#
# Compressibility (1/GPa) = 0.12879438
#
# Stress axis : x y z
#
# Youngs Moduli (GPa) = 65.22223 110.85164 6.51301
#
# Poissons Ratio (x) = 0.69254 0.04180
# Poissons Ratio (y) = 0.40747 0.07740
# Poissons Ratio (z) = 0.41857 1.31734
#
# Static dielectric constant tensor:
#      x y z
#    x 1.640340 0.000000 0.000000 
#    y 0.000000 1.622870 0.000000 
#    z 0.000000 0.000000 1.621040 
# 
# From -- ./inp_files/7447.got.cif
#   From: 2010.05.17/outbox.cif.g08.bks.cpg/sg65_4_cif.got.tgz:7447.got - 2010.06.03 17:01:31.
