data_PCOD9484161
_publ_section_title
;
Structure prediction by ZEFSAII (Michael W. Deem and Ramdas Pophale) SiO2 
 PCOD9484161
Probable space group: C M M M
;
_chemical_formula_sum "Si O2"
_cell_formula_units_Z 104
_cell_length_a 23.818186
_cell_length_b 27.529541
_cell_length_c 7.624299
_cell_angle_alpha 90.000000
_cell_angle_beta 90.000000
_cell_angle_gamma 90.000000
_cell_volume 4999.281278
_symmetry_space_group_name_H-M "C M M M"
_symmetry_group_IT_number 65
_symmetry_cell_setting 'orthorhombic'
loop_
_space_group_symop_operation_xyz
x,y,z
-x,-y,z
x,-y,-z
-x,y,-z
-x,-y,-z
x,y,-z
-x,y,z
x,-y,z
1/2+x,1/2+y,z
1/2-x,1/2-y,z
1/2+x,1/2-y,-z
1/2-x,1/2+y,-z
1/2-x,1/2-y,-z
1/2+x,1/2+y,-z
1/2-x,1/2+y,z
1/2+x,1/2-y,z
loop_
_atom_site_type_symbol
_atom_site_label
_atom_site_fract_x
_atom_site_fract_y
_atom_site_fract_z
Si Si1 0.063982 0.000000 0.214485
Si Si2 0.872204 0.096350 0.211495
Si Si3 0.115422 0.199384 0.704913
Si Si4 0.248171 0.943608 0.214758
Si Si5 0.436853 0.802671 0.208727
Si Si6 0.661027 0.871662 0.199671
Si Si7 0.738493 0.306671 0.298121
O O1 0.095822 0.048247 0.270870
O O2 0.000000 0.000000 0.270843
O O3 0.065172 0.000000 0.000000
O O4 0.905497 0.144392 0.273665
O O5 0.807001 0.087481 0.268115
O O6 0.872058 0.097570 0.000000
O O7 0.124073 0.209438 0.500000
O O8 0.083307 0.246711 0.770436
O O9 0.177139 0.191734 0.786228
O O10 0.306260 0.918440 0.276284
O O11 0.242817 0.000000 0.266419
O O12 0.248737 0.942547 0.000000
O O13 0.500000 0.808043 0.279708
O O14 0.391424 0.841824 0.279684
O O15 0.438814 0.810702 0.000000
O O16 0.711886 0.833003 0.198408
O O17 0.645321 0.884621 0.000000
O O18 0.738671 0.324981 0.500000
O O19 0.750000 0.250000 0.306866
#
# Coordination Sequence:
#
# PCOD9484161 Si02
#       7
#     8  16  16  16  16  16  16
#     4   9  18  32  51  73  97 133 178 216 251 294
#     4  10  18  31  52  76 103 136 174 216 253 295
#     4  11  22  34  51  77 107 138 169 207 257 308
#     4   9  16  28  49  78 105 129 165 213 261 307
#     4  10  22  38  53  72 101 137 177 218 256 303
#     4  10  19  31  53  78  99 131 172 212 256 307
#     4  10  19  31  47  72 105 134 159 198 249 300
#
# _framework density 20.802990000000001
#
# number of rings (size 3 to 8) (size 9 to 14) (size 15 to 20)
#    0.000    2.077    3.846    0.462    0.000    1.846 
#    0.000    1.923    0.000    2.308    0.000    3.231 
#    0.000    0.000    0.000    2.769    0.000    3.077 
#
# Total GULP energy -289807.158702 kJ/mol
# GULP energy per Si atom -5573.214590 kJ/mol
# Density = 2.075564 g / cm^3
# Si number density = 20.802990 Si / 1000 Ang^3
#
#
#
# Elastic Constant Matrix: (Units=GPa)
#
#
# Indices 1 2 3 4 5 6 
#
# 1 125.7856 41.5112 4.9412 0.0000 0.0000 0.0000
# 2 41.5112 100.8565 0.8109 0.0000 0.0000 0.0000
# 3 4.9412 0.8109 47.2430 0.0000 0.0000 0.0000
# 4 0.0000 0.0000 0.0000 -14.4235 0.0000 0.0000
# 5 0.0000 0.0000 0.0000 0.0000 -1.0448 0.0000
# 6 0.0000 0.0000 0.0000 0.0000 0.0000 16.9447
#
#
#
# Elastic Compliance Matrix: (Units=1/GPa)
#
#
# Indices 1 2 3 4 5 6 
#
# 1 0.009238 -0.003795 -0.000901 0.000000 0.000000 0.000000
# 2 -0.003795 0.011475 0.000200 0.000000 0.000000 0.000000
# 3 -0.000901 0.000200 0.021258 0.000000 0.000000 0.000000
# 4 0.000000 0.000000 0.000000 -0.069331 0.000000 0.000000
# 5 0.000000 0.000000 0.000000 0.000000 -0.957122 0.000000
# 6 0.000000 0.000000 0.000000 0.000000 0.000000 0.059015
#
#
# Mechanical properties :
#
#
# Convention : Reuss Voigt Hill
#
# Bulk Modulus (GPa) = 30.32219 40.93462 35.62841
# Shear Modulus (GPa) = -5.52192 15.40340 4.94074
#
# Velocity S-wave (km/s) = -1.63100 2.72406 1.54278
# Velocity P-wave (km/s) = 3.32576 5.44187 4.50969
#
# Compressibility (1/GPa) = 0.03297915
#
# Stress axis : x y z
#
# Youngs Moduli (GPa) = 108.25078 87.14283 47.04116
#
# Poissons Ratio (x) = 0.33070 0.04239
# Poissons Ratio (y) = 0.41080 -0.00941
# Poissons Ratio (z) = 0.09754 -0.01742
#
# Static dielectric constant tensor:
#      x y z
#    x 1.790960 0.000000 0.000000 
#    y 0.000000 1.829780 0.000000 
#    z 0.000000 0.000000 1.790860 
# 
# From -- ./inp_files/14732.got.cif
#   From: 2010.05.17/outbox.cif.g08.bks.cpg/sg65_8_cif.got.tgz:14732.got - 2010.06.03 17:01:31.
