data_PCOD9484501
_publ_section_title
;
Structure prediction by ZEFSAII (Michael W. Deem and Ramdas Pophale) SiO2 
 PCOD9484501
Probable space group: C M M M
;
_chemical_formula_sum "Si O2"
_cell_formula_units_Z 72
_cell_length_a 30.737109
_cell_length_b 14.970329
_cell_length_c 7.873117
_cell_angle_alpha 90.000000
_cell_angle_beta 90.000000
_cell_angle_gamma 90.000000
_cell_volume 3622.772542
_symmetry_space_group_name_H-M "C M M M"
_symmetry_group_IT_number 65
_symmetry_cell_setting 'orthorhombic'
loop_
_space_group_symop_operation_xyz
x,y,z
-x,-y,z
x,-y,-z
-x,y,-z
-x,-y,-z
x,y,-z
-x,y,z
x,-y,z
1/2+x,1/2+y,z
1/2-x,1/2-y,z
1/2+x,1/2-y,-z
1/2-x,1/2+y,-z
1/2-x,1/2-y,-z
1/2+x,1/2+y,-z
1/2-x,1/2+y,z
1/2+x,1/2-y,z
loop_
_atom_site_type_symbol
_atom_site_label
_atom_site_fract_x
_atom_site_fract_y
_atom_site_fract_z
Si Si1 0.291947 0.192598 0.707888
Si Si2 0.449794 0.000000 0.202580
Si Si3 0.667516 0.500000 0.197452
Si Si4 0.266934 0.000000 0.699439
Si Si5 0.450544 0.805887 0.703426
Si Si6 0.372838 0.312277 0.705718
O O1 0.292090 0.190753 0.500000
O O2 0.250000 0.250000 0.758826
O O3 0.285960 0.091850 0.771207
O O4 0.335053 0.244129 0.761942
O O5 0.431410 0.904895 0.261023
O O6 0.500000 0.000000 0.267566
O O7 0.450331 0.000000 0.000000
O O8 0.714413 0.500000 0.288920
O O9 0.640366 0.411284 0.239803
O O10 0.678043 0.500000 0.000000
O O11 0.277954 0.000000 0.500000
O O12 0.453166 0.797682 0.500000
O O13 0.500000 0.801515 0.772232
O O14 0.418589 0.728426 0.766160
O O15 0.373269 0.312239 0.500000
#
# Coordination Sequence:
#
# PCOD9484501 Si02
#       6
#    16   8   8   8  16  16
#     4   9  16  28  52  81 101 128 172 215 251 300
#     4   9  17  30  51  77 108 147 178 203 252 316
#     4  12  24  36  52  76 104 137 177 217 269 327
#     4  10  18  33  55  76 105 137 175 217 256 306
#     4   9  18  33  55  83 111 138 175 223 266 304
#     4  10  20  36  57  78 103 138 179 220 266 314
#
# _framework density 19.874281
#
# number of rings (size 3 to 8) (size 9 to 14) (size 15 to 20)
#    0.000    2.333    2.222    1.333    0.000    3.111 
#    0.000    6.111    0.000    4.667    0.000    0.000 
#    0.000    0.000    0.000    0.000    0.000    0.000 
#
# Total GULP energy -200860.570733 kJ/mol
# GULP energy per Si atom -5579.460298 kJ/mol
# Density = 1.982905 g / cm^3
# Si number density = 19.874281 Si / 1000 Ang^3
#
#
#
# Elastic Constant Matrix: (Units=GPa)
#
#
# Indices 1 2 3 4 5 6 
#
# 1 87.6230 74.6238 1.2965 0.0000 0.0000 0.0000
# 2 74.6238 201.9665 1.8529 0.0000 0.0000 0.0000
# 3 1.2965 1.8529 20.8430 0.0000 0.0000 0.0000
# 4 0.0000 0.0000 0.0000 120.8149 0.0000 0.0000
# 5 0.0000 0.0000 0.0000 0.0000 -1.5175 0.0000
# 6 0.0000 0.0000 0.0000 0.0000 0.0000 30.3583
#
#
#
# Elastic Compliance Matrix: (Units=1/GPa)
#
#
# Indices 1 2 3 4 5 6 
#
# 1 0.016658 -0.006150 -0.000489 0.000000 0.000000 0.000000
# 2 -0.006150 0.007226 -0.000260 0.000000 0.000000 0.000000
# 3 -0.000489 -0.000260 0.048031 0.000000 0.000000 0.000000
# 4 0.000000 0.000000 0.000000 0.008277 0.000000 0.000000
# 5 0.000000 0.000000 0.000000 0.000000 -0.659000 0.000000
# 6 0.000000 0.000000 0.000000 0.000000 0.000000 0.032940
#
#
# Mechanical properties :
#
#
# Convention : Reuss Voigt Hill
#
# Bulk Modulus (GPa) = 17.20691 51.77541 34.49116
# Shear Modulus (GPa) = -9.75235 45.44177 17.84471
#
# Velocity S-wave (km/s) = -2.21758 4.78688 2.99971
# Velocity P-wave (km/s) = 1.45595 7.52731 5.42126
#
# Compressibility (1/GPa) = 0.05811619
#
# Stress axis : x y z
#
# Youngs Moduli (GPa) = 60.03260 138.38658 20.81972
#
# Poissons Ratio (x) = 0.85111 0.01019
# Poissons Ratio (y) = 0.36922 0.00541
# Poissons Ratio (z) = 0.02938 0.03596
#
# Static dielectric constant tensor:
#      x y z
#    x 1.706470 0.000000 0.000000 
#    y 0.000000 1.697640 0.000000 
#    z 0.000000 0.000000 1.696720 
# 
# From -- ./inp_files/18041.got.cif
#   From: 2010.05.17/outbox.cif.g08.bks.cpg/sg65_10_cif.got.tgz:18041.got - 2010.06.03 17:01:31.
