data_PCOD9484979
_publ_section_title
;
Structure prediction by ZEFSAII (Michael W. Deem and Ramdas Pophale) SiO2 
 PCOD9484979
Probable space group: C M M M
;
_chemical_formula_sum "Si O2"
_cell_formula_units_Z 96
_cell_length_a 14.646200
_cell_length_b 9.165802
_cell_length_c 33.288462
_cell_angle_alpha 90.000000
_cell_angle_beta 90.000000
_cell_angle_gamma 90.000000
_cell_volume 4468.781927
_symmetry_space_group_name_H-M "C M M M"
_symmetry_group_IT_number 65
_symmetry_cell_setting 'orthorhombic'
loop_
_space_group_symop_operation_xyz
x,y,z
-x,-y,z
x,-y,-z
-x,y,-z
-x,-y,-z
x,y,-z
-x,y,z
x,-y,z
1/2+x,1/2+y,z
1/2-x,1/2-y,z
1/2+x,1/2-y,-z
1/2-x,1/2+y,-z
1/2-x,1/2-y,-z
1/2+x,1/2+y,-z
1/2-x,1/2+y,z
1/2+x,1/2-y,z
loop_
_atom_site_type_symbol
_atom_site_label
_atom_site_fract_x
_atom_site_fract_y
_atom_site_fract_z
Si Si1 0.648853 0.323579 0.369235
Si Si2 0.392646 0.838381 0.200482
Si Si3 0.150551 0.175272 0.456726
Si Si4 0.611236 0.169002 0.956203
Si Si5 0.612050 0.664609 0.123527
Si Si6 0.349316 0.176339 0.290784
O O1 0.654305 0.500000 0.364223
O O2 0.750000 0.250000 0.371309
O O3 0.607343 0.290878 0.413294
O O4 0.605481 0.249585 0.329954
O O5 0.500000 0.852201 0.192022
O O6 0.357133 0.736985 0.165167
O O7 0.386987 0.788727 0.246615
O O8 0.350394 0.000000 0.198476
O O9 0.107068 0.213749 0.500000
O O10 0.250000 0.250000 0.456979
O O11 0.161944 0.000000 0.456469
O O12 0.500000 0.171472 0.955766
O O13 0.641320 0.251485 0.916461
O O14 0.638595 0.000000 0.954080
O O15 0.638971 0.229353 0.000000
O O16 0.500000 0.663560 0.123391
O O17 0.644032 0.500000 0.121639
O O18 0.250000 0.250000 0.289763
O O19 0.347476 0.000000 0.295339
#
# Coordination Sequence:
#
# PCOD9484979 Si02
#       6
#    16  16  16  16  16  16
#     4   9  15  23  36  53  76 105 134 165 201 242
#     4   9  18  32  47  61  80 110 145 175 205 246
#     4   8  13  20  30  46  69  98 130 160 192 233
#     4   8  13  21  33  49  72 105 140 168 197 240
#     4   9  16  24  36  56  80 105 133 169 212 249
#     4  10  19  30  45  63  84 110 139 173 210 248
#
# _framework density 21.482364
#
# number of rings (size 3 to 8) (size 9 to 14) (size 15 to 20)
#    0.000    3.167    0.000    3.000    0.000    4.333 
#    0.000    1.667    0.000    0.000    0.000    0.000 
#    0.000    1.333    0.000   10.500    0.000    8.167 
#
# Total GULP energy -267310.327191 kJ/mol
# GULP energy per Si atom -5568.965150 kJ/mol
# Density = 2.143347 g / cm^3
# Si number density = 21.482364 Si / 1000 Ang^3
#
#
#
# Elastic Constant Matrix: (Units=GPa)
#
#
# Indices 1 2 3 4 5 6 
#
# 1 52.6916 10.8907 7.0508 0.0000 0.0000 0.0000
# 2 10.8907 86.5907 111.7085 0.0000 0.0000 0.0000
# 3 7.0508 111.7085 275.3115 0.0000 0.0000 0.0000
# 4 0.0000 0.0000 0.0000 129.2642 0.0000 0.0000
# 5 0.0000 0.0000 0.0000 0.0000 2.9108 0.0000
# 6 0.0000 0.0000 0.0000 0.0000 0.0000 -1.9474
#
#
#
# Elastic Compliance Matrix: (Units=1/GPa)
#
#
# Indices 1 2 3 4 5 6 
#
# 1 0.019628 -0.003819 0.001047 0.000000 0.000000 0.000000
# 2 -0.003819 0.024977 -0.010037 0.000000 0.000000 0.000000
# 3 0.001047 -0.010037 0.007678 0.000000 0.000000 0.000000
# 4 0.000000 0.000000 0.000000 0.007736 0.000000 0.000000
# 5 0.000000 0.000000 0.000000 0.000000 0.343549 0.000000
# 6 0.000000 0.000000 0.000000 0.000000 0.000000 -0.513515
#
#
# Mechanical properties :
#
#
# Convention : Reuss Voigt Hill
#
# Bulk Modulus (GPa) = 37.50306 74.87710 56.19008
# Shear Modulus (GPa) = -66.27726 45.04177 -10.61774
#
# Velocity S-wave (km/s) = -5.56048 4.58393 -2.22559
# Velocity P-wave (km/s) = 4.87132 7.93393 4.42818
#
# Compressibility (1/GPa) = 0.02666449
#
# Stress axis : x y z
#
# Youngs Moduli (GPa) = 50.94847 40.03668 130.24451
#
# Poissons Ratio (x) = 0.15292 -0.13638
# Poissons Ratio (y) = 0.19459 1.30723
# Poissons Ratio (z) = -0.05335 0.40184
#
# Static dielectric constant tensor:
#      x y z
#    x 1.787840 0.000000 0.000000 
#    y 0.000000 1.738470 0.000000 
#    z 0.000000 0.000000 1.855210 
# 
# From -- ./inp_files/75692.got.cif
#   From: 2010.05.17/outbox.cif.g08.bks.cpg/sg65_38_cif.got.tgz:75692.got - 2010.06.03 17:01:31.
