data_PCOD9484485
_publ_section_title
;
Structure prediction by ZEFSAII (Michael W. Deem and Ramdas Pophale) SiO2 
 PCOD9484485
Probable space group: C M M M
;
_chemical_formula_sum "Si O2"
_cell_formula_units_Z 80
_cell_length_a 11.318541
_cell_length_b 22.476969
_cell_length_c 16.373494
_cell_angle_alpha 90.000000
_cell_angle_beta 90.000000
_cell_angle_gamma 90.000000
_cell_volume 4165.523222
_symmetry_space_group_name_H-M "C M M M"
_symmetry_group_IT_number 65
_symmetry_cell_setting 'orthorhombic'
loop_
_space_group_symop_operation_xyz
x,y,z
-x,-y,z
x,-y,-z
-x,y,-z
-x,-y,-z
x,y,-z
-x,y,z
x,-y,z
1/2+x,1/2+y,z
1/2-x,1/2-y,z
1/2+x,1/2-y,-z
1/2-x,1/2+y,-z
1/2-x,1/2-y,-z
1/2+x,1/2+y,-z
1/2-x,1/2+y,z
1/2+x,1/2-y,z
loop_
_atom_site_type_symbol
_atom_site_label
_atom_site_fract_x
_atom_site_fract_y
_atom_site_fract_z
Si Si1 0.261323 0.432660 0.596707
Si Si2 0.745041 0.819611 0.136535
Si Si3 0.500000 0.199198 0.090586
Si Si4 0.000000 0.113270 0.333902
Si Si5 0.000000 0.830005 0.846555
Si Si6 0.633210 0.169150 0.691477
Si Si7 0.500000 0.259658 0.405565
O O1 0.281137 0.423887 0.500000
O O2 0.217389 0.500000 0.608645
O O3 0.383746 0.423802 0.645000
O O4 0.174510 0.382914 0.631955
O O5 0.750000 0.750000 0.113361
O O6 0.619648 0.838571 0.099840
O O7 0.723262 0.824191 0.233948
O O8 0.872677 0.846149 0.115084
O O9 0.500000 0.256676 0.152471
O O10 0.500000 0.226461 0.000000
O O11 0.000000 0.141308 0.243322
O O12 0.000000 0.170579 0.392951
O O13 0.500000 0.155251 0.723296
O O14 0.610994 0.229304 0.640306
O O15 0.500000 0.243483 0.500000
#
# Coordination Sequence:
#
# PCOD9484485 Si02
#       7
#    16  16   8   8   8  16   8
#     4  11  24  39  55  76 108 152 201 257 306 343
#     4  10  18  33  52  78 113 154 185 223 277 344
#     4  10  20  34  55  85 124 158 181 218 281 362
#     4  12  21  37  55  77 111 152 192 236 294 358
#     4  10  20  31  53  77 108 152 187 226 273 332
#     4  10  21  34  55  76 107 144 191 236 299 352
#     4  10  20  31  48  78 104 135 185 243 294 347
#
# _framework density 19.205269999999999
#
# number of rings (size 3 to 8) (size 9 to 14) (size 15 to 20)
#    0.600    1.000    3.000    4.200    0.000    4.800 
#    0.000    3.000    0.000    0.000    0.000    0.000 
#    0.000    4.800    0.000    0.000    0.000    0.000 
#
# Total GULP energy -222911.881487 kJ/mol
# GULP energy per Si atom -5572.797037 kJ/mol
# Density = 1.916156 g / cm^3
# Si number density = 19.205270 Si / 1000 Ang^3
#
#
#
# Elastic Constant Matrix: (Units=GPa)
#
#
# Indices 1 2 3 4 5 6 
#
# 1 138.7107 0.2535 5.2282 0.0000 0.0000 0.0000
# 2 0.2535 45.0034 9.1157 0.0000 0.0000 0.0000
# 3 5.2282 9.1157 61.8103 0.0000 0.0000 0.0000
# 4 0.0000 0.0000 0.0000 10.7617 0.0000 0.0000
# 5 0.0000 0.0000 0.0000 0.0000 3.4778 0.0000
# 6 0.0000 0.0000 0.0000 0.0000 0.0000 -270.1541
#
#
#
# Elastic Compliance Matrix: (Units=1/GPa)
#
#
# Indices 1 2 3 4 5 6 
#
# 1 0.007233 0.000086 -0.000624 0.000000 0.000000 0.000000
# 2 0.000086 0.022906 -0.003385 0.000000 0.000000 0.000000
# 3 -0.000624 -0.003385 0.016731 0.000000 0.000000 0.000000
# 4 0.000000 0.000000 0.000000 0.092922 0.000000 0.000000
# 5 0.000000 0.000000 0.000000 0.000000 0.287539 0.000000
# 6 0.000000 0.000000 0.000000 0.000000 0.000000 -0.003702
#
#
# Mechanical properties :
#
#
# Convention : Reuss Voigt Hill
#
# Bulk Modulus (GPa) = 25.62726 30.52435 28.07580
# Shear Modulus (GPa) = 11.24901 -35.78777 -12.26938
#
# Velocity S-wave (km/s) = 2.42280 -4.32144 -2.53030
# Velocity P-wave (km/s) = 4.60429 2.99525 2.47265
#
# Compressibility (1/GPa) = 0.03902095
#
# Stress axis : x y z
#
# Youngs Moduli (GPa) = 138.26237 43.65708 59.77069
#
# Poissons Ratio (x) = -0.00374 0.03732
# Poissons Ratio (y) = -0.01185 0.20235
# Poissons Ratio (z) = 0.08633 0.14780
#
# Static dielectric constant tensor:
#      x y z
#    x 1.779200 0.000000 0.000000 
#    y 0.000000 1.610050 0.000000 
#    z 0.000000 0.000000 1.690740 
# 
# From -- ./inp_files/51390.got.cif
#   From: 2010.05.17/outbox.cif.g08.bks.cpg/sg65_26_cif.got.tgz:51390.got - 2010.06.03 17:01:31.
