data_PCOD9484310
_publ_section_title
;
Structure prediction by ZEFSAII (Michael W. Deem and Ramdas Pophale) SiO2 
 PCOD9484310
Probable space group: C M M M
;
_chemical_formula_sum "Si O2"
_cell_formula_units_Z 72
_cell_length_a 28.985908
_cell_length_b 8.595731
_cell_length_c 16.132448
_cell_angle_alpha 90.000000
_cell_angle_beta 90.000000
_cell_angle_gamma 90.000000
_cell_volume 4019.481178
_symmetry_space_group_name_H-M "C M M M"
_symmetry_group_IT_number 65
_symmetry_cell_setting 'orthorhombic'
loop_
_space_group_symop_operation_xyz
x,y,z
-x,-y,z
x,-y,-z
-x,y,-z
-x,-y,-z
x,y,-z
-x,y,z
x,-y,z
1/2+x,1/2+y,z
1/2-x,1/2-y,z
1/2+x,1/2-y,-z
1/2-x,1/2+y,-z
1/2-x,1/2-y,-z
1/2+x,1/2+y,-z
1/2-x,1/2+y,z
1/2+x,1/2-y,z
loop_
_atom_site_type_symbol
_atom_site_label
_atom_site_fract_x
_atom_site_fract_y
_atom_site_fract_z
Si Si1 0.055196 0.313847 0.093501
Si Si2 0.301572 0.184380 0.173419
Si Si3 0.388556 0.313761 0.750870
Si Si4 0.197589 0.185700 0.000000
Si Si5 0.053146 0.810519 0.407032
O O1 0.063353 0.500000 0.098119
O O2 0.081554 0.233464 0.168688
O O3 0.000000 0.289005 0.101371
O O4 0.068622 0.262147 0.000000
O O5 0.250000 0.250000 0.185666
O O6 0.338143 0.239236 0.240882
O O7 0.321289 0.249575 0.085973
O O8 0.298758 0.000000 0.167861
O O9 0.384175 0.500000 0.749071
O O10 0.414768 0.259243 0.668088
O O11 0.250000 0.250000 0.000000
O O12 0.197245 0.000000 0.000000
O O13 0.067055 0.761637 0.500000
O O14 0.000000 0.762582 0.393438
O O15 0.053418 0.000000 0.406364
#
# Coordination Sequence:
#
# PCOD9484310 Si02
#       5
#    16  16  16   8  16
#     4   9  19  35  51  69 101 144 183 217 258 311
#     4  11  22  37  54  74 104 141 179 223 270 317
#     4  11  21  32  52  81 108 137 177 224 268 319
#     4  10  18  32  52  74  99 130 173 220 264 308
#     4   8  15  30  53  81 111 140 172 215 267 319
#
# _framework density 17.912759000000001
#
# number of rings (size 3 to 8) (size 9 to 14) (size 15 to 20)
#    0.000    2.222    0.000    7.000    1.556    1.778 
#    0.000    1.111    0.000    3.333    0.000    7.778 
#    0.000    0.000    0.000    0.000    0.000    0.000 
#
# Total GULP energy -200937.606677 kJ/mol
# GULP energy per Si atom -5581.600185 kJ/mol
# Density = 1.787199 g / cm^3
# Si number density = 17.912759 Si / 1000 Ang^3
#
#
#
# Elastic Constant Matrix: (Units=GPa)
#
#
# Indices 1 2 3 4 5 6 
#
# 1 95.8241 38.8319 87.2157 0.0000 0.0000 0.0000
# 2 38.8319 87.9334 40.8699 0.0000 0.0000 0.0000
# 3 87.2157 40.8699 142.2775 0.0000 0.0000 0.0000
# 4 0.0000 0.0000 0.0000 8.9625 0.0000 0.0000
# 5 0.0000 0.0000 0.0000 0.0000 29.3613 0.0000
# 6 0.0000 0.0000 0.0000 0.0000 0.0000 26.8164
#
#
#
# Elastic Compliance Matrix: (Units=1/GPa)
#
#
# Indices 1 2 3 4 5 6 
#
# 1 0.025082 -0.004536 -0.014072 0.000000 0.000000 0.000000
# 2 -0.004536 0.013945 -0.001225 0.000000 0.000000 0.000000
# 3 -0.014072 -0.001225 0.016007 0.000000 0.000000 0.000000
# 4 0.000000 0.000000 0.000000 0.111576 0.000000 0.000000
# 5 0.000000 0.000000 0.000000 0.000000 0.034058 0.000000
# 6 0.000000 0.000000 0.000000 0.000000 0.000000 0.037291
#
#
# Mechanical properties :
#
#
# Convention : Reuss Voigt Hill
#
# Bulk Modulus (GPa) = 65.07529 73.31891 69.19710
# Shear Modulus (GPa) = 17.68363 23.63586 20.65975
#
# Velocity S-wave (km/s) = 3.14540 3.63643 3.39979
# Velocity P-wave (km/s) = 7.04267 7.65843 7.35699
#
# Compressibility (1/GPa) = 0.01536682
#
# Stress axis : x y z
#
# Youngs Moduli (GPa) = 39.86934 71.71151 62.47377
#
# Poissons Ratio (x) = 0.32527 0.87914
# Poissons Ratio (y) = 0.18084 0.07655
# Poissons Ratio (z) = 0.56105 0.08787
#
# Static dielectric constant tensor:
#      x y z
#    x 1.609710 0.000000 0.000000 
#    y 0.000000 1.609700 0.000000 
#    z 0.000000 0.000000 1.625640 
# 
# From -- ./inp_files/36972.got.cif
#   From: 2010.05.17/outbox.cif.g08.bks.cpg/sg65_19_cif.got.tgz:36972.got - 2010.06.03 17:01:31.
