data_PCOD9484357
_publ_section_title
;
Structure prediction by ZEFSAII (Michael W. Deem and Ramdas Pophale) SiO2 
 PCOD9484357
Probable space group: C M M M
;
_chemical_formula_sum "Si O2"
_cell_formula_units_Z 104
_cell_length_a 20.142928
_cell_length_b 8.512200
_cell_length_c 34.360969
_cell_angle_alpha 90.000000
_cell_angle_beta 90.000000
_cell_angle_gamma 90.000000
_cell_volume 5891.553451
_symmetry_space_group_name_H-M "C M M M"
_symmetry_group_IT_number 65
_symmetry_cell_setting 'orthorhombic'
loop_
_space_group_symop_operation_xyz
x,y,z
-x,-y,z
x,-y,-z
-x,y,-z
-x,-y,-z
x,y,-z
-x,y,z
x,-y,z
1/2+x,1/2+y,z
1/2-x,1/2-y,z
1/2+x,1/2-y,-z
1/2-x,1/2+y,-z
1/2-x,1/2-y,-z
1/2+x,1/2+y,-z
1/2-x,1/2+y,z
1/2+x,1/2-y,z
loop_
_atom_site_type_symbol
_atom_site_label
_atom_site_fract_x
_atom_site_fract_y
_atom_site_fract_z
Si Si1 0.824156 0.309947 0.389278
Si Si2 0.423332 0.810170 0.233544
Si Si3 0.324133 0.189780 0.698874
Si Si4 0.674665 0.813401 0.081939
Si Si5 0.922962 0.811980 0.147801
Si Si6 0.923591 0.308422 0.456172
Si Si7 0.825552 0.813027 0.000000
O O1 0.823595 0.500000 0.390017
O O2 0.750000 0.250000 0.396887
O O3 0.842701 0.261200 0.345188
O O4 0.874854 0.253811 0.422264
O O5 0.500000 0.767965 0.241697
O O6 0.375211 0.756963 0.268112
O O7 0.405334 0.740380 0.191588
O O8 0.419729 0.000000 0.230960
O O9 0.250000 0.250000 0.706648
O O10 0.323326 0.000000 0.699404
O O11 0.750000 0.750000 0.087263
O O12 0.627132 0.761133 0.116798
O O13 0.646591 0.748603 0.040834
O O14 0.678550 0.000000 0.079605
O O15 0.000000 0.763263 0.141033
O O16 0.919772 0.000000 0.145047
O O17 0.903974 0.259904 0.500000
O O18 0.922777 0.500000 0.455758
O O19 0.000000 0.261003 0.449612
O O20 0.750000 0.750000 0.000000
O O21 0.825532 0.000000 0.000000
#
# Coordination Sequence:
#
# PCOD9484357 Si02
#       7
#    16  16  16  16  16  16   8
#     4   9  17  29  45  66  92 121 153 190 235 285
#     4   9  18  33  51  70  93 123 160 200 242 289
#     4   9  18  31  47  68  94 123 154 193 239 286
#     4  11  21  35  56  81 108 138 175 214 254 300
#     4  10  21  37  55  76 104 136 169 207 253 302
#     4   8  14  25  42  65  91 118 152 195 237 276
#     4  10  18  32  53  78 109 140 173 213 257 301
#
# _framework density 17.652391000000001
#
# number of rings (size 3 to 8) (size 9 to 14) (size 15 to 20)
#    0.000    2.615    0.000    3.923    0.000    3.077 
#    0.000    5.000    0.000    2.769    0.000    5.385 
#    0.000    0.000    0.000    0.000    0.000    0.000 
#
# Total GULP energy -289945.311961 kJ/mol
# GULP energy per Si atom -5575.871384 kJ/mol
# Density = 1.761221 g / cm^3
# Si number density = 17.652391 Si / 1000 Ang^3
#
#
#
# Elastic Constant Matrix: (Units=GPa)
#
#
# Indices 1 2 3 4 5 6 
#
# 1 94.4358 31.4421 119.3728 0.0000 0.0000 0.0000
# 2 31.4421 49.6379 45.8141 0.0000 0.0000 0.0000
# 3 119.3728 45.8141 193.3442 0.0000 0.0000 0.0000
# 4 0.0000 0.0000 0.0000 16.4043 0.0000 0.0000
# 5 0.0000 0.0000 0.0000 0.0000 170.8551 0.0000
# 6 0.0000 0.0000 0.0000 0.0000 0.0000 22.9216
#
#
#
# Elastic Compliance Matrix: (Units=1/GPa)
#
#
# Indices 1 2 3 4 5 6 
#
# 1 0.048836 -0.003974 -0.029210 0.000000 0.000000 0.000000
# 2 -0.003974 0.026109 -0.003733 0.000000 0.000000 0.000000
# 3 -0.029210 -0.003733 0.024091 0.000000 0.000000 0.000000
# 4 0.000000 0.000000 0.000000 0.060960 0.000000 0.000000
# 5 0.000000 0.000000 0.000000 0.000000 0.005853 0.000000
# 6 0.000000 0.000000 0.000000 0.000000 0.000000 0.043627
#
#
# Mechanical properties :
#
#
# Convention : Reuss Voigt Hill
#
# Bulk Modulus (GPa) = 39.68032 81.18621 60.43326
# Shear Modulus (GPa) = 17.14033 51.42211 34.28122
#
# Velocity S-wave (km/s) = 3.11946 5.40311 4.41161
# Velocity P-wave (km/s) = 5.95837 9.22043 7.76268
#
# Compressibility (1/GPa) = 0.02520141
#
# Stress axis : x y z
#
# Youngs Moduli (GPa) = 20.47685 38.30156 41.50892
#
# Poissons Ratio (x) = 0.15222 1.21247
# Poissons Ratio (y) = 0.08138 0.15495
# Poissons Ratio (z) = 0.59813 0.14298
#
# Static dielectric constant tensor:
#      x y z
#    x 1.575030 0.000000 0.000000 
#    y 0.000000 1.604130 0.000000 
#    z 0.000000 0.000000 1.608590 
# 
# From -- ./inp_files/78194.got.cif
#   From: 2010.05.17/outbox.cif.g08.bks.cpg/sg65_40_cif.got.tgz:78194.got - 2010.06.03 17:01:31.
