data_PCOD9484594
_publ_section_title
;
Structure prediction by ZEFSAII (Michael W. Deem and Ramdas Pophale) SiO2 
 PCOD9484594
Probable space group: C M M M
;
_chemical_formula_sum "Si O2"
_cell_formula_units_Z 80
_cell_length_a 24.137752
_cell_length_b 7.412748
_cell_length_c 20.973095
_cell_angle_alpha 90.000000
_cell_angle_beta 90.000000
_cell_angle_gamma 90.000000
_cell_volume 3752.654497
_symmetry_space_group_name_H-M "C M M M"
_symmetry_group_IT_number 65
_symmetry_cell_setting 'orthorhombic'
loop_
_space_group_symop_operation_xyz
x,y,z
-x,-y,z
x,-y,-z
-x,y,-z
-x,-y,-z
x,y,-z
-x,y,z
x,-y,z
1/2+x,1/2+y,z
1/2-x,1/2-y,z
1/2+x,1/2-y,-z
1/2-x,1/2+y,-z
1/2-x,1/2-y,-z
1/2+x,1/2+y,-z
1/2-x,1/2+y,z
1/2+x,1/2-y,z
loop_
_atom_site_type_symbol
_atom_site_label
_atom_site_fract_x
_atom_site_fract_y
_atom_site_fract_z
Si Si1 0.888876 0.709280 0.633191
Si Si2 0.815167 0.715877 0.254451
Si Si3 0.185054 0.714956 0.000000
Si Si4 0.500000 0.283612 0.710339
Si Si5 0.000000 0.706820 0.141401
Si Si6 0.622607 0.778253 0.126302
Si Si7 0.935120 0.721547 0.500000
O O1 0.874412 0.500000 0.622138
O O2 0.841967 0.787335 0.679879
O O3 0.903992 0.784380 0.563819
O O4 0.945578 0.719690 0.673491
O O5 0.823140 0.500000 0.255454
O O6 0.750000 0.750000 0.249050
O O7 0.848495 0.781283 0.192144
O O8 0.250000 0.750000 0.000000
O O9 0.157051 0.781557 0.064918
O O10 0.176762 0.500000 0.000000
O O11 0.500000 0.500000 0.712462
O O12 0.500000 0.210931 0.781850
O O13 0.940878 0.784590 0.121471
O O14 0.000000 0.500000 0.118590
O O15 0.622022 0.000000 0.127928
O O16 0.935945 0.500000 0.500000
O O17 0.000000 0.775783 0.500000
#
# Coordination Sequence:
#
# PCOD9484594 Si02
#       7
#    16  16   8   8   8  16   8
#     4  10  19  35  56  77 105 139 178 215 258 316
#     4  10  20  34  53  75 102 139 179 219 257 303
#     4  10  20  35  53  79 109 140 181 216 256 307
#     4  12  22  31  50  83 114 137 168 216 271 319
#     4  10  18  35  57  77 106 139 173 216 269 319
#     4   9  18  32  55  81 104 135 175 217 260 310
#     4   9  16  28  55  84  98 128 178 220 251 306
#
# _framework density 21.318242999999999
#
# number of rings (size 3 to 8) (size 9 to 14) (size 15 to 20)
#    0.000    2.100    3.000    1.500    0.000    1.200 
#    0.000    4.500    0.000    0.000    0.000    1.400 
#    0.000    0.000    0.000    0.000    0.000    0.000 
#
# Total GULP energy -223409.545194 kJ/mol
# GULP energy per Si atom -5585.238630 kJ/mol
# Density = 2.126972 g / cm^3
# Si number density = 21.318243 Si / 1000 Ang^3
#
#
#
# Elastic Constant Matrix: (Units=GPa)
#
#
# Indices 1 2 3 4 5 6 
#
# 1 191.3954 -5.8886 106.6508 0.0000 0.0000 0.0000
# 2 -5.8886 75.7398 8.1656 0.0000 0.0000 0.0000
# 3 106.6508 8.1656 171.2768 0.0000 0.0000 0.0000
# 4 0.0000 0.0000 0.0000 -10.9221 0.0000 0.0000
# 5 0.0000 0.0000 0.0000 0.0000 61.6774 0.0000
# 6 0.0000 0.0000 0.0000 0.0000 0.0000 16.8427
#
#
#
# Elastic Compliance Matrix: (Units=1/GPa)
#
#
# Indices 1 2 3 4 5 6 
#
# 1 0.008105 0.001180 -0.005103 0.000000 0.000000 0.000000
# 2 0.001180 0.013443 -0.001376 0.000000 0.000000 0.000000
# 3 -0.005103 -0.001376 0.009082 0.000000 0.000000 0.000000
# 4 0.000000 0.000000 0.000000 -0.091557 0.000000 0.000000
# 5 0.000000 0.000000 0.000000 0.000000 0.016213 0.000000
# 6 0.000000 0.000000 0.000000 0.000000 0.000000 0.059373
#
#
# Mechanical properties :
#
#
# Convention : Reuss Voigt Hill
#
# Bulk Modulus (GPa) = 49.91892 72.91861 61.41877
# Shear Modulus (GPa) = 156.57950 35.48520 96.03235
#
# Velocity S-wave (km/s) = 8.57951 4.08431 6.71899
# Velocity P-wave (km/s) = 11.02774 7.51806 9.43748
#
# Compressibility (1/GPa) = 0.02003248
#
# Stress axis : x y z
#
# Youngs Moduli (GPa) = 123.38800 74.38706 110.11387
#
# Poissons Ratio (x) = -0.08780 0.56189
# Poissons Ratio (y) = -0.14563 0.15150
# Poissons Ratio (z) = 0.62962 0.10234
#
# Static dielectric constant tensor:
#      x y z
#    x 1.766010 0.000000 0.000000 
#    y 0.000000 1.826590 0.000000 
#    z 0.000000 0.000000 1.751880 
# 
# From -- ./inp_files/65096.got.cif
#   From: 2010.05.17/outbox.cif.g08.bks.cpg/sg65_33_cif.got.tgz:65096.got - 2010.06.03 17:01:31.
