data_PCOD9484821
_publ_section_title
;
Structure prediction by ZEFSAII (Michael W. Deem and Ramdas Pophale) SiO2 
 PCOD9484821
Probable space group: C M M M
;
_chemical_formula_sum "Si O2"
_cell_formula_units_Z 116
_cell_length_a 30.155614
_cell_length_b 25.467625
_cell_length_c 7.446787
_cell_angle_alpha 90.000000
_cell_angle_beta 90.000000
_cell_angle_gamma 90.000000
_cell_volume 5719.071866
_symmetry_space_group_name_H-M "C M M M"
_symmetry_group_IT_number 65
_symmetry_cell_setting 'orthorhombic'
loop_
_space_group_symop_operation_xyz
x,y,z
-x,-y,z
x,-y,-z
-x,y,-z
-x,-y,-z
x,y,-z
-x,y,z
x,-y,z
1/2+x,1/2+y,z
1/2-x,1/2-y,z
1/2+x,1/2-y,-z
1/2-x,1/2+y,-z
1/2-x,1/2-y,-z
1/2+x,1/2+y,-z
1/2-x,1/2+y,z
1/2+x,1/2-y,z
loop_
_atom_site_type_symbol
_atom_site_label
_atom_site_fract_x
_atom_site_fract_y
_atom_site_fract_z
Si Si1 0.050026 0.756551 0.216428
Si Si2 0.805695 0.696484 0.798293
Si Si3 0.163735 0.500000 0.500000
Si Si4 0.949954 0.939886 0.280825
Si Si5 0.049690 0.636357 0.782157
Si Si6 0.884758 0.148897 0.288376
Si Si7 0.206499 0.186462 0.704442
Si Si8 0.857510 0.591519 0.781007
O O1 0.058332 0.696619 0.275740
O O2 0.086484 0.798180 0.273376
O O3 0.000000 0.771474 0.275234
O O4 0.049994 0.756177 0.000000
O O5 0.807312 0.752062 0.699714
O O6 0.753580 0.681993 0.799793
O O7 0.833677 0.646882 0.735724
O O8 0.821353 0.708027 0.000000
O O9 0.161812 0.454161 0.658955
O O10 0.949813 0.938599 0.500000
O O11 0.914090 0.898537 0.214552
O O12 0.000000 0.925699 0.224874
O O13 0.941243 0.000000 0.228177
O O14 0.090381 0.599162 0.734521
O O15 0.000000 0.621361 0.722708
O O16 0.048942 0.637523 0.000000
O O17 0.878545 0.138990 0.500000
O O18 0.835489 0.156626 0.214219
O O19 0.214411 0.169229 0.500000
O O20 0.853271 0.583800 0.000000
#
# Coordination Sequence:
#
# PCOD9484821 Si02
#       8
#    16  16   4  16  16  16  16  16
#     4   9  17  29  47  73 105 143 181 214 262 331
#     4  10  20  36  59  81 107 142 180 219 269 336
#     4  12  26  40  65  86 112 148 188 244 283 318
#     4   8  14  26  45  65  90 132 181 219 252 298
#     4   8  15  32  56  79 109 146 179 217 270 331
#     4  10  19  29  44  72 107 136 170 221 274 316
#     4  10  20  31  51  83 118 140 169 218 275 343
#     4  10  22  40  62  86 112 148 193 234 280 338
#
# _framework density 20.283011999999999
#
# number of rings (size 3 to 8) (size 9 to 14) (size 15 to 20)
#    0.000    2.621    0.000    4.345    1.931    3.034 
#    1.241    1.034    1.517    2.069    0.000    1.931 
#    0.000    0.000    0.000    0.000    0.000    0.000 
#
# Total GULP energy -323086.704939 kJ/mol
# GULP energy per Si atom -5570.460430 kJ/mol
# Density = 2.023685 g / cm^3
# Si number density = 20.283012 Si / 1000 Ang^3
#
#
#
# Elastic Constant Matrix: (Units=GPa)
#
#
# Indices 1 2 3 4 5 6 
#
# 1 74.5099 22.1158 5.1888 0.0000 0.0000 0.0000
# 2 22.1158 31.6305 11.2340 0.0000 0.0000 0.0000
# 3 5.1888 11.2340 72.6469 0.0000 0.0000 0.0000
# 4 0.0000 0.0000 0.0000 5.0142 0.0000 0.0000
# 5 0.0000 0.0000 0.0000 0.0000 229.0901 0.0000
# 6 0.0000 0.0000 0.0000 0.0000 0.0000 14.4693
#
#
#
# Elastic Compliance Matrix: (Units=1/GPa)
#
#
# Indices 1 2 3 4 5 6 
#
# 1 0.016965 -0.012096 0.000659 0.000000 0.000000 0.000000
# 2 -0.012096 0.042077 -0.005643 0.000000 0.000000 0.000000
# 3 0.000659 -0.005643 0.014591 0.000000 0.000000 0.000000
# 4 0.000000 0.000000 0.000000 0.199435 0.000000 0.000000
# 5 0.000000 0.000000 0.000000 0.000000 0.004365 0.000000
# 6 0.000000 0.000000 0.000000 0.000000 0.000000 0.069112
#
#
# Mechanical properties :
#
#
# Convention : Reuss Voigt Hill
#
# Bulk Modulus (GPa) = 25.33392 28.42938 26.88165
# Shear Modulus (GPa) = 12.69480 59.06463 35.87972
#
# Velocity S-wave (km/s) = 2.50448 5.40217 4.21046
# Velocity P-wave (km/s) = 4.56953 7.27723 6.07613
#
# Compressibility (1/GPa) = 0.03947277
#
# Stress axis : x y z
#
# Youngs Moduli (GPa) = 58.94331 23.76621 68.53659
#
# Poissons Ratio (x) = 0.28748 -0.04515
# Poissons Ratio (y) = 0.71298 0.38673
# Poissons Ratio (z) = -0.03883 0.13411
#
# Static dielectric constant tensor:
#      x y z
#    x 1.736670 0.000000 0.000000 
#    y 0.000000 1.683410 0.000000 
#    z 0.000000 0.000000 1.730830 
# 
# From -- ./inp_files/17060.got.cif
#   From: 2010.05.17/outbox.cif.g08.bks.cpg/sg65_9_cif.got.tgz:17060.got - 2010.06.03 17:01:31.
