data_PCOD9484225
_publ_section_title
;
Structure prediction by ZEFSAII (Michael W. Deem and Ramdas Pophale) SiO2 
 PCOD9484225
Probable space group: C M M M
;
_chemical_formula_sum "Si O2"
_cell_formula_units_Z 104
_cell_length_a 28.567299
_cell_length_b 23.647567
_cell_length_c 8.090187
_cell_angle_alpha 90.000000
_cell_angle_beta 90.000000
_cell_angle_gamma 90.000000
_cell_volume 5465.302505
_symmetry_space_group_name_H-M "C M M M"
_symmetry_group_IT_number 65
_symmetry_cell_setting 'orthorhombic'
loop_
_space_group_symop_operation_xyz
x,y,z
-x,-y,z
x,-y,-z
-x,y,-z
-x,-y,-z
x,y,-z
-x,y,z
x,-y,z
1/2+x,1/2+y,z
1/2-x,1/2-y,z
1/2+x,1/2-y,-z
1/2-x,1/2+y,-z
1/2-x,1/2-y,-z
1/2+x,1/2+y,-z
1/2-x,1/2+y,z
1/2+x,1/2-y,z
loop_
_atom_site_type_symbol
_atom_site_label
_atom_site_fract_x
_atom_site_fract_y
_atom_site_fract_z
Si Si1 0.000000 0.568494 0.309788
Si Si2 0.447096 0.565916 0.298300
Si Si3 0.353110 0.376637 0.302254
Si Si4 0.739104 0.563048 0.297860
Si Si5 0.398680 0.065758 0.193888
Si Si6 0.802041 0.236163 0.808723
Si Si7 0.180122 0.353606 0.308248
O O1 0.951938 0.585107 0.222927
O O2 0.000000 0.500000 0.307479
O O3 0.000000 0.586982 0.500000
O O4 0.447614 0.567829 0.500000
O O5 0.500000 0.581028 0.243630
O O6 0.438357 0.500000 0.254092
O O7 0.404494 0.605643 0.239407
O O8 0.355375 0.382053 0.500000
O O9 0.313046 0.420372 0.244738
O O10 0.331937 0.314755 0.266790
O O11 0.740529 0.563256 0.500000
O O12 0.752401 0.500000 0.243533
O O13 0.775091 0.611358 0.243205
O O14 0.363214 0.104396 0.292544
O O15 0.394794 0.000000 0.246153
O O16 0.387545 0.068808 0.000000
O O17 0.750000 0.250000 0.736893
O O18 0.827819 0.295890 0.788614
O O19 0.795295 0.221380 0.000000
O O20 0.188180 0.339257 0.500000
#
# Coordination Sequence:
#
# PCOD9484225 Si02
#       7
#     8  16  16  16  16  16  16
#     4   9  17  31  53  79 105 137 179 219 254 301
#     4   8  14  26  49  84 119 144 170 213 269 323
#     4  10  18  31  54  79 105 139 181 220 258 313
#     4   9  17  28  46  76 108 134 164 209 262 313
#     4  10  20  34  53  79 112 145 174 211 268 329
#     4  11  23  38  54  72 101 139 180 223 272 327
#     4  11  21  34  54  77 104 136 179 228 268 315
#
# _framework density 19.029138
#
# number of rings (size 3 to 8) (size 9 to 14) (size 15 to 20)
#    0.000    2.231    1.538    3.000    0.000    4.923 
#    0.000    0.000    1.692    3.231    0.000    1.077 
#    0.000    0.000    0.000    0.000    0.000    0.000 
#
# Total GULP energy -290016.351473 kJ/mol
# GULP energy per Si atom -5577.237528 kJ/mol
# Density = 1.898583 g / cm^3
# Si number density = 19.029138 Si / 1000 Ang^3
#
#
#
# Elastic Constant Matrix: (Units=GPa)
#
#
# Indices 1 2 3 4 5 6 
#
# 1 123.8288 42.0183 4.7034 0.0000 0.0000 0.0000
# 2 42.0183 83.5263 -2.5414 0.0000 0.0000 0.0000
# 3 4.7034 -2.5414 15.7583 0.0000 0.0000 0.0000
# 4 0.0000 0.0000 0.0000 2.2273 0.0000 0.0000
# 5 0.0000 0.0000 0.0000 0.0000 12.6480 0.0000
# 6 0.0000 0.0000 0.0000 0.0000 0.0000 15.5333
#
#
#
# Elastic Compliance Matrix: (Units=1/GPa)
#
#
# Indices 1 2 3 4 5 6 
#
# 1 0.009959 -0.005126 -0.003799 0.000000 0.000000 0.000000
# 2 -0.005126 0.014669 0.003896 0.000000 0.000000 0.000000
# 3 -0.003799 0.003896 0.065221 0.000000 0.000000 0.000000
# 4 0.000000 0.000000 0.000000 0.448974 0.000000 0.000000
# 5 0.000000 0.000000 0.000000 0.000000 0.079064 0.000000
# 6 0.000000 0.000000 0.000000 0.000000 0.000000 0.064378
#
#
# Mechanical properties :
#
#
# Convention : Reuss Voigt Hill
#
# Bulk Modulus (GPa) = 12.53273 34.60821 23.57047
# Shear Modulus (GPa) = 6.95488 18.01061 12.48274
#
# Velocity S-wave (km/s) = 1.91384 3.07982 2.56399
# Velocity P-wave (km/s) = 3.38882 5.55639 4.60204
#
# Compressibility (1/GPa) = 0.07979108
#
# Stress axis : x y z
#
# Youngs Moduli (GPa) = 100.40944 68.16968 15.33251
#
# Poissons Ratio (x) = 0.34941 0.05825
# Poissons Ratio (y) = 0.51466 -0.05973
# Poissons Ratio (z) = 0.38147 -0.26557
#
# Static dielectric constant tensor:
#      x y z
#    x 1.684520 0.000000 0.000000 
#    y 0.000000 1.647950 0.000000 
#    z 0.000000 0.000000 1.692540 
# 
# From -- ./inp_files/16449.got.cif
#   From: 2010.05.17/outbox.cif.g08.bks.cpg/sg65_9_cif.got.tgz:16449.got - 2010.06.03 17:01:31.
