data_PCOD9484473
_publ_section_title
;
Structure prediction by ZEFSAII (Michael W. Deem and Ramdas Pophale) SiO2 
 PCOD9484473
Probable space group: C M M M
;
_chemical_formula_sum "Si O2"
_cell_formula_units_Z 64
_cell_length_a 34.436646
_cell_length_b 8.909349
_cell_length_c 10.985619
_cell_angle_alpha 90.000000
_cell_angle_beta 90.000000
_cell_angle_gamma 90.000000
_cell_volume 3370.476866
_symmetry_space_group_name_H-M "C M M M"
_symmetry_group_IT_number 65
_symmetry_cell_setting 'orthorhombic'
loop_
_space_group_symop_operation_xyz
x,y,z
-x,-y,z
x,-y,-z
-x,y,-z
-x,-y,-z
x,y,-z
-x,y,z
x,-y,z
1/2+x,1/2+y,z
1/2-x,1/2-y,z
1/2+x,1/2-y,-z
1/2-x,1/2+y,-z
1/2-x,1/2-y,-z
1/2+x,1/2+y,-z
1/2-x,1/2+y,z
1/2+x,1/2-y,z
loop_
_atom_site_type_symbol
_atom_site_label
_atom_site_fract_x
_atom_site_fract_y
_atom_site_fract_z
Si Si1 0.293030 0.681771 0.000000
Si Si2 0.500000 0.661184 0.856967
Si Si3 0.925471 0.670620 0.766674
Si Si4 0.331431 0.323140 0.500000
Si Si5 0.410787 0.167469 0.500000
Si Si6 0.165885 0.317997 0.239189
O O1 0.250000 0.750000 0.000000
O O2 0.313366 0.744350 0.877064
O O3 0.292962 0.500000 0.000000
O O4 0.500000 0.500000 0.793929
O O5 0.540377 0.740211 0.827407
O O6 0.500000 0.646030 0.000000
O O7 0.926560 0.500000 0.811464
O O8 0.934352 0.673980 0.622777
O O9 0.880318 0.718454 0.774781
O O10 0.322329 0.500000 0.500000
O O11 0.377821 0.292861 0.500000
O O12 0.319573 0.246266 0.370616
O O13 0.390796 0.000000 0.500000
O O14 0.169804 0.500000 0.238700
#
# Coordination Sequence:
#
# PCOD9484473 Si02
#       6
#     8   8  16   8   8  16
#     4  12  26  44  66  95 128 161 198 246 299 360
#     4  11  25  38  47  70 112 153 194 247 298 343
#     4   9  19  36  59  82 108 148 194 238 289 351
#     4  10  18  32  58  94 126 159 201 247 299 358
#     4   8  16  33  55  81 110 143 188 243 297 351
#     4  10  21  40  65  92 123 162 205 250 302 362
#
# _framework density 18.988409999999998
#
# number of rings (size 3 to 8) (size 9 to 14) (size 15 to 20)
#    0.000    2.125    0.000    4.875    1.750    6.500 
#    0.000    3.125    0.000    0.000    0.000    0.000 
#    0.000    0.000    0.000    0.000    0.000    0.000 
#
# Total GULP energy -178239.352903 kJ/mol
# GULP energy per Si atom -5569.979778 kJ/mol
# Density = 1.894519 g / cm^3
# Si number density = 18.988410 Si / 1000 Ang^3
#
#
#
# Elastic Constant Matrix: (Units=GPa)
#
#
# Indices 1 2 3 4 5 6 
#
# 1 92.7158 60.3581 72.8626 0.0000 0.0000 0.0000
# 2 60.3581 113.4976 80.2266 0.0000 0.0000 0.0000
# 3 72.8626 80.2266 157.5013 0.0000 0.0000 0.0000
# 4 0.0000 0.0000 0.0000 32.0073 0.0000 0.0000
# 5 0.0000 0.0000 0.0000 0.0000 42.7600 0.0000
# 6 0.0000 0.0000 0.0000 0.0000 0.0000 3.8445
#
#
#
# Elastic Compliance Matrix: (Units=1/GPa)
#
#
# Indices 1 2 3 4 5 6 
#
# 1 0.019391 -0.006206 -0.005810 0.000000 0.000000 0.000000
# 2 -0.006206 0.015754 -0.005154 0.000000 0.000000 0.000000
# 3 -0.005810 -0.005154 0.011662 0.000000 0.000000 0.000000
# 4 0.000000 0.000000 0.000000 0.031243 0.000000 0.000000
# 5 0.000000 0.000000 0.000000 0.000000 0.023386 0.000000
# 6 0.000000 0.000000 0.000000 0.000000 0.000000 0.260114
#
#
# Mechanical properties :
#
#
# Convention : Reuss Voigt Hill
#
# Bulk Modulus (GPa) = 80.19950 87.84546 84.02248
# Shear Modulus (GPa) = 12.49860 25.74017 19.11938
#
# Velocity S-wave (km/s) = 2.56837 3.68580 3.17661
# Velocity P-wave (km/s) = 7.15004 8.02974 7.60262
#
# Compressibility (1/GPa) = 0.01246891
#
# Stress axis : x y z
#
# Youngs Moduli (GPa) = 51.56976 63.47641 85.74858
#
# Poissons Ratio (x) = 0.39391 0.49818
# Poissons Ratio (y) = 0.32002 0.44193
# Poissons Ratio (z) = 0.29961 0.32714
#
# Static dielectric constant tensor:
#      x y z
#    x 1.645620 0.000000 0.000000 
#    y 0.000000 1.725850 0.000000 
#    z 0.000000 0.000000 1.680510 
# 
# From -- ./inp_files/33274.got.cif
#   From: 2010.05.17/outbox.cif.g08.bks.cpg/sg65_17_cif.got.tgz:33274.got - 2010.06.03 17:01:31.
