data_PCOD9484349
_publ_section_title
;
Structure prediction by ZEFSAII (Michael W. Deem and Ramdas Pophale) SiO2 
 PCOD9484349
Probable space group: C M M M
;
_chemical_formula_sum "Si O2"
_cell_formula_units_Z 104
_cell_length_a 8.762709
_cell_length_b 20.175639
_cell_length_c 33.803541
_cell_angle_alpha 90.000000
_cell_angle_beta 90.000000
_cell_angle_gamma 90.000000
_cell_volume 5976.237991
_symmetry_space_group_name_H-M "C M M M"
_symmetry_group_IT_number 65
_symmetry_cell_setting 'orthorhombic'
loop_
_space_group_symop_operation_xyz
x,y,z
-x,-y,z
x,-y,-z
-x,y,-z
-x,-y,-z
x,y,-z
-x,y,z
x,-y,z
1/2+x,1/2+y,z
1/2-x,1/2-y,z
1/2+x,1/2-y,-z
1/2-x,1/2+y,-z
1/2-x,1/2-y,-z
1/2+x,1/2+y,-z
1/2-x,1/2+y,z
1/2+x,1/2-y,z
loop_
_atom_site_type_symbol
_atom_site_label
_atom_site_fract_x
_atom_site_fract_y
_atom_site_fract_z
Si Si1 0.182344 0.824303 0.417900
Si Si2 0.683100 0.824649 0.500000
Si Si3 0.683874 0.923007 0.045178
Si Si4 0.182528 0.822618 0.108545
Si Si5 0.316381 0.076246 0.261804
Si Si6 0.182361 0.822476 0.800919
Si Si7 0.816438 0.577723 0.646585
O O1 0.250000 0.750000 0.411970
O O2 0.252831 0.852652 0.458894
O O3 0.231908 0.872441 0.382574
O O4 0.000000 0.819375 0.421333
O O5 0.500000 0.823994 0.500000
O O6 0.750000 0.750000 0.500000
O O7 0.500000 0.918481 0.047445
O O8 0.756529 0.875314 0.077308
O O9 0.725340 0.000000 0.051878
O O10 0.728252 0.905675 0.000000
O O11 0.250000 0.750000 0.100115
O O12 0.226861 0.840159 0.153833
O O13 0.000000 0.819359 0.106677
O O14 0.500000 0.080261 0.258865
O O15 0.242714 0.125321 0.230637
O O16 0.276967 0.091435 0.307503
O O17 0.271928 0.000000 0.254021
O O18 0.250000 0.750000 0.792538
O O19 0.000000 0.819125 0.799209
O O20 0.781633 0.500000 0.638763
O O21 0.000000 0.585624 0.642313
#
# Coordination Sequence:
#
# PCOD9484349 Si02
#       7
#    16   8  16  16  16  16  16
#     4  11  21  34  54  80 108 138 176 217 259 309
#     4  10  18  32  53  76 105 138 173 215 263 309
#     4   9  19  36  56  78 105 137 173 213 257 306
#     4  10  21  36  54  77 105 138 175 214 259 309
#     4   9  19  36  57  79 104 137 175 213 257 312
#     4  10  21  36  54  77 106 138 173 216 261 307
#     4   9  19  37  57  77 105 139 174 214 261 311
#
# _framework density 17.402251
#
# number of rings (size 3 to 8) (size 9 to 14) (size 15 to 20)
#    0.000    2.308    0.000    5.308    0.000    5.231 
#    0.000    5.769    0.000    2.308    0.000    0.000 
#    0.000    0.000    0.000    0.000    0.000    0.000 
#
# Total GULP energy -290162.495584 kJ/mol
# GULP energy per Si atom -5580.047992 kJ/mol
# Density = 1.736264 g / cm^3
# Si number density = 17.402251 Si / 1000 Ang^3
#
#
#
# Elastic Constant Matrix: (Units=GPa)
#
#
# Indices 1 2 3 4 5 6 
#
# 1 81.8551 59.1585 72.1035 0.0000 0.0000 0.0000
# 2 59.1585 106.7083 118.7519 0.0000 0.0000 0.0000
# 3 72.1035 118.7519 163.3417 0.0000 0.0000 0.0000
# 4 0.0000 0.0000 0.0000 50.7346 0.0000 0.0000
# 5 0.0000 0.0000 0.0000 0.0000 34.3916 0.0000
# 6 0.0000 0.0000 0.0000 0.0000 0.0000 32.6052
#
#
#
# Elastic Compliance Matrix: (Units=1/GPa)
#
#
# Indices 1 2 3 4 5 6 
#
# 1 0.020921 -0.006919 -0.004205 0.000000 0.000000 0.000000
# 2 -0.006919 0.051371 -0.034293 0.000000 0.000000 0.000000
# 3 -0.004205 -0.034293 0.032910 0.000000 0.000000 0.000000
# 4 0.000000 0.000000 0.000000 0.019710 0.000000 0.000000
# 5 0.000000 0.000000 0.000000 0.000000 0.029077 0.000000
# 6 0.000000 0.000000 0.000000 0.000000 0.000000 0.030670
#
#
# Mechanical properties :
#
#
# Convention : Reuss Voigt Hill
#
# Bulk Modulus (GPa) = 69.60037 94.65921 82.12979
# Shear Modulus (GPa) = 17.83914 30.33903 24.08908
#
# Velocity S-wave (km/s) = 3.20520 4.17993 3.72459
# Velocity P-wave (km/s) = 7.33346 8.82092 8.11136
#
# Compressibility (1/GPa) = 0.01436774
#
# Stress axis : x y z
#
# Youngs Moduli (GPa) = 47.79821 19.46633 30.38604
#
# Poissons Ratio (x) = 0.13469 0.12777
# Poissons Ratio (y) = 0.33072 1.04203
# Poissons Ratio (z) = 0.20099 0.66756
#
# Static dielectric constant tensor:
#      x y z
#    x 1.583560 0.000000 0.000000 
#    y 0.000000 1.562940 0.000000 
#    z 0.000000 0.000000 1.596870 
# 
# From -- ./inp_files/73349.got.cif
#   From: 2010.05.17/outbox.cif.g08.bks.cpg/sg65_37_cif.got.tgz:73349.got - 2010.06.03 17:01:31.
