data_PCOD9484366
_publ_section_title
;
Structure prediction by ZEFSAII (Michael W. Deem and Ramdas Pophale) SiO2 
 PCOD9484366
Probable space group: C M M M
;
_chemical_formula_sum "Si O2"
_cell_formula_units_Z 80
_cell_length_a 21.843598
_cell_length_b 14.546569
_cell_length_c 13.019425
_cell_angle_alpha 90.000000
_cell_angle_beta 90.000000
_cell_angle_gamma 90.000000
_cell_volume 4136.914554
_symmetry_space_group_name_H-M "C M M M"
_symmetry_group_IT_number 65
_symmetry_cell_setting 'orthorhombic'
loop_
_space_group_symop_operation_xyz
x,y,z
-x,-y,z
x,-y,-z
-x,y,-z
-x,-y,-z
x,y,-z
-x,y,z
x,-y,z
1/2+x,1/2+y,z
1/2-x,1/2-y,z
1/2+x,1/2-y,-z
1/2-x,1/2+y,-z
1/2-x,1/2-y,-z
1/2+x,1/2+y,-z
1/2-x,1/2+y,z
1/2+x,1/2-y,z
loop_
_atom_site_type_symbol
_atom_site_label
_atom_site_fract_x
_atom_site_fract_y
_atom_site_fract_z
Si Si1 0.429734 0.270331 0.191342
Si Si2 0.133532 0.395668 0.714209
Si Si3 0.425545 0.394748 0.000000
Si Si4 0.930095 0.611351 0.500000
Si Si5 0.744264 0.360075 0.615708
Si Si6 0.399439 0.606299 0.618307
O O1 0.500000 0.243148 0.170665
O O2 0.388949 0.179808 0.205684
O O3 0.407797 0.337606 0.100882
O O4 0.427873 0.328729 0.296449
O O5 0.112784 0.500000 0.735517
O O6 0.104716 0.363829 0.604428
O O7 0.206115 0.395773 0.695548
O O8 0.403403 0.500000 0.000000
O O9 0.500000 0.398811 0.000000
O O10 0.931754 0.500000 0.500000
O O11 0.000000 0.644996 0.500000
O O12 0.760767 0.391555 0.500000
O O13 0.750000 0.250000 0.617316
O O14 0.674201 0.387363 0.632599
O O15 0.412398 0.633712 0.500000
O O16 0.418231 0.500000 0.631094
#
# Coordination Sequence:
#
# PCOD9484366 Si02
#       6
#    16  16   8   8  16  16
#     4  11  23  38  59  85 113 146 190 239 287 342
#     4  11  21  34  54  81 117 158 192 230 278 331
#     4   9  20  42  67  84 103 143 197 243 284 341
#     4   9  18  30  45  72 113 159 197 222 259 325
#     4  10  18  32  53  78 113 158 201 234 270 327
#     4  10  21  35  54  83 117 150 185 233 291 345
#
# _framework density 19.338083000000001
#
# number of rings (size 3 to 8) (size 9 to 14) (size 15 to 20)
#    0.000    1.800    3.000    1.800    1.400    3.600 
#    0.000    1.500    0.000    4.200    0.000    2.800 
#    0.000    0.000    0.000    0.000    0.000    0.000 
#
# Total GULP energy -223450.494464 kJ/mol
# GULP energy per Si atom -5586.262362 kJ/mol
# Density = 1.929407 g / cm^3
# Si number density = 19.338083 Si / 1000 Ang^3
#
#
#
# Elastic Constant Matrix: (Units=GPa)
#
#
# Indices 1 2 3 4 5 6 
#
# 1 52.5409 8.8851 13.5884 0.0000 0.0000 0.0000
# 2 8.8851 131.6408 57.1764 0.0000 0.0000 0.0000
# 3 13.5884 57.1764 77.3766 0.0000 0.0000 0.0000
# 4 0.0000 0.0000 0.0000 24.0134 0.0000 0.0000
# 5 0.0000 0.0000 0.0000 0.0000 11.1109 0.0000
# 6 0.0000 0.0000 0.0000 0.0000 0.0000 17.4939
#
#
#
# Elastic Compliance Matrix: (Units=1/GPa)
#
#
# Indices 1 2 3 4 5 6 
#
# 1 0.019944 0.000258 -0.003693 0.000000 0.000000 0.000000
# 2 0.000258 0.011190 -0.008314 0.000000 0.000000 0.000000
# 3 -0.003693 -0.008314 0.019716 0.000000 0.000000 0.000000
# 4 0.000000 0.000000 0.000000 0.041643 0.000000 0.000000
# 5 0.000000 0.000000 0.000000 0.000000 0.090002 0.000000
# 6 0.000000 0.000000 0.000000 0.000000 0.000000 0.057163
#
#
# Mechanical properties :
#
#
# Convention : Reuss Voigt Hill
#
# Bulk Modulus (GPa) = 36.56057 46.76199 41.66128
# Shear Modulus (GPa) = 18.36385 22.65087 20.50736
#
# Velocity S-wave (km/s) = 3.08494 3.42615 3.26001
# Velocity P-wave (km/s) = 5.62460 6.31547 5.98002
#
# Compressibility (1/GPa) = 0.02735187
#
# Stress axis : x y z
#
# Youngs Moduli (GPa) = 50.13965 89.36440 50.72034
#
# Poissons Ratio (x) = -0.02305 0.18731
# Poissons Ratio (y) = -0.01293 0.42169
# Poissons Ratio (z) = 0.18517 0.74298
#
# Static dielectric constant tensor:
#      x y z
#    x 1.689370 0.000000 0.000000 
#    y 0.000000 1.696120 0.000000 
#    z 0.000000 0.000000 1.653710 
# 
# From -- ./inp_files/24712.got.cif
#   From: 2010.05.17/outbox.cif.g08.bks.cpg/sg65_13_cif.got.tgz:24712.got - 2010.06.03 17:01:31.
