data_PCOD9484990
_publ_section_title
;
Structure prediction by ZEFSAII (Michael W. Deem and Ramdas Pophale) SiO2 
 PCOD9484990
Probable space group: C M M M
;
_chemical_formula_sum "Si O2"
_cell_formula_units_Z 80
_cell_length_a 11.129993
_cell_length_b 14.550585
_cell_length_c 23.474921
_cell_angle_alpha 90.000000
_cell_angle_beta 90.000000
_cell_angle_gamma 90.000000
_cell_volume 3801.714374
_symmetry_space_group_name_H-M "C M M M"
_symmetry_group_IT_number 65
_symmetry_cell_setting 'orthorhombic'
loop_
_space_group_symop_operation_xyz
x,y,z
-x,-y,z
x,-y,-z
-x,y,-z
-x,-y,-z
x,y,-z
-x,y,z
x,-y,z
1/2+x,1/2+y,z
1/2-x,1/2-y,z
1/2+x,1/2-y,-z
1/2-x,1/2+y,-z
1/2-x,1/2-y,-z
1/2+x,1/2+y,-z
1/2-x,1/2+y,z
1/2+x,1/2-y,z
loop_
_atom_site_type_symbol
_atom_site_label
_atom_site_fract_x
_atom_site_fract_y
_atom_site_fract_z
Si Si1 0.133586 0.112024 0.433819
Si Si2 0.134106 0.314727 0.760352
Si Si3 0.129220 0.156592 0.932717
Si Si4 0.370438 0.864110 0.114497
Si Si5 0.632187 0.109816 0.634003
O O1 0.144534 0.139276 0.500000
O O2 0.249050 0.144028 0.398402
O O3 0.000000 0.139551 0.412783
O O4 0.134596 0.000000 0.432678
O O5 0.250000 0.250000 0.763409
O O6 0.137625 0.375139 0.817613
O O7 0.141355 0.367617 0.700792
O O8 0.000000 0.269352 0.761534
O O9 0.248252 0.104000 0.914248
O O10 0.127269 0.254290 0.899747
O O11 0.000000 0.111623 0.921824
O O12 0.136853 0.176407 0.000000
O O13 0.500000 0.898757 0.094267
O O14 0.500000 0.143310 0.613789
O O15 0.631361 0.000000 0.626932
#
# Coordination Sequence:
#
# PCOD9484990 Si02
#       5
#    16  16  16  16  16
#     4   8  14  26  45  68  91 114 143 181 223 263
#     4  10  19  30  45  64  88 120 153 183 216 259
#     4   9  15  22  34  53  79 108 135 170 217 261
#     4   9  15  23  35  52  76 107 139 169 206 252
#     4   9  18  31  46  67  94 120 147 180 219 263
#
# _framework density 21.043137000000002
#
# number of rings (size 3 to 8) (size 9 to 14) (size 15 to 20)
#    0.000    3.000    2.000    1.800    0.000    2.400 
#    0.000    2.000    0.000    0.600    0.000    0.000 
#    0.000    3.200    0.000   38.000    0.000    1.600 
#
# Total GULP energy -222804.329842 kJ/mol
# GULP energy per Si atom -5570.108246 kJ/mol
# Density = 2.099524 g / cm^3
# Si number density = 21.043137 Si / 1000 Ang^3
#
#
#
# Elastic Constant Matrix: (Units=GPa)
#
#
# Indices 1 2 3 4 5 6 
#
# 1 266.9900 17.9571 78.9759 0.0000 0.0000 0.0000
# 2 17.9571 58.5573 3.0070 0.0000 0.0000 0.0000
# 3 78.9759 3.0070 95.0096 0.0000 0.0000 0.0000
# 4 0.0000 0.0000 0.0000 18.7815 0.0000 0.0000
# 5 0.0000 0.0000 0.0000 0.0000 46.7569 0.0000
# 6 0.0000 0.0000 0.0000 0.0000 0.0000 -12.9735
#
#
#
# Elastic Compliance Matrix: (Units=1/GPa)
#
#
# Indices 1 2 3 4 5 6 
#
# 1 0.005070 -0.001340 -0.004172 0.000000 0.000000 0.000000
# 2 -0.001340 0.017459 0.000562 0.000000 0.000000 0.000000
# 3 -0.004172 0.000562 0.013975 0.000000 0.000000 0.000000
# 4 0.000000 0.000000 0.000000 0.053244 0.000000 0.000000
# 5 0.000000 0.000000 0.000000 0.000000 0.021387 0.000000
# 6 0.000000 0.000000 0.000000 0.000000 0.000000 -0.077080
#
#
# Mechanical properties :
#
#
# Convention : Reuss Voigt Hill
#
# Bulk Modulus (GPa) = 37.58925 68.93743 53.26334
# Shear Modulus (GPa) = 94.65462 31.88744 63.27103
#
# Velocity S-wave (km/s) = 6.71408 3.89696 5.48931
# Velocity P-wave (km/s) = 8.83215 7.28557 8.09588
#
# Compressibility (1/GPa) = 0.02660335
#
# Stress axis : x y z
#
# Youngs Moduli (GPa) = 197.25501 57.27545 71.55584
#
# Poissons Ratio (x) = 0.07677 0.29850
# Poissons Ratio (y) = 0.26440 -0.04019
# Poissons Ratio (z) = 0.82287 -0.03217
#
# Static dielectric constant tensor:
#      x y z
#    x 1.828190 0.000000 0.000000 
#    y 0.000000 1.716750 0.000000 
#    z 0.000000 0.000000 1.717370 
# 
# From -- ./inp_files/68832.got.cif
#   From: 2010.05.17/outbox.cif.g08.bks.cpg/sg65_35_cif.got.tgz:68832.got - 2010.06.03 17:01:31.
