data_PCOD9484430
_publ_section_title
;
Structure prediction by ZEFSAII (Michael W. Deem and Ramdas Pophale) SiO2 
 PCOD9484430
Probable space group: C M M M
;
_chemical_formula_sum "Si O2"
_cell_formula_units_Z 56
_cell_length_a 19.060178
_cell_length_b 8.584378
_cell_length_c 18.622910
_cell_angle_alpha 90.000000
_cell_angle_beta 90.000000
_cell_angle_gamma 90.000000
_cell_volume 3047.076301
_symmetry_space_group_name_H-M "C M M M"
_symmetry_group_IT_number 65
_symmetry_cell_setting 'orthorhombic'
loop_
_space_group_symop_operation_xyz
x,y,z
-x,-y,z
x,-y,-z
-x,y,-z
-x,-y,-z
x,y,-z
-x,y,z
x,-y,z
1/2+x,1/2+y,z
1/2-x,1/2-y,z
1/2+x,1/2-y,-z
1/2-x,1/2+y,-z
1/2-x,1/2-y,-z
1/2+x,1/2+y,-z
1/2-x,1/2+y,z
1/2+x,1/2-y,z
loop_
_atom_site_type_symbol
_atom_site_label
_atom_site_fract_x
_atom_site_fract_y
_atom_site_fract_z
Si Si1 0.172198 0.811999 0.418695
Si Si2 0.581493 0.311355 0.282736
Si Si3 0.670620 0.185589 0.849839
Si Si4 0.329778 0.314092 0.000000
O O1 0.153760 0.761710 0.500000
O O2 0.250000 0.750000 0.402370
O O3 0.118142 0.762868 0.357368
O O4 0.174519 0.000000 0.418443
O O5 0.500000 0.267025 0.281007
O O6 0.585672 0.500000 0.278145
O O7 0.624080 0.240193 0.216648
O O8 0.750000 0.250000 0.841015
O O9 0.674248 0.000000 0.853979
O O10 0.640319 0.251500 0.925039
O O11 0.250000 0.250000 0.000000
O O12 0.329258 0.500000 0.000000
#
# Coordination Sequence:
#
# PCOD9484430 Si02
#       4
#    16  16  16   8
#     4   9  18  33  54  79 105 136 176 221 267 315
#     4  10  21  36  53  76 108 144 181 221 267 318
#     4  11  21  35  56  81 109 140 178 221 266 316
#     4  10  18  32  55  82 109 136 173 219 267 315
#
# _framework density 18.378271999999999
#
# number of rings (size 3 to 8) (size 9 to 14) (size 15 to 20)
#    0.000    2.000    0.000    6.429    0.000    4.571 
#    0.000    3.571    0.000    4.286    0.000    6.000 
#    0.000    0.000    0.000    0.000    0.000    0.000 
#
# Total GULP energy -156310.705092 kJ/mol
# GULP energy per Si atom -5582.525182 kJ/mol
# Density = 1.833644 g / cm^3
# Si number density = 18.378272 Si / 1000 Ang^3
#
#
#
# Elastic Constant Matrix: (Units=GPa)
#
#
# Indices 1 2 3 4 5 6 
#
# 1 109.0217 45.7482 109.5707 0.0000 0.0000 0.0000
# 2 45.7482 78.3383 59.1407 0.0000 0.0000 0.0000
# 3 109.5707 59.1407 185.7850 0.0000 0.0000 0.0000
# 4 0.0000 0.0000 0.0000 26.7167 0.0000 0.0000
# 5 0.0000 0.0000 0.0000 0.0000 -5.2334 0.0000
# 6 0.0000 0.0000 0.0000 0.0000 0.0000 22.2973
#
#
#
# Elastic Compliance Matrix: (Units=1/GPa)
#
#
# Indices 1 2 3 4 5 6 
#
# 1 0.023577 -0.004306 -0.012534 0.000000 0.000000 0.000000
# 2 -0.004306 0.017590 -0.003060 0.000000 0.000000 0.000000
# 3 -0.012534 -0.003060 0.013749 0.000000 0.000000 0.000000
# 4 0.000000 0.000000 0.000000 0.037430 0.000000 0.000000
# 5 0.000000 0.000000 0.000000 0.000000 -0.191081 0.000000
# 6 0.000000 0.000000 0.000000 0.000000 0.000000 0.044849
#
#
# Mechanical properties :
#
#
# Convention : Reuss Voigt Hill
#
# Bulk Modulus (GPa) = 66.15705 89.11823 77.63764
# Shear Modulus (GPa) = -552.49242 19.33515 -266.57863
#
# Velocity S-wave (km/s) = -17.35728 3.24708 -12.05678
# Velocity P-wave (km/s) = 19.12132 7.91545 12.30793
#
# Compressibility (1/GPa) = 0.01511555
#
# Stress axis : x y z
#
# Youngs Moduli (GPa) = 42.41503 56.85159 72.73316
#
# Poissons Ratio (x) = 0.24479 0.91165
# Poissons Ratio (y) = 0.18263 0.22255
# Poissons Ratio (z) = 0.53164 0.17396
#
# Static dielectric constant tensor:
#      x y z
#    x 1.577820 0.000000 0.000000 
#    y 0.000000 1.619330 0.000000 
#    z 0.000000 0.000000 1.657570 
# 
# From -- ./inp_files/48760.got.cif
#   From: 2010.05.17/outbox.cif.g08.bks.cpg/sg65_25_cif.got.tgz:48760.got - 2010.06.03 17:01:31.
