data_PCOD9484234
_publ_section_title
;
Structure prediction by ZEFSAII (Michael W. Deem and Ramdas Pophale) SiO2 
 PCOD9484234
Probable space group: C M M M
;
_chemical_formula_sum "Si O2"
_cell_formula_units_Z 56
_cell_length_a 15.285697
_cell_length_b 8.550635
_cell_length_c 22.628113
_cell_angle_alpha 90.000000
_cell_angle_beta 90.000000
_cell_angle_gamma 90.000000
_cell_volume 2957.549033
_symmetry_space_group_name_H-M "C M M M"
_symmetry_group_IT_number 65
_symmetry_cell_setting 'orthorhombic'
loop_
_space_group_symop_operation_xyz
x,y,z
-x,-y,z
x,-y,-z
-x,y,-z
-x,-y,-z
x,y,-z
-x,y,z
x,-y,z
1/2+x,1/2+y,z
1/2-x,1/2-y,z
1/2+x,1/2-y,-z
1/2-x,1/2+y,-z
1/2-x,1/2-y,-z
1/2+x,1/2+y,-z
1/2-x,1/2+y,z
1/2+x,1/2-y,z
loop_
_atom_site_type_symbol
_atom_site_label
_atom_site_fract_x
_atom_site_fract_y
_atom_site_fract_z
Si Si1 0.000000 0.310759 0.653503
Si Si2 0.652783 0.188729 0.566918
Si Si3 0.150987 0.812211 0.124503
Si Si4 0.650234 0.813252 0.000000
Si Si5 0.500000 0.311414 0.786094
O O1 0.084470 0.258040 0.616132
O O2 0.000000 0.252233 0.720116
O O3 0.000000 0.500000 0.654047
O O4 0.626928 0.236451 0.500000
O O5 0.750000 0.250000 0.578005
O O6 0.654045 0.000000 0.567651
O O7 0.250000 0.750000 0.132511
O O8 0.086018 0.763462 0.176891
O O9 0.154452 0.000000 0.121673
O O10 0.114171 0.750129 0.061829
O O11 0.750000 0.750000 0.000000
O O12 0.649366 0.000000 0.000000
O O13 0.500000 0.500000 0.784081
#
# Coordination Sequence:
#
# PCOD9484234 Si02
#       5
#     8  16  16   8   8
#     4  10  21  36  55  77 106 143 179 217 260 310
#     4   9  18  34  56  82 109 138 174 216 263 313
#     4  10  20  37  57  78 105 139 176 218 266 315
#     4  10  18  31  54  83 108 134 170 217 269 317
#     4  10  24  40  54  75 107 145 182 217 260 315
#
# _framework density 18.934598000000001
#
# number of rings (size 3 to 8) (size 9 to 14) (size 15 to 20)
#    0.000    2.286    0.000    4.286    0.000    6.857 
#    0.000    8.571    0.000    4.286    0.000    0.000 
#    0.000    0.000    0.000    0.000    0.000    0.000 
#
# Total GULP energy -156285.693103 kJ/mol
# GULP energy per Si atom -5581.631897 kJ/mol
# Density = 1.889150 g / cm^3
# Si number density = 18.934598 Si / 1000 Ang^3
#
#
#
# Elastic Constant Matrix: (Units=GPa)
#
#
# Indices 1 2 3 4 5 6 
#
# 1 117.6077 29.7836 115.0562 0.0000 0.0000 0.0000
# 2 29.7836 45.8152 40.9365 0.0000 0.0000 0.0000
# 3 115.0562 40.9365 217.0654 0.0000 0.0000 0.0000
# 4 0.0000 0.0000 0.0000 34.3993 0.0000 0.0000
# 5 0.0000 0.0000 0.0000 0.0000 -21.9211 0.0000
# 6 0.0000 0.0000 0.0000 0.0000 0.0000 22.6638
#
#
#
# Elastic Compliance Matrix: (Units=1/GPa)
#
#
# Indices 1 2 3 4 5 6 
#
# 1 0.018213 -0.003865 -0.008925 0.000000 0.000000 0.000000
# 2 -0.003865 0.027071 -0.003056 0.000000 0.000000 0.000000
# 3 -0.008925 -0.003056 0.009914 0.000000 0.000000 0.000000
# 4 0.000000 0.000000 0.000000 0.029070 0.000000 0.000000
# 5 0.000000 0.000000 0.000000 0.000000 -0.045618 0.000000
# 6 0.000000 0.000000 0.000000 0.000000 0.000000 0.044123
#
#
# Mechanical properties :
#
#
# Convention : Reuss Voigt Hill
#
# Bulk Modulus (GPa) = 42.54560 83.56009 63.05284
# Shear Modulus (GPa) = 40.88275 20.00921 30.44598
#
# Velocity S-wave (km/s) = 4.65171 3.25430 4.01428
# Velocity P-wave (km/s) = 7.16727 7.63854 7.40666
#
# Compressibility (1/GPa) = 0.02350419
#
# Stress axis : x y z
#
# Youngs Moduli (GPa) = 54.90583 36.94046 100.86779
#
# Poissons Ratio (x) = 0.14279 0.90023
# Poissons Ratio (y) = 0.21224 0.30829
# Poissons Ratio (z) = 0.49003 0.11290
#
# Static dielectric constant tensor:
#      x y z
#    x 1.646680 0.000000 0.000000 
#    y 0.000000 1.644990 0.000000 
#    z 0.000000 0.000000 1.653560 
# 
# From -- ./inp_files/53952.got.cif
#   From: 2010.05.17/outbox.cif.g08.bks.cpg/sg65_27_cif.got.tgz:53952.got - 2010.06.03 17:01:31.
