data_PCOD9484259
_publ_section_title
;
Structure prediction by ZEFSAII (Michael W. Deem and Ramdas Pophale) SiO2 
 PCOD9484259
Probable space group: C M M M
;
_chemical_formula_sum "Si O2"
_cell_formula_units_Z 96
_cell_length_a 24.664324
_cell_length_b 8.081640
_cell_length_c 26.183969
_cell_angle_alpha 90.000000
_cell_angle_beta 90.000000
_cell_angle_gamma 90.000000
_cell_volume 5219.203080
_symmetry_space_group_name_H-M "C M M M"
_symmetry_group_IT_number 65
_symmetry_cell_setting 'orthorhombic'
loop_
_space_group_symop_operation_xyz
x,y,z
-x,-y,z
x,-y,-z
-x,y,-z
-x,-y,-z
x,y,-z
-x,y,z
x,-y,z
1/2+x,1/2+y,z
1/2-x,1/2-y,z
1/2+x,1/2-y,-z
1/2-x,1/2+y,-z
1/2-x,1/2-y,-z
1/2+x,1/2+y,-z
1/2-x,1/2+y,z
1/2+x,1/2-y,z
loop_
_atom_site_type_symbol
_atom_site_label
_atom_site_fract_x
_atom_site_fract_y
_atom_site_fract_z
Si Si1 0.437757 0.800698 0.441283
Si Si2 0.437262 0.800093 0.941198
Si Si3 0.500000 0.312883 0.687960
Si Si4 0.607272 0.303470 0.159169
Si Si5 0.884888 0.199520 0.343822
Si Si6 0.812234 0.199095 0.750583
Si Si7 0.000000 0.681595 0.792008
O O1 0.429355 0.748706 0.500000
O O2 0.500000 0.745911 0.426996
O O3 0.389963 0.741536 0.403665
O O4 0.438437 0.000000 0.439967
O O5 0.500000 0.746174 0.930020
O O6 0.393365 0.730613 0.901326
O O7 0.436895 0.000000 0.937997
O O8 0.426237 0.754243 0.000000
O O9 0.500000 0.500000 0.667376
O O10 0.443406 0.232096 0.673850
O O11 0.500000 0.317975 0.748635
O O12 0.599898 0.500000 0.166786
O O13 0.654735 0.249774 0.198283
O O14 0.553826 0.205948 0.176118
O O15 0.841041 0.259189 0.302260
O O16 0.884418 0.000000 0.339678
O O17 0.750000 0.250000 0.752534
O O18 0.814448 0.000000 0.749526
O O19 0.000000 0.500000 0.768062
#
# Coordination Sequence:
#
# PCOD9484259 Si02
#       7
#    16  16   8  16  16  16   8
#     4   9  18  31  47  74 112 145 173 208 251 304
#     4   9  18  32  50  78 115 146 175 212 253 306
#     4  10  18  32  49  72 109 139 164 209 266 318
#     4  11  21  35  54  77 109 142 174 217 264 314
#     4  10  19  33  53  76 105 138 171 211 260 314
#     4  10  23  40  56  76 103 136 176 225 272 314
#     4  12  22  30  47  78 109 140 176 209 256 321
#
# _framework density 18.393612999999998
#
# number of rings (size 3 to 8) (size 9 to 14) (size 15 to 20)
#    0.000    2.000    3.333    2.250    0.000    3.333 
#    0.000    1.667    0.000    1.000    0.000    0.000 
#    0.000    0.000    0.000    0.000    0.000    0.000 
#
# Total GULP energy -267246.348297 kJ/mol
# GULP energy per Si atom -5567.632256 kJ/mol
# Density = 1.835175 g / cm^3
# Si number density = 18.393613 Si / 1000 Ang^3
#
#
#
# Elastic Constant Matrix: (Units=GPa)
#
#
# Indices 1 2 3 4 5 6 
#
# 1 115.5819 15.6361 75.2619 0.0000 0.0000 0.0000
# 2 15.6361 32.9042 17.1031 0.0000 0.0000 0.0000
# 3 75.2619 17.1031 150.0766 0.0000 0.0000 0.0000
# 4 0.0000 0.0000 0.0000 15.6084 0.0000 0.0000
# 5 0.0000 0.0000 0.0000 0.0000 13.1622 0.0000
# 6 0.0000 0.0000 0.0000 0.0000 0.0000 27.6197
#
#
#
# Elastic Compliance Matrix: (Units=1/GPa)
#
#
# Indices 1 2 3 4 5 6 
#
# 1 0.013118 -0.002992 -0.006238 0.000000 0.000000 0.000000
# 2 -0.002992 0.032987 -0.002259 0.000000 0.000000 0.000000
# 3 -0.006238 -0.002259 0.010049 0.000000 0.000000 0.000000
# 4 0.000000 0.000000 0.000000 0.064068 0.000000 0.000000
# 5 0.000000 0.000000 0.000000 0.000000 0.075975 0.000000
# 6 0.000000 0.000000 0.000000 0.000000 0.000000 0.036206
#
#
# Mechanical properties :
#
#
# Convention : Reuss Voigt Hill
#
# Bulk Modulus (GPa) = 30.14086 57.17387 43.65736
# Shear Modulus (GPa) = 18.76599 23.98218 21.37408
#
# Velocity S-wave (km/s) = 3.19759 3.61478 3.41257
# Velocity P-wave (km/s) = 5.48224 6.96945 6.27009
#
# Compressibility (1/GPa) = 0.03317756
#
# Stress axis : x y z
#
# Youngs Moduli (GPa) = 76.22908 30.31489 99.51325
#
# Poissons Ratio (x) = 0.09069 0.62074
# Poissons Ratio (y) = 0.22804 0.22481
# Poissons Ratio (z) = 0.47550 0.06848
#
# Static dielectric constant tensor:
#      x y z
#    x 1.619730 0.000000 0.000000 
#    y 0.000000 1.669170 0.000000 
#    z 0.000000 0.000000 1.744360 
# 
# From -- ./inp_files/75741.got.cif
#   From: 2010.05.17/outbox.cif.g08.bks.cpg/sg65_38_cif.got.tgz:75741.got - 2010.06.03 17:01:31.
