data_PCOD9484814
_publ_section_title
;
Structure prediction by ZEFSAII (Michael W. Deem and Ramdas Pophale) SiO2 
 PCOD9484814
Probable space group: C M M M
;
_chemical_formula_sum "Si O2"
_cell_formula_units_Z 104
_cell_length_a 8.742641
_cell_length_b 23.921113
_cell_length_c 28.719387
_cell_angle_alpha 90.000000
_cell_angle_beta 90.000000
_cell_angle_gamma 90.000000
_cell_volume 6006.191759
_symmetry_space_group_name_H-M "C M M M"
_symmetry_group_IT_number 65
_symmetry_cell_setting 'orthorhombic'
loop_
_space_group_symop_operation_xyz
x,y,z
-x,-y,z
x,-y,-z
-x,y,-z
-x,-y,-z
x,y,-z
-x,y,z
x,-y,z
1/2+x,1/2+y,z
1/2-x,1/2-y,z
1/2+x,1/2-y,-z
1/2-x,1/2+y,-z
1/2-x,1/2-y,-z
1/2+x,1/2+y,-z
1/2-x,1/2+y,z
1/2+x,1/2-y,z
loop_
_atom_site_type_symbol
_atom_site_label
_atom_site_fract_x
_atom_site_fract_y
_atom_site_fract_z
Si Si1 0.182096 0.888608 0.740540
Si Si2 0.180231 0.500000 0.214194
Si Si3 0.680465 0.500000 0.885540
Si Si4 0.317421 0.188199 0.818015
Si Si5 0.678798 0.567709 0.448724
Si Si6 0.681836 0.066096 0.350989
Si Si7 0.817229 0.875420 0.093388
Si Si8 0.184960 0.188083 0.000000
O O1 0.255078 0.838412 0.770089
O O2 0.236215 0.896091 0.687469
O O3 0.000000 0.885315 0.743393
O O4 0.242328 0.945172 0.764796
O O5 0.213604 0.500000 0.159607
O O6 0.000000 0.500000 0.224535
O O7 0.500000 0.500000 0.871002
O O8 0.707277 0.441820 0.911607
O O9 0.500000 0.190134 0.817057
O O10 0.250000 0.250000 0.825019
O O11 0.262996 0.149040 0.860766
O O12 0.731536 0.587241 0.500000
O O13 0.500000 0.582817 0.443255
O O14 0.685125 0.500000 0.449858
O O15 0.772581 0.583984 0.403165
O O16 0.500000 0.068824 0.344626
O O17 0.726866 0.000000 0.345019
O O18 0.766656 0.843591 0.046962
O O19 0.000000 0.866760 0.099395
O O20 0.250000 0.250000 0.000000
O O21 0.000000 0.189500 0.000000
#
# Coordination Sequence:
#
# PCOD9484814 Si02
#       8
#    16   8   8  16  16  16  16   8
#     4  12  23  36  55  78 107 144 182 222 271 324
#     4  12  22  34  53  81 112 142 179 220 267 318
#     4  10  20  35  58  84 114 146 180 218 269 326
#     4  12  25  41  60  82 109 141 180 224 270 324
#     4   8  14  25  40  59  89 132 179 222 266 319
#     4  10  19  29  44  69 102 137 178 225 271 319
#     4  10  21  38  60  86 114 145 182 223 271 325
#     4  10  22  39  59  83 111 146 189 233 274 321
#
# _framework density 17.315463999999999
#
# number of rings (size 3 to 8) (size 9 to 14) (size 15 to 20)
#    0.000    1.538    2.308    4.846    0.000    3.077 
#    0.000    3.077    0.000    0.000    0.000    2.154 
#    0.000    0.615    0.000    2.308    0.000    3.538 
#
# Total GULP energy -290309.255616 kJ/mol
# GULP energy per Si atom -5582.870300 kJ/mol
# Density = 1.727605 g / cm^3
# Si number density = 17.315464 Si / 1000 Ang^3
#
#
#
# Elastic Constant Matrix: (Units=GPa)
#
#
# Indices 1 2 3 4 5 6 
#
# 1 91.1452 38.6783 49.8911 0.0000 0.0000 0.0000
# 2 38.6783 92.1522 43.4742 0.0000 0.0000 0.0000
# 3 49.8911 43.4742 122.7518 0.0000 0.0000 0.0000
# 4 0.0000 0.0000 0.0000 10.5308 0.0000 0.0000
# 5 0.0000 0.0000 0.0000 0.0000 11.0734 0.0000
# 6 0.0000 0.0000 0.0000 0.0000 0.0000 21.1503
#
#
#
# Elastic Compliance Matrix: (Units=1/GPa)
#
#
# Indices 1 2 3 4 5 6 
#
# 1 0.015357 -0.004203 -0.004753 0.000000 0.000000 0.000000
# 2 -0.004203 0.014179 -0.003313 0.000000 0.000000 0.000000
# 3 -0.004753 -0.003313 0.011252 0.000000 0.000000 0.000000
# 4 0.000000 0.000000 0.000000 0.094960 0.000000 0.000000
# 5 0.000000 0.000000 0.000000 0.000000 0.090306 0.000000
# 6 0.000000 0.000000 0.000000 0.000000 0.000000 0.047281
#
#
# Mechanical properties :
#
#
# Convention : Reuss Voigt Hill
#
# Bulk Modulus (GPa) = 61.54437 63.34848 62.44643
# Shear Modulus (GPa) = 16.48589 20.15127 18.31858
#
# Velocity S-wave (km/s) = 3.08894 3.41511 3.25611
# Velocity P-wave (km/s) = 6.95286 7.22599 7.09074
#
# Compressibility (1/GPa) = 0.01624844
#
# Stress axis : x y z
#
# Youngs Moduli (GPa) = 65.11717 70.52725 88.87505
#
# Poissons Ratio (x) = 0.29645 0.42242
# Poissons Ratio (y) = 0.27371 0.29446
# Poissons Ratio (z) = 0.30950 0.23367
#
# Static dielectric constant tensor:
#      x y z
#    x 1.582200 0.000000 0.000000 
#    y 0.000000 1.562730 0.000000 
#    z 0.000000 0.000000 1.604700 
# 
# From -- ./inp_files/73667.got.cif
#   From: 2010.05.17/outbox.cif.g08.bks.cpg/sg65_37_cif.got.tgz:73667.got - 2010.06.03 17:01:31.
