data_PCOD9484427
_publ_section_title
;
Structure prediction by ZEFSAII (Michael W. Deem and Ramdas Pophale) SiO2 
 PCOD9484427
Probable space group: C M M M
;
_chemical_formula_sum "Si O2"
_cell_formula_units_Z 56
_cell_length_a 15.102976
_cell_length_b 10.236979
_cell_length_c 19.007896
_cell_angle_alpha 90.000000
_cell_angle_beta 90.000000
_cell_angle_gamma 90.000000
_cell_volume 2938.788906
_symmetry_space_group_name_H-M "C M M M"
_symmetry_group_IT_number 65
_symmetry_cell_setting 'orthorhombic'
loop_
_space_group_symop_operation_xyz
x,y,z
-x,-y,z
x,-y,-z
-x,y,-z
-x,-y,-z
x,y,-z
-x,y,z
x,-y,z
1/2+x,1/2+y,z
1/2-x,1/2-y,z
1/2+x,1/2-y,-z
1/2-x,1/2+y,-z
1/2-x,1/2-y,-z
1/2+x,1/2+y,-z
1/2-x,1/2+y,z
1/2+x,1/2-y,z
loop_
_atom_site_type_symbol
_atom_site_label
_atom_site_fract_x
_atom_site_fract_y
_atom_site_fract_z
Si Si1 0.607778 0.500000 0.078596
Si Si2 0.000000 0.843150 0.420792
Si Si3 0.608208 0.000000 0.082493
Si Si4 0.892603 0.245621 0.829612
Si Si5 0.669123 0.659364 0.324558
O O1 0.500000 0.500000 0.075980
O O2 0.634033 0.627092 0.120500
O O3 0.641701 0.500000 0.000000
O O4 0.913215 0.812321 0.375741
O O5 0.000000 0.788568 0.500000
O O6 0.000000 0.000000 0.426588
O O7 0.635139 0.875495 0.129090
O O8 0.500000 0.000000 0.079928
O O9 0.636258 0.000000 0.000000
O O10 0.855064 0.213025 0.753083
O O11 0.000000 0.248213 0.823296
O O12 0.683916 0.500000 0.322500
O O13 0.750000 0.750000 0.348925
#
# Coordination Sequence:
#
# PCOD9484427 Si02
#       5
#     8   8   8  16  16
#     4   9  16  26  49  81 109 147 207 262 305 350
#     4   9  20  42  71  97 126 163 201 243 299 367
#     4   9  18  30  49  83 121 157 205 260 317 366
#     4  10  18  32  55  81 116 162 205 256 303 363
#     4  11  23  39  63  95 127 163 206 250 301 363
#
# _framework density 19.055468000000001
#
# number of rings (size 3 to 8) (size 9 to 14) (size 15 to 20)
#    0.000    2.143    2.857    0.857    2.000    4.000 
#    0.000    0.714    0.000    6.000    0.000    0.000 
#    0.000    0.000    0.000    0.000    0.000    0.000 
#
# Total GULP energy -156204.932085 kJ/mol
# GULP energy per Si atom -5578.747574 kJ/mol
# Density = 1.901210 g / cm^3
# Si number density = 19.055468 Si / 1000 Ang^3
#
#
#
# Elastic Constant Matrix: (Units=GPa)
#
#
# Indices 1 2 3 4 5 6 
#
# 1 109.8510 54.4686 63.1655 0.0000 0.0000 0.0000
# 2 54.4686 158.6064 72.1523 0.0000 0.0000 0.0000
# 3 63.1655 72.1523 172.4127 0.0000 0.0000 0.0000
# 4 0.0000 0.0000 0.0000 17.6549 0.0000 0.0000
# 5 0.0000 0.0000 0.0000 0.0000 -16.0681 0.0000
# 6 0.0000 0.0000 0.0000 0.0000 0.0000 31.3537
#
#
#
# Elastic Compliance Matrix: (Units=1/GPa)
#
#
# Indices 1 2 3 4 5 6 
#
# 1 0.012409 -0.002709 -0.003412 0.000000 0.000000 0.000000
# 2 -0.002709 0.008379 -0.002514 0.000000 0.000000 0.000000
# 3 -0.003412 -0.002514 0.008102 0.000000 0.000000 0.000000
# 4 0.000000 0.000000 0.000000 0.056641 0.000000 0.000000
# 5 0.000000 0.000000 0.000000 0.000000 -0.062235 0.000000
# 6 0.000000 0.000000 0.000000 0.000000 0.000000 0.031894
#
#
# Mechanical properties :
#
#
# Convention : Reuss Voigt Hill
#
# Bulk Modulus (GPa) = 86.06547 91.16031 88.61289
# Shear Modulus (GPa) = 65.50172 23.32703 44.41438
#
# Velocity S-wave (km/s) = 5.86932 3.50260 4.83307
# Velocity P-wave (km/s) = 9.54964 8.01879 8.81750
#
# Compressibility (1/GPa) = 0.01161906
#
# Stress axis : x y z
#
# Youngs Moduli (GPa) = 80.58906 119.34756 123.42255
#
# Poissons Ratio (x) = 0.32332 0.42116
# Poissons Ratio (y) = 0.21832 0.31028
# Poissons Ratio (z) = 0.27500 0.30003
#
# Static dielectric constant tensor:
#      x y z
#    x 1.728610 0.000000 0.000000 
#    y 0.000000 1.606960 0.000000 
#    z 0.000000 0.000000 1.644460 
# 
# From -- ./inp_files/58626.got.cif
#   From: 2010.05.17/outbox.cif.g08.bks.cpg/sg65_30_cif.got.tgz:58626.got - 2010.06.03 17:01:31.
