data_PCOD9484813
_publ_section_title
;
Structure prediction by ZEFSAII (Michael W. Deem and Ramdas Pophale) SiO2 
 PCOD9484813
Probable space group: C M M M
;
_chemical_formula_sum "Si O2"
_cell_formula_units_Z 120
_cell_length_a 8.175439
_cell_length_b 27.413826
_cell_length_c 28.432103
_cell_angle_alpha 90.000000
_cell_angle_beta 90.000000
_cell_angle_gamma 90.000000
_cell_volume 6372.204693
_symmetry_space_group_name_H-M "C M M M"
_symmetry_group_IT_number 65
_symmetry_cell_setting 'orthorhombic'
loop_
_space_group_symop_operation_xyz
x,y,z
-x,-y,z
x,-y,-z
-x,y,-z
-x,-y,-z
x,y,-z
-x,y,z
x,-y,z
1/2+x,1/2+y,z
1/2-x,1/2-y,z
1/2+x,1/2-y,-z
1/2-x,1/2+y,-z
1/2-x,1/2-y,-z
1/2+x,1/2+y,-z
1/2-x,1/2+y,z
1/2+x,1/2-y,z
loop_
_atom_site_type_symbol
_atom_site_label
_atom_site_fract_x
_atom_site_fract_y
_atom_site_fract_z
Si Si1 0.812737 0.131664 0.714230
Si Si2 0.500000 0.556292 0.557232
Si Si3 0.183265 0.620980 0.871771
Si Si4 0.183515 0.301112 0.788651
Si Si5 0.194581 0.803377 0.946420
Si Si6 0.302328 0.694458 0.372170
Si Si7 0.803433 0.055188 0.209705
Si Si8 0.813012 0.621453 0.556502
O O1 0.803762 0.177034 0.749993
O O2 0.742114 0.154708 0.666704
O O3 0.738215 0.088571 0.746793
O O4 0.000000 0.117889 0.703797
O O5 0.500000 0.500000 0.573264
O O6 0.500000 0.555724 0.500000
O O7 0.665876 0.584810 0.571725
O O8 0.178257 0.663076 0.832369
O O9 0.258124 0.649341 0.915997
O O10 0.266485 0.578037 0.841593
O O11 0.000000 0.605377 0.883842
O O12 0.250000 0.250000 0.804818
O O13 0.000000 0.297528 0.768750
O O14 0.250000 0.750000 0.927757
O O15 0.000000 0.801629 0.947888
O O16 0.259577 0.807373 0.000000
O O17 0.500000 0.693203 0.373001
O O18 0.250000 0.750000 0.362118
O O19 0.229131 0.673461 0.420383
O O20 0.000000 0.055548 0.214292
O O21 0.743142 0.000000 0.212985
O O22 0.805792 0.624218 0.500000
O O23 0.000000 0.606740 0.569000
#
# Coordination Sequence:
#
# PCOD9484813 Si02
#       8
#    16   8  16  16  16  16  16  16
#     4   9  19  34  52  75 106 138 177 220 270 329
#     4   9  18  36  62  88 116 150 188 238 293 339
#     4  10  20  32  49  74 102 135 175 219 266 317
#     4  10  19  29  44  68  98 132 168 210 258 310
#     4  10  20  33  50  74 106 143 180 218 264 319
#     4  11  22  36  55  80 115 155 196 239 290 347
#     4   9  18  35  58  80 104 138 179 224 277 333
#     4  10  21  38  60  87 120 156 198 247 295 351
#
# _framework density 18.831788
#
# number of rings (size 3 to 8) (size 9 to 14) (size 15 to 20)
#    0.000    2.200    0.667    2.400    0.000    6.400 
#    0.000    2.000    0.000    0.400    0.000    2.800 
#    0.000    0.000    0.000    0.000    0.000    0.000 
#
# Total GULP energy -334116.088583 kJ/mol
# GULP energy per Si atom -5568.601476 kJ/mol
# Density = 1.878893 g / cm^3
# Si number density = 18.831788 Si / 1000 Ang^3
#
#
#
# Elastic Constant Matrix: (Units=GPa)
#
#
# Indices 1 2 3 4 5 6 
#
# 1 69.8701 34.7573 23.6112 0.0000 0.0000 0.0000
# 2 34.7573 113.9009 35.3477 0.0000 0.0000 0.0000
# 3 23.6112 35.3477 51.0947 0.0000 0.0000 0.0000
# 4 0.0000 0.0000 0.0000 20.8638 0.0000 0.0000
# 5 0.0000 0.0000 0.0000 0.0000 13.4877 0.0000
# 6 0.0000 0.0000 0.0000 0.0000 0.0000 20.8591
#
#
#
# Elastic Compliance Matrix: (Units=1/GPa)
#
#
# Indices 1 2 3 4 5 6 
#
# 1 0.018128 -0.003734 -0.005794 0.000000 0.000000 0.000000
# 2 -0.003734 0.011949 -0.006541 0.000000 0.000000 0.000000
# 3 -0.005794 -0.006541 0.026774 0.000000 0.000000 0.000000
# 4 0.000000 0.000000 0.000000 0.047930 0.000000 0.000000
# 5 0.000000 0.000000 0.000000 0.000000 0.074142 0.000000
# 6 0.000000 0.000000 0.000000 0.000000 0.000000 0.047941
#
#
# Mechanical properties :
#
#
# Convention : Reuss Voigt Hill
#
# Bulk Modulus (GPa) = 40.46395 46.92201 43.69298
# Shear Modulus (GPa) = 18.70999 20.45210 19.58104
#
# Velocity S-wave (km/s) = 3.15545 3.29909 3.22807
# Velocity P-wave (km/s) = 5.89996 6.28351 6.09475
#
# Compressibility (1/GPa) = 0.02471336
#
# Stress axis : x y z
#
# Youngs Moduli (GPa) = 55.16477 83.69054 37.34975
#
# Poissons Ratio (x) = 0.31247 0.21640
# Poissons Ratio (y) = 0.20596 0.24430
# Poissons Ratio (z) = 0.31962 0.54741
#
# Static dielectric constant tensor:
#      x y z
#    x 1.694030 0.000000 0.000000 
#    y 0.000000 1.660420 0.000000 
#    z 0.000000 0.000000 1.686610 
# 
# From -- ./inp_files/73983.got.cif
#   From: 2010.05.17/outbox.cif.g08.bks.cpg/sg65_37_cif.got.tgz:73983.got - 2010.06.03 17:01:31.
