data_PCOD9484162
_publ_section_title
;
Structure prediction by ZEFSAII (Michael W. Deem and Ramdas Pophale) SiO2 
 PCOD9484162
Probable space group: C M M M
;
_chemical_formula_sum "Si O2"
_cell_formula_units_Z 72
_cell_length_a 12.227678
_cell_length_b 36.432524
_cell_length_c 7.386676
_cell_angle_alpha 90.000000
_cell_angle_beta 90.000000
_cell_angle_gamma 90.000000
_cell_volume 3290.654630
_symmetry_space_group_name_H-M "C M M M"
_symmetry_group_IT_number 65
_symmetry_cell_setting 'orthorhombic'
loop_
_space_group_symop_operation_xyz
x,y,z
-x,-y,z
x,-y,-z
-x,y,-z
-x,-y,-z
x,y,-z
-x,y,z
x,-y,z
1/2+x,1/2+y,z
1/2-x,1/2-y,z
1/2+x,1/2-y,-z
1/2-x,1/2+y,-z
1/2-x,1/2-y,-z
1/2+x,1/2+y,-z
1/2-x,1/2+y,z
1/2+x,1/2-y,z
loop_
_atom_site_type_symbol
_atom_site_label
_atom_site_fract_x
_atom_site_fract_y
_atom_site_fract_z
Si Si1 0.758733 0.428067 0.778222
Si Si2 0.500000 0.829858 0.279570
Si Si3 0.375167 0.643466 0.781837
Si Si4 0.125712 0.000000 0.779255
Si Si5 0.500000 0.083968 0.209259
Si Si6 0.218893 0.710255 0.713039
O O1 0.698486 0.390752 0.719529
O O2 0.689654 0.463470 0.723360
O O3 0.884012 0.428944 0.713938
O O4 0.760828 0.427316 0.000000
O O5 0.500000 0.831353 0.500000
O O6 0.500000 0.871795 0.216149
O O7 0.608706 0.808818 0.216046
O O8 0.500000 0.641096 0.717464
O O9 0.316992 0.681412 0.732512
O O10 0.377815 0.641594 0.000000
O O11 0.000000 0.000000 0.719872
O O12 0.124492 0.000000 0.000000
O O13 0.500000 0.072002 0.000000
O O14 0.197466 0.715718 0.500000
O O15 0.250000 0.750000 0.789528
#
# Coordination Sequence:
#
# PCOD9484162 Si02
#       6
#    16   8  16   8   8  16
#     4   9  17  29  47  73 104 137 172 208 254 308
#     4  10  20  36  55  77 103 136 176 215 257 312
#     4  10  20  34  52  76 106 137 171 212 257 310
#     4   9  16  27  45  71 105 141 170 206 259 310
#     4  10  18  31  52  76 104 138 172 214 261 307
#     4  10  22  37  55  77 102 134 174 219 262 307
#
# _framework density 21.880146
#
# number of rings (size 3 to 8) (size 9 to 14) (size 15 to 20)
#    0.000    2.333    2.222    0.667    1.556    4.000 
#    0.000    2.222    0.000    0.000    0.000    3.889 
#    0.000    5.333    0.000    0.000    0.000    0.000 
#
# Total GULP energy -201190.105384 kJ/mol
# GULP energy per Si atom -5588.614038 kJ/mol
# Density = 2.183035 g / cm^3
# Si number density = 21.880146 Si / 1000 Ang^3
#
#
#
# Elastic Constant Matrix: (Units=GPa)
#
#
# Indices 1 2 3 4 5 6 
#
# 1 214.8543 90.6894 -8.1947 0.0000 0.0000 0.0000
# 2 90.6894 163.6094 -12.3863 0.0000 0.0000 0.0000
# 3 -8.1947 -12.3863 71.6688 0.0000 0.0000 0.0000
# 4 0.0000 0.0000 0.0000 8.2122 0.0000 0.0000
# 5 0.0000 0.0000 0.0000 0.0000 -10.1747 0.0000
# 6 0.0000 0.0000 0.0000 0.0000 0.0000 14.2196
#
#
#
# Elastic Compliance Matrix: (Units=1/GPa)
#
#
# Indices 1 2 3 4 5 6 
#
# 1 0.006077 -0.003360 0.000114 0.000000 0.000000 0.000000
# 2 -0.003360 0.008051 0.001007 0.000000 0.000000 0.000000
# 3 0.000114 0.001007 0.014140 0.000000 0.000000 0.000000
# 4 0.000000 0.000000 0.000000 0.121770 0.000000 0.000000
# 5 0.000000 0.000000 0.000000 0.000000 -0.098283 0.000000
# 6 0.000000 0.000000 0.000000 0.000000 0.000000 0.070326
#
#
# Mechanical properties :
#
#
# Convention : Reuss Voigt Hill
#
# Bulk Modulus (GPa) = 42.03275 65.59437 53.81356
# Shear Modulus (GPa) = 37.17826 27.78636 32.48231
#
# Velocity S-wave (km/s) = 4.12658 3.56748 3.85717
# Velocity P-wave (km/s) = 6.47743 6.85662 6.66972
#
# Compressibility (1/GPa) = 0.02379097
#
# Stress axis : x y z
#
# Youngs Moduli (GPa) = 164.55976 124.21273 70.72038
#
# Poissons Ratio (x) = 0.41733 -0.00807
# Poissons Ratio (y) = 0.55288 -0.07123
# Poissons Ratio (z) = -0.01879 -0.12511
#
# Static dielectric constant tensor:
#      x y z
#    x 1.770400 0.000000 0.000000 
#    y 0.000000 1.733080 0.000000 
#    z 0.000000 0.000000 1.835160 
# 
# From -- ./inp_files/22785.got.cif
#   From: 2010.05.17/outbox.cif.g08.bks.cpg/sg65_12_cif.got.tgz:22785.got - 2010.06.03 17:01:31.
