data_PCOD9484541
_publ_section_title
;
Structure prediction by ZEFSAII (Michael W. Deem and Ramdas Pophale) SiO2 
 PCOD9484541
Probable space group: C M M M
;
_chemical_formula_sum "Si O2"
_cell_formula_units_Z 64
_cell_length_a 8.519027
_cell_length_b 14.982428
_cell_length_c 25.565536
_cell_angle_alpha 90.000000
_cell_angle_beta 90.000000
_cell_angle_gamma 90.000000
_cell_volume 3263.075305
_symmetry_space_group_name_H-M "C M M M"
_symmetry_group_IT_number 65
_symmetry_cell_setting 'orthorhombic'
loop_
_space_group_symop_operation_xyz
x,y,z
-x,-y,z
x,-y,-z
-x,y,-z
-x,-y,-z
x,y,-z
-x,y,z
x,-y,z
1/2+x,1/2+y,z
1/2-x,1/2-y,z
1/2+x,1/2-y,-z
1/2-x,1/2+y,-z
1/2-x,1/2-y,-z
1/2+x,1/2+y,-z
1/2-x,1/2+y,z
1/2+x,1/2-y,z
loop_
_atom_site_type_symbol
_atom_site_label
_atom_site_fract_x
_atom_site_fract_y
_atom_site_fract_z
Si Si1 0.810260 0.850845 0.614317
Si Si2 0.189560 0.148228 0.500000
Si Si3 0.812584 0.648069 0.000000
Si Si4 0.686866 0.000000 0.186704
Si Si5 0.809436 0.000000 0.304234
Si Si6 0.312815 0.648848 0.110289
O O1 0.750000 0.750000 0.619926
O O2 0.760253 0.887483 0.556809
O O3 0.000000 0.849119 0.614361
O O4 0.760557 0.914283 0.661465
O O5 0.250000 0.250000 0.500000
O O6 0.000000 0.145990 0.500000
O O7 0.750000 0.750000 0.000000
O O8 0.749715 0.611083 0.945255
O O9 0.000000 0.646619 0.000000
O O10 0.739152 0.000000 0.246763
O O11 0.754117 0.913802 0.156682
O O12 0.500000 0.000000 0.182659
O O13 0.000000 0.000000 0.300443
O O14 0.500000 0.651154 0.108619
O O15 0.250000 0.750000 0.116230
#
# Coordination Sequence:
#
# PCOD9484541 Si02
#       6
#    16   8   8   8   8  16
#     4   9  18  33  55  80 110 143 180 224 278 335
#     4   8  14  27  49  79 108 138 174 219 271 333
#     4  10  18  33  58  91 125 156 190 231 281 343
#     4  12  26  43  60  83 113 152 200 248 291 342
#     4  10  22  39  55  77 108 146 189 236 282 336
#     4  11  22  40  64  91 121 155 192 237 290 345
#
# _framework density 19.613399000000001
#
# number of rings (size 3 to 8) (size 9 to 14) (size 15 to 20)
#    0.000    2.000    0.000    6.000    0.000    3.000 
#    0.000    7.500    0.000    0.000    0.000    9.625 
#    0.000    0.000    0.000    0.000    0.000    0.000 
#
# Total GULP energy -178647.136619 kJ/mol
# GULP energy per Si atom -5582.723019 kJ/mol
# Density = 1.956876 g / cm^3
# Si number density = 19.613399 Si / 1000 Ang^3
#
#
#
# Elastic Constant Matrix: (Units=GPa)
#
#
# Indices 1 2 3 4 5 6 
#
# 1 120.5102 37.1788 66.9130 0.0000 0.0000 0.0000
# 2 37.1788 111.0933 88.8831 0.0000 0.0000 0.0000
# 3 66.9130 88.8831 224.6675 0.0000 0.0000 0.0000
# 4 0.0000 0.0000 0.0000 40.1470 0.0000 0.0000
# 5 0.0000 0.0000 0.0000 0.0000 29.2318 0.0000
# 6 0.0000 0.0000 0.0000 0.0000 0.0000 21.5359
#
#
#
# Elastic Compliance Matrix: (Units=1/GPa)
#
#
# Indices 1 2 3 4 5 6 
#
# 1 0.010094 -0.001423 -0.002443 0.000000 0.000000 0.000000
# 2 -0.001423 0.013371 -0.004866 0.000000 0.000000 0.000000
# 3 -0.002443 -0.004866 0.007104 0.000000 0.000000 0.000000
# 4 0.000000 0.000000 0.000000 0.024908 0.000000 0.000000
# 5 0.000000 0.000000 0.000000 0.000000 0.034209 0.000000
# 6 0.000000 0.000000 0.000000 0.000000 0.000000 0.046434
#
#
# Mechanical properties :
#
#
# Convention : Reuss Voigt Hill
#
# Bulk Modulus (GPa) = 76.31471 93.58009 84.94740
# Shear Modulus (GPa) = 31.65504 35.73600 33.69552
#
# Velocity S-wave (km/s) = 4.02176 4.27314 4.14935
# Velocity P-wave (km/s) = 7.78203 8.49484 8.14623
#
# Compressibility (1/GPa) = 0.01310363
#
# Stress axis : x y z
#
# Youngs Moduli (GPa) = 99.07164 74.78955 140.77155
#
# Poissons Ratio (x) = 0.10645 0.34392
# Poissons Ratio (y) = 0.14101 0.68498
# Poissons Ratio (z) = 0.24205 0.36392
#
# Static dielectric constant tensor:
#      x y z
#    x 1.660500 0.000000 0.000000 
#    y 0.000000 1.674040 0.000000 
#    z 0.000000 0.000000 1.700710 
# 
# From -- ./inp_files/66900.got.cif
#   From: 2010.05.17/outbox.cif.g08.bks.cpg/sg65_34_cif.got.tgz:66900.got - 2010.06.03 17:01:31.
