data_PCOD9484612
_publ_section_title
;
Structure prediction by ZEFSAII (Michael W. Deem and Ramdas Pophale) SiO2 
 PCOD9484612
Probable space group: C M M M
;
_chemical_formula_sum "Si O2"
_cell_formula_units_Z 74
_cell_length_a 14.577876
_cell_length_b 31.611365
_cell_length_c 7.453291
_cell_angle_alpha 90.000000
_cell_angle_beta 90.000000
_cell_angle_gamma 90.000000
_cell_volume 3434.674446
_symmetry_space_group_name_H-M "C M M M"
_symmetry_group_IT_number 65
_symmetry_cell_setting 'orthorhombic'
loop_
_space_group_symop_operation_xyz
x,y,z
-x,-y,z
x,-y,-z
-x,y,-z
-x,-y,-z
x,y,-z
-x,y,z
x,-y,z
1/2+x,1/2+y,z
1/2-x,1/2-y,z
1/2+x,1/2-y,-z
1/2-x,1/2+y,-z
1/2-x,1/2-y,-z
1/2+x,1/2+y,-z
1/2-x,1/2+y,z
1/2+x,1/2-y,z
loop_
_atom_site_type_symbol
_atom_site_label
_atom_site_fract_x
_atom_site_fract_y
_atom_site_fract_z
Si Si1 0.000000 0.077551 0.704192
Si Si2 0.812220 0.123407 0.782670
Si Si3 0.797160 0.293785 0.219511
Si Si4 0.500000 0.179133 0.785556
Si Si5 0.696699 0.954236 0.207889
Si Si6 0.000000 0.000000 0.000000
Si Si7 0.500000 0.921465 0.712301
O O1 0.087131 0.108274 0.732065
O O2 0.000000 0.061607 0.500000
O O3 0.000000 0.038213 0.843172
O O4 0.768236 0.167509 0.722687
O O5 0.747821 0.085659 0.713016
O O6 0.808292 0.124908 0.000000
O O7 0.750000 0.250000 0.274918
O O8 0.902751 0.301614 0.279520
O O9 0.799863 0.293928 0.000000
O O10 0.500000 0.128609 0.752518
O O11 0.500000 0.185007 0.000000
O O12 0.589917 0.943725 0.212720
O O13 0.716008 0.000000 0.289026
O O14 0.726362 0.956479 0.000000
O O15 0.500000 0.927077 0.500000
#
# Coordination Sequence:
#
# PCOD9484612 Si02
#       7
#     8  16  16   8  16   2   8
#     4  12  27  44  70  99 134 178 227 287 346 412
#     4  10  20  39  64  92 129 169 214 278 339 396
#     4   9  18  33  62  99 127 164 220 276 333 395
#     4  10  18  36  60  86 121 162 207 252 307 382
#     4  10  21  36  60  86 117 161 208 251 311 381
#     4  12  26  52  72  98 136 174 238 280 344 410
#     4  12  23  35  53  82 122 160 203 256 306 368
#
# _framework density 21.544982000000001
#
# number of rings (size 3 to 8) (size 9 to 14) (size 15 to 20)
#    0.000    1.730    3.243    1.459    1.514    3.459 
#    0.000    3.243    0.000    3.892    0.000    0.000 
#    0.000    0.000    0.000    0.000    0.000    0.000 
#
# Total GULP energy -206375.845180 kJ/mol
# GULP energy per Si atom -5577.725545 kJ/mol
# Density = 2.149594 g / cm^3
# Si number density = 21.544982 Si / 1000 Ang^3
#
#
#
# Elastic Constant Matrix: (Units=GPa)
#
#
# Indices 1 2 3 4 5 6 
#
# 1 96.2471 90.8119 12.3652 0.0000 0.0000 0.0000
# 2 90.8119 225.8345 29.8314 0.0000 0.0000 0.0000
# 3 12.3652 29.8314 100.4719 0.0000 0.0000 0.0000
# 4 0.0000 0.0000 0.0000 -10.1322 0.0000 0.0000
# 5 0.0000 0.0000 0.0000 0.0000 78.9031 0.0000
# 6 0.0000 0.0000 0.0000 0.0000 0.0000 20.5921
#
#
#
# Elastic Compliance Matrix: (Units=1/GPa)
#
#
# Indices 1 2 3 4 5 6 
#
# 1 0.016742 -0.006724 -0.000064 0.000000 0.000000 0.000000
# 2 -0.006724 0.007309 -0.001343 0.000000 0.000000 0.000000
# 3 -0.000064 -0.001343 0.010360 0.000000 0.000000 0.000000
# 4 0.000000 0.000000 0.000000 -0.098695 0.000000 0.000000
# 5 0.000000 0.000000 0.000000 0.000000 0.012674 0.000000
# 6 0.000000 0.000000 0.000000 0.000000 0.000000 0.048562
#
#
# Mechanical properties :
#
#
# Convention : Reuss Voigt Hill
#
# Bulk Modulus (GPa) = 55.09714 76.50783 65.80249
# Shear Modulus (GPa) = 259.55714 37.17560 148.36637
#
# Velocity S-wave (km/s) = 10.98789 4.15841 8.30741
# Velocity P-wave (km/s) = 13.66041 7.65796 11.07364
#
# Compressibility (1/GPa) = 0.01814976
#
# Stress axis : x y z
#
# Youngs Moduli (GPa) = 59.72872 136.81420 96.52908
#
# Poissons Ratio (x) = 0.91993 0.00619
# Poissons Ratio (y) = 0.40161 0.12961
# Poissons Ratio (z) = 0.00383 0.18370
#
# Static dielectric constant tensor:
#      x y z
#    x 1.713950 0.000000 0.000000 
#    y 0.000000 1.750200 0.000000 
#    z 0.000000 0.000000 1.804990 
# 
# From -- ./inp_files/7475.got.cif
#   From: 2010.05.17/outbox.cif.g08.bks.cpg/sg65_4_cif.got.tgz:7475.got - 2010.06.03 17:01:31.
