data_PCOD9484867
_publ_section_title
;
Structure prediction by ZEFSAII (Michael W. Deem and Ramdas Pophale) SiO2 
 PCOD9484867
Probable space group: C M M M
;
_chemical_formula_sum "Si O2"
_cell_formula_units_Z 104
_cell_length_a 17.870990
_cell_length_b 27.392921
_cell_length_c 13.611187
_cell_angle_alpha 90.000000
_cell_angle_beta 90.000000
_cell_angle_gamma 90.000000
_cell_volume 6663.201663
_symmetry_space_group_name_H-M "C M M M"
_symmetry_group_IT_number 65
_symmetry_cell_setting 'orthorhombic'
loop_
_space_group_symop_operation_xyz
x,y,z
-x,-y,z
x,-y,-z
-x,y,-z
-x,-y,-z
x,y,-z
-x,y,z
x,-y,z
1/2+x,1/2+y,z
1/2-x,1/2-y,z
1/2+x,1/2-y,-z
1/2-x,1/2+y,-z
1/2-x,1/2-y,-z
1/2+x,1/2+y,-z
1/2-x,1/2+y,z
1/2+x,1/2-y,z
loop_
_atom_site_type_symbol
_atom_site_label
_atom_site_fract_x
_atom_site_fract_y
_atom_site_fract_z
Si Si1 0.343406 0.614215 0.115219
Si Si2 0.261740 0.441108 0.612068
Si Si3 0.587027 0.178781 0.117157
Si Si4 0.911888 0.500000 0.881823
Si Si5 0.583272 0.441558 0.287586
Si Si6 0.317083 0.908543 0.805204
Si Si7 0.672162 0.726215 0.881377
O O1 0.398877 0.584312 0.184450
O O2 0.260042 0.593019 0.132788
O O3 0.340910 0.670769 0.150051
O O4 0.362241 0.612135 0.000000
O O5 0.245804 0.427344 0.500000
O O6 0.253885 0.500000 0.620842
O O7 0.347728 0.429128 0.640751
O O8 0.208778 0.416890 0.693337
O O9 0.500000 0.168924 0.134346
O O10 0.639281 0.141485 0.174903
O O11 0.608121 0.234567 0.141307
O O12 0.601923 0.172014 0.000000
O O13 0.869756 0.452551 0.840466
O O14 0.000000 0.500000 0.855912
O O15 0.906713 0.500000 0.000000
O O16 0.500000 0.428654 0.322970
O O17 0.585739 0.500000 0.274043
O O18 0.750000 0.750000 0.846097
O O19 0.677783 0.723170 0.000000
#
# Coordination Sequence:
#
# PCOD9484867 Si02
#       7
#    16  16  16   8  16  16  16
#     4  10  19  29  47  70  99 138 168 196 236 286
#     4   9  18  34  54  72  91 122 163 208 251 287
#     4  10  19  30  47  71  99 130 164 202 238 277
#     4  11  22  32  45  69 104 139 165 191 227 281
#     4   9  19  33  47  71 102 128 161 200 240 291
#     4  11  19  32  48  71  97 127 166 202 241 288
#     4   9  16  29  45  65  94 129 169 203 235 275
#
# _framework density 15.608112
#
# number of rings (size 3 to 8) (size 9 to 14) (size 15 to 20)
#    0.000    2.231    2.308    1.846    1.077    2.769 
#    0.000    3.846    0.000    2.308    0.000    8.615 
#    0.000    0.000    0.000    0.000    0.000    0.000 
#
# Total GULP energy -289846.733160 kJ/mol
# GULP energy per Si atom -5573.975638 kJ/mol
# Density = 1.557259 g / cm^3
# Si number density = 15.608112 Si / 1000 Ang^3
#
#
#
# Elastic Constant Matrix: (Units=GPa)
#
#
# Indices 1 2 3 4 5 6 
#
# 1 84.7682 28.2704 30.5253 0.0000 0.0000 0.0000
# 2 28.2704 47.0442 17.4149 0.0000 0.0000 0.0000
# 3 30.5253 17.4149 71.5357 0.0000 0.0000 0.0000
# 4 0.0000 0.0000 0.0000 -3.6246 0.0000 0.0000
# 5 0.0000 0.0000 0.0000 0.0000 9.8381 0.0000
# 6 0.0000 0.0000 0.0000 0.0000 0.0000 23.5896
#
#
#
# Elastic Compliance Matrix: (Units=1/GPa)
#
#
# Indices 1 2 3 4 5 6 
#
# 1 0.016235 -0.007904 -0.005003 0.000000 0.000000 0.000000
# 2 -0.007904 0.027210 -0.003251 0.000000 0.000000 0.000000
# 3 -0.005003 -0.003251 0.016906 0.000000 0.000000 0.000000
# 4 0.000000 0.000000 0.000000 -0.275892 0.000000 0.000000
# 5 0.000000 0.000000 0.000000 0.000000 0.101646 0.000000
# 6 0.000000 0.000000 0.000000 0.000000 0.000000 0.042392
#
#
# Mechanical properties :
#
#
# Convention : Reuss Voigt Hill
#
# Bulk Modulus (GPa) = 35.67241 39.52994 37.60117
# Shear Modulus (GPa) = -167.53763 14.43646 -76.55059
#
# Velocity S-wave (km/s) = -10.37175 3.04457 -7.01084
# Velocity P-wave (km/s) = 10.97844 6.14335 6.43372
#
# Compressibility (1/GPa) = 0.02803287
#
# Stress axis : x y z
#
# Youngs Moduli (GPa) = 61.59719 36.75145 59.15199
#
# Poissons Ratio (x) = 0.29047 0.29596
# Poissons Ratio (y) = 0.48684 0.19233
# Poissons Ratio (z) = 0.30820 0.11950
#
# Static dielectric constant tensor:
#      x y z
#    x 1.531810 0.000000 0.000000 
#    y 0.000000 1.524800 0.000000 
#    z 0.000000 0.000000 1.493180 
# 
# From -- ./inp_files/27475.got.cif
#   From: 2010.05.17/outbox.cif.g08.bks.cpg/sg65_14_cif.got.tgz:27475.got - 2010.06.03 17:01:31.
