data_PCOD9484208
_publ_section_title
;
Structure prediction by ZEFSAII (Michael W. Deem and Ramdas Pophale) SiO2 
 PCOD9484208
Probable space group: C M M M
;
_chemical_formula_sum "Si O2"
_cell_formula_units_Z 88
_cell_length_a 16.206720
_cell_length_b 8.623176
_cell_length_c 31.915334
_cell_angle_alpha 90.000000
_cell_angle_beta 90.000000
_cell_angle_gamma 90.000000
_cell_volume 4460.276405
_symmetry_space_group_name_H-M "C M M M"
_symmetry_group_IT_number 65
_symmetry_cell_setting 'orthorhombic'
loop_
_space_group_symop_operation_xyz
x,y,z
-x,-y,z
x,-y,-z
-x,y,-z
-x,-y,-z
x,y,-z
-x,y,z
x,-y,z
1/2+x,1/2+y,z
1/2-x,1/2-y,z
1/2+x,1/2-y,-z
1/2-x,1/2+y,-z
1/2-x,1/2-y,-z
1/2+x,1/2+y,-z
1/2-x,1/2+y,z
1/2+x,1/2-y,z
loop_
_atom_site_type_symbol
_atom_site_label
_atom_site_fract_x
_atom_site_fract_y
_atom_site_fract_z
Si Si1 0.000000 0.811327 0.951912
Si Si2 0.843978 0.314373 0.193862
Si Si3 0.655965 0.686911 0.895261
Si Si4 0.657114 0.687231 0.720369
Si Si5 0.657647 0.815280 0.454929
Si Si6 0.597225 0.327056 0.369547
O O1 0.914781 0.765944 0.928504
O O2 0.000000 0.000000 0.951639
O O3 0.000000 0.758597 0.000000
O O4 0.843504 0.500000 0.193494
O O5 0.750000 0.250000 0.194361
O O6 0.875613 0.248194 0.149926
O O7 0.883350 0.253345 0.237141
O O8 0.661585 0.500000 0.894089
O O9 0.750000 0.750000 0.902657
O O10 0.654157 0.500000 0.722258
O O11 0.750000 0.750000 0.720632
O O12 0.623138 0.739860 0.675361
O O13 0.619556 0.764791 0.500000
O O14 0.750000 0.750000 0.454518
O O15 0.617723 0.761077 0.411932
O O16 0.659552 0.000000 0.454902
O O17 0.500000 0.341238 0.367570
O O18 0.635400 0.500000 0.372795
#
# Coordination Sequence:
#
# PCOD9484208 Si02
#       6
#     8  16  16  16  16  16
#     4   9  20  38  59  85 117 155 199 239 284 349
#     4  10  18  31  53  80 110 142 182 227 274 329
#     4  10  19  35  59  85 115 152 193 240 291 343
#     4  10  19  33  54  78 106 139 181 225 270 323
#     4  10  21  37  58  82 105 133 173 220 268 321
#     4  10  22  38  54  76 108 144 179 218 266 323
#
# _framework density 19.729718999999999
#
# number of rings (size 3 to 8) (size 9 to 14) (size 15 to 20)
#    0.000    2.091    0.000    6.000    0.000    5.091 
#    1.636    3.636    0.000    3.818    0.000    0.000 
#    0.000    0.000    0.000    0.000    0.000    0.000 
#
# Total GULP energy -245227.007722 kJ/mol
# GULP energy per Si atom -5573.341085 kJ/mol
# Density = 1.968481 g / cm^3
# Si number density = 19.729719 Si / 1000 Ang^3
#
#
#
# Elastic Constant Matrix: (Units=GPa)
#
#
# Indices 1 2 3 4 5 6 
#
# 1 62.4266 16.9367 72.2341 0.0000 0.0000 0.0000
# 2 16.9367 75.5296 55.5673 0.0000 0.0000 0.0000
# 3 72.2341 55.5673 236.5861 0.0000 0.0000 0.0000
# 4 0.0000 0.0000 0.0000 38.4690 0.0000 0.0000
# 5 0.0000 0.0000 0.0000 0.0000 129.7289 0.0000
# 6 0.0000 0.0000 0.0000 0.0000 0.0000 16.0174
#
#
#
# Elastic Compliance Matrix: (Units=1/GPa)
#
#
# Indices 1 2 3 4 5 6 
#
# 1 0.024770 0.000012 -0.007565 0.000000 0.000000 0.000000
# 2 0.000012 0.016006 -0.003763 0.000000 0.000000 0.000000
# 3 -0.007565 -0.003763 0.007420 0.000000 0.000000 0.000000
# 4 0.000000 0.000000 0.000000 0.025995 0.000000 0.000000
# 5 0.000000 0.000000 0.000000 0.000000 0.007708 0.000000
# 6 0.000000 0.000000 0.000000 0.000000 0.000000 0.062432
#
#
# Mechanical properties :
#
#
# Convention : Reuss Voigt Hill
#
# Bulk Modulus (GPa) = 39.12003 73.77986 56.44995
# Shear Modulus (GPa) = 28.49253 52.16336 40.32794
#
# Velocity S-wave (km/s) = 3.80431 5.14746 4.52599
# Velocity P-wave (km/s) = 6.25844 8.53258 7.48241
#
# Compressibility (1/GPa) = 0.02556235
#
# Stress axis : x y z
#
# Youngs Moduli (GPa) = 40.37214 62.47842 134.76396
#
# Poissons Ratio (x) = -0.00072 1.01953
# Poissons Ratio (y) = -0.00046 0.50708
# Poissons Ratio (z) = 0.30543 0.23509
#
# Static dielectric constant tensor:
#      x y z
#    x 1.717660 0.000000 0.000000 
#    y 0.000000 1.700960 0.000000 
#    z 0.000000 0.000000 1.777040 
# 
# From -- ./inp_files/77851.got.cif
#   From: 2010.05.17/outbox.cif.g08.bks.cpg/sg65_39_cif.got.tgz:77851.got - 2010.06.03 17:01:31.
