data_PCOD9484061
_publ_section_title
;
Structure prediction by ZEFSAII (Michael W. Deem and Ramdas Pophale) SiO2 
 PCOD9484061
Probable space group: C M M M
;
_chemical_formula_sum "Si O2"
_cell_formula_units_Z 104
_cell_length_a 19.862415
_cell_length_b 28.354431
_cell_length_c 12.119478
_cell_angle_alpha 90.000000
_cell_angle_beta 90.000000
_cell_angle_gamma 90.000000
_cell_volume 6825.538221
_symmetry_space_group_name_H-M "C M M M"
_symmetry_group_IT_number 65
_symmetry_cell_setting 'orthorhombic'
loop_
_space_group_symop_operation_xyz
x,y,z
-x,-y,z
x,-y,-z
-x,y,-z
-x,-y,-z
x,y,-z
-x,y,z
x,-y,z
1/2+x,1/2+y,z
1/2-x,1/2-y,z
1/2+x,1/2-y,-z
1/2-x,1/2+y,-z
1/2-x,1/2-y,-z
1/2+x,1/2+y,-z
1/2-x,1/2+y,z
1/2+x,1/2-y,z
loop_
_atom_site_type_symbol
_atom_site_label
_atom_site_fract_x
_atom_site_fract_y
_atom_site_fract_z
Si Si1 0.707270 0.386271 0.126180
Si Si2 0.128909 0.944225 0.284374
Si Si3 0.417676 0.613218 0.500000
Si Si4 0.581473 0.275750 0.500000
Si Si5 0.298395 0.204797 0.868738
Si Si6 0.000000 0.056225 0.126839
Si Si7 0.427637 0.325825 0.876480
Si Si8 0.422405 0.233812 0.269644
O O1 0.695055 0.425715 0.218862
O O2 0.761213 0.345137 0.148422
O O3 0.637069 0.357678 0.128394
O O4 0.716504 0.404247 0.000000
O O5 0.111530 0.913114 0.392023
O O6 0.066857 0.936721 0.199774
O O7 0.132985 0.000000 0.310665
O O8 0.500000 0.609844 0.500000
O O9 0.398448 0.668974 0.500000
O O10 0.500000 0.277432 0.500000
O O11 0.601188 0.246370 0.607571
O O12 0.250000 0.250000 0.840299
O O13 0.366629 0.205801 0.798517
O O14 0.312037 0.209556 0.000000
O O15 0.000000 0.000000 0.111974
O O16 0.000000 0.074796 0.000000
O O17 0.500000 0.350307 0.858578
O O18 0.424285 0.284502 0.789809
O O19 0.428297 0.305130 0.000000
O O20 0.500000 0.215640 0.269266
#
# Coordination Sequence:
#
# PCOD9484061 Si02
#       8
#    16  16   8   8  16   8  16  16
#     4  10  20  32  47  68  94 124 155 196 249 298
#     4  11  22  34  48  64  89 124 165 210 249 289
#     4  11  21  34  48  66  93 131 175 215 253 288
#     4   9  20  33  48  70  94 128 165 207 244 278
#     4  10  19  32  49  71  99 126 152 193 245 297
#     4   9  18  31  47  67  87 110 149 205 257 287
#     4   9  16  25  41  64  86 114 152 191 231 279
#     4  10  18  31  49  68  93 124 162 199 235 281
#
# _framework density 15.236893999999999
#
# number of rings (size 3 to 8) (size 9 to 14) (size 15 to 20)
#    0.000    2.077    2.308    2.077    1.077    3.385 
#    0.000    1.154    0.000    0.000    0.000    0.000 
#    0.000    0.615    0.000    3.385    0.000    6.308 
#
# Total GULP energy -289695.445156 kJ/mol
# GULP energy per Si atom -5571.066253 kJ/mol
# Density = 1.520221 g / cm^3
# Si number density = 15.236894 Si / 1000 Ang^3
#
#
#
# Elastic Constant Matrix: (Units=GPa)
#
#
# Indices 1 2 3 4 5 6 
#
# 1 68.9283 35.0730 42.2956 0.0000 0.0000 0.0000
# 2 35.0730 43.4175 29.3878 0.0000 0.0000 0.0000
# 3 42.2956 29.3878 88.6171 0.0000 0.0000 0.0000
# 4 0.0000 0.0000 0.0000 21.3310 0.0000 0.0000
# 5 0.0000 0.0000 0.0000 0.0000 22.4181 0.0000
# 6 0.0000 0.0000 0.0000 0.0000 0.0000 22.9441
#
#
#
# Elastic Compliance Matrix: (Units=1/GPa)
#
#
# Indices 1 2 3 4 5 6 
#
# 1 0.028101 -0.017565 -0.007587 0.000000 0.000000 0.000000
# 2 -0.017565 0.040677 -0.005106 0.000000 0.000000 0.000000
# 3 -0.007587 -0.005106 0.016599 0.000000 0.000000 0.000000
# 4 0.000000 0.000000 0.000000 0.046880 0.000000 0.000000
# 5 0.000000 0.000000 0.000000 0.000000 0.044607 0.000000
# 6 0.000000 0.000000 0.000000 0.000000 0.000000 0.043584
#
#
# Mechanical properties :
#
#
# Convention : Reuss Voigt Hill
#
# Bulk Modulus (GPa) = 40.22366 46.05285 43.13826
# Shear Modulus (GPa) = 17.28596 19.61908 18.45252
#
# Velocity S-wave (km/s) = 3.37186 3.59221 3.48378
# Velocity P-wave (km/s) = 6.45100 6.89170 6.67499
#
# Compressibility (1/GPa) = 0.02486099
#
# Stress axis : x y z
#
# Youngs Moduli (GPa) = 35.58593 24.58372 60.24388
#
# Poissons Ratio (x) = 0.43180 0.45709
# Poissons Ratio (y) = 0.62505 0.30763
# Poissons Ratio (z) = 0.27000 0.12553
#
# Static dielectric constant tensor:
#      x y z
#    x 1.517150 0.000000 0.000000 
#    y 0.000000 1.538790 0.000000 
#    z 0.000000 0.000000 1.564050 
# 
# From -- ./inp_files/29749.got.cif
#   From: 2010.05.17/outbox.cif.g08.bks.cpg/sg65_15_cif.got.tgz:29749.got - 2010.06.03 17:01:31.
