data_PCOD9484373
_publ_section_title
;
Structure prediction by ZEFSAII (Michael W. Deem and Ramdas Pophale) SiO2 
 PCOD9484373
Probable space group: C M M M
;
_chemical_formula_sum "Si O2"
_cell_formula_units_Z 128
_cell_length_a 20.552538
_cell_length_b 20.116280
_cell_length_c 19.074604
_cell_angle_alpha 90.000000
_cell_angle_beta 90.000000
_cell_angle_gamma 90.000000
_cell_volume 7886.215896
_symmetry_space_group_name_H-M "C M M M"
_symmetry_group_IT_number 65
_symmetry_cell_setting 'orthorhombic'
loop_
_space_group_symop_operation_xyz
x,y,z
-x,-y,z
x,-y,-z
-x,y,-z
-x,-y,-z
x,y,-z
-x,y,z
x,-y,z
1/2+x,1/2+y,z
1/2-x,1/2-y,z
1/2+x,1/2-y,-z
1/2-x,1/2+y,-z
1/2-x,1/2-y,-z
1/2+x,1/2+y,-z
1/2-x,1/2+y,z
1/2+x,1/2-y,z
loop_
_atom_site_type_symbol
_atom_site_label
_atom_site_fract_x
_atom_site_fract_y
_atom_site_fract_z
Si Si1 0.309527 0.078047 0.919291
Si Si2 0.423708 0.181787 0.081229
Si Si3 0.266336 0.425400 0.645259
Si Si4 0.574297 0.211205 0.644270
Si Si5 0.140006 0.746518 0.211236
Si Si6 0.878412 0.423686 0.583371
Si Si7 0.810918 0.206305 0.582247
Si Si8 0.757519 0.859359 0.790772
O O1 0.377457 0.117446 0.909514
O O2 0.257226 0.106326 0.864813
O O3 0.319119 0.000000 0.908005
O O4 0.289330 0.088933 0.000000
O O5 0.500000 0.167813 0.092728
O O6 0.396986 0.233488 0.138367
O O7 0.415990 0.203643 0.000000
O O8 0.291282 0.500000 0.634240
O O9 0.197739 0.419362 0.604176
O O10 0.310579 0.365260 0.618286
O O11 0.254294 0.411058 0.727112
O O12 0.500000 0.227761 0.629572
O O13 0.593364 0.231357 0.723399
O O14 0.586006 0.133348 0.627407
O O15 0.624764 0.251962 0.596781
O O16 0.175742 0.817612 0.212502
O O17 0.198603 0.693141 0.218190
O O18 0.885960 0.411388 0.500000
O O19 0.899385 0.500000 0.597541
O O20 0.800535 0.196912 0.500000
O O21 0.750000 0.250000 0.610674
#
# Coordination Sequence:
#
# PCOD9484373 Si02
#       8
#    16  16  16  16  16  16  16  16
#     4   9  18  31  48  75 109 140 173 214 258 311
#     4   9  18  32  49  72 105 144 180 211 249 304
#     4  11  20  33  56  82 105 135 178 225 269 318
#     4  12  23  36  55  80 110 144 182 223 268 319
#     4  10  19  33  52  75 103 135 172 220 265 306
#     4  10  21  36  54  79 111 144 178 218 266 321
#     4  11  21  36  56  78 106 139 179 225 268 318
#     4  10  18  32  54  75 101 135 172 214 269 318
#
# _framework density 16.230851000000001
#
# number of rings (size 3 to 8) (size 9 to 14) (size 15 to 20)
#    0.000    1.750    3.750    1.500    0.000    2.750 
#    0.000    4.375    0.000    1.875    0.000    0.875 
#    0.000    0.000    0.000    6.000    0.000    0.250 
#
# Total GULP energy -356962.357560 kJ/mol
# GULP energy per Si atom -5577.536837 kJ/mol
# Density = 1.619391 g / cm^3
# Si number density = 16.230851 Si / 1000 Ang^3
#
#
#
# Elastic Constant Matrix: (Units=GPa)
#
#
# Indices 1 2 3 4 5 6 
#
# 1 74.1737 38.8704 27.1582 0.0000 0.0000 0.0000
# 2 38.8704 78.3351 31.7894 0.0000 0.0000 0.0000
# 3 27.1582 31.7894 76.2262 0.0000 0.0000 0.0000
# 4 0.0000 0.0000 0.0000 25.7029 0.0000 0.0000
# 5 0.0000 0.0000 0.0000 0.0000 8.3635 0.0000
# 6 0.0000 0.0000 0.0000 0.0000 0.0000 13.4030
#
#
#
# Elastic Compliance Matrix: (Units=1/GPa)
#
#
# Indices 1 2 3 4 5 6 
#
# 1 0.018925 -0.008010 -0.003402 0.000000 0.000000 0.000000
# 2 -0.008010 0.018757 -0.004968 0.000000 0.000000 0.000000
# 3 -0.003402 -0.004968 0.016403 0.000000 0.000000 0.000000
# 4 0.000000 0.000000 0.000000 0.038906 0.000000 0.000000
# 5 0.000000 0.000000 0.000000 0.000000 0.119567 0.000000
# 6 0.000000 0.000000 0.000000 0.000000 0.000000 0.074610
#
#
# Mechanical properties :
#
#
# Convention : Reuss Voigt Hill
#
# Bulk Modulus (GPa) = 46.89689 47.15234 47.02461
# Shear Modulus (GPa) = 15.28876 18.22168 16.75522
#
# Velocity S-wave (km/s) = 3.07246 3.35424 3.21644
# Velocity P-wave (km/s) = 6.44539 6.64194 6.54440
#
# Compressibility (1/GPa) = 0.02132338
#
# Stress axis : x y z
#
# Youngs Moduli (GPa) = 52.83935 53.31460 60.96441
#
# Poissons Ratio (x) = 0.42706 0.20741
# Poissons Ratio (y) = 0.42325 0.30289
# Poissons Ratio (z) = 0.17977 0.26488
#
# Static dielectric constant tensor:
#      x y z
#    x 1.520560 0.000000 0.000000 
#    y 0.000000 1.538710 0.000000 
#    z 0.000000 0.000000 1.563310 
# 
# From -- ./inp_files/56251.got.cif
#   From: 2010.05.17/outbox.cif.g08.bks.cpg/sg65_29_cif.got.tgz:56251.got - 2010.06.03 17:01:31.
