data_PCOD9484557
_publ_section_title
;
Structure prediction by ZEFSAII (Michael W. Deem and Ramdas Pophale) SiO2 
 PCOD9484557
Probable space group: C M M M
;
_chemical_formula_sum "Si O2"
_cell_formula_units_Z 88
_cell_length_a 7.943591
_cell_length_b 24.255407
_cell_length_c 23.857753
_cell_angle_alpha 90.000000
_cell_angle_beta 90.000000
_cell_angle_gamma 90.000000
_cell_volume 4596.793341
_symmetry_space_group_name_H-M "C M M M"
_symmetry_group_IT_number 65
_symmetry_cell_setting 'orthorhombic'
loop_
_space_group_symop_operation_xyz
x,y,z
-x,-y,z
x,-y,-z
-x,y,-z
-x,-y,-z
x,y,-z
-x,y,z
x,-y,z
1/2+x,1/2+y,z
1/2-x,1/2-y,z
1/2+x,1/2-y,-z
1/2-x,1/2+y,-z
1/2-x,1/2-y,-z
1/2+x,1/2+y,-z
1/2-x,1/2+y,z
1/2+x,1/2-y,z
loop_
_atom_site_type_symbol
_atom_site_label
_atom_site_fract_x
_atom_site_fract_y
_atom_site_fract_z
Si Si1 0.296379 0.313987 0.783262
Si Si2 0.296894 0.313877 0.438001
Si Si3 0.197536 0.563213 0.000000
Si Si4 0.794626 0.121653 0.328938
Si Si5 0.295901 0.500000 0.699648
Si Si6 0.804646 0.500000 0.826612
Si Si7 0.805175 0.111704 0.117076
O O1 0.500000 0.318340 0.783847
O O2 0.250000 0.250000 0.779044
O O3 0.237973 0.348089 0.728350
O O4 0.231247 0.342127 0.840878
O O5 0.236980 0.331721 0.500000
O O6 0.500000 0.317905 0.438155
O O7 0.250000 0.250000 0.431153
O O8 0.233724 0.347781 0.384718
O O9 0.239013 0.597922 0.944534
O O10 0.272917 0.500000 0.000000
O O11 0.000000 0.555556 0.000000
O O12 0.749071 0.057350 0.329229
O O13 0.000000 0.124414 0.328531
O O14 0.500000 0.500000 0.707091
O O15 0.212489 0.500000 0.760350
O O16 0.717075 0.554383 0.849913
O O17 0.000000 0.500000 0.844582
O O18 0.000000 0.125263 0.109926
#
# Coordination Sequence:
#
# PCOD9484557 Si02
#       7
#    16  16   8  16   8   8  16
#     4  10  21  36  55  79 105 138 180 222 266 316
#     4   9  17  30  49  74 104 138 179 223 266 313
#     4  11  23  37  56  87 117 138 173 225 270 306
#     4   9  17  31  52  77 104 138 178 219 263 318
#     4  10  18  34  54  73 104 144 177 212 268 332
#     4  12  22  33  53  83 113 139 172 224 275 312
#     4  11  22  38  59  81 108 146 184 214 260 328
#
# _framework density 19.14378
#
# number of rings (size 3 to 8) (size 9 to 14) (size 15 to 20)
#    0.000    1.909    2.727    2.182    0.000    1.818 
#    0.000    1.818    0.000    2.727    0.000    0.000 
#    0.000    3.636    0.000    0.000    0.000    0.000 
#
# Total GULP energy -245468.934373 kJ/mol
# GULP energy per Si atom -5578.839418 kJ/mol
# Density = 1.910021 g / cm^3
# Si number density = 19.143780 Si / 1000 Ang^3
#
#
#
# Elastic Constant Matrix: (Units=GPa)
#
#
# Indices 1 2 3 4 5 6 
#
# 1 19.9711 0.9784 16.9641 0.0000 0.0000 0.0000
# 2 0.9784 138.6358 95.0190 0.0000 0.0000 0.0000
# 3 16.9641 95.0190 189.8793 0.0000 0.0000 0.0000
# 4 0.0000 0.0000 0.0000 10.9324 0.0000 0.0000
# 5 0.0000 0.0000 0.0000 0.0000 -18.4796 0.0000
# 6 0.0000 0.0000 0.0000 0.0000 0.0000 19.1231
#
#
#
# Elastic Compliance Matrix: (Units=1/GPa)
#
#
# Indices 1 2 3 4 5 6 
#
# 1 0.056066 0.004623 -0.007322 0.000000 0.000000 0.000000
# 2 0.004623 0.011360 -0.006098 0.000000 0.000000 0.000000
# 3 -0.007322 -0.006098 0.008972 0.000000 0.000000 0.000000
# 4 0.000000 0.000000 0.000000 0.091471 0.000000 0.000000
# 5 0.000000 0.000000 0.000000 0.000000 -0.054114 0.000000
# 6 0.000000 0.000000 0.000000 0.000000 0.000000 0.052293
#
#
# Mechanical properties :
#
#
# Convention : Reuss Voigt Hill
#
# Bulk Modulus (GPa) = 17.00580 63.82325 40.41453
# Shear Modulus (GPa) = 24.60102 18.01681 21.30892
#
# Velocity S-wave (km/s) = 3.58867 3.07111 3.33993
# Velocity P-wave (km/s) = 5.10626 6.78137 6.00253
#
# Compressibility (1/GPa) = 0.05880346
#
# Stress axis : x y z
#
# Youngs Moduli (GPa) = 17.83619 88.02992 111.45680
#
# Poissons Ratio (x) = -0.40696 0.81614
# Poissons Ratio (y) = -0.08246 0.67963
# Poissons Ratio (z) = 0.13060 0.53678
#
# Static dielectric constant tensor:
#      x y z
#    x 1.689310 0.000000 0.000000 
#    y 0.000000 1.643710 0.000000 
#    z 0.000000 0.000000 1.681660 
# 
# From -- ./inp_files/59899.got.cif
#   From: 2010.05.17/outbox.cif.g08.bks.cpg/sg65_30_cif.got.tgz:59899.got - 2010.06.03 17:01:31.
