data_PCOD9484968
_publ_section_title
;
Structure prediction by ZEFSAII (Michael W. Deem and Ramdas Pophale) SiO2 
 PCOD9484968
Probable space group: C M M M
;
_chemical_formula_sum "Si O2"
_cell_formula_units_Z 120
_cell_length_a 21.347885
_cell_length_b 23.786041
_cell_length_c 13.690618
_cell_angle_alpha 90.000000
_cell_angle_beta 90.000000
_cell_angle_gamma 90.000000
_cell_volume 6951.844842
_symmetry_space_group_name_H-M "C M M M"
_symmetry_group_IT_number 65
_symmetry_cell_setting 'orthorhombic'
loop_
_space_group_symop_operation_xyz
x,y,z
-x,-y,z
x,-y,-z
-x,y,-z
-x,-y,-z
x,y,-z
-x,y,z
x,-y,z
1/2+x,1/2+y,z
1/2-x,1/2-y,z
1/2+x,1/2-y,-z
1/2-x,1/2+y,-z
1/2-x,1/2-y,-z
1/2+x,1/2+y,-z
1/2-x,1/2+y,z
1/2+x,1/2-y,z
loop_
_atom_site_type_symbol
_atom_site_label
_atom_site_fract_x
_atom_site_fract_y
_atom_site_fract_z
Si Si1 0.652378 0.566659 0.192520
Si Si2 0.103389 0.786473 0.890858
Si Si3 0.924576 0.435765 0.885538
Si Si4 0.070151 0.851142 0.299640
Si Si5 0.761563 0.155966 0.114905
Si Si6 0.075106 0.734255 0.611550
Si Si7 0.429884 0.432642 0.000000
Si Si8 0.629864 0.824758 0.798265
O O1 0.656969 0.500000 0.205261
O O2 0.618946 0.598607 0.282309
O O3 0.716419 0.597149 0.162456
O O4 0.608738 0.579526 0.097600
O O5 0.069113 0.818513 0.804256
O O6 0.176802 0.804456 0.880956
O O7 0.097585 0.720367 0.870890
O O8 0.083444 0.801070 0.000000
O O9 0.906627 0.500000 0.859616
O O10 0.893816 0.387145 0.821495
O O11 0.000000 0.432027 0.877933
O O12 0.908163 0.427117 0.000000
O O13 0.089030 0.800703 0.371944
O O14 0.000000 0.871367 0.322690
O O15 0.703092 0.177896 0.175656
O O16 0.745309 0.149989 0.000000
O O17 0.088424 0.718554 0.500000
O O18 0.112070 0.697689 0.691077
O O19 0.000000 0.728259 0.628762
O O20 0.435181 0.500000 0.000000
O O21 0.500000 0.409783 0.000000
#
# Coordination Sequence:
#
# PCOD9484968 Si02
#       8
#    16  16  16  16  16  16   8  16
#     4  10  19  31  45  67 104 145 182 216 245 283
#     4   9  18  30  43  66 102 135 162 203 249 293
#     4   9  18  31  45  67 102 133 155 188 233 282
#     4   9  18  30  48  74 100 131 170 211 262 315
#     4  10  19  30  44  66 103 142 173 206 245 290
#     4   9  19  37  58  79 102 123 153 212 282 333
#     4   9  16  26  42  64  93 136 183 217 243 276
#     4  11  19  30  52  74  91 125 174 206 239 306
#
# _framework density 17.261604999999999
#
# number of rings (size 3 to 8) (size 9 to 14) (size 15 to 20)
#    0.000    2.467    0.667    2.800    0.933    3.200 
#    0.000    0.000    0.000   15.200    0.000    3.733 
#    0.000    0.000    0.000    0.000    0.000    0.000 
#
# Total GULP energy -334519.842325 kJ/mol
# GULP energy per Si atom -5575.330705 kJ/mol
# Density = 1.722232 g / cm^3
# Si number density = 17.261605 Si / 1000 Ang^3
#
#
#
# Elastic Constant Matrix: (Units=GPa)
#
#
# Indices 1 2 3 4 5 6 
#
# 1 48.5901 23.4838 30.6830 0.0000 0.0000 0.0000
# 2 23.4838 108.7590 34.6997 0.0000 0.0000 0.0000
# 3 30.6830 34.6997 75.4389 0.0000 0.0000 0.0000
# 4 0.0000 0.0000 0.0000 17.7042 0.0000 0.0000
# 5 0.0000 0.0000 0.0000 0.0000 13.4534 0.0000
# 6 0.0000 0.0000 0.0000 0.0000 0.0000 23.1686
#
#
#
# Elastic Compliance Matrix: (Units=1/GPa)
#
#
# Indices 1 2 3 4 5 6 
#
# 1 0.028438 -0.002872 -0.010246 0.000000 0.000000 0.000000
# 2 -0.002872 0.011066 -0.003922 0.000000 0.000000 0.000000
# 3 -0.010246 -0.003922 0.019227 0.000000 0.000000 0.000000
# 4 0.000000 0.000000 0.000000 0.056484 0.000000 0.000000
# 5 0.000000 0.000000 0.000000 0.000000 0.074331 0.000000
# 6 0.000000 0.000000 0.000000 0.000000 0.000000 0.043162
#
#
# Mechanical properties :
#
#
# Convention : Reuss Voigt Hill
#
# Bulk Modulus (GPa) = 40.56409 45.61343 43.08876
# Shear Modulus (GPa) = 18.18161 20.46002 19.32081
#
# Velocity S-wave (km/s) = 3.24898 3.44654 3.34921
# Velocity P-wave (km/s) = 6.13393 6.50541 6.32240
#
# Compressibility (1/GPa) = 0.02465235
#
# Stress axis : x y z
#
# Youngs Moduli (GPa) = 35.16432 90.36660 52.01029
#
# Poissons Ratio (x) = 0.25949 0.53288
# Poissons Ratio (y) = 0.10098 0.20399
# Poissons Ratio (z) = 0.36028 0.35443
#
# Static dielectric constant tensor:
#      x y z
#    x 1.621270 0.000000 0.000000 
#    y 0.000000 1.619370 0.000000 
#    z 0.000000 0.000000 1.569890 
# 
# From -- ./inp_files/44789.got.cif
#   From: 2010.05.17/outbox.cif.g08.bks.cpg/sg65_23_cif.got.tgz:44789.got - 2010.06.03 17:01:31.
