data_PCOD9484068
_publ_section_title
;
Structure prediction by ZEFSAII (Michael W. Deem and Ramdas Pophale) SiO2 
 PCOD9484068
Probable space group: C M M M
;
_chemical_formula_sum "Si O2"
_cell_formula_units_Z 120
_cell_length_a 29.367222
_cell_length_b 8.314152
_cell_length_c 29.667491
_cell_angle_alpha 90.000000
_cell_angle_beta 90.000000
_cell_angle_gamma 90.000000
_cell_volume 7243.719849
_symmetry_space_group_name_H-M "C M M M"
_symmetry_group_IT_number 65
_symmetry_cell_setting 'orthorhombic'
loop_
_space_group_symop_operation_xyz
x,y,z
-x,-y,z
x,-y,-z
-x,y,-z
-x,-y,-z
x,y,-z
-x,y,z
x,-y,z
1/2+x,1/2+y,z
1/2-x,1/2-y,z
1/2+x,1/2-y,-z
1/2-x,1/2+y,-z
1/2-x,1/2-y,-z
1/2+x,1/2+y,-z
1/2-x,1/2+y,z
1/2+x,1/2-y,z
loop_
_atom_site_type_symbol
_atom_site_label
_atom_site_fract_x
_atom_site_fract_y
_atom_site_fract_z
Si Si1 0.606644 0.196722 0.232845
Si Si2 0.447305 0.196731 0.500000
Si Si3 0.393284 0.805661 0.410981
Si Si4 0.447684 0.803620 0.322167
Si Si5 0.299984 0.192309 0.273953
Si Si6 0.947402 0.693399 0.145285
Si Si7 0.054030 0.193072 0.048802
Si Si8 0.299938 0.690733 0.623276
O O1 0.576360 0.245781 0.275837
O O2 0.658248 0.249144 0.243017
O O3 0.583582 0.251961 0.186529
O O4 0.606693 0.000000 0.232026
O O5 0.500000 0.248534 0.500000
O O6 0.420375 0.248215 0.544724
O O7 0.447821 0.000000 0.500000
O O8 0.419513 0.750517 0.365852
O O9 0.341328 0.750032 0.407398
O O10 0.393606 0.000000 0.410785
O O11 0.500000 0.751497 0.324233
O O12 0.447551 0.000000 0.322588
O O13 0.199858 0.500000 0.274075
O O14 0.250000 0.250000 0.260005
O O15 0.307705 0.246064 0.325663
O O16 0.949190 0.500000 0.147842
O O17 0.928645 0.738906 0.095987
O O18 0.000000 0.752075 0.149605
O O19 0.000000 0.232343 0.048511
O O20 0.057900 0.000000 0.050070
O O21 0.072572 0.248712 0.000000
O O22 0.299524 0.500000 0.624909
O O23 0.250000 0.750000 0.608895
#
# Coordination Sequence:
#
# PCOD9484068 Si02
#       8
#    16   8  16  16  16  16  16  16
#     4   9  16  26  41  65  94 120 149 185 227 271
#     4   9  18  32  54  83 106 125 158 201 234 265
#     4  10  18  32  52  76 101 125 156 194 233 273
#     4   9  15  24  43  68  92 122 158 188 216 261
#     4  10  18  31  49  70  94 122 154 191 232 276
#     4   9  16  25  39  61  88 117 151 190 226 260
#     4   8  14  25  39  54  77 114 156 191 225 267
#     4  11  21  34  53  75  97 122 154 192 236 284
#
# _framework density 16.566072999999999
#
# number of rings (size 3 to 8) (size 9 to 14) (size 15 to 20)
#    0.000    2.600    1.333    3.600    0.000    3.467 
#    0.000    3.333    0.000    2.000    0.000    0.000 
#    0.000    0.533    0.000    1.200    0.000    2.133 
#
# Total GULP energy -334421.532512 kJ/mol
# GULP energy per Si atom -5573.692209 kJ/mol
# Density = 1.652837 g / cm^3
# Si number density = 16.566073 Si / 1000 Ang^3
#
#
#
# Elastic Constant Matrix: (Units=GPa)
#
#
# Indices 1 2 3 4 5 6 
#
# 1 135.2920 15.0800 83.0748 0.0000 0.0000 0.0000
# 2 15.0800 16.7294 17.2757 0.0000 0.0000 0.0000
# 3 83.0748 17.2757 149.3122 0.0000 0.0000 0.0000
# 4 0.0000 0.0000 0.0000 7.5439 0.0000 0.0000
# 5 0.0000 0.0000 0.0000 0.0000 14.3153 0.0000
# 6 0.0000 0.0000 0.0000 0.0000 0.0000 16.1836
#
#
#
# Elastic Compliance Matrix: (Units=1/GPa)
#
#
# Indices 1 2 3 4 5 6 
#
# 1 0.011489 -0.004265 -0.005899 0.000000 0.000000 0.000000
# 2 -0.004265 0.069469 -0.005665 0.000000 0.000000 0.000000
# 3 -0.005899 -0.005665 0.010635 0.000000 0.000000 0.000000
# 4 0.000000 0.000000 0.000000 0.132558 0.000000 0.000000
# 5 0.000000 0.000000 0.000000 0.000000 0.069855 0.000000
# 6 0.000000 0.000000 0.000000 0.000000 0.000000 0.061791
#
#
# Mechanical properties :
#
#
# Convention : Reuss Voigt Hill
#
# Bulk Modulus (GPa) = 16.68445 59.13274 37.90859
# Shear Modulus (GPa) = 12.27198 20.00210 16.13704
#
# Velocity S-wave (km/s) = 2.72470 3.47856 3.12445
# Velocity P-wave (km/s) = 4.47124 7.20461 5.99576
#
# Compressibility (1/GPa) = 0.05993605
#
# Stress axis : x y z
#
# Youngs Moduli (GPa) = 87.04080 14.39486 94.03091
#
# Poissons Ratio (x) = 0.06139 0.55467
# Poissons Ratio (y) = 0.37121 0.53268
# Poissons Ratio (z) = 0.51343 0.08155
#
# Static dielectric constant tensor:
#      x y z
#    x 1.555890 0.000000 0.000000 
#    y 0.000000 1.581930 0.000000 
#    z 0.000000 0.000000 1.572190 
# 
# From -- ./inp_files/76102.got.cif
#   From: 2010.05.17/outbox.cif.g08.bks.cpg/sg65_39_cif.got.tgz:76102.got - 2010.06.03 17:01:31.
