data_PCOD9484345
_publ_section_title
;
Structure prediction by ZEFSAII (Michael W. Deem and Ramdas Pophale) SiO2 
 PCOD9484345
Probable space group: C M M M
;
_chemical_formula_sum "Si O2"
_cell_formula_units_Z 80
_cell_length_a 18.665039
_cell_length_b 8.666015
_cell_length_c 26.672492
_cell_angle_alpha 90.000000
_cell_angle_beta 90.000000
_cell_angle_gamma 90.000000
_cell_volume 4314.315802
_symmetry_space_group_name_H-M "C M M M"
_symmetry_group_IT_number 65
_symmetry_cell_setting 'orthorhombic'
loop_
_space_group_symop_operation_xyz
x,y,z
-x,-y,z
x,-y,-z
-x,y,-z
-x,-y,-z
x,y,-z
-x,y,z
x,-y,z
1/2+x,1/2+y,z
1/2-x,1/2-y,z
1/2+x,1/2-y,-z
1/2-x,1/2+y,-z
1/2-x,1/2-y,-z
1/2+x,1/2+y,-z
1/2-x,1/2+y,z
1/2+x,1/2-y,z
loop_
_atom_site_type_symbol
_atom_site_label
_atom_site_fract_x
_atom_site_fract_y
_atom_site_fract_z
Si Si1 0.913982 0.182044 0.804486
Si Si2 0.669952 0.817522 0.896885
Si Si3 0.831207 0.816206 0.000000
Si Si4 0.170009 0.185831 0.594727
Si Si5 0.917590 0.187848 0.692175
Si Si6 0.084060 0.685172 0.500000
O O1 0.875512 0.273515 0.848335
O O2 0.894379 0.235164 0.748112
O O3 0.000000 0.195247 0.808167
O O4 0.895973 0.000000 0.809383
O O5 0.750000 0.750000 0.890661
O O6 0.675004 0.000000 0.903380
O O7 0.637212 0.744814 0.947788
O O8 0.750000 0.750000 0.000000
O O9 0.829442 0.000000 0.000000
O O10 0.250000 0.250000 0.590645
O O11 0.133467 0.236223 0.647083
O O12 0.122601 0.247200 0.548908
O O13 0.171444 0.000000 0.593251
O O14 0.000000 0.237686 0.683605
O O15 0.918665 0.000000 0.692843
O O16 0.090826 0.500000 0.500000
O O17 0.000000 0.725336 0.500000
#
# Coordination Sequence:
#
# PCOD9484345 Si02
#       6
#    16  16   8  16  16   8
#     4   9  18  35  57  80 109 143 178 219 269 322
#     4  11  21  34  53  78 108 140 179 223 268 320
#     4  10  18  32  53  76 103 136 177 221 271 325
#     4  11  22  37  58  84 115 147 182 224 271 320
#     4   8  16  33  57  81 105 139 182 223 265 319
#     4  11  24  41  60  83 111 143 182 227 274 325
#
# _framework density 18.542916999999999
#
# number of rings (size 3 to 8) (size 9 to 14) (size 15 to 20)
#    0.000    2.100    0.000    6.900    0.000    2.800 
#    0.000    4.500    0.000    5.400    0.000    0.000 
#    0.000    0.000    0.000    0.000    0.000    0.000 
#
# Total GULP energy -223313.766220 kJ/mol
# GULP energy per Si atom -5582.844155 kJ/mol
# Density = 1.850071 g / cm^3
# Si number density = 18.542917 Si / 1000 Ang^3
#
#
#
# Elastic Constant Matrix: (Units=GPa)
#
#
# Indices 1 2 3 4 5 6 
#
# 1 82.3650 42.0457 81.7686 0.0000 0.0000 0.0000
# 2 42.0457 100.9489 64.2563 0.0000 0.0000 0.0000
# 3 81.7686 64.2563 191.7286 0.0000 0.0000 0.0000
# 4 0.0000 0.0000 0.0000 18.0100 0.0000 0.0000
# 5 0.0000 0.0000 0.0000 0.0000 32.5979 0.0000
# 6 0.0000 0.0000 0.0000 0.0000 0.0000 15.5831
#
#
#
# Elastic Compliance Matrix: (Units=1/GPa)
#
#
# Indices 1 2 3 4 5 6 
#
# 1 0.022325 -0.004116 -0.008142 0.000000 0.000000 0.000000
# 2 -0.004116 0.013351 -0.002719 0.000000 0.000000 0.000000
# 3 -0.008142 -0.002719 0.009599 0.000000 0.000000 0.000000
# 4 0.000000 0.000000 0.000000 0.055525 0.000000 0.000000
# 5 0.000000 0.000000 0.000000 0.000000 0.030677 0.000000
# 6 0.000000 0.000000 0.000000 0.000000 0.000000 0.064172
#
#
# Mechanical properties :
#
#
# Convention : Reuss Voigt Hill
#
# Bulk Modulus (GPa) = 65.26720 83.46487 74.36603
# Shear Modulus (GPa) = 21.67223 25.70300 23.68761
#
# Velocity S-wave (km/s) = 3.42242 3.72712 3.57802
# Velocity P-wave (km/s) = 7.13384 7.97693 7.56713
#
# Compressibility (1/GPa) = 0.01532163
#
# Stress axis : x y z
#
# Youngs Moduli (GPa) = 44.79272 74.90002 104.17450
#
# Poissons Ratio (x) = 0.30830 0.84816
# Poissons Ratio (y) = 0.18437 0.28326
# Poissons Ratio (z) = 0.36469 0.20366
#
# Static dielectric constant tensor:
#      x y z
#    x 1.616670 0.000000 0.000000 
#    y 0.000000 1.627220 0.000000 
#    z 0.000000 0.000000 1.653860 
# 
# From -- ./inp_files/75062.got.cif
#   From: 2010.05.17/outbox.cif.g08.bks.cpg/sg65_38_cif.got.tgz:75062.got - 2010.06.03 17:01:31.
