data_PCOD9484896
_publ_section_title
;
Structure prediction by ZEFSAII (Michael W. Deem and Ramdas Pophale) SiO2 
 PCOD9484896
Probable space group: C M M M
;
_chemical_formula_sum "Si O2"
_cell_formula_units_Z 82
_cell_length_a 23.798411
_cell_length_b 22.244619
_cell_length_c 7.380571
_cell_angle_alpha 90.000000
_cell_angle_beta 90.000000
_cell_angle_gamma 90.000000
_cell_volume 3907.175281
_symmetry_space_group_name_H-M "C M M M"
_symmetry_group_IT_number 65
_symmetry_cell_setting 'orthorhombic'
loop_
_space_group_symop_operation_xyz
x,y,z
-x,-y,z
x,-y,-z
-x,y,-z
-x,-y,-z
x,y,-z
-x,y,z
x,-y,z
1/2+x,1/2+y,z
1/2-x,1/2-y,z
1/2+x,1/2-y,-z
1/2-x,1/2+y,-z
1/2-x,1/2-y,-z
1/2+x,1/2+y,-z
1/2-x,1/2+y,z
1/2+x,1/2-y,z
loop_
_atom_site_type_symbol
_atom_site_label
_atom_site_fract_x
_atom_site_fract_y
_atom_site_fract_z
Si Si1 0.728018 0.566570 0.280590
Si Si2 0.500000 0.000000 0.500000
Si Si3 0.660816 0.123895 0.795617
Si Si4 0.604133 0.000000 0.223142
Si Si5 0.882740 0.872979 0.716093
Si Si6 0.500000 0.571019 0.721880
Si Si7 0.815202 0.250127 0.782430
O O1 0.730376 0.569936 0.500000
O O2 0.744757 0.500000 0.223449
O O3 0.772194 0.613484 0.204495
O O4 0.665177 0.580801 0.221644
O O5 0.548208 0.000000 0.339388
O O6 0.635988 0.061793 0.722259
O O7 0.654112 0.189485 0.711180
O O8 0.638766 0.127486 0.000000
O O9 0.598622 0.000000 0.000000
O O10 0.886409 0.878368 0.500000
O O11 0.943995 0.893068 0.783022
O O12 0.853920 0.808052 0.748990
O O13 0.500000 0.500000 0.774478
O O14 0.500000 0.570788 0.500000
O O15 0.750000 0.250000 0.715449
O O16 0.811319 0.256012 0.000000
#
# Coordination Sequence:
#
# PCOD9484896 Si02
#       7
#    16   2  16   8  16   8  16
#     4  10  19  29  49  82 117 144 186 244 304 358
#     4  12  26  44  72  90 112 160 202 242 318 366
#     4  10  20  35  57  84 115 150 189 240 303 363
#     4  10  23  43  65  92 125 158 205 258 312 378
#     4  10  20  34  54  83 114 154 200 247 294 349
#     4   9  18  36  60  81 115 159 202 242 291 351
#     4  10  20  35  55  82 117 156 191 231 298 368
#
# _framework density 20.987029
#
# number of rings (size 3 to 8) (size 9 to 14) (size 15 to 20)
#    0.000    2.049    2.927    0.732    1.366    3.512 
#    0.000    1.463    2.146    4.683    0.000    0.000 
#    0.000    0.000    0.000    0.000    0.000    0.000 
#
# Total GULP energy -228270.306309 kJ/mol
# GULP energy per Si atom -5567.568447 kJ/mol
# Density = 2.093926 g / cm^3
# Si number density = 20.987029 Si / 1000 Ang^3
#
#
#
# Elastic Constant Matrix: (Units=GPa)
#
#
# Indices 1 2 3 4 5 6 
#
# 1 138.3665 58.6349 6.0203 0.0000 0.0000 0.0000
# 2 58.6349 155.8498 -1.6498 0.0000 0.0000 0.0000
# 3 6.0203 -1.6498 81.1471 0.0000 0.0000 0.0000
# 4 0.0000 0.0000 0.0000 11.6432 0.0000 0.0000
# 5 0.0000 0.0000 0.0000 0.0000 14.6093 0.0000
# 6 0.0000 0.0000 0.0000 0.0000 0.0000 9.9535
#
#
#
# Elastic Compliance Matrix: (Units=1/GPa)
#
#
# Indices 1 2 3 4 5 6 
#
# 1 0.008638 -0.003257 -0.000707 0.000000 0.000000 0.000000
# 2 -0.003257 0.007646 0.000397 0.000000 0.000000 0.000000
# 3 -0.000707 0.000397 0.012384 0.000000 0.000000 0.000000
# 4 0.000000 0.000000 0.000000 0.085887 0.000000 0.000000
# 5 0.000000 0.000000 0.000000 0.000000 0.068450 0.000000
# 6 0.000000 0.000000 0.000000 0.000000 0.000000 0.100467
#
#
# Mechanical properties :
#
#
# Convention : Reuss Voigt Hill
#
# Bulk Modulus (GPa) = 46.43933 55.70826 51.07380
# Shear Modulus (GPa) = 16.79064 28.06506 22.42785
#
# Velocity S-wave (km/s) = 2.83158 3.66082 3.27257
# Velocity P-wave (km/s) = 5.73290 6.66863 6.21839
#
# Compressibility (1/GPa) = 0.02153347
#
# Stress axis : x y z
#
# Youngs Moduli (GPa) = 115.76283 130.78419 80.75043
#
# Poissons Ratio (x) = 0.42603 0.05710
# Poissons Ratio (y) = 0.37709 -0.03207
# Poissons Ratio (z) = 0.08186 -0.05194
#
# Static dielectric constant tensor:
#      x y z
#    x 1.733980 0.000000 0.000000 
#    y 0.000000 1.790180 0.000000 
#    z 0.000000 0.000000 1.790260 
# 
# From -- ./inp_files/11656.got.cif
#   From: 2010.05.17/outbox.cif.g08.bks.cpg/sg65_6_cif.got.tgz:11656.got - 2010.06.03 17:01:31.
