data_PCOD9484433
_publ_section_title
;
Structure prediction by ZEFSAII (Michael W. Deem and Ramdas Pophale) SiO2 
 PCOD9484433
Probable space group: C M M M
;
_chemical_formula_sum "Si O2"
_cell_formula_units_Z 64
_cell_length_a 18.451837
_cell_length_b 8.575169
_cell_length_c 21.396738
_cell_angle_alpha 90.000000
_cell_angle_beta 90.000000
_cell_angle_gamma 90.000000
_cell_volume 3385.554943
_symmetry_space_group_name_H-M "C M M M"
_symmetry_group_IT_number 65
_symmetry_cell_setting 'orthorhombic'
loop_
_space_group_symop_operation_xyz
x,y,z
-x,-y,z
x,-y,-z
-x,y,-z
-x,-y,-z
x,y,-z
-x,y,z
x,-y,z
1/2+x,1/2+y,z
1/2-x,1/2-y,z
1/2+x,1/2-y,-z
1/2-x,1/2+y,-z
1/2-x,1/2-y,-z
1/2+x,1/2+y,-z
1/2-x,1/2+y,z
1/2+x,1/2-y,z
loop_
_atom_site_type_symbol
_atom_site_label
_atom_site_fract_x
_atom_site_fract_y
_atom_site_fract_z
Si Si1 0.167507 0.185852 0.500000
Si Si2 0.831990 0.685490 0.630354
Si Si3 0.583516 0.690431 0.000000
Si Si4 0.415420 0.688410 0.249928
Si Si5 0.168507 0.811470 0.875704
O O1 0.250000 0.250000 0.500000
O O2 0.136300 0.247740 0.565258
O O3 0.168370 0.000000 0.500000
O O4 0.828178 0.500000 0.626030
O O5 0.750000 0.750000 0.637769
O O6 0.878563 0.738250 0.689399
O O7 0.625443 0.740382 0.937585
O O8 0.582991 0.500000 0.000000
O O9 0.500000 0.741245 0.000000
O O10 0.500000 0.729435 0.245542
O O11 0.410287 0.500000 0.254665
O O12 0.373213 0.736965 0.187205
O O13 0.250000 0.750000 0.876024
O O14 0.170031 0.000000 0.876343
#
# Coordination Sequence:
#
# PCOD9484433 Si02
#       5
#     8  16   8  16  16
#     4  10  18  32  55  82 111 142 179 223 271 321
#     4  11  21  35  56  82 111 143 182 225 271 324
#     4   9  17  32  55  81 108 141 182 224 268 321
#     4  10  21  37  55  77 107 143 183 227 277 330
#     4  10  20  34  55  81 108 141 181 226 272 322
#
# _framework density 18.903842999999998
#
# number of rings (size 3 to 8) (size 9 to 14) (size 15 to 20)
#    0.000    1.875    0.000    6.750    0.000    6.500 
#    0.000    0.625    0.000    6.750    0.000    0.000 
#    0.000    0.000    0.000    0.000    0.000    0.000 
#
# Total GULP energy -178754.015431 kJ/mol
# GULP energy per Si atom -5586.062982 kJ/mol
# Density = 1.886082 g / cm^3
# Si number density = 18.903843 Si / 1000 Ang^3
#
#
#
# Elastic Constant Matrix: (Units=GPa)
#
#
# Indices 1 2 3 4 5 6 
#
# 1 145.6386 46.1967 112.0723 0.0000 0.0000 0.0000
# 2 46.1967 67.4707 63.6741 0.0000 0.0000 0.0000
# 3 112.0723 63.6741 236.5726 0.0000 0.0000 0.0000
# 4 0.0000 0.0000 0.0000 -10.3877 0.0000 0.0000
# 5 0.0000 0.0000 0.0000 0.0000 -19.4636 0.0000
# 6 0.0000 0.0000 0.0000 0.0000 0.0000 27.5232
#
#
#
# Elastic Compliance Matrix: (Units=1/GPa)
#
#
# Indices 1 2 3 4 5 6 
#
# 1 0.011436 -0.003643 -0.004437 0.000000 0.000000 0.000000
# 2 -0.003643 0.021028 -0.003934 0.000000 0.000000 0.000000
# 3 -0.004437 -0.003934 0.007388 0.000000 0.000000 0.000000
# 4 0.000000 0.000000 0.000000 -0.096268 0.000000 0.000000
# 5 0.000000 0.000000 0.000000 0.000000 -0.051378 0.000000
# 6 0.000000 0.000000 0.000000 0.000000 0.000000 0.036333
#
#
# Mechanical properties :
#
#
# Convention : Reuss Voigt Hill
#
# Bulk Modulus (GPa) = 63.19442 99.28535 81.23988
# Shear Modulus (GPa) = -118.60347 14.71698 -51.94325
#
# Velocity S-wave (km/s) = -7.92948 2.79322 -5.24760
# Velocity P-wave (km/s) = 7.09461 7.93965 2.52037
#
# Compressibility (1/GPa) = 0.01582418
#
# Stress axis : x y z
#
# Youngs Moduli (GPa) = 87.43955 47.55536 135.35403
#
# Poissons Ratio (x) = 0.17323 0.60062
# Poissons Ratio (y) = 0.31852 0.53249
# Poissons Ratio (z) = 0.38800 0.18709
#
# Static dielectric constant tensor:
#      x y z
#    x 1.609640 0.000000 0.000000 
#    y 0.000000 1.643200 0.000000 
#    z 0.000000 0.000000 1.660780 
# 
# From -- ./inp_files/55294.got.cif
#   From: 2010.05.17/outbox.cif.g08.bks.cpg/sg65_28_cif.got.tgz:55294.got - 2010.06.03 17:01:31.
