data_PCOD9484510
_publ_section_title
;
Structure prediction by ZEFSAII (Michael W. Deem and Ramdas Pophale) SiO2 
 PCOD9484510
Probable space group: C M M M
;
_chemical_formula_sum "Si O2"
_cell_formula_units_Z 104
_cell_length_a 8.345035
_cell_length_b 22.857620
_cell_length_c 26.733771
_cell_angle_alpha 90.000000
_cell_angle_beta 90.000000
_cell_angle_gamma 90.000000
_cell_volume 5099.403698
_symmetry_space_group_name_H-M "C M M M"
_symmetry_group_IT_number 65
_symmetry_cell_setting 'orthorhombic'
loop_
_space_group_symop_operation_xyz
x,y,z
-x,-y,z
x,-y,-z
-x,y,-z
-x,-y,-z
x,y,-z
-x,y,z
x,-y,z
1/2+x,1/2+y,z
1/2-x,1/2-y,z
1/2+x,1/2-y,-z
1/2-x,1/2+y,-z
1/2-x,1/2-y,-z
1/2+x,1/2+y,-z
1/2-x,1/2+y,z
1/2+x,1/2-y,z
loop_
_atom_site_type_symbol
_atom_site_label
_atom_site_fract_x
_atom_site_fract_y
_atom_site_fract_z
Si Si1 0.310734 0.500000 0.212109
Si Si2 0.692368 0.564504 0.059784
Si Si3 0.191240 0.685675 0.307302
Si Si4 0.192040 0.389584 0.605048
Si Si5 0.190079 0.933216 0.500000
Si Si6 0.308125 0.000000 0.675456
Si Si7 0.193541 0.872497 0.208137
Si Si8 0.306650 0.313868 0.890873
O O1 0.500000 0.500000 0.201109
O O2 0.282906 0.500000 0.272079
O O3 0.247566 0.562429 0.193528
O O4 0.500000 0.563909 0.069608
O O5 0.752534 0.500000 0.077422
O O6 0.750886 0.626670 0.081439
O O7 0.714635 0.565951 0.000000
O O8 0.250000 0.750000 0.295508
O O9 0.249683 0.665115 0.361970
O O10 0.248309 0.643476 0.263118
O O11 0.000000 0.683827 0.307911
O O12 0.259495 0.400336 0.550345
O O13 0.229494 0.444480 0.640963
O O14 0.000000 0.386784 0.600109
O O15 0.000000 0.937761 0.500000
O O16 0.257821 0.000000 0.500000
O O17 0.500000 0.000000 0.685974
O O18 0.242918 0.825305 0.166788
O O19 0.000000 0.873747 0.208738
O O20 0.500000 0.313449 0.893829
O O21 0.250000 0.250000 0.908360
#
# Coordination Sequence:
#
# PCOD9484510 Si02
#       8
#     8  16  16  16   8   8  16  16
#     4  10  20  32  51  81 111 140 177 224 275 320
#     4   8  15  30  54  82 109 141 186 238 286 333
#     4  11  23  39  59  80 105 143 186 225 266 319
#     4  10  21  37  57  79 106 139 173 210 260 322
#     4  11  23  35  54  85 114 137 166 212 267 316
#     4  10  18  33  55  80 107 135 171 215 263 320
#     4  10  21  35  53  80 113 147 180 223 276 329
#     4  10  21  35  53  79 112 148 188 233 281 335
#
# _framework density 20.394542000000001
#
# number of rings (size 3 to 8) (size 9 to 14) (size 15 to 20)
#    0.000    2.077    2.308    1.615    1.077    4.308 
#    0.000    0.385    0.000    0.462    0.000    1.077 
#    0.000    0.000    0.000    0.000    0.000    0.000 
#
# Total GULP energy -290097.253108 kJ/mol
# GULP energy per Si atom -5578.793329 kJ/mol
# Density = 2.034812 g / cm^3
# Si number density = 20.394542 Si / 1000 Ang^3
#
#
#
# Elastic Constant Matrix: (Units=GPa)
#
#
# Indices 1 2 3 4 5 6 
#
# 1 11.9869 16.8827 13.8192 0.0000 0.0000 0.0000
# 2 16.8827 157.4884 48.2265 0.0000 0.0000 0.0000
# 3 13.8192 48.2265 64.1347 0.0000 0.0000 0.0000
# 4 0.0000 0.0000 0.0000 28.2175 0.0000 0.0000
# 5 0.0000 0.0000 0.0000 0.0000 8.0499 0.0000
# 6 0.0000 0.0000 0.0000 0.0000 0.0000 15.0389
#
#
#
# Elastic Compliance Matrix: (Units=1/GPa)
#
#
# Indices 1 2 3 4 5 6 
#
# 1 0.115452 -0.006182 -0.020228 0.000000 0.000000 0.000000
# 2 -0.006182 0.008580 -0.005120 0.000000 0.000000 0.000000
# 3 -0.020228 -0.005120 0.023801 0.000000 0.000000 0.000000
# 4 0.000000 0.000000 0.000000 0.035439 0.000000 0.000000
# 5 0.000000 0.000000 0.000000 0.000000 0.124225 0.000000
# 6 0.000000 0.000000 0.000000 0.000000 0.000000 0.066494
#
#
# Mechanical properties :
#
#
# Convention : Reuss Voigt Hill
#
# Bulk Modulus (GPa) = 11.79623 43.49629 27.64626
# Shear Modulus (GPa) = 10.74556 20.57336 15.65946
#
# Velocity S-wave (km/s) = 2.29789 3.17956 2.77397
# Velocity P-wave (km/s) = 3.58287 5.90366 4.88314
#
# Compressibility (1/GPa) = 0.08477286
#
# Stress axis : x y z
#
# Youngs Moduli (GPa) = 8.66163 116.54720 42.01571
#
# Poissons Ratio (x) = 0.72051 0.84989
# Poissons Ratio (y) = 0.05355 0.21511
# Poissons Ratio (z) = 0.17521 0.59671
#
# Static dielectric constant tensor:
#      x y z
#    x 1.709600 0.000000 0.000000 
#    y 0.000000 1.769930 0.000000 
#    z 0.000000 0.000000 1.711800 
# 
# From -- ./inp_files/73398.got.cif
#   From: 2010.05.17/outbox.cif.g08.bks.cpg/sg65_37_cif.got.tgz:73398.got - 2010.06.03 17:01:31.
