data_PCOD9484057
_publ_section_title
;
Structure prediction by ZEFSAII (Michael W. Deem and Ramdas Pophale) SiO2 
 PCOD9484057
Probable space group: C M M M
;
_chemical_formula_sum "Si O2"
_cell_formula_units_Z 88
_cell_length_a 30.405708
_cell_length_b 18.797128
_cell_length_c 9.109252
_cell_angle_alpha 90.000000
_cell_angle_beta 90.000000
_cell_angle_gamma 90.000000
_cell_volume 5206.301753
_symmetry_space_group_name_H-M "C M M M"
_symmetry_group_IT_number 65
_symmetry_cell_setting 'orthorhombic'
loop_
_space_group_symop_operation_xyz
x,y,z
-x,-y,z
x,-y,-z
-x,y,-z
-x,-y,-z
x,y,-z
-x,y,z
x,-y,z
1/2+x,1/2+y,z
1/2-x,1/2-y,z
1/2+x,1/2-y,-z
1/2-x,1/2+y,-z
1/2-x,1/2-y,-z
1/2+x,1/2+y,-z
1/2-x,1/2+y,z
1/2+x,1/2-y,z
loop_
_atom_site_type_symbol
_atom_site_label
_atom_site_fract_x
_atom_site_fract_y
_atom_site_fract_z
Si Si1 0.208196 0.198101 0.327498
Si Si2 0.446442 0.500000 0.170082
Si Si3 0.240406 0.583396 0.168801
Si Si4 0.051871 0.853665 0.676420
Si Si5 0.883600 0.270452 0.321780
Si Si6 0.146651 0.580375 0.322569
O O1 0.204175 0.180459 0.500000
O O2 0.250000 0.250000 0.311168
O O3 0.220473 0.129083 0.235846
O O4 0.163609 0.237024 0.281390
O O5 0.500000 0.500000 0.176939
O O6 0.432435 0.427078 0.249374
O O7 0.433416 0.500000 0.000000
O O8 0.250659 0.500000 0.174731
O O9 0.195595 0.593768 0.260903
O O10 0.232273 0.603654 0.000000
O O11 0.056766 0.860697 0.500000
O O12 0.078873 0.784346 0.726853
O O13 0.000000 0.844791 0.707504
O O14 0.885628 0.271768 0.500000
O O15 0.883454 0.353107 0.274505
O O16 0.148915 0.581323 0.500000
O O17 0.133373 0.500000 0.277597
#
# Coordination Sequence:
#
# PCOD9484057 Si02
#       6
#    16   8  16  16  16  16
#     4  10  18  31  49  67  90 122 158 196 230 270
#     4   9  17  31  51  73  97 123 155 195 233 277
#     4  10  20  32  45  64  93 125 156 193 234 277
#     4   9  17  31  52  73  95 124 156 192 234 279
#     4   9  17  30  48  72  95 117 156 198 230 272
#     4   9  16  29  50  70  90 122 162 197 227 269
#
# _framework density 16.902593
#
# number of rings (size 3 to 8) (size 9 to 14) (size 15 to 20)
#    0.000    2.636    1.818    0.818    0.000    2.545 
#    1.636    1.818    0.000    0.545    0.000    3.818 
#    0.000    0.000    0.000    9.091    0.000    9.455 
#
# Total GULP energy -245093.025941 kJ/mol
# GULP energy per Si atom -5570.296044 kJ/mol
# Density = 1.686412 g / cm^3
# Si number density = 16.902593 Si / 1000 Ang^3
#
#
#
# Elastic Constant Matrix: (Units=GPa)
#
#
# Indices 1 2 3 4 5 6 
#
# 1 50.3941 58.1144 20.0584 0.0000 0.0000 0.0000
# 2 58.1144 155.3132 34.3907 0.0000 0.0000 0.0000
# 3 20.0584 34.3907 18.0433 0.0000 0.0000 0.0000
# 4 0.0000 0.0000 0.0000 9.0976 0.0000 0.0000
# 5 0.0000 0.0000 0.0000 0.0000 6.2750 0.0000
# 6 0.0000 0.0000 0.0000 0.0000 0.0000 31.3424
#
#
#
# Elastic Compliance Matrix: (Units=1/GPa)
#
#
# Indices 1 2 3 4 5 6 
#
# 1 0.042209 -0.009349 -0.029103 0.000000 0.000000 0.000000
# 2 -0.009349 0.013211 -0.014787 0.000000 0.000000 0.000000
# 3 -0.029103 -0.014787 0.115960 0.000000 0.000000 0.000000
# 4 0.000000 0.000000 0.000000 0.109919 0.000000 0.000000
# 5 0.000000 0.000000 0.000000 0.000000 0.159364 0.000000
# 6 0.000000 0.000000 0.000000 0.000000 0.000000 0.031906
#
#
# Mechanical properties :
#
#
# Convention : Reuss Voigt Hill
#
# Bulk Modulus (GPa) = 15.40807 49.87529 32.64168
# Shear Modulus (GPa) = 8.32388 16.75547 12.53968
#
# Velocity S-wave (km/s) = 2.22156 3.15190 2.72670
# Velocity P-wave (km/s) = 3.96434 6.54351 5.40988
#
# Compressibility (1/GPa) = 0.06490105
#
# Stress axis : x y z
#
# Youngs Moduli (GPa) = 23.69145 75.69341 8.62367
#
# Poissons Ratio (x) = 0.70769 0.25098
# Poissons Ratio (y) = 0.22150 0.12752
# Poissons Ratio (z) = 0.68950 1.11928
#
# Static dielectric constant tensor:
#      x y z
#    x 1.550310 0.000000 0.000000 
#    y 0.000000 1.605740 0.000000 
#    z 0.000000 0.000000 1.562940 
# 
# From -- ./inp_files/10012.got.cif
#   From: 2010.05.17/outbox.cif.g08.bks.cpg/sg65_6_cif.got.tgz:10012.got - 2010.06.03 17:01:31.
