data_PCOD9484919
_publ_section_title
;
Structure prediction by ZEFSAII (Michael W. Deem and Ramdas Pophale) SiO2 
 PCOD9484919
Probable space group: C M M M
;
_chemical_formula_sum "Si O2"
_cell_formula_units_Z 104
_cell_length_a 9.175905
_cell_length_b 26.138796
_cell_length_c 30.687366
_cell_angle_alpha 90.000000
_cell_angle_beta 90.000000
_cell_angle_gamma 90.000000
_cell_volume 7360.276015
_symmetry_space_group_name_H-M "C M M M"
_symmetry_group_IT_number 65
_symmetry_cell_setting 'orthorhombic'
loop_
_space_group_symop_operation_xyz
x,y,z
-x,-y,z
x,-y,-z
-x,y,-z
-x,-y,-z
x,y,-z
-x,y,z
x,-y,z
1/2+x,1/2+y,z
1/2-x,1/2-y,z
1/2+x,1/2-y,-z
1/2-x,1/2+y,-z
1/2-x,1/2-y,-z
1/2+x,1/2+y,-z
1/2-x,1/2+y,z
1/2+x,1/2-y,z
loop_
_atom_site_type_symbol
_atom_site_label
_atom_site_fract_x
_atom_site_fract_y
_atom_site_fract_z
Si Si1 0.828474 0.000000 0.552224
Si Si2 0.332541 0.937789 0.777296
Si Si3 0.828215 0.061759 0.311629
Si Si4 0.325619 0.197286 0.449363
Si Si5 0.167879 0.062412 0.135358
Si Si6 0.170181 0.562152 0.951609
Si Si7 0.324626 0.093679 0.399051
O O1 0.749410 0.950526 0.572044
O O2 0.818119 0.000000 0.500000
O O3 0.000000 0.000000 0.564567
O O4 0.500000 0.920994 0.773684
O O5 0.238836 0.923326 0.735044
O O6 0.259794 0.920962 0.822579
O O7 0.333288 0.000000 0.778140
O O8 0.740127 0.087325 0.350848
O O9 0.000000 0.073193 0.313844
O O10 0.812092 0.000000 0.316213
O O11 0.284817 0.187218 0.500000
O O12 0.500000 0.203839 0.447923
O O13 0.250000 0.250000 0.435767
O O14 0.288532 0.148534 0.420041
O O15 0.237209 0.079752 0.089675
O O16 0.000000 0.077771 0.139264
O O17 0.171292 0.000000 0.135107
O O18 0.176183 0.500000 0.951598
O O19 0.000000 0.575726 0.946279
O O20 0.219045 0.578791 0.000000
O O21 0.500000 0.087389 0.398870
#
# Coordination Sequence:
#
# PCOD9484919 Si02
#       7
#     8  16  16  16  16  16  16
#     4  11  23  35  47  67  93 119 145 171 204 245
#     4   9  16  25  37  50  66  91 123 154 189 233
#     4  10  19  30  43  60  84 108 134 165 201 243
#     4   9  19  35  53  72  91 113 142 174 207 243
#     4   9  15  21  29  42  59  79 107 144 187 231
#     4   8  13  20  28  37  51  73 102 138 182 231
#     4  11  21  33  50  69  91 116 143 172 206 249
#
# _framework density 14.129906
#
# number of rings (size 3 to 8) (size 9 to 14) (size 15 to 20)
#    0.000    2.538    0.769    3.000    0.000    7.077 
#    0.000    3.077    0.000    0.000    0.000    0.000 
#    0.000    0.000    0.000    0.000    0.000    0.000 
#
# Total GULP energy -289746.416328 kJ/mol
# GULP energy per Si atom -5572.046468 kJ/mol
# Density = 1.409775 g / cm^3
# Si number density = 14.129906 Si / 1000 Ang^3
#
#
#
# Elastic Constant Matrix: (Units=GPa)
#
#
# Indices 1 2 3 4 5 6 
#
# 1 94.2056 36.2722 69.1094 0.0000 0.0000 0.0000
# 2 36.2722 49.9988 40.8331 0.0000 0.0000 0.0000
# 3 69.1094 40.8331 124.8579 0.0000 0.0000 0.0000
# 4 0.0000 0.0000 0.0000 5.5414 0.0000 0.0000
# 5 0.0000 0.0000 0.0000 0.0000 26.6334 0.0000
# 6 0.0000 0.0000 0.0000 0.0000 0.0000 13.7676
#
#
#
# Elastic Compliance Matrix: (Units=1/GPa)
#
#
# Indices 1 2 3 4 5 6 
#
# 1 0.019664 -0.007336 -0.008485 0.000000 0.000000 0.000000
# 2 -0.007336 0.030026 -0.005759 0.000000 0.000000 0.000000
# 3 -0.008485 -0.005759 0.014589 0.000000 0.000000 0.000000
# 4 0.000000 0.000000 0.000000 0.180460 0.000000 0.000000
# 5 0.000000 0.000000 0.000000 0.000000 0.037547 0.000000
# 6 0.000000 0.000000 0.000000 0.000000 0.000000 0.072635
#
#
# Mechanical properties :
#
#
# Convention : Reuss Voigt Hill
#
# Bulk Modulus (GPa) = 47.35114 62.38794 54.86954
# Shear Modulus (GPa) = 12.34201 17.37832 14.86017
#
# Velocity S-wave (km/s) = 2.95865 3.51079 3.24648
# Velocity P-wave (km/s) = 6.72722 7.78994 7.27801
#
# Compressibility (1/GPa) = 0.02111882
#
# Stress axis : x y z
#
# Youngs Moduli (GPa) = 50.85313 33.30471 68.54441
#
# Poissons Ratio (x) = 0.24433 0.58161
# Poissons Ratio (y) = 0.37306 0.39474
# Poissons Ratio (z) = 0.43150 0.19180
#
# Static dielectric constant tensor:
#      x y z
#    x 1.472090 0.000000 0.000000 
#    y 0.000000 1.424060 0.000000 
#    z 0.000000 0.000000 1.476150 
# 
# From -- ./inp_files/73599.got.cif
#   From: 2010.05.17/outbox.cif.g08.bks.cpg/sg65_37_cif.got.tgz:73599.got - 2010.06.03 17:01:31.
