data_PCOD9484286
_publ_section_title
;
Structure prediction by ZEFSAII (Michael W. Deem and Ramdas Pophale) SiO2 
 PCOD9484286
Probable space group: C M M M
;
_chemical_formula_sum "Si O2"
_cell_formula_units_Z 88
_cell_length_a 8.530195
_cell_length_b 28.930910
_cell_length_c 21.892637
_cell_angle_alpha 90.000000
_cell_angle_beta 90.000000
_cell_angle_gamma 90.000000
_cell_volume 5402.802966
_symmetry_space_group_name_H-M "C M M M"
_symmetry_group_IT_number 65
_symmetry_cell_setting 'orthorhombic'
loop_
_space_group_symop_operation_xyz
x,y,z
-x,-y,z
x,-y,-z
-x,y,-z
-x,-y,-z
x,y,-z
-x,y,z
x,-y,z
1/2+x,1/2+y,z
1/2-x,1/2-y,z
1/2+x,1/2-y,-z
1/2-x,1/2+y,-z
1/2-x,1/2-y,-z
1/2+x,1/2+y,-z
1/2-x,1/2+y,z
1/2+x,1/2-y,z
loop_
_atom_site_type_symbol
_atom_site_label
_atom_site_fract_x
_atom_site_fract_y
_atom_site_fract_z
Si Si1 0.309351 0.945808 0.567681
Si Si2 0.690217 0.889018 0.313404
Si Si3 0.687345 0.555291 0.066334
Si Si4 0.811417 0.553339 0.195563
Si Si5 0.813087 0.697387 0.500000
Si Si6 0.186148 0.197990 0.371010
O O1 0.257066 0.929835 0.500000
O O2 0.500000 0.943377 0.567474
O O3 0.256305 0.917618 0.626668
O O4 0.268472 0.000000 0.573780
O O5 0.500000 0.887337 0.314137
O O6 0.740913 0.915625 0.252363
O O7 0.755850 0.837543 0.320095
O O8 0.500000 0.561319 0.068899
O O9 0.718065 0.500000 0.065748
O O10 0.760400 0.572241 0.129457
O O11 0.742805 0.573377 0.000000
O O12 0.755268 0.500000 0.202120
O O13 0.000000 0.551896 0.197108
O O14 0.750000 0.750000 0.500000
O O15 0.751922 0.678693 0.435787
O O16 0.000000 0.696167 0.500000
O O17 0.250000 0.250000 0.362669
O O18 0.000000 0.200037 0.374469
#
# Coordination Sequence:
#
# PCOD9484286 Si02
#       6
#    16  16  16  16   8  16
#     4   8  14  25  42  64  87 114 153 193 223 259
#     4  10  19  30  46  68  93 122 155 192 232 276
#     4   8  14  25  41  61  87 121 159 195 230 270
#     4   9  17  28  43  66  97 129 160 194 228 268
#     4  10  18  32  52  70  87 108 137 178 232 285
#     4  11  22  36  51  69  91 116 148 190 238 288
#
# _framework density 16.287842000000001
#
# number of rings (size 3 to 8) (size 9 to 14) (size 15 to 20)
#    0.000    2.727    0.000    5.182    1.273    3.273 
#    0.000    1.818    0.000    1.636    0.000    1.273 
#    0.000    0.727    0.000    2.364    0.000    3.455 
#
# Total GULP energy -245176.257167 kJ/mol
# GULP energy per Si atom -5572.187663 kJ/mol
# Density = 1.625077 g / cm^3
# Si number density = 16.287842 Si / 1000 Ang^3
#
#
#
# Elastic Constant Matrix: (Units=GPa)
#
#
# Indices 1 2 3 4 5 6 
#
# 1 40.2331 16.5719 31.6638 0.0000 0.0000 0.0000
# 2 16.5719 66.0050 66.0040 0.0000 0.0000 0.0000
# 3 31.6638 66.0040 155.4003 0.0000 0.0000 0.0000
# 4 0.0000 0.0000 0.0000 13.1354 0.0000 0.0000
# 5 0.0000 0.0000 0.0000 0.0000 19.9191 0.0000
# 6 0.0000 0.0000 0.0000 0.0000 0.0000 13.6921
#
#
#
# Elastic Compliance Matrix: (Units=1/GPa)
#
#
# Indices 1 2 3 4 5 6 
#
# 1 0.029829 -0.002453 -0.005036 0.000000 0.000000 0.000000
# 2 -0.002453 0.026538 -0.010772 0.000000 0.000000 0.000000
# 3 -0.005036 -0.010772 0.012036 0.000000 0.000000 0.000000
# 4 0.000000 0.000000 0.000000 0.076130 0.000000 0.000000
# 5 0.000000 0.000000 0.000000 0.000000 0.050203 0.000000
# 6 0.000000 0.000000 0.000000 0.000000 0.000000 0.073035
#
#
# Mechanical properties :
#
#
# Convention : Reuss Voigt Hill
#
# Bulk Modulus (GPa) = 31.36649 54.45756 42.91203
# Shear Modulus (GPa) = 15.87702 19.17587 17.52645
#
# Velocity S-wave (km/s) = 3.12553 3.43492 3.28387
# Velocity P-wave (km/s) = 5.68548 7.01702 6.38605
#
# Compressibility (1/GPa) = 0.03188115
#
# Stress axis : x y z
#
# Youngs Moduli (GPa) = 33.52451 37.68195 83.08287
#
# Poissons Ratio (x) = 0.09245 0.41839
# Poissons Ratio (y) = 0.08225 0.89494
# Poissons Ratio (z) = 0.16882 0.40590
#
# Static dielectric constant tensor:
#      x y z
#    x 1.553790 0.000000 0.000000 
#    y 0.000000 1.543450 0.000000 
#    z 0.000000 0.000000 1.572670 
# 
# From -- ./inp_files/60647.got.cif
#   From: 2010.05.17/outbox.cif.g08.bks.cpg/sg65_31_cif.got.tgz:60647.got - 2010.06.03 17:01:31.
