data_PCOD9484070
_publ_section_title
;
Structure prediction by ZEFSAII (Michael W. Deem and Ramdas Pophale) SiO2 
 PCOD9484070
Probable space group: C M M M
;
_chemical_formula_sum "Si O2"
_cell_formula_units_Z 72
_cell_length_a 22.027130
_cell_length_b 7.650215
_cell_length_c 20.965926
_cell_angle_alpha 90.000000
_cell_angle_beta 90.000000
_cell_angle_gamma 90.000000
_cell_volume 3533.016000
_symmetry_space_group_name_H-M "C M M M"
_symmetry_group_IT_number 65
_symmetry_cell_setting 'orthorhombic'
loop_
_space_group_symop_operation_xyz
x,y,z
-x,-y,z
x,-y,-z
-x,y,-z
-x,-y,-z
x,y,-z
-x,y,z
x,-y,z
1/2+x,1/2+y,z
1/2-x,1/2-y,z
1/2+x,1/2-y,-z
1/2-x,1/2+y,-z
1/2-x,1/2-y,-z
1/2+x,1/2+y,-z
1/2-x,1/2+y,z
1/2+x,1/2-y,z
loop_
_atom_site_type_symbol
_atom_site_label
_atom_site_fract_x
_atom_site_fract_y
_atom_site_fract_z
Si Si1 0.500000 0.787408 0.924385
Si Si2 0.180879 0.707953 0.000000
Si Si3 0.430380 0.710076 0.360468
Si Si4 0.179704 0.292737 0.264526
Si Si5 0.926744 0.198810 0.500000
Si Si6 0.126644 0.286058 0.131500
O O1 0.442556 0.736041 0.881859
O O2 0.500000 0.000000 0.928913
O O3 0.500000 0.729747 0.000000
O O4 0.250000 0.750000 0.000000
O O5 0.156518 0.777328 0.066320
O O6 0.167606 0.500000 0.000000
O O7 0.500000 0.770314 0.343672
O O8 0.434951 0.500000 0.366255
O O9 0.375130 0.744757 0.312464
O O10 0.412716 0.779695 0.431163
O O11 0.178370 0.500000 0.260399
O O12 0.250000 0.250000 0.280928
O O13 0.159931 0.221297 0.194870
O O14 0.000000 0.187540 0.500000
O O15 0.901815 0.000000 0.500000
O O16 0.129108 0.500000 0.133404
#
# Coordination Sequence:
#
# PCOD9484070 Si02
#       6
#     8   8  16  16   8  16
#     4   9  14  26  48  74 100 125 162 217 271 320
#     4  10  18  31  49  71  93 126 173 216 260 309
#     4   9  18  35  60  87 113 142 177 218 266 321
#     4  11  23  37  53  77 111 148 186 227 271 320
#     4   7  12  28  56  85 110 139 175 213 258 317
#     4   9  18  30  48  73 101 132 171 217 265 316
#
# _framework density 20.379189
#
# number of rings (size 3 to 8) (size 9 to 14) (size 15 to 20)
#    0.000    2.667    1.111    2.667    1.556    0.444 
#    0.000    2.222    0.000    2.000    0.000    0.778 
#    0.000    0.000    0.000    0.000    0.000    0.000 
#
# Total GULP energy -200406.235935 kJ/mol
# GULP energy per Si atom -5566.839887 kJ/mol
# Density = 2.033281 g / cm^3
# Si number density = 20.379189 Si / 1000 Ang^3
#
#
#
# Elastic Constant Matrix: (Units=GPa)
#
#
# Indices 1 2 3 4 5 6 
#
# 1 177.6955 5.6828 99.9921 0.0000 0.0000 0.0000
# 2 5.6828 44.1072 10.9807 0.0000 0.0000 0.0000
# 3 99.9921 10.9807 173.3708 0.0000 0.0000 0.0000
# 4 0.0000 0.0000 0.0000 5.4276 0.0000 0.0000
# 5 0.0000 0.0000 0.0000 0.0000 -24.8331 0.0000
# 6 0.0000 0.0000 0.0000 0.0000 0.0000 11.4706
#
#
#
# Elastic Compliance Matrix: (Units=1/GPa)
#
#
# Indices 1 2 3 4 5 6 
#
# 1 0.008332 0.000125 -0.004814 0.000000 0.000000 0.000000
# 2 0.000125 0.023037 -0.001531 0.000000 0.000000 0.000000
# 3 -0.004814 -0.001531 0.008641 0.000000 0.000000 0.000000
# 4 0.000000 0.000000 0.000000 0.184244 0.000000 0.000000
# 5 0.000000 0.000000 0.000000 0.000000 -0.040269 0.000000
# 6 0.000000 0.000000 0.000000 0.000000 0.000000 0.087180
#
#
# Mechanical properties :
#
#
# Convention : Reuss Voigt Hill
#
# Bulk Modulus (GPa) = 36.27008 69.83163 53.05086
# Shear Modulus (GPa) = 17.07679 16.98087 17.02883
#
# Velocity S-wave (km/s) = 2.89788 2.88973 2.89381
# Velocity P-wave (km/s) = 5.38825 6.74349 6.10360
#
# Compressibility (1/GPa) = 0.02757093
#
# Stress axis : x y z
#
# Youngs Moduli (GPa) = 120.01497 43.40822 115.72458
#
# Poissons Ratio (x) = -0.00542 0.55705
# Poissons Ratio (y) = -0.01498 0.17718
# Poissons Ratio (z) = 0.57770 0.06646
#
# Static dielectric constant tensor:
#      x y z
#    x 2.047520 0.000000 0.000000 
#    y 0.000000 1.775140 0.000000 
#    z 0.000000 0.000000 1.747570 
# 
# From -- ./inp_files/59400.got.cif
#   From: 2010.05.17/outbox.cif.g08.bks.cpg/sg65_30_cif.got.tgz:59400.got - 2010.06.03 17:01:31.
