data_PCOD9484938
_publ_section_title
;
Structure prediction by ZEFSAII (Michael W. Deem and Ramdas Pophale) SiO2 
 PCOD9484938
Probable space group: C M M M
;
_chemical_formula_sum "Si O2"
_cell_formula_units_Z 104
_cell_length_a 28.090063
_cell_length_b 7.572256
_cell_length_c 27.956978
_cell_angle_alpha 90.000000
_cell_angle_beta 90.000000
_cell_angle_gamma 90.000000
_cell_volume 5946.593146
_symmetry_space_group_name_H-M "C M M M"
_symmetry_group_IT_number 65
_symmetry_cell_setting 'orthorhombic'
loop_
_space_group_symop_operation_xyz
x,y,z
-x,-y,z
x,-y,-z
-x,y,-z
-x,-y,-z
x,y,-z
-x,y,z
x,-y,z
1/2+x,1/2+y,z
1/2-x,1/2-y,z
1/2+x,1/2-y,-z
1/2-x,1/2+y,-z
1/2-x,1/2-y,-z
1/2+x,1/2+y,-z
1/2-x,1/2+y,z
1/2+x,1/2-y,z
loop_
_atom_site_type_symbol
_atom_site_label
_atom_site_fract_x
_atom_site_fract_y
_atom_site_fract_z
Si Si1 0.946749 0.786971 0.650837
Si Si2 0.555554 0.783661 0.155844
Si Si3 0.394816 0.788942 0.748542
Si Si4 0.557008 0.787285 0.948565
Si Si5 0.854601 0.792973 0.596235
Si Si6 0.193900 0.213024 0.500000
Si Si7 0.195931 0.289966 0.307258
O O1 0.931263 0.744565 0.705060
O O2 0.904615 0.718755 0.616286
O O3 0.000000 0.722453 0.640640
O O4 0.947128 0.000000 0.647061
O O5 0.500000 0.733310 0.161203
O O6 0.585552 0.720517 0.201199
O O7 0.573824 0.724486 0.103483
O O8 0.556104 0.000000 0.155652
O O9 0.343841 0.721046 0.729742
O O10 0.390650 0.000000 0.753972
O O11 0.500000 0.756450 0.948270
O O12 0.563313 0.000000 0.949060
O O13 0.575391 0.719853 0.000000
O O14 0.831869 0.718612 0.547957
O O15 0.817781 0.779417 0.640228
O O16 0.863166 0.000000 0.587287
O O17 0.250000 0.250000 0.500000
O O18 0.190074 0.000000 0.500000
O O19 0.190403 0.500000 0.309917
O O20 0.250000 0.250000 0.294455
#
# Coordination Sequence:
#
# PCOD9484938 Si02
#       7
#    16  16  16  16  16   8  16
#     4   9  17  29  44  61  83 110 135 159 189 225
#     4   8  12  18  30  49  74 102 128 155 187 222
#     4   9  17  27  40  59  80 103 133 165 195 231
#     4   7   9  13  22  39  66  99 128 150 179 222
#     4   9  18  32  47  64  85 106 130 159 191 230
#     4  10  20  32  47  65  83 103 128 162 201 236
#     4  10  19  30  44  61  80 103 130 160 197 238
#
# _framework density 17.489004000000001
#
# number of rings (size 3 to 8) (size 9 to 14) (size 15 to 20)
#    0.000    3.231    0.000    2.769    0.000    3.385 
#    0.000    0.385    0.000    2.308    0.000    0.000 
#    0.000    6.769    0.000    6.154    0.000    5.538 
#
# Total GULP energy -289592.252185 kJ/mol
# GULP energy per Si atom -5569.081773 kJ/mol
# Density = 1.744920 g / cm^3
# Si number density = 17.489004 Si / 1000 Ang^3
#
#
#
# Elastic Constant Matrix: (Units=GPa)
#
#
# Indices 1 2 3 4 5 6 
#
# 1 107.6896 0.4892 79.4466 0.0000 0.0000 0.0000
# 2 0.4892 35.5370 7.5024 0.0000 0.0000 0.0000
# 3 79.4466 7.5024 190.6697 0.0000 0.0000 0.0000
# 4 0.0000 0.0000 0.0000 10.7506 0.0000 0.0000
# 5 0.0000 0.0000 0.0000 0.0000 -8.4390 0.0000
# 6 0.0000 0.0000 0.0000 0.0000 0.0000 6.1861
#
#
#
# Elastic Compliance Matrix: (Units=1/GPa)
#
#
# Indices 1 2 3 4 5 6 
#
# 1 0.013443 0.001006 -0.005641 0.000000 0.000000 0.000000
# 2 0.001006 0.028451 -0.001539 0.000000 0.000000 0.000000
# 3 -0.005641 -0.001539 0.007656 0.000000 0.000000 0.000000
# 4 0.000000 0.000000 0.000000 0.093018 0.000000 0.000000
# 5 0.000000 0.000000 0.000000 0.000000 -0.118498 0.000000
# 6 0.000000 0.000000 0.000000 0.000000 0.000000 0.161653
#
#
# Mechanical properties :
#
#
# Convention : Reuss Voigt Hill
#
# Bulk Modulus (GPa) = 26.88032 56.53030 41.70531
# Shear Modulus (GPa) = 23.75634 18.13009 20.94321
#
# Velocity S-wave (km/s) = 3.68959 3.22321 3.46426
# Velocity P-wave (km/s) = 5.79258 6.80041 6.31663
#
# Compressibility (1/GPa) = 0.03720194
#
# Stress axis : x y z
#
# Youngs Moduli (GPa) = 74.38924 35.14855 130.62386
#
# Poissons Ratio (x) = -0.03535 0.73682
# Poissons Ratio (y) = -0.07482 0.20097
# Poissons Ratio (z) = 0.41962 0.05408
#
# Static dielectric constant tensor:
#      x y z
#    x 1.540330 0.000000 0.000000 
#    y 0.000000 1.665680 0.000000 
#    z 0.000000 0.000000 1.626010 
# 
# From -- ./inp_files/75982.got.cif
#   From: 2010.05.17/outbox.cif.g08.bks.cpg/sg65_38_cif.got.tgz:75982.got - 2010.06.03 17:01:31.
