data_PCOD9484311
_publ_section_title
;
Structure prediction by ZEFSAII (Michael W. Deem and Ramdas Pophale) SiO2 
 PCOD9484311
Probable space group: C M M M
;
_chemical_formula_sum "Si O2"
_cell_formula_units_Z 72
_cell_length_a 19.413595
_cell_length_b 17.056321
_cell_length_c 12.660428
_cell_angle_alpha 90.000000
_cell_angle_beta 90.000000
_cell_angle_gamma 90.000000
_cell_volume 4192.177994
_symmetry_space_group_name_H-M "C M M M"
_symmetry_group_IT_number 65
_symmetry_cell_setting 'orthorhombic'
loop_
_space_group_symop_operation_xyz
x,y,z
-x,-y,z
x,-y,-z
-x,y,-z
-x,-y,-z
x,y,-z
-x,y,z
x,-y,z
1/2+x,1/2+y,z
1/2-x,1/2-y,z
1/2+x,1/2-y,-z
1/2-x,1/2+y,-z
1/2-x,1/2-y,-z
1/2+x,1/2+y,-z
1/2-x,1/2+y,z
1/2+x,1/2-y,z
loop_
_atom_site_type_symbol
_atom_site_label
_atom_site_fract_x
_atom_site_fract_y
_atom_site_fract_z
Si Si1 0.659847 0.320300 0.181716
Si Si2 0.808004 0.642473 0.122530
Si Si3 0.581791 0.254612 0.621462
Si Si4 0.418015 0.590279 0.000000
Si Si5 0.080156 0.586702 0.720364
O O1 0.734407 0.361590 0.181094
O O2 0.670917 0.234081 0.130962
O O3 0.626230 0.304036 0.295284
O O4 0.611047 0.367819 0.103783
O O5 0.867410 0.595628 0.182504
O O6 0.799794 0.620868 0.000000
O O7 0.598858 0.271087 0.500000
O O8 0.500000 0.269260 0.637471
O O9 0.593055 0.161992 0.646292
O O10 0.396029 0.500000 0.000000
O O11 0.500000 0.594488 0.000000
O O12 0.088702 0.500000 0.671860
O O13 0.000000 0.592854 0.754686
#
# Coordination Sequence:
#
# PCOD9484311 Si02
#       5
#    16  16  16   8  16
#     4  10  18  35  52  74 105 132 168 219 258 304
#     4  10  18  32  52  75 103 137 178 207 257 313
#     4   9  18  33  56  81 102 136 179 213 255 303
#     4  11  22  33  50  76 102 131 164 203 262 322
#     4   9  19  33  48  74 110 142 175 213 251 299
#
# _framework density 17.174842999999999
#
# number of rings (size 3 to 8) (size 9 to 14) (size 15 to 20)
#    0.000    2.333    2.222    1.333    0.000    3.111 
#    0.000   12.222    0.000    0.667    0.000    3.111 
#    0.000    0.000    0.000    0.000    0.000    0.000 
#
# Total GULP energy -200662.271132 kJ/mol
# GULP energy per Si atom -5573.951976 kJ/mol
# Density = 1.713575 g / cm^3
# Si number density = 17.174843 Si / 1000 Ang^3
#
#
#
# Elastic Constant Matrix: (Units=GPa)
#
#
# Indices 1 2 3 4 5 6 
#
# 1 70.8679 33.5524 66.1730 0.0000 0.0000 0.0000
# 2 33.5524 52.7284 35.0476 0.0000 0.0000 0.0000
# 3 66.1730 35.0476 143.2261 0.0000 0.0000 0.0000
# 4 0.0000 0.0000 0.0000 10.8075 0.0000 0.0000
# 5 0.0000 0.0000 0.0000 0.0000 24.9143 0.0000
# 6 0.0000 0.0000 0.0000 0.0000 0.0000 15.5891
#
#
#
# Elastic Compliance Matrix: (Units=1/GPa)
#
#
# Indices 1 2 3 4 5 6 
#
# 1 0.029878 -0.011747 -0.010930 0.000000 0.000000 0.000000
# 2 -0.011747 0.027268 -0.001245 0.000000 0.000000 0.000000
# 3 -0.010930 -0.001245 0.012336 0.000000 0.000000 0.000000
# 4 0.000000 0.000000 0.000000 0.092529 0.000000 0.000000
# 5 0.000000 0.000000 0.000000 0.000000 0.040138 0.000000
# 6 0.000000 0.000000 0.000000 0.000000 0.000000 0.064147
#
#
# Mechanical properties :
#
#
# Convention : Reuss Voigt Hill
#
# Bulk Modulus (GPa) = 46.21458 59.59649 52.90553
# Shear Modulus (GPa) = 15.55923 19.06546 17.31235
#
# Velocity S-wave (km/s) = 3.01314 3.33540 3.17836
# Velocity P-wave (km/s) = 6.25076 7.04332 6.65884
#
# Compressibility (1/GPa) = 0.02163819
#
# Stress axis : x y z
#
# Youngs Moduli (GPa) = 33.46931 36.67334 81.06172
#
# Poissons Ratio (x) = 0.43082 0.88597
# Poissons Ratio (y) = 0.39318 0.10092
# Poissons Ratio (z) = 0.36581 0.04566
#
# Static dielectric constant tensor:
#      x y z
#    x 1.590350 0.000000 0.000000 
#    y 0.000000 1.583730 0.000000 
#    z 0.000000 0.000000 1.548230 
# 
# From -- ./inp_files/26345.got.cif
#   From: 2010.05.17/outbox.cif.g08.bks.cpg/sg65_14_cif.got.tgz:26345.got - 2010.06.03 17:01:31.
