data_PCOD9484014
_publ_section_title
;
Structure prediction by ZEFSAII (Michael W. Deem and Ramdas Pophale) SiO2 
 PCOD9484014
Probable space group: C M M M
;
_chemical_formula_sum "Si O2"
_cell_formula_units_Z 88
_cell_length_a 17.511675
_cell_length_b 23.653056
_cell_length_c 11.966798
_cell_angle_alpha 90.000000
_cell_angle_beta 90.000000
_cell_angle_gamma 90.000000
_cell_volume 4956.703131
_symmetry_space_group_name_H-M "C M M M"
_symmetry_group_IT_number 65
_symmetry_cell_setting 'orthorhombic'
loop_
_space_group_symop_operation_xyz
x,y,z
-x,-y,z
x,-y,-z
-x,y,-z
-x,-y,-z
x,y,-z
-x,y,z
x,-y,z
1/2+x,1/2+y,z
1/2-x,1/2-y,z
1/2+x,1/2-y,-z
1/2-x,1/2+y,-z
1/2-x,1/2-y,-z
1/2+x,1/2+y,-z
1/2-x,1/2+y,z
1/2+x,1/2-y,z
loop_
_atom_site_type_symbol
_atom_site_label
_atom_site_fract_x
_atom_site_fract_y
_atom_site_fract_z
Si Si1 0.792808 0.064987 0.231123
Si Si2 0.092603 0.753982 0.781155
Si Si3 0.584267 0.685655 0.000000
Si Si4 0.617532 0.559647 0.000000
Si Si5 0.910868 0.141861 0.633262
Si Si6 0.348342 0.864971 0.137778
Si Si7 0.000000 0.563157 0.133692
O O1 0.832572 0.060246 0.110905
O O2 0.852260 0.097698 0.311290
O O3 0.719315 0.102833 0.201764
O O4 0.776185 0.000000 0.268466
O O5 0.107459 0.794398 0.675512
O O6 0.135125 0.695526 0.805263
O O7 0.000000 0.744122 0.782292
O O8 0.119155 0.792867 0.885839
O O9 0.577017 0.619188 0.000000
O O10 0.500000 0.711987 0.000000
O O11 0.575885 0.500000 0.000000
O O12 0.907291 0.138359 0.500000
O O13 0.000000 0.130762 0.668596
O O14 0.424159 0.901937 0.158410
O O15 0.337078 0.860273 0.000000
O O16 0.000000 0.500000 0.182511
O O17 0.000000 0.557585 0.000000
#
# Coordination Sequence:
#
# PCOD9484014 Si02
#       7
#    16  16   8   8  16  16   8
#     4  11  23  38  57  86 122 157 197 245 294 349
#     4  10  19  34  57  88 122 152 196 245 293 349
#     4  10  18  30  53  81 114 154 191 243 291 356
#     4  10  20  34  49  76 121 161 190 229 296 364
#     4  10  23  44  66  85 111 151 201 255 306 355
#     4  11  20  33  56  87 126 164 197 235 288 352
#     4   9  18  30  50  82 121 167 207 234 270 337
#
# _framework density 17.753736
#
# number of rings (size 3 to 8) (size 9 to 14) (size 15 to 20)
#    0.000    1.727    4.545    0.545    0.000    2.364 
#    0.000    6.364    0.000    0.000    0.000    0.000 
#    0.000    2.909    0.000    0.000    0.000    0.000 
#
# Total GULP energy -244955.649586 kJ/mol
# GULP energy per Si atom -5567.173854 kJ/mol
# Density = 1.771333 g / cm^3
# Si number density = 17.753736 Si / 1000 Ang^3
#
#
#
# Elastic Constant Matrix: (Units=GPa)
#
#
# Indices 1 2 3 4 5 6 
#
# 1 102.8654 75.6558 44.8822 0.0000 0.0000 0.0000
# 2 75.6558 178.7815 48.6694 0.0000 0.0000 0.0000
# 3 44.8822 48.6694 72.6353 0.0000 0.0000 0.0000
# 4 0.0000 0.0000 0.0000 18.6724 0.0000 0.0000
# 5 0.0000 0.0000 0.0000 0.0000 25.8092 0.0000
# 6 0.0000 0.0000 0.0000 0.0000 0.0000 58.1472
#
#
#
# Elastic Compliance Matrix: (Units=1/GPa)
#
#
# Indices 1 2 3 4 5 6 
#
# 1 0.016416 -0.005119 -0.006713 0.000000 0.000000 0.000000
# 2 -0.005119 0.008438 -0.002491 0.000000 0.000000 0.000000
# 3 -0.006713 -0.002491 0.019584 0.000000 0.000000 0.000000
# 4 0.000000 0.000000 0.000000 0.053555 0.000000 0.000000
# 5 0.000000 0.000000 0.000000 0.000000 0.038746 0.000000
# 6 0.000000 0.000000 0.000000 0.000000 0.000000 0.017198
#
#
# Mechanical properties :
#
#
# Convention : Reuss Voigt Hill
#
# Bulk Modulus (GPa) = 63.32399 76.96632 70.14516
# Shear Modulus (GPa) = 26.61750 32.86406 29.74078
#
# Velocity S-wave (km/s) = 3.87623 4.30712 4.09734
# Velocity P-wave (km/s) = 7.46853 8.25720 7.87275
#
# Compressibility (1/GPa) = 0.01579180
#
# Stress axis : x y z
#
# Youngs Moduli (GPa) = 60.91757 118.51578 51.06096
#
# Poissons Ratio (x) = 0.60670 0.34279
# Poissons Ratio (y) = 0.31184 0.12717
# Poissons Ratio (z) = 0.40896 0.29517
#
# Static dielectric constant tensor:
#      x y z
#    x 1.653500 0.000000 0.000000 
#    y 0.000000 1.639350 0.000000 
#    z 0.000000 0.000000 1.595830 
# 
# From -- ./inp_files/26864.got.cif
#   From: 2010.05.17/outbox.cif.g08.bks.cpg/sg65_14_cif.got.tgz:26864.got - 2010.06.03 17:01:31.
