data_PCOD9484865
_publ_section_title
;
Structure prediction by ZEFSAII (Michael W. Deem and Ramdas Pophale) SiO2 
 PCOD9484865
Probable space group: C M M M
;
_chemical_formula_sum "Si O2"
_cell_formula_units_Z 80
_cell_length_a 15.796030
_cell_length_b 23.443932
_cell_length_c 12.779923
_cell_angle_alpha 90.000000
_cell_angle_beta 90.000000
_cell_angle_gamma 90.000000
_cell_volume 4732.674545
_symmetry_space_group_name_H-M "C M M M"
_symmetry_group_IT_number 65
_symmetry_cell_setting 'orthorhombic'
loop_
_space_group_symop_operation_xyz
x,y,z
-x,-y,z
x,-y,-z
-x,y,-z
-x,-y,-z
x,y,-z
-x,y,z
x,-y,z
1/2+x,1/2+y,z
1/2-x,1/2-y,z
1/2+x,1/2-y,-z
1/2-x,1/2+y,-z
1/2-x,1/2-y,-z
1/2+x,1/2+y,-z
1/2-x,1/2+y,z
1/2+x,1/2-y,z
loop_
_atom_site_type_symbol
_atom_site_label
_atom_site_fract_x
_atom_site_fract_y
_atom_site_fract_z
Si Si1 0.351405 0.561295 0.876962
Si Si2 0.667672 0.221064 0.271062
Si Si3 0.500000 0.933250 0.219505
Si Si4 0.000000 0.672221 0.623734
Si Si5 0.329538 0.112787 0.120835
Si Si6 0.098766 0.183507 0.881053
O O1 0.375283 0.500000 0.830723
O O2 0.250483 0.570684 0.872109
O O3 0.390427 0.619843 0.835621
O O4 0.375685 0.559784 0.000000
O O5 0.750000 0.250000 0.325163
O O6 0.585499 0.205326 0.340239
O O7 0.686153 0.164465 0.201932
O O8 0.641607 0.269066 0.187923
O O9 0.500000 0.888728 0.316242
O O10 0.583647 0.917861 0.153043
O O11 0.500000 0.000000 0.247999
O O12 0.000000 0.664801 0.500000
O O13 0.335255 0.132915 0.000000
O O14 0.000000 0.196766 0.886390
O O15 0.133583 0.183374 0.000000
#
# Coordination Sequence:
#
# PCOD9484865 Si02
#       6
#    16  16   8   8  16  16
#     4   9  17  28  42  64  99 141 177 205 234 275
#     4  11  20  34  56  78 103 137 173 213 263 321
#     4  10  21  35  52  75 103 141 181 211 249 308
#     4  10  24  42  57  80 103 122 168 234 287 332
#     4  10  19  29  46  75 111 146 173 202 238 289
#     4  10  19  30  47  73 106 140 172 205 244 298
#
# _framework density 16.903762
#
# number of rings (size 3 to 8) (size 9 to 14) (size 15 to 20)
#    0.000    2.000    3.000    1.500    0.000    3.400 
#    0.000    2.000    0.000    0.000    0.000    0.000 
#    0.000    1.600    0.000    0.000    0.000    0.000 
#
# Total GULP energy -222872.542140 kJ/mol
# GULP energy per Si atom -5571.813553 kJ/mol
# Density = 1.686529 g / cm^3
# Si number density = 16.903762 Si / 1000 Ang^3
#
#
#
# Elastic Constant Matrix: (Units=GPa)
#
#
# Indices 1 2 3 4 5 6 
#
# 1 70.0232 7.1866 13.9304 0.0000 0.0000 0.0000
# 2 7.1866 81.1393 0.9625 0.0000 0.0000 0.0000
# 3 13.9304 0.9625 49.6867 0.0000 0.0000 0.0000
# 4 0.0000 0.0000 0.0000 4.1009 0.0000 0.0000
# 5 0.0000 0.0000 0.0000 0.0000 7.4422 0.0000
# 6 0.0000 0.0000 0.0000 0.0000 0.0000 2.1420
#
#
#
# Elastic Compliance Matrix: (Units=1/GPa)
#
#
# Indices 1 2 3 4 5 6 
#
# 1 0.015261 -0.001301 -0.004253 0.000000 0.000000 0.000000
# 2 -0.001301 0.012438 0.000124 0.000000 0.000000 0.000000
# 3 -0.004253 0.000124 0.021316 0.000000 0.000000 0.000000
# 4 0.000000 0.000000 0.000000 0.243848 0.000000 0.000000
# 5 0.000000 0.000000 0.000000 0.000000 0.134370 0.000000
# 6 0.000000 0.000000 0.000000 0.000000 0.000000 0.466864
#
#
# Mechanical properties :
#
#
# Convention : Reuss Voigt Hill
#
# Bulk Modulus (GPa) = 26.20972 27.22313 26.71642
# Shear Modulus (GPa) = 5.44855 14.65499 10.05177
#
# Velocity S-wave (km/s) = 1.79730 2.94762 2.44118
# Velocity P-wave (km/s) = 4.45488 5.26539 4.87700
#
# Compressibility (1/GPa) = 0.03815379
#
# Stress axis : x y z
#
# Youngs Moduli (GPa) = 65.52783 80.39707 46.91263
#
# Poissons Ratio (x) = 0.10461 0.19954
# Poissons Ratio (y) = 0.08527 -0.00581
# Poissons Ratio (z) = 0.27871 -0.00996
#
# Static dielectric constant tensor:
#      x y z
#    x 1.622280 0.000000 0.000000 
#    y 0.000000 1.596650 0.000000 
#    z 0.000000 0.000000 1.535240 
# 
# From -- ./inp_files/26666.got.cif
#   From: 2010.05.17/outbox.cif.g08.bks.cpg/sg65_14_cif.got.tgz:26666.got - 2010.06.03 17:01:31.
