data_PCOD9484112
_publ_section_title
;
Structure prediction by ZEFSAII (Michael W. Deem and Ramdas Pophale) SiO2 
 PCOD9484112
Probable space group: C M M M
;
_chemical_formula_sum "Si O2"
_cell_formula_units_Z 104
_cell_length_a 8.042360
_cell_length_b 28.019464
_cell_length_c 24.845797
_cell_angle_alpha 90.000000
_cell_angle_beta 90.000000
_cell_angle_gamma 90.000000
_cell_volume 5598.816905
_symmetry_space_group_name_H-M "C M M M"
_symmetry_group_IT_number 65
_symmetry_cell_setting 'orthorhombic'
loop_
_space_group_symop_operation_xyz
x,y,z
-x,-y,z
x,-y,-z
-x,y,-z
-x,-y,-z
x,y,-z
-x,y,z
x,-y,z
1/2+x,1/2+y,z
1/2-x,1/2-y,z
1/2+x,1/2-y,-z
1/2-x,1/2+y,-z
1/2-x,1/2-y,-z
1/2+x,1/2+y,-z
1/2-x,1/2+y,z
1/2+x,1/2-y,z
loop_
_atom_site_type_symbol
_atom_site_label
_atom_site_fract_x
_atom_site_fract_y
_atom_site_fract_z
Si Si1 0.201169 0.196801 0.648104
Si Si2 0.701484 0.500000 0.436546
Si Si3 0.198416 0.802774 0.772307
Si Si4 0.300122 0.055668 0.727025
Si Si5 0.695976 0.895151 0.834245
Si Si6 0.199136 0.053949 0.939810
Si Si7 0.306784 0.403111 0.617709
O O1 0.250000 0.250000 0.629856
O O2 0.260612 0.191505 0.710403
O O3 0.262079 0.150912 0.613994
O O4 0.000000 0.194600 0.648873
O O5 0.500000 0.500000 0.427067
O O6 0.730418 0.500000 0.500000
O O7 0.766770 0.450146 0.411344
O O8 0.250000 0.750000 0.789641
O O9 0.265637 0.842635 0.812345
O O10 0.000000 0.806607 0.770900
O O11 0.500000 0.064490 0.722830
O O12 0.241107 0.070596 0.786195
O O13 0.207760 0.084746 0.680898
O O14 0.271255 0.000000 0.717850
O O15 0.500000 0.901823 0.836692
O O16 0.761043 0.909862 0.892284
O O17 0.000000 0.051394 0.942690
O O18 0.260376 0.000000 0.927011
O O19 0.260124 0.066641 0.000000
O O20 0.500000 0.400788 0.600936
#
# Coordination Sequence:
#
# PCOD9484112 Si02
#       7
#    16   8  16  16  16  16  16
#     4   9  18  30  47  72 100 133 171 209 254 308
#     4   9  18  32  53  79 105 135 174 221 264 303
#     4  10  19  32  49  71 102 134 169 209 254 309
#     4  10  20  31  44  69 105 137 164 199 252 306
#     4  11  21  32  49  74 104 136 169 207 256 312
#     4   9  19  36  55  74  98 132 174 216 256 301
#     4  10  18  31  51  74 100 132 172 212 254 306
#
# _framework density 18.575354000000001
#
# number of rings (size 3 to 8) (size 9 to 14) (size 15 to 20)
#    0.000    2.231    2.308    1.846    0.000    3.077 
#    0.000    0.769    0.000    1.846    0.000    0.000 
#    0.000    0.000    0.000    0.000    0.000    0.000 
#
# Total GULP energy -289873.653313 kJ/mol
# GULP energy per Si atom -5574.493333 kJ/mol
# Density = 1.853308 g / cm^3
# Si number density = 18.575354 Si / 1000 Ang^3
#
#
#
# Elastic Constant Matrix: (Units=GPa)
#
#
# Indices 1 2 3 4 5 6 
#
# 1 7.2689 -2.0243 1.2083 0.0000 0.0000 0.0000
# 2 -2.0243 147.5293 49.0293 0.0000 0.0000 0.0000
# 3 1.2083 49.0293 48.5427 0.0000 0.0000 0.0000
# 4 0.0000 0.0000 0.0000 15.1040 0.0000 0.0000
# 5 0.0000 0.0000 0.0000 0.0000 -19.7626 0.0000
# 6 0.0000 0.0000 0.0000 0.0000 0.0000 17.6867
#
#
#
# Elastic Compliance Matrix: (Units=1/GPa)
#
#
# Indices 1 2 3 4 5 6 
#
# 1 0.140225 0.004642 -0.008179 0.000000 0.000000 0.000000
# 2 0.004642 0.010357 -0.010576 0.000000 0.000000 0.000000
# 3 -0.008179 -0.010576 0.031486 0.000000 0.000000 0.000000
# 4 0.000000 0.000000 0.000000 0.066208 0.000000 0.000000
# 5 0.000000 0.000000 0.000000 0.000000 -0.050601 0.000000
# 6 0.000000 0.000000 0.000000 0.000000 0.000000 0.056540
#
#
# Mechanical properties :
#
#
# Convention : Reuss Voigt Hill
#
# Bulk Modulus (GPa) = 6.50018 33.30750 19.90384
# Shear Modulus (GPa) = 14.98253 12.94748 13.96500
#
# Velocity S-wave (km/s) = 2.84312 2.64299 2.74488
# Velocity P-wave (km/s) = 3.77951 5.22339 4.55897
#
# Compressibility (1/GPa) = 0.15384200
#
# Stress axis : x y z
#
# Youngs Moduli (GPa) = 7.13138 96.55412 31.75982
#
# Poissons Ratio (x) = -0.44824 0.25977
# Poissons Ratio (y) = -0.03311 0.33590
# Poissons Ratio (z) = 0.05833 1.02118
#
# Static dielectric constant tensor:
#      x y z
#    x 1.664640 0.000000 0.000000 
#    y 0.000000 1.669670 0.000000 
#    z 0.000000 0.000000 1.633350 
# 
# From -- ./inp_files/68245.got.cif
#   From: 2010.05.17/outbox.cif.g08.bks.cpg/sg65_35_cif.got.tgz:68245.got - 2010.06.03 17:01:31.
