data_PCOD9484075
_publ_section_title
;
Structure prediction by ZEFSAII (Michael W. Deem and Ramdas Pophale) SiO2 
 PCOD9484075
Probable space group: C M M M
;
_chemical_formula_sum "Si O2"
_cell_formula_units_Z 104
_cell_length_a 29.462952
_cell_length_b 7.611712
_cell_length_c 21.881294
_cell_angle_alpha 90.000000
_cell_angle_beta 90.000000
_cell_angle_gamma 90.000000
_cell_volume 4907.175693
_symmetry_space_group_name_H-M "C M M M"
_symmetry_group_IT_number 65
_symmetry_cell_setting 'orthorhombic'
loop_
_space_group_symop_operation_xyz
x,y,z
-x,-y,z
x,-y,-z
-x,y,-z
-x,-y,-z
x,y,-z
-x,y,z
x,-y,z
1/2+x,1/2+y,z
1/2-x,1/2-y,z
1/2+x,1/2-y,-z
1/2-x,1/2+y,-z
1/2-x,1/2-y,-z
1/2+x,1/2+y,-z
1/2-x,1/2+y,z
1/2+x,1/2-y,z
loop_
_atom_site_type_symbol
_atom_site_label
_atom_site_fract_x
_atom_site_fract_y
_atom_site_fract_z
Si Si1 0.802049 0.211487 0.429975
Si Si2 0.604396 0.295466 0.118753
Si Si3 0.873832 0.202334 0.667640
Si Si4 0.799577 0.194142 0.901471
Si Si5 0.946433 0.297304 0.000000
Si Si6 0.701913 0.209471 0.761968
Si Si7 0.947122 0.784221 0.240826
O O1 0.806794 0.273441 0.500000
O O2 0.750000 0.250000 0.410838
O O3 0.842896 0.280508 0.386980
O O4 0.805701 0.000000 0.429326
O O5 0.614381 0.500000 0.133198
O O6 0.651648 0.212422 0.093778
O O7 0.571069 0.288037 0.061914
O O8 0.580548 0.223752 0.180108
O O9 0.838762 0.211067 0.723950
O O10 0.919967 0.274895 0.698147
O O11 0.883554 0.000000 0.651096
O O12 0.750000 0.250000 0.924324
O O13 0.795469 0.199928 0.827796
O O14 0.805487 0.000000 0.926575
O O15 0.931555 0.500000 0.000000
O O16 0.000000 0.291378 0.000000
O O17 0.750000 0.250000 0.730916
O O18 0.696283 0.000000 0.768906
O O19 0.000000 0.731753 0.238826
O O20 0.946404 0.000000 0.240393
#
# Coordination Sequence:
#
# PCOD9484075 Si02
#       7
#    16  16  16  16   8  16  16
#     4   9  18  31  48  71 102 140 176 214 260 309
#     4  10  20  37  60  81 105 138 180 219 258 317
#     4  10  18  31  49  72 103 134 174 219 260 311
#     4  10  19  33  53  79 108 138 172 208 253 306
#     4  11  25  41  58  83 112 139 174 223 276 319
#     4  11  20  29  45  71 104 137 169 204 250 304
#     4   9  17  31  53  78 102 132 172 219 267 313
#
# _framework density 21.193453000000002
#
# number of rings (size 3 to 8) (size 9 to 14) (size 15 to 20)
#    0.000    2.077    1.538    3.923    0.000    4.308 
#    0.000    0.385    0.000    0.923    0.000    3.231 
#    0.000    0.000    0.000    5.231    0.000    5.538 
#
# Total GULP energy -289789.523389 kJ/mol
# GULP energy per Si atom -5572.875450 kJ/mol
# Density = 2.114522 g / cm^3
# Si number density = 21.193453 Si / 1000 Ang^3
#
#
#
# Elastic Constant Matrix: (Units=GPa)
#
#
# Indices 1 2 3 4 5 6 
#
# 1 155.0559 13.2312 48.6097 0.0000 0.0000 0.0000
# 2 13.2312 58.7975 3.5739 0.0000 0.0000 0.0000
# 3 48.6097 3.5739 111.2256 0.0000 0.0000 0.0000
# 4 0.0000 0.0000 0.0000 1.2470 0.0000 0.0000
# 5 0.0000 0.0000 0.0000 0.0000 19.8221 0.0000
# 6 0.0000 0.0000 0.0000 0.0000 0.0000 27.9100
#
#
#
# Elastic Compliance Matrix: (Units=1/GPa)
#
#
# Indices 1 2 3 4 5 6 
#
# 1 0.007605 -0.001512 -0.003275 0.000000 0.000000 0.000000
# 2 -0.001512 0.017342 0.000104 0.000000 0.000000 0.000000
# 3 -0.003275 0.000104 0.010419 0.000000 0.000000 0.000000
# 4 0.000000 0.000000 0.000000 0.801929 0.000000 0.000000
# 5 0.000000 0.000000 0.000000 0.000000 0.050449 0.000000
# 6 0.000000 0.000000 0.000000 0.000000 0.000000 0.035829
#
#
# Mechanical properties :
#
#
# Convention : Reuss Voigt Hill
#
# Bulk Modulus (GPa) = 38.46453 50.65650 44.56052
# Shear Modulus (GPa) = 5.31008 27.10677 16.20842
#
# Velocity S-wave (km/s) = 1.58460 3.58021 2.76847
# Velocity P-wave (km/s) = 4.64076 6.40659 5.59379
#
# Compressibility (1/GPa) = 0.02599798
#
# Stress axis : x y z
#
# Youngs Moduli (GPa) = 131.49116 57.66503 95.98088
#
# Poissons Ratio (x) = 0.08721 0.31435
# Poissons Ratio (y) = 0.19885 -0.00996
# Poissons Ratio (z) = 0.43065 -0.00598
#
# Static dielectric constant tensor:
#      x y z
#    x 1.831520 0.000000 0.000000 
#    y 0.000000 1.964420 0.000000 
#    z 0.000000 0.000000 1.768850 
# 
# From -- ./inp_files/71826.got.cif
#   From: 2010.05.17/outbox.cif.g08.bks.cpg/sg65_36_cif.got.tgz:71826.got - 2010.06.03 17:01:31.
