data_PCOD9484789
_publ_section_title
;
Structure prediction by ZEFSAII (Michael W. Deem and Ramdas Pophale) SiO2 
 PCOD9484789
Probable space group: C M M M
;
_chemical_formula_sum "Si O2"
_cell_formula_units_Z 104
_cell_length_a 7.619944
_cell_length_b 19.768910
_cell_length_c 34.264931
_cell_angle_alpha 90.000000
_cell_angle_beta 90.000000
_cell_angle_gamma 90.000000
_cell_volume 5161.600235
_symmetry_space_group_name_H-M "C M M M"
_symmetry_group_IT_number 65
_symmetry_cell_setting 'orthorhombic'
loop_
_space_group_symop_operation_xyz
x,y,z
-x,-y,z
x,-y,-z
-x,y,-z
-x,-y,-z
x,y,-z
-x,y,z
x,-y,z
1/2+x,1/2+y,z
1/2-x,1/2-y,z
1/2+x,1/2-y,-z
1/2-x,1/2+y,-z
1/2-x,1/2-y,-z
1/2+x,1/2+y,-z
1/2-x,1/2+y,z
1/2+x,1/2-y,z
loop_
_atom_site_type_symbol
_atom_site_label
_atom_site_fract_x
_atom_site_fract_y
_atom_site_fract_z
Si Si1 0.714121 0.922164 0.840932
Si Si2 0.708291 0.423820 0.387934
Si Si3 0.710883 0.170536 0.000000
Si Si4 0.208673 0.328171 0.316304
Si Si5 0.789198 0.328046 0.228667
Si Si6 0.211066 0.172855 0.544296
Si Si7 0.285734 0.921867 0.928897
O O1 0.500000 0.919708 0.840956
O O2 0.778159 0.875084 0.806027
O O3 0.769784 0.903364 0.884871
O O4 0.763974 0.000000 0.834299
O O5 0.500000 0.429527 0.394517
O O6 0.779717 0.500000 0.384894
O O7 0.729557 0.380257 0.348795
O O8 0.780436 0.380425 0.424268
O O9 0.750000 0.250000 0.000000
O O10 0.775107 0.130387 0.961683
O O11 0.500000 0.164281 0.000000
O O12 0.250000 0.250000 0.326189
O O13 0.278389 0.342209 0.272515
O O14 0.000000 0.333769 0.314817
O O15 0.750000 0.250000 0.220164
O O16 0.000000 0.336287 0.229928
O O17 0.277293 0.163059 0.500000
O O18 0.250000 0.250000 0.556249
O O19 0.000000 0.166740 0.542977
O O20 0.500000 0.921678 0.929167
O O21 0.233859 0.000000 0.936857
#
# Coordination Sequence:
#
# PCOD9484789 Si02
#       7
#    16  16   8  16  16  16  16
#     4   8  14  26  45  68  91 116 151 193 231 267
#     4  10  21  35  51  74 103 132 162 199 243 287
#     4  10  19  29  43  67  95 118 146 186 232 276
#     4  10  20  34  52  72  96 128 165 202 240 285
#     4   9  18  31  48  70  94 121 153 191 234 279
#     4   9  18  33  53  75  98 127 163 199 235 279
#     4   8  14  26  45  66  87 116 155 193 224 262
#
# _framework density 20.148790000000002
#
# number of rings (size 3 to 8) (size 9 to 14) (size 15 to 20)
#    0.000    2.923    0.000    2.077    0.000    5.231 
#    0.000    3.077    0.000    1.385    0.000    5.385 
#    0.000    0.000    0.000    0.000    0.000    0.000 
#
# Total GULP energy -290090.538307 kJ/mol
# GULP energy per Si atom -5578.664198 kJ/mol
# Density = 2.010293 g / cm^3
# Si number density = 20.148790 Si / 1000 Ang^3
#
#
#
# Elastic Constant Matrix: (Units=GPa)
#
#
# Indices 1 2 3 4 5 6 
#
# 1 41.4670 1.8840 4.5657 0.0000 0.0000 0.0000
# 2 1.8840 171.5794 152.5955 0.0000 0.0000 0.0000
# 3 4.5657 152.5955 184.2726 0.0000 0.0000 0.0000
# 4 0.0000 0.0000 0.0000 104.1479 0.0000 0.0000
# 5 0.0000 0.0000 0.0000 0.0000 34.5479 0.0000
# 6 0.0000 0.0000 0.0000 0.0000 0.0000 18.1447
#
#
#
# Elastic Compliance Matrix: (Units=1/GPa)
#
#
# Indices 1 2 3 4 5 6 
#
# 1 0.024228 0.001016 -0.001442 0.000000 0.000000 0.000000
# 2 0.001016 0.022159 -0.018375 0.000000 0.000000 0.000000
# 3 -0.001442 -0.018375 0.020679 0.000000 0.000000 0.000000
# 4 0.000000 0.000000 0.000000 0.009602 0.000000 0.000000
# 5 0.000000 0.000000 0.000000 0.000000 0.028945 0.000000
# 6 0.000000 0.000000 0.000000 0.000000 0.000000 0.055112
#
#
# Mechanical properties :
#
#
# Convention : Reuss Voigt Hill
#
# Bulk Modulus (GPa) = 33.93884 79.48994 56.71439
# Shear Modulus (GPa) = 24.02139 47.25302 35.63721
#
# Velocity S-wave (km/s) = 3.45657 4.84798 4.21016
# Velocity P-wave (km/s) = 5.72810 8.41869 7.20019
#
# Compressibility (1/GPa) = 0.02946477
#
# Stress axis : x y z
#
# Youngs Moduli (GPa) = 41.27431 45.12855 48.35900
#
# Poissons Ratio (x) = -0.04587 0.06973
# Poissons Ratio (y) = -0.04195 0.88859
# Poissons Ratio (z) = 0.05952 0.82923
#
# Static dielectric constant tensor:
#      x y z
#    x 1.753030 0.000000 0.000000 
#    y 0.000000 1.669580 0.000000 
#    z 0.000000 0.000000 1.725330 
# 
# From -- ./inp_files/76901.got.cif
#   From: 2010.05.17/outbox.cif.g08.bks.cpg/sg65_39_cif.got.tgz:76901.got - 2010.06.03 17:01:31.
