data_PCOD9484859
_publ_section_title
;
Structure prediction by ZEFSAII (Michael W. Deem and Ramdas Pophale) SiO2 
 PCOD9484859
Probable space group: C M M M
;
_chemical_formula_sum "Si O2"
_cell_formula_units_Z 96
_cell_length_a 18.569941
_cell_length_b 20.761331
_cell_length_c 15.824270
_cell_angle_alpha 90.000000
_cell_angle_beta 90.000000
_cell_angle_gamma 90.000000
_cell_volume 6100.836705
_symmetry_space_group_name_H-M "C M M M"
_symmetry_group_IT_number 65
_symmetry_cell_setting 'orthorhombic'
loop_
_space_group_symop_operation_xyz
x,y,z
-x,-y,z
x,-y,-z
-x,y,-z
-x,-y,-z
x,y,-z
-x,y,z
x,-y,z
1/2+x,1/2+y,z
1/2-x,1/2-y,z
1/2+x,1/2-y,-z
1/2-x,1/2+y,-z
1/2-x,1/2-y,-z
1/2+x,1/2+y,-z
1/2-x,1/2+y,z
1/2+x,1/2-y,z
loop_
_atom_site_type_symbol
_atom_site_label
_atom_site_fract_x
_atom_site_fract_y
_atom_site_fract_z
Si Si1 0.210115 0.427203 0.901267
Si Si2 0.335617 0.249591 0.594046
Si Si3 0.308937 0.306660 0.099048
Si Si4 0.082570 0.604746 0.223777
Si Si5 0.416277 0.260970 0.238907
Si Si6 0.084971 0.613148 0.408502
O O1 0.237664 0.500000 0.892373
O O2 0.269016 0.373376 0.879774
O O3 0.140292 0.418736 0.843204
O O4 0.190742 0.416877 0.000000
O O5 0.349128 0.277635 0.500000
O O6 0.250000 0.250000 0.608656
O O7 0.376786 0.279509 0.673611
O O8 0.365846 0.176639 0.590677
O O9 0.250000 0.250000 0.110400
O O10 0.374622 0.291935 0.160610
O O11 0.329625 0.307211 0.000000
O O12 0.087826 0.682903 0.229174
O O13 0.098276 0.579545 0.318934
O O14 0.000000 0.588308 0.201890
O O15 0.500000 0.278118 0.241688
O O16 0.094624 0.580164 0.500000
O O17 0.000000 0.632667 0.404355
#
# Coordination Sequence:
#
# PCOD9484859 Si02
#       6
#    16  16  16  16  16  16
#     4  10  21  35  50  69  94 127 162 196 240 290
#     4   9  16  24  38  64  98 132 160 190 232 280
#     4  10  19  33  52  71  94 125 158 198 245 290
#     4   9  17  28  45  70  98 129 161 193 232 282
#     4  10  19  29  46  72 100 129 160 198 241 285
#     4   8  14  25  40  60  90 127 161 191 226 269
#
# _framework density 15.735547
#
# number of rings (size 3 to 8) (size 9 to 14) (size 15 to 20)
#    0.000    2.667    1.667    2.000    2.333    2.000 
#    0.000    2.500    0.000    1.000    0.000    4.667 
#    0.000    0.000    0.000    1.500    0.000    0.167 
#
# Total GULP energy -267291.700450 kJ/mol
# GULP energy per Si atom -5568.577093 kJ/mol
# Density = 1.569973 g / cm^3
# Si number density = 15.735547 Si / 1000 Ang^3
#
#
#
# Elastic Constant Matrix: (Units=GPa)
#
#
# Indices 1 2 3 4 5 6 
#
# 1 94.2997 32.8454 75.8744 0.0000 0.0000 0.0000
# 2 32.8454 57.1069 36.4084 0.0000 0.0000 0.0000
# 3 75.8744 36.4084 108.5132 0.0000 0.0000 0.0000
# 4 0.0000 0.0000 0.0000 -0.4823 0.0000 0.0000
# 5 0.0000 0.0000 0.0000 0.0000 26.8115 0.0000
# 6 0.0000 0.0000 0.0000 0.0000 0.0000 10.0617
#
#
#
# Elastic Compliance Matrix: (Units=1/GPa)
#
#
# Indices 1 2 3 4 5 6 
#
# 1 0.024981 -0.004111 -0.016088 0.000000 0.000000 0.000000
# 2 -0.004111 0.022953 -0.004826 0.000000 0.000000 0.000000
# 3 -0.016088 -0.004826 0.022084 0.000000 0.000000 0.000000
# 4 0.000000 0.000000 0.000000 -2.073543 0.000000 0.000000
# 5 0.000000 0.000000 0.000000 0.000000 0.037297 0.000000
# 6 0.000000 0.000000 0.000000 0.000000 0.000000 0.099387
#
#
# Mechanical properties :
#
#
# Convention : Reuss Voigt Hill
#
# Bulk Modulus (GPa) = 50.08396 61.13070 55.60733
# Shear Modulus (GPa) = -2.76222 14.93095 6.08436
#
# Velocity S-wave (km/s) = -1.32635 3.08371 1.96851
# Velocity P-wave (km/s) = 5.43618 7.18416 6.37041
#
# Compressibility (1/GPa) = 0.01996647
#
# Stress axis : x y z
#
# Youngs Moduli (GPa) = 40.03098 43.56787 45.28258
#
# Poissons Ratio (x) = 0.17912 0.72849
# Poissons Ratio (y) = 0.16458 0.21855
# Poissons Ratio (z) = 0.64400 0.21028
#
# Static dielectric constant tensor:
#      x y z
#    x 1.490880 0.000000 0.000000 
#    y 0.000000 1.532990 0.000000 
#    z 0.000000 0.000000 1.573360 
# 
# From -- ./inp_files/54729.got.cif
#   From: 2010.05.17/outbox.cif.g08.bks.cpg/sg65_28_cif.got.tgz:54729.got - 2010.06.03 17:01:31.
