data_PCOD9484401
_publ_section_title
;
Structure prediction by ZEFSAII (Michael W. Deem and Ramdas Pophale) SiO2 
 PCOD9484401
Probable space group: C M M M
;
_chemical_formula_sum "Si O2"
_cell_formula_units_Z 72
_cell_length_a 15.272186
_cell_length_b 28.102892
_cell_length_c 7.874364
_cell_angle_alpha 90.000000
_cell_angle_beta 90.000000
_cell_angle_gamma 90.000000
_cell_volume 3379.618709
_symmetry_space_group_name_H-M "C M M M"
_symmetry_group_IT_number 65
_symmetry_cell_setting 'orthorhombic'
loop_
_space_group_symop_operation_xyz
x,y,z
-x,-y,z
x,-y,-z
-x,y,-z
-x,-y,-z
x,y,-z
-x,y,z
x,-y,z
1/2+x,1/2+y,z
1/2-x,1/2-y,z
1/2+x,1/2-y,-z
1/2-x,1/2+y,-z
1/2-x,1/2-y,-z
1/2+x,1/2+y,-z
1/2-x,1/2+y,z
1/2+x,1/2-y,z
loop_
_atom_site_type_symbol
_atom_site_label
_atom_site_fract_x
_atom_site_fract_y
_atom_site_fract_z
Si Si1 0.397575 0.500000 0.708388
Si Si2 0.093432 0.169883 0.706926
Si Si3 0.781135 0.089495 0.296751
Si Si4 0.097712 0.624466 0.199438
Si Si5 0.346631 0.769398 0.704795
O O1 0.500000 0.500000 0.761520
O O2 0.399331 0.500000 0.500000
O O3 0.340531 0.454309 0.764053
O O4 0.098843 0.171286 0.500000
O O5 0.173437 0.138005 0.768345
O O6 0.096118 0.224499 0.761479
O O7 0.000000 0.147621 0.751595
O O8 0.789970 0.089540 0.500000
O O9 0.678005 0.091973 0.262028
O O10 0.124971 0.679624 0.227525
O O11 0.000000 0.616779 0.273628
O O12 0.092280 0.616364 0.000000
O O13 0.350333 0.774142 0.500000
O O14 0.250000 0.750000 0.747049
#
# Coordination Sequence:
#
# PCOD9484401 Si02
#       5
#     8  16  16  16  16
#     4   9  18  34  62  97 122 138 167 223 288 339
#     4   9  16  27  48  78 110 142 176 216 265 325
#     4  10  19  35  58  84 112 142 181 227 277 334
#     4  11  24  39  54  76 110 153 195 234 278 323
#     4  10  18  32  54  81 110 144 187 229 272 324
#
# _framework density 21.304179999999999
#
# number of rings (size 3 to 8) (size 9 to 14) (size 15 to 20)
#    0.000    2.111    2.222    2.000    0.000    5.778 
#    0.000    1.111    0.000    6.667    0.000    0.000 
#    0.000    0.000    0.000    0.000    0.000    0.000 
#
# Total GULP energy -200769.555371 kJ/mol
# GULP energy per Si atom -5576.932094 kJ/mol
# Density = 2.125569 g / cm^3
# Si number density = 21.304180 Si / 1000 Ang^3
#
#
#
# Elastic Constant Matrix: (Units=GPa)
#
#
# Indices 1 2 3 4 5 6 
#
# 1 183.3424 73.6122 6.6239 0.0000 0.0000 0.0000
# 2 73.6122 97.0924 5.7822 0.0000 0.0000 0.0000
# 3 6.6239 5.7822 15.5240 0.0000 0.0000 0.0000
# 4 0.0000 0.0000 0.0000 -82.4061 0.0000 0.0000
# 5 0.0000 0.0000 0.0000 0.0000 -233.6837 0.0000
# 6 0.0000 0.0000 0.0000 0.0000 0.0000 28.8728
#
#
#
# Elastic Compliance Matrix: (Units=1/GPa)
#
#
# Indices 1 2 3 4 5 6 
#
# 1 0.007862 -0.005891 -0.001160 0.000000 0.000000 0.000000
# 2 -0.005891 0.014948 -0.003054 0.000000 0.000000 0.000000
# 3 -0.001160 -0.003054 0.066049 0.000000 0.000000 0.000000
# 4 0.000000 0.000000 0.000000 -0.012135 0.000000 0.000000
# 5 0.000000 0.000000 0.000000 0.000000 -0.004279 0.000000
# 6 0.000000 0.000000 0.000000 0.000000 0.000000 0.034635
#
#
# Mechanical properties :
#
#
# Convention : Reuss Voigt Hill
#
# Bulk Modulus (GPa) = 14.56708 51.99949 33.28328
# Shear Modulus (GPa) = 33.29514 -43.44738 -5.07612
#
# Velocity S-wave (km/s) = 3.95757 -4.52085 -1.54527
# Velocity P-wave (km/s) = 5.26647 1.67024 3.53171
#
# Compressibility (1/GPa) = 0.06864794
#
# Stress axis : x y z
#
# Youngs Moduli (GPa) = 127.20146 66.89896 15.14026
#
# Poissons Ratio (x) = 0.39412 0.01756
# Poissons Ratio (y) = 0.74938 0.04624
# Poissons Ratio (z) = 0.14757 0.20430
#
# Static dielectric constant tensor:
#      x y z
#    x 1.856280 0.000000 0.000000 
#    y 0.000000 1.761720 0.000000 
#    z 0.000000 0.000000 1.781430 
# 
# From -- ./inp_files/7279.got.cif
#   From: 2010.05.17/outbox.cif.g08.bks.cpg/sg65_4_cif.got.tgz:7279.got - 2010.06.03 17:01:31.
