data_PCOD9484879
_publ_section_title
;
Structure prediction by ZEFSAII (Michael W. Deem and Ramdas Pophale) SiO2 
 PCOD9484879
Probable space group: C M M M
;
_chemical_formula_sum "Si O2"
_cell_formula_units_Z 104
_cell_length_a 14.274971
_cell_length_b 20.952421
_cell_length_c 20.670059
_cell_angle_alpha 90.000000
_cell_angle_beta 90.000000
_cell_angle_gamma 90.000000
_cell_volume 6182.315475
_symmetry_space_group_name_H-M "C M M M"
_symmetry_group_IT_number 65
_symmetry_cell_setting 'orthorhombic'
loop_
_space_group_symop_operation_xyz
x,y,z
-x,-y,z
x,-y,-z
-x,y,-z
-x,-y,-z
x,y,-z
-x,y,z
x,-y,z
1/2+x,1/2+y,z
1/2-x,1/2-y,z
1/2+x,1/2-y,-z
1/2-x,1/2+y,-z
1/2-x,1/2-y,-z
1/2+x,1/2+y,-z
1/2-x,1/2+y,z
1/2+x,1/2-y,z
loop_
_atom_site_type_symbol
_atom_site_label
_atom_site_fract_x
_atom_site_fract_y
_atom_site_fract_z
Si Si1 0.611040 0.071664 0.718193
Si Si2 0.105465 0.923685 0.072726
Si Si3 0.725753 0.610237 0.805195
Si Si4 0.888336 0.295897 0.661034
Si Si5 0.387401 0.426242 0.323701
Si Si6 0.885999 0.817903 0.572848
Si Si7 0.750000 0.250000 0.231752
O O1 0.500000 0.076435 0.731810
O O2 0.673834 0.083073 0.781950
O O3 0.635188 0.128990 0.668226
O O4 0.629806 0.000000 0.693798
O O5 0.180789 0.910430 0.127842
O O6 0.000000 0.900409 0.090158
O O7 0.099555 0.000000 0.068975
O O8 0.128015 0.900204 0.000000
O O9 0.659352 0.589816 0.745047
O O10 0.733546 0.686261 0.807219
O O11 0.860888 0.252423 0.599974
O O12 0.837855 0.262859 0.721400
O O13 0.000000 0.290918 0.666706
O O14 0.500000 0.421874 0.317535
O O15 0.365176 0.500000 0.341309
O O16 0.357442 0.373441 0.376786
O O17 0.851698 0.828227 0.500000
O O18 0.000000 0.820320 0.571111
#
# Coordination Sequence:
#
# PCOD9484879 Si02
#       7
#    16  16  16  16  16  16   8
#     4   9  18  31  49  71  92 119 162 216 262 289
#     4   9  18  32  51  78 109 137 162 188 231 295
#     4  11  19  31  51  73  99 131 163 205 245 287
#     4   9  17  31  48  67  95 125 158 201 246 295
#     4  10  19  29  47  76 103 127 159 199 245 298
#     4   9  17  30  47  67  97 135 164 191 237 299
#     4  10  20  30  48  74  96 122 166 204 242 290
#
# _framework density 16.822175999999999
#
# number of rings (size 3 to 8) (size 9 to 14) (size 15 to 20)
#    0.000    2.462    1.538    2.308    0.000    2.154 
#    0.000    2.308    0.000    0.923    0.000    5.385 
#    0.000    0.000    0.000    0.000    0.000    0.000 
#
# Total GULP energy -289605.253930 kJ/mol
# GULP energy per Si atom -5569.331806 kJ/mol
# Density = 1.678389 g / cm^3
# Si number density = 16.822176 Si / 1000 Ang^3
#
#
#
# Elastic Constant Matrix: (Units=GPa)
#
#
# Indices 1 2 3 4 5 6 
#
# 1 66.9411 27.1051 33.9085 0.0000 0.0000 0.0000
# 2 27.1051 118.5417 43.4127 0.0000 0.0000 0.0000
# 3 33.9085 43.4127 98.6374 0.0000 0.0000 0.0000
# 4 0.0000 0.0000 0.0000 14.8013 0.0000 0.0000
# 5 0.0000 0.0000 0.0000 0.0000 9.9603 0.0000
# 6 0.0000 0.0000 0.0000 0.0000 0.0000 16.8735
#
#
#
# Elastic Compliance Matrix: (Units=1/GPa)
#
#
# Indices 1 2 3 4 5 6 
#
# 1 0.018590 -0.002277 -0.005388 0.000000 0.000000 0.000000
# 2 -0.002277 0.010336 -0.003766 0.000000 0.000000 0.000000
# 3 -0.005388 -0.003766 0.013648 0.000000 0.000000 0.000000
# 4 0.000000 0.000000 0.000000 0.067562 0.000000 0.000000
# 5 0.000000 0.000000 0.000000 0.000000 0.100399 0.000000
# 6 0.000000 0.000000 0.000000 0.000000 0.000000 0.059265
#
#
# Mechanical properties :
#
#
# Convention : Reuss Voigt Hill
#
# Bulk Modulus (GPa) = 50.73518 54.77476 52.75497
# Shear Modulus (GPa) = 16.70940 20.30660 18.50800
#
# Velocity S-wave (km/s) = 3.15508 3.47815 3.32055
# Velocity P-wave (km/s) = 6.59529 6.98296 6.79189
#
# Compressibility (1/GPa) = 0.01971019
#
# Stress axis : x y z
#
# Youngs Moduli (GPa) = 53.79217 96.75079 73.27032
#
# Poissons Ratio (x) = 0.22034 0.39481
# Poissons Ratio (y) = 0.12250 0.27595
# Poissons Ratio (z) = 0.28985 0.36438
#
# Static dielectric constant tensor:
#      x y z
#    x 1.602180 0.000000 0.000000 
#    y 0.000000 1.601120 0.000000 
#    z 0.000000 0.000000 1.538390 
# 
# From -- ./inp_files/62827.got.cif
#   From: 2010.05.17/outbox.cif.g08.bks.cpg/sg65_32_cif.got.tgz:62827.got - 2010.06.03 17:01:31.
