data_PCOD9484214
_publ_section_title
;
Structure prediction by ZEFSAII (Michael W. Deem and Ramdas Pophale) SiO2 
 PCOD9484214
Probable space group: C M M M
;
_chemical_formula_sum "Si O2"
_cell_formula_units_Z 72
_cell_length_a 26.068867
_cell_length_b 8.131653
_cell_length_c 17.889260
_cell_angle_alpha 90.000000
_cell_angle_beta 90.000000
_cell_angle_gamma 90.000000
_cell_volume 3792.218655
_symmetry_space_group_name_H-M "C M M M"
_symmetry_group_IT_number 65
_symmetry_cell_setting 'orthorhombic'
loop_
_space_group_symop_operation_xyz
x,y,z
-x,-y,z
x,-y,-z
-x,y,-z
-x,-y,-z
x,y,-z
-x,y,z
x,-y,z
1/2+x,1/2+y,z
1/2-x,1/2-y,z
1/2+x,1/2-y,-z
1/2-x,1/2+y,-z
1/2-x,1/2-y,-z
1/2+x,1/2+y,-z
1/2-x,1/2+y,z
1/2+x,1/2-y,z
loop_
_atom_site_type_symbol
_atom_site_label
_atom_site_fract_x
_atom_site_fract_y
_atom_site_fract_z
Si Si1 0.500000 0.808053 0.368304
Si Si2 0.610939 0.298091 0.794079
Si Si3 0.500000 0.690627 0.201213
Si Si4 0.691635 0.698460 0.916140
Si Si5 0.109541 0.803596 0.378648
Si Si6 0.690740 0.805053 0.500000
O O1 0.500000 0.702296 0.291743
O O2 0.445398 0.767717 0.405818
O O3 0.500000 0.000000 0.348833
O O4 0.610289 0.500000 0.794015
O O5 0.554871 0.238789 0.821078
O O6 0.654515 0.241986 0.850669
O O7 0.617710 0.248781 0.707556
O O8 0.500000 0.500000 0.178479
O O9 0.689359 0.500000 0.916246
O O10 0.750000 0.750000 0.902644
O O11 0.677162 0.754941 0.000000
O O12 0.157656 0.755465 0.429098
O O13 0.104619 0.000000 0.379702
O O14 0.750000 0.750000 0.500000
O O15 0.690318 0.000000 0.500000
#
# Coordination Sequence:
#
# PCOD9484214 Si02
#       6
#     8  16   8  16  16   8
#     4  10  18  31  53  83 111 134 169 215 259 306
#     4   8  15  29  51  75  98 128 166 205 248 302
#     4   8  14  28  48  69  98 133 166 205 255 305
#     4   9  17  30  47  69  98 130 165 207 251 294
#     4  10  20  37  58  79 105 139 175 213 261 310
#     4  12  26  43  58  77 106 138 174 216 262 310
#
# _framework density 18.986246000000001
#
# number of rings (size 3 to 8) (size 9 to 14) (size 15 to 20)
#    0.000    2.667    0.000    4.000    0.000    1.333 
#    0.000   10.556    0.000    3.333    0.000    0.000 
#    0.000   17.778    0.000    0.000    0.000    0.000 
#
# Total GULP energy -200639.048457 kJ/mol
# GULP energy per Si atom -5573.306902 kJ/mol
# Density = 1.894303 g / cm^3
# Si number density = 18.986246 Si / 1000 Ang^3
#
#
#
# Elastic Constant Matrix: (Units=GPa)
#
#
# Indices 1 2 3 4 5 6 
#
# 1 179.0694 17.7813 101.7577 0.0000 0.0000 0.0000
# 2 17.7813 39.5576 13.7672 0.0000 0.0000 0.0000
# 3 101.7577 13.7672 113.1326 0.0000 0.0000 0.0000
# 4 0.0000 0.0000 0.0000 9.9654 0.0000 0.0000
# 5 0.0000 0.0000 0.0000 0.0000 70.7751 0.0000
# 6 0.0000 0.0000 0.0000 0.0000 0.0000 27.9651
#
#
#
# Elastic Compliance Matrix: (Units=1/GPa)
#
#
# Indices 1 2 3 4 5 6 
#
# 1 0.011524 -0.001642 -0.010166 0.000000 0.000000 0.000000
# 2 -0.001642 0.026632 -0.001764 0.000000 0.000000 0.000000
# 3 -0.010166 -0.001764 0.018197 0.000000 0.000000 0.000000
# 4 0.000000 0.000000 0.000000 0.100347 0.000000 0.000000
# 5 0.000000 0.000000 0.000000 0.000000 0.014129 0.000000
# 6 0.000000 0.000000 0.000000 0.000000 0.000000 0.035759
#
#
# Mechanical properties :
#
#
# Convention : Reuss Voigt Hill
#
# Bulk Modulus (GPa) = 34.23485 66.48577 50.36031
# Shear Modulus (GPa) = 20.53655 34.97134 27.75395
#
# Velocity S-wave (km/s) = 3.29242 4.29643 3.82749
# Velocity P-wave (km/s) = 5.70297 7.72698 6.79081
#
# Compressibility (1/GPa) = 0.02921000
#
# Stress axis : x y z
#
# Youngs Moduli (GPa) = 86.77359 37.54934 54.95288
#
# Poissons Ratio (x) = 0.06166 0.55863
# Poissons Ratio (y) = 0.14250 0.09692
# Poissons Ratio (z) = 0.88211 0.06623
#
# Static dielectric constant tensor:
#      x y z
#    x 1.682130 0.000000 0.000000 
#    y 0.000000 1.679260 0.000000 
#    z 0.000000 0.000000 1.674280 
# 
# From -- ./inp_files/57189.got.cif
#   From: 2010.05.17/outbox.cif.g08.bks.cpg/sg65_29_cif.got.tgz:57189.got - 2010.06.03 17:01:31.
