data_PCOD9484666
_publ_section_title
;
Structure prediction by ZEFSAII (Michael W. Deem and Ramdas Pophale) SiO2 
 PCOD9484666
Probable space group: C M M M
;
_chemical_formula_sum "Si O2"
_cell_formula_units_Z 88
_cell_length_a 13.977772
_cell_length_b 27.527171
_cell_length_c 16.113978
_cell_angle_alpha 90.000000
_cell_angle_beta 90.000000
_cell_angle_gamma 90.000000
_cell_volume 6200.151467
_symmetry_space_group_name_H-M "C M M M"
_symmetry_group_IT_number 65
_symmetry_cell_setting 'orthorhombic'
loop_
_space_group_symop_operation_xyz
x,y,z
-x,-y,z
x,-y,-z
-x,y,-z
-x,-y,-z
x,y,-z
-x,y,z
x,-y,z
1/2+x,1/2+y,z
1/2-x,1/2-y,z
1/2+x,1/2-y,-z
1/2-x,1/2+y,-z
1/2-x,1/2-y,-z
1/2+x,1/2+y,-z
1/2-x,1/2+y,z
1/2+x,1/2-y,z
loop_
_atom_site_type_symbol
_atom_site_label
_atom_site_fract_x
_atom_site_fract_y
_atom_site_fract_z
Si Si1 0.733804 0.805613 0.402487
Si Si2 0.113978 0.110193 0.404441
Si Si3 0.610497 0.558945 0.092128
Si Si4 0.615368 0.945323 0.500000
Si Si5 0.776795 0.058156 0.743463
Si Si6 0.886691 0.613291 0.667125
O O1 0.705289 0.806075 0.500000
O O2 0.750000 0.750000 0.378445
O O3 0.829089 0.838807 0.395533
O O4 0.653708 0.832994 0.348768
O O5 0.130999 0.093355 0.500000
O O6 0.158114 0.075206 0.334446
O O7 0.000000 0.115427 0.393761
O O8 0.500000 0.574072 0.102680
O O9 0.610698 0.500000 0.091932
O O10 0.672598 0.573460 0.170930
O O11 0.643070 0.574589 0.000000
O O12 0.500000 0.948918 0.500000
O O13 0.639382 0.915619 0.582079
O O14 0.654743 0.000000 0.500000
O O15 0.675463 0.085188 0.734884
O O16 0.765472 0.000000 0.741423
O O17 0.000000 0.611830 0.679493
#
# Coordination Sequence:
#
# PCOD9484666 Si02
#       6
#    16  16  16   8  16  16
#     4   9  17  29  44  60  78 105 145 189 228 261
#     4   9  18  30  40  56  85 115 142 172 210 260
#     4   8  14  26  44  64  84 108 143 185 223 256
#     4   9  16  26  39  54  77 113 152 183 206 230
#     4  10  19  28  42  62  86 117 149 180 212 251
#     4  10  19  30  42  60  85 113 149 186 216 252
#
# _framework density 14.193201999999999
#
# number of rings (size 3 to 8) (size 9 to 14) (size 15 to 20)
#    0.000    2.818    0.909    1.636    1.273    3.273 
#    0.000    2.727    0.000    0.545    0.000    2.545 
#    0.000   11.636    0.000   14.545    0.000    0.364 
#
# Total GULP energy -245017.166427 kJ/mol
# GULP energy per Si atom -5568.571964 kJ/mol
# Density = 1.416090 g / cm^3
# Si number density = 14.193202 Si / 1000 Ang^3
#
#
#
# Elastic Constant Matrix: (Units=GPa)
#
#
# Indices 1 2 3 4 5 6 
#
# 1 104.2963 30.2919 58.3886 0.0000 0.0000 0.0000
# 2 30.2919 76.9288 35.8723 0.0000 0.0000 0.0000
# 3 58.3886 35.8723 91.6595 0.0000 0.0000 0.0000
# 4 0.0000 0.0000 0.0000 -1.2276 0.0000 0.0000
# 5 0.0000 0.0000 0.0000 0.0000 20.1237 0.0000
# 6 0.0000 0.0000 0.0000 0.0000 0.0000 12.0513
#
#
#
# Elastic Compliance Matrix: (Units=1/GPa)
#
#
# Indices 1 2 3 4 5 6 
#
# 1 0.015101 -0.001787 -0.008920 0.000000 0.000000 0.000000
# 2 -0.001787 0.016112 -0.005168 0.000000 0.000000 0.000000
# 3 -0.008920 -0.005168 0.018615 0.000000 0.000000 0.000000
# 4 0.000000 0.000000 0.000000 -0.814586 0.000000 0.000000
# 5 0.000000 0.000000 0.000000 0.000000 0.049693 0.000000
# 6 0.000000 0.000000 0.000000 0.000000 0.000000 0.082978
#
#
# Mechanical properties :
#
#
# Convention : Reuss Voigt Hill
#
# Bulk Modulus (GPa) = 55.31361 57.99893 56.65627
# Shear Modulus (GPa) = -8.41309 16.07827 3.83259
#
# Velocity S-wave (km/s) = -2.43730 3.36938 1.64504
# Velocity P-wave (km/s) = 5.57996 7.48930 6.60400
#
# Compressibility (1/GPa) = 0.01807873
#
# Stress axis : x y z
#
# Youngs Moduli (GPa) = 66.22152 62.06460 53.72094
#
# Poissons Ratio (x) = 0.11089 0.47920
# Poissons Ratio (y) = 0.11831 0.27761
# Poissons Ratio (z) = 0.59071 0.32073
#
# Static dielectric constant tensor:
#      x y z
#    x 1.479930 0.000000 0.000000 
#    y 0.000000 1.464260 0.000000 
#    z 0.000000 0.000000 1.468210 
# 
# From -- ./inp_files/40918.got.cif
#   From: 2010.05.17/outbox.cif.g08.bks.cpg/sg65_21_cif.got.tgz:40918.got - 2010.06.03 17:01:31.
