data_PCOD9484959
_publ_section_title
;
Structure prediction by ZEFSAII (Michael W. Deem and Ramdas Pophale) SiO2 
 PCOD9484959
Probable space group: C M M M
;
_chemical_formula_sum "Si O2"
_cell_formula_units_Z 88
_cell_length_a 25.242985
_cell_length_b 14.139254
_cell_length_c 14.113269
_cell_angle_alpha 90.000000
_cell_angle_beta 90.000000
_cell_angle_gamma 90.000000
_cell_volume 5037.265302
_symmetry_space_group_name_H-M "C M M M"
_symmetry_group_IT_number 65
_symmetry_cell_setting 'orthorhombic'
loop_
_space_group_symop_operation_xyz
x,y,z
-x,-y,z
x,-y,-z
-x,y,-z
-x,-y,-z
x,y,-z
-x,y,z
x,-y,z
1/2+x,1/2+y,z
1/2-x,1/2-y,z
1/2+x,1/2-y,-z
1/2-x,1/2+y,-z
1/2-x,1/2-y,-z
1/2+x,1/2+y,-z
1/2-x,1/2+y,z
1/2+x,1/2-y,z
loop_
_atom_site_type_symbol
_atom_site_label
_atom_site_fract_x
_atom_site_fract_y
_atom_site_fract_z
Si Si1 0.764242 0.393540 0.894001
Si Si2 0.107038 0.612476 0.286243
Si Si3 0.370403 0.222125 0.890608
Si Si4 0.000000 0.614864 0.607417
Si Si5 0.813706 0.751140 0.387938
Si Si6 0.339526 0.391323 0.230043
O O1 0.788139 0.500000 0.888131
O O2 0.809376 0.315238 0.886736
O O3 0.719343 0.387884 0.815673
O O4 0.740063 0.385807 0.000000
O O5 0.113145 0.500000 0.291305
O O6 0.101388 0.648034 0.178600
O O7 0.157275 0.663923 0.335091
O O8 0.054014 0.642679 0.341130
O O9 0.372872 0.323543 0.839595
O O10 0.386538 0.222902 0.000000
O O11 0.000000 0.500000 0.606334
O O12 0.000000 0.649005 0.500000
O O13 0.825295 0.749991 0.500000
O O14 0.750000 0.750000 0.376696
O O15 0.835860 0.842485 0.332370
O O16 0.356527 0.500000 0.232350
#
# Coordination Sequence:
#
# PCOD9484959 Si02
#       6
#    16  16  16   8  16  16
#     4   9  16  26  42  64  91 127 169 208 248 299
#     4  10  20  35  55  79 107 138 172 210 253 305
#     4  10  19  30  45  68  99 132 166 206 253 306
#     4   9  18  34  57  81 102 131 175 219 255 297
#     4  10  21  34  48  71 103 137 172 212 264 322
#     4  10  19  30  44  63  91 130 175 218 254 294
#
# _framework density 17.469795999999999
#
# number of rings (size 3 to 8) (size 9 to 14) (size 15 to 20)
#    0.000    2.273    0.000    4.364    0.000    7.273 
#    0.000    2.273    0.000    1.636    0.000   10.182 
#    0.000   23.273    0.000    0.000    0.000    0.000 
#
# Total GULP energy -245368.263383 kJ/mol
# GULP energy per Si atom -5576.551441 kJ/mol
# Density = 1.743003 g / cm^3
# Si number density = 17.469796 Si / 1000 Ang^3
#
#
#
# Elastic Constant Matrix: (Units=GPa)
#
#
# Indices 1 2 3 4 5 6 
#
# 1 49.4314 16.2745 30.8238 0.0000 0.0000 0.0000
# 2 16.2745 121.3799 46.4973 0.0000 0.0000 0.0000
# 3 30.8238 46.4973 146.0703 0.0000 0.0000 0.0000
# 4 0.0000 0.0000 0.0000 18.0893 0.0000 0.0000
# 5 0.0000 0.0000 0.0000 0.0000 18.9789 0.0000
# 6 0.0000 0.0000 0.0000 0.0000 0.0000 11.1054
#
#
#
# Elastic Compliance Matrix: (Units=1/GPa)
#
#
# Indices 1 2 3 4 5 6 
#
# 1 0.023510 -0.001426 -0.004507 0.000000 0.000000 0.000000
# 2 -0.001426 0.009469 -0.002713 0.000000 0.000000 0.000000
# 3 -0.004507 -0.002713 0.008661 0.000000 0.000000 0.000000
# 4 0.000000 0.000000 0.000000 0.055281 0.000000 0.000000
# 5 0.000000 0.000000 0.000000 0.000000 0.052690 0.000000
# 6 0.000000 0.000000 0.000000 0.000000 0.000000 0.090046
#
#
# Mechanical properties :
#
#
# Convention : Reuss Voigt Hill
#
# Bulk Modulus (GPa) = 41.07200 56.00811 48.54006
# Shear Modulus (GPa) = 18.86322 24.52045 21.69184
#
# Velocity S-wave (km/s) = 3.28954 3.75052 3.52757
# Velocity P-wave (km/s) = 6.16355 7.13335 6.66611
#
# Compressibility (1/GPa) = 0.02434749
#
# Stress axis : x y z
#
# Youngs Moduli (GPa) = 42.53504 105.60585 115.46159
#
# Poissons Ratio (x) = 0.15055 0.52042
# Poissons Ratio (y) = 0.06064 0.31330
# Poissons Ratio (z) = 0.19172 0.28655
#
# Static dielectric constant tensor:
#      x y z
#    x 1.582710 0.000000 0.000000 
#    y 0.000000 1.621310 0.000000 
#    z 0.000000 0.000000 1.619110 
# 
# From -- ./inp_files/45598.got.cif
#   From: 2010.05.17/outbox.cif.g08.bks.cpg/sg65_23_cif.got.tgz:45598.got - 2010.06.03 17:01:31.
