data_PCOD9484586
_publ_section_title
;
Structure prediction by ZEFSAII (Michael W. Deem and Ramdas Pophale) SiO2 
 PCOD9484586
Probable space group: C M M M
;
_chemical_formula_sum "Si O2"
_cell_formula_units_Z 66
_cell_length_a 9.943416
_cell_length_b 16.962251
_cell_length_c 20.348366
_cell_angle_alpha 90.000000
_cell_angle_beta 90.000000
_cell_angle_gamma 90.000000
_cell_volume 3432.010716
_symmetry_space_group_name_H-M "C M M M"
_symmetry_group_IT_number 65
_symmetry_cell_setting 'orthorhombic'
loop_
_space_group_symop_operation_xyz
x,y,z
-x,-y,z
x,-y,-z
-x,y,-z
-x,-y,-z
x,y,-z
-x,y,z
x,-y,z
1/2+x,1/2+y,z
1/2-x,1/2-y,z
1/2+x,1/2-y,-z
1/2-x,1/2+y,-z
1/2-x,1/2-y,-z
1/2+x,1/2+y,-z
1/2-x,1/2+y,z
1/2+x,1/2-y,z
loop_
_atom_site_type_symbol
_atom_site_label
_atom_site_fract_x
_atom_site_fract_y
_atom_site_fract_z
Si Si1 0.157760 0.171694 0.178927
Si Si2 0.000000 0.184389 0.422169
Si Si3 0.348608 0.094593 0.924771
Si Si4 0.500000 0.128557 0.616642
Si Si5 0.726544 0.344219 0.677190
Si Si6 0.500000 0.000000 0.500000
O O1 0.250000 0.250000 0.180391
O O2 0.230404 0.121237 0.122973
O O3 0.169670 0.133399 0.251718
O O4 0.000000 0.187121 0.166494
O O5 0.126847 0.147053 0.384364
O O6 0.000000 0.171469 0.500000
O O7 0.000000 0.279374 0.408355
O O8 0.500000 0.120566 0.903644
O O9 0.350739 0.000000 0.926018
O O10 0.328296 0.122343 0.000000
O O11 0.632053 0.117492 0.660477
O O12 0.500000 0.069040 0.556939
O O13 0.750000 0.250000 0.680706
#
# Coordination Sequence:
#
# PCOD9484586 Si02
#       6
#    16   8  16   8  16   2
#     4  11  22  37  60  90 126 158 196 250 302 357
#     4  10  18  34  62  86 105 139 190 247 293 334
#     4   9  20  40  64  89 119 158 204 248 294 355
#     4  10  22  36  56  80 115 145 191 233 292 350
#     4   9  20  35  56  85 111 143 186 242 292 341
#     4  12  24  40  52  82 120 152 190 240 276 368
#
# _framework density 19.230706999999999
#
# number of rings (size 3 to 8) (size 9 to 14) (size 15 to 20)
#    0.000    2.182    1.818    1.455    8.485    2.909 
#    2.182    1.212    0.000    1.455    0.000    0.000 
#    0.000    0.000    0.000    0.000    0.000    0.000 
#
# Total GULP energy -183701.748383 kJ/mol
# GULP energy per Si atom -5566.719648 kJ/mol
# Density = 1.918694 g / cm^3
# Si number density = 19.230707 Si / 1000 Ang^3
#
#
#
# Elastic Constant Matrix: (Units=GPa)
#
#
# Indices 1 2 3 4 5 6 
#
# 1 188.3778 31.0411 89.8404 0.0000 0.0000 0.0000
# 2 31.0411 25.8785 25.3107 0.0000 0.0000 0.0000
# 3 89.8404 25.3107 137.6764 0.0000 0.0000 0.0000
# 4 0.0000 0.0000 0.0000 233.3150 0.0000 0.0000
# 5 0.0000 0.0000 0.0000 0.0000 35.2570 0.0000
# 6 0.0000 0.0000 0.0000 0.0000 0.0000 13.5171
#
#
#
# Elastic Compliance Matrix: (Units=1/GPa)
#
#
# Indices 1 2 3 4 5 6 
#
# 1 0.008346 -0.005711 -0.004396 0.000000 0.000000 0.000000
# 2 -0.005711 0.051022 -0.005653 0.000000 0.000000 0.000000
# 3 -0.004396 -0.005653 0.011171 0.000000 0.000000 0.000000
# 4 0.000000 0.000000 0.000000 0.004286 0.000000 0.000000
# 5 0.000000 0.000000 0.000000 0.000000 0.028363 0.000000
# 6 0.000000 0.000000 0.000000 0.000000 0.000000 0.073981
#
#
# Mechanical properties :
#
#
# Convention : Reuss Voigt Hill
#
# Bulk Modulus (GPa) = 25.62913 71.59079 48.60996
# Shear Modulus (GPa) = 22.55331 70.13385 46.34358
#
# Velocity S-wave (km/s) = 3.42830 6.04557 4.91437
# Velocity P-wave (km/s) = 5.38768 9.27578 7.58509
#
# Compressibility (1/GPa) = 0.03901810
#
# Stress axis : x y z
#
# Youngs Moduli (GPa) = 119.81331 19.59946 89.51353
#
# Poissons Ratio (x) = 0.11194 0.39353
# Poissons Ratio (y) = 0.68431 0.50602
# Poissons Ratio (z) = 0.52674 0.11079
#
# Static dielectric constant tensor:
#      x y z
#    x 1.681360 0.000000 0.000000 
#    y 0.000000 1.670510 0.000000 
#    z 0.000000 0.000000 1.670310 
# 
# From -- ./inp_files/59052.got.cif
#   From: 2010.05.17/outbox.cif.g08.bks.cpg/sg65_30_cif.got.tgz:59052.got - 2010.06.03 17:01:31.
