data_PCOD9484560
_publ_section_title
;
Structure prediction by ZEFSAII (Michael W. Deem and Ramdas Pophale) SiO2 
 PCOD9484560
Probable space group: C M M M
;
_chemical_formula_sum "Si O2"
_cell_formula_units_Z 92
_cell_length_a 28.989797
_cell_length_b 20.185353
_cell_length_c 8.955655
_cell_angle_alpha 90.000000
_cell_angle_beta 90.000000
_cell_angle_gamma 90.000000
_cell_volume 5240.574241
_symmetry_space_group_name_H-M "C M M M"
_symmetry_group_IT_number 65
_symmetry_cell_setting 'orthorhombic'
loop_
_space_group_symop_operation_xyz
x,y,z
-x,-y,z
x,-y,-z
-x,y,-z
-x,-y,-z
x,y,-z
-x,y,z
x,-y,z
1/2+x,1/2+y,z
1/2-x,1/2-y,z
1/2+x,1/2-y,-z
1/2-x,1/2+y,-z
1/2-x,1/2-y,-z
1/2+x,1/2+y,-z
1/2-x,1/2+y,z
1/2+x,1/2-y,z
loop_
_atom_site_type_symbol
_atom_site_label
_atom_site_fract_x
_atom_site_fract_y
_atom_site_fract_z
Si Si1 0.443828 0.000000 0.172059
Si Si2 0.862204 0.122050 0.666031
Si Si3 0.555535 0.136877 0.673919
Si Si4 0.882793 0.745877 0.822209
Si Si5 0.289018 0.193403 0.323742
Si Si6 0.101046 0.000000 0.500000
Si Si7 0.232451 0.077678 0.178544
O O1 0.429249 0.933212 0.255709
O O2 0.500000 0.000000 0.172536
O O3 0.428635 0.000000 0.000000
O O4 0.846384 0.146462 0.500000
O O5 0.886847 0.181294 0.750974
O O6 0.893569 0.058834 0.627712
O O7 0.817207 0.098586 0.755365
O O8 0.568665 0.140253 0.500000
O O9 0.500000 0.139675 0.683022
O O10 0.577922 0.196867 0.763338
O O11 0.834477 0.716964 0.761659
O O12 0.882542 0.749285 0.000000
O O13 0.298061 0.185832 0.500000
O O14 0.250000 0.250000 0.304652
O O15 0.269456 0.125614 0.255010
O O16 0.240151 0.000000 0.211399
O O17 0.232842 0.086861 0.000000
#
# Coordination Sequence:
#
# PCOD9484560 Si02
#       7
#     8  16  16  16  16   4  16
#     4   9  17  33  59  88 119 153 189 234 287 336
#     4  10  18  34  54  80 108 147 186 231 275 329
#     4  10  21  39  63  89 117 152 194 237 281 339
#     4  12  24  37  57  86 118 149 188 238 291 344
#     4  11  23  37  56  78 108 153 195 233 281 337
#     4   8  20  32  58  80 113 144 192 240 265 332
#     4  11  21  34  53  78 108 143 188 238 287 334
#
# _framework density 17.555329
#
# number of rings (size 3 to 8) (size 9 to 14) (size 15 to 20)
#    0.522    0.957    2.609    3.913    0.000    3.826 
#    1.565    0.000    0.000    0.000    0.000    1.217 
#    0.000    1.391    0.000    0.000    0.000    0.000 
#
# Total GULP energy -256217.751074 kJ/mol
# GULP energy per Si atom -5569.951110 kJ/mol
# Density = 1.751537 g / cm^3
# Si number density = 17.555329 Si / 1000 Ang^3
#
#
#
# Elastic Constant Matrix: (Units=GPa)
#
#
# Indices 1 2 3 4 5 6 
#
# 1 17.7030 28.3510 27.0350 0.0000 0.0000 0.0000
# 2 28.3510 166.4877 91.2290 0.0000 0.0000 0.0000
# 3 27.0350 91.2290 147.4693 0.0000 0.0000 0.0000
# 4 0.0000 0.0000 0.0000 38.5039 0.0000 0.0000
# 5 0.0000 0.0000 0.0000 0.0000 22.4300 0.0000
# 6 0.0000 0.0000 0.0000 0.0000 0.0000 22.4543
#
#
#
# Elastic Compliance Matrix: (Units=1/GPa)
#
#
# Indices 1 2 3 4 5 6 
#
# 1 0.086817 -0.009172 -0.010242 0.000000 0.000000 0.000000
# 2 -0.009172 0.010056 -0.004539 0.000000 0.000000 0.000000
# 3 -0.010242 -0.004539 0.011467 0.000000 0.000000 0.000000
# 4 0.000000 0.000000 0.000000 0.025971 0.000000 0.000000
# 5 0.000000 0.000000 0.000000 0.000000 0.044583 0.000000
# 6 0.000000 0.000000 0.000000 0.000000 0.000000 0.044535
#
#
# Mechanical properties :
#
#
# Convention : Reuss Voigt Hill
#
# Bulk Modulus (GPa) = 16.54716 69.43223 42.98970
# Shear Modulus (GPa) = 17.15390 29.01397 23.08393
#
# Velocity S-wave (km/s) = 3.12930 4.06977 3.63012
# Velocity P-wave (km/s) = 4.74372 7.85624 6.48935
#
# Compressibility (1/GPa) = 0.06043332
#
# Stress axis : x y z
#
# Youngs Moduli (GPa) = 11.51852 99.44632 87.20810
#
# Poissons Ratio (x) = 0.91210 0.89317
# Poissons Ratio (y) = 0.10565 0.39587
# Poissons Ratio (z) = 0.11797 0.45142
#
# Static dielectric constant tensor:
#      x y z
#    x 1.583290 0.000000 0.000000 
#    y 0.000000 1.590870 0.000000 
#    z 0.000000 0.000000 1.592420 
# 
# From -- ./inp_files/16394.got.cif
#   From: 2010.05.17/outbox.cif.g08.bks.cpg/sg65_9_cif.got.tgz:16394.got - 2010.06.03 17:01:31.
