data_PCOD9484105
_publ_section_title
;
Structure prediction by ZEFSAII (Michael W. Deem and Ramdas Pophale) SiO2 
 PCOD9484105
Probable space group: C M M M
;
_chemical_formula_sum "Si O2"
_cell_formula_units_Z 96
_cell_length_a 23.839020
_cell_length_b 7.476689
_cell_length_c 26.907207
_cell_angle_alpha 90.000000
_cell_angle_beta 90.000000
_cell_angle_gamma 90.000000
_cell_volume 4795.858202
_symmetry_space_group_name_H-M "C M M M"
_symmetry_group_IT_number 65
_symmetry_cell_setting 'orthorhombic'
loop_
_space_group_symop_operation_xyz
x,y,z
-x,-y,z
x,-y,-z
-x,y,-z
-x,-y,-z
x,y,-z
-x,y,z
x,-y,z
1/2+x,1/2+y,z
1/2-x,1/2-y,z
1/2+x,1/2-y,-z
1/2-x,1/2+y,-z
1/2-x,1/2-y,-z
1/2+x,1/2+y,-z
1/2-x,1/2+y,z
1/2+x,1/2-y,z
loop_
_atom_site_type_symbol
_atom_site_label
_atom_site_fract_x
_atom_site_fract_y
_atom_site_fract_z
Si Si1 0.000000 0.213530 0.179181
Si Si2 0.375599 0.789852 0.846979
Si Si3 0.500000 0.716257 0.293797
Si Si4 0.435209 0.218555 0.556277
Si Si5 0.184003 0.714472 0.054940
Si Si6 0.617026 0.206674 0.345552
Si Si7 0.184221 0.714632 0.252629
O O1 0.057617 0.273135 0.154297
O O2 0.000000 0.274730 0.236479
O O3 0.000000 0.000000 0.179805
O O4 0.349306 0.714096 0.897497
O O5 0.349277 0.715670 0.795718
O O6 0.361089 0.000000 0.846659
O O7 0.500000 0.500000 0.296012
O O8 0.444137 0.785595 0.319983
O O9 0.420883 0.271685 0.500000
O O10 0.500000 0.272786 0.566070
O O11 0.394087 0.283823 0.599640
O O12 0.435208 0.000000 0.557691
O O13 0.176160 0.500000 0.053531
O O14 0.250000 0.750000 0.061792
O O15 0.167999 0.783436 0.000000
O O16 0.659090 0.286049 0.304604
O O17 0.633772 0.000000 0.352929
O O18 0.175505 0.500000 0.253998
O O19 0.250000 0.750000 0.247626
#
# Coordination Sequence:
#
# PCOD9484105 Si02
#       7
#     8  16   8  16  16  16  16
#     4  11  23  35  50  75 104 134 165 200 247 298
#     4  10  20  35  54  75 101 133 166 202 244 295
#     4  11  21  31  46  73 102 130 159 196 247 294
#     4   8  13  22  42  72  97 119 155 202 241 275
#     4   9  18  33  54  79 104 133 170 209 249 290
#     4  10  18  31  51  71  96 130 164 199 239 293
#     4  10  21  33  49  72  96 127 164 201 245 287
#
# _framework density 20.017272999999999
#
# number of rings (size 3 to 8) (size 9 to 14) (size 15 to 20)
#    0.000    2.333    2.500    1.500    0.000    2.667 
#    0.000    0.417    0.000    4.000    0.000    0.000 
#    0.000    0.000    0.000    0.000    0.000    0.000 
#
# Total GULP energy -267835.828510 kJ/mol
# GULP energy per Si atom -5579.913094 kJ/mol
# Density = 1.997171 g / cm^3
# Si number density = 20.017273 Si / 1000 Ang^3
#
#
#
# Elastic Constant Matrix: (Units=GPa)
#
#
# Indices 1 2 3 4 5 6 
#
# 1 99.7981 -14.6554 82.2755 0.0000 0.0000 0.0000
# 2 -14.6554 60.4325 8.9986 0.0000 0.0000 0.0000
# 3 82.2755 8.9986 209.9150 0.0000 0.0000 0.0000
# 4 0.0000 0.0000 0.0000 -4.3108 0.0000 0.0000
# 5 0.0000 0.0000 0.0000 0.0000 19.2094 0.0000
# 6 0.0000 0.0000 0.0000 0.0000 0.0000 16.3195
#
#
#
# Elastic Compliance Matrix: (Units=1/GPa)
#
#
# Indices 1 2 3 4 5 6 
#
# 1 0.016117 0.004880 -0.006526 0.000000 0.000000 0.000000
# 2 0.004880 0.018132 -0.002690 0.000000 0.000000 0.000000
# 3 -0.006526 -0.002690 0.007437 0.000000 0.000000 0.000000
# 4 0.000000 0.000000 0.000000 -0.231973 0.000000 0.000000
# 5 0.000000 0.000000 0.000000 0.000000 0.052058 0.000000
# 6 0.000000 0.000000 0.000000 0.000000 0.000000 0.061276
#
#
# Mechanical properties :
#
#
# Convention : Reuss Voigt Hill
#
# Bulk Modulus (GPa) = 30.29030 58.15366 44.22198
# Shear Modulus (GPa) = -87.29702 25.81206 -30.74248
#
# Velocity S-wave (km/s) = -6.61101 3.59484 -3.92318
# Velocity P-wave (km/s) = 6.56575 6.80774 1.27205
#
# Compressibility (1/GPa) = 0.03301387
#
# Stress axis : x y z
#
# Youngs Moduli (GPa) = 62.04476 55.15263 134.46018
#
# Poissons Ratio (x) = -0.26917 0.87754
# Poissons Ratio (y) = -0.30280 0.36171
# Poissons Ratio (z) = 0.40493 0.14837
#
# Static dielectric constant tensor:
#      x y z
#    x 1.649970 0.000000 0.000000 
#    y 0.000000 1.750030 0.000000 
#    z 0.000000 0.000000 1.751830 
# 
# From -- ./inp_files/75733.got.cif
#   From: 2010.05.17/outbox.cif.g08.bks.cpg/sg65_38_cif.got.tgz:75733.got - 2010.06.03 17:01:31.
