data_PCOD9484647
_publ_section_title
;
Structure prediction by ZEFSAII (Michael W. Deem and Ramdas Pophale) SiO2 
 PCOD9484647
Probable space group: C M M M
;
_chemical_formula_sum "Si O2"
_cell_formula_units_Z 104
_cell_length_a 29.485419
_cell_length_b 18.448564
_cell_length_c 13.951110
_cell_angle_alpha 90.000000
_cell_angle_beta 90.000000
_cell_angle_gamma 90.000000
_cell_volume 7588.896571
_symmetry_space_group_name_H-M "C M M M"
_symmetry_group_IT_number 65
_symmetry_cell_setting 'orthorhombic'
loop_
_space_group_symop_operation_xyz
x,y,z
-x,-y,z
x,-y,-z
-x,y,-z
-x,-y,-z
x,y,-z
-x,y,z
x,-y,z
1/2+x,1/2+y,z
1/2-x,1/2-y,z
1/2+x,1/2-y,-z
1/2-x,1/2+y,-z
1/2-x,1/2-y,-z
1/2+x,1/2+y,-z
1/2-x,1/2+y,z
1/2+x,1/2-y,z
loop_
_atom_site_type_symbol
_atom_site_label
_atom_site_fract_x
_atom_site_fract_y
_atom_site_fract_z
Si Si1 0.206480 0.344291 0.114753
Si Si2 0.098463 0.859689 0.794570
Si Si3 0.552168 0.500000 0.114491
Si Si4 0.447131 0.413116 0.387713
Si Si5 0.692615 0.672517 0.115359
Si Si6 0.446340 0.782520 0.114927
Si Si7 0.615208 0.918340 0.883210
O O1 0.258144 0.357676 0.146196
O O2 0.194855 0.259588 0.129830
O O3 0.165250 0.393418 0.150479
O O4 0.207954 0.353631 0.000000
O O5 0.075717 0.928024 0.847090
O O6 0.086185 0.871568 0.683536
O O7 0.150931 0.857791 0.824576
O O8 0.075938 0.785941 0.833224
O O9 0.500000 0.500000 0.146682
O O10 0.553373 0.500000 0.000000
O O11 0.439870 0.397438 0.500000
O O12 0.500000 0.396167 0.364895
O O13 0.441650 0.500000 0.374752
O O14 0.686187 0.660717 0.000000
O O15 0.500000 0.786180 0.133108
O O16 0.420856 0.856582 0.143551
O O17 0.439772 0.773069 0.000000
O O18 0.604443 0.000000 0.851871
O O19 0.616000 0.918831 0.000000
#
# Coordination Sequence:
#
# PCOD9484647 Si02
#       7
#    16  16   8  16  16  16  16
#     4   8  14  27  42  58  81 117 156 182 212 248
#     4  12  19  29  45  63  86 116 149 181 218 261
#     4  11  22  30  37  57  93 129 152 170 200 254
#     4   9  18  33  49  62  80 111 151 190 225 261
#     4   9  16  26  43  62  87 119 148 180 213 255
#     4  10  19  28  40  60  87 117 146 177 215 260
#     4   9  16  27  41  56  80 116 155 187 213 245
#
# _framework density 13.704231999999999
#
# number of rings (size 3 to 8) (size 9 to 14) (size 15 to 20)
#    0.000    2.385    2.308    4.154    0.000    1.538 
#    1.385    1.538    0.000    0.000    0.000    2.154 
#    0.000    0.615    0.000    3.231    0.000    0.154 
#
# Total GULP energy -289676.492681 kJ/mol
# GULP energy per Si atom -5570.701782 kJ/mol
# Density = 1.367304 g / cm^3
# Si number density = 13.704232 Si / 1000 Ang^3
#
#
#
# Elastic Constant Matrix: (Units=GPa)
#
#
# Indices 1 2 3 4 5 6 
#
# 1 98.9347 40.5025 31.1511 0.0000 0.0000 0.0000
# 2 40.5025 78.9507 14.5008 0.0000 0.0000 0.0000
# 3 31.1511 14.5008 40.8948 0.0000 0.0000 0.0000
# 4 0.0000 0.0000 0.0000 6.0555 0.0000 0.0000
# 5 0.0000 0.0000 0.0000 0.0000 1.3517 0.0000
# 6 0.0000 0.0000 0.0000 0.0000 0.0000 20.5182
#
#
#
# Elastic Compliance Matrix: (Units=1/GPa)
#
#
# Indices 1 2 3 4 5 6 
#
# 1 0.015760 -0.006290 -0.009775 0.000000 0.000000 0.000000
# 2 -0.006290 0.016059 -0.000903 0.000000 0.000000 0.000000
# 3 -0.009775 -0.000903 0.032219 0.000000 0.000000 0.000000
# 4 0.000000 0.000000 0.000000 0.165139 0.000000 0.000000
# 5 0.000000 0.000000 0.000000 0.000000 0.739819 0.000000
# 6 0.000000 0.000000 0.000000 0.000000 0.000000 0.048737
#
#
# Mechanical properties :
#
#
# Convention : Reuss Voigt Hill
#
# Bulk Modulus (GPa) = 33.21972 43.45433 38.33702
# Shear Modulus (GPa) = 4.70941 14.42680 9.56811
#
# Velocity S-wave (km/s) = 1.85578 3.24809 2.64519
# Velocity P-wave (km/s) = 5.37448 6.77085 6.11267
#
# Compressibility (1/GPa) = 0.03010260
#
# Stress axis : x y z
#
# Youngs Moduli (GPa) = 63.44977 62.27120 31.03744
#
# Poissons Ratio (x) = 0.39168 0.30339
# Poissons Ratio (y) = 0.39910 0.02803
# Poissons Ratio (z) = 0.62022 0.05623
#
# Static dielectric constant tensor:
#      x y z
#    x 1.471210 0.000000 0.000000 
#    y 0.000000 1.454490 0.000000 
#    z 0.000000 0.000000 1.428670 
# 
# From -- ./inp_files/47172.got.cif
#   From: 2010.05.17/outbox.cif.g08.bks.cpg/sg65_24_cif.got.tgz:47172.got - 2010.06.03 17:01:31.
