data_PCOD9484400
_publ_section_title
;
Structure prediction by ZEFSAII (Michael W. Deem and Ramdas Pophale) SiO2 
 PCOD9484400
Probable space group: C M M M
;
_chemical_formula_sum "Si O2"
_cell_formula_units_Z 112
_cell_length_a 14.195327
_cell_length_b 27.712694
_cell_length_c 14.970207
_cell_angle_alpha 90.000000
_cell_angle_beta 90.000000
_cell_angle_gamma 90.000000
_cell_volume 5889.141010
_symmetry_space_group_name_H-M "C M M M"
_symmetry_group_IT_number 65
_symmetry_cell_setting 'orthorhombic'
loop_
_space_group_symop_operation_xyz
x,y,z
-x,-y,z
x,-y,-z
-x,y,-z
-x,-y,-z
x,y,-z
-x,y,z
x,-y,z
1/2+x,1/2+y,z
1/2-x,1/2-y,z
1/2+x,1/2-y,-z
1/2-x,1/2+y,-z
1/2-x,1/2-y,-z
1/2+x,1/2+y,-z
1/2-x,1/2+y,z
1/2+x,1/2-y,z
loop_
_atom_site_type_symbol
_atom_site_label
_atom_site_fract_x
_atom_site_fract_y
_atom_site_fract_z
Si Si1 0.224072 0.849996 0.398213
Si Si2 0.661951 0.285995 0.096000
Si Si3 0.280664 0.117646 0.902245
Si Si4 0.103991 0.228893 0.288890
Si Si5 0.611340 0.844279 0.271233
Si Si6 0.896379 0.944293 0.147012
Si Si7 0.108493 0.054230 0.637261
O O1 0.237310 0.833887 0.500000
O O2 0.173044 0.807061 0.341913
O O3 0.322059 0.862973 0.350076
O O4 0.163308 0.899059 0.396273
O O5 0.750000 0.250000 0.107517
O O6 0.711187 0.337096 0.091735
O O7 0.602516 0.285946 0.185158
O O8 0.883737 0.225369 0.000000
O O9 0.350096 0.131935 0.820952
O O10 0.203421 0.076316 0.884965
O O11 0.327121 0.111263 0.000000
O O12 0.125871 0.286003 0.280259
O O13 0.000000 0.223834 0.329302
O O14 0.500000 0.853074 0.279647
O O15 0.892585 0.941927 0.254792
O O16 0.000000 0.922476 0.120261
O O17 0.900038 0.000000 0.120314
O O18 0.000000 0.056618 0.607781
O O19 0.144363 0.000000 0.614619
#
# Coordination Sequence:
#
# PCOD9484400 Si02
#       7
#    16  16  16  16  16  16  16
#     4  12  24  40  63  88 119 157 197 243 301 365
#     4  10  18  32  54  80 115 154 196 240 281 335
#     4  11  21  35  60  88 120 160 199 239 290 352
#     4  11  22  37  59  86 118 154 195 241 296 361
#     4  11  24  42  61  82 112 153 203 256 302 342
#     4   9  18  35  61  93 129 165 198 235 286 355
#     4   9  18  35  62  95 127 157 191 233 287 356
#
# _framework density 19.018053999999999
#
# number of rings (size 3 to 8) (size 9 to 14) (size 15 to 20)
#    0.000    1.571    4.286    1.714    0.000    5.714 
#    0.000    5.714    0.000    1.714    0.000    2.000 
#    0.000    0.000    0.000    0.000    0.000    0.000 
#
# Total GULP energy -311956.545357 kJ/mol
# GULP energy per Si atom -5570.652596 kJ/mol
# Density = 1.897477 g / cm^3
# Si number density = 19.018054 Si / 1000 Ang^3
#
#
#
# Elastic Constant Matrix: (Units=GPa)
#
#
# Indices 1 2 3 4 5 6 
#
# 1 118.9300 47.4768 54.3160 0.0000 0.0000 0.0000
# 2 47.4768 62.1566 26.5551 0.0000 0.0000 0.0000
# 3 54.3160 26.5551 124.5116 0.0000 0.0000 0.0000
# 4 0.0000 0.0000 0.0000 10.7503 0.0000 0.0000
# 5 0.0000 0.0000 0.0000 0.0000 -33.7213 0.0000
# 6 0.0000 0.0000 0.0000 0.0000 0.0000 -4.7180
#
#
#
# Elastic Compliance Matrix: (Units=1/GPa)
#
#
# Indices 1 2 3 4 5 6 
#
# 1 0.013806 -0.008772 -0.004152 0.000000 0.000000 0.000000
# 2 -0.008772 0.023274 -0.001137 0.000000 0.000000 0.000000
# 3 -0.004152 -0.001137 0.010085 0.000000 0.000000 0.000000
# 4 0.000000 0.000000 0.000000 0.093020 0.000000 0.000000
# 5 0.000000 0.000000 0.000000 0.000000 -0.029655 0.000000
# 6 0.000000 0.000000 0.000000 0.000000 0.000000 -0.211955
#
#
# Mechanical properties :
#
#
# Convention : Reuss Voigt Hill
#
# Bulk Modulus (GPa) = 52.51058 62.47711 57.49384
# Shear Modulus (GPa) = -74.67789 6.27892 -34.19949
#
# Velocity S-wave (km/s) = -6.27312 1.81899 -4.24520
# Velocity P-wave (km/s) = 4.97982 6.11019 2.50358
#
# Compressibility (1/GPa) = 0.01904378
#
# Stress axis : x y z
#
# Youngs Moduli (GPa) = 72.43150 42.96585 99.15580
#
# Poissons Ratio (x) = 0.37688 0.41169
# Poissons Ratio (y) = 0.63534 0.11277
# Poissons Ratio (z) = 0.30073 0.04887
#
# Static dielectric constant tensor:
#      x y z
#    x 1.688130 0.000000 0.000000 
#    y 0.000000 1.644470 0.000000 
#    z 0.000000 0.000000 1.745260 
# 
# From -- ./inp_files/41040.got.cif
#   From: 2010.05.17/outbox.cif.g08.bks.cpg/sg65_21_cif.got.tgz:41040.got - 2010.06.03 17:01:31.
