data_PCOD9484763
_publ_section_title
;
Structure prediction by ZEFSAII (Michael W. Deem and Ramdas Pophale) SiO2 
 PCOD9484763
Probable space group: C M M M
;
_chemical_formula_sum "Si O2"
_cell_formula_units_Z 72
_cell_length_a 19.161005
_cell_length_b 7.350336
_cell_length_c 24.804192
_cell_angle_alpha 90.000000
_cell_angle_beta 90.000000
_cell_angle_gamma 90.000000
_cell_volume 3493.418057
_symmetry_space_group_name_H-M "C M M M"
_symmetry_group_IT_number 65
_symmetry_cell_setting 'orthorhombic'
loop_
_space_group_symop_operation_xyz
x,y,z
-x,-y,z
x,-y,-z
-x,y,-z
-x,-y,-z
x,y,-z
-x,y,z
x,-y,z
1/2+x,1/2+y,z
1/2-x,1/2-y,z
1/2+x,1/2-y,-z
1/2-x,1/2+y,-z
1/2-x,1/2-y,-z
1/2+x,1/2+y,-z
1/2-x,1/2+y,z
1/2+x,1/2-y,z
loop_
_atom_site_type_symbol
_atom_site_label
_atom_site_fract_x
_atom_site_fract_y
_atom_site_fract_z
Si Si1 0.667308 0.282436 0.675250
Si Si2 0.332183 0.282805 0.000000
Si Si3 0.080893 0.778495 0.222698
Si Si4 0.833560 0.217309 0.441983
Si Si5 0.919068 0.221661 0.102323
O O1 0.657293 0.500000 0.674101
O O2 0.750000 0.250000 0.680059
O O3 0.627121 0.212860 0.727592
O O4 0.642350 0.213010 0.616436
O O5 0.250000 0.250000 0.000000
O O6 0.370076 0.214365 0.945960
O O7 0.342402 0.500000 0.000000
O O8 0.102804 0.720524 0.162532
O O9 0.000000 0.727853 0.229937
O O10 0.083477 0.000000 0.222718
O O11 0.860146 0.287420 0.500000
O O12 0.750000 0.250000 0.441981
O O13 0.844646 0.000000 0.442208
O O14 0.000000 0.274032 0.093718
O O15 0.918103 0.000000 0.102362
#
# Coordination Sequence:
#
# PCOD9484763 Si02
#       5
#    16   8  16  16  16
#     4   9  16  25  39  59  80 102 129 162 199 235
#     4  10  19  29  43  65  89 108 128 160 202 238
#     4   8  14  25  41  60  80 103 133 166 196 228
#     4   8  13  21  33  50  73  99 126 156 189 227
#     4   8  14  26  44  62  78 102 139 172 190 217
#
# _framework density 20.610187
#
# number of rings (size 3 to 8) (size 9 to 14) (size 15 to 20)
#    0.000    3.556    0.000    1.667    0.000    2.222 
#    0.000    0.000    0.000    2.667    0.000    7.778 
#    0.000    0.000    0.000   36.000    0.000   16.889 
#
# Total GULP energy -200567.470446 kJ/mol
# GULP energy per Si atom -5571.318624 kJ/mol
# Density = 2.056328 g / cm^3
# Si number density = 20.610187 Si / 1000 Ang^3
#
#
#
# Elastic Constant Matrix: (Units=GPa)
#
#
# Indices 1 2 3 4 5 6 
#
# 1 66.8185 -0.4698 114.6366 0.0000 0.0000 0.0000
# 2 -0.4698 79.8715 12.3782 0.0000 0.0000 0.0000
# 3 114.6366 12.3782 295.1125 0.0000 0.0000 0.0000
# 4 0.0000 0.0000 0.0000 -5.4822 0.0000 0.0000
# 5 0.0000 0.0000 0.0000 0.0000 599.4241 0.0000
# 6 0.0000 0.0000 0.0000 0.0000 0.0000 9.1113
#
#
#
# Elastic Compliance Matrix: (Units=1/GPa)
#
#
# Indices 1 2 3 4 5 6 
#
# 1 0.045586 0.003032 -0.017835 0.000000 0.000000 0.000000
# 2 0.003032 0.012804 -0.001715 0.000000 0.000000 0.000000
# 3 -0.017835 -0.001715 0.010388 0.000000 0.000000 0.000000
# 4 0.000000 0.000000 0.000000 -0.182409 0.000000 0.000000
# 5 0.000000 0.000000 0.000000 0.000000 0.001668 0.000000
# 6 0.000000 0.000000 0.000000 0.000000 0.000000 0.109753
#
#
# Mechanical properties :
#
#
# Convention : Reuss Voigt Hill
#
# Bulk Modulus (GPa) = 27.97800 77.21029 52.59415
# Shear Modulus (GPa) = 116.98637 141.62783 129.30710
#
# Velocity S-wave (km/s) = 7.54219 8.29859 7.92941
# Velocity P-wave (km/s) = 9.45783 11.37390 10.45983
#
# Compressibility (1/GPa) = 0.03574236
#
# Stress axis : x y z
#
# Youngs Moduli (GPa) = 21.93680 78.10240 96.26080
#
# Poissons Ratio (x) = -0.23682 1.71680
# Poissons Ratio (y) = -0.06652 0.16507
# Poissons Ratio (z) = 0.39124 0.13394
#
# Static dielectric constant tensor:
#      x y z
#    x 1.663060 0.000000 0.000000 
#    y 0.000000 1.802730 0.000000 
#    z 0.000000 0.000000 1.789700 
# 
# From -- ./inp_files/61299.got.cif
#   From: 2010.05.17/outbox.cif.g08.bks.cpg/sg65_31_cif.got.tgz:61299.got - 2010.06.03 17:01:31.
