data_PCOD9484597
_publ_section_title
;
Structure prediction by ZEFSAII (Michael W. Deem and Ramdas Pophale) SiO2 
 PCOD9484597
Probable space group: C M M M
;
_chemical_formula_sum "Si O2"
_cell_formula_units_Z 104
_cell_length_a 26.734272
_cell_length_b 27.921304
_cell_length_c 8.061035
_cell_angle_alpha 90.000000
_cell_angle_beta 90.000000
_cell_angle_gamma 90.000000
_cell_volume 6017.205812
_symmetry_space_group_name_H-M "C M M M"
_symmetry_group_IT_number 65
_symmetry_cell_setting 'orthorhombic'
loop_
_space_group_symop_operation_xyz
x,y,z
-x,-y,z
x,-y,-z
-x,y,-z
-x,-y,-z
x,y,-z
-x,y,z
x,-y,z
1/2+x,1/2+y,z
1/2-x,1/2-y,z
1/2+x,1/2-y,-z
1/2-x,1/2+y,-z
1/2-x,1/2-y,-z
1/2+x,1/2+y,-z
1/2-x,1/2+y,z
1/2+x,1/2-y,z
loop_
_atom_site_type_symbol
_atom_site_label
_atom_site_fract_x
_atom_site_fract_y
_atom_site_fract_z
Si Si1 0.309000 0.889434 0.314385
Si Si2 0.122968 0.690855 0.808519
Si Si3 0.892994 0.945203 0.697473
Si Si4 0.197951 0.773464 0.201791
Si Si5 0.000000 0.054974 0.197705
Si Si6 0.700781 0.617329 0.197136
Si Si7 0.883225 0.445730 0.500000
Si Si8 0.440661 0.152583 0.500000
O O1 0.308140 0.866960 0.500000
O O2 0.333940 0.850227 0.196998
O O3 0.253038 0.902397 0.267204
O O4 0.346614 0.933811 0.343671
O O5 0.151021 0.739802 0.758176
O O6 0.083660 0.675501 0.666733
O O7 0.104599 0.694239 0.000000
O O8 0.890374 0.947332 0.500000
O O9 0.846809 0.914464 0.760080
O O10 0.947208 0.924027 0.745265
O O11 0.890385 0.000000 0.763704
O O12 0.250000 0.750000 0.260107
O O13 0.194201 0.828115 0.259503
O O14 0.199945 0.773977 0.000000
O O15 0.000000 0.000000 0.264051
O O16 0.000000 0.053688 0.000000
O O17 0.705960 0.619310 0.000000
O O18 0.900835 0.500000 0.500000
O O19 0.924131 0.403553 0.500000
O O20 0.500000 0.157671 0.500000
#
# Coordination Sequence:
#
# PCOD9484597 Si02
#       8
#    16  16  16  16   8  16   8   8
#     4   9  18  31  49  79 111 141 177 215 262 333
#     4  10  18  35  58  82 112 145 178 222 280 332
#     4  10  21  36  52  72 102 139 179 224 274 324
#     4   9  17  30  53  80 109 143 175 214 265 323
#     4   9  17  33  57  77  91 121 173 227 271 313
#     4  11  20  32  51  79 111 143 183 224 265 323
#     4   8  18  35  55  77 108 147 181 224 284 335
#     4  10  22  39  58  86 109 139 198 241 273 334
#
# _framework density 17.283770000000001
#
# number of rings (size 3 to 8) (size 9 to 14) (size 15 to 20)
#    0.462    1.923    2.308    1.615    0.000    2.923 
#    2.769    1.154    1.692   11.077    0.000    4.308 
#    0.000    0.000    0.000    0.000    0.000    0.000 
#
# Total GULP energy -289569.202147 kJ/mol
# GULP energy per Si atom -5568.638503 kJ/mol
# Density = 1.724443 g / cm^3
# Si number density = 17.283770 Si / 1000 Ang^3
#
#
#
# Elastic Constant Matrix: (Units=GPa)
#
#
# Indices 1 2 3 4 5 6 
#
# 1 133.1981 37.2522 31.5948 0.0000 0.0000 0.0000
# 2 37.2522 64.7330 17.1081 0.0000 0.0000 0.0000
# 3 31.5948 17.1081 64.9993 0.0000 0.0000 0.0000
# 4 0.0000 0.0000 0.0000 13.3759 0.0000 0.0000
# 5 0.0000 0.0000 0.0000 0.0000 21.5421 0.0000
# 6 0.0000 0.0000 0.0000 0.0000 0.0000 14.9659
#
#
#
# Elastic Compliance Matrix: (Units=1/GPa)
#
#
# Indices 1 2 3 4 5 6 
#
# 1 0.009621 -0.004622 -0.003460 0.000000 0.000000 0.000000
# 2 -0.004622 0.018824 -0.002708 0.000000 0.000000 0.000000
# 3 -0.003460 -0.002708 0.017779 0.000000 0.000000 0.000000
# 4 0.000000 0.000000 0.000000 0.074762 0.000000 0.000000
# 5 0.000000 0.000000 0.000000 0.000000 0.046421 0.000000
# 6 0.000000 0.000000 0.000000 0.000000 0.000000 0.066819
#
#
# Mechanical properties :
#
#
# Convention : Reuss Voigt Hill
#
# Bulk Modulus (GPa) = 40.57761 48.31562 44.44662
# Shear Modulus (GPa) = 18.93798 21.77511 20.35654
#
# Velocity S-wave (km/s) = 3.31374 3.55330 3.43561
# Velocity P-wave (km/s) = 6.17814 6.69698 6.44279
#
# Compressibility (1/GPa) = 0.02464413
#
# Stress axis : x y z
#
# Youngs Moduli (GPa) = 103.93862 53.12457 56.24521
#
# Poissons Ratio (x) = 0.24555 0.19461
# Poissons Ratio (y) = 0.48043 0.15230
# Poissons Ratio (z) = 0.35963 0.14385
#
# Static dielectric constant tensor:
#      x y z
#    x 1.589790 0.000000 0.000000 
#    y 0.000000 1.598700 0.000000 
#    z 0.000000 0.000000 1.611560 
# 
# From -- ./inp_files/17031.got.cif
#   From: 2010.05.17/outbox.cif.g08.bks.cpg/sg65_9_cif.got.tgz:17031.got - 2010.06.03 17:01:31.
