data_PCOD9484384
_publ_section_title
;
Structure prediction by ZEFSAII (Michael W. Deem and Ramdas Pophale) SiO2 
 PCOD9484384
Probable space group: C M M M
;
_chemical_formula_sum "Si O2"
_cell_formula_units_Z 120
_cell_length_a 18.284949
_cell_length_b 14.615375
_cell_length_c 20.507165
_cell_angle_alpha 90.000000
_cell_angle_beta 90.000000
_cell_angle_gamma 90.000000
_cell_volume 5480.363208
_symmetry_space_group_name_H-M "C M M M"
_symmetry_group_IT_number 65
_symmetry_cell_setting 'orthorhombic'
loop_
_space_group_symop_operation_xyz
x,y,z
-x,-y,z
x,-y,-z
-x,y,-z
-x,-y,-z
x,y,-z
-x,y,z
x,-y,z
1/2+x,1/2+y,z
1/2-x,1/2-y,z
1/2+x,1/2-y,-z
1/2-x,1/2+y,-z
1/2-x,1/2-y,-z
1/2+x,1/2+y,-z
1/2-x,1/2+y,z
1/2+x,1/2-y,z
loop_
_atom_site_type_symbol
_atom_site_label
_atom_site_fract_x
_atom_site_fract_y
_atom_site_fract_z
Si Si1 0.884145 0.604369 0.749284
Si Si2 0.079199 0.387534 0.393028
Si Si3 0.861544 0.110901 0.665919
Si Si4 0.500000 0.612132 0.577115
Si Si5 0.241669 0.358543 0.930097
Si Si6 0.078375 0.609915 0.890659
Si Si7 0.724945 0.354732 0.212979
Si Si8 0.261671 0.111482 0.569968
O O1 0.911121 0.500000 0.748842
O O2 0.911780 0.644433 0.681854
O O3 0.911542 0.646635 0.816765
O O4 0.796077 0.600491 0.752811
O O5 0.079595 0.500000 0.394416
O O6 0.154317 0.358918 0.426247
O O7 0.000000 0.358728 0.418779
O O8 0.845966 0.137188 0.741210
O O9 0.789468 0.144364 0.627592
O O10 0.929943 0.140200 0.621197
O O11 0.863335 0.000000 0.665805
O O12 0.500000 0.500000 0.575110
O O13 0.500000 0.640238 0.500000
O O14 0.250000 0.250000 0.931328
O O15 0.154423 0.372578 0.925669
O O16 0.277442 0.390536 0.861714
O O17 0.268508 0.394981 0.000000
O O18 0.075022 0.500000 0.887326
O O19 0.000000 0.641961 0.917357
O O20 0.750000 0.250000 0.208896
O O21 0.229475 0.136623 0.500000
O O22 0.262115 0.000000 0.573597
#
# Coordination Sequence:
#
# PCOD9484384 Si02
#       8
#    16  16  16   8  16  16  16  16
#     4   9  15  27  45  68  97 129 163 201 247 299
#     4   9  15  22  36  60  89 123 162 198 231 273
#     4  10  18  32  54  78 103 131 165 213 269 319
#     4   9  18  32  56  88 109 125 164 226 283 322
#     4   9  19  35  52  70 103 144 181 220 259 314
#     4   9  17  28  47  78 111 136 164 212 275 331
#     4  10  19  31  52  74 100 129 172 212 249 309
#     4   9  16  25  40  64  93 124 157 196 243 293
#
# _framework density 21.896359
#
# number of rings (size 3 to 8) (size 9 to 14) (size 15 to 20)
#    0.000    2.733    1.333    1.200    0.000    4.533 
#    0.000    2.000   14.667    1.600    0.000    0.000 
#    0.000    1.600    0.000    0.133    0.000    0.000 
#
# Total GULP energy -334489.203477 kJ/mol
# GULP energy per Si atom -5574.820058 kJ/mol
# Density = 2.184652 g / cm^3
# Si number density = 21.896359 Si / 1000 Ang^3
#
#
#
# Elastic Constant Matrix: (Units=GPa)
#
#
# Indices 1 2 3 4 5 6 
#
# 1 108.9327 10.1929 66.8430 0.0000 0.0000 0.0000
# 2 10.1929 49.6413 6.6063 0.0000 0.0000 0.0000
# 3 66.8430 6.6063 178.1415 0.0000 0.0000 0.0000
# 4 0.0000 0.0000 0.0000 10.0488 0.0000 0.0000
# 5 0.0000 0.0000 0.0000 0.0000 -26.9816 0.0000
# 6 0.0000 0.0000 0.0000 0.0000 0.0000 297.3182
#
#
#
# Elastic Compliance Matrix: (Units=1/GPa)
#
#
# Indices 1 2 3 4 5 6 
#
# 1 0.012100 -0.001890 -0.004470 0.000000 0.000000 0.000000
# 2 -0.001890 0.020540 -0.000053 0.000000 0.000000 0.000000
# 3 -0.004470 -0.000053 0.007293 0.000000 0.000000 0.000000
# 4 0.000000 0.000000 0.000000 0.099514 0.000000 0.000000
# 5 0.000000 0.000000 0.000000 0.000000 -0.037062 0.000000
# 6 0.000000 0.000000 0.000000 0.000000 0.000000 0.003363
#
#
# Mechanical properties :
#
#
# Convention : Reuss Voigt Hill
#
# Bulk Modulus (GPa) = 36.89034 56.00000 46.44517
# Shear Modulus (GPa) = 39.18270 72.94865 56.06567
#
# Velocity S-wave (km/s) = 4.23479 5.77821 5.06563
# Velocity P-wave (km/s) = 6.38714 8.37541 7.44792
#
# Compressibility (1/GPa) = 0.02710737
#
# Stress axis : x y z
#
# Youngs Moduli (GPa) = 82.64685 48.68664 137.12282
#
# Poissons Ratio (x) = 0.09200 0.61294
# Poissons Ratio (y) = 0.15617 0.00723
# Poissons Ratio (z) = 0.36943 0.00257
#
# Static dielectric constant tensor:
#      x y z
#    x 1.753970 0.000000 0.000000 
#    y 0.000000 1.856070 0.000000 
#    z 0.000000 0.000000 1.858990 
# 
# From -- ./inp_files/63990.got.cif
#   From: 2010.05.17/outbox.cif.g08.bks.cpg/sg65_32_cif.got.tgz:63990.got - 2010.06.03 17:01:31.
