data_PCOD9484363
_publ_section_title
;
Structure prediction by ZEFSAII (Michael W. Deem and Ramdas Pophale) SiO2 
 PCOD9484363
Probable space group: C M M M
;
_chemical_formula_sum "Si O2"
_cell_formula_units_Z 64
_cell_length_a 8.678521
_cell_length_b 16.072032
_cell_length_c 22.772625
_cell_angle_alpha 90.000000
_cell_angle_beta 90.000000
_cell_angle_gamma 90.000000
_cell_volume 3176.359148
_symmetry_space_group_name_H-M "C M M M"
_symmetry_group_IT_number 65
_symmetry_cell_setting 'orthorhombic'
loop_
_space_group_symop_operation_xyz
x,y,z
-x,-y,z
x,-y,-z
-x,y,-z
-x,-y,-z
x,y,-z
-x,y,z
x,-y,z
1/2+x,1/2+y,z
1/2-x,1/2-y,z
1/2+x,1/2-y,-z
1/2-x,1/2+y,-z
1/2-x,1/2-y,-z
1/2+x,1/2+y,-z
1/2-x,1/2+y,z
1/2+x,1/2-y,z
loop_
_atom_site_type_symbol
_atom_site_label
_atom_site_fract_x
_atom_site_fract_y
_atom_site_fract_z
Si Si1 0.683572 0.156322 0.620650
Si Si2 0.187860 0.500000 0.067490
Si Si3 0.684633 0.837419 0.140125
Si Si4 0.179114 0.902626 0.741088
Si Si5 0.684134 0.655236 0.500000
O O1 0.500000 0.159345 0.615761
O O2 0.750000 0.250000 0.625576
O O3 0.736114 0.110865 0.679522
O O4 0.753704 0.118101 0.560870
O O5 0.236275 0.416553 0.101504
O O6 0.000000 0.500000 0.067853
O O7 0.238613 0.500000 0.000000
O O8 0.500000 0.834835 0.140206
O O9 0.750000 0.750000 0.117898
O O10 0.743950 0.852157 0.206250
O O11 0.000000 0.878366 0.734748
O O12 0.186731 0.000000 0.756609
O O13 0.500000 0.657169 0.500000
O O14 0.750000 0.750000 0.500000
#
# Coordination Sequence:
#
# PCOD9484363 Si02
#       5
#    16   8  16  16   8
#     4  11  21  35  56  82 113 149 196 246 302 366
#     4   9  20  40  65  93 129 170 209 252 303 363
#     4  11  22  39  64  93 126 165 210 255 308 366
#     4  11  23  39  59  84 117 154 198 253 311 365
#     4  10  18  32  53  78 111 148 193 245 303 362
#
# _framework density 20.148852999999999
#
# number of rings (size 3 to 8) (size 9 to 14) (size 15 to 20)
#    0.000    1.375    1.250    7.125    0.000    2.000 
#    0.000    0.625    0.000    9.000    0.000    0.000 
#    0.000    0.000    0.000    0.000    0.000    0.000 
#
# Total GULP energy -178901.870203 kJ/mol
# GULP energy per Si atom -5590.683444 kJ/mol
# Density = 2.010299 g / cm^3
# Si number density = 20.148853 Si / 1000 Ang^3
#
#
#
# Elastic Constant Matrix: (Units=GPa)
#
#
# Indices 1 2 3 4 5 6 
#
# 1 142.6597 40.8347 44.3037 0.0000 0.0000 0.0000
# 2 40.8347 105.4999 57.7578 0.0000 0.0000 0.0000
# 3 44.3037 57.7578 144.1469 0.0000 0.0000 0.0000
# 4 0.0000 0.0000 0.0000 -25.4986 0.0000 0.0000
# 5 0.0000 0.0000 0.0000 0.0000 14.7082 0.0000
# 6 0.0000 0.0000 0.0000 0.0000 0.0000 24.3181
#
#
#
# Elastic Compliance Matrix: (Units=1/GPa)
#
#
# Indices 1 2 3 4 5 6 
#
# 1 0.008158 -0.002287 -0.001591 0.000000 0.000000 0.000000
# 2 -0.002287 0.012783 -0.004419 0.000000 0.000000 0.000000
# 3 -0.001591 -0.004419 0.009197 0.000000 0.000000 0.000000
# 4 0.000000 0.000000 0.000000 -0.039218 0.000000 0.000000
# 5 0.000000 0.000000 0.000000 0.000000 0.067989 0.000000
# 6 0.000000 0.000000 0.000000 0.000000 0.000000 0.041122
#
#
# Mechanical properties :
#
#
# Convention : Reuss Voigt Hill
#
# Bulk Modulus (GPa) = 73.83101 75.34432 74.58767
# Shear Modulus (GPa) = 41.27432 19.33290 30.30361
#
# Velocity S-wave (km/s) = 4.53091 3.10095 3.88233
# Velocity P-wave (km/s) = 8.00591 7.09198 7.56276
#
# Compressibility (1/GPa) = 0.01354444
#
# Stress axis : x y z
#
# Youngs Moduli (GPa) = 122.57335 78.22816 108.72895
#
# Poissons Ratio (x) = 0.17888 0.17302
# Poissons Ratio (y) = 0.28028 0.48050
# Poissons Ratio (z) = 0.19505 0.34571
#
# Static dielectric constant tensor:
#      x y z
#    x 1.680220 0.000000 0.000000 
#    y 0.000000 1.731460 0.000000 
#    z 0.000000 0.000000 1.711340 
# 
# From -- ./inp_files/66747.got.cif
#   From: 2010.05.17/outbox.cif.g08.bks.cpg/sg65_34_cif.got.tgz:66747.got - 2010.06.03 17:01:31.
