data_PCOD9484122
_publ_section_title
;
Structure prediction by ZEFSAII (Michael W. Deem and Ramdas Pophale) SiO2 
 PCOD9484122
Probable space group: C M M M
;
_chemical_formula_sum "Si O2"
_cell_formula_units_Z 104
_cell_length_a 29.701538
_cell_length_b 7.593632
_cell_length_c 23.731046
_cell_angle_alpha 90.000000
_cell_angle_beta 90.000000
_cell_angle_gamma 90.000000
_cell_volume 5352.360615
_symmetry_space_group_name_H-M "C M M M"
_symmetry_group_IT_number 65
_symmetry_cell_setting 'orthorhombic'
loop_
_space_group_symop_operation_xyz
x,y,z
-x,-y,z
x,-y,-z
-x,y,-z
-x,-y,-z
x,y,-z
-x,y,z
x,-y,z
1/2+x,1/2+y,z
1/2-x,1/2-y,z
1/2+x,1/2-y,-z
1/2-x,1/2+y,-z
1/2-x,1/2-y,-z
1/2+x,1/2+y,-z
1/2-x,1/2+y,z
1/2+x,1/2-y,z
loop_
_atom_site_type_symbol
_atom_site_label
_atom_site_fract_x
_atom_site_fract_y
_atom_site_fract_z
Si Si1 0.105377 0.710426 0.109590
Si Si2 0.948390 0.284746 0.563903
Si Si3 0.799919 0.711404 0.278933
Si Si4 0.051924 0.283816 0.000000
Si Si5 0.889990 0.293180 0.666905
Si Si6 0.448398 0.289358 0.775956
Si Si7 0.299934 0.211310 0.850345
O O1 0.108398 0.500000 0.102288
O O2 0.078523 0.742255 0.167453
O O3 0.156453 0.778148 0.116427
O O4 0.077838 0.777177 0.055951
O O5 0.936806 0.232153 0.500000
O O6 0.948296 0.500000 0.565005
O O7 0.915039 0.219121 0.612213
O O8 0.000000 0.231114 0.575558
O O9 0.804692 0.500000 0.275767
O O10 0.750000 0.750000 0.300837
O O11 0.841509 0.781412 0.315205
O O12 0.802400 0.778419 0.214338
O O13 0.051656 0.500000 0.000000
O O14 0.000000 0.228196 0.000000
O O15 0.883057 0.500000 0.655146
O O16 0.922250 0.279016 0.721232
O O17 0.500000 0.225013 0.778295
O O18 0.449316 0.500000 0.771738
O O19 0.250000 0.250000 0.872721
O O20 0.303673 0.000000 0.847823
#
# Coordination Sequence:
#
# PCOD9484122 Si02
#       7
#    16  16  16   8  16  16  16
#     4  10  19  35  55  75  98 127 166 206 242 288
#     4   8  14  25  44  72 101 127 159 201 246 287
#     4   9  17  29  45  69  96 125 161 197 243 296
#     4   9  18  32  54  79  97 123 165 207 244 285
#     4  10  18  31  51  74  98 127 166 206 244 290
#     4  11  23  34  46  71 104 132 160 199 248 296
#     4   9  17  30  48  71  98 126 158 198 243 293
#
# _framework density 19.430679999999999
#
# number of rings (size 3 to 8) (size 9 to 14) (size 15 to 20)
#    0.000    2.538    1.538    1.846    0.000    3.692 
#    0.000    0.769    0.000    2.308    0.000    2.154 
#    0.000    0.000    0.000    0.000    0.000    0.000 
#
# Total GULP energy -290154.215563 kJ/mol
# GULP energy per Si atom -5579.888761 kJ/mol
# Density = 1.938645 g / cm^3
# Si number density = 19.430680 Si / 1000 Ang^3
#
#
#
# Elastic Constant Matrix: (Units=GPa)
#
#
# Indices 1 2 3 4 5 6 
#
# 1 209.1519 1.8894 94.7243 0.0000 0.0000 0.0000
# 2 1.8894 40.7354 -2.3888 0.0000 0.0000 0.0000
# 3 94.7243 -2.3888 117.5459 0.0000 0.0000 0.0000
# 4 0.0000 0.0000 0.0000 2.8446 0.0000 0.0000
# 5 0.0000 0.0000 0.0000 0.0000 122.3046 0.0000
# 6 0.0000 0.0000 0.0000 0.0000 0.0000 14.8992
#
#
#
# Elastic Compliance Matrix: (Units=1/GPa)
#
#
# Indices 1 2 3 4 5 6 
#
# 1 0.007549 -0.000708 -0.006098 0.000000 0.000000 0.000000
# 2 -0.000708 0.024644 0.001071 0.000000 0.000000 0.000000
# 3 -0.006098 0.001071 0.013443 0.000000 0.000000 0.000000
# 4 0.000000 0.000000 0.000000 0.351545 0.000000 0.000000
# 5 0.000000 0.000000 0.000000 0.000000 0.008176 0.000000
# 6 0.000000 0.000000 0.000000 0.000000 0.000000 0.067118
#
#
# Mechanical properties :
#
#
# Convention : Reuss Voigt Hill
#
# Bulk Modulus (GPa) = 29.26745 61.76478 45.51611
# Shear Modulus (GPa) = 10.09418 46.22356 28.15887
#
# Velocity S-wave (km/s) = 2.28172 4.88268 3.81096
# Velocity P-wave (km/s) = 4.69434 7.97770 6.54525
#
# Compressibility (1/GPa) = 0.03416765
#
# Stress axis : x y z
#
# Youngs Moduli (GPa) = 132.46083 40.57726 74.38703
#
# Poissons Ratio (x) = 0.02872 0.45362
# Poissons Ratio (y) = 0.09375 -0.07968
# Poissons Ratio (z) = 0.80775 -0.04347
#
# Static dielectric constant tensor:
#      x y z
#    x 1.692160 0.000000 0.000000 
#    y 0.000000 1.730070 0.000000 
#    z 0.000000 0.000000 1.658620 
# 
# From -- ./inp_files/68195.got.cif
#   From: 2010.05.17/outbox.cif.g08.bks.cpg/sg65_35_cif.got.tgz:68195.got - 2010.06.03 17:01:31.
