data_PCOD9484640
_publ_section_title
;
Structure prediction by ZEFSAII (Michael W. Deem and Ramdas Pophale) SiO2 
 PCOD9484640
Probable space group: C M M M
;
_chemical_formula_sum "Si O2"
_cell_formula_units_Z 72
_cell_length_a 32.420352
_cell_length_b 18.630547
_cell_length_c 9.043219
_cell_angle_alpha 90.000000
_cell_angle_beta 90.000000
_cell_angle_gamma 90.000000
_cell_volume 5462.184686
_symmetry_space_group_name_H-M "C M M M"
_symmetry_group_IT_number 65
_symmetry_cell_setting 'orthorhombic'
loop_
_space_group_symop_operation_xyz
x,y,z
-x,-y,z
x,-y,-z
-x,y,-z
-x,-y,-z
x,y,-z
-x,y,z
x,-y,z
1/2+x,1/2+y,z
1/2-x,1/2-y,z
1/2+x,1/2-y,-z
1/2-x,1/2+y,-z
1/2-x,1/2-y,-z
1/2+x,1/2+y,-z
1/2-x,1/2+y,z
1/2+x,1/2-y,z
loop_
_atom_site_type_symbol
_atom_site_label
_atom_site_fract_x
_atom_site_fract_y
_atom_site_fract_z
Si Si1 0.244799 0.416331 0.824459
Si Si2 0.334942 0.844091 0.678197
Si Si3 0.000000 0.412872 0.670450
Si Si4 0.792108 0.797289 0.330295
Si Si5 0.414505 0.913958 0.824301
O O1 0.251967 0.500000 0.792871
O O2 0.203291 0.389751 0.742895
O O3 0.281850 0.365608 0.768870
O O4 0.239063 0.407405 0.000000
O O5 0.334558 0.849300 0.500000
O O6 0.326337 0.760485 0.717225
O O7 0.376927 0.874027 0.745398
O O8 0.041716 0.391580 0.754511
O O9 0.000000 0.500000 0.669866
O O10 0.000000 0.388920 0.500000
O O11 0.799581 0.819286 0.500000
O O12 0.750000 0.750000 0.329758
O O13 0.409744 0.000000 0.801133
O O14 0.414072 0.901370 0.000000
#
# Coordination Sequence:
#
# PCOD9484640 Si02
#       5
#    16  16   8  16  16
#     4  10  19  28  39  57  78 100 129 163 197 233
#     4  10  19  29  41  57  76 100 132 165 195 230
#     4   9  17  29  43  57  75 101 130 159 194 231
#     4   8  16  29  41  54  73  98 128 160 194 231
#     4  10  19  29  41  58  79 102 130 163 196 230
#
# _framework density 13.181538
#
# number of rings (size 3 to 8) (size 9 to 14) (size 15 to 20)
#    0.000    2.556    0.000    4.333    0.000   12.000 
#    0.000    0.000    0.000    0.000    0.000    0.000 
#    0.000    0.000    0.000    1.000    0.000   18.667 
#
# Total GULP energy -200584.370107 kJ/mol
# GULP energy per Si atom -5571.788059 kJ/mol
# Density = 1.315154 g / cm^3
# Si number density = 13.181538 Si / 1000 Ang^3
#
#
#
# Elastic Constant Matrix: (Units=GPa)
#
#
# Indices 1 2 3 4 5 6 
#
# 1 89.2443 52.8414 53.6425 0.0000 0.0000 0.0000
# 2 52.8414 81.8784 59.1977 0.0000 0.0000 0.0000
# 3 53.6425 59.1977 79.4001 0.0000 0.0000 0.0000
# 4 0.0000 0.0000 0.0000 18.5037 0.0000 0.0000
# 5 0.0000 0.0000 0.0000 0.0000 23.0474 0.0000
# 6 0.0000 0.0000 0.0000 0.0000 0.0000 20.2210
#
#
#
# Elastic Compliance Matrix: (Units=1/GPa)
#
#
# Indices 1 2 3 4 5 6 
#
# 1 0.020563 -0.007000 -0.008674 0.000000 0.000000 0.000000
# 2 -0.007000 0.028878 -0.016801 0.000000 0.000000 0.000000
# 3 -0.008674 -0.016801 0.030981 0.000000 0.000000 0.000000
# 4 0.000000 0.000000 0.000000 0.054043 0.000000 0.000000
# 5 0.000000 0.000000 0.000000 0.000000 0.043389 0.000000
# 6 0.000000 0.000000 0.000000 0.000000 0.000000 0.049454
#
#
# Mechanical properties :
#
#
# Convention : Reuss Voigt Hill
#
# Bulk Modulus (GPa) = 64.63097 64.65400 64.64248
# Shear Modulus (GPa) = 16.81157 18.01050 17.41104
#
# Velocity S-wave (km/s) = 3.57513 3.70042 3.63831
# Velocity P-wave (km/s) = 8.13511 8.21053 8.17291
#
# Compressibility (1/GPa) = 0.01547246
#
# Stress axis : x y z
#
# Youngs Moduli (GPa) = 48.63027 34.62878 32.27809
#
# Poissons Ratio (x) = 0.24239 0.27998
# Poissons Ratio (y) = 0.34040 0.54231
# Poissons Ratio (z) = 0.42181 0.58180
#
# Static dielectric constant tensor:
#      x y z
#    x 1.416450 0.000000 0.000000 
#    y 0.000000 1.426830 0.000000 
#    z 0.000000 0.000000 1.440840 
# 
# From -- ./inp_files/9442.got.cif
#   From: 2010.05.17/outbox.cif.g08.bks.cpg/sg65_5_cif.got.tgz:9442.got - 2010.06.03 17:01:31.
