data_PCOD9484399
_publ_section_title
;
Structure prediction by ZEFSAII (Michael W. Deem and Ramdas Pophale) SiO2 
 PCOD9484399
Probable space group: C M M M
;
_chemical_formula_sum "Si O2"
_cell_formula_units_Z 104
_cell_length_a 34.345065
_cell_length_b 8.795788
_cell_length_c 18.575406
_cell_angle_alpha 90.000000
_cell_angle_beta 90.000000
_cell_angle_gamma 90.000000
_cell_volume 5611.479888
_symmetry_space_group_name_H-M "C M M M"
_symmetry_group_IT_number 65
_symmetry_cell_setting 'orthorhombic'
loop_
_space_group_symop_operation_xyz
x,y,z
-x,-y,z
x,-y,-z
-x,y,-z
-x,-y,-z
x,y,-z
-x,y,z
x,-y,z
1/2+x,1/2+y,z
1/2-x,1/2-y,z
1/2+x,1/2-y,-z
1/2-x,1/2+y,-z
1/2-x,1/2-y,-z
1/2+x,1/2+y,-z
1/2-x,1/2+y,z
1/2+x,1/2-y,z
loop_
_atom_site_type_symbol
_atom_site_label
_atom_site_fract_x
_atom_site_fract_y
_atom_site_fract_z
Si Si1 0.157573 0.675900 0.727172
Si Si2 0.875876 0.316527 0.419946
Si Si3 0.206749 0.819198 0.147676
Si Si4 0.542965 0.319520 0.630343
Si Si5 0.794096 0.682486 0.000000
Si Si6 0.567568 0.827578 0.226715
Si Si7 0.953008 0.176478 0.920373
O O1 0.171508 0.500000 0.727424
O O2 0.152391 0.732985 0.645068
O O3 0.183052 0.773870 0.781384
O O4 0.113305 0.675830 0.755786
O O5 0.863344 0.271676 0.500000
O O6 0.877257 0.500000 0.415532
O O7 0.919705 0.257798 0.406065
O O8 0.250000 0.750000 0.154907
O O9 0.188663 0.745008 0.074919
O O10 0.208896 0.000000 0.138446
O O11 0.500000 0.269008 0.605114
O O12 0.545672 0.500000 0.620075
O O13 0.546849 0.279500 0.715017
O O14 0.750000 0.750000 0.000000
O O15 0.793174 0.500000 0.000000
O O16 0.561347 0.774319 0.145828
O O17 0.553527 0.000000 0.237278
O O18 0.000000 0.180069 0.919592
O O19 0.941282 0.000000 0.911150
O O20 0.940172 0.227491 0.000000
#
# Coordination Sequence:
#
# PCOD9484399 Si02
#       7
#    16  16  16  16   8  16  16
#     4   9  19  36  54  76 106 138 172 212 261 315
#     4   9  19  36  57  79 105 139 176 217 267 319
#     4  11  21  35  57  84 112 143 179 215 256 307
#     4  10  20  32  48  72 102 136 173 216 265 315
#     4  10  18  32  54  80 112 144 173 208 251 298
#     4  10  20  33  50  71  97 130 170 216 265 313
#     4   9  18  32  48  66  92 129 171 216 265 312
#
# _framework density 18.533434
#
# number of rings (size 3 to 8) (size 9 to 14) (size 15 to 20)
#    0.000    2.308    0.000    5.769    0.000    7.385 
#    1.385    2.308    0.000    0.462    0.000    0.000 
#    0.000    0.000    0.000    0.000    0.000    0.000 
#
# Total GULP energy -290071.711776 kJ/mol
# GULP energy per Si atom -5578.302150 kJ/mol
# Density = 1.849125 g / cm^3
# Si number density = 18.533434 Si / 1000 Ang^3
#
#
#
# Elastic Constant Matrix: (Units=GPa)
#
#
# Indices 1 2 3 4 5 6 
#
# 1 31.7570 20.5832 32.2624 0.0000 0.0000 0.0000
# 2 20.5832 73.2304 39.1409 0.0000 0.0000 0.0000
# 3 32.2624 39.1409 149.6722 0.0000 0.0000 0.0000
# 4 0.0000 0.0000 0.0000 25.3362 0.0000 0.0000
# 5 0.0000 0.0000 0.0000 0.0000 13.1456 0.0000
# 6 0.0000 0.0000 0.0000 0.0000 0.0000 23.6307
#
#
#
# Elastic Compliance Matrix: (Units=1/GPa)
#
#
# Indices 1 2 3 4 5 6 
#
# 1 0.044522 -0.008584 -0.007352 0.000000 0.000000 0.000000
# 2 -0.008584 0.017530 -0.002734 0.000000 0.000000 0.000000
# 3 -0.007352 -0.002734 0.008981 0.000000 0.000000 0.000000
# 4 0.000000 0.000000 0.000000 0.039469 0.000000 0.000000
# 5 0.000000 0.000000 0.000000 0.000000 0.076071 0.000000
# 6 0.000000 0.000000 0.000000 0.000000 0.000000 0.042318
#
#
# Mechanical properties :
#
#
# Convention : Reuss Voigt Hill
#
# Bulk Modulus (GPa) = 29.68048 48.73697 39.20872
# Shear Modulus (GPa) = 18.02051 23.26738 20.64394
#
# Velocity S-wave (km/s) = 3.12159 3.54704 3.34110
# Velocity P-wave (km/s) = 5.38904 6.56729 6.00712
#
# Compressibility (1/GPa) = 0.03369217
#
# Stress axis : x y z
#
# Youngs Moduli (GPa) = 22.46077 57.04646 111.34725
#
# Poissons Ratio (x) = 0.48971 0.81862
# Poissons Ratio (y) = 0.19281 0.30440
# Poissons Ratio (z) = 0.16513 0.15595
#
# Static dielectric constant tensor:
#      x y z
#    x 1.627520 0.000000 0.000000 
#    y 0.000000 1.632160 0.000000 
#    z 0.000000 0.000000 1.683320 
# 
# From -- ./inp_files/66386.got.cif
#   From: 2010.05.17/outbox.cif.g08.bks.cpg/sg65_34_cif.got.tgz:66386.got - 2010.06.03 17:01:31.
