data_PCOD9484820
_publ_section_title
;
Structure prediction by ZEFSAII (Michael W. Deem and Ramdas Pophale) SiO2 
 PCOD9484820
Probable space group: C M M M
;
_chemical_formula_sum "Si O2"
_cell_formula_units_Z 104
_cell_length_a 24.124070
_cell_length_b 8.689558
_cell_length_c 28.708885
_cell_angle_alpha 90.000000
_cell_angle_beta 90.000000
_cell_angle_gamma 90.000000
_cell_volume 6018.171947
_symmetry_space_group_name_H-M "C M M M"
_symmetry_group_IT_number 65
_symmetry_cell_setting 'orthorhombic'
loop_
_space_group_symop_operation_xyz
x,y,z
-x,-y,z
x,-y,-z
-x,y,-z
-x,-y,-z
x,y,-z
-x,y,z
x,-y,z
1/2+x,1/2+y,z
1/2-x,1/2-y,z
1/2+x,1/2-y,-z
1/2-x,1/2+y,-z
1/2-x,1/2-y,-z
1/2+x,1/2+y,-z
1/2-x,1/2+y,z
1/2+x,1/2-y,z
loop_
_atom_site_type_symbol
_atom_site_label
_atom_site_fract_x
_atom_site_fract_y
_atom_site_fract_z
Si Si1 0.311971 0.816155 0.947203
Si Si2 0.188141 0.314658 0.224781
Si Si3 0.500000 0.815055 0.848790
Si Si4 0.500000 0.186326 0.259319
Si Si5 0.067109 0.676025 0.500000
Si Si6 0.118762 0.183213 0.137703
Si Si7 0.564725 0.316153 0.599095
Si Si8 0.112171 0.685861 0.309739
O O1 0.250000 0.750000 0.944666
O O2 0.347082 0.735677 0.907340
O O3 0.311028 0.000000 0.939727
O O4 0.332611 0.787382 0.000000
O O5 0.189008 0.500000 0.222134
O O6 0.250000 0.250000 0.218974
O O7 0.148180 0.254126 0.183657
O O8 0.162143 0.270256 0.275140
O O9 0.500000 0.770946 0.794298
O O10 0.443213 0.747368 0.868123
O O11 0.500000 0.000000 0.852726
O O12 0.555721 0.238869 0.284151
O O13 0.500000 0.000000 0.261258
O O14 0.086512 0.500000 0.500000
O O15 0.082386 0.759372 0.547951
O O16 0.000000 0.674922 0.500000
O O17 0.118397 0.000000 0.142224
O O18 0.500000 0.263535 0.607187
O O19 0.564309 0.500000 0.600393
O O20 0.605428 0.252145 0.638701
O O21 0.111978 0.500000 0.312566
#
# Coordination Sequence:
#
# PCOD9484820 Si02
#       8
#    16  16   8   8   8  16  16  16
#     4  10  21  39  63  88 113 145 186 232 280 328
#     4  11  23  39  57  79 109 146 186 230 275 322
#     4  11  21  39  60  82 112 150 189 226 269 323
#     4   9  16  31  53  75 101 137 179 221 260 313
#     4   9  17  29  45  65  94 137 180 215 255 314
#     4  12  24  38  58  86 117 148 183 225 274 329
#     4  10  19  29  44  71 105 137 170 217 269 314
#     4  10  19  33  53  75 102 140 181 217 264 322
#
# _framework density 17.280995000000001
#
# number of rings (size 3 to 8) (size 9 to 14) (size 15 to 20)
#    0.000    1.615    2.308    3.692    0.000    3.692 
#    0.000    0.385    0.000    2.308    0.000    0.538 
#    0.000    0.000    0.000    0.000    0.000    0.000 
#
# Total GULP energy -290258.614950 kJ/mol
# GULP energy per Si atom -5581.896441 kJ/mol
# Density = 1.724166 g / cm^3
# Si number density = 17.280995 Si / 1000 Ang^3
#
#
#
# Elastic Constant Matrix: (Units=GPa)
#
#
# Indices 1 2 3 4 5 6 
#
# 1 92.0492 34.8907 51.3892 0.0000 0.0000 0.0000
# 2 34.8907 78.1921 48.0834 0.0000 0.0000 0.0000
# 3 51.3892 48.0834 124.1572 0.0000 0.0000 0.0000
# 4 0.0000 0.0000 0.0000 21.4350 0.0000 0.0000
# 5 0.0000 0.0000 0.0000 0.0000 17.7284 0.0000
# 6 0.0000 0.0000 0.0000 0.0000 0.0000 22.9550
#
#
#
# Elastic Compliance Matrix: (Units=1/GPa)
#
#
# Indices 1 2 3 4 5 6 
#
# 1 0.014924 -0.003755 -0.004723 0.000000 0.000000 0.000000
# 2 -0.003755 0.017732 -0.005313 0.000000 0.000000 0.000000
# 3 -0.004723 -0.005313 0.012067 0.000000 0.000000 0.000000
# 4 0.000000 0.000000 0.000000 0.046653 0.000000 0.000000
# 5 0.000000 0.000000 0.000000 0.000000 0.056407 0.000000
# 6 0.000000 0.000000 0.000000 0.000000 0.000000 0.043564
#
#
# Mechanical properties :
#
#
# Convention : Reuss Voigt Hill
#
# Bulk Modulus (GPa) = 58.34060 62.56945 60.45502
# Shear Modulus (GPa) = 22.25787 23.09269 22.67528
#
# Velocity S-wave (km/s) = 3.59276 3.65952 3.62629
# Velocity P-wave (km/s) = 7.14450 7.35811 7.25209
#
# Compressibility (1/GPa) = 0.01714072
#
# Stress axis : x y z
#
# Youngs Moduli (GPa) = 67.00763 56.39632 82.87326
#
# Poissons Ratio (x) = 0.21177 0.39139
# Poissons Ratio (y) = 0.25161 0.44029
# Poissons Ratio (z) = 0.31646 0.29963
#
# Static dielectric constant tensor:
#      x y z
#    x 1.615890 0.000000 0.000000 
#    y 0.000000 1.581400 0.000000 
#    z 0.000000 0.000000 1.588540 
# 
# From -- ./inp_files/75828.got.cif
#   From: 2010.05.17/outbox.cif.g08.bks.cpg/sg65_38_cif.got.tgz:75828.got - 2010.06.03 17:01:31.
