data_PCOD9484665
_publ_section_title
;
Structure prediction by ZEFSAII (Michael W. Deem and Ramdas Pophale) SiO2 
 PCOD9484665
Probable space group: C M M M
;
_chemical_formula_sum "Si O2"
_cell_formula_units_Z 88
_cell_length_a 7.641864
_cell_length_b 29.592174
_cell_length_c 22.071396
_cell_angle_alpha 90.000000
_cell_angle_beta 90.000000
_cell_angle_gamma 90.000000
_cell_volume 4991.211568
_symmetry_space_group_name_H-M "C M M M"
_symmetry_group_IT_number 65
_symmetry_cell_setting 'orthorhombic'
loop_
_space_group_symop_operation_xyz
x,y,z
-x,-y,z
x,-y,-z
-x,y,-z
-x,-y,-z
x,y,-z
-x,y,z
x,-y,z
1/2+x,1/2+y,z
1/2-x,1/2-y,z
1/2+x,1/2-y,-z
1/2-x,1/2+y,-z
1/2-x,1/2-y,-z
1/2+x,1/2+y,-z
1/2-x,1/2+y,z
1/2+x,1/2-y,z
loop_
_atom_site_type_symbol
_atom_site_label
_atom_site_fract_x
_atom_site_fract_y
_atom_site_fract_z
Si Si1 0.789576 0.803612 0.934881
Si Si2 0.292554 0.302989 0.196689
Si Si3 0.789516 0.696821 0.566824
Si Si4 0.198327 0.445062 0.500000
Si Si5 0.791168 0.642307 0.683221
Si Si6 0.714820 0.051264 0.366833
O O1 0.750000 0.750000 0.935016
O O2 0.721193 0.818984 0.869103
O O3 0.000000 0.809380 0.935337
O O4 0.723126 0.821594 0.000000
O O5 0.500000 0.305690 0.192503
O O6 0.250000 0.250000 0.205784
O O7 0.240324 0.332308 0.254194
O O8 0.725130 0.682006 0.500000
O O9 0.750000 0.750000 0.573237
O O10 0.721362 0.670039 0.625154
O O11 0.000000 0.692005 0.566054
O O12 0.187900 0.500000 0.500000
O O13 0.275126 0.434234 0.565462
O O14 0.000000 0.426357 0.500000
O O15 0.729827 0.590481 0.678753
O O16 0.000000 0.640667 0.675747
O O17 0.500000 0.049718 0.369353
O O18 0.772170 0.000000 0.354149
#
# Coordination Sequence:
#
# PCOD9484665 Si02
#       6
#    16  16  16   8  16  16
#     4   8  14  25  41  60  81 107 137 166 197 234
#     4  10  19  30  44  62  87 115 142 171 202 241
#     4   9  18  30  41  54  74 102 137 174 207 238
#     4   7  10  18  34  56  78  97 122 163 212 253
#     4  10  19  28  42  62  84 110 139 173 211 252
#     4   8  14  24  39  60  83 105 132 170 215 259
#
# _framework density 17.630989
#
# number of rings (size 3 to 8) (size 9 to 14) (size 15 to 20)
#    0.000    3.182    0.000    2.182    1.273    2.909 
#    0.000    0.000    0.000    0.545    0.000    0.000 
#    0.000    2.909    0.000    9.091    0.000    0.000 
#
# Total GULP energy -244972.981047 kJ/mol
# GULP energy per Si atom -5567.567751 kJ/mol
# Density = 1.759086 g / cm^3
# Si number density = 17.630989 Si / 1000 Ang^3
#
#
#
# Elastic Constant Matrix: (Units=GPa)
#
#
# Indices 1 2 3 4 5 6 
#
# 1 33.1366 3.3273 5.2398 0.0000 0.0000 0.0000
# 2 3.3273 83.3133 85.3229 0.0000 0.0000 0.0000
# 3 5.2398 85.3229 177.0268 0.0000 0.0000 0.0000
# 4 0.0000 0.0000 0.0000 11.3646 0.0000 0.0000
# 5 0.0000 0.0000 0.0000 0.0000 25.2932 0.0000
# 6 0.0000 0.0000 0.0000 0.0000 0.0000 3.6611
#
#
#
# Elastic Compliance Matrix: (Units=1/GPa)
#
#
# Indices 1 2 3 4 5 6 
#
# 1 0.030334 -0.000576 -0.000620 0.000000 0.000000 0.000000
# 2 -0.000576 0.023713 -0.011412 0.000000 0.000000 0.000000
# 3 -0.000620 -0.011412 0.011168 0.000000 0.000000 0.000000
# 4 0.000000 0.000000 0.000000 0.087993 0.000000 0.000000
# 5 0.000000 0.000000 0.000000 0.000000 0.039536 0.000000
# 6 0.000000 0.000000 0.000000 0.000000 0.000000 0.273142
#
#
# Mechanical properties :
#
#
# Convention : Reuss Voigt Hill
#
# Bulk Modulus (GPa) = 25.00146 53.47294 39.23720
# Shear Modulus (GPa) = 9.91205 21.36955 15.64080
#
# Velocity S-wave (km/s) = 2.37364 3.48522 2.98169
# Velocity P-wave (km/s) = 4.66084 6.82572 5.84439
#
# Compressibility (1/GPa) = 0.03999766
#
# Stress axis : x y z
#
# Youngs Moduli (GPa) = 32.96624 42.17010 89.54417
#
# Poissons Ratio (x) = 0.02431 0.05552
# Poissons Ratio (y) = 0.01900 1.02190
# Poissons Ratio (z) = 0.02044 0.48126
#
# Static dielectric constant tensor:
#      x y z
#    x 1.735190 0.000000 0.000000 
#    y 0.000000 1.584990 0.000000 
#    z 0.000000 0.000000 1.673240 
# 
# From -- ./inp_files/60642.got.cif
#   From: 2010.05.17/outbox.cif.g08.bks.cpg/sg65_31_cif.got.tgz:60642.got - 2010.06.03 17:01:31.
