data_PCOD9484482
_publ_section_title
;
Structure prediction by ZEFSAII (Michael W. Deem and Ramdas Pophale) SiO2 
 PCOD9484482
Probable space group: C M M M
;
_chemical_formula_sum "Si O2"
_cell_formula_units_Z 58
_cell_length_a 29.993770
_cell_length_b 14.899688
_cell_length_c 7.600922
_cell_angle_alpha 90.000000
_cell_angle_beta 90.000000
_cell_angle_gamma 90.000000
_cell_volume 3396.835433
_symmetry_space_group_name_H-M "C M M M"
_symmetry_group_IT_number 65
_symmetry_cell_setting 'orthorhombic'
loop_
_space_group_symop_operation_xyz
x,y,z
-x,-y,z
x,-y,-z
-x,y,-z
-x,-y,-z
x,y,-z
-x,y,z
x,-y,z
1/2+x,1/2+y,z
1/2-x,1/2-y,z
1/2+x,1/2-y,-z
1/2-x,1/2+y,-z
1/2-x,1/2-y,-z
1/2+x,1/2+y,-z
1/2-x,1/2+y,z
1/2+x,1/2-y,z
loop_
_atom_site_type_symbol
_atom_site_label
_atom_site_fract_x
_atom_site_fract_y
_atom_site_fract_z
Si Si1 0.379423 0.193710 0.796309
Si Si2 0.500000 0.000000 0.500000
Si Si3 0.235868 0.000000 0.787467
Si Si4 0.206744 0.193899 0.785362
Si Si5 0.341200 0.000000 0.707701
Si Si6 0.950926 0.686088 0.500000
O O1 0.338450 0.256151 0.734018
O O2 0.362291 0.090892 0.783941
O O3 0.421572 0.206317 0.670932
O O4 0.389447 0.213628 0.000000
O O5 0.462019 0.079833 0.500000
O O6 0.212780 0.908380 0.726193
O O7 0.288081 0.000000 0.740146
O O8 0.234050 0.000000 0.000000
O O9 0.250000 0.250000 0.727670
O O10 0.207152 0.194675 0.000000
O O11 0.348926 0.000000 0.500000
O O12 0.000000 0.730178 0.500000
#
# Coordination Sequence:
#
# PCOD9484482 Si02
#       6
#    16   2   8  16   8   8
#     4  11  21  36  57  78 106 150 188 214 264 325
#     4   8  20  40  58  72 112 132 164 224 282 328
#     4  10  18  33  51  75 114 151 184 227 261 296
#     4   9  17  30  51  79 109 145 185 219 257 312
#     4  12  21  31  47  78 115 149 187 222 256 314
#     4  10  22  40  55  76 109 134 173 231 279 316
#
# _framework density 17.074715999999999
#
# number of rings (size 3 to 8) (size 9 to 14) (size 15 to 20)
#    0.414    1.379    4.138    2.069    0.000    0.552 
#    2.483    2.759    0.000    0.000    0.000    1.931 
#    0.000    5.517    0.000    0.000    0.000    0.000 
#
# Total GULP energy -161576.828875 kJ/mol
# GULP energy per Si atom -5571.614789 kJ/mol
# Density = 1.703585 g / cm^3
# Si number density = 17.074716 Si / 1000 Ang^3
#
#
#
# Elastic Constant Matrix: (Units=GPa)
#
#
# Indices 1 2 3 4 5 6 
#
# 1 159.9356 58.2072 52.7161 0.0000 0.0000 0.0000
# 2 58.2072 103.4855 17.5893 0.0000 0.0000 0.0000
# 3 52.7161 17.5893 81.6452 0.0000 0.0000 0.0000
# 4 0.0000 0.0000 0.0000 -4.5136 0.0000 0.0000
# 5 0.0000 0.0000 0.0000 0.0000 35.6273 0.0000
# 6 0.0000 0.0000 0.0000 0.0000 0.0000 30.2517
#
#
#
# Elastic Compliance Matrix: (Units=1/GPa)
#
#
# Indices 1 2 3 4 5 6 
#
# 1 0.009626 -0.004524 -0.005241 0.000000 0.000000 0.000000
# 2 -0.004524 0.012156 0.000302 0.000000 0.000000 0.000000
# 3 -0.005241 0.000302 0.015567 0.000000 0.000000 0.000000
# 4 0.000000 0.000000 0.000000 -0.221553 0.000000 0.000000
# 5 0.000000 0.000000 0.000000 0.000000 0.028068 0.000000
# 6 0.000000 0.000000 0.000000 0.000000 0.000000 0.033056
#
#
# Mechanical properties :
#
#
# Convention : Reuss Voigt Hill
#
# Bulk Modulus (GPa) = 54.27622 66.89906 60.58764
# Shear Modulus (GPa) = -51.01392 26.70998 -12.15197
#
# Velocity S-wave (km/s) = -5.47190 3.95941 -2.67065
# Velocity P-wave (km/s) = 2.84004 7.75679 5.10402
#
# Compressibility (1/GPa) = 0.01842428
#
# Stress axis : x y z
#
# Youngs Moduli (GPa) = 103.88181 82.26181 64.23851
#
# Poissons Ratio (x) = 0.37213 0.33667
# Poissons Ratio (y) = 0.46993 -0.01940
# Poissons Ratio (z) = 0.54443 -0.02484
#
# Static dielectric constant tensor:
#      x y z
#    x 1.563950 0.000000 0.000000 
#    y 0.000000 1.571070 0.000000 
#    z 0.000000 0.000000 1.613050 
# 
# From -- ./inp_files/15599.got.cif
#   From: 2010.05.17/outbox.cif.g08.bks.cpg/sg65_8_cif.got.tgz:15599.got - 2010.06.03 17:01:31.
