data_PCOD9484509
_publ_section_title
;
Structure prediction by ZEFSAII (Michael W. Deem and Ramdas Pophale) SiO2 
 PCOD9484509
Probable space group: C M M M
;
_chemical_formula_sum "Si O2"
_cell_formula_units_Z 88
_cell_length_a 8.362950
_cell_length_b 24.410178
_cell_length_c 23.549753
_cell_angle_alpha 90.000000
_cell_angle_beta 90.000000
_cell_angle_gamma 90.000000
_cell_volume 4807.472438
_symmetry_space_group_name_H-M "C M M M"
_symmetry_group_IT_number 65
_symmetry_cell_setting 'orthorhombic'
loop_
_space_group_symop_operation_xyz
x,y,z
-x,-y,z
x,-y,-z
-x,y,-z
-x,-y,-z
x,y,-z
-x,y,z
x,-y,z
1/2+x,1/2+y,z
1/2-x,1/2-y,z
1/2+x,1/2-y,-z
1/2-x,1/2+y,-z
1/2-x,1/2-y,-z
1/2+x,1/2+y,-z
1/2-x,1/2+y,z
1/2+x,1/2-y,z
loop_
_atom_site_type_symbol
_atom_site_label
_atom_site_fract_x
_atom_site_fract_y
_atom_site_fract_z
Si Si1 0.189538 0.936658 0.500000
Si Si2 0.805317 0.878828 0.173051
Si Si3 0.192293 0.312415 0.283921
Si Si4 0.193001 0.812256 0.937190
Si Si5 0.689796 0.890828 0.617346
Si Si6 0.812762 0.500000 0.690452
Si Si7 0.185080 0.000000 0.187648
O O1 0.238954 0.903312 0.444027
O O2 0.000000 0.941694 0.500000
O O3 0.255994 0.000000 0.500000
O O4 0.748870 0.848142 0.229952
O O5 0.752182 0.846886 0.116724
O O6 0.745524 0.941456 0.169827
O O7 0.000000 0.879543 0.174809
O O8 0.250000 0.250000 0.279215
O O9 0.249366 0.341452 0.342471
O O10 0.000000 0.313348 0.284055
O O11 0.250000 0.750000 0.930993
O O12 0.000000 0.812828 0.936576
O O13 0.245084 0.831847 0.000000
O O14 0.500000 0.883304 0.609835
O O15 0.714549 0.946153 0.653508
O O16 0.700118 0.500000 0.744468
O O17 0.000000 0.500000 0.708758
O O18 0.000000 0.000000 0.169511
#
# Coordination Sequence:
#
# PCOD9484509 Si02
#       7
#     8  16  16  16  16   8   8
#     4  11  23  35  54  85 114 139 172 216 265 312
#     4  10  20  34  53  79 110 142 177 220 270 320
#     4  11  23  38  57  81 108 141 180 222 268 318
#     4   9  18  33  52  74 102 138 181 225 267 314
#     4  10  21  37  57  79 107 141 177 215 261 317
#     4  10  18  33  55  79 106 139 177 218 263 316
#     4  10  20  32  50  79 112 142 172 216 271 320
#
# _framework density 18.304836000000002
#
# number of rings (size 3 to 8) (size 9 to 14) (size 15 to 20)
#    0.000    1.909    2.727    1.364    0.000    4.727 
#    0.000    0.909    0.000    2.727    0.000    0.000 
#    0.000    5.091    0.000    0.000    0.000    0.000 
#
# Total GULP energy -245437.002492 kJ/mol
# GULP energy per Si atom -5578.113693 kJ/mol
# Density = 1.826317 g / cm^3
# Si number density = 18.304836 Si / 1000 Ang^3
#
#
#
# Elastic Constant Matrix: (Units=GPa)
#
#
# Indices 1 2 3 4 5 6 
#
# 1 13.1520 20.7787 24.8555 0.0000 0.0000 0.0000
# 2 20.7787 140.5767 82.5870 0.0000 0.0000 0.0000
# 3 24.8555 82.5870 158.0782 0.0000 0.0000 0.0000
# 4 0.0000 0.0000 0.0000 83.5550 0.0000 0.0000
# 5 0.0000 0.0000 0.0000 0.0000 21.5402 0.0000
# 6 0.0000 0.0000 0.0000 0.0000 0.0000 12.0569
#
#
#
# Elastic Compliance Matrix: (Units=1/GPa)
#
#
# Indices 1 2 3 4 5 6 
#
# 1 0.116003 -0.009279 -0.013392 0.000000 0.000000 0.000000
# 2 -0.009279 0.011006 -0.004291 0.000000 0.000000 0.000000
# 3 -0.013392 -0.004291 0.010674 0.000000 0.000000 0.000000
# 4 0.000000 0.000000 0.000000 0.011968 0.000000 0.000000
# 5 0.000000 0.000000 0.000000 0.000000 0.046425 0.000000
# 6 0.000000 0.000000 0.000000 0.000000 0.000000 0.082940
#
#
# Mechanical properties :
#
#
# Convention : Reuss Voigt Hill
#
# Bulk Modulus (GPa) = 11.93907 63.13882 37.53895
# Shear Modulus (GPa) = 13.85581 35.66945 24.76263
#
# Velocity S-wave (km/s) = 2.75425 4.41912 3.68202
# Velocity P-wave (km/s) = 4.08057 7.78499 6.21519
#
# Compressibility (1/GPa) = 0.08375863
#
# Stress axis : x y z
#
# Youngs Moduli (GPa) = 8.62046 90.85967 93.68941
#
# Poissons Ratio (x) = 0.84306 1.25471
# Poissons Ratio (y) = 0.07999 0.40203
# Poissons Ratio (z) = 0.11545 0.38989
#
# Static dielectric constant tensor:
#      x y z
#    x 1.639730 0.000000 0.000000 
#    y 0.000000 1.585880 0.000000 
#    z 0.000000 0.000000 1.618730 
# 
# From -- ./inp_files/59863.got.cif
#   From: 2010.05.17/outbox.cif.g08.bks.cpg/sg65_30_cif.got.tgz:59863.got - 2010.06.03 17:01:31.
