data_PCOD9484927
_publ_section_title
;
Structure prediction by ZEFSAII (Michael W. Deem and Ramdas Pophale) SiO2 
 PCOD9484927
Probable space group: C M M M
;
_chemical_formula_sum "Si O2"
_cell_formula_units_Z 72
_cell_length_a 8.401963
_cell_length_b 29.650522
_cell_length_c 19.046632
_cell_angle_alpha 90.000000
_cell_angle_beta 90.000000
_cell_angle_gamma 90.000000
_cell_volume 4744.946271
_symmetry_space_group_name_H-M "C M M M"
_symmetry_group_IT_number 65
_symmetry_cell_setting 'orthorhombic'
loop_
_space_group_symop_operation_xyz
x,y,z
-x,-y,z
x,-y,-z
-x,y,-z
-x,-y,-z
x,y,-z
-x,y,z
x,-y,z
1/2+x,1/2+y,z
1/2-x,1/2-y,z
1/2+x,1/2-y,-z
1/2-x,1/2+y,-z
1/2-x,1/2-y,-z
1/2+x,1/2+y,-z
1/2-x,1/2+y,z
1/2+x,1/2-y,z
loop_
_atom_site_type_symbol
_atom_site_label
_atom_site_fract_x
_atom_site_fract_y
_atom_site_fract_z
Si Si1 0.310344 0.801234 0.500000
Si Si2 0.307759 0.801793 0.924598
Si Si3 0.193741 0.050056 0.418091
Si Si4 0.809078 0.144856 0.363792
Si Si5 0.308998 0.198373 0.229305
O O1 0.250000 0.750000 0.500000
O O2 0.249227 0.826736 0.430776
O O3 0.000000 0.698664 0.500000
O O4 0.500000 0.802372 0.924643
O O5 0.250000 0.750000 0.925034
O O6 0.256096 0.819243 0.848086
O O7 0.254492 0.821875 0.000000
O O8 0.238444 0.056420 0.500000
O O9 0.247540 0.093219 0.374139
O O10 0.000000 0.049774 0.416497
O O11 0.247259 0.000000 0.395818
O O12 0.751927 0.168020 0.292625
O O13 0.000000 0.144979 0.364816
O O14 0.500000 0.199234 0.231039
O O15 0.250000 0.250000 0.237462
#
# Coordination Sequence:
#
# PCOD9484927 Si02
#       5
#     8  16  16  16  16
#     4  12  24  36  47  60  83 115 152 185 213 246
#     4   8  14  25  41  59  80 109 144 178 211 248
#     4   8  14  27  48  69  84 102 135 177 217 259
#     4  11  20  32  48  66  87 112 144 178 216 257
#     4  10  19  30  43  62  89 119 149 180 214 251
#
# _framework density 15.174039
#
# number of rings (size 3 to 8) (size 9 to 14) (size 15 to 20)
#    0.000    2.444    1.111    3.667    0.000    0.889 
#    0.000    0.000    0.000    3.333    0.000    0.000 
#    0.000    0.889    0.000   11.111    0.000    0.000 
#
# Total GULP energy -200487.722105 kJ/mol
# GULP energy per Si atom -5569.103392 kJ/mol
# Density = 1.513950 g / cm^3
# Si number density = 15.174039 Si / 1000 Ang^3
#
#
#
# Elastic Constant Matrix: (Units=GPa)
#
#
# Indices 1 2 3 4 5 6 
#
# 1 35.5173 19.4704 26.5393 0.0000 0.0000 0.0000
# 2 19.4704 108.6561 75.1663 0.0000 0.0000 0.0000
# 3 26.5393 75.1663 164.9417 0.0000 0.0000 0.0000
# 4 0.0000 0.0000 0.0000 2.5156 0.0000 0.0000
# 5 0.0000 0.0000 0.0000 0.0000 4.2488 0.0000
# 6 0.0000 0.0000 0.0000 0.0000 0.0000 11.4024
#
#
#
# Elastic Compliance Matrix: (Units=1/GPa)
#
#
# Indices 1 2 3 4 5 6 
#
# 1 0.032770 -0.003249 -0.003792 0.000000 0.000000 0.000000
# 2 -0.003249 0.013763 -0.005749 0.000000 0.000000 0.000000
# 3 -0.003792 -0.005749 0.009293 0.000000 0.000000 0.000000
# 4 0.000000 0.000000 0.000000 0.397519 0.000000 0.000000
# 5 0.000000 0.000000 0.000000 0.000000 0.235358 0.000000
# 6 0.000000 0.000000 0.000000 0.000000 0.000000 0.087701
#
#
# Mechanical properties :
#
#
# Convention : Reuss Voigt Hill
#
# Bulk Modulus (GPa) = 33.06303 61.27413 47.16858
# Shear Modulus (GPa) = 6.15714 16.16263 11.15989
#
# Velocity S-wave (km/s) = 2.01655 3.26720 2.71488
# Velocity P-wave (km/s) = 5.22097 7.39604 6.40156
#
# Compressibility (1/GPa) = 0.03024527
#
# Stress axis : x y z
#
# Youngs Moduli (GPa) = 30.51580 72.66057 107.60937
#
# Poissons Ratio (x) = 0.23606 0.40808
# Poissons Ratio (y) = 0.09914 0.61866
# Poissons Ratio (z) = 0.11572 0.41773
#
# Static dielectric constant tensor:
#      x y z
#    x 1.525740 0.000000 0.000000 
#    y 0.000000 1.494700 0.000000 
#    z 0.000000 0.000000 1.540890 
# 
# From -- ./inp_files/49706.got.cif
#   From: 2010.05.17/outbox.cif.g08.bks.cpg/sg65_25_cif.got.tgz:49706.got - 2010.06.03 17:01:31.
