data_PCOD9484847
_publ_section_title
;
Structure prediction by ZEFSAII (Michael W. Deem and Ramdas Pophale) SiO2 
 PCOD9484847
Probable space group: C M M M
;
_chemical_formula_sum "Si O2"
_cell_formula_units_Z 72
_cell_length_a 19.590543
_cell_length_b 7.823959
_cell_length_c 23.710467
_cell_angle_alpha 90.000000
_cell_angle_beta 90.000000
_cell_angle_gamma 90.000000
_cell_volume 3634.236179
_symmetry_space_group_name_H-M "C M M M"
_symmetry_group_IT_number 65
_symmetry_cell_setting 'orthorhombic'
loop_
_space_group_symop_operation_xyz
x,y,z
-x,-y,z
x,-y,-z
-x,y,-z
-x,-y,-z
x,y,-z
-x,y,z
x,-y,z
1/2+x,1/2+y,z
1/2-x,1/2-y,z
1/2+x,1/2-y,-z
1/2-x,1/2+y,-z
1/2-x,1/2-y,-z
1/2+x,1/2+y,-z
1/2-x,1/2+y,z
1/2+x,1/2-y,z
loop_
_atom_site_type_symbol
_atom_site_label
_atom_site_fract_x
_atom_site_fract_y
_atom_site_fract_z
Si Si1 0.921650 0.291420 0.896909
Si Si2 0.670650 0.794002 0.000000
Si Si3 0.923002 0.794312 0.436258
Si Si4 0.421720 0.208927 0.231038
Si Si5 0.671093 0.798075 0.667733
O O1 0.920840 0.500000 0.897143
O O2 0.869178 0.231646 0.944309
O O3 0.905047 0.237270 0.832952
O O4 0.000000 0.241183 0.909555
O O5 0.750000 0.750000 0.000000
O O6 0.665321 0.000000 0.000000
O O7 0.906984 0.734616 0.500000
O O8 0.868554 0.746001 0.389489
O O9 0.000000 0.734086 0.421762
O O10 0.925172 0.000000 0.438005
O O11 0.500000 0.259154 0.243625
O O12 0.370177 0.274330 0.278497
O O13 0.420789 0.000000 0.231013
O O14 0.750000 0.750000 0.666262
O O15 0.668188 0.000000 0.673706
#
# Coordination Sequence:
#
# PCOD9484847 Si02
#       5
#    16   8  16  16  16
#     4   8  14  27  48  71  93 121 163 209 244 281
#     4  10  19  29  45  71  99 128 160 196 242 292
#     4   9  19  37  59  80 102 129 162 203 251 299
#     4   8  15  29  49  72  96 123 160 208 254 291
#     4  11  22  34  50  74 104 137 170 204 246 296
#
# _framework density 19.811589999999999
#
# number of rings (size 3 to 8) (size 9 to 14) (size 15 to 20)
#    0.000    2.889    0.000    3.667    0.000    4.444 
#    0.000    1.111    0.000    2.667    0.000    6.222 
#    0.000    0.000    0.000    0.000    0.000    0.000 
#
# Total GULP energy -200839.927264 kJ/mol
# GULP energy per Si atom -5578.886868 kJ/mol
# Density = 1.976650 g / cm^3
# Si number density = 19.811590 Si / 1000 Ang^3
#
#
#
# Elastic Constant Matrix: (Units=GPa)
#
#
# Indices 1 2 3 4 5 6 
#
# 1 190.6398 9.3210 161.5552 0.0000 0.0000 0.0000
# 2 9.3210 23.8041 10.8989 0.0000 0.0000 0.0000
# 3 161.5552 10.8989 190.3439 0.0000 0.0000 0.0000
# 4 0.0000 0.0000 0.0000 -3.1395 0.0000 0.0000
# 5 0.0000 0.0000 0.0000 0.0000 1.8138 0.0000
# 6 0.0000 0.0000 0.0000 0.0000 0.0000 -2.6448
#
#
#
# Elastic Compliance Matrix: (Units=1/GPa)
#
#
# Indices 1 2 3 4 5 6 
#
# 1 0.018685 -0.000057 -0.015856 0.000000 0.000000 0.000000
# 2 -0.000057 0.043141 -0.002422 0.000000 0.000000 0.000000
# 3 -0.015856 -0.002422 0.018850 0.000000 0.000000 0.000000
# 4 0.000000 0.000000 0.000000 -0.318521 0.000000 0.000000
# 5 0.000000 0.000000 0.000000 0.000000 0.551325 0.000000
# 6 0.000000 0.000000 0.000000 0.000000 0.000000 -0.378106
#
#
# Mechanical properties :
#
#
# Convention : Reuss Voigt Hill
#
# Bulk Modulus (GPa) = 22.72385 85.37088 54.04736
# Shear Modulus (GPa) = -376.27073 14.07342 -181.09866
#
# Velocity S-wave (km/s) = -13.79626 2.66816 -9.57125
# Velocity P-wave (km/s) = 15.56559 7.25789 9.73680
#
# Compressibility (1/GPa) = 0.04400663
#
# Stress axis : x y z
#
# Youngs Moduli (GPa) = 53.51882 23.17997 53.05051
#
# Poissons Ratio (x) = 0.00132 0.84116
# Poissons Ratio (y) = 0.00304 0.12849
# Poissons Ratio (z) = 0.84858 0.05614
#
# Static dielectric constant tensor:
#      x y z
#    x 1.566240 0.000000 0.000000 
#    y 0.000000 1.732410 0.000000 
#    z 0.000000 0.000000 1.709600 
# 
# From -- ./inp_files/67027.got.cif
#   From: 2010.05.17/outbox.cif.g08.bks.cpg/sg65_34_cif.got.tgz:67027.got - 2010.06.03 17:01:31.
