data_PCOD9484757
_publ_section_title
;
Structure prediction by ZEFSAII (Michael W. Deem and Ramdas Pophale) SiO2 
 PCOD9484757
Probable space group: C M M M
;
_chemical_formula_sum "Si O2"
_cell_formula_units_Z 128
_cell_length_a 30.483544
_cell_length_b 25.697462
_cell_length_c 7.273472
_cell_angle_alpha 90.000000
_cell_angle_beta 90.000000
_cell_angle_gamma 90.000000
_cell_volume 5697.672208
_symmetry_space_group_name_H-M "C M M M"
_symmetry_group_IT_number 65
_symmetry_cell_setting 'orthorhombic'
loop_
_space_group_symop_operation_xyz
x,y,z
-x,-y,z
x,-y,-z
-x,y,-z
-x,-y,-z
x,y,-z
-x,y,z
x,-y,z
1/2+x,1/2+y,z
1/2-x,1/2-y,z
1/2+x,1/2-y,-z
1/2-x,1/2+y,-z
1/2-x,1/2-y,-z
1/2+x,1/2+y,-z
1/2-x,1/2+y,z
1/2+x,1/2-y,z
loop_
_atom_site_type_symbol
_atom_site_label
_atom_site_fract_x
_atom_site_fract_y
_atom_site_fract_z
Si Si1 0.202667 0.363659 0.292656
Si Si2 0.548583 0.350924 0.711465
Si Si3 0.802152 0.248803 0.279436
Si Si4 0.647291 0.643403 0.275744
Si Si5 0.548488 0.228825 0.777493
Si Si6 0.450184 0.945528 0.223285
Si Si7 0.111377 0.356776 0.221502
Si Si8 0.720790 0.560480 0.723961
O O1 0.219085 0.351987 0.500000
O O2 0.188227 0.307292 0.210861
O O3 0.154279 0.385780 0.295583
O O4 0.238181 0.403140 0.214127
O O5 0.548374 0.369002 0.500000
O O6 0.500000 0.365700 0.789020
O O7 0.596989 0.364333 0.787971
O O8 0.549561 0.288235 0.715153
O O9 0.808068 0.247752 0.500000
O O10 0.750000 0.250000 0.241363
O O11 0.828800 0.197784 0.213900
O O12 0.646245 0.645860 0.500000
O O13 0.678009 0.594439 0.226099
O O14 0.500000 0.207575 0.724521
O O15 0.592585 0.199258 0.716794
O O16 0.549270 0.228269 0.000000
O O17 0.500000 0.945910 0.282642
O O18 0.427548 0.893850 0.282552
O O19 0.428765 0.000000 0.278774
O O20 0.450191 0.944548 0.000000
O O21 0.114193 0.356801 0.000000
O O22 0.722616 0.558695 0.500000
O O23 0.721424 0.500000 0.784540
#
# Coordination Sequence:
#
# PCOD9484757 Si02
#       8
#    16  16  16  16  16  16  16  16
#     4  10  19  30  45  66  90 115 147 187 225 262
#     4   9  17  28  44  69  97 120 145 179 220 267
#     4   9  14  23  41  64  85 107 145 188 213 239
#     4   9  15  25  43  65  89 119 150 184 223 262
#     4   9  17  29  44  63  91 125 154 180 216 266
#     4   8  14  26  44  62  77 101 146 194 222 248
#     4  10  19  29  43  64  90 116 145 181 225 269
#     4   9  17  29  45  66  90 116 150 190 228 268
#
# _framework density 22.465312999999998
#
# number of rings (size 3 to 8) (size 9 to 14) (size 15 to 20)
#    0.000    2.875    1.250    1.500    0.000    3.500 
#    0.000    0.000    0.000    2.625    0.000    3.500 
#    0.000    0.000    0.000    3.125    0.000    3.250 
#
# Total GULP energy -356270.750987 kJ/mol
# GULP energy per Si atom -5566.730484 kJ/mol
# Density = 2.241418 g / cm^3
# Si number density = 22.465313 Si / 1000 Ang^3
#
#
#
# Elastic Constant Matrix: (Units=GPa)
#
#
# Indices 1 2 3 4 5 6 
#
# 1 176.0480 61.7853 4.7831 0.0000 0.0000 0.0000
# 2 61.7853 100.3711 1.2141 0.0000 0.0000 0.0000
# 3 4.7831 1.2141 96.0722 0.0000 0.0000 0.0000
# 4 0.0000 0.0000 0.0000 -34.6776 0.0000 0.0000
# 5 0.0000 0.0000 0.0000 0.0000 -73.2002 0.0000
# 6 0.0000 0.0000 0.0000 0.0000 0.0000 0.7753
#
#
#
# Elastic Compliance Matrix: (Units=1/GPa)
#
#
# Indices 1 2 3 4 5 6 
#
# 1 0.007255 -0.004462 -0.000305 0.000000 0.000000 0.000000
# 2 -0.004462 0.012709 0.000062 0.000000 0.000000 0.000000
# 3 -0.000305 0.000062 0.010423 0.000000 0.000000 0.000000
# 4 0.000000 0.000000 0.000000 -0.028837 0.000000 0.000000
# 5 0.000000 0.000000 0.000000 0.000000 -0.013661 0.000000
# 6 0.000000 0.000000 0.000000 0.000000 0.000000 1.289891
#
#
# Mechanical properties :
#
#
# Convention : Reuss Voigt Hill
#
# Bulk Modulus (GPa) = 47.67298 56.45070 52.06184
# Shear Modulus (GPa) = 3.86344 -1.10661 1.37842
#
# Velocity S-wave (km/s) = 1.31281 -0.70261 0.78416
# Velocity P-wave (km/s) = 4.85435 4.95220 4.90352
#
# Compressibility (1/GPa) = 0.02097624
#
# Stress axis : x y z
#
# Youngs Moduli (GPa) = 137.84531 78.68482 95.93949
#
# Poissons Ratio (x) = 0.35109 0.02924
# Poissons Ratio (y) = 0.61506 -0.00590
# Poissons Ratio (z) = 0.04201 -0.00484
#
# Static dielectric constant tensor:
#      x y z
#    x 2.239850 0.000000 0.000000 
#    y 0.000000 1.925030 0.000000 
#    z 0.000000 0.000000 1.904640 
# 
# From -- ./inp_files/32952.got.cif
#   From: 2010.05.17/outbox.cif.g08.bks.cpg/sg65_17_cif.got.tgz:32952.got - 2010.06.03 17:01:31.
