data_PCOD9484521
_publ_section_title
;
Structure prediction by ZEFSAII (Michael W. Deem and Ramdas Pophale) SiO2 
 PCOD9484521
Probable space group: C M M M
;
_chemical_formula_sum "Si O2"
_cell_formula_units_Z 72
_cell_length_a 27.816380
_cell_length_b 15.005654
_cell_length_c 8.591332
_cell_angle_alpha 90.000000
_cell_angle_beta 90.000000
_cell_angle_gamma 90.000000
_cell_volume 3586.047526
_symmetry_space_group_name_H-M "C M M M"
_symmetry_group_IT_number 65
_symmetry_cell_setting 'orthorhombic'
loop_
_space_group_symop_operation_xyz
x,y,z
-x,-y,z
x,-y,-z
-x,y,-z
-x,-y,-z
x,y,-z
-x,y,z
x,-y,z
1/2+x,1/2+y,z
1/2-x,1/2-y,z
1/2+x,1/2-y,-z
1/2-x,1/2+y,-z
1/2-x,1/2-y,-z
1/2+x,1/2+y,-z
1/2-x,1/2+y,z
1/2+x,1/2-y,z
loop_
_atom_site_type_symbol
_atom_site_label
_atom_site_fract_x
_atom_site_fract_y
_atom_site_fract_z
Si Si1 0.000000 0.102145 0.685128
Si Si2 0.761445 0.355040 0.818733
Si Si3 0.913917 0.219127 0.182301
Si Si4 0.870647 0.399651 0.189889
Si Si5 0.836368 0.899896 0.679844
O O1 0.046165 0.158821 0.737000
O O2 0.000000 0.096287 0.500000
O O3 0.000000 0.000000 0.747125
O O4 0.750000 0.250000 0.811960
O O5 0.815481 0.377067 0.766328
O O6 0.719902 0.399181 0.717752
O O7 0.757142 0.383165 0.000000
O O8 0.905547 0.319833 0.242121
O O9 0.863533 0.168583 0.209344
O O10 0.925311 0.223258 0.000000
O O11 0.882901 0.500000 0.239627
O O12 0.871408 0.397656 0.000000
O O13 0.844558 0.875023 0.500000
O O14 0.855383 0.000000 0.703562
#
# Coordination Sequence:
#
# PCOD9484521 Si02
#       5
#     8  16  16  16  16
#     4  11  25  45  66  89 118 148 179 227 298 363
#     4  10  18  33  56  83 114 153 201 246 285 330
#     4  11  22  39  63  89 114 146 194 242 286 343
#     4   9  18  34  57  85 118 154 193 241 291 334
#     4  11  23  36  52  80 119 159 195 236 290 346
#
# _framework density 20.077815000000001
#
# number of rings (size 3 to 8) (size 9 to 14) (size 15 to 20)
#    0.000    1.667    2.222    3.000    0.000    6.667 
#    0.000    0.556    0.000    7.333    0.000    0.000 
#    0.000    0.000    0.000    0.000    0.000    0.000 
#
# Total GULP energy -201040.942427 kJ/mol
# GULP energy per Si atom -5584.470623 kJ/mol
# Density = 2.003212 g / cm^3
# Si number density = 20.077815 Si / 1000 Ang^3
#
#
#
# Elastic Constant Matrix: (Units=GPa)
#
#
# Indices 1 2 3 4 5 6 
#
# 1 85.3996 60.0272 8.3794 0.0000 0.0000 0.0000
# 2 60.0272 160.6739 25.5327 0.0000 0.0000 0.0000
# 3 8.3794 25.5327 21.2737 0.0000 0.0000 0.0000
# 4 0.0000 0.0000 0.0000 -15.8108 0.0000 0.0000
# 5 0.0000 0.0000 0.0000 0.0000 46.0175 0.0000
# 6 0.0000 0.0000 0.0000 0.0000 0.0000 24.3643
#
#
#
# Elastic Compliance Matrix: (Units=1/GPa)
#
#
# Indices 1 2 3 4 5 6 
#
# 1 0.015899 -0.006110 0.001071 0.000000 0.000000 0.000000
# 2 -0.006110 0.010039 -0.009642 0.000000 0.000000 0.000000
# 3 0.001071 -0.009642 0.058157 0.000000 0.000000 0.000000
# 4 0.000000 0.000000 0.000000 -0.063248 0.000000 0.000000
# 5 0.000000 0.000000 0.000000 0.000000 0.021731 0.000000
# 6 0.000000 0.000000 0.000000 0.000000 0.000000 0.041044
#
#
# Mechanical properties :
#
#
# Convention : Reuss Voigt Hill
#
# Bulk Modulus (GPa) = 18.27065 50.58063 34.42564
# Shear Modulus (GPa) = 38.10182 22.47473 30.28827
#
# Velocity S-wave (km/s) = 4.36099 3.34935 3.88821
# Velocity P-wave (km/s) = 5.87174 6.34070 6.11072
#
# Compressibility (1/GPa) = 0.05473259
#
# Stress axis : x y z
#
# Youngs Moduli (GPa) = 62.89564 99.61490 17.19498
#
# Poissons Ratio (x) = 0.60866 -0.01841
# Poissons Ratio (y) = 0.38430 0.16579
# Poissons Ratio (z) = -0.06735 0.96046
#
# Static dielectric constant tensor:
#      x y z
#    x 1.714030 0.000000 0.000000 
#    y 0.000000 1.746630 0.000000 
#    z 0.000000 0.000000 1.683180 
# 
# From -- ./inp_files/7241.got.cif
#   From: 2010.05.17/outbox.cif.g08.bks.cpg/sg65_4_cif.got.tgz:7241.got - 2010.06.03 17:01:31.
