data_PCOD9484550
_publ_section_title
;
Structure prediction by ZEFSAII (Michael W. Deem and Ramdas Pophale) SiO2 
 PCOD9484550
Probable space group: C M M M
;
_chemical_formula_sum "Si O2"
_cell_formula_units_Z 104
_cell_length_a 8.867854
_cell_length_b 24.192690
_cell_length_c 28.818149
_cell_angle_alpha 90.000000
_cell_angle_beta 90.000000
_cell_angle_gamma 90.000000
_cell_volume 6182.566229
_symmetry_space_group_name_H-M "C M M M"
_symmetry_group_IT_number 65
_symmetry_cell_setting 'orthorhombic'
loop_
_space_group_symop_operation_xyz
x,y,z
-x,-y,z
x,-y,-z
-x,y,-z
-x,-y,-z
x,y,-z
-x,y,z
x,-y,z
1/2+x,1/2+y,z
1/2-x,1/2-y,z
1/2+x,1/2-y,-z
1/2-x,1/2+y,-z
1/2-x,1/2-y,-z
1/2+x,1/2+y,-z
1/2-x,1/2+y,z
1/2+x,1/2-y,z
loop_
_atom_site_type_symbol
_atom_site_label
_atom_site_fract_x
_atom_site_fract_y
_atom_site_fract_z
Si Si1 0.672757 0.000000 0.750806
Si Si2 0.817625 0.935600 0.898467
Si Si3 0.319157 0.116938 0.365376
Si Si4 0.677225 0.112549 0.190930
Si Si5 0.323206 0.500000 0.654244
Si Si6 0.820122 0.189221 0.553444
Si Si7 0.317591 0.189120 0.725308
Si Si8 0.673987 0.567108 0.000000
O O1 0.690028 0.054735 0.781256
O O2 0.500000 0.000000 0.731727
O O3 0.789339 0.000000 0.709169
O O4 0.761790 0.896880 0.857245
O O5 0.760578 0.917890 0.949736
O O6 0.000000 0.935734 0.899725
O O7 0.771050 0.000000 0.890310
O O8 0.500000 0.114996 0.366724
O O9 0.254973 0.149386 0.409353
O O10 0.275579 0.150046 0.318242
O O11 0.252795 0.055633 0.364323
O O12 0.500000 0.121668 0.181699
O O13 0.730621 0.159828 0.226537
O O14 0.500000 0.500000 0.644651
O O15 0.791825 0.172128 0.500000
O O16 0.750000 0.250000 0.559434
O O17 0.000000 0.191704 0.560452
O O18 0.500000 0.192211 0.725692
O O19 0.250000 0.250000 0.720158
O O20 0.670352 0.500000 0.000000
O O21 0.500000 0.586288 0.000000
#
# Coordination Sequence:
#
# PCOD9484550 Si02
#       8
#     8  16  16  16   8  16  16   8
#     4  10  18  34  52  68 102 142 175 208 255 313
#     4   9  16  26  43  68  96 129 168 206 247 298
#     4  11  22  39  60  81 110 146 180 216 266 321
#     4  10  19  32  49  70 100 136 168 205 256 306
#     4  12  24  36  55  83 111 141 180 221 260 312
#     4  10  21  38  60  87 116 145 182 228 273 315
#     4  10  22  37  53  74 102 136 171 212 259 306
#     4   7  12  24  39  59  94 131 160 199 250 300
#
# _framework density 16.821494999999999
#
# number of rings (size 3 to 8) (size 9 to 14) (size 15 to 20)
#    0.000    2.077    2.308    3.000    0.000    4.615 
#    0.000    0.769    0.000    3.692    0.000    0.538 
#    0.000    0.000    0.000    0.000    0.000    0.000 
#
# Total GULP energy -290038.449898 kJ/mol
# GULP energy per Si atom -5577.662498 kJ/mol
# Density = 1.678321 g / cm^3
# Si number density = 16.821495 Si / 1000 Ang^3
#
#
#
# Elastic Constant Matrix: (Units=GPa)
#
#
# Indices 1 2 3 4 5 6 
#
# 1 46.2304 38.4680 55.7316 0.0000 0.0000 0.0000
# 2 38.4680 106.6942 73.3782 0.0000 0.0000 0.0000
# 3 55.7316 73.3782 144.9366 0.0000 0.0000 0.0000
# 4 0.0000 0.0000 0.0000 8.6094 0.0000 0.0000
# 5 0.0000 0.0000 0.0000 0.0000 24.1759 0.0000
# 6 0.0000 0.0000 0.0000 0.0000 0.0000 26.4682
#
#
#
# Elastic Compliance Matrix: (Units=1/GPa)
#
#
# Indices 1 2 3 4 5 6 
#
# 1 0.042939 -0.006330 -0.013306 0.000000 0.000000 0.000000
# 2 -0.006330 0.015312 -0.005318 0.000000 0.000000 0.000000
# 3 -0.013306 -0.005318 0.014709 0.000000 0.000000 0.000000
# 4 0.000000 0.000000 0.000000 0.116153 0.000000 0.000000
# 5 0.000000 0.000000 0.000000 0.000000 0.041364 0.000000
# 6 0.000000 0.000000 0.000000 0.000000 0.000000 0.037781
#
#
# Mechanical properties :
#
#
# Convention : Reuss Voigt Hill
#
# Bulk Modulus (GPa) = 43.38244 70.33520 56.85882
# Shear Modulus (GPa) = 15.34447 20.53626 17.94036
#
# Velocity S-wave (km/s) = 3.02353 3.49783 3.26930
# Velocity P-wave (km/s) = 6.16724 7.62998 6.93727
#
# Compressibility (1/GPa) = 0.02305080
#
# Stress axis : x y z
#
# Youngs Moduli (GPa) = 23.28886 65.30621 67.98701
#
# Poissons Ratio (x) = 0.41339 0.90465
# Poissons Ratio (y) = 0.14742 0.36158
# Poissons Ratio (z) = 0.30989 0.34732
#
# Static dielectric constant tensor:
#      x y z
#    x 1.570420 0.000000 0.000000 
#    y 0.000000 1.551480 0.000000 
#    z 0.000000 0.000000 1.585040 
# 
# From -- ./inp_files/73832.got.cif
#   From: 2010.05.17/outbox.cif.g08.bks.cpg/sg65_37_cif.got.tgz:73832.got - 2010.06.03 17:01:31.
