data_PCOD9484130
_publ_section_title
;
Structure prediction by ZEFSAII (Michael W. Deem and Ramdas Pophale) SiO2 
 PCOD9484130
Probable space group: C M M M
;
_chemical_formula_sum "Si O2"
_cell_formula_units_Z 58
_cell_length_a 15.049019
_cell_length_b 26.643691
_cell_length_c 7.431398
_cell_angle_alpha 90.000000
_cell_angle_beta 90.000000
_cell_angle_gamma 90.000000
_cell_volume 2979.703836
_symmetry_space_group_name_H-M "C M M M"
_symmetry_group_IT_number 65
_symmetry_cell_setting 'orthorhombic'
loop_
_space_group_symop_operation_xyz
x,y,z
-x,-y,z
x,-y,-z
-x,y,-z
-x,-y,-z
x,y,-z
-x,y,z
x,-y,z
1/2+x,1/2+y,z
1/2-x,1/2-y,z
1/2+x,1/2-y,-z
1/2-x,1/2+y,-z
1/2-x,1/2-y,-z
1/2+x,1/2+y,-z
1/2-x,1/2+y,z
1/2+x,1/2-y,z
loop_
_atom_site_type_symbol
_atom_site_label
_atom_site_fract_x
_atom_site_fract_y
_atom_site_fract_z
Si Si1 0.808819 0.107473 0.217706
Si Si2 0.192720 0.298621 0.780324
Si Si3 0.154774 0.000000 0.698533
Si Si4 0.500000 0.500000 0.000000
Si Si5 0.500000 0.351444 0.780451
Si Si6 0.000000 0.265436 0.219421
O O1 0.741313 0.150620 0.278216
O O2 0.909065 0.122075 0.276830
O O3 0.790067 0.051141 0.277466
O O4 0.809484 0.108302 0.000000
O O5 0.250000 0.250000 0.725838
O O6 0.091225 0.291354 0.722231
O O7 0.193044 0.298733 0.000000
O O8 0.077698 0.000000 0.845441
O O9 0.115943 0.000000 0.500000
O O10 0.500000 0.293146 0.727612
O O11 0.500000 0.353387 0.000000
O O12 0.000000 0.265360 0.000000
#
# Coordination Sequence:
#
# PCOD9484130 Si02
#       6
#    16  16   8   2   8   8
#     4  10  18  31  51  75 109 152 194 233 282 341
#     4   9  15  24  43  75 109 147 189 236 290 343
#     4  12  25  39  57  83 116 156 197 237 286 343
#     4  12  22  44  60  86 120 154 190 244 288 344
#     4   9  15  22  43  71 106 144 174 224 272 335
#     4   9  14  23  38  74 114 139 185 236 279 344
#
# _framework density 19.465021
#
# number of rings (size 3 to 8) (size 9 to 14) (size 15 to 20)
#    0.000    2.207    4.138    1.034    1.931    0.000 
#    0.000    0.000    0.000    1.655    0.000    6.759 
#    0.000    0.000    0.000    0.000    0.000    0.000 
#
# Total GULP energy -161735.291507 kJ/mol
# GULP energy per Si atom -5577.079017 kJ/mol
# Density = 1.942072 g / cm^3
# Si number density = 19.465021 Si / 1000 Ang^3
#
#
#
# Elastic Constant Matrix: (Units=GPa)
#
#
# Indices 1 2 3 4 5 6 
#
# 1 147.2563 96.5386 7.1916 0.0000 0.0000 0.0000
# 2 96.5386 201.1118 9.3973 0.0000 0.0000 0.0000
# 3 7.1916 9.3973 88.3771 0.0000 0.0000 0.0000
# 4 0.0000 0.0000 0.0000 62.8068 0.0000 0.0000
# 5 0.0000 0.0000 0.0000 0.0000 31.9663 0.0000
# 6 0.0000 0.0000 0.0000 0.0000 0.0000 -16.1867
#
#
#
# Elastic Compliance Matrix: (Units=1/GPa)
#
#
# Indices 1 2 3 4 5 6 
#
# 1 0.009917 -0.004746 -0.000302 0.000000 0.000000 0.000000
# 2 -0.004746 0.007269 -0.000387 0.000000 0.000000 0.000000
# 3 -0.000302 -0.000387 0.011381 0.000000 0.000000 0.000000
# 4 0.000000 0.000000 0.000000 0.015922 0.000000 0.000000
# 5 0.000000 0.000000 0.000000 0.000000 0.031283 0.000000
# 6 0.000000 0.000000 0.000000 0.000000 0.000000 -0.061779
#
#
# Mechanical properties :
#
#
# Convention : Reuss Voigt Hill
#
# Bulk Modulus (GPa) = 56.50934 73.66666 65.08800
# Shear Modulus (GPa) = 162.53665 37.29180 99.91422
#
# Velocity S-wave (km/s) = 9.14785 4.38178 7.17228
# Velocity P-wave (km/s) = 11.86052 7.97043 10.10444
#
# Compressibility (1/GPa) = 0.01769619
#
# Stress axis : x y z
#
# Youngs Moduli (GPa) = 100.83370 137.57370 87.86675
#
# Poissons Ratio (x) = 0.65298 0.02656
# Poissons Ratio (y) = 0.47860 0.03398
# Poissons Ratio (z) = 0.03048 0.05320
#
# Static dielectric constant tensor:
#      x y z
#    x 1.637670 0.000000 0.000000 
#    y 0.000000 1.695020 0.000000 
#    z 0.000000 0.000000 1.718760 
# 
# From -- ./inp_files/7061.got.cif
#   From: 2010.05.17/outbox.cif.g08.bks.cpg/sg65_4_cif.got.tgz:7061.got - 2010.06.03 17:01:31.
