data_PCOD9484984
_publ_section_title
;
Structure prediction by ZEFSAII (Michael W. Deem and Ramdas Pophale) SiO2 
 PCOD9484984
Probable space group: C M M M
;
_chemical_formula_sum "Si O2"
_cell_formula_units_Z 112
_cell_length_a 14.535954
_cell_length_b 11.198815
_cell_length_c 31.937144
_cell_angle_alpha 90.000000
_cell_angle_beta 90.000000
_cell_angle_gamma 90.000000
_cell_volume 5198.902667
_symmetry_space_group_name_H-M "C M M M"
_symmetry_group_IT_number 65
_symmetry_cell_setting 'orthorhombic'
loop_
_space_group_symop_operation_xyz
x,y,z
-x,-y,z
x,-y,-z
-x,y,-z
-x,-y,-z
x,y,-z
-x,y,z
x,-y,z
1/2+x,1/2+y,z
1/2-x,1/2-y,z
1/2+x,1/2-y,-z
1/2-x,1/2+y,-z
1/2-x,1/2-y,-z
1/2+x,1/2+y,-z
1/2-x,1/2+y,z
1/2+x,1/2-y,z
loop_
_atom_site_type_symbol
_atom_site_label
_atom_site_fract_x
_atom_site_fract_y
_atom_site_fract_z
Si Si1 0.639832 0.129362 0.549788
Si Si2 0.890065 0.368570 0.097016
Si Si3 0.654736 0.371068 0.683986
Si Si4 0.313319 0.866868 0.810298
Si Si5 0.887904 0.132617 0.048707
Si Si6 0.636453 0.129055 0.281886
Si Si7 0.652984 0.371000 0.584646
O O1 0.628380 0.137038 0.500000
O O2 0.604070 0.250357 0.570413
O O3 0.748515 0.126987 0.561254
O O4 0.603801 0.000000 0.564012
O O5 0.856878 0.500000 0.081835
O O6 0.866958 0.360566 0.146083
O O7 0.855965 0.249133 0.073889
O O8 0.000000 0.369169 0.091845
O O9 0.610705 0.500000 0.692717
O O10 0.603722 0.251638 0.697903
O O11 0.753924 0.372805 0.707047
O O12 0.670896 0.363712 0.634258
O O13 0.250000 0.750000 0.808251
O O14 0.373394 0.863938 0.768102
O O15 0.267222 0.000000 0.809476
O O16 0.000000 0.133534 0.049722
O O17 0.860258 0.000000 0.064512
O O18 0.860882 0.142129 0.000000
O O19 0.601662 0.000000 0.296705
O O20 0.608532 0.500000 0.576211
#
# Coordination Sequence:
#
# PCOD9484984 Si02
#       7
#    16  16  16  16  16  16  16
#     4   9  15  20  25  33  46  66  95 131 172 218
#     4   9  18  31  46  67  94 119 143 173 210 251
#     4   9  15  22  32  46  64  84 109 146 190 232
#     4  10  19  30  45  64  86 114 145 175 209 250
#     4   8  14  26  45  68  91 114 142 175 209 245
#     4   9  15  23  35  50  68  91 119 151 188 229
#     4   9  15  20  27  38  51  71  98 130 176 225
#
# _framework density 21.543006999999999
#
# number of rings (size 3 to 8) (size 9 to 14) (size 15 to 20)
#    0.000    3.000    1.429    3.000    0.000    3.429 
#    0.000    1.429    0.000    0.429    0.000    0.000 
#    0.000    0.000    0.000    0.000    0.000    0.000 
#
# Total GULP energy -311957.408679 kJ/mol
# GULP energy per Si atom -5570.668012 kJ/mol
# Density = 2.149397 g / cm^3
# Si number density = 21.543007 Si / 1000 Ang^3
#
#
#
# Elastic Constant Matrix: (Units=GPa)
#
#
# Indices 1 2 3 4 5 6 
#
# 1 65.6068 16.0356 -0.6226 0.0000 0.0000 0.0000
# 2 16.0356 284.9985 68.1059 0.0000 0.0000 0.0000
# 3 -0.6226 68.1059 78.0900 0.0000 0.0000 0.0000
# 4 0.0000 0.0000 0.0000 29.8488 0.0000 0.0000
# 5 0.0000 0.0000 0.0000 0.0000 55.9045 0.0000
# 6 0.0000 0.0000 0.0000 0.0000 0.0000 -19.0251
#
#
#
# Elastic Compliance Matrix: (Units=1/GPa)
#
#
# Indices 1 2 3 4 5 6 
#
# 1 0.015532 -0.001141 0.001119 0.000000 0.000000 0.000000
# 2 -0.001141 0.004516 -0.003948 0.000000 0.000000 0.000000
# 3 0.001119 -0.003948 0.016258 0.000000 0.000000 0.000000
# 4 0.000000 0.000000 0.000000 0.033502 0.000000 0.000000
# 5 0.000000 0.000000 0.000000 0.000000 0.017888 0.000000
# 6 0.000000 0.000000 0.000000 0.000000 0.000000 -0.052562
#
#
# Mechanical properties :
#
#
# Convention : Reuss Voigt Hill
#
# Bulk Modulus (GPa) = 35.25354 66.19258 50.72306
# Shear Modulus (GPa) = 95.18364 36.35738 65.77051
#
# Velocity S-wave (km/s) = 6.65425 4.11258 5.53138
# Velocity P-wave (km/s) = 8.68553 7.30367 8.02440
#
# Compressibility (1/GPa) = 0.02836595
#
# Stress axis : x y z
#
# Youngs Moduli (GPa) = 64.38354 221.41045 61.50804
#
# Poissons Ratio (x) = 0.25272 -0.06884
# Poissons Ratio (y) = 0.07349 0.24284
# Poissons Ratio (z) = -0.07206 0.87416
#
# Static dielectric constant tensor:
#      x y z
#    x 1.753270 0.000000 0.000000 
#    y 0.000000 1.869910 0.000000 
#    z 0.000000 0.000000 1.727340 
# 
# From -- ./inp_files/75624.got.cif
#   From: 2010.05.17/outbox.cif.g08.bks.cpg/sg65_38_cif.got.tgz:75624.got - 2010.06.03 17:01:31.
