data_PCOD9484428
_publ_section_title
;
Structure prediction by ZEFSAII (Michael W. Deem and Ramdas Pophale) SiO2 
 PCOD9484428
Probable space group: C M M M
;
_chemical_formula_sum "Si O2"
_cell_formula_units_Z 72
_cell_length_a 8.477718
_cell_length_b 18.689755
_cell_length_c 24.665458
_cell_angle_alpha 90.000000
_cell_angle_beta 90.000000
_cell_angle_gamma 90.000000
_cell_volume 3908.154810
_symmetry_space_group_name_H-M "C M M M"
_symmetry_group_IT_number 65
_symmetry_cell_setting 'orthorhombic'
loop_
_space_group_symop_operation_xyz
x,y,z
-x,-y,z
x,-y,-z
-x,y,-z
-x,-y,-z
x,y,-z
-x,y,z
x,-y,z
1/2+x,1/2+y,z
1/2-x,1/2-y,z
1/2+x,1/2-y,-z
1/2-x,1/2+y,-z
1/2-x,1/2-y,-z
1/2+x,1/2+y,-z
1/2-x,1/2+y,z
1/2+x,1/2-y,z
loop_
_atom_site_type_symbol
_atom_site_label
_atom_site_fract_x
_atom_site_fract_y
_atom_site_fract_z
Si Si1 0.190696 0.832021 0.558252
Si Si2 0.191047 0.082763 0.782755
Si Si3 0.687624 0.331806 0.000000
Si Si4 0.812504 0.331354 0.113826
Si Si5 0.690894 0.668520 0.676605
O O1 0.242546 0.863980 0.500000
O O2 0.250000 0.750000 0.558184
O O3 0.241083 0.860869 0.617158
O O4 0.000000 0.832233 0.558102
O O5 0.255799 0.123400 0.835069
O O6 0.244025 0.121923 0.727589
O O7 0.000000 0.085883 0.784345
O O8 0.238473 0.000000 0.782759
O O9 0.750000 0.250000 0.000000
O O10 0.749073 0.362537 0.943234
O O11 0.500000 0.331386 0.000000
O O12 0.750000 0.250000 0.119446
O O13 0.000000 0.328679 0.111481
O O14 0.500000 0.669853 0.677240
O O15 0.750000 0.750000 0.681958
#
# Coordination Sequence:
#
# PCOD9484428 Si02
#       5
#    16  16   8  16  16
#     4   8  13  22  38  62  91 119 150 193 244 294
#     4  10  21  36  51  69  98 135 172 210 254 300
#     4  10  18  32  55  82 109 134 163 199 243 291
#     4  11  21  35  56  81 107 133 166 205 246 293
#     4   9  17  29  47  70  94 124 162 204 249 297
#
# _framework density 18.423017000000002
#
# number of rings (size 3 to 8) (size 9 to 14) (size 15 to 20)
#    0.000    2.444    0.000    5.000    0.000    3.111 
#    0.000    0.556    0.000    4.000    0.000    4.667 
#    0.000    0.000    0.000   38.000    0.000   19.111 
#
# Total GULP energy -200604.725171 kJ/mol
# GULP energy per Si atom -5572.353477 kJ/mol
# Density = 1.838109 g / cm^3
# Si number density = 18.423017 Si / 1000 Ang^3
#
#
#
# Elastic Constant Matrix: (Units=GPa)
#
#
# Indices 1 2 3 4 5 6 
#
# 1 45.9342 22.6200 44.2273 0.0000 0.0000 0.0000
# 2 22.6200 64.4671 79.6978 0.0000 0.0000 0.0000
# 3 44.2273 79.6978 253.7378 0.0000 0.0000 0.0000
# 4 0.0000 0.0000 0.0000 -4.9211 0.0000 0.0000
# 5 0.0000 0.0000 0.0000 0.0000 -215.7820 0.0000
# 6 0.0000 0.0000 0.0000 0.0000 0.0000 14.4839
#
#
#
# Elastic Compliance Matrix: (Units=1/GPa)
#
#
# Indices 1 2 3 4 5 6 
#
# 1 0.027553 -0.006099 -0.002887 0.000000 0.000000 0.000000
# 2 -0.006099 0.026708 -0.007326 0.000000 0.000000 0.000000
# 3 -0.002887 -0.007326 0.006745 0.000000 0.000000 0.000000
# 4 0.000000 0.000000 0.000000 -0.203205 0.000000 0.000000
# 5 0.000000 0.000000 0.000000 0.000000 -0.004634 0.000000
# 6 0.000000 0.000000 0.000000 0.000000 0.000000 0.069042
#
#
# Mechanical properties :
#
#
# Convention : Reuss Voigt Hill
#
# Bulk Modulus (GPa) = 35.23145 73.02546 54.12845
# Shear Modulus (GPa) = -140.03607 -26.73758 -83.38682
#
# Velocity S-wave (km/s) = -8.72791 -3.81374 -6.73503
# Velocity P-wave (km/s) = 9.07764 4.50903 5.57100
#
# Compressibility (1/GPa) = 0.02838373
#
# Stress axis : x y z
#
# Youngs Moduli (GPa) = 36.29328 37.44136 148.25007
#
# Poissons Ratio (x) = 0.22834 0.42801
# Poissons Ratio (y) = 0.22134 1.08608
# Poissons Ratio (z) = 0.10478 0.27429
#
# Static dielectric constant tensor:
#      x y z
#    x 1.619160 0.000000 0.000000 
#    y 0.000000 1.585960 0.000000 
#    z 0.000000 0.000000 1.701080 
# 
# From -- ./inp_files/67031.got.cif
#   From: 2010.05.17/outbox.cif.g08.bks.cpg/sg65_34_cif.got.tgz:67031.got - 2010.06.03 17:01:31.
