data_PCOD9484576
_publ_section_title
;
Structure prediction by ZEFSAII (Michael W. Deem and Ramdas Pophale) SiO2 
 PCOD9484576
Probable space group: C M M M
;
_chemical_formula_sum "Si O2"
_cell_formula_units_Z 88
_cell_length_a 15.524909
_cell_length_b 19.516517
_cell_length_c 14.994261
_cell_angle_alpha 90.000000
_cell_angle_beta 90.000000
_cell_angle_gamma 90.000000
_cell_volume 4543.143384
_symmetry_space_group_name_H-M "C M M M"
_symmetry_group_IT_number 65
_symmetry_cell_setting 'orthorhombic'
loop_
_space_group_symop_operation_xyz
x,y,z
-x,-y,z
x,-y,-z
-x,y,-z
-x,-y,-z
x,y,-z
-x,y,z
x,-y,z
1/2+x,1/2+y,z
1/2-x,1/2-y,z
1/2+x,1/2-y,-z
1/2-x,1/2+y,-z
1/2-x,1/2-y,-z
1/2+x,1/2+y,-z
1/2-x,1/2+y,z
1/2+x,1/2-y,z
loop_
_atom_site_type_symbol
_atom_site_label
_atom_site_fract_x
_atom_site_fract_y
_atom_site_fract_z
Si Si1 0.359941 0.076791 0.845474
Si Si2 0.500000 0.417698 0.098972
Si Si3 0.397891 0.226864 0.902274
Si Si4 0.000000 0.281057 0.604004
Si Si5 0.163915 0.078642 0.780354
Si Si6 0.000000 0.424160 0.310178
Si Si7 0.340356 0.280240 0.710538
O O1 0.385644 0.144415 0.898907
O O2 0.258237 0.081125 0.824916
O O3 0.416995 0.081404 0.755195
O O4 0.377159 0.000000 0.882875
O O5 0.500000 0.500000 0.091609
O O6 0.587000 0.401946 0.151885
O O7 0.500000 0.388213 0.000000
O O8 0.500000 0.240979 0.893915
O O9 0.353010 0.257427 0.814507
O O10 0.367722 0.251455 0.000000
O O11 0.082409 0.250266 0.654041
O O12 0.000000 0.265419 0.500000
O O13 0.000000 0.362322 0.621763
O O14 0.161202 0.137629 0.707037
O O15 0.149660 0.000000 0.751044
O O16 0.000000 0.500000 0.350246
O O17 0.250000 0.250000 0.680074
#
# Coordination Sequence:
#
# PCOD9484576 Si02
#       7
#    16   8  16   8  16   8  16
#     4  10  18  34  58  85 119 160 201 242 290 347
#     4   9  19  34  49  70 104 147 199 253 292 325
#     4  11  22  36  56  86 124 168 207 242 294 354
#     4  12  25  42  66  96 123 152 197 248 308 368
#     4  10  21  36  58  82 108 154 203 245 299 351
#     4  10  18  36  64  90 123 158 192 233 293 363
#     4  12  22  42  65  87 123 158 198 251 302 355
#
# _framework density 19.369848000000001
#
# number of rings (size 3 to 8) (size 9 to 14) (size 15 to 20)
#    0.000    1.364    5.455    0.545    0.000    2.727 
#    0.000    2.727    0.000    1.091    0.000    0.000 
#    0.000    0.000    0.000    0.000    0.000    0.000 
#
# Total GULP energy -245715.761752 kJ/mol
# GULP energy per Si atom -5584.449131 kJ/mol
# Density = 1.932576 g / cm^3
# Si number density = 19.369848 Si / 1000 Ang^3
#
#
#
# Elastic Constant Matrix: (Units=GPa)
#
#
# Indices 1 2 3 4 5 6 
#
# 1 150.1495 28.0867 36.5717 0.0000 0.0000 0.0000
# 2 28.0867 127.1523 31.6150 0.0000 0.0000 0.0000
# 3 36.5717 31.6150 75.5773 0.0000 0.0000 0.0000
# 4 0.0000 0.0000 0.0000 7.8427 0.0000 0.0000
# 5 0.0000 0.0000 0.0000 0.0000 -13.1894 0.0000
# 6 0.0000 0.0000 0.0000 0.0000 0.0000 38.7251
#
#
#
# Elastic Compliance Matrix: (Units=1/GPa)
#
#
# Indices 1 2 3 4 5 6 
#
# 1 0.007633 -0.000857 -0.003335 0.000000 0.000000 0.000000
# 2 -0.000857 0.008874 -0.003297 0.000000 0.000000 0.000000
# 3 -0.003335 -0.003297 0.016225 0.000000 0.000000 0.000000
# 4 0.000000 0.000000 0.000000 0.127507 0.000000 0.000000
# 5 0.000000 0.000000 0.000000 0.000000 -0.075819 0.000000
# 6 0.000000 0.000000 0.000000 0.000000 0.000000 0.025823
#
#
# Mechanical properties :
#
#
# Convention : Reuss Voigt Hill
#
# Bulk Modulus (GPa) = 56.32977 60.60288 58.46633
# Shear Modulus (GPa) = 38.12782 23.78275 30.95529
#
# Velocity S-wave (km/s) = 4.44149 3.50783 4.00198
# Velocity P-wave (km/s) = 7.44626 6.91098 7.18361
#
# Compressibility (1/GPa) = 0.01775260
#
# Stress axis : x y z
#
# Youngs Moduli (GPa) = 131.01710 112.69263 61.63468
#
# Poissons Ratio (x) = 0.09655 0.20555
# Poissons Ratio (y) = 0.11225 0.20323
# Poissons Ratio (z) = 0.43694 0.37159
#
# Static dielectric constant tensor:
#      x y z
#    x 1.685000 0.000000 0.000000 
#    y 0.000000 1.727360 0.000000 
#    z 0.000000 0.000000 1.645280 
# 
# From -- ./inp_files/40258.got.cif
#   From: 2010.05.17/outbox.cif.g08.bks.cpg/sg65_21_cif.got.tgz:40258.got - 2010.06.03 17:01:31.
