data_PCOD9484646
_publ_section_title
;
Structure prediction by ZEFSAII (Michael W. Deem and Ramdas Pophale) SiO2 
 PCOD9484646
Probable space group: C M M M
;
_chemical_formula_sum "Si O2"
_cell_formula_units_Z 72
_cell_length_a 7.918856
_cell_length_b 36.535549
_cell_length_c 18.901165
_cell_angle_alpha 90.000000
_cell_angle_beta 90.000000
_cell_angle_gamma 90.000000
_cell_volume 5468.480359
_symmetry_space_group_name_H-M "C M M M"
_symmetry_group_IT_number 65
_symmetry_cell_setting 'orthorhombic'
loop_
_space_group_symop_operation_xyz
x,y,z
-x,-y,z
x,-y,-z
-x,y,-z
-x,-y,-z
x,y,-z
-x,y,z
x,-y,z
1/2+x,1/2+y,z
1/2-x,1/2-y,z
1/2+x,1/2-y,-z
1/2-x,1/2+y,-z
1/2-x,1/2-y,-z
1/2+x,1/2+y,-z
1/2-x,1/2+y,z
1/2+x,1/2-y,z
loop_
_atom_site_type_symbol
_atom_site_label
_atom_site_fract_x
_atom_site_fract_y
_atom_site_fract_z
Si Si1 0.000000 0.344394 0.914329
Si Si2 0.000000 0.578799 0.836381
Si Si3 0.691128 0.455671 0.419336
Si Si4 0.691102 0.709687 0.914354
Si Si5 0.000000 0.455366 0.316883
Si Si6 0.809130 0.044051 0.918091
O O1 0.166276 0.320183 0.898493
O O2 0.000000 0.379849 0.864933
O O3 0.000000 0.352804 0.000000
O O4 0.000000 0.568208 0.754246
O O5 0.166316 0.560556 0.869806
O O6 0.729649 0.443742 0.500000
O O7 0.500000 0.443746 0.401226
O O8 0.688954 0.500000 0.420976
O O9 0.835106 0.446194 0.363624
O O10 0.500000 0.701564 0.889925
O O11 0.750000 0.750000 0.890068
O O12 0.685176 0.711370 0.000000
O O13 0.000000 0.500000 0.302826
O O14 0.000000 0.055080 0.898576
O O15 0.801390 0.000000 0.915078
O O16 0.780603 0.054710 0.000000
#
# Coordination Sequence:
#
# PCOD9484646 Si02
#       6
#     8   8  16  16   8  16
#     4  10  20  30  41  60  82 108 138 172 214 255
#     4  12  22  30  40  58  87 114 138 171 216 262
#     4   8  14  26  44  63  80  99 130 173 212 245
#     4   9  15  26  45  64  79  94 120 163 210 252
#     4  10  19  28  40  59  82 111 143 174 209 248
#     4   9  18  32  47  57  67  96 146 195 228 250
#
# _framework density 13.166364
#
# number of rings (size 3 to 8) (size 9 to 14) (size 15 to 20)
#    0.000    2.667    1.111    3.667    0.000    4.000 
#    0.000    4.444    0.000    0.000    0.000    0.000 
#    0.000    0.000    0.000    0.000    0.000    4.444 
#
# Total GULP energy -200434.917214 kJ/mol
# GULP energy per Si atom -5567.636589 kJ/mol
# Density = 1.313640 g / cm^3
# Si number density = 13.166364 Si / 1000 Ang^3
#
#
#
# Elastic Constant Matrix: (Units=GPa)
#
#
# Indices 1 2 3 4 5 6 
#
# 1 135.9686 43.1753 76.6695 0.0000 0.0000 0.0000
# 2 43.1753 43.6250 41.7011 0.0000 0.0000 0.0000
# 3 76.6695 41.7011 80.7863 0.0000 0.0000 0.0000
# 4 0.0000 0.0000 0.0000 12.2178 0.0000 0.0000
# 5 0.0000 0.0000 0.0000 0.0000 9.3629 0.0000
# 6 0.0000 0.0000 0.0000 0.0000 0.0000 27.4196
#
#
#
# Elastic Compliance Matrix: (Units=1/GPa)
#
#
# Indices 1 2 3 4 5 6 
#
# 1 0.015969 -0.002601 -0.013813 0.000000 0.000000 0.000000
# 2 -0.002601 0.045674 -0.021108 0.000000 0.000000 0.000000
# 3 -0.013813 -0.021108 0.036383 0.000000 0.000000 0.000000
# 4 0.000000 0.000000 0.000000 0.081848 0.000000 0.000000
# 5 0.000000 0.000000 0.000000 0.000000 0.106804 0.000000
# 6 0.000000 0.000000 0.000000 0.000000 0.000000 0.036470
#
#
# Mechanical properties :
#
#
# Convention : Reuss Voigt Hill
#
# Bulk Modulus (GPa) = 43.51131 64.83020 54.17075
# Shear Modulus (GPa) = 12.31971 16.38900 14.35435
#
# Velocity S-wave (km/s) = 3.06223 3.53195 3.30544
# Velocity P-wave (km/s) = 6.75441 8.12275 7.46998
#
# Compressibility (1/GPa) = 0.02298253
#
# Stress axis : x y z
#
# Youngs Moduli (GPa) = 62.61996 21.89432 27.48515
#
# Poissons Ratio (x) = 0.05694 0.37965
# Poissons Ratio (y) = 0.16286 0.58016
# Poissons Ratio (z) = 0.86497 0.46215
#
# Static dielectric constant tensor:
#      x y z
#    x 1.456620 0.000000 0.000000 
#    y 0.000000 1.417640 0.000000 
#    z 0.000000 0.000000 1.413430 
# 
# From -- ./inp_files/37068.got.cif
#   From: 2010.05.17/outbox.cif.g08.bks.cpg/sg65_19_cif.got.tgz:37068.got - 2010.06.03 17:01:31.
