data_PCOD9484377
_publ_section_title
;
Structure prediction by ZEFSAII (Michael W. Deem and Ramdas Pophale) SiO2 
 PCOD9484377
Probable space group: C M M M
;
_chemical_formula_sum "Si O2"
_cell_formula_units_Z 60
_cell_length_a 14.480158
_cell_length_b 34.801529
_cell_length_c 7.784157
_cell_angle_alpha 90.000000
_cell_angle_beta 90.000000
_cell_angle_gamma 90.000000
_cell_volume 3922.682992
_symmetry_space_group_name_H-M "C M M M"
_symmetry_group_IT_number 65
_symmetry_cell_setting 'orthorhombic'
loop_
_space_group_symop_operation_xyz
x,y,z
-x,-y,z
x,-y,-z
-x,y,-z
-x,-y,-z
x,y,-z
-x,y,z
x,-y,z
1/2+x,1/2+y,z
1/2-x,1/2-y,z
1/2+x,1/2-y,-z
1/2-x,1/2+y,-z
1/2-x,1/2-y,-z
1/2+x,1/2+y,-z
1/2-x,1/2+y,z
1/2+x,1/2-y,z
loop_
_atom_site_type_symbol
_atom_site_label
_atom_site_fract_x
_atom_site_fract_y
_atom_site_fract_z
Si Si1 0.500000 0.290423 0.692183
Si Si2 0.000000 0.730530 0.000000
Si Si3 0.605401 0.500000 0.795362
Si Si4 0.792914 0.706688 0.000000
Si Si5 0.189879 0.162267 0.701847
Si Si6 0.105976 0.916438 0.295194
O O1 0.500000 0.273807 0.500000
O O2 0.409427 0.316607 0.709620
O O3 0.500000 0.258043 0.834494
O O4 0.096490 0.708269 0.000000
O O5 0.500000 0.500000 0.724524
O O6 0.644723 0.541046 0.740105
O O7 0.601787 0.500000 0.000000
O O8 0.750000 0.750000 0.000000
O O9 0.756102 0.684783 0.830901
O O10 0.219040 0.162702 0.500000
O O11 0.169178 0.118775 0.763054
O O12 0.098825 0.911620 0.500000
O O13 0.000000 0.914227 0.225509
#
# Coordination Sequence:
#
# PCOD9484377 Si02
#       6
#     8   4   8   8  16  16
#     4  10  18  32  54  75  99 129 165 208 243 286
#     4  12  24  40  48  76  98 122 166 206 264 302
#     4   9  17  25  35  65  99 133 166 195 230 278
#     4  12  24  36  54  73  97 129 163 211 255 299
#     4  10  20  34  52  76 100 132 173 206 242 289
#     4   9  16  28  45  65  96 134 167 199 236 281
#
# _framework density 15.295654000000001
#
# number of rings (size 3 to 8) (size 9 to 14) (size 15 to 20)
#    0.000    2.000    4.000    0.400    1.867    3.200 
#    0.000    0.000    0.000    0.000    0.000    0.000 
#    0.000    2.133    0.000    6.000    0.000    0.000 
#
# Total GULP energy -167210.868024 kJ/mol
# GULP energy per Si atom -5573.695601 kJ/mol
# Density = 1.526084 g / cm^3
# Si number density = 15.295654 Si / 1000 Ang^3
#
#
#
# Elastic Constant Matrix: (Units=GPa)
#
#
# Indices 1 2 3 4 5 6 
#
# 1 73.0349 46.0962 34.7846 0.0000 0.0000 0.0000
# 2 46.0962 134.0906 51.6237 0.0000 0.0000 0.0000
# 3 34.7846 51.6237 71.7669 0.0000 0.0000 0.0000
# 4 0.0000 0.0000 0.0000 23.7083 0.0000 0.0000
# 5 0.0000 0.0000 0.0000 0.0000 14.5846 0.0000
# 6 0.0000 0.0000 0.0000 0.0000 0.0000 -0.0999
#
#
#
# Elastic Compliance Matrix: (Units=1/GPa)
#
#
# Indices 1 2 3 4 5 6 
#
# 1 0.019382 -0.004213 -0.006364 0.000000 0.000000 0.000000
# 2 -0.004213 0.011230 -0.006036 0.000000 0.000000 0.000000
# 3 -0.006364 -0.006036 0.021360 0.000000 0.000000 0.000000
# 4 0.000000 0.000000 0.000000 0.042179 0.000000 0.000000
# 5 0.000000 0.000000 0.000000 0.000000 0.068565 0.000000
# 6 0.000000 0.000000 0.000000 0.000000 0.000000-10.014922
#
#
# Mechanical properties :
#
#
# Convention : Reuss Voigt Hill
#
# Bulk Modulus (GPa) = 53.34248 60.43349 56.88798
# Shear Modulus (GPa) = -0.50954 17.39781 8.44414
#
# Velocity S-wave (km/s) = -0.57780 3.37625 2.35215
# Velocity P-wave (km/s) = 5.87408 7.40235 6.68205
#
# Compressibility (1/GPa) = 0.01874678
#
# Stress axis : x y z
#
# Youngs Moduli (GPa) = 51.59430 89.04999 46.81617
#
# Poissons Ratio (x) = 0.37516 0.29793
# Poissons Ratio (y) = 0.21736 0.28257
# Poissons Ratio (z) = 0.32833 0.53749
#
# Static dielectric constant tensor:
#      x y z
#    x 1.484540 0.000000 0.000000 
#    y 0.000000 1.541240 0.000000 
#    z 0.000000 0.000000 1.536350 
# 
# From -- ./inp_files/4809.got.cif
#   From: 2010.05.17/outbox.cif.g08.bks.cpg/sg65_3_cif.got.tgz:4809.got - 2010.06.03 17:01:31.
