data_PCOD9484888
_publ_section_title
;
Structure prediction by ZEFSAII (Michael W. Deem and Ramdas Pophale) SiO2 
 PCOD9484888
Probable space group: C M M M
;
_chemical_formula_sum "Si O2"
_cell_formula_units_Z 72
_cell_length_a 16.132041
_cell_length_b 29.619304
_cell_length_c 7.694546
_cell_angle_alpha 90.000000
_cell_angle_beta 90.000000
_cell_angle_gamma 90.000000
_cell_volume 3676.606635
_symmetry_space_group_name_H-M "C M M M"
_symmetry_group_IT_number 65
_symmetry_cell_setting 'orthorhombic'
loop_
_space_group_symop_operation_xyz
x,y,z
-x,-y,z
x,-y,-z
-x,y,-z
-x,-y,-z
x,y,-z
-x,y,z
x,-y,z
1/2+x,1/2+y,z
1/2-x,1/2-y,z
1/2+x,1/2-y,-z
1/2-x,1/2+y,-z
1/2-x,1/2-y,-z
1/2+x,1/2+y,-z
1/2-x,1/2+y,z
1/2+x,1/2-y,z
loop_
_atom_site_type_symbol
_atom_site_label
_atom_site_fract_x
_atom_site_fract_y
_atom_site_fract_z
Si Si1 0.500000 0.554851 0.801857
Si Si2 0.181881 0.948622 0.786927
Si Si3 0.592383 0.307178 0.796969
Si Si4 0.745421 0.858154 0.209786
Si Si5 0.592216 0.204511 0.294541
O O1 0.500000 0.500000 0.809468
O O2 0.410475 0.566215 0.725731
O O3 0.500000 0.572361 0.000000
O O4 0.246613 0.910321 0.735465
O O5 0.198279 0.000000 0.730783
O O6 0.177814 0.949646 0.000000
O O7 0.500000 0.315787 0.722104
O O8 0.671942 0.332766 0.723183
O O9 0.608469 0.253509 0.787476
O O10 0.587997 0.319838 0.000000
O O11 0.663312 0.831503 0.259655
O O12 0.748160 0.857288 0.000000
O O13 0.589983 0.212476 0.500000
O O14 0.500000 0.189645 0.237503
#
# Coordination Sequence:
#
# PCOD9484888 Si02
#       5
#     8  16  16  16  16
#     4   7  10  18  34  58  91 127 153 175 209 257
#     4   8  14  24  40  66  99 129 155 185 223 270
#     4   9  18  31  47  71 103 130 152 185 230 280
#     4  10  19  29  48  75  99 125 157 193 233 276
#     4  10  21  36  51  66  88 122 163 203 242 284
#
# _framework density 19.583275
#
# number of rings (size 3 to 8) (size 9 to 14) (size 15 to 20)
#    0.000    3.000    0.000    2.667    1.556    4.889 
#    0.000    0.000    0.000    1.333    0.000    4.667 
#    0.000    2.667    0.000    0.000    0.000    0.000 
#
# Total GULP energy -200703.008478 kJ/mol
# GULP energy per Si atom -5575.083569 kJ/mol
# Density = 1.953870 g / cm^3
# Si number density = 19.583275 Si / 1000 Ang^3
#
#
#
# Elastic Constant Matrix: (Units=GPa)
#
#
# Indices 1 2 3 4 5 6 
#
# 1 113.7668 82.9981 4.0895 0.0000 0.0000 0.0000
# 2 82.9981 99.4351 1.2704 0.0000 0.0000 0.0000
# 3 4.0895 1.2704 34.0587 0.0000 0.0000 0.0000
# 4 0.0000 0.0000 0.0000 -39.9015 0.0000 0.0000
# 5 0.0000 0.0000 0.0000 0.0000 -158.1732 0.0000
# 6 0.0000 0.0000 0.0000 0.0000 0.0000 26.3567
#
#
#
# Elastic Compliance Matrix: (Units=1/GPa)
#
#
# Indices 1 2 3 4 5 6 
#
# 1 0.022615 -0.018851 -0.002012 0.000000 0.000000 0.000000
# 2 -0.018851 0.025775 0.001302 0.000000 0.000000 0.000000
# 3 -0.002012 0.001302 0.029554 0.000000 0.000000 0.000000
# 4 0.000000 0.000000 0.000000 -0.025062 0.000000 0.000000
# 5 0.000000 0.000000 0.000000 0.000000 -0.006322 0.000000
# 6 0.000000 0.000000 0.000000 0.000000 0.000000 0.037941
#
#
# Mechanical properties :
#
#
# Convention : Reuss Voigt Hill
#
# Bulk Modulus (GPa) = 25.75874 47.10853 36.43363
# Shear Modulus (GPa) = 36.61316 -23.75010 6.43153
#
# Velocity S-wave (km/s) = 4.32859 -3.48627 1.81420
# Velocity P-wave (km/s) = 6.17773 2.81110 4.79930
#
# Compressibility (1/GPa) = 0.03882178
#
# Stress axis : x y z
#
# Youngs Moduli (GPa) = 44.21919 38.79774 33.83618
#
# Poissons Ratio (x) = 0.73136 0.06809
# Poissons Ratio (y) = 0.83356 -0.04406
# Poissons Ratio (z) = 0.08898 -0.05052
#
# Static dielectric constant tensor:
#      x y z
#    x 1.695990 0.000000 0.000000 
#    y 0.000000 1.688190 0.000000 
#    z 0.000000 0.000000 1.743560 
# 
# From -- ./inp_files/7640.got.cif
#   From: 2010.05.17/outbox.cif.g08.bks.cpg/sg65_4_cif.got.tgz:7640.got - 2010.06.03 17:01:31.
