data_PCOD9484091
_publ_section_title
;
Structure prediction by ZEFSAII (Michael W. Deem and Ramdas Pophale) SiO2 
 PCOD9484091
Probable space group: C M M M
;
_chemical_formula_sum "Si O2"
_cell_formula_units_Z 96
_cell_length_a 19.683642
_cell_length_b 20.861653
_cell_length_c 14.580026
_cell_angle_alpha 90.000000
_cell_angle_beta 90.000000
_cell_angle_gamma 90.000000
_cell_volume 5987.044324
_symmetry_space_group_name_H-M "C M M M"
_symmetry_group_IT_number 65
_symmetry_cell_setting 'orthorhombic'
loop_
_space_group_symop_operation_xyz
x,y,z
-x,-y,z
x,-y,-z
-x,y,-z
-x,-y,-z
x,y,-z
-x,y,z
x,-y,z
1/2+x,1/2+y,z
1/2-x,1/2-y,z
1/2+x,1/2-y,-z
1/2-x,1/2+y,-z
1/2-x,1/2-y,-z
1/2+x,1/2+y,-z
1/2-x,1/2+y,z
1/2+x,1/2-y,z
loop_
_atom_site_type_symbol
_atom_site_label
_atom_site_fract_x
_atom_site_fract_y
_atom_site_fract_z
Si Si1 0.419212 0.325223 0.603109
Si Si2 0.681630 0.207702 0.399634
Si Si3 0.207397 0.928302 0.108771
Si Si4 0.705760 0.816255 0.799261
Si Si5 0.077056 0.743592 0.108744
Si Si6 0.078216 0.117642 0.206679
O O1 0.404050 0.349303 0.500000
O O2 0.500000 0.313818 0.609632
O O3 0.378972 0.258841 0.614179
O O4 0.401782 0.371993 0.686820
O O5 0.673140 0.176290 0.500000
O O6 0.750000 0.250000 0.404634
O O7 0.689648 0.167840 0.306974
O O8 0.252324 0.872677 0.153734
O O9 0.132908 0.923831 0.153618
O O10 0.235081 0.000000 0.123603
O O11 0.202289 0.917171 0.000000
O O12 0.750000 0.750000 0.801508
O O13 0.635858 0.801036 0.851530
O O14 0.081253 0.811714 0.160565
O O15 0.000000 0.719093 0.122786
O O16 0.087019 0.753555 0.000000
O O17 0.000000 0.095371 0.201172
#
# Coordination Sequence:
#
# PCOD9484091 Si02
#       6
#    16  16  16  16  16  16
#     4   9  16  27  46  74 106 134 162 201 248 297
#     4   9  16  26  43  69  98 125 157 199 250 297
#     4  11  24  38  51  71 100 135 174 213 253 300
#     4  11  19  32  54  75  97 131 167 210 253 298
#     4  10  19  29  46  75 104 127 160 208 253 292
#     4  10  18  31  50  73 103 136 166 202 248 296
#
# _framework density 16.034623
#
# number of rings (size 3 to 8) (size 9 to 14) (size 15 to 20)
#    0.000    2.000    3.333    2.000    0.000    2.000 
#    0.000    0.833    0.000    2.500    0.000    4.667 
#    0.000    0.000    0.000    5.667    0.000    0.167 
#
# Total GULP energy -267518.441771 kJ/mol
# GULP energy per Si atom -5573.300870 kJ/mol
# Density = 1.599813 g / cm^3
# Si number density = 16.034623 Si / 1000 Ang^3
#
#
#
# Elastic Constant Matrix: (Units=GPa)
#
#
# Indices 1 2 3 4 5 6 
#
# 1 55.9719 24.9608 36.4583 0.0000 0.0000 0.0000
# 2 24.9608 57.4487 40.2357 0.0000 0.0000 0.0000
# 3 36.4583 40.2357 132.6446 0.0000 0.0000 0.0000
# 4 0.0000 0.0000 0.0000 -9.2666 0.0000 0.0000
# 5 0.0000 0.0000 0.0000 0.0000 26.8059 0.0000
# 6 0.0000 0.0000 0.0000 0.0000 0.0000 11.5685
#
#
#
# Elastic Compliance Matrix: (Units=1/GPa)
#
#
# Indices 1 2 3 4 5 6 
#
# 1 0.023993 -0.007372 -0.004358 0.000000 0.000000 0.000000
# 2 -0.007372 0.024368 -0.005365 0.000000 0.000000 0.000000
# 3 -0.004358 -0.005365 0.010364 0.000000 0.000000 0.000000
# 4 0.000000 0.000000 0.000000 -0.107914 0.000000 0.000000
# 5 0.000000 0.000000 0.000000 0.000000 0.037305 0.000000
# 6 0.000000 0.000000 0.000000 0.000000 0.000000 0.086442
#
#
# Mechanical properties :
#
#
# Convention : Reuss Voigt Hill
#
# Bulk Modulus (GPa) = 40.76106 49.93052 45.34579
# Shear Modulus (GPa) = 42.76203 15.44892 29.10547
#
# Velocity S-wave (km/s) = 5.16976 3.10735 4.26510
# Velocity P-wave (km/s) = 7.81736 6.63935 7.25231
#
# Compressibility (1/GPa) = 0.02453322
#
# Stress axis : x y z
#
# Youngs Moduli (GPa) = 41.67956 41.03810 96.48474
#
# Poissons Ratio (x) = 0.30253 0.42051
# Poissons Ratio (y) = 0.30726 0.51767
# Poissons Ratio (z) = 0.18165 0.22018
#
# Static dielectric constant tensor:
#      x y z
#    x 1.543460 0.000000 0.000000 
#    y 0.000000 1.500240 0.000000 
#    z 0.000000 0.000000 1.583790 
# 
# From -- ./inp_files/44530.got.cif
#   From: 2010.05.17/outbox.cif.g08.bks.cpg/sg65_23_cif.got.tgz:44530.got - 2010.06.03 17:01:31.
