data_PCOD9484652
_publ_section_title
;
Structure prediction by ZEFSAII (Michael W. Deem and Ramdas Pophale) SiO2 
 PCOD9484652
Probable space group: C M M M
;
_chemical_formula_sum "Si O2"
_cell_formula_units_Z 96
_cell_length_a 9.242535
_cell_length_b 26.827519
_cell_length_c 23.547809
_cell_angle_alpha 90.000000
_cell_angle_beta 90.000000
_cell_angle_gamma 90.000000
_cell_volume 5838.780104
_symmetry_space_group_name_H-M "C M M M"
_symmetry_group_IT_number 65
_symmetry_cell_setting 'orthorhombic'
loop_
_space_group_symop_operation_xyz
x,y,z
-x,-y,z
x,-y,-z
-x,y,-z
-x,-y,-z
x,y,-z
-x,y,z
x,-y,z
1/2+x,1/2+y,z
1/2-x,1/2-y,z
1/2+x,1/2-y,-z
1/2-x,1/2+y,-z
1/2-x,1/2-y,-z
1/2+x,1/2+y,-z
1/2-x,1/2+y,z
1/2+x,1/2-y,z
loop_
_atom_site_type_symbol
_atom_site_label
_atom_site_fract_x
_atom_site_fract_y
_atom_site_fract_z
Si Si1 0.659962 0.706262 0.738387
Si Si2 0.173708 0.302480 0.065403
Si Si3 0.326796 0.857782 0.174841
Si Si4 0.173535 0.557850 0.735486
Si Si5 0.163902 0.879313 0.355258
Si Si6 0.168172 0.697657 0.431796
O O1 0.500000 0.722670 0.754798
O O2 0.750000 0.750000 0.710697
O O3 0.749998 0.686591 0.791371
O O4 0.650617 0.661939 0.694060
O O5 0.250000 0.250000 0.080331
O O6 0.210791 0.346879 0.109305
O O7 0.000000 0.295200 0.068252
O O8 0.211858 0.314144 0.000000
O O9 0.500000 0.854114 0.179806
O O10 0.285385 0.907829 0.209797
O O11 0.206357 0.500000 0.745790
O O12 0.251937 0.577079 0.678220
O O13 0.000000 0.563260 0.727905
O O14 0.253273 0.849808 0.403294
O O15 0.000000 0.893009 0.373213
O O16 0.170363 0.691858 0.500000
O O17 0.250000 0.750000 0.419683
O O18 0.000000 0.700815 0.413048
#
# Coordination Sequence:
#
# PCOD9484652 Si02
#       6
#    16  16  16  16  16  16
#     4  10  19  28  40  62  91 120 149 183 225 272
#     4   9  17  28  42  62  90 123 156 189 225 269
#     4   9  17  29  45  64  87 117 152 189 230 278
#     4   9  18  33  52  71  91 118 153 195 244 294
#     4  10  20  32  48  70  95 124 157 194 236 282
#     4  10  20  33  50  73 102 135 167 196 227 268
#
# _framework density 16.441790000000001
#
# number of rings (size 3 to 8) (size 9 to 14) (size 15 to 20)
#    0.000    2.500    0.000    2.500    0.000    6.667 
#    0.000    0.000    0.000    1.000    0.000    7.000 
#    0.000    0.000    0.000   12.500    0.000   13.000 
#
# Total GULP energy -267228.258021 kJ/mol
# GULP energy per Si atom -5567.255375 kJ/mol
# Density = 1.640437 g / cm^3
# Si number density = 16.441790 Si / 1000 Ang^3
#
#
#
# Elastic Constant Matrix: (Units=GPa)
#
#
# Indices 1 2 3 4 5 6 
#
# 1 58.5147 41.6809 34.3632 0.0000 0.0000 0.0000
# 2 41.6809 82.7189 40.1843 0.0000 0.0000 0.0000
# 3 34.3632 40.1843 83.2003 0.0000 0.0000 0.0000
# 4 0.0000 0.0000 0.0000 28.4365 0.0000 0.0000
# 5 0.0000 0.0000 0.0000 0.0000 38.8536 0.0000
# 6 0.0000 0.0000 0.0000 0.0000 0.0000 20.3668
#
#
#
# Elastic Compliance Matrix: (Units=1/GPa)
#
#
# Indices 1 2 3 4 5 6 
#
# 1 0.029084 -0.011523 -0.006447 0.000000 0.000000 0.000000
# 2 -0.011523 0.020361 -0.005075 0.000000 0.000000 0.000000
# 3 -0.006447 -0.005075 0.017133 0.000000 0.000000 0.000000
# 4 0.000000 0.000000 0.000000 0.035166 0.000000 0.000000
# 5 0.000000 0.000000 0.000000 0.000000 0.025738 0.000000
# 6 0.000000 0.000000 0.000000 0.000000 0.000000 0.049100
#
#
# Mechanical properties :
#
#
# Convention : Reuss Voigt Hill
#
# Bulk Modulus (GPa) = 48.80817 50.76564 49.78691
# Shear Modulus (GPa) = 21.78665 24.74507 23.26586
#
# Velocity S-wave (km/s) = 3.64411 3.88366 3.76579
# Velocity P-wave (km/s) = 6.88883 7.14517 7.01817
#
# Compressibility (1/GPa) = 0.02048837
#
# Stress axis : x y z
#
# Youngs Moduli (GPa) = 34.38362 49.11426 58.36800
#
# Poissons Ratio (x) = 0.56595 0.37627
# Poissons Ratio (y) = 0.39621 0.29619
# Poissons Ratio (z) = 0.22166 0.24924
#
# Static dielectric constant tensor:
#      x y z
#    x 1.591790 0.000000 0.000000 
#    y 0.000000 1.487810 0.000000 
#    z 0.000000 0.000000 1.572480 
# 
# From -- ./inp_files/67831.got.cif
#   From: 2010.05.17/outbox.cif.g08.bks.cpg/sg65_34_cif.got.tgz:67831.got - 2010.06.03 17:01:31.
