data_PCOD9484948
_publ_section_title
;
Structure prediction by ZEFSAII (Michael W. Deem and Ramdas Pophale) SiO2 
 PCOD9484948
Probable space group: C M M M
;
_chemical_formula_sum "Si O2"
_cell_formula_units_Z 96
_cell_length_a 7.998230
_cell_length_b 28.588932
_cell_length_c 24.751459
_cell_angle_alpha 90.000000
_cell_angle_beta 90.000000
_cell_angle_gamma 90.000000
_cell_volume 5659.689743
_symmetry_space_group_name_H-M "C M M M"
_symmetry_group_IT_number 65
_symmetry_cell_setting 'orthorhombic'
loop_
_space_group_symop_operation_xyz
x,y,z
-x,-y,z
x,-y,-z
-x,y,-z
-x,-y,-z
x,y,-z
-x,y,z
x,-y,z
1/2+x,1/2+y,z
1/2-x,1/2-y,z
1/2+x,1/2-y,-z
1/2-x,1/2+y,-z
1/2-x,1/2-y,-z
1/2+x,1/2+y,-z
1/2-x,1/2+y,z
1/2+x,1/2-y,z
loop_
_atom_site_type_symbol
_atom_site_label
_atom_site_fract_x
_atom_site_fract_y
_atom_site_fract_z
Si Si1 0.698473 0.641870 0.835727
Si Si2 0.704063 0.054023 0.560902
Si Si3 0.202112 0.196417 0.939098
Si Si4 0.299494 0.052296 0.227489
Si Si5 0.300424 0.196815 0.729193
Si Si6 0.704535 0.892512 0.666106
O O1 0.500000 0.638951 0.840325
O O2 0.765806 0.662520 0.891930
O O3 0.760417 0.591009 0.817465
O O4 0.738874 0.677482 0.786905
O O5 0.757921 0.066368 0.500000
O O6 0.500000 0.054845 0.561014
O O7 0.762011 0.087885 0.608641
O O8 0.751943 0.000000 0.571638
O O9 0.250000 0.250000 0.926987
O O10 0.000000 0.194047 0.939506
O O11 0.261458 0.185497 0.000000
O O12 0.500000 0.049671 0.231114
O O13 0.241570 0.073262 0.285069
O O14 0.234520 0.000000 0.217704
O O15 0.500000 0.194370 0.730670
O O16 0.250000 0.250000 0.719710
O O17 0.242016 0.159419 0.684091
O O18 0.500000 0.892927 0.665240
#
# Coordination Sequence:
#
# PCOD9484948 Si02
#       6
#    16  16  16  16  16  16
#     4  10  19  30  46  67  90 114 141 176 214 255
#     4   8  12  18  32  56  83 108 135 170 211 253
#     4   9  18  31  46  65  88 113 140 171 210 255
#     4   9  17  29  45  64  88 118 148 178 213 254
#     4  10  19  30  44  62  86 115 145 177 214 257
#     4   8  14  24  38  57  82 112 142 172 211 255
#
# _framework density 16.962060999999999
#
# number of rings (size 3 to 8) (size 9 to 14) (size 15 to 20)
#    0.000    3.000    0.000    3.500    0.000    5.000 
#    0.000    0.000    0.000    1.000    0.000    3.500 
#    0.000   16.000    0.000   53.500    0.000   49.000 
#
# Total GULP energy -267441.150305 kJ/mol
# GULP energy per Si atom -5571.690631 kJ/mol
# Density = 1.692345 g / cm^3
# Si number density = 16.962061 Si / 1000 Ang^3
#
#
#
# Elastic Constant Matrix: (Units=GPa)
#
#
# Indices 1 2 3 4 5 6 
#
# 1 10.9784 5.7386 1.3056 0.0000 0.0000 0.0000
# 2 5.7386 159.1609 99.7202 0.0000 0.0000 0.0000
# 3 1.3056 99.7202 138.5021 0.0000 0.0000 0.0000
# 4 0.0000 0.0000 0.0000 25.6986 0.0000 0.0000
# 5 0.0000 0.0000 0.0000 0.0000 2.3672 0.0000
# 6 0.0000 0.0000 0.0000 0.0000 0.0000 19.7219
#
#
#
# Elastic Compliance Matrix: (Units=1/GPa)
#
#
# Indices 1 2 3 4 5 6 
#
# 1 0.093436 -0.005132 0.002814 0.000000 0.000000 0.000000
# 2 -0.005132 0.011728 -0.008396 0.000000 0.000000 0.000000
# 3 0.002814 -0.008396 0.013239 0.000000 0.000000 0.000000
# 4 0.000000 0.000000 0.000000 0.038913 0.000000 0.000000
# 5 0.000000 0.000000 0.000000 0.000000 0.422432 0.000000
# 6 0.000000 0.000000 0.000000 0.000000 0.000000 0.050705
#
#
# Mechanical properties :
#
#
# Convention : Reuss Voigt Hill
#
# Bulk Modulus (GPa) = 10.31193 58.01891 34.16542
# Shear Modulus (GPa) = 7.30775 23.01603 15.16189
#
# Velocity S-wave (km/s) = 2.07789 3.68763 2.99301
# Velocity P-wave (km/s) = 3.44231 7.23953 5.66834
#
# Compressibility (1/GPa) = 0.09697504
#
# Stress axis : x y z
#
# Youngs Moduli (GPa) = 10.70256 85.26347 75.53692
#
# Poissons Ratio (x) = 0.43759 -0.21259
# Poissons Ratio (y) = 0.05493 0.63420
# Poissons Ratio (z) = -0.03012 0.71587
#
# Static dielectric constant tensor:
#      x y z
#    x 1.618980 0.000000 0.000000 
#    y 0.000000 1.556250 0.000000 
#    z 0.000000 0.000000 1.581570 
# 
# From -- ./inp_files/68032.got.cif
#   From: 2010.05.17/outbox.cif.g08.bks.cpg/sg65_35_cif.got.tgz:68032.got - 2010.06.03 17:01:31.
