data_PCOD9484705
_publ_section_title
;
Structure prediction by ZEFSAII (Michael W. Deem and Ramdas Pophale) SiO2 
 PCOD9484705
Probable space group: C M M M
;
_chemical_formula_sum "Si O2"
_cell_formula_units_Z 72
_cell_length_a 18.488616
_cell_length_b 7.286457
_cell_length_c 25.092370
_cell_angle_alpha 90.000000
_cell_angle_beta 90.000000
_cell_angle_gamma 90.000000
_cell_volume 3380.356400
_symmetry_space_group_name_H-M "C M M M"
_symmetry_group_IT_number 65
_symmetry_cell_setting 'orthorhombic'
loop_
_space_group_symop_operation_xyz
x,y,z
-x,-y,z
x,-y,-z
-x,y,-z
-x,-y,-z
x,y,-z
-x,y,z
x,-y,z
1/2+x,1/2+y,z
1/2-x,1/2-y,z
1/2+x,1/2-y,-z
1/2-x,1/2+y,-z
1/2-x,1/2-y,-z
1/2+x,1/2+y,-z
1/2-x,1/2+y,z
1/2+x,1/2-y,z
loop_
_atom_site_type_symbol
_atom_site_label
_atom_site_fract_x
_atom_site_fract_y
_atom_site_fract_z
Si Si1 0.415517 0.223740 0.673221
Si Si2 0.335022 0.781636 0.778656
Si Si3 0.415647 0.224059 0.884078
Si Si4 0.413628 0.778746 0.442717
Si Si5 0.087462 0.717506 0.000000
O O1 0.500000 0.274629 0.678218
O O2 0.371550 0.288235 0.724418
O O3 0.386725 0.284731 0.615085
O O4 0.413746 0.000000 0.672615
O O5 0.250000 0.750000 0.778421
O O6 0.371030 0.712194 0.833118
O O7 0.347908 0.000000 0.778704
O O8 0.500000 0.274658 0.878286
O O9 0.388071 0.287592 0.942265
O O10 0.413852 0.000000 0.885196
O O11 0.384667 0.712077 0.500000
O O12 0.500000 0.740947 0.442408
O O13 0.406394 0.000000 0.443202
O O14 0.102416 0.500000 0.000000
O O15 0.000000 0.738398 0.000000
#
# Coordination Sequence:
#
# PCOD9484705 Si02
#       5
#    16  16  16  16   8
#     4   8  13  22  38  58  76  98 132 168 197 228
#     4  10  19  29  41  58  82 109 134 162 196 233
#     4   8  13  23  41  62  80 100 130 166 199 230
#     4   7   9  14  27  50  77  97 115 151 202 240
#     4   7  10  18  35  60  83  97 118 161 206 232
#
# _framework density 21.299531000000002
#
# number of rings (size 3 to 8) (size 9 to 14) (size 15 to 20)
#    0.000    3.889    0.000    4.000    0.000    2.667 
#    0.000    0.556    0.000    3.333    0.000    0.000 
#    0.000    2.667    0.000    5.556    0.000    4.444 
#
# Total GULP energy -200535.873968 kJ/mol
# GULP energy per Si atom -5570.440944 kJ/mol
# Density = 2.125105 g / cm^3
# Si number density = 21.299531 Si / 1000 Ang^3
#
#
#
# Elastic Constant Matrix: (Units=GPa)
#
#
# Indices 1 2 3 4 5 6 
#
# 1 59.0414 -5.0332 97.5778 0.0000 0.0000 0.0000
# 2 -5.0332 87.1023 14.5525 0.0000 0.0000 0.0000
# 3 97.5778 14.5525 322.0843 0.0000 0.0000 0.0000
# 4 0.0000 0.0000 0.0000 -22.3191 0.0000 0.0000
# 5 0.0000 0.0000 0.0000 0.0000 -6.3404 0.0000
# 6 0.0000 0.0000 0.0000 0.0000 0.0000 11.7832
#
#
#
# Elastic Compliance Matrix: (Units=1/GPa)
#
#
# Indices 1 2 3 4 5 6 
#
# 1 0.035152 0.003839 -0.010823 0.000000 0.000000 0.000000
# 2 0.003839 0.011987 -0.001705 0.000000 0.000000 0.000000
# 3 -0.010823 -0.001705 0.006461 0.000000 0.000000 0.000000
# 4 0.000000 0.000000 0.000000 -0.044805 0.000000 0.000000
# 5 0.000000 0.000000 0.000000 0.000000 -0.157719 0.000000
# 6 0.000000 0.000000 0.000000 0.000000 0.000000 0.084867
#
#
# Mechanical properties :
#
#
# Convention : Reuss Voigt Hill
#
# Bulk Modulus (GPa) = 27.60664 75.82468 51.71566
# Shear Modulus (GPa) = -144.48078 20.70014 -61.89032
#
# Velocity S-wave (km/s) = -8.24500 3.12085 -5.39631
# Velocity P-wave (km/s) = 8.81197 6.97587 3.80711
#
# Compressibility (1/GPa) = 0.03622317
#
# Stress axis : x y z
#
# Youngs Moduli (GPa) = 28.44820 83.42070 154.78243
#
# Poissons Ratio (x) = -0.32029 1.67520
# Poissons Ratio (y) = -0.10922 0.26387
# Poissons Ratio (z) = 0.30789 0.14222
#
# Static dielectric constant tensor:
#      x y z
#    x 1.679900 0.000000 0.000000 
#    y 0.000000 1.833970 0.000000 
#    z 0.000000 0.000000 1.834470 
# 
# From -- ./inp_files/68783.got.cif
#   From: 2010.05.17/outbox.cif.g08.bks.cpg/sg65_35_cif.got.tgz:68783.got - 2010.06.03 17:01:31.
