data_PCOD9484120
_publ_section_title
;
Structure prediction by ZEFSAII (Michael W. Deem and Ramdas Pophale) SiO2 
 PCOD9484120
Probable space group: C M M M
;
_chemical_formula_sum "Si O2"
_cell_formula_units_Z 72
_cell_length_a 17.731853
_cell_length_b 10.429510
_cell_length_c 22.874504
_cell_angle_alpha 90.000000
_cell_angle_beta 90.000000
_cell_angle_gamma 90.000000
_cell_volume 4230.285833
_symmetry_space_group_name_H-M "C M M M"
_symmetry_group_IT_number 65
_symmetry_cell_setting 'orthorhombic'
loop_
_space_group_symop_operation_xyz
x,y,z
-x,-y,z
x,-y,-z
-x,y,-z
-x,-y,-z
x,y,-z
-x,y,z
x,-y,z
1/2+x,1/2+y,z
1/2-x,1/2-y,z
1/2+x,1/2-y,-z
1/2-x,1/2+y,-z
1/2-x,1/2-y,-z
1/2+x,1/2+y,-z
1/2-x,1/2+y,z
1/2+x,1/2-y,z
loop_
_atom_site_type_symbol
_atom_site_label
_atom_site_fract_x
_atom_site_fract_y
_atom_site_fract_z
Si Si1 0.910545 0.349622 0.254803
Si Si2 0.180479 0.650754 0.628254
Si Si3 0.658803 0.750275 0.860590
Si Si4 0.317350 0.147805 0.500000
Si Si5 0.658881 0.000000 0.066827
Si Si6 0.657337 0.500000 0.932602
O O1 0.894005 0.500000 0.241268
O O2 0.874812 0.322861 0.318026
O O3 0.874771 0.264346 0.203827
O O4 0.000000 0.333716 0.256285
O O5 0.204306 0.500000 0.633296
O O6 0.250000 0.750000 0.631667
O O7 0.144093 0.664398 0.563282
O O8 0.750000 0.750000 0.856191
O O9 0.635519 0.873980 0.898251
O O10 0.634860 0.625166 0.896363
O O11 0.250000 0.250000 0.500000
O O12 0.289129 0.000000 0.500000
O O13 0.750728 0.000000 0.065342
O O14 0.632620 0.000000 0.000000
O O15 0.631521 0.500000 0.000000
#
# Coordination Sequence:
#
# PCOD9484120 Si02
#       6
#    16  16  16   8   8   8
#     4  10  20  34  50  69  98 134 170 205 241 283
#     4   9  17  31  52  77 102 130 164 203 244 288
#     4  10  18  31  51  74  98 126 161 199 245 294
#     4   8  14  26  47  75 103 127 157 198 244 288
#     4   9  16  28  49  75  99 122 155 198 241 293
#     4   9  18  30  49  77 101 120 151 204 257 293
#
# _framework density 17.020126000000001
#
# number of rings (size 3 to 8) (size 9 to 14) (size 15 to 20)
#    0.000    2.667    1.111    1.333    0.000    2.667 
#    2.000    1.111    0.000    7.333    0.000    0.000 
#    0.000    8.889    0.000    0.000    0.000    0.000 
#
# Total GULP energy -200450.511624 kJ/mol
# GULP energy per Si atom -5568.069767 kJ/mol
# Density = 1.698139 g / cm^3
# Si number density = 17.020126 Si / 1000 Ang^3
#
#
#
# Elastic Constant Matrix: (Units=GPa)
#
#
# Indices 1 2 3 4 5 6 
#
# 1 20.4882 23.4428 39.2613 0.0000 0.0000 0.0000
# 2 23.4428 105.8988 76.5426 0.0000 0.0000 0.0000
# 3 39.2613 76.5426 198.3806 0.0000 0.0000 0.0000
# 4 0.0000 0.0000 0.0000 27.5367 0.0000 0.0000
# 5 0.0000 0.0000 0.0000 0.0000 -5.2719 0.0000
# 6 0.0000 0.0000 0.0000 0.0000 0.0000 9.2891
#
#
#
# Elastic Compliance Matrix: (Units=1/GPa)
#
#
# Indices 1 2 3 4 5 6 
#
# 1 0.084623 -0.009191 -0.013201 0.000000 0.000000 0.000000
# 2 -0.009191 0.014093 -0.003619 0.000000 0.000000 0.000000
# 3 -0.013201 -0.003619 0.009050 0.000000 0.000000 0.000000
# 4 0.000000 0.000000 0.000000 0.036315 0.000000 0.000000
# 5 0.000000 0.000000 0.000000 0.000000 -0.189684 0.000000
# 6 0.000000 0.000000 0.000000 0.000000 0.000000 0.107653
#
#
# Mechanical properties :
#
#
# Convention : Reuss Voigt Hill
#
# Bulk Modulus (GPa) = 17.93932 67.02901 42.48416
# Shear Modulus (GPa) = 37.69221 18.67883 28.18552
#
# Velocity S-wave (km/s) = 4.71102 3.31638 4.07383
# Velocity P-wave (km/s) = 6.33677 7.35746 6.86611
#
# Compressibility (1/GPa) = 0.05574349
#
# Stress axis : x y z
#
# Youngs Moduli (GPa) = 11.81710 70.95647 110.50101
#
# Poissons Ratio (x) = 0.65218 1.45877
# Poissons Ratio (y) = 0.10861 0.39986
# Poissons Ratio (z) = 0.15600 0.25677
#
# Static dielectric constant tensor:
#      x y z
#    x 1.534640 0.000000 0.000000 
#    y 0.000000 1.577130 0.000000 
#    z 0.000000 0.000000 1.593690 
# 
# From -- ./inp_files/51289.got.cif
#   From: 2010.05.17/outbox.cif.g08.bks.cpg/sg65_26_cif.got.tgz:51289.got - 2010.06.03 17:01:31.
