data_PCOD9484885
_publ_section_title
;
Structure prediction by ZEFSAII (Michael W. Deem and Ramdas Pophale) SiO2 
 PCOD9484885
Probable space group: C M M M
;
_chemical_formula_sum "Si O2"
_cell_formula_units_Z 72
_cell_length_a 29.535143
_cell_length_b 7.487932
_cell_length_c 16.271336
_cell_angle_alpha 90.000000
_cell_angle_beta 90.000000
_cell_angle_gamma 90.000000
_cell_volume 3598.522173
_symmetry_space_group_name_H-M "C M M M"
_symmetry_group_IT_number 65
_symmetry_cell_setting 'orthorhombic'
loop_
_space_group_symop_operation_xyz
x,y,z
-x,-y,z
x,-y,-z
-x,y,-z
-x,-y,-z
x,y,-z
-x,y,z
x,-y,z
1/2+x,1/2+y,z
1/2-x,1/2-y,z
1/2+x,1/2-y,-z
1/2-x,1/2+y,-z
1/2-x,1/2-y,-z
1/2+x,1/2+y,-z
1/2-x,1/2+y,z
1/2+x,1/2-y,z
loop_
_atom_site_type_symbol
_atom_site_label
_atom_site_fract_x
_atom_site_fract_y
_atom_site_fract_z
Si Si1 0.802997 0.785236 0.821618
Si Si2 0.947774 0.218133 0.591652
Si Si3 0.052776 0.715272 0.908359
Si Si4 0.303734 0.712690 0.000000
Si Si5 0.609356 0.289353 0.744510
O O1 0.750000 0.750000 0.807232
O O2 0.818356 0.715635 0.911810
O O3 0.839994 0.717358 0.757793
O O4 0.806551 0.000000 0.825080
O O5 0.932695 0.271552 0.500000
O O6 0.918051 0.285071 0.667368
O O7 0.000000 0.272470 0.602320
O O8 0.947711 0.000000 0.593002
O O9 0.053334 0.500000 0.909166
O O10 0.081959 0.772641 0.830156
O O11 0.000000 0.770649 0.898829
O O12 0.068352 0.775354 0.000000
O O13 0.250000 0.750000 0.000000
O O14 0.311598 0.500000 0.000000
O O15 0.613801 0.500000 0.728287
#
# Coordination Sequence:
#
# PCOD9484885 Si02
#       5
#    16  16  16   8  16
#     4   9  18  30  44  63  89 119 153 194 235 275
#     4   8  14  26  45  70  98 122 146 184 235 286
#     4   9  19  34  47  63  94 132 161 184 221 280
#     4   8  14  26  40  54  77 108 141 181 224 261
#     4  10  19  29  48  74  94 117 156 202 240 272
#
# _framework density 20.008215
#
# number of rings (size 3 to 8) (size 9 to 14) (size 15 to 20)
#    0.000    3.111    0.000    2.000    1.556    2.667 
#    0.000    1.111    0.000    1.333    0.000    3.111 
#    0.000    0.000    0.000    0.000    0.000    0.000 
#
# Total GULP energy -200687.660648 kJ/mol
# GULP energy per Si atom -5574.657240 kJ/mol
# Density = 1.996268 g / cm^3
# Si number density = 20.008215 Si / 1000 Ang^3
#
#
#
# Elastic Constant Matrix: (Units=GPa)
#
#
# Indices 1 2 3 4 5 6 
#
# 1 114.9576 -0.2831 103.9318 0.0000 0.0000 0.0000
# 2 -0.2831 57.3788 0.5847 0.0000 0.0000 0.0000
# 3 103.9318 0.5847 166.8180 0.0000 0.0000 0.0000
# 4 0.0000 0.0000 0.0000 190.4470 0.0000 0.0000
# 5 0.0000 0.0000 0.0000 0.0000 28.3767 0.0000
# 6 0.0000 0.0000 0.0000 0.0000 0.0000 11.1642
#
#
#
# Elastic Compliance Matrix: (Units=1/GPa)
#
#
# Indices 1 2 3 4 5 6 
#
# 1 0.019921 0.000225 -0.012412 0.000000 0.000000 0.000000
# 2 0.000225 0.017431 -0.000201 0.000000 0.000000 0.000000
# 3 -0.012412 -0.000201 0.013728 0.000000 0.000000 0.000000
# 4 0.000000 0.000000 0.000000 0.005251 0.000000 0.000000
# 5 0.000000 0.000000 0.000000 0.000000 0.035240 0.000000
# 6 0.000000 0.000000 0.000000 0.000000 0.000000 0.089572
#
#
# Mechanical properties :
#
#
# Convention : Reuss Voigt Hill
#
# Bulk Modulus (GPa) = 38.01758 60.84681 49.43219
# Shear Modulus (GPa) = 23.28960 61.65897 42.47429
#
# Velocity S-wave (km/s) = 3.41545 5.55731 4.61243
# Velocity P-wave (km/s) = 5.88183 8.46494 7.28873
#
# Compressibility (1/GPa) = 0.02630362
#
# Stress axis : x y z
#
# Youngs Moduli (GPa) = 50.19817 57.36838 72.84215
#
# Poissons Ratio (x) = -0.01289 0.90412
# Poissons Ratio (y) = -0.01128 0.01465
# Poissons Ratio (z) = 0.62306 0.01154
#
# Static dielectric constant tensor:
#      x y z
#    x 1.710870 0.000000 0.000000 
#    y 0.000000 1.672470 0.000000 
#    z 0.000000 0.000000 1.720820 
# 
# From -- ./inp_files/36973.got.cif
#   From: 2010.05.17/outbox.cif.g08.bks.cpg/sg65_19_cif.got.tgz:36973.got - 2010.06.03 17:01:31.
