data_PCOD9484460
_publ_section_title
;
Structure prediction by ZEFSAII (Michael W. Deem and Ramdas Pophale) SiO2 
 PCOD9484460
Probable space group: C M M M
;
_chemical_formula_sum "Si O2"
_cell_formula_units_Z 90
_cell_length_a 9.016003
_cell_length_b 23.949322
_cell_length_c 23.279495
_cell_angle_alpha 90.000000
_cell_angle_beta 90.000000
_cell_angle_gamma 90.000000
_cell_volume 5026.675218
_symmetry_space_group_name_H-M "C M M M"
_symmetry_group_IT_number 65
_symmetry_cell_setting 'orthorhombic'
loop_
_space_group_symop_operation_xyz
x,y,z
-x,-y,z
x,-y,-z
-x,y,-z
-x,-y,-z
x,y,-z
-x,y,z
x,-y,z
1/2+x,1/2+y,z
1/2-x,1/2-y,z
1/2+x,1/2-y,-z
1/2-x,1/2+y,-z
1/2-x,1/2-y,-z
1/2+x,1/2+y,-z
1/2-x,1/2+y,z
1/2+x,1/2-y,z
loop_
_atom_site_type_symbol
_atom_site_label
_atom_site_fract_x
_atom_site_fract_y
_atom_site_fract_z
Si Si1 0.821363 0.000000 0.269670
Si Si2 0.762107 0.500000 0.595641
Si Si3 0.179322 0.687792 0.882019
Si Si4 0.166605 0.623368 0.434679
Si Si5 0.500000 0.500000 0.500000
Si Si6 0.821683 0.119588 0.220716
Si Si7 0.674500 0.690202 0.664094
Si Si8 0.180047 0.187734 0.000000
O O1 0.772944 0.000000 0.336288
O O2 0.776470 0.056357 0.236586
O O3 0.000000 0.000000 0.271351
O O4 0.839749 0.558309 0.581551
O O5 0.626050 0.500000 0.551204
O O6 0.250000 0.750000 0.872823
O O7 0.231084 0.648089 0.830421
O O8 0.000000 0.692223 0.886401
O O9 0.252525 0.664308 0.940919
O O10 0.221825 0.628466 0.500000
O O11 0.267883 0.655038 0.389735
O O12 0.000000 0.646619 0.431791
O O13 0.795597 0.155733 0.278017
O O14 0.000000 0.120817 0.208425
O O15 0.500000 0.697701 0.659192
O O16 0.750000 0.750000 0.666529
O O17 0.250000 0.250000 0.000000
O O18 0.500000 0.311393 0.000000
#
# Coordination Sequence:
#
# PCOD9484460 Si02
#       8
#     8   8  16  16   2  16  16   8
#     4  10  20  37  60  86 118 145 189 236 293 343
#     4  12  21  37  60  92 116 146 183 243 297 355
#     4  11  21  35  57  88 124 160 199 242 289 342
#     4  11  24  40  59  83 115 147 185 234 293 352
#     4  12  24  28  70  96 124 136 202 242 308 370
#     4  10  21  38  60  85 115 152 190 238 285 347
#     4  11  24  40  61  83 112 148 192 237 289 349
#     4  10  18  32  56  87 122 159 198 242 292 340
#
# _framework density 17.904478000000001
#
# number of rings (size 3 to 8) (size 9 to 14) (size 15 to 20)
#    0.000    1.244    3.111    4.800    1.244    4.267 
#    0.000    0.444    0.000    0.533    0.000    3.733 
#    0.000    0.000    0.000    0.000    0.000    0.000 
#
# Total GULP energy -250919.706228 kJ/mol
# GULP energy per Si atom -5575.993472 kJ/mol
# Density = 1.786373 g / cm^3
# Si number density = 17.904478 Si / 1000 Ang^3
#
#
#
# Elastic Constant Matrix: (Units=GPa)
#
#
# Indices 1 2 3 4 5 6 
#
# 1 109.1786 61.2796 93.2531 0.0000 0.0000 0.0000
# 2 61.2796 108.6728 71.5446 0.0000 0.0000 0.0000
# 3 93.2531 71.5446 163.4373 0.0000 0.0000 0.0000
# 4 0.0000 0.0000 0.0000 26.6552 0.0000 0.0000
# 5 0.0000 0.0000 0.0000 0.0000 30.8865 0.0000
# 6 0.0000 0.0000 0.0000 0.0000 0.0000 67.2885
#
#
#
# Elastic Compliance Matrix: (Units=1/GPa)
#
#
# Indices 1 2 3 4 5 6 
#
# 1 0.019778 -0.005231 -0.008995 0.000000 0.000000 0.000000
# 2 -0.005231 0.014311 -0.003280 0.000000 0.000000 0.000000
# 3 -0.008995 -0.003280 0.012687 0.000000 0.000000 0.000000
# 4 0.000000 0.000000 0.000000 0.037516 0.000000 0.000000
# 5 0.000000 0.000000 0.000000 0.000000 0.032377 0.000000
# 6 0.000000 0.000000 0.000000 0.000000 0.000000 0.014861
#
#
# Mechanical properties :
#
#
# Convention : Reuss Voigt Hill
#
# Bulk Modulus (GPa) = 85.00541 92.60483 88.80512
# Shear Modulus (GPa) = 29.33173 35.31348 32.32261
#
# Velocity S-wave (km/s) = 4.05190 4.44591 4.25347
# Velocity P-wave (km/s) = 8.33491 8.84244 8.59242
#
# Compressibility (1/GPa) = 0.01176396
#
# Stress axis : x y z
#
# Youngs Moduli (GPa) = 50.56016 69.87651 78.82182
#
# Poissons Ratio (x) = 0.36551 0.70902
# Poissons Ratio (y) = 0.26447 0.25854
# Poissons Ratio (z) = 0.45480 0.22920
#
# Static dielectric constant tensor:
#      x y z
#    x 1.649610 0.000000 0.000000 
#    y 0.000000 1.619450 0.000000 
#    z 0.000000 0.000000 1.618290 
# 
# From -- ./inp_files/59964.got.cif
#   From: 2010.05.17/outbox.cif.g08.bks.cpg/sg65_30_cif.got.tgz:59964.got - 2010.06.03 17:01:31.
