data_PCOD9484231
_publ_section_title
;
Structure prediction by ZEFSAII (Michael W. Deem and Ramdas Pophale) SiO2 
 PCOD9484231
Probable space group: C M M M
;
_chemical_formula_sum "Si O2"
_cell_formula_units_Z 58
_cell_length_a 26.319682
_cell_length_b 7.929023
_cell_length_c 14.294379
_cell_angle_alpha 90.000000
_cell_angle_beta 90.000000
_cell_angle_gamma 90.000000
_cell_volume 2983.084861
_symmetry_space_group_name_H-M "C M M M"
_symmetry_group_IT_number 65
_symmetry_cell_setting 'orthorhombic'
loop_
_space_group_symop_operation_xyz
x,y,z
-x,-y,z
x,-y,-z
-x,y,-z
-x,-y,-z
x,y,-z
-x,y,z
x,-y,z
1/2+x,1/2+y,z
1/2-x,1/2-y,z
1/2+x,1/2-y,-z
1/2-x,1/2+y,-z
1/2-x,1/2-y,-z
1/2+x,1/2+y,-z
1/2-x,1/2+y,z
1/2+x,1/2-y,z
loop_
_atom_site_type_symbol
_atom_site_label
_atom_site_fract_x
_atom_site_fract_y
_atom_site_fract_z
Si Si1 0.190688 0.299776 0.500000
Si Si2 0.441414 0.202389 0.000000
Si Si3 0.908067 0.201626 0.794924
Si Si4 0.191210 0.803307 0.297304
Si Si5 0.500000 0.500000 0.500000
Si Si6 0.000000 0.304393 0.660225
O O1 0.186062 0.500000 0.500000
O O2 0.250000 0.250000 0.500000
O O3 0.171037 0.228354 0.597163
O O4 0.417929 0.266381 0.096354
O O5 0.500000 0.256229 0.000000
O O6 0.439270 0.000000 0.000000
O O7 0.852041 0.270363 0.768875
O O8 0.950962 0.281092 0.728134
O O9 0.909908 0.000000 0.777953
O O10 0.250000 0.750000 0.289883
O O11 0.192967 0.000000 0.280173
O O12 0.500000 0.653730 0.582688
O O13 0.000000 0.500000 0.624528
#
# Coordination Sequence:
#
# PCOD9484231 Si02
#       6
#     8   8  16  16   2   8
#     4  10  18  31  54  81 114 158 209 255 303 363
#     4  11  23  39  66  99 123 158 221 275 322 400
#     4  11  23  42  66  95 131 171 215 272 335 389
#     4  10  21  37  60  88 125 167 214 264 321 384
#     4  12  26  48  64  96 148 172 222 272 344 382
#     4  12  25  44  70  97 133 180 223 269 330 401
#
# _framework density 19.442959999999999
#
# number of rings (size 3 to 8) (size 9 to 14) (size 15 to 20)
#    0.000    1.241    2.759    5.172    0.000    6.069 
#    0.000    0.690    0.000    0.000    0.000    0.000 
#    0.000    0.000    0.000    0.000    0.000    0.000 
#
# Total GULP energy -161515.200671 kJ/mol
# GULP energy per Si atom -5569.489678 kJ/mol
# Density = 1.939871 g / cm^3
# Si number density = 19.442960 Si / 1000 Ang^3
#
#
#
# Elastic Constant Matrix: (Units=GPa)
#
#
# Indices 1 2 3 4 5 6 
#
# 1 131.0213 30.7038 78.3814 0.0000 0.0000 0.0000
# 2 30.7038 79.6283 17.9144 0.0000 0.0000 0.0000
# 3 78.3814 17.9144 140.5126 0.0000 0.0000 0.0000
# 4 0.0000 0.0000 0.0000 25.6066 0.0000 0.0000
# 5 0.0000 0.0000 0.0000 0.0000 25.0820 0.0000
# 6 0.0000 0.0000 0.0000 0.0000 0.0000 15.9640
#
#
#
# Elastic Compliance Matrix: (Units=1/GPa)
#
#
# Indices 1 2 3 4 5 6 
#
# 1 0.012232 -0.003275 -0.006406 0.000000 0.000000 0.000000
# 2 -0.003275 0.013806 0.000067 0.000000 0.000000 0.000000
# 3 -0.006406 0.000067 0.010682 0.000000 0.000000 0.000000
# 4 0.000000 0.000000 0.000000 0.039052 0.000000 0.000000
# 5 0.000000 0.000000 0.000000 0.000000 0.039869 0.000000
# 6 0.000000 0.000000 0.000000 0.000000 0.000000 0.062641
#
#
# Mechanical properties :
#
#
# Convention : Reuss Voigt Hill
#
# Bulk Modulus (GPa) = 57.17109 67.24015 62.20562
# Shear Modulus (GPa) = 24.58920 28.27471 26.43195
#
# Velocity S-wave (km/s) = 3.56010 3.81759 3.69109
# Velocity P-wave (km/s) = 6.80936 7.35461 7.08723
#
# Compressibility (1/GPa) = 0.01749136
#
# Stress axis : x y z
#
# Youngs Moduli (GPa) = 81.75249 72.43087 93.61937
#
# Poissons Ratio (x) = 0.23724 0.59970
# Poissons Ratio (y) = 0.26777 -0.00626
# Poissons Ratio (z) = 0.52369 -0.00485
#
# Static dielectric constant tensor:
#      x y z
#    x 1.730700 0.000000 0.000000 
#    y 0.000000 1.701990 0.000000 
#    z 0.000000 0.000000 1.570950 
# 
# From -- ./inp_files/31801.got.cif
#   From: 2010.05.17/outbox.cif.g08.bks.cpg/sg65_16_cif.got.tgz:31801.got - 2010.06.03 17:01:31.
