data_PCOD9484784
_publ_section_title
;
Structure prediction by ZEFSAII (Michael W. Deem and Ramdas Pophale) SiO2 
 PCOD9484784
Probable space group: C M M M
;
_chemical_formula_sum "Si O2"
_cell_formula_units_Z 112
_cell_length_a 18.873300
_cell_length_b 20.883165
_cell_length_c 13.040556
_cell_angle_alpha 90.000000
_cell_angle_beta 90.000000
_cell_angle_gamma 90.000000
_cell_volume 5139.729602
_symmetry_space_group_name_H-M "C M M M"
_symmetry_group_IT_number 65
_symmetry_cell_setting 'orthorhombic'
loop_
_space_group_symop_operation_xyz
x,y,z
-x,-y,z
x,-y,-z
-x,y,-z
-x,-y,-z
x,y,-z
-x,y,z
x,-y,z
1/2+x,1/2+y,z
1/2-x,1/2-y,z
1/2+x,1/2-y,-z
1/2-x,1/2+y,-z
1/2-x,1/2-y,-z
1/2+x,1/2+y,-z
1/2-x,1/2+y,z
1/2+x,1/2-y,z
loop_
_atom_site_type_symbol
_atom_site_label
_atom_site_fract_x
_atom_site_fract_y
_atom_site_fract_z
Si Si1 0.583494 0.210003 0.607864
Si Si2 0.583969 0.742056 0.830298
Si Si3 0.424658 0.426193 0.623801
Si Si4 0.722207 0.317879 0.836325
Si Si5 0.773336 0.867883 0.380588
Si Si6 0.640578 0.117998 0.110751
Si Si7 0.869238 0.430123 0.665255
O O1 0.615770 0.232722 0.500000
O O2 0.500000 0.219724 0.602668
O O3 0.603848 0.246014 0.710610
O O4 0.596928 0.134220 0.618991
O O5 0.500000 0.730415 0.843324
O O6 0.638725 0.686075 0.861215
O O7 0.604220 0.811309 0.878810
O O8 0.427207 0.426821 0.500000
O O9 0.500000 0.397207 0.659517
O O10 0.421964 0.500000 0.657780
O O11 0.351561 0.392514 0.646580
O O12 0.750000 0.250000 0.875340
O O13 0.741316 0.321190 0.714472
O O14 0.774344 0.370607 0.882936
O O15 0.770326 0.847272 0.500000
O O16 0.713302 0.922232 0.366082
O O17 0.621542 0.078556 0.212230
O O18 0.621419 0.090863 0.000000
O O19 0.895445 0.500000 0.633240
#
# Coordination Sequence:
#
# PCOD9484784 Si02
#       7
#    16  16  16  16  16  16  16
#     4   9  18  32  48  67  96 133 164 188 220 265
#     4   9  18  32  50  73  97 121 156 196 228 268
#     4   8  14  25  40  58  83 116 150 181 216 259
#     4   9  19  32  46  67  93 123 155 186 226 274
#     4  10  19  29  43  66  96 126 156 190 223 259
#     4   9  19  36  53  68  91 120 149 189 242 293
#     4  10  20  32  48  71  94 118 155 198 235 275
#
# _framework density 21.791029999999999
#
# number of rings (size 3 to 8) (size 9 to 14) (size 15 to 20)
#    0.000    2.857    0.000    2.143    0.000    6.571 
#    0.000    0.714    0.000    0.000    0.000    4.000 
#    0.000    0.000    0.000   15.143    0.000    0.571 
#
# Total GULP energy -312017.282359 kJ/mol
# GULP energy per Si atom -5571.737185 kJ/mol
# Density = 2.174143 g / cm^3
# Si number density = 21.791030 Si / 1000 Ang^3
#
#
#
# Elastic Constant Matrix: (Units=GPa)
#
#
# Indices 1 2 3 4 5 6 
#
# 1 63.7763 -11.7299 4.5909 0.0000 0.0000 0.0000
# 2 -11.7299 28.8490 -3.2479 0.0000 0.0000 0.0000
# 3 4.5909 -3.2479 111.6742 0.0000 0.0000 0.0000
# 4 0.0000 0.0000 0.0000 -3.7074 0.0000 0.0000
# 5 0.0000 0.0000 0.0000 0.0000 3.6568 0.0000
# 6 0.0000 0.0000 0.0000 0.0000 0.0000 15.5280
#
#
#
# Elastic Compliance Matrix: (Units=1/GPa)
#
#
# Indices 1 2 3 4 5 6 
#
# 1 0.016975 0.006846 -0.000499 0.000000 0.000000 0.000000
# 2 0.006846 0.037538 0.000810 0.000000 0.000000 0.000000
# 3 -0.000499 0.000810 0.008999 0.000000 0.000000 0.000000
# 4 0.000000 0.000000 0.000000 -0.269731 0.000000 0.000000
# 5 0.000000 0.000000 0.000000 0.000000 0.273464 0.000000
# 6 0.000000 0.000000 0.000000 0.000000 0.000000 0.064400
#
#
# Mechanical properties :
#
#
# Convention : Reuss Voigt Hill
#
# Bulk Modulus (GPa) = 12.84918 20.39174 16.62046
# Shear Modulus (GPa) = 34.89875 17.40790 26.15333
#
# Velocity S-wave (km/s) = 4.00624 2.82947 3.46813
# Velocity P-wave (km/s) = 5.22583 4.47803 4.86631
#
# Compressibility (1/GPa) = 0.07782599
#
# Stress axis : x y z
#
# Youngs Moduli (GPa) = 58.91088 26.63976 111.12731
#
# Poissons Ratio (x) = -0.18237 0.05542
# Poissons Ratio (y) = -0.40329 -0.09005
# Poissons Ratio (z) = 0.02938 -0.02159
#
# Static dielectric constant tensor:
#      x y z
#    x 1.874630 0.000000 0.000000 
#    y 0.000000 1.780730 0.000000 
#    z 0.000000 0.000000 1.865180 
# 
# From -- ./inp_files/29399.got.cif
#   From: 2010.05.17/outbox.cif.g08.bks.cpg/sg65_15_cif.got.tgz:29399.got - 2010.06.03 17:01:31.
