data_PCOD9484553
_publ_section_title
;
Structure prediction by ZEFSAII (Michael W. Deem and Ramdas Pophale) SiO2 
 PCOD9484553
Probable space group: C M M M
;
_chemical_formula_sum "Si O2"
_cell_formula_units_Z 104
_cell_length_a 24.104507
_cell_length_b 9.015176
_cell_length_c 29.030139
_cell_angle_alpha 90.000000
_cell_angle_beta 90.000000
_cell_angle_gamma 90.000000
_cell_volume 6308.434214
_symmetry_space_group_name_H-M "C M M M"
_symmetry_group_IT_number 65
_symmetry_cell_setting 'orthorhombic'
loop_
_space_group_symop_operation_xyz
x,y,z
-x,-y,z
x,-y,-z
-x,y,-z
-x,-y,-z
x,y,-z
-x,y,z
x,-y,z
1/2+x,1/2+y,z
1/2-x,1/2-y,z
1/2+x,1/2-y,-z
1/2-x,1/2+y,-z
1/2-x,1/2-y,-z
1/2+x,1/2+y,-z
1/2-x,1/2+y,z
1/2+x,1/2-y,z
loop_
_atom_site_type_symbol
_atom_site_label
_atom_site_fract_x
_atom_site_fract_y
_atom_site_fract_z
Si Si1 0.000000 0.325066 0.207246
Si Si2 0.886918 0.174609 0.360894
Si Si3 0.000000 0.171028 0.303403
Si Si4 0.615772 0.321179 0.188201
Si Si5 0.689113 0.678189 0.000000
Si Si6 0.310840 0.678772 0.899336
Si Si7 0.064280 0.321515 0.552542
Si Si8 0.310345 0.679425 0.277443
O O1 0.000000 0.282459 0.261206
O O2 0.944131 0.252924 0.187658
O O3 0.000000 0.500000 0.200615
O O4 0.945019 0.190242 0.333526
O O5 0.895346 0.257137 0.408950
O O6 0.839387 0.225716 0.325470
O O7 0.878562 0.000000 0.369597
O O8 0.000000 0.000000 0.285615
O O9 0.609615 0.500000 0.188547
O O10 0.651139 0.277252 0.143431
O O11 0.649576 0.280574 0.234635
O O12 0.750000 0.750000 0.000000
O O13 0.664741 0.719038 0.949980
O O14 0.694103 0.500000 0.000000
O O15 0.304938 0.500000 0.897636
O O16 0.250000 0.750000 0.895183
O O17 0.077759 0.277167 0.500000
O O18 0.065227 0.500000 0.554561
O O19 0.000000 0.275127 0.561512
O O20 0.306131 0.500000 0.277514
O O21 0.250000 0.750000 0.271960
#
# Coordination Sequence:
#
# PCOD9484553 Si02
#       8
#     8  16   8  16   8  16  16  16
#     4  12  24  34  50  76 100 128 169 213 247 290
#     4  10  19  32  52  74  98 131 164 200 240 289
#     4  10  18  34  53  71 101 134 164 200 246 300
#     4  10  20  36  53  70 100 139 167 199 250 302
#     4   8  14  26  44  73 102 127 167 210 248 296
#     4   9  17  29  50  75 103 136 168 207 254 298
#     4   9  18  31  47  72 105 133 158 197 248 294
#     4  10  21  35  51  72  99 130 166 203 243 292
#
# _framework density 16.485866000000001
#
# number of rings (size 3 to 8) (size 9 to 14) (size 15 to 20)
#    0.000    2.308    2.308    1.615    0.000    2.769 
#    0.000    0.769    0.000    0.923    0.000    3.231 
#    0.000    0.000    0.000    0.000    0.000    0.000 
#
# Total GULP energy -289848.462003 kJ/mol
# GULP energy per Si atom -5574.008885 kJ/mol
# Density = 1.644834 g / cm^3
# Si number density = 16.485866 Si / 1000 Ang^3
#
#
#
# Elastic Constant Matrix: (Units=GPa)
#
#
# Indices 1 2 3 4 5 6 
#
# 1 106.0184 32.6581 63.9705 0.0000 0.0000 0.0000
# 2 32.6581 19.4284 38.3671 0.0000 0.0000 0.0000
# 3 63.9705 38.3671 152.4562 0.0000 0.0000 0.0000
# 4 0.0000 0.0000 0.0000 18.7536 0.0000 0.0000
# 5 0.0000 0.0000 0.0000 0.0000 19.7240 0.0000
# 6 0.0000 0.0000 0.0000 0.0000 0.0000 25.5308
#
#
#
# Elastic Compliance Matrix: (Units=1/GPa)
#
#
# Indices 1 2 3 4 5 6 
#
# 1 0.019562 -0.033147 0.000133 0.000000 0.000000 0.000000
# 2 -0.033147 0.158488 -0.025977 0.000000 0.000000 0.000000
# 3 0.000133 -0.025977 0.013041 0.000000 0.000000 0.000000
# 4 0.000000 0.000000 0.000000 0.053323 0.000000 0.000000
# 5 0.000000 0.000000 0.000000 0.000000 0.050700 0.000000
# 6 0.000000 0.000000 0.000000 0.000000 0.000000 0.039168
#
#
# Mechanical properties :
#
#
# Convention : Reuss Voigt Hill
#
# Bulk Modulus (GPa) = 13.67794 60.87718 37.27756
# Shear Modulus (GPa) = 10.49027 22.32880 16.40953
#
# Velocity S-wave (km/s) = 2.52527 3.68424 3.15837
# Velocity P-wave (km/s) = 4.10091 7.42329 5.99678
#
# Compressibility (1/GPa) = 0.07311044
#
# Stress axis : x y z
#
# Youngs Moduli (GPa) = 51.11823 6.30964 76.68360
#
# Poissons Ratio (x) = 0.20914 -0.01022
# Poissons Ratio (y) = 1.69441 1.99198
# Poissons Ratio (z) = -0.00681 0.16390
#
# Static dielectric constant tensor:
#      x y z
#    x 1.516210 0.000000 0.000000 
#    y 0.000000 1.553460 0.000000 
#    z 0.000000 0.000000 1.579860 
# 
# From -- ./inp_files/75808.got.cif
#   From: 2010.05.17/outbox.cif.g08.bks.cpg/sg65_38_cif.got.tgz:75808.got - 2010.06.03 17:01:31.
