data_PCOD9484451
_publ_section_title
;
Structure prediction by ZEFSAII (Michael W. Deem and Ramdas Pophale) SiO2 
 PCOD9484451
Probable space group: C M M M
;
_chemical_formula_sum "Si O2"
_cell_formula_units_Z 96
_cell_length_a 24.250903
_cell_length_b 17.778250
_cell_length_c 13.040577
_cell_angle_alpha 90.000000
_cell_angle_beta 90.000000
_cell_angle_gamma 90.000000
_cell_volume 5622.296323
_symmetry_space_group_name_H-M "C M M M"
_symmetry_group_IT_number 65
_symmetry_cell_setting 'orthorhombic'
loop_
_space_group_symop_operation_xyz
x,y,z
-x,-y,z
x,-y,-z
-x,y,-z
-x,-y,-z
x,y,-z
-x,y,z
x,-y,z
1/2+x,1/2+y,z
1/2-x,1/2-y,z
1/2+x,1/2-y,-z
1/2-x,1/2+y,-z
1/2-x,1/2-y,-z
1/2+x,1/2+y,-z
1/2-x,1/2+y,z
1/2+x,1/2-y,z
loop_
_atom_site_type_symbol
_atom_site_label
_atom_site_fract_x
_atom_site_fract_y
_atom_site_fract_z
Si Si1 0.329189 0.909188 0.309113
Si Si2 0.064208 0.844297 0.304172
Si Si3 0.239404 0.591522 0.884575
Si Si4 0.866918 0.909695 0.879681
Si Si5 0.372944 0.410055 0.500000
Si Si6 0.937647 0.326586 0.376964
Si Si7 0.246607 0.591538 0.500000
O O1 0.303149 0.883168 0.201638
O O2 0.389363 0.877885 0.333002
O O3 0.287428 0.885480 0.399650
O O4 0.331014 0.000000 0.309103
O O5 0.093556 0.867873 0.199038
O O6 0.095717 0.882714 0.398845
O O7 0.066568 0.755345 0.325924
O O8 0.000000 0.866932 0.303656
O O9 0.238218 0.500000 0.885687
O O10 0.302841 0.611150 0.859688
O O11 0.226619 0.617345 0.000000
O O12 0.871848 0.000000 0.864293
O O13 0.878245 0.894804 0.000000
O O14 0.371652 0.500000 0.500000
O O15 0.309624 0.382038 0.500000
O O16 0.930652 0.318703 0.500000
O O17 0.000000 0.355506 0.359383
O O18 0.248103 0.500000 0.500000
#
# Coordination Sequence:
#
# PCOD9484451 Si02
#       7
#    16  16  16  16   8  16   8
#     4  10  18  32  56  82 104 129 170 215 257 312
#     4  11  22  36  51  70 102 142 176 212 260 307
#     4   8  15  30  53  79 107 137 165 203 260 313
#     4   9  18  34  56  80 105 136 176 218 255 295
#     4  11  21  33  51  74 102 135 171 208 250 306
#     4  10  21  38  54  71 104 142 173 212 263 312
#     4   9  18  30  47  76 106 127 154 209 270 305
#
# _framework density 17.074873
#
# number of rings (size 3 to 8) (size 9 to 14) (size 15 to 20)
#    0.000    2.333    1.667    2.750    0.000    5.000 
#    0.000    6.667    0.000    3.500    0.000    2.333 
#    0.000    0.000    0.000    0.000    0.000    0.000 
#
# Total GULP energy -267737.539281 kJ/mol
# GULP energy per Si atom -5577.865402 kJ/mol
# Density = 1.703601 g / cm^3
# Si number density = 17.074873 Si / 1000 Ang^3
#
#
#
# Elastic Constant Matrix: (Units=GPa)
#
#
# Indices 1 2 3 4 5 6 
#
# 1 168.8944 41.6084 109.1222 0.0000 0.0000 0.0000
# 2 41.6084 19.2754 30.7481 0.0000 0.0000 0.0000
# 3 109.1222 30.7481 125.5667 0.0000 0.0000 0.0000
# 4 0.0000 0.0000 0.0000 18.6634 0.0000 0.0000
# 5 0.0000 0.0000 0.0000 0.0000 17.8669 0.0000
# 6 0.0000 0.0000 0.0000 0.0000 0.0000 52.8541
#
#
#
# Elastic Compliance Matrix: (Units=1/GPa)
#
#
# Indices 1 2 3 4 5 6 
#
# 1 0.018118 -0.022963 -0.010122 0.000000 0.000000 0.000000
# 2 -0.022963 0.114239 -0.008019 0.000000 0.000000 0.000000
# 3 -0.010122 -0.008019 0.018724 0.000000 0.000000 0.000000
# 4 0.000000 0.000000 0.000000 0.053581 0.000000 0.000000
# 5 0.000000 0.000000 0.000000 0.000000 0.055969 0.000000
# 6 0.000000 0.000000 0.000000 0.000000 0.000000 0.018920
#
#
# Mechanical properties :
#
#
# Convention : Reuss Voigt Hill
#
# Bulk Modulus (GPa) = 14.51935 75.18820 44.85378
# Shear Modulus (GPa) = 12.99663 26.69407 19.84535
#
# Velocity S-wave (km/s) = 2.76190 3.95822 3.41288
# Velocity P-wave (km/s) = 4.32349 8.06350 6.46964
#
# Compressibility (1/GPa) = 0.06887359
#
# Stress axis : x y z
#
# Youngs Moduli (GPa) = 55.19475 8.75358 53.40793
#
# Poissons Ratio (x) = 0.20101 0.54059
# Poissons Ratio (y) = 1.26742 0.42826
# Poissons Ratio (z) = 0.55868 0.07019
#
# Static dielectric constant tensor:
#      x y z
#    x 1.566220 0.000000 0.000000 
#    y 0.000000 1.570160 0.000000 
#    z 0.000000 0.000000 1.569440 
# 
# From -- ./inp_files/29053.got.cif
#   From: 2010.05.17/outbox.cif.g08.bks.cpg/sg65_15_cif.got.tgz:29053.got - 2010.06.03 17:01:31.
