data_PCOD9484811
_publ_section_title
;
Structure prediction by ZEFSAII (Michael W. Deem and Ramdas Pophale) SiO2 
 PCOD9484811
Probable space group: C M M M
;
_chemical_formula_sum "Si O2"
_cell_formula_units_Z 80
_cell_length_a 14.884799
_cell_length_b 29.538533
_cell_length_c 11.959374
_cell_angle_alpha 90.000000
_cell_angle_beta 90.000000
_cell_angle_gamma 90.000000
_cell_volume 5258.239276
_symmetry_space_group_name_H-M "C M M M"
_symmetry_group_IT_number 65
_symmetry_cell_setting 'orthorhombic'
loop_
_space_group_symop_operation_xyz
x,y,z
-x,-y,z
x,-y,-z
-x,y,-z
-x,-y,-z
x,y,-z
-x,y,z
x,-y,z
1/2+x,1/2+y,z
1/2-x,1/2-y,z
1/2+x,1/2-y,-z
1/2-x,1/2+y,-z
1/2-x,1/2-y,-z
1/2+x,1/2+y,-z
1/2-x,1/2+y,z
1/2+x,1/2-y,z
loop_
_atom_site_type_symbol
_atom_site_label
_atom_site_fract_x
_atom_site_fract_y
_atom_site_fract_z
Si Si1 0.178762 0.554540 0.239489
Si Si2 0.395041 0.944903 0.000000
Si Si3 0.000000 0.555083 0.373474
Si Si4 0.500000 0.657491 0.635244
Si Si5 0.307077 0.382224 0.635130
Si Si6 0.307045 0.206562 0.635501
Si Si7 0.000000 0.263000 0.363442
O O1 0.184768 0.500000 0.242700
O O2 0.156894 0.568571 0.112442
O O3 0.265422 0.576391 0.296583
O O4 0.090718 0.568486 0.310817
O O5 0.500000 0.930227 0.000000
O O6 0.398383 0.000000 0.000000
O O7 0.000000 0.500000 0.375454
O O8 0.000000 0.572131 0.500000
O O9 0.500000 0.659537 0.500000
O O10 0.591436 0.631742 0.666131
O O11 0.500000 0.710124 0.671747
O O12 0.303314 0.389789 0.500000
O O13 0.243579 0.339440 0.663394
O O14 0.308215 0.208339 0.500000
O O15 0.250000 0.250000 0.673479
O O16 0.409280 0.212284 0.673643
O O17 0.000000 0.262750 0.500000
#
# Coordination Sequence:
#
# PCOD9484811 Si02
#       7
#    16   8   8   8  16  16   8
#     4  10  19  31  48  69  94 123 158 196 232 278
#     4   9  16  32  54  69  84 117 163 201 235 277
#     4   9  16  26  42  65  96 128 146 171 224 278
#     4   9  16  28  44  61  89 132 168 190 222 280
#     4  10  19  29  44  68  98 129 160 192 235 286
#     4   9  15  24  39  61  90 124 159 193 227 273
#     4   9  14  23  40  59  87 124 159 194 227 264
#
# _framework density 15.214218000000001
#
# number of rings (size 3 to 8) (size 9 to 14) (size 15 to 20)
#    0.000    2.600    3.000    0.600    0.000    2.000 
#    0.000    2.500    0.000    2.400    0.000    2.800 
#    0.000    0.000    0.000    0.000    0.000    0.000 
#
# Total GULP energy -222761.633160 kJ/mol
# GULP energy per Si atom -5569.040829 kJ/mol
# Density = 1.517959 g / cm^3
# Si number density = 15.214218 Si / 1000 Ang^3
#
#
#
# Elastic Constant Matrix: (Units=GPa)
#
#
# Indices 1 2 3 4 5 6 
#
# 1 141.8437 41.5784 36.9091 0.0000 0.0000 0.0000
# 2 41.5784 42.1093 23.9979 0.0000 0.0000 0.0000
# 3 36.9091 23.9979 68.0821 0.0000 0.0000 0.0000
# 4 0.0000 0.0000 0.0000 3.6253 0.0000 0.0000
# 5 0.0000 0.0000 0.0000 0.0000 10.6008 0.0000
# 6 0.0000 0.0000 0.0000 0.0000 0.0000 25.5269
#
#
#
# Elastic Compliance Matrix: (Units=1/GPa)
#
#
# Indices 1 2 3 4 5 6 
#
# 1 0.010248 -0.008700 -0.002489 0.000000 0.000000 0.000000
# 2 -0.008700 0.037104 -0.008362 0.000000 0.000000 0.000000
# 3 -0.002489 -0.008362 0.018985 0.000000 0.000000 0.000000
# 4 0.000000 0.000000 0.000000 0.275842 0.000000 0.000000
# 5 0.000000 0.000000 0.000000 0.000000 0.094333 0.000000
# 6 0.000000 0.000000 0.000000 0.000000 0.000000 0.039174
#
#
# Mechanical properties :
#
#
# Convention : Reuss Voigt Hill
#
# Bulk Modulus (GPa) = 36.71835 50.77844 43.74839
# Shear Modulus (GPa) = 9.54443 17.92057 13.73250
#
# Velocity S-wave (km/s) = 2.50738 3.43575 3.00761
# Velocity P-wave (km/s) = 5.70695 7.01337 6.39361
#
# Compressibility (1/GPa) = 0.02723434
#
# Stress axis : x y z
#
# Youngs Moduli (GPa) = 97.58036 26.95152 52.67339
#
# Poissons Ratio (x) = 0.23449 0.13110
# Poissons Ratio (y) = 0.84898 0.44045
# Poissons Ratio (z) = 0.24287 0.22536
#
# Static dielectric constant tensor:
#      x y z
#    x 1.514310 0.000000 0.000000 
#    y 0.000000 1.519170 0.000000 
#    z 0.000000 0.000000 1.485310 
# 
# From -- ./inp_files/25057.got.cif
#   From: 2010.05.17/outbox.cif.g08.bks.cpg/sg65_13_cif.got.tgz:25057.got - 2010.06.03 17:01:31.
