data_PCOD9484850
_publ_section_title
;
Structure prediction by ZEFSAII (Michael W. Deem and Ramdas Pophale) SiO2 
 PCOD9484850
Probable space group: C M M M
;
_chemical_formula_sum "Si O2"
_cell_formula_units_Z 72
_cell_length_a 16.280870
_cell_length_b 7.949026
_cell_length_c 27.031243
_cell_angle_alpha 90.000000
_cell_angle_beta 90.000000
_cell_angle_gamma 90.000000
_cell_volume 3498.303968
_symmetry_space_group_name_H-M "C M M M"
_symmetry_group_IT_number 65
_symmetry_cell_setting 'orthorhombic'
loop_
_space_group_symop_operation_xyz
x,y,z
-x,-y,z
x,-y,-z
-x,y,-z
-x,-y,-z
x,y,-z
-x,y,z
x,-y,z
1/2+x,1/2+y,z
1/2-x,1/2-y,z
1/2+x,1/2-y,-z
1/2-x,1/2+y,-z
1/2-x,1/2-y,-z
1/2+x,1/2+y,-z
1/2-x,1/2+y,z
1/2+x,1/2-y,z
loop_
_atom_site_type_symbol
_atom_site_label
_atom_site_fract_x
_atom_site_fract_y
_atom_site_fract_z
Si Si1 0.500000 0.199502 0.381519
Si Si2 0.405942 0.795184 0.106108
Si Si3 0.159473 0.799845 0.443703
Si Si4 0.160410 0.702351 0.791537
Si Si5 0.000000 0.293331 0.731020
Si Si6 0.844796 0.702921 0.000000
O O1 0.582331 0.247908 0.410841
O O2 0.500000 0.266638 0.325509
O O3 0.500000 0.000000 0.377594
O O4 0.500000 0.752968 0.117405
O O5 0.350991 0.735484 0.151859
O O6 0.382859 0.733802 0.051461
O O7 0.400460 0.000000 0.104719
O O8 0.151547 0.730703 0.500000
O O9 0.250000 0.750000 0.424730
O O10 0.157907 0.000000 0.446708
O O11 0.155952 0.500000 0.792766
O O12 0.250000 0.750000 0.772277
O O13 0.082747 0.760680 0.759337
O O14 0.000000 0.500000 0.731599
O O15 0.750000 0.750000 0.000000
O O16 0.854445 0.500000 0.000000
#
# Coordination Sequence:
#
# PCOD9484850 Si02
#       6
#     8  16  16  16   8   8
#     4  11  22  36  57  84 115 152 193 236 285 334
#     4   9  16  29  51  74  97 131 173 215 257 315
#     4  10  21  38  60  87 119 154 191 231 277 332
#     4  10  19  35  57  77 101 137 179 222 271 323
#     4   9  20  38  56  76 106 145 185 224 269 326
#     4  10  19  29  45  73 103 128 166 211 259 317
#
# _framework density 20.581401
#
# number of rings (size 3 to 8) (size 9 to 14) (size 15 to 20)
#    0.000    2.222    1.111    2.333    0.000    4.889 
#    0.000    5.000    0.000    2.667    0.000    0.000 
#    0.000    0.000    0.000    0.000    0.000    0.000 
#
# Total GULP energy -200966.523616 kJ/mol
# GULP energy per Si atom -5582.403434 kJ/mol
# Density = 2.053456 g / cm^3
# Si number density = 20.581401 Si / 1000 Ang^3
#
#
#
# Elastic Constant Matrix: (Units=GPa)
#
#
# Indices 1 2 3 4 5 6 
#
# 1 191.3776 7.8747 98.3625 0.0000 0.0000 0.0000
# 2 7.8747 23.9689 14.9168 0.0000 0.0000 0.0000
# 3 98.3625 14.9168 134.6941 0.0000 0.0000 0.0000
# 4 0.0000 0.0000 0.0000 4.2230 0.0000 0.0000
# 5 0.0000 0.0000 0.0000 0.0000 6.2282 0.0000
# 6 0.0000 0.0000 0.0000 0.0000 0.0000 32.9603
#
#
#
# Elastic Compliance Matrix: (Units=1/GPa)
#
#
# Indices 1 2 3 4 5 6 
#
# 1 0.008394 0.001135 -0.006255 0.000000 0.000000 0.000000
# 2 0.001135 0.044962 -0.005808 0.000000 0.000000 0.000000
# 3 -0.006255 -0.005808 0.012636 0.000000 0.000000 0.000000
# 4 0.000000 0.000000 0.000000 0.236801 0.000000 0.000000
# 5 0.000000 0.000000 0.000000 0.000000 0.160561 0.000000
# 6 0.000000 0.000000 0.000000 0.000000 0.000000 0.030340
#
#
# Mechanical properties :
#
#
# Convention : Reuss Voigt Hill
#
# Bulk Modulus (GPa) = 22.65791 65.81651 44.23721
# Shear Modulus (GPa) = 9.42932 23.94140 16.68536
#
# Velocity S-wave (km/s) = 2.14276 3.41435 2.85037
# Velocity P-wave (km/s) = 4.14183 6.89868 5.68975
#
# Compressibility (1/GPa) = 0.04413469
#
# Stress axis : x y z
#
# Youngs Moduli (GPa) = 119.13847 22.24077 79.14204
#
# Poissons Ratio (x) = -0.02525 0.49506
# Poissons Ratio (y) = -0.13526 0.45969
# Poissons Ratio (z) = 0.74525 0.12918
#
# Static dielectric constant tensor:
#      x y z
#    x 1.673700 0.000000 0.000000 
#    y 0.000000 1.751050 0.000000 
#    z 0.000000 0.000000 1.765820 
# 
# From -- ./inp_files/74658.got.cif
#   From: 2010.05.17/outbox.cif.g08.bks.cpg/sg65_38_cif.got.tgz:74658.got - 2010.06.03 17:01:31.
