data_PCOD9484725
_publ_section_title
;
Structure prediction by ZEFSAII (Michael W. Deem and Ramdas Pophale) SiO2 
 PCOD9484725
Probable space group: C M M M
;
_chemical_formula_sum "Si O2"
_cell_formula_units_Z 96
_cell_length_a 28.415502
_cell_length_b 7.580355
_cell_length_c 24.814680
_cell_angle_alpha 90.000000
_cell_angle_beta 90.000000
_cell_angle_gamma 90.000000
_cell_volume 5345.071964
_symmetry_space_group_name_H-M "C M M M"
_symmetry_group_IT_number 65
_symmetry_cell_setting 'orthorhombic'
loop_
_space_group_symop_operation_xyz
x,y,z
-x,-y,z
x,-y,-z
-x,y,-z
-x,-y,-z
x,y,-z
-x,y,z
x,-y,z
1/2+x,1/2+y,z
1/2-x,1/2-y,z
1/2+x,1/2-y,-z
1/2-x,1/2+y,-z
1/2-x,1/2-y,-z
1/2+x,1/2+y,-z
1/2-x,1/2+y,z
1/2+x,1/2-y,z
loop_
_atom_site_type_symbol
_atom_site_label
_atom_site_fract_x
_atom_site_fract_y
_atom_site_fract_z
Si Si1 0.110614 0.708557 0.837395
Si Si2 0.304242 0.789687 0.767266
Si Si3 0.553320 0.286000 0.731169
Si Si4 0.445935 0.215604 0.938856
Si Si5 0.639612 0.293520 0.661982
Si Si6 0.304427 0.287677 0.560771
O O1 0.117605 0.500000 0.846025
O O2 0.159490 0.779339 0.812700
O O3 0.072645 0.732102 0.789693
O O4 0.089299 0.780571 0.892773
O O5 0.250000 0.750000 0.777574
O O6 0.321930 0.718962 0.709699
O O7 0.309982 0.000000 0.764393
O O8 0.500000 0.226617 0.722380
O O9 0.553834 0.500000 0.729952
O O10 0.591434 0.220149 0.687475
O O11 0.500000 0.268339 0.927441
O O12 0.445601 0.000000 0.937934
O O13 0.434213 0.269061 0.000000
O O14 0.630670 0.500000 0.651769
O O15 0.661286 0.217608 0.607262
O O16 0.313395 0.221602 0.500000
O O17 0.308980 0.500000 0.559574
O O18 0.250000 0.250000 0.574268
#
# Coordination Sequence:
#
# PCOD9484725 Si02
#       6
#    16  16  16  16  16  16
#     4   9  17  28  43  63  84 107 137 171 204 239
#     4  10  19  29  42  61  84 109 137 169 205 244
#     4   9  17  28  42  61  85 112 138 164 200 244
#     4   8  13  22  39  63  86 105 128 163 205 242
#     4   9  17  29  44  61  83 110 137 167 202 241
#     4   9  17  28  42  60  81 105 133 166 204 243
#
# _framework density 17.960469
#
# number of rings (size 3 to 8) (size 9 to 14) (size 15 to 20)
#    0.000    3.000    0.000    2.000    0.000    3.667 
#    0.000    0.000    0.000    1.500    0.000    5.833 
#    0.000    0.000    0.000   12.500    0.000   13.500 
#
# Total GULP energy -267530.045117 kJ/mol
# GULP energy per Si atom -5573.542607 kJ/mol
# Density = 1.791959 g / cm^3
# Si number density = 17.960469 Si / 1000 Ang^3
#
#
#
# Elastic Constant Matrix: (Units=GPa)
#
#
# Indices 1 2 3 4 5 6 
#
# 1 138.0333 -10.0032 83.8659 0.0000 0.0000 0.0000
# 2 -10.0032 35.5750 -10.5196 0.0000 0.0000 0.0000
# 3 83.8659 -10.5196 126.6643 0.0000 0.0000 0.0000
# 4 0.0000 0.0000 0.0000 10.7196 0.0000 0.0000
# 5 0.0000 0.0000 0.0000 0.0000 24.5683 0.0000
# 6 0.0000 0.0000 0.0000 0.0000 0.0000 6.3910
#
#
#
# Elastic Compliance Matrix: (Units=1/GPa)
#
#
# Indices 1 2 3 4 5 6 
#
# 1 0.012160 0.001065 -0.007963 0.000000 0.000000 0.000000
# 2 0.001065 0.028911 0.001696 0.000000 0.000000 0.000000
# 3 -0.007963 0.001696 0.013308 0.000000 0.000000 0.000000
# 4 0.000000 0.000000 0.000000 0.093287 0.000000 0.000000
# 5 0.000000 0.000000 0.000000 0.000000 0.040703 0.000000
# 6 0.000000 0.000000 0.000000 0.000000 0.000000 0.156471
#
#
# Mechanical properties :
#
#
# Convention : Reuss Voigt Hill
#
# Bulk Modulus (GPa) = 22.74051 47.43986 35.09019
# Shear Modulus (GPa) = 13.51711 24.13105 18.82408
#
# Velocity S-wave (km/s) = 2.74634 3.66944 3.24092
# Velocity P-wave (km/s) = 4.76921 6.66513 5.79523
#
# Compressibility (1/GPa) = 0.04397438
#
# Stress axis : x y z
#
# Youngs Moduli (GPa) = 82.23865 34.58944 75.14304
#
# Poissons Ratio (x) = -0.03682 0.59834
# Poissons Ratio (y) = -0.08755 -0.12746
# Poissons Ratio (z) = 0.65484 -0.05867
#
# Static dielectric constant tensor:
#      x y z
#    x 1.615660 0.000000 0.000000 
#    y 0.000000 1.635860 0.000000 
#    z 0.000000 0.000000 1.618780 
# 
# From -- ./inp_files/68052.got.cif
#   From: 2010.05.17/outbox.cif.g08.bks.cpg/sg65_35_cif.got.tgz:68052.got - 2010.06.03 17:01:31.
