data_PCOD9484250
_publ_section_title
;
Structure prediction by ZEFSAII (Michael W. Deem and Ramdas Pophale) SiO2 
 PCOD9484250
Probable space group: C M M M
;
_chemical_formula_sum "Si O2"
_cell_formula_units_Z 64
_cell_length_a 14.823664
_cell_length_b 25.352499
_cell_length_c 8.927568
_cell_angle_alpha 90.000000
_cell_angle_beta 90.000000
_cell_angle_gamma 90.000000
_cell_volume 3355.131169
_symmetry_space_group_name_H-M "C M M M"
_symmetry_group_IT_number 65
_symmetry_cell_setting 'orthorhombic'
loop_
_space_group_symop_operation_xyz
x,y,z
-x,-y,z
x,-y,-z
-x,y,-z
-x,-y,-z
x,y,-z
-x,y,z
x,-y,z
1/2+x,1/2+y,z
1/2-x,1/2-y,z
1/2+x,1/2-y,-z
1/2-x,1/2+y,-z
1/2-x,1/2-y,-z
1/2+x,1/2+y,-z
1/2-x,1/2+y,z
1/2+x,1/2-y,z
loop_
_atom_site_type_symbol
_atom_site_label
_atom_site_fract_x
_atom_site_fract_y
_atom_site_fract_z
Si Si1 0.659794 0.000000 0.679062
Si Si2 0.643561 0.116231 0.676220
Si Si3 0.141706 0.889831 0.321295
Si Si4 0.500000 0.809331 0.177972
Si Si5 0.144594 0.000000 0.822516
Si Si6 0.500000 0.687603 0.819563
O O1 0.612546 0.055796 0.706124
O O2 0.749068 0.000000 0.780186
O O3 0.686369 0.000000 0.500000
O O4 0.630246 0.126009 0.500000
O O5 0.750960 0.117205 0.706051
O O6 0.586820 0.158728 0.765086
O O7 0.127880 0.890832 0.500000
O O8 0.085932 0.843223 0.245897
O O9 0.111255 0.945761 0.251483
O O10 0.500000 0.748615 0.228650
O O11 0.500000 0.809022 0.000000
O O12 0.129760 0.000000 0.000000
O O13 0.500000 0.684773 0.000000
#
# Coordination Sequence:
#
# PCOD9484250 Si02
#       6
#     8  16  16   8   8   8
#     4   8  16  33  56  85 116 148 187 231 277 331
#     4   9  19  37  61  85 113 148 188 232 281 334
#     4  10  21  39  62  87 114 148 189 235 281 332
#     4  11  25  40  55  80 116 152 191 237 286 339
#     4  10  18  31  56  89 121 150 179 221 280 345
#     4  11  25  42  57  80 113 150 192 239 286 337
#
# _framework density 19.07526
#
# number of rings (size 3 to 8) (size 9 to 14) (size 15 to 20)
#    0.000    2.250    0.000    4.125    0.000    9.000 
#    0.000   10.000    0.000    0.000    0.000    0.000 
#    0.000    0.000    0.000    0.000    0.000    0.000 
#
# Total GULP energy -178645.153809 kJ/mol
# GULP energy per Si atom -5582.661057 kJ/mol
# Density = 1.903184 g / cm^3
# Si number density = 19.075260 Si / 1000 Ang^3
#
#
#
# Elastic Constant Matrix: (Units=GPa)
#
#
# Indices 1 2 3 4 5 6 
#
# 1 83.1304 72.6292 47.6129 0.0000 0.0000 0.0000
# 2 72.6292 210.5404 83.3504 0.0000 0.0000 0.0000
# 3 47.6129 83.3504 82.4569 0.0000 0.0000 0.0000
# 4 0.0000 0.0000 0.0000 31.2885 0.0000 0.0000
# 5 0.0000 0.0000 0.0000 0.0000 23.4992 0.0000
# 6 0.0000 0.0000 0.0000 0.0000 0.0000 27.5136
#
#
#
# Elastic Compliance Matrix: (Units=1/GPa)
#
#
# Indices 1 2 3 4 5 6 
#
# 1 0.019652 -0.003813 -0.007494 0.000000 0.000000 0.000000
# 2 -0.003813 0.008658 -0.006550 0.000000 0.000000 0.000000
# 3 -0.007494 -0.006550 0.023076 0.000000 0.000000 0.000000
# 4 0.000000 0.000000 0.000000 0.031961 0.000000 0.000000
# 5 0.000000 0.000000 0.000000 0.000000 0.042555 0.000000
# 6 0.000000 0.000000 0.000000 0.000000 0.000000 0.036346
#
#
# Mechanical properties :
#
#
# Convention : Reuss Voigt Hill
#
# Bulk Modulus (GPa) = 63.80494 87.03474 75.41984
# Shear Modulus (GPa) = 24.60800 27.96260 26.28530
#
# Velocity S-wave (km/s) = 3.59562 3.83287 3.71614
# Velocity P-wave (km/s) = 7.12458 8.08171 7.61819
#
# Compressibility (1/GPa) = 0.01567277
#
# Stress axis : x y z
#
# Youngs Moduli (GPa) = 50.88420 115.49791 43.33479
#
# Poissons Ratio (x) = 0.44036 0.32475
# Poissons Ratio (y) = 0.19401 0.28386
# Poissons Ratio (z) = 0.38132 0.75656
#
# Static dielectric constant tensor:
#      x y z
#    x 1.697710 0.000000 0.000000 
#    y 0.000000 1.659980 0.000000 
#    z 0.000000 0.000000 1.630960 
# 
# From -- ./inp_files/6846.got.cif
#   From: 2010.05.17/outbox.cif.g08.bks.cpg/sg65_4_cif.got.tgz:6846.got - 2010.06.03 17:01:31.
