data_PCOD9484584
_publ_section_title
;
Structure prediction by ZEFSAII (Michael W. Deem and Ramdas Pophale) SiO2 
 PCOD9484584
Probable space group: C M M M
;
_chemical_formula_sum "Si O2"
_cell_formula_units_Z 72
_cell_length_a 29.003632
_cell_length_b 9.025336
_cell_length_c 14.677764
_cell_angle_alpha 90.000000
_cell_angle_beta 90.000000
_cell_angle_gamma 90.000000
_cell_volume 3842.161940
_symmetry_space_group_name_H-M "C M M M"
_symmetry_group_IT_number 65
_symmetry_cell_setting 'orthorhombic'
loop_
_space_group_symop_operation_xyz
x,y,z
-x,-y,z
x,-y,-z
-x,y,-z
-x,-y,-z
x,y,-z
-x,y,z
x,-y,z
1/2+x,1/2+y,z
1/2-x,1/2-y,z
1/2+x,1/2-y,-z
1/2-x,1/2+y,-z
1/2-x,1/2-y,-z
1/2+x,1/2+y,-z
1/2-x,1/2+y,z
1/2+x,1/2-y,z
loop_
_atom_site_type_symbol
_atom_site_label
_atom_site_fract_x
_atom_site_fract_y
_atom_site_fract_z
Si Si1 0.446909 0.176824 0.741043
Si Si2 0.700054 0.823037 0.500000
Si Si3 0.392303 0.326006 0.891188
Si Si4 0.796974 0.670847 0.888806
Si Si5 0.876984 0.170965 0.602709
O O1 0.500000 0.214364 0.721172
O O2 0.431886 0.237914 0.839285
O O3 0.411801 0.252982 0.671216
O O4 0.441842 0.000000 0.737648
O O5 0.750000 0.750000 0.500000
O O6 0.670245 0.761842 0.413967
O O7 0.702065 0.000000 0.500000
O O8 0.394313 0.500000 0.869542
O O9 0.342853 0.259025 0.861881
O O10 0.395899 0.309317 0.000000
O O11 0.798982 0.500000 0.859362
O O12 0.750000 0.750000 0.858297
O O13 0.796141 0.671161 0.000000
O O14 0.897723 0.171344 0.500000
O O15 0.867655 0.000000 0.627415
#
# Coordination Sequence:
#
# PCOD9484584 Si02
#       5
#    16   8  16  16  16
#     4  11  24  40  59  84 115 152 195 245 299 353
#     4  10  18  34  61  92 127 162 194 229 277 339
#     4  10  21  37  57  81 112 152 198 247 297 350
#     4   9  16  28  49  76 106 140 179 225 279 338
#     4   9  20  38  61  90 120 153 192 235 285 342
#
# _framework density 18.739450999999999
#
# number of rings (size 3 to 8) (size 9 to 14) (size 15 to 20)
#    0.667    1.556    0.000    3.333    0.000    6.667 
#    0.000    5.556    0.000    0.000    0.000    0.000 
#    0.000    0.000    0.000    0.000    0.000    0.000 
#
# Total GULP energy -200790.722444 kJ/mol
# GULP energy per Si atom -5577.520068 kJ/mol
# Density = 1.869680 g / cm^3
# Si number density = 18.739451 Si / 1000 Ang^3
#
#
#
# Elastic Constant Matrix: (Units=GPa)
#
#
# Indices 1 2 3 4 5 6 
#
# 1 142.6742 89.2433 37.7967 0.0000 0.0000 0.0000
# 2 89.2433 152.1204 34.9331 0.0000 0.0000 0.0000
# 3 37.7967 34.9331 33.1146 0.0000 0.0000 0.0000
# 4 0.0000 0.0000 0.0000 26.6848 0.0000 0.0000
# 5 0.0000 0.0000 0.0000 0.0000 19.7713 0.0000
# 6 0.0000 0.0000 0.0000 0.0000 0.0000 33.8979
#
#
#
# Elastic Compliance Matrix: (Units=1/GPa)
#
#
# Indices 1 2 3 4 5 6 
#
# 1 0.012757 -0.005464 -0.008797 0.000000 0.000000 0.000000
# 2 -0.005464 0.011016 -0.005384 0.000000 0.000000 0.000000
# 3 -0.008797 -0.005384 0.045918 0.000000 0.000000 0.000000
# 4 0.000000 0.000000 0.000000 0.037475 0.000000 0.000000
# 5 0.000000 0.000000 0.000000 0.000000 0.050578 0.000000
# 6 0.000000 0.000000 0.000000 0.000000 0.000000 0.029500
#
#
# Mechanical properties :
#
#
# Convention : Reuss Voigt Hill
#
# Bulk Modulus (GPa) = 32.89303 72.42838 52.66070
# Shear Modulus (GPa) = 21.12663 27.13320 24.12991
#
# Velocity S-wave (km/s) = 3.36130 3.80928 3.59228
# Velocity P-wave (km/s) = 5.71449 7.62113 6.73561
#
# Compressibility (1/GPa) = 0.03040157
#
# Stress axis : x y z
#
# Youngs Moduli (GPa) = 78.38730 90.77970 21.77775
#
# Poissons Ratio (x) = 0.49602 0.19157
# Poissons Ratio (y) = 0.42831 0.11725
# Poissons Ratio (z) = 0.68956 0.48876
#
# Static dielectric constant tensor:
#      x y z
#    x 1.620740 0.000000 0.000000 
#    y 0.000000 1.625120 0.000000 
#    z 0.000000 0.000000 1.683480 
# 
# From -- ./inp_files/47468.got.cif
#   From: 2010.05.17/outbox.cif.g08.bks.cpg/sg65_24_cif.got.tgz:47468.got - 2010.06.03 17:01:31.
