data_PCOD9484386
_publ_section_title
;
Structure prediction by ZEFSAII (Michael W. Deem and Ramdas Pophale) SiO2 
 PCOD9484386
Probable space group: C M M M
;
_chemical_formula_sum "Si O2"
_cell_formula_units_Z 104
_cell_length_a 24.628557
_cell_length_b 26.759680
_cell_length_c 7.534857
_cell_angle_alpha 90.000000
_cell_angle_beta 90.000000
_cell_angle_gamma 90.000000
_cell_volume 4965.864868
_symmetry_space_group_name_H-M "C M M M"
_symmetry_group_IT_number 65
_symmetry_cell_setting 'orthorhombic'
loop_
_space_group_symop_operation_xyz
x,y,z
-x,-y,z
x,-y,-z
-x,y,-z
-x,-y,-z
x,y,-z
-x,y,z
x,-y,z
1/2+x,1/2+y,z
1/2-x,1/2-y,z
1/2+x,1/2-y,-z
1/2-x,1/2+y,-z
1/2-x,1/2-y,-z
1/2+x,1/2+y,-z
1/2-x,1/2+y,z
1/2+x,1/2-y,z
loop_
_atom_site_type_symbol
_atom_site_label
_atom_site_fract_x
_atom_site_fract_y
_atom_site_fract_z
Si Si1 0.940053 0.558690 0.287442
Si Si2 0.439049 0.204572 0.209309
Si Si3 0.061437 0.000000 0.217731
Si Si4 0.136555 0.910883 0.210613
Si Si5 0.150633 0.368706 0.198258
Si Si6 0.939610 0.179209 0.711693
Si Si7 0.756537 0.558258 0.782193
O O1 0.934649 0.566137 0.500000
O O2 0.936205 0.500000 0.254571
O O3 0.893985 0.587873 0.189587
O O4 0.000000 0.575663 0.234193
O O5 0.500000 0.193098 0.282425
O O6 0.386337 0.175308 0.283235
O O7 0.431889 0.263980 0.226103
O O8 0.440466 0.191943 0.000000
O O9 0.093777 0.951420 0.278804
O O10 0.000000 0.000000 0.278294
O O11 0.060732 0.000000 0.000000
O O12 0.109463 0.857106 0.238122
O O13 0.196642 0.924127 0.276285
O O14 0.140541 0.918390 0.000000
O O15 0.201251 0.398942 0.279696
O O16 0.167473 0.351839 0.000000
O O17 0.941675 0.180211 0.500000
O O18 0.000000 0.162183 0.776369
O O19 0.766966 0.500000 0.728896
O O20 0.759314 0.558091 0.000000
#
# Coordination Sequence:
#
# PCOD9484386 Si02
#       7
#    16  16   8  16  16  16  16
#     4   9  18  31  45  65  97 134 170 211 261 316
#     4   9  18  33  52  75 102 132 170 215 261 311
#     4   9  16  26  47  79 105 127 164 207 244 294
#     4  10  18  32  54  78 105 138 173 208 248 301
#     4  10  19  31  51  77 102 131 172 220 264 303
#     4  10  21  36  54  77 104 133 166 209 264 317
#     4   9  17  31  51  77 108 140 173 211 255 303
#
# _framework density 20.942978
#
# number of rings (size 3 to 8) (size 9 to 14) (size 15 to 20)
#    0.000    2.538    0.769    2.308    0.000    4.000 
#    0.000    4.231    0.000    6.923    0.000    0.000 
#    0.000    0.000    0.000    0.000    0.000    0.000 
#
# Total GULP energy -289935.745216 kJ/mol
# GULP energy per Si atom -5575.687408 kJ/mol
# Density = 2.089531 g / cm^3
# Si number density = 20.942978 Si / 1000 Ang^3
#
#
#
# Elastic Constant Matrix: (Units=GPa)
#
#
# Indices 1 2 3 4 5 6 
#
# 1 150.9646 72.4362 2.4418 0.0000 0.0000 0.0000
# 2 72.4362 112.0357 -7.1363 0.0000 0.0000 0.0000
# 3 2.4418 -7.1363 44.1157 0.0000 0.0000 0.0000
# 4 0.0000 0.0000 0.0000 66.0191 0.0000 0.0000
# 5 0.0000 0.0000 0.0000 0.0000 -9.1562 0.0000
# 6 0.0000 0.0000 0.0000 0.0000 0.0000 39.0067
#
#
#
# Elastic Compliance Matrix: (Units=1/GPa)
#
#
# Indices 1 2 3 4 5 6 
#
# 1 0.009710 -0.006378 -0.001569 0.000000 0.000000 0.000000
# 2 -0.006378 0.013208 0.002490 0.000000 0.000000 0.000000
# 3 -0.001569 0.002490 0.023157 0.000000 0.000000 0.000000
# 4 0.000000 0.000000 0.000000 0.015147 0.000000 0.000000
# 5 0.000000 0.000000 0.000000 0.000000 -0.109216 0.000000
# 6 0.000000 0.000000 0.000000 0.000000 0.000000 0.025637
#
#
# Mechanical properties :
#
#
# Convention : Reuss Voigt Hill
#
# Bulk Modulus (GPa) = 28.44130 49.17771 38.80951
# Shear Modulus (GPa) = 18083.35132 35.13223 9059.24178
#
# Velocity S-wave (km/s) = 93.02317 4.10020 65.84118
# Velocity P-wave (km/s) = 107.47724 6.77851 76.14888
#
# Compressibility (1/GPa) = 0.03516014
#
# Stress axis : x y z
#
# Youngs Moduli (GPa) = 102.99117 75.71331 43.18306
#
# Poissons Ratio (x) = 0.48287 0.06776
# Poissons Ratio (y) = 0.65684 -0.10751
# Poissons Ratio (z) = 0.16160 -0.18849
#
# Static dielectric constant tensor:
#      x y z
#    x 1.775710 0.000000 0.000000 
#    y 0.000000 1.748020 0.000000 
#    z 0.000000 0.000000 1.799660 
# 
# From -- ./inp_files/14772.got.cif
#   From: 2010.05.17/outbox.cif.g08.bks.cpg/sg65_8_cif.got.tgz:14772.got - 2010.06.03 17:01:31.
