data_PCOD9484406
_publ_section_title
;
Structure prediction by ZEFSAII (Michael W. Deem and Ramdas Pophale) SiO2 
 PCOD9484406
Probable space group: C M M M
;
_chemical_formula_sum "Si O2"
_cell_formula_units_Z 104
_cell_length_a 8.537956
_cell_length_b 26.313394
_cell_length_c 21.515325
_cell_angle_alpha 90.000000
_cell_angle_beta 90.000000
_cell_angle_gamma 90.000000
_cell_volume 4833.688858
_symmetry_space_group_name_H-M "C M M M"
_symmetry_group_IT_number 65
_symmetry_cell_setting 'orthorhombic'
loop_
_space_group_symop_operation_xyz
x,y,z
-x,-y,z
x,-y,-z
-x,y,-z
-x,-y,-z
x,y,-z
-x,y,z
x,-y,z
1/2+x,1/2+y,z
1/2-x,1/2-y,z
1/2+x,1/2-y,-z
1/2-x,1/2+y,-z
1/2-x,1/2-y,-z
1/2+x,1/2+y,-z
1/2-x,1/2+y,z
1/2+x,1/2-y,z
loop_
_atom_site_type_symbol
_atom_site_label
_atom_site_fract_x
_atom_site_fract_y
_atom_site_fract_z
Si Si1 0.808149 0.000000 0.573486
Si Si2 0.687768 0.693151 0.500000
Si Si3 0.179874 0.439274 0.932050
Si Si4 0.315571 0.193739 0.132780
Si Si5 0.685204 0.400346 0.806044
Si Si6 0.812911 0.808148 0.000000
Si Si7 0.688857 0.307249 0.636682
Si Si8 0.690018 0.416677 0.325665
O O1 0.757551 0.951509 0.616290
O O2 0.759112 0.000000 0.500000
O O3 0.000000 0.000000 0.571556
O O4 0.500000 0.691017 0.500000
O O5 0.750000 0.750000 0.500000
O O6 0.738267 0.674527 0.432976
O O7 0.170404 0.500000 0.934796
O O8 0.275520 0.427148 0.870686
O O9 0.000000 0.419983 0.925745
O O10 0.242749 0.422865 0.000000
O O11 0.500000 0.197821 0.127123
O O12 0.250000 0.250000 0.144215
O O13 0.266888 0.154324 0.185607
O O14 0.248670 0.173250 0.066775
O O15 0.500000 0.391656 0.801309
O O16 0.733861 0.431960 0.744749
O O17 0.750000 0.750000 0.000000
O O18 0.000000 0.809433 0.000000
O O19 0.500000 0.303168 0.638922
O O20 0.750000 0.250000 0.649351
O O21 0.736373 0.357125 0.674130
O O22 0.500000 0.418365 0.330382
#
# Coordination Sequence:
#
# PCOD9484406 Si02
#       8
#     8   8  16  16  16   8  16  16
#     4   9  18  34  60  90 120 159 204 250 304 362
#     4   8  14  24  44  71 103 137 175 218 271 326
#     4   9  20  40  63  85 111 145 191 248 306 364
#     4  11  22  38  58  82 117 160 208 256 305 360
#     4  11  23  37  56  85 122 159 197 245 304 367
#     4  10  18  32  54  82 115 154 203 254 308 358
#     4   9  17  31  51  79 113 149 187 233 286 345
#     4   9  20  35  53  83 122 157 196 246 302 359
#
# _framework density 21.515657999999998
#
# number of rings (size 3 to 8) (size 9 to 14) (size 15 to 20)
#    0.000    2.385    0.000    3.923    3.231    1.231 
#    0.000    3.846    0.000    0.000    0.000    0.000 
#    0.000    5.538    0.000    0.000    0.000    0.000 
#
# Total GULP energy -289704.161685 kJ/mol
# GULP energy per Si atom -5571.233879 kJ/mol
# Density = 2.146669 g / cm^3
# Si number density = 21.515658 Si / 1000 Ang^3
#
#
#
# Elastic Constant Matrix: (Units=GPa)
#
#
# Indices 1 2 3 4 5 6 
#
# 1 66.9130 15.0520 32.1718 0.0000 0.0000 0.0000
# 2 15.0520 105.4789 58.5572 0.0000 0.0000 0.0000
# 3 32.1718 58.5572 166.7795 0.0000 0.0000 0.0000
# 4 0.0000 0.0000 0.0000 22.9417 0.0000 0.0000
# 5 0.0000 0.0000 0.0000 0.0000 9.6747 0.0000
# 6 0.0000 0.0000 0.0000 0.0000 0.0000 21.5387
#
#
#
# Elastic Compliance Matrix: (Units=1/GPa)
#
#
# Indices 1 2 3 4 5 6 
#
# 1 0.016518 -0.000731 -0.002930 0.000000 0.000000 0.000000
# 2 -0.000731 0.011808 -0.004005 0.000000 0.000000 0.000000
# 3 -0.002930 -0.004005 0.007967 0.000000 0.000000 0.000000
# 4 0.000000 0.000000 0.000000 0.043589 0.000000 0.000000
# 5 0.000000 0.000000 0.000000 0.000000 0.103363 0.000000
# 6 0.000000 0.000000 0.000000 0.000000 0.000000 0.046428
#
#
# Mechanical properties :
#
#
# Convention : Reuss Voigt Hill
#
# Bulk Modulus (GPa) = 47.70429 61.19261 54.44845
# Shear Modulus (GPa) = 19.84198 26.39037 23.11618
#
# Velocity S-wave (km/s) = 3.04009 3.50604 3.28134
# Velocity P-wave (km/s) = 5.87732 6.70018 6.30219
#
# Compressibility (1/GPa) = 0.02096247
#
# Stress axis : x y z
#
# Youngs Moduli (GPa) = 60.54092 84.68672 125.51361
#
# Poissons Ratio (x) = 0.06188 0.36772
# Poissons Ratio (y) = 0.04423 0.50268
# Poissons Ratio (z) = 0.17737 0.33917
#
# Static dielectric constant tensor:
#      x y z
#    x 1.858180 0.000000 0.000000 
#    y 0.000000 1.821640 0.000000 
#    z 0.000000 0.000000 1.895310 
# 
# From -- ./inp_files/60484.got.cif
#   From: 2010.05.17/outbox.cif.g08.bks.cpg/sg65_31_cif.got.tgz:60484.got - 2010.06.03 17:01:31.
