data_PCOD9484114
_publ_section_title
;
Structure prediction by ZEFSAII (Michael W. Deem and Ramdas Pophale) SiO2 
 PCOD9484114
Probable space group: C M M M
;
_chemical_formula_sum "Si O2"
_cell_formula_units_Z 72
_cell_length_a 7.709281
_cell_length_b 14.748693
_cell_length_c 25.698048
_cell_angle_alpha 90.000000
_cell_angle_beta 90.000000
_cell_angle_gamma 90.000000
_cell_volume 2921.914795
_symmetry_space_group_name_H-M "C M M M"
_symmetry_group_IT_number 65
_symmetry_cell_setting 'orthorhombic'
loop_
_space_group_symop_operation_xyz
x,y,z
-x,-y,z
x,-y,-z
-x,y,-z
-x,-y,-z
x,y,-z
-x,y,z
x,-y,z
1/2+x,1/2+y,z
1/2-x,1/2-y,z
1/2+x,1/2-y,-z
1/2-x,1/2+y,-z
1/2-x,1/2-y,-z
1/2+x,1/2+y,-z
1/2-x,1/2+y,z
1/2+x,1/2-y,z
loop_
_atom_site_type_symbol
_atom_site_label
_atom_site_fract_x
_atom_site_fract_y
_atom_site_fract_z
Si Si1 0.750000 0.250000 0.860117
Si Si2 0.288297 0.101440 0.783642
Si Si3 0.294832 0.357369 0.555565
Si Si4 0.796306 0.643750 0.330963
Si Si5 0.209041 0.106008 0.939147
O O1 0.810214 0.175688 0.817506
O O2 0.689178 0.174720 0.902208
O O3 0.500000 0.119795 0.786625
O O4 0.228818 0.105618 0.723485
O O5 0.260479 0.000000 0.803191
O O6 0.222077 0.391860 0.500000
O O7 0.500000 0.366457 0.552882
O O8 0.250000 0.250000 0.556834
O O9 0.247912 0.394630 0.612190
O O10 0.750000 0.750000 0.331420
O O11 0.000000 0.633568 0.327023
O O12 0.000000 0.119414 0.930166
O O13 0.247429 0.000000 0.929817
O O14 0.242042 0.124068 0.000000
#
# Coordination Sequence:
#
# PCOD9484114 Si02
#       5
#     8  16  16  16  16
#     4  12  19  34  58  82 103 140 188 228 268 322
#     4  10  22  37  52  75 109 145 182 230 282 331
#     4   9  16  26  44  73 106 138 176 225 278 332
#     4  10  18  31  51  74 103 142 183 225 278 335
#     4   9  19  35  54  80 113 144 176 218 269 324
#
# _framework density 24.641376999999999
#
# number of rings (size 3 to 8) (size 9 to 14) (size 15 to 20)
#    0.000    2.222    1.111    5.000    0.000    1.333 
#    0.000    0.000    0.000    7.333    0.000   14.000 
#    0.000    0.000    0.000    0.000    0.000    0.000 
#
# Total GULP energy -200514.439573 kJ/mol
# GULP energy per Si atom -5569.845544 kJ/mol
# Density = 2.458529 g / cm^3
# Si number density = 24.641377 Si / 1000 Ang^3
#
#
#
# Elastic Constant Matrix: (Units=GPa)
#
#
# Indices 1 2 3 4 5 6 
#
# 1 69.1312 19.8012 36.8706 0.0000 0.0000 0.0000
# 2 19.8012 157.8284 81.6076 0.0000 0.0000 0.0000
# 3 36.8706 81.6076 251.3354 0.0000 0.0000 0.0000
# 4 0.0000 0.0000 0.0000 196.8864 0.0000 0.0000
# 5 0.0000 0.0000 0.0000 0.0000 -135.5431 0.0000
# 6 0.0000 0.0000 0.0000 0.0000 0.0000 -13.5885
#
#
#
# Elastic Compliance Matrix: (Units=1/GPa)
#
#
# Indices 1 2 3 4 5 6 
#
# 1 0.015809 -0.000942 -0.002013 0.000000 0.000000 0.000000
# 2 -0.000942 0.007671 -0.002352 0.000000 0.000000 0.000000
# 3 -0.002013 -0.002352 0.005038 0.000000 0.000000 0.000000
# 4 0.000000 0.000000 0.000000 0.005079 0.000000 0.000000
# 5 0.000000 0.000000 0.000000 0.000000 -0.007378 0.000000
# 6 0.000000 0.000000 0.000000 0.000000 0.000000 -0.073592
#
#
# Mechanical properties :
#
#
# Convention : Reuss Voigt Hill
#
# Bulk Modulus (GPa) = 55.86145 83.87265 69.86705
# Shear Modulus (GPa) = -162.38970 32.21867 -65.08551
#
# Velocity S-wave (km/s) = -8.12676 3.61986 -5.14494
# Velocity P-wave (km/s) = 8.08332 7.18209 2.62275
#
# Compressibility (1/GPa) = 0.01790143
#
# Stress axis : x y z
#
# Youngs Moduli (GPa) = 63.25551 130.36870 198.49674
#
# Poissons Ratio (x) = 0.12287 0.39960
# Poissons Ratio (y) = 0.05962 0.46693
# Poissons Ratio (z) = 0.12734 0.30667
#
# Static dielectric constant tensor:
#      x y z
#    x 1.983130 0.000000 0.000000 
#    y 0.000000 1.890890 0.000000 
#    z 0.000000 0.000000 2.013180 
# 
# From -- ./inp_files/72559.got.cif
#   From: 2010.05.17/outbox.cif.g08.bks.cpg/sg65_37_cif.got.tgz:72559.got - 2010.06.03 17:01:31.
