data_PCOD9484779
_publ_section_title
;
Structure prediction by ZEFSAII (Michael W. Deem and Ramdas Pophale) SiO2 
 PCOD9484779
Probable space group: C M M M
;
_chemical_formula_sum "Si O2"
_cell_formula_units_Z 100
_cell_length_a 19.907410
_cell_length_b 33.126736
_cell_length_c 7.689332
_cell_angle_alpha 90.000000
_cell_angle_beta 90.000000
_cell_angle_gamma 90.000000
_cell_volume 5070.864670
_symmetry_space_group_name_H-M "C M M M"
_symmetry_group_IT_number 65
_symmetry_cell_setting 'orthorhombic'
loop_
_space_group_symop_operation_xyz
x,y,z
-x,-y,z
x,-y,-z
-x,y,-z
-x,-y,-z
x,y,-z
-x,y,z
x,-y,z
1/2+x,1/2+y,z
1/2-x,1/2-y,z
1/2+x,1/2-y,-z
1/2-x,1/2+y,-z
1/2-x,1/2-y,-z
1/2+x,1/2+y,-z
1/2-x,1/2+y,z
1/2+x,1/2-y,z
loop_
_atom_site_type_symbol
_atom_site_label
_atom_site_fract_x
_atom_site_fract_y
_atom_site_fract_z
Si Si1 0.675414 0.263288 0.210533
Si Si2 0.176282 0.629731 0.700436
Si Si3 0.826066 0.854936 0.293879
Si Si4 0.414071 0.500000 0.500000
Si Si5 0.287182 0.955817 0.791653
Si Si6 0.370967 0.439610 0.798128
Si Si7 0.574695 0.804569 0.204381
O O1 0.750000 0.250000 0.271019
O O2 0.655771 0.308623 0.262253
O O3 0.621898 0.230739 0.277107
O O4 0.677239 0.262095 0.000000
O O5 0.177466 0.642038 0.500000
O O6 0.249533 0.640736 0.777995
O O7 0.173113 0.581630 0.714715
O O8 0.115529 0.653876 0.782161
O O9 0.823418 0.862751 0.500000
O O10 0.871603 0.890849 0.218252
O O11 0.411489 0.464659 0.654768
O O12 0.207502 0.950500 0.756391
O O13 0.307486 0.000000 0.728637
O O14 0.294251 0.954318 0.000000
O O15 0.384454 0.450443 0.000000
O O16 0.500000 0.806678 0.279574
O O17 0.568452 0.795706 0.000000
#
# Coordination Sequence:
#
# PCOD9484779 Si02
#       7
#    16  16  16   4  16  16  16
#     4  10  19  32  52  75  99 131 171 216 265 318
#     4  10  20  30  47  71  98 129 164 214 263 311
#     4  10  19  31  47  72 103 133 173 215 264 318
#     4  12  18  28  44  66 102 140 180 220 256 322
#     4   9  17  28  44  66  93 128 169 209 259 314
#     4  10  19  29  43  66 100 141 177 216 264 319
#     4  10  21  37  54  72  97 132 173 216 263 316
#
# _framework density 19.720502
#
# number of rings (size 3 to 8) (size 9 to 14) (size 15 to 20)
#    0.000    2.080    3.200    1.200    1.120    2.880 
#    0.000    0.000    0.000    0.480    0.000    3.360 
#    0.000    0.000    0.000    1.440    0.160   12.240 
#
# Total GULP energy -278403.698635 kJ/mol
# GULP energy per Si atom -5568.073973 kJ/mol
# Density = 1.967562 g / cm^3
# Si number density = 19.720502 Si / 1000 Ang^3
#
#
#
# Elastic Constant Matrix: (Units=GPa)
#
#
# Indices 1 2 3 4 5 6 
#
# 1 39.3228 21.1695 11.3917 0.0000 0.0000 0.0000
# 2 21.1695 139.5943 9.5723 0.0000 0.0000 0.0000
# 3 11.3917 9.5723 74.0480 0.0000 0.0000 0.0000
# 4 0.0000 0.0000 0.0000 66.0269 0.0000 0.0000
# 5 0.0000 0.0000 0.0000 0.0000 -5.6404 0.0000
# 6 0.0000 0.0000 0.0000 0.0000 0.0000 -2.6470
#
#
#
# Elastic Compliance Matrix: (Units=1/GPa)
#
#
# Indices 1 2 3 4 5 6 
#
# 1 0.028764 -0.004095 -0.003896 0.000000 0.000000 0.000000
# 2 -0.004095 0.007811 -0.000380 0.000000 0.000000 0.000000
# 3 -0.003896 -0.000380 0.014153 0.000000 0.000000 0.000000
# 4 0.000000 0.000000 0.000000 0.015145 0.000000 0.000000
# 5 0.000000 0.000000 0.000000 0.000000 -0.177294 0.000000
# 6 0.000000 0.000000 0.000000 0.000000 0.000000 -0.377785
#
#
# Mechanical properties :
#
#
# Convention : Reuss Voigt Hill
#
# Bulk Modulus (GPa) = 29.42318 37.47025 33.44672
# Shear Modulus (GPa) = -10.84279 25.60333 7.38027
#
# Velocity S-wave (km/s) = -2.34737 3.60712 1.93664
# Velocity P-wave (km/s) = 2.75782 6.03244 4.69020
#
# Compressibility (1/GPa) = 0.03398681
#
# Stress axis : x y z
#
# Youngs Moduli (GPa) = 34.76612 128.03042 70.65560
#
# Poissons Ratio (x) = 0.52427 0.27525
# Poissons Ratio (y) = 0.14236 0.02683
# Poissons Ratio (z) = 0.13544 0.04862
#
# Static dielectric constant tensor:
#      x y z
#    x 1.696250 0.000000 0.000000 
#    y 0.000000 1.709380 0.000000 
#    z 0.000000 0.000000 1.723160 
# 
# From -- ./inp_files/12746.got.cif
#   From: 2010.05.17/outbox.cif.g08.bks.cpg/sg65_7_cif.got.tgz:12746.got - 2010.06.03 17:01:31.
