data_PCOD9484772
_publ_section_title
;
Structure prediction by ZEFSAII (Michael W. Deem and Ramdas Pophale) SiO2 
 PCOD9484772
Probable space group: C M M M
;
_chemical_formula_sum "Si O2"
_cell_formula_units_Z 80
_cell_length_a 18.760951
_cell_length_b 7.667552
_cell_length_c 27.286056
_cell_angle_alpha 90.000000
_cell_angle_beta 90.000000
_cell_angle_gamma 90.000000
_cell_volume 3925.114637
_symmetry_space_group_name_H-M "C M M M"
_symmetry_group_IT_number 65
_symmetry_cell_setting 'orthorhombic'
loop_
_space_group_symop_operation_xyz
x,y,z
-x,-y,z
x,-y,-z
-x,y,-z
-x,-y,-z
x,y,-z
-x,y,z
x,-y,z
1/2+x,1/2+y,z
1/2-x,1/2-y,z
1/2+x,1/2-y,-z
1/2-x,1/2+y,-z
1/2-x,1/2-y,-z
1/2+x,1/2+y,-z
1/2-x,1/2+y,z
1/2+x,1/2-y,z
loop_
_atom_site_type_symbol
_atom_site_label
_atom_site_fract_x
_atom_site_fract_y
_atom_site_fract_z
Si Si1 0.080910 0.708863 0.807894
Si Si2 0.917146 0.286144 0.404655
Si Si3 0.082455 0.214123 0.000000
Si Si4 0.586843 0.202414 0.298006
Si Si5 0.166934 0.793595 0.904705
Si Si6 0.167037 0.709356 0.500000
O O1 0.075862 0.500000 0.801988
O O2 0.106998 0.778975 0.754932
O O3 0.131737 0.740762 0.853450
O O4 0.000000 0.773432 0.817636
O O5 0.915526 0.500000 0.403211
O O6 0.892128 0.222869 0.350878
O O7 0.870858 0.226034 0.450497
O O8 0.000000 0.237948 0.411508
O O9 0.123257 0.276688 0.048645
O O10 0.000000 0.266880 0.000000
O O11 0.083417 0.000000 0.000000
O O12 0.500000 0.203434 0.297996
O O13 0.610063 0.000000 0.298413
O O14 0.250000 0.750000 0.907431
O O15 0.160600 0.000000 0.907328
O O16 0.158089 0.500000 0.500000
O O17 0.250000 0.750000 0.500000
#
# Coordination Sequence:
#
# PCOD9484772 Si02
#       6
#    16  16   8  16  16   8
#     4   9  17  31  52  77 103 130 162 200 242 291
#     4   8  13  24  45  70  90 114 156 202 236 271
#     4   9  19  36  57  79 100 125 160 201 246 294
#     4   7  11  22  43  70  96 120 150 194 242 280
#     4  11  22  36  54  75 103 136 167 201 241 286
#     4  10  19  29  43  65  93 122 152 192 238 284
#
# _framework density 20.381571000000001
#
# number of rings (size 3 to 8) (size 9 to 14) (size 15 to 20)
#    0.000    3.100    0.000    4.200    0.000    2.400 
#    0.000    2.500    0.000    8.400    0.000    2.800 
#    0.000    0.000    0.000    0.000    0.000    0.000 
#
# Total GULP energy -222963.697447 kJ/mol
# GULP energy per Si atom -5574.092436 kJ/mol
# Density = 2.033518 g / cm^3
# Si number density = 20.381571 Si / 1000 Ang^3
#
#
#
# Elastic Constant Matrix: (Units=GPa)
#
#
# Indices 1 2 3 4 5 6 
#
# 1 119.4886 0.5324 119.1880 0.0000 0.0000 0.0000
# 2 0.5324 37.2744 10.4110 0.0000 0.0000 0.0000
# 3 119.1880 10.4110 261.6074 0.0000 0.0000 0.0000
# 4 0.0000 0.0000 0.0000 21.2541 0.0000 0.0000
# 5 0.0000 0.0000 0.0000 0.0000 -6.3468 0.0000
# 6 0.0000 0.0000 0.0000 0.0000 0.0000 -16.0437
#
#
#
# Elastic Compliance Matrix: (Units=1/GPa)
#
#
# Indices 1 2 3 4 5 6 
#
# 1 0.015455 0.001766 -0.007111 0.000000 0.000000 0.000000
# 2 0.001766 0.027331 -0.001892 0.000000 0.000000 0.000000
# 3 -0.007111 -0.001892 0.007138 0.000000 0.000000 0.000000
# 4 0.000000 0.000000 0.000000 0.047050 0.000000 0.000000
# 5 0.000000 0.000000 0.000000 0.000000 -0.157559 0.000000
# 6 0.000000 0.000000 0.000000 0.000000 0.000000 -0.062330
#
#
# Mechanical properties :
#
#
# Convention : Reuss Voigt Hill
#
# Bulk Modulus (GPa) = 28.21045 75.40370 51.80707
# Shear Modulus (GPa) = -51.74691 18.98866 -16.37913
#
# Velocity S-wave (km/s) = -5.04422 3.05562 -2.83790
# Velocity P-wave (km/s) = 4.47821 7.03743 3.83869
#
# Compressibility (1/GPa) = 0.03544786
#
# Stress axis : x y z
#
# Youngs Moduli (GPa) = 64.70565 36.58807 140.10034
#
# Poissons Ratio (x) = -0.06460 0.99630
# Poissons Ratio (y) = -0.11424 0.26508
# Poissons Ratio (z) = 0.46014 0.06923
#
# Static dielectric constant tensor:
#      x y z
#    x 1.653630 0.000000 0.000000 
#    y 0.000000 1.774570 0.000000 
#    z 0.000000 0.000000 1.781070 
# 
# From -- ./inp_files/67358.got.cif
#   From: 2010.05.17/outbox.cif.g08.bks.cpg/sg65_34_cif.got.tgz:67358.got - 2010.06.03 17:01:31.
