data_PCOD9484818
_publ_section_title
;
Structure prediction by ZEFSAII (Michael W. Deem and Ramdas Pophale) SiO2 
 PCOD9484818
Probable space group: C M M M
;
_chemical_formula_sum "Si O2"
_cell_formula_units_Z 88
_cell_length_a 9.231422
_cell_length_b 27.215733
_cell_length_c 21.409599
_cell_angle_alpha 90.000000
_cell_angle_beta 90.000000
_cell_angle_gamma 90.000000
_cell_volume 5378.945862
_symmetry_space_group_name_H-M "C M M M"
_symmetry_group_IT_number 65
_symmetry_cell_setting 'orthorhombic'
loop_
_space_group_symop_operation_xyz
x,y,z
-x,-y,z
x,-y,-z
-x,y,-z
-x,-y,-z
x,y,-z
-x,y,z
x,-y,z
1/2+x,1/2+y,z
1/2-x,1/2-y,z
1/2+x,1/2-y,-z
1/2-x,1/2+y,-z
1/2-x,1/2-y,-z
1/2+x,1/2+y,-z
1/2-x,1/2+y,z
1/2+x,1/2-y,z
loop_
_atom_site_type_symbol
_atom_site_label
_atom_site_fract_x
_atom_site_fract_y
_atom_site_fract_z
Si Si1 0.672495 0.556398 0.881830
Si Si2 0.330429 0.598314 0.746106
Si Si3 0.666808 0.559773 0.500000
Si Si4 0.670306 0.941058 0.374059
Si Si5 0.328445 0.701059 0.186377
Si Si6 0.671859 0.848465 0.928404
O O1 0.500000 0.565517 0.891727
O O2 0.703596 0.500000 0.898107
O O3 0.699797 0.565919 0.808068
O O4 0.765047 0.596668 0.918350
O O5 0.500000 0.591379 0.730537
O O6 0.234957 0.583468 0.687596
O O7 0.308289 0.654393 0.768204
O O8 0.669515 0.500000 0.500000
O O9 0.500000 0.575410 0.500000
O O10 0.747603 0.575319 0.436856
O O11 0.500000 0.931490 0.380059
O O12 0.690340 0.000000 0.368191
O O13 0.500000 0.708698 0.178410
O O14 0.250000 0.750000 0.209262
O O15 0.256281 0.685298 0.120779
O O16 0.500000 0.847788 0.915365
O O17 0.695041 0.833420 0.000000
#
# Coordination Sequence:
#
# PCOD9484818 Si02
#       6
#    16  16   8  16  16  16
#     4   9  18  32  49  69  95 128 164 201 239 281
#     4   9  18  32  49  70  95 124 159 195 234 284
#     4   9  17  29  45  65  94 135 174 203 233 271
#     4  10  19  29  44  70 103 135 166 200 235 271
#     4  10  21  37  56  75  95 120 153 197 246 294
#     4  10  21  35  50  70  96 125 158 196 239 290
#
# _framework density 16.360082999999999
#
# number of rings (size 3 to 8) (size 9 to 14) (size 15 to 20)
#    0.000    2.455    0.000    3.545    0.000    9.091 
#    0.000    1.818    0.000    0.000    0.000    0.636 
#    0.000    0.000    0.000    0.000    0.000    0.000 
#
# Total GULP energy -245493.218228 kJ/mol
# GULP energy per Si atom -5579.391323 kJ/mol
# Density = 1.632285 g / cm^3
# Si number density = 16.360083 Si / 1000 Ang^3
#
#
#
# Elastic Constant Matrix: (Units=GPa)
#
#
# Indices 1 2 3 4 5 6 
#
# 1 96.8272 28.5400 61.0474 0.0000 0.0000 0.0000
# 2 28.5400 32.5765 0.3655 0.0000 0.0000 0.0000
# 3 61.0474 0.3655 75.0699 0.0000 0.0000 0.0000
# 4 0.0000 0.0000 0.0000 4.4493 0.0000 0.0000
# 5 0.0000 0.0000 0.0000 0.0000 28.9286 0.0000
# 6 0.0000 0.0000 0.0000 0.0000 0.0000 27.4428
#
#
#
# Elastic Compliance Matrix: (Units=1/GPa)
#
#
# Indices 1 2 3 4 5 6 
#
# 1 0.044060 -0.038201 -0.035644 0.000000 0.000000 0.000000
# 2 -0.038201 0.063819 0.030754 0.000000 0.000000 0.000000
# 3 -0.035644 0.030754 0.042157 0.000000 0.000000 0.000000
# 4 0.000000 0.000000 0.000000 0.224753 0.000000 0.000000
# 5 0.000000 0.000000 0.000000 0.000000 0.034568 0.000000
# 6 0.000000 0.000000 0.000000 0.000000 0.000000 0.036439
#
#
# Mechanical properties :
#
#
# Convention : Reuss Voigt Hill
#
# Bulk Modulus (GPa) = 15.66031 42.70882 29.18457
# Shear Modulus (GPa) = 9.03730 19.79887 14.41809
#
# Velocity S-wave (km/s) = 2.35287 3.48256 2.97188
# Velocity P-wave (km/s) = 4.12000 6.50639 5.44553
#
# Compressibility (1/GPa) = 0.06385570
#
# Stress axis : x y z
#
# Youngs Moduli (GPa) = 22.69628 15.66925 23.72082
#
# Poissons Ratio (x) = 0.59858 0.84550
# Poissons Ratio (y) = 0.86701 -0.72952
# Poissons Ratio (z) = 0.80898 -0.48190
#
# Static dielectric constant tensor:
#      x y z
#    x 1.543920 0.000000 0.000000 
#    y 0.000000 1.543820 0.000000 
#    z 0.000000 0.000000 1.529890 
# 
# From -- ./inp_files/50432.got.cif
#   From: 2010.05.17/outbox.cif.g08.bks.cpg/sg65_26_cif.got.tgz:50432.got - 2010.06.03 17:01:31.
