data_PCOD9484782
_publ_section_title
;
Structure prediction by ZEFSAII (Michael W. Deem and Ramdas Pophale) SiO2 
 PCOD9484782
Probable space group: C M M M
;
_chemical_formula_sum "Si O2"
_cell_formula_units_Z 112
_cell_length_a 26.634429
_cell_length_b 13.925919
_cell_length_c 19.136329
_cell_angle_alpha 90.000000
_cell_angle_beta 90.000000
_cell_angle_gamma 90.000000
_cell_volume 7097.834756
_symmetry_space_group_name_H-M "C M M M"
_symmetry_group_IT_number 65
_symmetry_cell_setting 'orthorhombic'
loop_
_space_group_symop_operation_xyz
x,y,z
-x,-y,z
x,-y,-z
-x,y,-z
-x,-y,-z
x,y,-z
-x,y,z
x,-y,z
1/2+x,1/2+y,z
1/2-x,1/2-y,z
1/2+x,1/2-y,-z
1/2-x,1/2+y,-z
1/2-x,1/2-y,-z
1/2+x,1/2+y,-z
1/2-x,1/2+y,z
1/2+x,1/2-y,z
loop_
_atom_site_type_symbol
_atom_site_label
_atom_site_fract_x
_atom_site_fract_y
_atom_site_fract_z
Si Si1 0.807774 0.780348 0.077431
Si Si2 0.387337 0.887738 0.080648
Si Si3 0.866018 0.256420 0.314350
Si Si4 0.186050 0.889313 0.214248
Si Si5 0.329593 0.387001 0.417368
Si Si6 0.231167 0.611616 0.322984
Si Si7 0.940647 0.612983 0.772029
O O1 0.750000 0.750000 0.080260
O O2 0.841607 0.686093 0.090055
O O3 0.815734 0.861277 0.134394
O O4 0.819744 0.815669 0.000000
O O5 0.423631 0.870175 0.147019
O O6 0.371782 0.000000 0.084974
O O7 0.406784 0.874379 0.000000
O O8 0.851048 0.181300 0.254179
O O9 0.868658 0.187139 0.382156
O O10 0.817843 0.324386 0.328087
O O11 0.910277 0.321313 0.282911
O O12 0.240843 0.872096 0.248900
O O13 0.174143 0.000000 0.227586
O O14 0.325610 0.372654 0.500000
O O15 0.341761 0.500000 0.404450
O O16 0.275429 0.370148 0.379650
O O17 0.217427 0.500000 0.328280
O O18 0.930181 0.500000 0.757934
O O19 0.000000 0.629132 0.766223
#
# Coordination Sequence:
#
# PCOD9484782 Si02
#       7
#    16  16  16  16  16  16  16
#     4  10  19  30  43  65  97 132 168 200 236 288
#     4   9  18  33  52  73  98 128 164 208 256 301
#     4  11  18  31  51  71  99 133 165 196 247 298
#     4  10  19  29  43  66  95 127 166 202 235 284
#     4   9  18  32  51  78 109 135 163 200 236 278
#     4   9  18  29  45  71 102 134 164 196 237 288
#     4  10  21  35  53  77 100 124 162 213 261 301
#
# _framework density 15.77946
#
# number of rings (size 3 to 8) (size 9 to 14) (size 15 to 20)
#    0.000    2.286    1.429    4.286    0.000    2.286 
#    0.000    2.857    0.000    3.429    0.000    2.000 
#    0.000    2.286    0.000    0.000    0.000    0.000 
#
# Total GULP energy -311875.773433 kJ/mol
# GULP energy per Si atom -5569.210240 kJ/mol
# Density = 1.574354 g / cm^3
# Si number density = 15.779460 Si / 1000 Ang^3
#
#
#
# Elastic Constant Matrix: (Units=GPa)
#
#
# Indices 1 2 3 4 5 6 
#
# 1 64.0195 47.5862 38.0191 0.0000 0.0000 0.0000
# 2 47.5862 87.8420 50.5001 0.0000 0.0000 0.0000
# 3 38.0191 50.5001 107.7527 0.0000 0.0000 0.0000
# 4 0.0000 0.0000 0.0000 31.1601 0.0000 0.0000
# 5 0.0000 0.0000 0.0000 0.0000 5.3150 0.0000
# 6 0.0000 0.0000 0.0000 0.0000 0.0000 19.6851
#
#
#
# Elastic Compliance Matrix: (Units=1/GPa)
#
#
# Indices 1 2 3 4 5 6 
#
# 1 0.027176 -0.012606 -0.003681 0.000000 0.000000 0.000000
# 2 -0.012606 0.021430 -0.005596 0.000000 0.000000 0.000000
# 3 -0.003681 -0.005596 0.013202 0.000000 0.000000 0.000000
# 4 0.000000 0.000000 0.000000 0.032092 0.000000 0.000000
# 5 0.000000 0.000000 0.000000 0.000000 0.188147 0.000000
# 6 0.000000 0.000000 0.000000 0.000000 0.000000 0.050800
#
#
# Mechanical properties :
#
#
# Convention : Reuss Voigt Hill
#
# Bulk Modulus (GPa) = 55.42279 59.09166 57.25723
# Shear Modulus (GPa) = 13.06759 19.46597 16.26678
#
# Velocity S-wave (km/s) = 2.88086 3.51611 3.21422
# Velocity P-wave (km/s) = 6.80187 7.34941 7.08094
#
# Compressibility (1/GPa) = 0.01804312
#
# Stress axis : x y z
#
# Youngs Moduli (GPa) = 36.79684 46.66364 75.74763
#
# Poissons Ratio (x) = 0.58824 0.27881
# Poissons Ratio (y) = 0.46386 0.42386
# Poissons Ratio (z) = 0.13544 0.26111
#
# Static dielectric constant tensor:
#      x y z
#    x 1.498100 0.000000 0.000000 
#    y 0.000000 1.542970 0.000000 
#    z 0.000000 0.000000 1.560750 
# 
# From -- ./inp_files/65419.got.cif
#   From: 2010.05.17/outbox.cif.g08.bks.cpg/sg65_33_cif.got.tgz:65419.got - 2010.06.03 17:01:31.
