data_PCOD9484185
_publ_section_title
;
Structure prediction by ZEFSAII (Michael W. Deem and Ramdas Pophale) SiO2 
 PCOD9484185
Probable space group: C M M M
;
_chemical_formula_sum "Si O2"
_cell_formula_units_Z 76
_cell_length_a 21.233443
_cell_length_b 25.156702
_cell_length_c 7.337383
_cell_angle_alpha 90.000000
_cell_angle_beta 90.000000
_cell_angle_gamma 90.000000
_cell_volume 3919.361436
_symmetry_space_group_name_H-M "C M M M"
_symmetry_group_IT_number 65
_symmetry_cell_setting 'orthorhombic'
loop_
_space_group_symop_operation_xyz
x,y,z
-x,-y,z
x,-y,-z
-x,y,-z
-x,-y,-z
x,y,-z
-x,y,z
x,-y,z
1/2+x,1/2+y,z
1/2-x,1/2-y,z
1/2+x,1/2-y,-z
1/2-x,1/2+y,-z
1/2-x,1/2-y,-z
1/2+x,1/2+y,-z
1/2-x,1/2+y,z
1/2+x,1/2-y,z
loop_
_atom_site_type_symbol
_atom_site_label
_atom_site_fract_x
_atom_site_fract_y
_atom_site_fract_z
Si Si1 0.282599 0.902961 0.790072
Si Si2 0.192714 0.713139 0.213727
Si Si3 0.637065 0.391521 0.278526
Si Si4 0.928922 0.216526 0.280494
Si Si5 0.928252 0.000000 0.277821
Si Si6 0.796365 0.500000 0.500000
O O1 0.311265 0.847259 0.717592
O O2 0.207991 0.890201 0.789339
O O3 0.294027 0.952867 0.659348
O O4 0.302548 0.913339 0.000000
O O5 0.250000 0.750000 0.289000
O O6 0.126216 0.742625 0.231623
O O7 0.207241 0.706626 0.000000
O O8 0.639604 0.391061 0.500000
O O9 0.595590 0.341397 0.220421
O O10 0.606442 0.446778 0.220453
O O11 0.931389 0.215268 0.500000
O O12 0.000000 0.227805 0.215913
O O13 0.927704 0.000000 0.500000
O O14 0.000000 0.000000 0.218912
#
# Coordination Sequence:
#
# PCOD9484185 Si02
#       6
#    16  16  16  16   8   4
#     4  11  23  38  60  89 120 156 202 254 301 364
#     4  10  21  38  59  86 118 157 204 251 305 365
#     4  10  18  31  52  78 116 159 207 247 294 343
#     4  10  21  34  54  87 125 162 205 250 301 366
#     4   9  17  28  45  68 102 153 205 246 283 331
#     4  12  24  40  58  88 120 158 200 252 316 360
#
# _framework density 19.390915
#
# number of rings (size 3 to 8) (size 9 to 14) (size 15 to 20)
#    0.000    1.789    3.158    1.579    2.947    3.368 
#    0.000    0.000    0.000    2.526    0.000    1.474 
#    0.000    3.368    0.000    0.000    0.000    0.000 
#
# Total GULP energy -211674.104449 kJ/mol
# GULP energy per Si atom -5570.371170 kJ/mol
# Density = 1.934678 g / cm^3
# Si number density = 19.390915 Si / 1000 Ang^3
#
#
#
# Elastic Constant Matrix: (Units=GPa)
#
#
# Indices 1 2 3 4 5 6 
#
# 1 80.0342 88.6122 0.0011 0.0000 0.0000 0.0000
# 2 88.6122 200.7920 37.6612 0.0000 0.0000 0.0000
# 3 0.0011 37.6612 109.0631 0.0000 0.0000 0.0000
# 4 0.0000 0.0000 0.0000 307.1216 0.0000 0.0000
# 5 0.0000 0.0000 0.0000 0.0000 19.0634 0.0000
# 6 0.0000 0.0000 0.0000 0.0000 0.0000 3.6988
#
#
#
# Elastic Compliance Matrix: (Units=1/GPa)
#
#
# Indices 1 2 3 4 5 6 
#
# 1 0.026164 -0.012346 0.004263 0.000000 0.000000 0.000000
# 2 -0.012346 0.011151 -0.003850 0.000000 0.000000 0.000000
# 3 0.004263 -0.003850 0.010499 0.000000 0.000000 0.000000
# 4 0.000000 0.000000 0.000000 0.003256 0.000000 0.000000
# 5 0.000000 0.000000 0.000000 0.000000 0.052456 0.000000
# 6 0.000000 0.000000 0.000000 0.000000 0.000000 0.270360
#
#
# Mechanical properties :
#
#
# Convention : Reuss Voigt Hill
#
# Bulk Modulus (GPa) = 41.75991 71.38201 56.57096
# Shear Modulus (GPa) = 12.32331 83.55107 47.93719
#
# Velocity S-wave (km/s) = 2.52369 6.57125 4.97746
# Velocity P-wave (km/s) = 5.48403 9.71942 7.89119
#
# Compressibility (1/GPa) = 0.02394641
#
# Stress axis : x y z
#
# Youngs Moduli (GPa) = 38.22061 89.67837 95.25089
#
# Poissons Ratio (x) = 1.10717 -0.40606
# Poissons Ratio (y) = 0.47187 0.36676
# Poissons Ratio (z) = -0.16293 0.34530
#
# Static dielectric constant tensor:
#      x y z
#    x 1.673660 0.000000 0.000000 
#    y 0.000000 1.705210 0.000000 
#    z 0.000000 0.000000 1.746360 
# 
# From -- ./inp_files/9716.got.cif
#   From: 2010.05.17/outbox.cif.g08.bks.cpg/sg65_5_cif.got.tgz:9716.got - 2010.06.03 17:01:31.
