data_PCOD9484983
_publ_section_title
;
Structure prediction by ZEFSAII (Michael W. Deem and Ramdas Pophale) SiO2 
 PCOD9484983
Probable space group: C M M M
;
_chemical_formula_sum "Si O2"
_cell_formula_units_Z 80
_cell_length_a 18.236156
_cell_length_b 7.303642
_cell_length_c 27.698025
_cell_angle_alpha 90.000000
_cell_angle_beta 90.000000
_cell_angle_gamma 90.000000
_cell_volume 3689.109779
_symmetry_space_group_name_H-M "C M M M"
_symmetry_group_IT_number 65
_symmetry_cell_setting 'orthorhombic'
loop_
_space_group_symop_operation_xyz
x,y,z
-x,-y,z
x,-y,-z
-x,y,-z
-x,-y,-z
x,y,-z
-x,y,z
x,-y,z
1/2+x,1/2+y,z
1/2-x,1/2-y,z
1/2+x,1/2-y,-z
1/2-x,1/2+y,-z
1/2-x,1/2-y,-z
1/2+x,1/2+y,-z
1/2-x,1/2+y,z
1/2+x,1/2-y,z
loop_
_atom_site_type_symbol
_atom_site_label
_atom_site_fract_x
_atom_site_fract_y
_atom_site_fract_z
Si Si1 0.587624 0.279385 0.896148
Si Si2 0.412601 0.721854 0.000000
Si Si3 0.663732 0.717970 0.694463
Si Si4 0.415158 0.723681 0.402744
Si Si5 0.914245 0.776765 0.791139
Si Si6 0.163522 0.782070 0.500000
O O1 0.500000 0.242073 0.895880
O O2 0.595150 0.500000 0.896574
O O3 0.614784 0.215514 0.843801
O O4 0.617122 0.213452 0.948055
O O5 0.407188 0.500000 0.000000
O O6 0.500000 0.762996 0.000000
O O7 0.651374 0.500000 0.695053
O O8 0.750000 0.750000 0.691647
O O9 0.623702 0.786706 0.646353
O O10 0.630314 0.787741 0.744727
O O11 0.500000 0.776727 0.403850
O O12 0.412914 0.500000 0.402627
O O13 0.373428 0.786730 0.450819
O O14 0.000000 0.726326 0.786480
O O15 0.912412 0.000000 0.791765
O O16 0.250000 0.750000 0.500000
O O17 0.151552 0.000000 0.500000
#
# Coordination Sequence:
#
# PCOD9484983 Si02
#       6
#    16   8  16  16  16   8
#     4   7   9  13  23  42  68  95 123 157 198 241
#     4   7   8  10  18  36  65  96 119 147 196 247
#     4  10  19  30  45  64  86 111 139 173 211 250
#     4   9  17  30  49  70  88 111 147 183 209 239
#     4   8  13  22  37  56  76 101 136 173 204 239
#     4  10  19  31  49  71  95 120 144 174 210 248
#
# _framework density 21.685448000000001
#
# number of rings (size 3 to 8) (size 9 to 14) (size 15 to 20)
#    0.000    3.500    0.000    3.900    0.000    3.600 
#    0.000    0.000    0.000    4.800    0.000    0.700 
#    0.000    0.000    0.000    0.000    0.000   11.600 
#
# Total GULP energy -223037.430514 kJ/mol
# GULP energy per Si atom -5575.935763 kJ/mol
# Density = 2.163609 g / cm^3
# Si number density = 21.685448 Si / 1000 Ang^3
#
#
#
# Elastic Constant Matrix: (Units=GPa)
#
#
# Indices 1 2 3 4 5 6 
#
# 1 108.6524 -4.4743 116.4102 0.0000 0.0000 0.0000
# 2 -4.4743 87.9436 13.3998 0.0000 0.0000 0.0000
# 3 116.4102 13.3998 316.0119 0.0000 0.0000 0.0000
# 4 0.0000 0.0000 0.0000 -36.5330 0.0000 0.0000
# 5 0.0000 0.0000 0.0000 0.0000 -11.9421 0.0000
# 6 0.0000 0.0000 0.0000 0.0000 0.0000 27.5329
#
#
#
# Elastic Compliance Matrix: (Units=1/GPa)
#
#
# Indices 1 2 3 4 5 6 
#
# 1 0.015442 0.001663 -0.005759 0.000000 0.000000 0.000000
# 2 0.001663 0.011624 -0.001106 0.000000 0.000000 0.000000
# 3 -0.005759 -0.001106 0.005333 0.000000 0.000000 0.000000
# 4 0.000000 0.000000 0.000000 -0.027372 0.000000 0.000000
# 5 0.000000 0.000000 0.000000 0.000000 -0.083737 0.000000
# 6 0.000000 0.000000 0.000000 0.000000 0.000000 0.036320
#
#
# Mechanical properties :
#
#
# Convention : Reuss Voigt Hill
#
# Bulk Modulus (GPa) = 45.46223 84.80883 65.13553
# Shear Modulus (GPa) = -202.79676 21.62969 -90.58353
#
# Velocity S-wave (km/s) = -9.68093 3.16164 -6.47010
# Velocity P-wave (km/s) = 10.19562 7.24717 5.07096
#
# Compressibility (1/GPa) = 0.02199628
#
# Stress axis : x y z
#
# Youngs Moduli (GPa) = 64.75650 86.02893 187.51818
#
# Poissons Ratio (x) = -0.14308 1.07994
# Poissons Ratio (y) = -0.10770 0.20731
# Poissons Ratio (z) = 0.37294 0.09511
#
# Static dielectric constant tensor:
#      x y z
#    x 1.701990 0.000000 0.000000 
#    y 0.000000 1.841260 0.000000 
#    z 0.000000 0.000000 1.831780 
# 
# From -- ./inp_files/74738.got.cif
#   From: 2010.05.17/outbox.cif.g08.bks.cpg/sg65_38_cif.got.tgz:74738.got - 2010.06.03 17:01:31.
