data_PCOD9484176
_publ_section_title
;
Structure prediction by ZEFSAII (Michael W. Deem and Ramdas Pophale) SiO2 
 PCOD9484176
Probable space group: C M M M
;
_chemical_formula_sum "Si O2"
_cell_formula_units_Z 80
_cell_length_a 19.122902
_cell_length_b 19.425300
_cell_length_c 13.309429
_cell_angle_alpha 90.000000
_cell_angle_beta 90.000000
_cell_angle_gamma 90.000000
_cell_volume 4944.028412
_symmetry_space_group_name_H-M "C M M M"
_symmetry_group_IT_number 65
_symmetry_cell_setting 'orthorhombic'
loop_
_space_group_symop_operation_xyz
x,y,z
-x,-y,z
x,-y,-z
-x,y,-z
-x,-y,-z
x,y,-z
-x,y,z
x,-y,z
1/2+x,1/2+y,z
1/2-x,1/2-y,z
1/2+x,1/2-y,-z
1/2-x,1/2+y,-z
1/2-x,1/2-y,-z
1/2+x,1/2+y,-z
1/2-x,1/2+y,z
1/2+x,1/2-y,z
loop_
_atom_site_type_symbol
_atom_site_label
_atom_site_fract_x
_atom_site_fract_y
_atom_site_fract_z
Si Si1 0.580524 0.394973 0.614447
Si Si2 0.289912 0.823559 0.617155
Si Si3 0.296335 0.577476 0.239633
Si Si4 0.419064 0.756207 0.297844
Si Si5 0.177285 0.791911 0.884221
O O1 0.601951 0.410022 0.500000
O O2 0.500000 0.416234 0.627204
O O3 0.632115 0.425376 0.696252
O O4 0.583248 0.312823 0.634038
O O5 0.281849 0.840078 0.500000
O O6 0.250000 0.750000 0.634229
O O7 0.256204 0.881492 0.686937
O O8 0.370040 0.811217 0.647463
O O9 0.274400 0.500000 0.214332
O O10 0.308579 0.629007 0.146889
O O11 0.500000 0.775078 0.283964
O O12 0.380246 0.737099 0.193410
O O13 0.250000 0.750000 0.871606
O O14 0.155655 0.786020 0.000000
#
# Coordination Sequence:
#
# PCOD9484176 Si02
#       5
#    16  16  16  16  16
#     4   9  17  29  46  71 102 135 170 205 244 297
#     4  11  19  32  52  75 104 136 174 217 255 298
#     4  11  21  33  49  74 106 140 173 207 256 309
#     4  10  18  31  52  78 103 130 168 214 264 307
#     4  10  19  36  58  77  99 127 167 217 261 302
#
# _framework density 16.181137
#
# number of rings (size 3 to 8) (size 9 to 14) (size 15 to 20)
#    0.000    1.800    6.000    1.200    0.000    4.000 
#    0.000    1.000    0.000    0.600    0.000    7.000 
#    0.000    3.200    0.000    0.000    0.000    0.000 
#
# Total GULP energy -223105.653395 kJ/mol
# GULP energy per Si atom -5577.641335 kJ/mol
# Density = 1.614431 g / cm^3
# Si number density = 16.181137 Si / 1000 Ang^3
#
#
#
# Elastic Constant Matrix: (Units=GPa)
#
#
# Indices 1 2 3 4 5 6 
#
# 1 77.8548 13.6525 2.7274 0.0000 0.0000 0.0000
# 2 13.6525 48.0175 -5.4520 0.0000 0.0000 0.0000
# 3 2.7274 -5.4520 57.3386 0.0000 0.0000 0.0000
# 4 0.0000 0.0000 0.0000 2.2154 0.0000 0.0000
# 5 0.0000 0.0000 0.0000 0.0000 19.0161 0.0000
# 6 0.0000 0.0000 0.0000 0.0000 0.0000 10.5347
#
#
#
# Elastic Compliance Matrix: (Units=1/GPa)
#
#
# Indices 1 2 3 4 5 6 
#
# 1 0.013578 -0.003977 -0.001024 0.000000 0.000000 0.000000
# 2 -0.003977 0.022218 0.002302 0.000000 0.000000 0.000000
# 3 -0.001024 0.002302 0.017708 0.000000 0.000000 0.000000
# 4 0.000000 0.000000 0.000000 0.451376 0.000000 0.000000
# 5 0.000000 0.000000 0.000000 0.000000 0.052587 0.000000
# 6 0.000000 0.000000 0.000000 0.000000 0.000000 0.094924
#
#
# Mechanical properties :
#
#
# Convention : Reuss Voigt Hill
#
# Bulk Modulus (GPa) = 20.78772 22.78518 21.78645
# Shear Modulus (GPa) = 7.42034 17.83878 12.62956
#
# Velocity S-wave (km/s) = 2.14377 3.32391 2.79679
# Velocity P-wave (km/s) = 4.35918 5.37057 4.89109
#
# Compressibility (1/GPa) = 0.04810531
#
# Stress axis : x y z
#
# Youngs Moduli (GPa) = 73.65049 45.00904 56.47224
#
# Poissons Ratio (x) = 0.17899 0.05782
# Poissons Ratio (y) = 0.29289 -0.12998
# Poissons Ratio (z) = 0.07541 -0.10360
#
# Static dielectric constant tensor:
#      x y z
#    x 1.553400 0.000000 0.000000 
#    y 0.000000 1.561000 0.000000 
#    z 0.000000 0.000000 1.532580 
# 
# From -- ./inp_files/42327.got.cif
#   From: 2010.05.17/outbox.cif.g08.bks.cpg/sg65_22_cif.got.tgz:42327.got - 2010.06.03 17:01:31.
