data_PCOD9484995
_publ_section_title
;
Structure prediction by ZEFSAII (Michael W. Deem and Ramdas Pophale) SiO2 
 PCOD9484995
Probable space group: C M M M
;
_chemical_formula_sum "Si O2"
_cell_formula_units_Z 88
_cell_length_a 28.148866
_cell_length_b 7.653981
_cell_length_c 22.154428
_cell_angle_alpha 90.000000
_cell_angle_beta 90.000000
_cell_angle_gamma 90.000000
_cell_volume 4773.191131
_symmetry_space_group_name_H-M "C M M M"
_symmetry_group_IT_number 65
_symmetry_cell_setting 'orthorhombic'
loop_
_space_group_symop_operation_xyz
x,y,z
-x,-y,z
x,-y,-z
-x,y,-z
-x,-y,-z
x,y,-z
-x,y,z
x,-y,z
1/2+x,1/2+y,z
1/2-x,1/2-y,z
1/2+x,1/2-y,-z
1/2-x,1/2+y,-z
1/2-x,1/2-y,-z
1/2+x,1/2+y,-z
1/2-x,1/2+y,z
1/2+x,1/2-y,z
loop_
_atom_site_type_symbol
_atom_site_label
_atom_site_fract_x
_atom_site_fract_y
_atom_site_fract_z
Si Si1 0.694090 0.788932 0.500000
Si Si2 0.946764 0.289173 0.309723
Si Si3 0.444910 0.713384 0.932583
Si Si4 0.854664 0.705526 0.621432
Si Si5 0.696177 0.708073 0.742809
Si Si6 0.894524 0.209476 0.186957
O O1 0.750000 0.750000 0.500000
O O2 0.668021 0.721692 0.560359
O O3 0.690706 0.000000 0.500000
O O4 0.947176 0.500000 0.314431
O O5 0.904827 0.221829 0.353637
O O6 0.930974 0.246344 0.241468
O O7 0.000000 0.225330 0.322299
O O8 0.500000 0.763807 0.923772
O O9 0.444052 0.500000 0.932050
O O10 0.413440 0.777054 0.876852
O O11 0.430078 0.768318 0.000000
O O12 0.862659 0.500000 0.610804
O O13 0.817943 0.722346 0.676817
O O14 0.691177 0.500000 0.739420
O O15 0.750000 0.750000 0.758819
O O16 0.656516 0.775460 0.789655
O O17 0.891033 0.000000 0.181173
#
# Coordination Sequence:
#
# PCOD9484995 Si02
#       6
#     8  16  16  16  16  16
#     4  10  20  32  47  65  85 111 142 178 219 258
#     4   9  17  29  45  65  90 118 144 172 210 254
#     4   8  13  22  39  64  90 112 136 171 213 251
#     4   9  18  32  47  65  89 114 142 176 213 255
#     4  10  19  30  45  65  87 112 143 179 219 258
#     4   9  17  28  44  66  88 112 145 181 214 251
#
# _framework density 18.436302999999999
#
# number of rings (size 3 to 8) (size 9 to 14) (size 15 to 20)
#    0.000    2.909    0.000    2.182    0.000    4.000 
#    0.000    0.455    0.000    3.818    0.000    2.545 
#    0.000    6.545    0.000    0.000    0.000    0.545 
#
# Total GULP energy -245292.883598 kJ/mol
# GULP energy per Si atom -5574.838264 kJ/mol
# Density = 1.839434 g / cm^3
# Si number density = 18.436303 Si / 1000 Ang^3
#
#
#
# Elastic Constant Matrix: (Units=GPa)
#
#
# Indices 1 2 3 4 5 6 
#
# 1 145.5988 1.5579 98.3722 0.0000 0.0000 0.0000
# 2 1.5579 30.3659 6.2418 0.0000 0.0000 0.0000
# 3 98.3722 6.2418 181.3023 0.0000 0.0000 0.0000
# 4 0.0000 0.0000 0.0000 12.8845 0.0000 0.0000
# 5 0.0000 0.0000 0.0000 0.0000 49.9115 0.0000
# 6 0.0000 0.0000 0.0000 0.0000 0.0000 11.2977
#
#
#
# Elastic Compliance Matrix: (Units=1/GPa)
#
#
# Indices 1 2 3 4 5 6 
#
# 1 0.010856 0.000658 -0.005913 0.000000 0.000000 0.000000
# 2 0.000658 0.033206 -0.001500 0.000000 0.000000 0.000000
# 3 -0.005913 -0.001500 0.008776 0.000000 0.000000 0.000000
# 4 0.000000 0.000000 0.000000 0.077612 0.000000 0.000000
# 5 0.000000 0.000000 0.000000 0.000000 0.020035 0.000000
# 6 0.000000 0.000000 0.000000 0.000000 0.000000 0.088514
#
#
# Mechanical properties :
#
#
# Convention : Reuss Voigt Hill
#
# Bulk Modulus (GPa) = 25.42719 63.29009 44.35864
# Shear Modulus (GPa) = 18.82393 31.55843 25.19118
#
# Velocity S-wave (km/s) = 3.19881 4.14182 3.70048
# Velocity P-wave (km/s) = 5.24071 7.56813 6.50929
#
# Compressibility (1/GPa) = 0.03932797
#
# Stress axis : x y z
#
# Youngs Moduli (GPa) = 92.11248 30.11477 113.95103
#
# Poissons Ratio (x) = -0.01983 0.67381
# Poissons Ratio (y) = -0.06065 0.17098
# Poissons Ratio (z) = 0.54467 0.04519
#
# Static dielectric constant tensor:
#      x y z
#    x 1.592240 0.000000 0.000000 
#    y 0.000000 1.695020 0.000000 
#    z 0.000000 0.000000 1.628520 
# 
# From -- ./inp_files/66204.got.cif
#   From: 2010.05.17/outbox.cif.g08.bks.cpg/sg65_34_cif.got.tgz:66204.got - 2010.06.03 17:01:31.
