data_PCOD9484939
_publ_section_title
;
Structure prediction by ZEFSAII (Michael W. Deem and Ramdas Pophale) SiO2 
 PCOD9484939
Probable space group: C M M M
;
_chemical_formula_sum "Si O2"
_cell_formula_units_Z 104
_cell_length_a 7.710285
_cell_length_b 28.197416
_cell_length_c 28.229467
_cell_angle_alpha 90.000000
_cell_angle_beta 90.000000
_cell_angle_gamma 90.000000
_cell_volume 6137.371628
_symmetry_space_group_name_H-M "C M M M"
_symmetry_group_IT_number 65
_symmetry_cell_setting 'orthorhombic'
loop_
_space_group_symop_operation_xyz
x,y,z
-x,-y,z
x,-y,-z
-x,y,-z
-x,-y,-z
x,y,-z
-x,y,z
x,-y,z
1/2+x,1/2+y,z
1/2-x,1/2-y,z
1/2+x,1/2-y,-z
1/2-x,1/2+y,-z
1/2-x,1/2-y,-z
1/2+x,1/2+y,-z
1/2-x,1/2+y,z
1/2+x,1/2-y,z
loop_
_atom_site_type_symbol
_atom_site_label
_atom_site_fract_x
_atom_site_fract_y
_atom_site_fract_z
Si Si1 0.794058 0.145789 0.299823
Si Si2 0.793882 0.303380 0.605440
Si Si3 0.709750 0.897025 0.447066
Si Si4 0.790581 0.194175 0.794781
Si Si5 0.208538 0.193885 0.898060
Si Si6 0.791041 0.193715 0.000000
Si Si7 0.707433 0.552436 0.351486
O O1 0.771363 0.183769 0.341995
O O2 0.722762 0.165314 0.250370
O O3 0.722389 0.095949 0.319812
O O4 0.000000 0.139422 0.293395
O O5 0.750000 0.250000 0.591490
O O6 0.729640 0.344932 0.570556
O O7 0.000000 0.307333 0.606997
O O8 0.771801 0.907672 0.500000
O O9 0.500000 0.896448 0.448197
O O10 0.762236 0.933318 0.406083
O O11 0.750000 0.250000 0.789509
O O12 0.727146 0.176987 0.846643
O O13 0.000000 0.190502 0.795089
O O14 0.250000 0.250000 0.898123
O O15 0.273657 0.174899 0.948993
O O16 0.000000 0.188490 0.898230
O O17 0.750000 0.250000 0.000000
O O18 0.000000 0.188871 0.000000
O O19 0.500000 0.551260 0.344494
O O20 0.776909 0.500000 0.341287
#
# Coordination Sequence:
#
# PCOD9484939 Si02
#       7
#    16  16  16  16  16   8  16
#     4   9  17  29  43  58  77 101 127 156 190 226
#     4  10  19  30  44  61  81 105 131 156 182 215
#     4   9  19  34  48  63  83 104 126 152 182 219
#     4   9  16  24  35  52  74  99 126 154 183 216
#     4   8  13  20  29  43  63  89 121 153 182 211
#     4   8  12  18  28  40  58  86 119 153 183 209
#     4   9  18  32  48  64  80  98 122 153 190 230
#
# _framework density 16.945364999999999
#
# number of rings (size 3 to 8) (size 9 to 14) (size 15 to 20)
#    0.000    3.077    0.000    0.923    0.000    3.692 
#    0.000    1.538    0.000    0.000    0.000    0.000 
#    0.000    0.000    0.000    0.692    0.000   22.231 
#
# Total GULP energy -289470.601665 kJ/mol
# GULP energy per Si atom -5566.742340 kJ/mol
# Density = 1.690680 g / cm^3
# Si number density = 16.945365 Si / 1000 Ang^3
#
#
#
# Elastic Constant Matrix: (Units=GPa)
#
#
# Indices 1 2 3 4 5 6 
#
# 1 28.4984 2.9380 8.3898 0.0000 0.0000 0.0000
# 2 2.9380 60.4905 22.4159 0.0000 0.0000 0.0000
# 3 8.3898 22.4159 130.5905 0.0000 0.0000 0.0000
# 4 0.0000 0.0000 0.0000 10.0554 0.0000 0.0000
# 5 0.0000 0.0000 0.0000 0.0000 3.6132 0.0000
# 6 0.0000 0.0000 0.0000 0.0000 0.0000 9.3585
#
#
#
# Elastic Compliance Matrix: (Units=1/GPa)
#
#
# Indices 1 2 3 4 5 6 
#
# 1 0.035817 -0.000947 -0.002138 0.000000 0.000000 0.000000
# 2 -0.000947 0.017680 -0.002974 0.000000 0.000000 0.000000
# 3 -0.002138 -0.002974 0.008305 0.000000 0.000000 0.000000
# 4 0.000000 0.000000 0.000000 0.099449 0.000000 0.000000
# 5 0.000000 0.000000 0.000000 0.000000 0.276765 0.000000
# 6 0.000000 0.000000 0.000000 0.000000 0.000000 0.106855
#
#
# Mechanical properties :
#
#
# Convention : Reuss Voigt Hill
#
# Bulk Modulus (GPa) = 20.12769 31.89633 26.01201
# Shear Modulus (GPa) = 8.71762 16.99445 12.85604
#
# Velocity S-wave (km/s) = 2.27062 3.17029 2.75740
# Velocity P-wave (km/s) = 4.33337 5.68022 5.05188
#
# Compressibility (1/GPa) = 0.04968280
#
# Stress axis : x y z
#
# Youngs Moduli (GPa) = 27.91978 56.56259 120.40392
#
# Poissons Ratio (x) = 0.05357 0.25748
# Poissons Ratio (y) = 0.02644 0.35806
# Poissons Ratio (z) = 0.05971 0.16821
#
# Static dielectric constant tensor:
#      x y z
#    x 1.620360 0.000000 0.000000 
#    y 0.000000 1.544110 0.000000 
#    z 0.000000 0.000000 1.633180 
# 
# From -- ./inp_files/73747.got.cif
#   From: 2010.05.17/outbox.cif.g08.bks.cpg/sg65_37_cif.got.tgz:73747.got - 2010.06.03 17:01:31.
