data_PCOD9484436
_publ_section_title
;
Structure prediction by ZEFSAII (Michael W. Deem and Ramdas Pophale) SiO2 
 PCOD9484436
Probable space group: C M M M
;
_chemical_formula_sum "Si O2"
_cell_formula_units_Z 120
_cell_length_a 23.501037
_cell_length_b 13.480767
_cell_length_c 20.511612
_cell_angle_alpha 90.000000
_cell_angle_beta 90.000000
_cell_angle_gamma 90.000000
_cell_volume 6498.324904
_symmetry_space_group_name_H-M "C M M M"
_symmetry_group_IT_number 65
_symmetry_cell_setting 'orthorhombic'
loop_
_space_group_symop_operation_xyz
x,y,z
-x,-y,z
x,-y,-z
-x,y,-z
-x,-y,-z
x,y,-z
-x,y,z
x,-y,z
1/2+x,1/2+y,z
1/2-x,1/2-y,z
1/2+x,1/2-y,-z
1/2-x,1/2+y,-z
1/2-x,1/2-y,-z
1/2+x,1/2+y,-z
1/2-x,1/2+y,z
1/2+x,1/2-y,z
loop_
_atom_site_type_symbol
_atom_site_label
_atom_site_fract_x
_atom_site_fract_y
_atom_site_fract_z
Si Si1 0.068891 0.889023 0.424997
Si Si2 0.750000 0.250000 0.190816
Si Si3 0.215585 0.118073 0.928581
Si Si4 0.931235 0.268025 0.685238
Si Si5 0.914127 0.818472 0.069242
Si Si6 0.934658 0.894098 0.211156
Si Si7 0.435594 0.890616 0.876559
Si Si8 0.652602 0.886373 0.243337
O O1 0.087106 0.874989 0.500000
O O2 0.083549 0.799166 0.377306
O O3 0.000000 0.891527 0.424936
O O4 0.087352 0.000000 0.403040
O O5 0.760198 0.161901 0.137904
O O6 0.700460 0.199072 0.234017
O O7 0.153148 0.165051 0.931241
O O8 0.211095 0.000000 0.923720
O O9 0.243893 0.138448 0.000000
O O10 0.914573 0.197655 0.746765
O O11 0.890578 0.361301 0.697256
O O12 0.000000 0.288037 0.685824
O O13 0.934517 0.871100 0.134719
O O14 0.927819 0.702646 0.076864
O O15 0.935984 0.856716 0.000000
O O16 0.000000 0.902672 0.232413
O O17 0.905606 0.000000 0.222855
O O18 0.500000 0.882438 0.848352
O O19 0.388061 0.884276 0.820832
O O20 0.431197 0.000000 0.907290
O O21 0.674825 0.000000 0.248626
#
# Coordination Sequence:
#
# PCOD9484436 Si02
#       8
#    16   8  16  16  16  16  16  16
#     4   8  14  26  48  83 125 162 193 223 256 303
#     4  12  21  40  60  76 101 132 172 234 286 334
#     4  10  21  36  54  74  96 126 167 221 288 352
#     4  10  18  32  55  82 115 153 184 218 266 319
#     4  11  21  34  49  68  96 132 176 223 276 330
#     4  10  19  29  42  65  97 135 179 217 254 311
#     4  10  20  36  55  74 100 132 170 219 272 326
#     4  11  23  37  56  82 105 136 182 226 273 328
#
# _framework density 18.466297000000001
#
# number of rings (size 3 to 8) (size 9 to 14) (size 15 to 20)
#    0.000    1.867    2.667    2.600    0.000    4.533 
#    0.000    3.333    0.000    0.400    0.000    2.333 
#    0.000    0.000    0.000    0.000    0.000    0.000 
#
# Total GULP energy -334124.238765 kJ/mol
# GULP energy per Si atom -5568.737313 kJ/mol
# Density = 1.842427 g / cm^3
# Si number density = 18.466297 Si / 1000 Ang^3
#
#
#
# Elastic Constant Matrix: (Units=GPa)
#
#
# Indices 1 2 3 4 5 6 
#
# 1 50.7240 27.1384 15.3507 0.0000 0.0000 0.0000
# 2 27.1384 94.4944 17.2065 0.0000 0.0000 0.0000
# 3 15.3507 17.2065 54.3896 0.0000 0.0000 0.0000
# 4 0.0000 0.0000 0.0000 19.9832 0.0000 0.0000
# 5 0.0000 0.0000 0.0000 0.0000 1.2477 0.0000
# 6 0.0000 0.0000 0.0000 0.0000 0.0000 14.7113
#
#
#
# Elastic Compliance Matrix: (Units=1/GPa)
#
#
# Indices 1 2 3 4 5 6 
#
# 1 0.024500 -0.006130 -0.004975 0.000000 0.000000 0.000000
# 2 -0.006130 0.012763 -0.002308 0.000000 0.000000 0.000000
# 3 -0.004975 -0.002308 0.020520 0.000000 0.000000 0.000000
# 4 0.000000 0.000000 0.000000 0.050042 0.000000 0.000000
# 5 0.000000 0.000000 0.000000 0.000000 0.801443 0.000000
# 6 0.000000 0.000000 0.000000 0.000000 0.000000 0.067975
#
#
# Mechanical properties :
#
#
# Convention : Reuss Voigt Hill
#
# Bulk Modulus (GPa) = 32.30293 35.44436 33.87365
# Shear Modulus (GPa) = 4.92907 16.51592 10.72250
#
# Velocity S-wave (km/s) = 1.63555 2.99387 2.41229
# Velocity P-wave (km/s) = 4.59321 5.58451 5.11294
#
# Compressibility (1/GPa) = 0.03095694
#
# Stress axis : x y z
#
# Youngs Moduli (GPa) = 40.81605 78.34871 48.73260
#
# Poissons Ratio (x) = 0.48031 0.24247
# Poissons Ratio (y) = 0.25022 0.11246
# Poissons Ratio (z) = 0.20308 0.18080
#
# Static dielectric constant tensor:
#      x y z
#    x 1.666300 0.000000 0.000000 
#    y 0.000000 1.740550 0.000000 
#    z 0.000000 0.000000 1.656550 
# 
# From -- ./inp_files/65548.got.cif
#   From: 2010.05.17/outbox.cif.g08.bks.cpg/sg65_33_cif.got.tgz:65548.got - 2010.06.03 17:01:31.
