data_PCOD9484193
_publ_section_title
;
Structure prediction by ZEFSAII (Michael W. Deem and Ramdas Pophale) SiO2 
 PCOD9484193
Probable space group: C M M M
;
_chemical_formula_sum "Si O2"
_cell_formula_units_Z 104
_cell_length_a 7.691789
_cell_length_b 25.774056
_cell_length_c 28.115981
_cell_angle_alpha 90.000000
_cell_angle_beta 90.000000
_cell_angle_gamma 90.000000
_cell_volume 5573.953883
_symmetry_space_group_name_H-M "C M M M"
_symmetry_group_IT_number 65
_symmetry_cell_setting 'orthorhombic'
loop_
_space_group_symop_operation_xyz
x,y,z
-x,-y,z
x,-y,-z
-x,y,-z
-x,-y,-z
x,y,-z
-x,y,z
x,-y,z
1/2+x,1/2+y,z
1/2-x,1/2-y,z
1/2+x,1/2-y,-z
1/2-x,1/2+y,-z
1/2-x,1/2-y,-z
1/2+x,1/2+y,-z
1/2-x,1/2+y,z
1/2+x,1/2-y,z
loop_
_atom_site_type_symbol
_atom_site_label
_atom_site_fract_x
_atom_site_fract_y
_atom_site_fract_z
Si Si1 0.204661 0.939528 0.674036
Si Si2 0.791232 0.690624 0.946628
Si Si3 0.698026 0.000000 0.555862
Si Si4 0.712181 0.000000 0.054949
Si Si5 0.712999 0.098795 0.118149
Si Si6 0.790311 0.440511 0.218067
Si Si7 0.294199 0.889369 0.418219
Si Si8 0.209190 0.311279 0.500000
O O1 0.236296 0.925409 0.728933
O O2 0.275501 0.894950 0.638671
O O3 0.000000 0.942105 0.666158
O O4 0.271863 0.000000 0.666843
O O5 0.750000 0.750000 0.935864
O O6 0.726211 0.650812 0.907452
O O7 0.000000 0.685297 0.948289
O O8 0.725446 0.678844 0.000000
O O9 0.784144 0.945527 0.568191
O O10 0.500000 0.000000 0.576063
O O11 0.680910 0.000000 0.500000
O O12 0.764765 0.949513 0.084890
O O13 0.500000 0.000000 0.053729
O O14 0.770437 0.000000 0.000000
O O15 0.500000 0.098626 0.118999
O O16 0.770940 0.091528 0.172451
O O17 0.732589 0.500000 0.210919
O O18 0.000000 0.440308 0.217529
O O19 0.500000 0.891457 0.428898
O O20 0.228950 0.843067 0.452498
O O21 0.250000 0.250000 0.500000
O O22 0.000000 0.313205 0.500000
#
# Coordination Sequence:
#
# PCOD9484193 Si02
#       8
#    16  16   8   8  16  16  16   8
#     4  10  20  31  45  71 105 133 159 197 248 296
#     4   9  17  29  45  66  92 121 153 191 235 282
#     4   9  14  24  46  75 100 120 151 197 234 265
#     4   9  14  20  35  64  98 124 149 190 245 294
#     4   9  15  25  42  66  93 121 155 196 239 284
#     4   9  16  28  46  67  93 125 160 196 236 289
#     4  10  18  31  53  77 100 131 168 201 237 284
#     4  10  22  37  55  78 104 137 174 204 236 285
#
# _framework density 18.65821
#
# number of rings (size 3 to 8) (size 9 to 14) (size 15 to 20)
#    0.000    2.615    2.308    0.923    0.000    3.077 
#    0.000    0.769    0.000    2.308    0.000    2.154 
#    0.000    3.692    0.000    0.000    0.000    0.000 
#
# Total GULP energy -289578.526879 kJ/mol
# GULP energy per Si atom -5568.817825 kJ/mol
# Density = 1.861574 g / cm^3
# Si number density = 18.658210 Si / 1000 Ang^3
#
#
#
# Elastic Constant Matrix: (Units=GPa)
#
#
# Indices 1 2 3 4 5 6 
#
# 1 33.0384 9.0801 12.7716 0.0000 0.0000 0.0000
# 2 9.0801 118.7528 98.9516 0.0000 0.0000 0.0000
# 3 12.7716 98.9516 176.3372 0.0000 0.0000 0.0000
# 4 0.0000 0.0000 0.0000 24.3247 0.0000 0.0000
# 5 0.0000 0.0000 0.0000 0.0000 -2.1778 0.0000
# 6 0.0000 0.0000 0.0000 0.0000 0.0000 25.2393
#
#
#
# Elastic Compliance Matrix: (Units=1/GPa)
#
#
# Indices 1 2 3 4 5 6 
#
# 1 0.031196 -0.000944 -0.001730 0.000000 0.000000 0.000000
# 2 -0.000944 0.015845 -0.008823 0.000000 0.000000 0.000000
# 3 -0.001730 -0.008823 0.010747 0.000000 0.000000 0.000000
# 4 0.000000 0.000000 0.000000 0.041110 0.000000 0.000000
# 5 0.000000 0.000000 0.000000 0.000000 -0.459182 0.000000
# 6 0.000000 0.000000 0.000000 0.000000 0.000000 0.039621
#
#
# Mechanical properties :
#
#
# Convention : Reuss Voigt Hill
#
# Bulk Modulus (GPa) = 28.74006 63.30388 46.02197
# Shear Modulus (GPa) = -17.47817 23.29891 2.91037
#
# Velocity S-wave (km/s) = -3.06397 3.53756 1.25029
# Velocity P-wave (km/s) = 1.70871 7.11952 5.17722
#
# Compressibility (1/GPa) = 0.03479464
#
# Stress axis : x y z
#
# Youngs Moduli (GPa) = 32.05545 63.11202 93.04718
#
# Poissons Ratio (x) = 0.05958 0.16094
# Poissons Ratio (y) = 0.03026 0.82095
# Poissons Ratio (z) = 0.05545 0.55683
#
# Static dielectric constant tensor:
#      x y z
#    x 1.714990 0.000000 0.000000 
#    y 0.000000 1.634360 0.000000 
#    z 0.000000 0.000000 1.699330 
# 
# From -- ./inp_files/73863.got.cif
#   From: 2010.05.17/outbox.cif.g08.bks.cpg/sg65_37_cif.got.tgz:73863.got - 2010.06.03 17:01:31.
