data_PCOD9484823
_publ_section_title
;
Structure prediction by ZEFSAII (Michael W. Deem and Ramdas Pophale) SiO2 
 PCOD9484823
Probable space group: C M M M
;
_chemical_formula_sum "Si O2"
_cell_formula_units_Z 112
_cell_length_a 29.639004
_cell_length_b 14.724703
_cell_length_c 14.605134
_cell_angle_alpha 90.000000
_cell_angle_beta 90.000000
_cell_angle_gamma 90.000000
_cell_volume 6374.053363
_symmetry_space_group_name_H-M "C M M M"
_symmetry_group_IT_number 65
_symmetry_cell_setting 'orthorhombic'
loop_
_space_group_symop_operation_xyz
x,y,z
-x,-y,z
x,-y,-z
-x,y,-z
-x,-y,-z
x,y,-z
-x,y,z
x,-y,z
1/2+x,1/2+y,z
1/2-x,1/2-y,z
1/2+x,1/2-y,-z
1/2-x,1/2+y,-z
1/2-x,1/2-y,-z
1/2+x,1/2+y,-z
1/2-x,1/2+y,z
1/2+x,1/2-y,z
loop_
_atom_site_type_symbol
_atom_site_label
_atom_site_fract_x
_atom_site_fract_y
_atom_site_fract_z
Si Si1 0.770345 0.895841 0.205712
Si Si2 0.910896 0.716161 0.893369
Si Si3 0.050141 0.607729 0.735664
Si Si4 0.139101 0.893386 0.108669
Si Si5 0.765161 0.353677 0.603738
Si Si6 0.368109 0.890540 0.604383
Si Si7 0.681949 0.893953 0.891832
O O1 0.817681 0.861664 0.167475
O O2 0.764372 0.894975 0.314791
O O3 0.724890 0.855128 0.162438
O O4 0.769575 0.000000 0.172419
O O5 0.945302 0.667422 0.826358
O O6 0.900895 0.822058 0.873967
O O7 0.863410 0.662915 0.878835
O O8 0.923033 0.706457 0.000000
O O9 0.055892 0.500000 0.756061
O O10 0.090862 0.636752 0.669184
O O11 0.000000 0.618264 0.694978
O O12 0.129200 0.000000 0.127532
O O13 0.150219 0.886098 0.000000
O O14 0.761163 0.391840 0.500000
O O15 0.750000 0.250000 0.599371
O O16 0.817816 0.360385 0.631222
O O17 0.375754 0.859854 0.500000
O O18 0.367091 0.000000 0.604778
O O19 0.673752 0.000000 0.864401
O O20 0.692616 0.893113 0.000000
#
# Coordination Sequence:
#
# PCOD9484823 Si02
#       7
#    16  16  16  16  16  16  16
#     4  10  19  29  45  66  91 130 170 210 255 291
#     4  10  20  32  49  70  96 135 171 202 249 308
#     4  10  21  35  53  80 108 132 164 208 257 310
#     4   9  19  34  49  69  97 129 170 218 260 296
#     4  10  21  32  44  68 100 134 171 208 245 293
#     4   9  18  34  54  73  99 137 174 208 249 297
#     4   9  17  28  43  68  99 128 164 204 243 298
#
# _framework density 17.571237
#
# number of rings (size 3 to 8) (size 9 to 14) (size 15 to 20)
#    0.000    2.429    0.000    2.143    4.000    6.286 
#    0.000    4.286    0.000    0.429    0.000    2.000 
#    0.000    0.000    0.000    1.286    0.000    0.143 
#
# Total GULP energy -312218.490289 kJ/mol
# GULP energy per Si atom -5575.330184 kJ/mol
# Density = 1.753124 g / cm^3
# Si number density = 17.571237 Si / 1000 Ang^3
#
#
#
# Elastic Constant Matrix: (Units=GPa)
#
#
# Indices 1 2 3 4 5 6 
#
# 1 48.3203 12.3575 35.5087 0.0000 0.0000 0.0000
# 2 12.3575 53.4215 14.8463 0.0000 0.0000 0.0000
# 3 35.5087 14.8463 54.2231 0.0000 0.0000 0.0000
# 4 0.0000 0.0000 0.0000 17.7342 0.0000 0.0000
# 5 0.0000 0.0000 0.0000 0.0000 14.7487 0.0000
# 6 0.0000 0.0000 0.0000 0.0000 0.0000 19.4903
#
#
#
# Elastic Compliance Matrix: (Units=1/GPa)
#
#
# Indices 1 2 3 4 5 6 
#
# 1 0.040118 -0.002142 -0.025685 0.000000 0.000000 0.000000
# 2 -0.002142 0.020375 -0.004176 0.000000 0.000000 0.000000
# 3 -0.025685 -0.004176 0.036406 0.000000 0.000000 0.000000
# 4 0.000000 0.000000 0.000000 0.056388 0.000000 0.000000
# 5 0.000000 0.000000 0.000000 0.000000 0.067803 0.000000
# 6 0.000000 0.000000 0.000000 0.000000 0.000000 0.051308
#
#
# Mechanical properties :
#
#
# Convention : Reuss Voigt Hill
#
# Bulk Modulus (GPa) = 30.40197 31.26554 30.83375
# Shear Modulus (GPa) = 14.39392 16.61147 15.50270
#
# Velocity S-wave (km/s) = 2.86523 3.07804 2.97354
# Velocity P-wave (km/s) = 5.31843 5.51948 5.41989
#
# Compressibility (1/GPa) = 0.03289261
#
# Stress axis : x y z
#
# Youngs Moduli (GPa) = 24.92631 49.07955 27.46792
#
# Poissons Ratio (x) = 0.10513 0.70553
# Poissons Ratio (y) = 0.05339 0.11471
# Poissons Ratio (z) = 0.64024 0.20496
#
# Static dielectric constant tensor:
#      x y z
#    x 1.599810 0.000000 0.000000 
#    y 0.000000 1.636700 0.000000 
#    z 0.000000 0.000000 1.628030 
# 
# From -- ./inp_files/40821.got.cif
#   From: 2010.05.17/outbox.cif.g08.bks.cpg/sg65_21_cif.got.tgz:40821.got - 2010.06.03 17:01:31.
