data_PCOD9484998
_publ_section_title
;
Structure prediction by ZEFSAII (Michael W. Deem and Ramdas Pophale) SiO2 
 PCOD9484998
Probable space group: C M M M
;
_chemical_formula_sum "Si O2"
_cell_formula_units_Z 80
_cell_length_a 28.375202
_cell_length_b 7.892088
_cell_length_c 19.547077
_cell_angle_alpha 90.000000
_cell_angle_beta 90.000000
_cell_angle_gamma 90.000000
_cell_volume 4377.364433
_symmetry_space_group_name_H-M "C M M M"
_symmetry_group_IT_number 65
_symmetry_cell_setting 'orthorhombic'
loop_
_space_group_symop_operation_xyz
x,y,z
-x,-y,z
x,-y,-z
-x,y,-z
-x,-y,-z
x,y,-z
-x,y,z
x,-y,z
1/2+x,1/2+y,z
1/2-x,1/2-y,z
1/2+x,1/2-y,-z
1/2-x,1/2+y,-z
1/2-x,1/2-y,-z
1/2+x,1/2+y,-z
1/2-x,1/2+y,z
1/2+x,1/2-y,z
loop_
_atom_site_type_symbol
_atom_site_label
_atom_site_fract_x
_atom_site_fract_y
_atom_site_fract_z
Si Si1 0.447601 0.796546 0.212364
Si Si2 0.104693 0.794987 0.923224
Si Si3 0.195601 0.704667 0.576758
Si Si4 0.197036 0.201945 0.844644
Si Si5 0.144112 0.702273 0.710165
O O1 0.500000 0.730460 0.226356
O O2 0.431989 0.760427 0.134591
O O3 0.405507 0.729362 0.260703
O O4 0.448606 0.000000 0.220437
O O5 0.156364 0.737931 0.896723
O O6 0.104713 0.000000 0.924244
O O7 0.095027 0.734787 0.000000
O O8 0.183807 0.765552 0.500000
O O9 0.192512 0.500000 0.576201
O O10 0.250000 0.750000 0.590449
O O11 0.162845 0.769948 0.638009
O O12 0.250000 0.250000 0.863258
O O13 0.182402 0.268222 0.769791
O O14 0.194181 0.000000 0.842017
O O15 0.138733 0.500000 0.702748
#
# Coordination Sequence:
#
# PCOD9484998 Si02
#       5
#    16  16  16  16  16
#     4   9  18  32  49  68  88 112 145 184 225 266
#     4   9  19  34  48  64  88 116 146 181 221 265
#     4   9  17  28  43  65  92 120 148 177 211 253
#     4  10  19  30  45  65  89 117 149 182 216 258
#     4   9  17  30  47  65  88 118 149 182 219 259
#
# _framework density 18.275836999999999
#
# number of rings (size 3 to 8) (size 9 to 14) (size 15 to 20)
#    0.000    2.800    0.000    1.200    0.000    4.800 
#    0.000    2.000    0.000    0.600    0.000    4.200 
#    0.000    0.000    0.000   15.000    0.000   15.600 
#
# Total GULP energy -223003.655751 kJ/mol
# GULP energy per Si atom -5575.091394 kJ/mol
# Density = 1.823424 g / cm^3
# Si number density = 18.275837 Si / 1000 Ang^3
#
#
#
# Elastic Constant Matrix: (Units=GPa)
#
#
# Indices 1 2 3 4 5 6 
#
# 1 83.8545 6.8111 41.6046 0.0000 0.0000 0.0000
# 2 6.8111 16.5021 9.9522 0.0000 0.0000 0.0000
# 3 41.6046 9.9522 126.0460 0.0000 0.0000 0.0000
# 4 0.0000 0.0000 0.0000 9.2715 0.0000 0.0000
# 5 0.0000 0.0000 0.0000 0.0000 10.7493 0.0000
# 6 0.0000 0.0000 0.0000 0.0000 0.0000 15.2781
#
#
#
# Elastic Compliance Matrix: (Units=1/GPa)
#
#
# Indices 1 2 3 4 5 6 
#
# 1 0.014424 -0.003236 -0.004505 0.000000 0.000000 0.000000
# 2 -0.003236 0.064354 -0.004013 0.000000 0.000000 0.000000
# 3 -0.004505 -0.004013 0.009738 0.000000 0.000000 0.000000
# 4 0.000000 0.000000 0.000000 0.107857 0.000000 0.000000
# 5 0.000000 0.000000 0.000000 0.000000 0.093029 0.000000
# 6 0.000000 0.000000 0.000000 0.000000 0.000000 0.065453
#
#
# Mechanical properties :
#
#
# Convention : Reuss Voigt Hill
#
# Bulk Modulus (GPa) = 15.38312 38.12649 26.75480
# Shear Modulus (GPa) = 12.49899 18.26211 15.38055
#
# Velocity S-wave (km/s) = 2.61800 3.16452 2.90414
# Velocity P-wave (km/s) = 4.19214 5.85314 5.09084
#
# Compressibility (1/GPa) = 0.06500633
#
# Stress axis : x y z
#
# Youngs Moduli (GPa) = 69.33078 15.53902 102.69501
#
# Poissons Ratio (x) = 0.05029 0.46268
# Poissons Ratio (y) = 0.22436 0.41212
# Poissons Ratio (z) = 0.31236 0.06236
#
# Static dielectric constant tensor:
#      x y z
#    x 1.602420 0.000000 0.000000 
#    y 0.000000 1.662970 0.000000 
#    z 0.000000 0.000000 1.631510 
# 
# From -- ./inp_files/49856.got.cif
#   From: 2010.05.17/outbox.cif.g08.bks.cpg/sg65_25_cif.got.tgz:49856.got - 2010.06.03 17:01:31.
