data_PCOD9484067
_publ_section_title
;
Structure prediction by ZEFSAII (Michael W. Deem and Ramdas Pophale) SiO2 
 PCOD9484067
Probable space group: C M M M
;
_chemical_formula_sum "Si O2"
_cell_formula_units_Z 88
_cell_length_a 18.028721
_cell_length_b 35.403169
_cell_length_c 7.998789
_cell_angle_alpha 90.000000
_cell_angle_beta 90.000000
_cell_angle_gamma 90.000000
_cell_volume 5105.417902
_symmetry_space_group_name_H-M "C M M M"
_symmetry_group_IT_number 65
_symmetry_cell_setting 'orthorhombic'
loop_
_space_group_symop_operation_xyz
x,y,z
-x,-y,z
x,-y,-z
-x,y,-z
-x,-y,-z
x,y,-z
-x,y,z
x,-y,z
1/2+x,1/2+y,z
1/2-x,1/2-y,z
1/2+x,1/2-y,-z
1/2-x,1/2+y,-z
1/2-x,1/2-y,-z
1/2+x,1/2+y,-z
1/2-x,1/2+y,z
1/2+x,1/2-y,z
loop_
_atom_site_type_symbol
_atom_site_label
_atom_site_fract_x
_atom_site_fract_y
_atom_site_fract_z
Si Si1 0.759201 0.705331 0.500000
Si Si2 0.000000 0.043464 0.799133
Si Si3 0.375789 0.882553 0.814189
Si Si4 0.349509 0.584137 0.698155
Si Si5 0.080281 0.665643 0.500000
Si Si6 0.715307 0.341465 0.816349
Si Si7 0.802862 0.543248 0.297422
O O1 0.750000 0.750000 0.500000
O O2 0.845921 0.691790 0.500000
O O3 0.720815 0.687471 0.335862
O O4 0.073783 0.063890 0.735953
O O5 0.000000 0.000000 0.742635
O O6 0.000000 0.044180 0.000000
O O7 0.415408 0.861219 0.662985
O O8 0.294267 0.863241 0.815537
O O9 0.360691 0.926468 0.774386
O O10 0.407794 0.877900 0.000000
O O11 0.341202 0.590404 0.500000
O O12 0.342650 0.624867 0.784243
O O13 0.279617 0.557955 0.750370
O O14 0.000000 0.685506 0.500000
O O15 0.704376 0.324330 0.000000
O O16 0.807145 0.544765 0.500000
O O17 0.813812 0.500000 0.244843
#
# Coordination Sequence:
#
# PCOD9484067 Si02
#       7
#     8   8  16  16   8  16  16
#     4  10  20  36  60  87 112 135 168 209 255 318
#     4  11  23  33  41  63 103 147 193 242 287 325
#     4   9  17  30  50  76 102 134 174 212 251 301
#     4  10  18  31  49  69  97 136 186 230 272 322
#     4  10  20  36  57  80 108 136 163 206 254 301
#     4   9  17  32  54  79 105 134 172 216 260 311
#     4   9  16  27  46  71  99 131 172 226 274 308
#
# _framework density 17.236591000000001
#
# number of rings (size 3 to 8) (size 9 to 14) (size 15 to 20)
#    0.000    2.455    1.818    1.364    0.000    3.273 
#    0.000    0.000    2.000    1.091    0.000    1.273 
#    0.000    0.000    0.000    0.000    0.000    0.000 
#
# Total GULP energy -245286.158736 kJ/mol
# GULP energy per Si atom -5574.685426 kJ/mol
# Density = 1.719736 g / cm^3
# Si number density = 17.236591 Si / 1000 Ang^3
#
#
#
# Elastic Constant Matrix: (Units=GPa)
#
#
# Indices 1 2 3 4 5 6 
#
# 1 61.3844 25.4164 17.1742 0.0000 0.0000 0.0000
# 2 25.4164 121.2847 55.3631 0.0000 0.0000 0.0000
# 3 17.1742 55.3631 110.2576 0.0000 0.0000 0.0000
# 4 0.0000 0.0000 0.0000 7.1480 0.0000 0.0000
# 5 0.0000 0.0000 0.0000 0.0000 -8.9838 0.0000
# 6 0.0000 0.0000 0.0000 0.0000 0.0000 10.3673
#
#
#
# Elastic Compliance Matrix: (Units=1/GPa)
#
#
# Indices 1 2 3 4 5 6 
#
# 1 0.017956 -0.003225 -0.001177 0.000000 0.000000 0.000000
# 2 -0.003225 0.011276 -0.005160 0.000000 0.000000 0.000000
# 3 -0.001177 -0.005160 0.011844 0.000000 0.000000 0.000000
# 4 0.000000 0.000000 0.000000 0.139899 0.000000 0.000000
# 5 0.000000 0.000000 0.000000 0.000000 -0.111312 0.000000
# 6 0.000000 0.000000 0.000000 0.000000 0.000000 0.096457
#
#
# Mechanical properties :
#
#
# Convention : Reuss Voigt Hill
#
# Bulk Modulus (GPa) = 45.55597 54.31489 49.93543
# Shear Modulus (GPa) = 25.96581 14.70451 20.33516
#
# Velocity S-wave (km/s) = 3.88549 2.92395 3.43850
# Velocity P-wave (km/s) = 6.82763 6.55585 6.69312
#
# Compressibility (1/GPa) = 0.02195102
#
# Stress axis : x y z
#
# Youngs Moduli (GPa) = 55.69274 88.68218 84.43193
#
# Poissons Ratio (x) = 0.28603 0.09940
# Poissons Ratio (y) = 0.17963 0.43564
# Poissons Ratio (z) = 0.06557 0.45757
#
# Static dielectric constant tensor:
#      x y z
#    x 1.587930 0.000000 0.000000 
#    y 0.000000 1.552480 0.000000 
#    z 0.000000 0.000000 1.620460 
# 
# From -- ./inp_files/10174.got.cif
#   From: 2010.05.17/outbox.cif.g08.bks.cpg/sg65_6_cif.got.tgz:10174.got - 2010.06.03 17:01:31.
