data_PCOD9484484
_publ_section_title
;
Structure prediction by ZEFSAII (Michael W. Deem and Ramdas Pophale) SiO2 
 PCOD9484484
Probable space group: C M M M
;
_chemical_formula_sum "Si O2"
_cell_formula_units_Z 96
_cell_length_a 13.492257
_cell_length_b 32.499156
_cell_length_c 13.217528
_cell_angle_alpha 90.000000
_cell_angle_beta 90.000000
_cell_angle_gamma 90.000000
_cell_volume 5795.713738
_symmetry_space_group_name_H-M "C M M M"
_symmetry_group_IT_number 65
_symmetry_cell_setting 'orthorhombic'
loop_
_space_group_symop_operation_xyz
x,y,z
-x,-y,z
x,-y,-z
-x,y,-z
-x,-y,-z
x,y,-z
-x,y,z
x,-y,z
1/2+x,1/2+y,z
1/2-x,1/2-y,z
1/2+x,1/2-y,-z
1/2-x,1/2+y,-z
1/2-x,1/2-y,-z
1/2+x,1/2+y,-z
1/2-x,1/2+y,z
1/2+x,1/2-y,z
loop_
_atom_site_type_symbol
_atom_site_label
_atom_site_fract_x
_atom_site_fract_y
_atom_site_fract_z
Si Si1 0.118002 0.500000 0.377764
Si Si2 0.309752 0.708357 0.233648
Si Si3 0.201707 0.412742 0.315680
Si Si4 0.000000 0.667391 0.161190
Si Si5 0.000000 0.363566 0.620185
Si Si6 0.500000 0.738058 0.885413
Si Si7 0.613642 0.360385 0.618237
Si Si8 0.791605 0.633932 0.114814
O O1 0.121781 0.500000 0.500000
O O2 0.173415 0.459591 0.337137
O O3 0.000000 0.500000 0.350199
O O4 0.250000 0.750000 0.259795
O O5 0.404430 0.722679 0.172229
O O6 0.344628 0.680265 0.326751
O O7 0.252836 0.676101 0.161398
O O8 0.103028 0.388438 0.357677
O O9 0.302976 0.395657 0.365609
O O10 0.221149 0.401906 0.197690
O O11 0.000000 0.668584 0.285235
O O12 0.907093 0.643032 0.120010
O O13 0.000000 0.712932 0.119208
O O14 0.000000 0.351670 0.500000
O O15 0.500000 0.723370 0.000000
O O16 0.607976 0.352486 0.500000
O O17 0.500000 0.369622 0.654143
O O18 0.757947 0.626333 0.000000
#
# Coordination Sequence:
#
# PCOD9484484 Si02
#       8
#     8  16  16   8   8   8  16  16
#     4  11  20  34  58  88 120 143 170 223 279 327
#     4  11  22  35  53  79 106 139 193 235 270 324
#     4  10  21  35  57  84 111 142 185 221 267 336
#     4  10  20  30  47  75 104 140 181 222 271 330
#     4  10  18  33  52  77 110 143 180 222 269 326
#     4  12  22  34  50  73 107 139 181 235 280 315
#     4  10  21  39  58  77 112 152 183 226 280 330
#     4  10  20  35  53  74 106 147 182 224 272 317
#
# _framework density 16.563965
#
# number of rings (size 3 to 8) (size 9 to 14) (size 15 to 20)
#    0.000    1.583    3.333    2.750    0.000    1.000 
#    0.000    1.667    0.000    2.000    0.000    0.000 
#    0.000    3.000    0.000    0.000    0.000    0.000 
#
# Total GULP energy -267334.743703 kJ/mol
# GULP energy per Si atom -5569.473827 kJ/mol
# Density = 1.652626 g / cm^3
# Si number density = 16.563965 Si / 1000 Ang^3
#
#
#
# Elastic Constant Matrix: (Units=GPa)
#
#
# Indices 1 2 3 4 5 6 
#
# 1 118.3099 47.7251 29.3983 0.0000 0.0000 0.0000
# 2 47.7251 102.7795 41.3884 0.0000 0.0000 0.0000
# 3 29.3983 41.3884 112.4000 0.0000 0.0000 0.0000
# 4 0.0000 0.0000 0.0000 12.5661 0.0000 0.0000
# 5 0.0000 0.0000 0.0000 0.0000 -7.8735 0.0000
# 6 0.0000 0.0000 0.0000 0.0000 0.0000 -38.5684
#
#
#
# Elastic Compliance Matrix: (Units=1/GPa)
#
#
# Indices 1 2 3 4 5 6 
#
# 1 0.010519 -0.004434 -0.001119 0.000000 0.000000 0.000000
# 2 -0.004434 0.013292 -0.003735 0.000000 0.000000 0.000000
# 3 -0.001119 -0.003735 0.010565 0.000000 0.000000 0.000000
# 4 0.000000 0.000000 0.000000 0.079579 0.000000 0.000000
# 5 0.000000 0.000000 0.000000 0.000000 -0.127008 0.000000
# 6 0.000000 0.000000 0.000000 0.000000 0.000000 -0.025928
#
#
# Mechanical properties :
#
#
# Convention : Reuss Voigt Hill
#
# Bulk Modulus (GPa) = 63.28629 63.39032 63.33830
# Shear Modulus (GPa) = -330.27284 7.55668 -161.35808
#
# Velocity S-wave (km/s) = -14.13596 2.13823 -9.88062
# Velocity P-wave (km/s) = 15.10442 6.66702 9.58369
#
# Compressibility (1/GPa) = 0.01580121
#
# Stress axis : x y z
#
# Youngs Moduli (GPa) = 95.06651 75.23050 94.65552
#
# Poissons Ratio (x) = 0.33357 0.10588
# Poissons Ratio (y) = 0.42152 0.35353
# Poissons Ratio (z) = 0.10634 0.28098
#
# Static dielectric constant tensor:
#      x y z
#    x 1.563970 0.000000 0.000000 
#    y 0.000000 1.559670 0.000000 
#    z 0.000000 0.000000 1.586490 
# 
# From -- ./inp_files/25502.got.cif
#   From: 2010.05.17/outbox.cif.g08.bks.cpg/sg65_13_cif.got.tgz:25502.got - 2010.06.03 17:01:31.
