data_PCOD9484581
_publ_section_title
;
Structure prediction by ZEFSAII (Michael W. Deem and Ramdas Pophale) SiO2 
 PCOD9484581
Probable space group: C M M M
;
_chemical_formula_sum "Si O2"
_cell_formula_units_Z 100
_cell_length_a 18.280050
_cell_length_b 14.456348
_cell_length_c 20.067531
_cell_angle_alpha 90.000000
_cell_angle_beta 90.000000
_cell_angle_gamma 90.000000
_cell_volume 5303.101214
_symmetry_space_group_name_H-M "C M M M"
_symmetry_group_IT_number 65
_symmetry_cell_setting 'orthorhombic'
loop_
_space_group_symop_operation_xyz
x,y,z
-x,-y,z
x,-y,-z
-x,y,-z
-x,-y,-z
x,y,-z
-x,y,z
x,-y,z
1/2+x,1/2+y,z
1/2-x,1/2-y,z
1/2+x,1/2-y,-z
1/2-x,1/2+y,-z
1/2-x,1/2-y,-z
1/2+x,1/2+y,-z
1/2-x,1/2+y,z
1/2+x,1/2-y,z
loop_
_atom_site_type_symbol
_atom_site_label
_atom_site_fract_x
_atom_site_fract_y
_atom_site_fract_z
Si Si1 0.274169 0.107947 0.373916
Si Si2 0.084315 0.734763 0.790391
Si Si3 0.293745 0.843739 0.884678
Si Si4 0.694153 0.605588 0.238913
Si Si5 0.884564 0.893797 0.575837
Si Si6 0.306227 0.000000 0.000000
Si Si7 0.419756 0.205079 0.361565
O O1 0.241317 0.139490 0.302311
O O2 0.203720 0.115421 0.420985
O O3 0.346960 0.162123 0.393322
O O4 0.293524 0.000000 0.367651
O O5 0.131030 0.685214 0.847763
O O6 0.124866 0.831168 0.775704
O O7 0.086253 0.686006 0.717739
O O8 0.000000 0.745616 0.809346
O O9 0.250000 0.750000 0.906129
O O10 0.244617 0.886633 0.825731
O O11 0.304675 0.918092 0.941996
O O12 0.673781 0.500000 0.252804
O O13 0.909183 0.879293 0.500000
O O14 0.916159 0.814665 0.623030
O O15 0.901758 0.000000 0.595093
O O16 0.500000 0.171707 0.384138
#
# Coordination Sequence:
#
# PCOD9484581 Si02
#       7
#    16  16  16  16  16   4  16
#     4  10  20  35  58  84 116 151 203 251 296 350
#     4  10  21  36  55  86 123 157 196 245 299 353
#     4  10  21  37  61  89 121 157 194 249 297 346
#     4  10  18  34  60  88 114 152 198 248 300 346
#     4  10  22  39  59  86 118 156 201 252 306 361
#     4  12  22  40  65  94 121 158 216 240 288 358
#     4  11  22  35  56  84 118 159 199 244 301 362
#
# _framework density 18.856891999999998
#
# number of rings (size 3 to 8) (size 9 to 14) (size 15 to 20)
#    0.000    1.760    4.000    0.720    0.000    2.560 
#    0.000    3.600    0.000    0.000    0.000    5.600 
#    0.000    0.000    0.000    0.000    0.000    0.000 
#
# Total GULP energy -278431.509938 kJ/mol
# GULP energy per Si atom -5568.630199 kJ/mol
# Density = 1.881397 g / cm^3
# Si number density = 18.856892 Si / 1000 Ang^3
#
#
#
# Elastic Constant Matrix: (Units=GPa)
#
#
# Indices 1 2 3 4 5 6 
#
# 1 111.2105 25.3345 11.3741 0.0000 0.0000 0.0000
# 2 25.3345 85.9222 27.5997 0.0000 0.0000 0.0000
# 3 11.3741 27.5997 88.9908 0.0000 0.0000 0.0000
# 4 0.0000 0.0000 0.0000 29.1227 0.0000 0.0000
# 5 0.0000 0.0000 0.0000 0.0000 -0.8360 0.0000
# 6 0.0000 0.0000 0.0000 0.0000 0.0000 1.9613
#
#
#
# Elastic Compliance Matrix: (Units=1/GPa)
#
#
# Indices 1 2 3 4 5 6 
#
# 1 0.009652 -0.002721 -0.000390 0.000000 0.000000 0.000000
# 2 -0.002721 0.013693 -0.003899 0.000000 0.000000 0.000000
# 3 -0.000390 -0.003899 0.012496 0.000000 0.000000 0.000000
# 4 0.000000 0.000000 0.000000 0.034337 0.000000 0.000000
# 5 0.000000 0.000000 0.000000 0.000000 -1.196198 0.000000
# 6 0.000000 0.000000 0.000000 0.000000 0.000000 0.509870
#
#
# Mechanical properties :
#
#
# Convention : Reuss Voigt Hill
#
# Bulk Modulus (GPa) = 45.82550 46.08223 45.95386
# Shear Modulus (GPa) = -8.40538 20.83729 6.21596
#
# Velocity S-wave (km/s) = -2.11356 3.32779 1.81756
# Velocity P-wave (km/s) = 4.28932 6.26550 5.36912
#
# Compressibility (1/GPa) = 0.02182191
#
# Stress axis : x y z
#
# Youngs Moduli (GPa) = 103.60987 73.02972 80.02432
#
# Poissons Ratio (x) = 0.19868 0.03120
# Poissons Ratio (y) = 0.28188 0.31202
# Poissons Ratio (z) = 0.04039 0.28475
#
# Static dielectric constant tensor:
#      x y z
#    x 1.667160 0.000000 0.000000 
#    y 0.000000 1.673300 0.000000 
#    z 0.000000 0.000000 1.641730 
# 
# From -- ./inp_files/62876.got.cif
#   From: 2010.05.17/outbox.cif.g08.bks.cpg/sg65_32_cif.got.tgz:62876.got - 2010.06.03 17:01:31.
