data_PCOD9484558
_publ_section_title
;
Structure prediction by ZEFSAII (Michael W. Deem and Ramdas Pophale) SiO2 
 PCOD9484558
Probable space group: C M M M
;
_chemical_formula_sum "Si O2"
_cell_formula_units_Z 64
_cell_length_a 13.649129
_cell_length_b 29.196421
_cell_length_c 8.348605
_cell_angle_alpha 90.000000
_cell_angle_beta 90.000000
_cell_angle_gamma 90.000000
_cell_volume 3326.966818
_symmetry_space_group_name_H-M "C M M M"
_symmetry_group_IT_number 65
_symmetry_cell_setting 'orthorhombic'
loop_
_space_group_symop_operation_xyz
x,y,z
-x,-y,z
x,-y,-z
-x,y,-z
-x,-y,-z
x,y,-z
-x,y,z
x,-y,z
1/2+x,1/2+y,z
1/2-x,1/2-y,z
1/2+x,1/2-y,-z
1/2-x,1/2+y,-z
1/2-x,1/2-y,-z
1/2+x,1/2+y,-z
1/2-x,1/2+y,z
1/2+x,1/2-y,z
loop_
_atom_site_type_symbol
_atom_site_label
_atom_site_fract_x
_atom_site_fract_y
_atom_site_fract_z
Si Si1 0.000000 0.863410 0.310559
Si Si2 0.000000 0.242267 0.802743
Si Si3 0.816352 0.705636 0.180429
Si Si4 0.788578 0.884274 0.808352
Si Si5 0.890268 0.554192 0.692828
O O1 0.899083 0.888136 0.257179
O O2 0.000000 0.860443 0.500000
O O3 0.000000 0.811065 0.243503
O O4 0.090001 0.272246 0.739796
O O5 0.000000 0.241805 0.000000
O O6 0.750000 0.750000 0.163237
O O7 0.756490 0.664008 0.253609
O O8 0.844959 0.689839 0.000000
O O9 0.704641 0.920826 0.764238
O O10 0.798711 0.882058 0.000000
O O11 0.886794 0.559391 0.500000
O O12 0.885655 0.500000 0.728480
O O13 0.000000 0.570645 0.745300
#
# Coordination Sequence:
#
# PCOD9484558 Si02
#       5
#     8   8  16  16  16
#     4  12  24  38  55  79 116 159 199 239 292 350
#     4  10  18  34  54  75 110 153 196 237 284 340
#     4   9  17  30  52  79 110 149 190 232 282 335
#     4  11  22  37  60  88 116 151 198 247 288 336
#     4   9  20  41  65  88 120 157 186 224 287 353
#
# _framework density 19.236740999999999
#
# number of rings (size 3 to 8) (size 9 to 14) (size 15 to 20)
#    0.000    2.000    2.500    2.625    1.750    1.000 
#    0.000    5.625    0.000    3.750    0.000    0.000 
#    0.000    0.000    0.000    0.000    0.000    0.000 
#
# Total GULP energy -178180.568665 kJ/mol
# GULP energy per Si atom -5568.142771 kJ/mol
# Density = 1.919296 g / cm^3
# Si number density = 19.236741 Si / 1000 Ang^3
#
#
#
# Elastic Constant Matrix: (Units=GPa)
#
#
# Indices 1 2 3 4 5 6 
#
# 1 195.7979 53.8072 38.0677 0.0000 0.0000 0.0000
# 2 53.8072 59.4064 17.6419 0.0000 0.0000 0.0000
# 3 38.0677 17.6419 49.0460 0.0000 0.0000 0.0000
# 4 0.0000 0.0000 0.0000 32.2907 0.0000 0.0000
# 5 0.0000 0.0000 0.0000 0.0000 26.2791 0.0000
# 6 0.0000 0.0000 0.0000 0.0000 0.0000 32.8373
#
#
#
# Elastic Compliance Matrix: (Units=1/GPa)
#
#
# Indices 1 2 3 4 5 6 
#
# 1 0.007357 -0.005562 -0.003710 0.000000 0.000000 0.000000
# 2 -0.005562 0.023051 -0.003975 0.000000 0.000000 0.000000
# 3 -0.003710 -0.003975 0.024698 0.000000 0.000000 0.000000
# 4 0.000000 0.000000 0.000000 0.030969 0.000000 0.000000
# 5 0.000000 0.000000 0.000000 0.000000 0.038053 0.000000
# 6 0.000000 0.000000 0.000000 0.000000 0.000000 0.030453
#
#
# Mechanical properties :
#
#
# Convention : Reuss Voigt Hill
#
# Bulk Modulus (GPa) = 34.94803 58.14266 46.54535
# Shear Modulus (GPa) = 26.23138 31.26366 28.74752
#
# Velocity S-wave (km/s) = 3.69671 4.03576 3.86995
# Velocity P-wave (km/s) = 6.03554 7.21158 6.64961
#
# Compressibility (1/GPa) = 0.02861392
#
# Stress axis : x y z
#
# Youngs Moduli (GPa) = 135.92453 43.38155 40.48926
#
# Poissons Ratio (x) = 0.24129 0.15020
# Poissons Ratio (y) = 0.75601 0.16093
# Poissons Ratio (z) = 0.50422 0.17242
#
# Static dielectric constant tensor:
#      x y z
#    x 1.666320 0.000000 0.000000 
#    y 0.000000 1.659930 0.000000 
#    z 0.000000 0.000000 1.702430 
# 
# From -- ./inp_files/4953.got.cif
#   From: 2010.05.17/outbox.cif.g08.bks.cpg/sg65_3_cif.got.tgz:4953.got - 2010.06.03 17:01:31.
