data_PCOD9484542
_publ_section_title
;
Structure prediction by ZEFSAII (Michael W. Deem and Ramdas Pophale) SiO2 
 PCOD9484542
Probable space group: C M M M
;
_chemical_formula_sum "Si O2"
_cell_formula_units_Z 64
_cell_length_a 8.507439
_cell_length_b 15.572630
_cell_length_c 24.843150
_cell_angle_alpha 90.000000
_cell_angle_beta 90.000000
_cell_angle_gamma 90.000000
_cell_volume 3291.300005
_symmetry_space_group_name_H-M "C M M M"
_symmetry_group_IT_number 65
_symmetry_cell_setting 'orthorhombic'
loop_
_space_group_symop_operation_xyz
x,y,z
-x,-y,z
x,-y,-z
-x,y,-z
-x,-y,-z
x,y,-z
-x,y,z
x,-y,z
1/2+x,1/2+y,z
1/2-x,1/2-y,z
1/2+x,1/2-y,-z
1/2-x,1/2+y,-z
1/2-x,1/2-y,-z
1/2+x,1/2+y,-z
1/2-x,1/2+y,z
1/2+x,1/2-y,z
loop_
_atom_site_type_symbol
_atom_site_label
_atom_site_fract_x
_atom_site_fract_y
_atom_site_fract_z
Si Si1 0.687803 0.847928 0.000000
Si Si2 0.687025 0.000000 0.187727
Si Si3 0.689366 0.341116 0.616749
Si Si4 0.191391 0.899715 0.500000
Si Si5 0.187587 0.848015 0.885727
Si Si6 0.190674 0.000000 0.691335
O O1 0.750000 0.750000 0.000000
O O2 0.751402 0.882812 0.943583
O O3 0.500000 0.849881 0.000000
O O4 0.754941 0.914752 0.159049
O O5 0.735664 0.000000 0.249984
O O6 0.500000 0.000000 0.181847
O O7 0.500000 0.341207 0.615049
O O8 0.750000 0.250000 0.635954
O O9 0.746801 0.357900 0.555616
O O10 0.737378 0.417278 0.656321
O O11 0.000000 0.895829 0.500000
O O12 0.233498 0.000000 0.500000
O O13 0.250000 0.750000 0.878129
O O14 0.000000 0.844179 0.886802
O O15 0.000000 0.000000 0.696236
#
# Coordination Sequence:
#
# PCOD9484542 Si02
#       6
#     8   8  16   8  16   8
#     4  10  18  33  58  91 127 162 198 241 295 357
#     4  12  26  43  62  87 117 156 204 256 305 358
#     4  10  20  35  59  86 115 150 192 237 288 349
#     4   9  15  30  57  86 115 152 191 229 280 348
#     4  11  22  40  64  92 124 160 200 247 301 360
#     4  10  22  41  59  79 110 154 199 242 292 354
#
# _framework density 19.445205000000001
#
# number of rings (size 3 to 8) (size 9 to 14) (size 15 to 20)
#    0.000    1.625    1.250    6.375    0.000    2.500 
#    0.000    5.000    0.000    0.750    0.000    0.000 
#    0.000    0.000    0.000    0.000    0.000    0.000 
#
# Total GULP energy -178786.146000 kJ/mol
# GULP energy per Si atom -5587.067063 kJ/mol
# Density = 1.940095 g / cm^3
# Si number density = 19.445205 Si / 1000 Ang^3
#
#
#
# Elastic Constant Matrix: (Units=GPa)
#
#
# Indices 1 2 3 4 5 6 
#
# 1 115.7659 44.5461 57.0399 0.0000 0.0000 0.0000
# 2 44.5461 153.2189 88.0218 0.0000 0.0000 0.0000
# 3 57.0399 88.0218 171.3025 0.0000 0.0000 0.0000
# 4 0.0000 0.0000 0.0000 -2.8655 0.0000 0.0000
# 5 0.0000 0.0000 0.0000 0.0000 24.3758 0.0000
# 6 0.0000 0.0000 0.0000 0.0000 0.0000 26.4028
#
#
#
# Elastic Compliance Matrix: (Units=1/GPa)
#
#
# Indices 1 2 3 4 5 6 
#
# 1 0.010568 -0.001491 -0.002753 0.000000 0.000000 0.000000
# 2 -0.001491 0.009471 -0.004370 0.000000 0.000000 0.000000
# 3 -0.002753 -0.004370 0.009000 0.000000 0.000000 0.000000
# 4 0.000000 0.000000 0.000000 -0.348983 0.000000 0.000000
# 5 0.000000 0.000000 0.000000 0.000000 0.041024 0.000000
# 6 0.000000 0.000000 0.000000 0.000000 0.000000 0.037875
#
#
# Mechanical properties :
#
#
# Convention : Reuss Voigt Hill
#
# Bulk Modulus (GPa) = 84.66725 91.05588 87.86157
# Shear Modulus (GPa) = -22.73956 26.29459 1.77752
#
# Velocity S-wave (km/s) = -3.42338 3.68127 0.95713
# Velocity P-wave (km/s) = 5.29244 8.06211 6.81936
#
# Compressibility (1/GPa) = 0.01181094
#
# Stress axis : x y z
#
# Youngs Moduli (GPa) = 94.62302 105.59094 111.11583
#
# Poissons Ratio (x) = 0.15745 0.30588
# Poissons Ratio (y) = 0.14109 0.48555
# Poissons Ratio (z) = 0.26048 0.46141
#
# Static dielectric constant tensor:
#      x y z
#    x 1.659320 0.000000 0.000000 
#    y 0.000000 1.663880 0.000000 
#    z 0.000000 0.000000 1.680160 
# 
# From -- ./inp_files/66910.got.cif
#   From: 2010.05.17/outbox.cif.g08.bks.cpg/sg65_34_cif.got.tgz:66910.got - 2010.06.03 17:01:31.
