data_PCOD9484207
_publ_section_title
;
Structure prediction by ZEFSAII (Michael W. Deem and Ramdas Pophale) SiO2 
 PCOD9484207
Probable space group: C M M M
;
_chemical_formula_sum "Si O2"
_cell_formula_units_Z 120
_cell_length_a 8.804128
_cell_length_b 27.281328
_cell_length_c 29.209385
_cell_angle_alpha 90.000000
_cell_angle_beta 90.000000
_cell_angle_gamma 90.000000
_cell_volume 7015.752636
_symmetry_space_group_name_H-M "C M M M"
_symmetry_group_IT_number 65
_symmetry_cell_setting 'orthorhombic'
loop_
_space_group_symop_operation_xyz
x,y,z
-x,-y,z
x,-y,-z
-x,y,-z
-x,-y,-z
x,y,-z
-x,y,z
x,-y,z
1/2+x,1/2+y,z
1/2-x,1/2-y,z
1/2+x,1/2-y,-z
1/2-x,1/2+y,-z
1/2-x,1/2-y,-z
1/2+x,1/2+y,-z
1/2-x,1/2+y,z
1/2+x,1/2-y,z
loop_
_atom_site_type_symbol
_atom_site_label
_atom_site_fract_x
_atom_site_fract_y
_atom_site_fract_z
Si Si1 0.315941 0.898869 0.102756
Si Si2 0.667922 0.441809 0.446898
Si Si3 0.184694 0.500000 0.052976
Si Si4 0.181110 0.943890 0.297300
Si Si5 0.324638 0.881789 0.623525
Si Si6 0.681912 0.303029 0.054066
Si Si7 0.316393 0.195990 0.448705
Si Si8 0.181497 0.443035 0.802064
O O1 0.500000 0.896040 0.099659
O O2 0.247127 0.849582 0.081480
O O3 0.274913 0.908295 0.155846
O O4 0.267340 0.948916 0.076514
O O5 0.686434 0.429522 0.500000
O O6 0.500000 0.423512 0.431469
O O7 0.663257 0.500000 0.443543
O O8 0.801208 0.422412 0.415689
O O9 0.000000 0.500000 0.055407
O O10 0.230016 0.500000 0.000000
O O11 0.241990 0.903603 0.332475
O O12 0.237259 0.933568 0.245902
O O13 0.000000 0.944096 0.298794
O O14 0.233019 0.000000 0.309083
O O15 0.500000 0.873827 0.634818
O O16 0.263385 0.835064 0.595178
O O17 0.500000 0.301427 0.058664
O O18 0.750000 0.250000 0.068033
O O19 0.719224 0.309645 0.000000
O O20 0.273876 0.177248 0.500000
O O21 0.500000 0.196522 0.447368
O O22 0.250000 0.250000 0.445590
O O23 0.211795 0.500000 0.815106
O O24 0.000000 0.438999 0.795396
#
# Coordination Sequence:
#
# PCOD9484207 Si02
#       8
#    16  16   8  16  16  16  16  16
#     4  10  18  31  53  80 108 141 179 221 267 320
#     4   9  18  31  45  64  94 130 163 193 229 281
#     4   9  16  26  45  77 113 145 175 207 254 319
#     4  10  21  35  51  73 102 136 174 212 252 302
#     4  11  21  32  49  73  99 126 160 204 251 295
#     4  10  21  36  53  75 105 143 186 228 269 315
#     4   9  19  35  53  74  99 126 159 199 244 299
#     4   9  17  32  53  77 105 136 174 214 256 307
#
# _framework density 17.104367
#
# number of rings (size 3 to 8) (size 9 to 14) (size 15 to 20)
#    0.000    2.333    0.667    2.800    0.000    6.400 
#    0.000    2.333    0.000    2.000    0.000    3.733 
#    0.000    0.000    0.000    0.000    0.000    0.000 
#
# Total GULP energy -334380.961803 kJ/mol
# GULP energy per Si atom -5573.016030 kJ/mol
# Density = 1.706544 g / cm^3
# Si number density = 17.104367 Si / 1000 Ang^3
#
#
#
# Elastic Constant Matrix: (Units=GPa)
#
#
# Indices 1 2 3 4 5 6 
#
# 1 20.5991 30.3591 29.5735 0.0000 0.0000 0.0000
# 2 30.3591 121.1881 64.7866 0.0000 0.0000 0.0000
# 3 29.5735 64.7866 99.2972 0.0000 0.0000 0.0000
# 4 0.0000 0.0000 0.0000 31.3769 0.0000 0.0000
# 5 0.0000 0.0000 0.0000 0.0000 19.4606 0.0000
# 6 0.0000 0.0000 0.0000 0.0000 0.0000 25.3169
#
#
#
# Elastic Compliance Matrix: (Units=1/GPa)
#
#
# Indices 1 2 3 4 5 6 
#
# 1 0.097654 -0.013691 -0.020152 0.000000 0.000000 0.000000
# 2 -0.013691 0.014591 -0.005442 0.000000 0.000000 0.000000
# 3 -0.020152 -0.005442 0.019623 0.000000 0.000000 0.000000
# 4 0.000000 0.000000 0.000000 0.031871 0.000000 0.000000
# 5 0.000000 0.000000 0.000000 0.000000 0.051386 0.000000
# 6 0.000000 0.000000 0.000000 0.000000 0.000000 0.039499
#
#
# Mechanical properties :
#
#
# Convention : Reuss Voigt Hill
#
# Bulk Modulus (GPa) = 18.76203 54.50251 36.63227
# Shear Modulus (GPa) = 14.24665 22.98856 18.61760
#
# Velocity S-wave (km/s) = 2.88917 3.67006 3.30278
# Velocity P-wave (km/s) = 4.70348 7.06350 6.00065
#
# Compressibility (1/GPa) = 0.05329913
#
# Stress axis : x y z
#
# Youngs Moduli (GPa) = 10.24021 68.53676 50.95969
#
# Poissons Ratio (x) = 0.93831 1.02693
# Poissons Ratio (y) = 0.14019 0.27734
# Poissons Ratio (z) = 0.20636 0.37300
#
# Static dielectric constant tensor:
#      x y z
#    x 1.607350 0.000000 0.000000 
#    y 0.000000 1.584290 0.000000 
#    z 0.000000 0.000000 1.576640 
# 
# From -- ./inp_files/73882.got.cif
#   From: 2010.05.17/outbox.cif.g08.bks.cpg/sg65_37_cif.got.tgz:73882.got - 2010.06.03 17:01:31.
