data_PCOD9484783
_publ_section_title
;
Structure prediction by ZEFSAII (Michael W. Deem and Ramdas Pophale) SiO2 
 PCOD9484783
Probable space group: C M M M
;
_chemical_formula_sum "Si O2"
_cell_formula_units_Z 104
_cell_length_a 8.930487
_cell_length_b 27.928977
_cell_length_c 26.888893
_cell_angle_alpha 90.000000
_cell_angle_beta 90.000000
_cell_angle_gamma 90.000000
_cell_volume 6706.610645
_symmetry_space_group_name_H-M "C M M M"
_symmetry_group_IT_number 65
_symmetry_cell_setting 'orthorhombic'
loop_
_space_group_symop_operation_xyz
x,y,z
-x,-y,z
x,-y,-z
-x,y,-z
-x,-y,-z
x,y,-z
-x,y,z
x,-y,z
1/2+x,1/2+y,z
1/2-x,1/2-y,z
1/2+x,1/2-y,-z
1/2-x,1/2+y,-z
1/2-x,1/2-y,-z
1/2+x,1/2+y,-z
1/2-x,1/2+y,z
1/2+x,1/2-y,z
loop_
_atom_site_type_symbol
_atom_site_label
_atom_site_fract_x
_atom_site_fract_y
_atom_site_fract_z
Si Si1 0.178113 0.604394 0.697842
Si Si2 0.672360 0.058112 0.500000
Si Si3 0.321921 0.197793 0.941881
Si Si4 0.179683 0.301184 0.758152
Si Si5 0.678696 0.444017 0.396603
Si Si6 0.321368 0.644954 0.851831
Si Si7 0.179044 0.555566 0.197957
O O1 0.212041 0.658042 0.716936
O O2 0.263300 0.586996 0.649322
O O3 0.213413 0.570448 0.745109
O O4 0.000000 0.601106 0.688838
O O5 0.500000 0.073319 0.500000
O O6 0.752795 0.072738 0.449074
O O7 0.676588 0.000000 0.500000
O O8 0.500000 0.199849 0.932712
O O9 0.250000 0.250000 0.933192
O O10 0.244364 0.161220 0.904477
O O11 0.298227 0.185795 0.000000
O O12 0.250000 0.250000 0.746063
O O13 0.250138 0.320666 0.809526
O O14 0.000000 0.297992 0.763609
O O15 0.500000 0.442432 0.399565
O O16 0.723360 0.500000 0.388893
O O17 0.500000 0.648863 0.850927
O O18 0.267972 0.591836 0.837016
O O19 0.211848 0.500000 0.189530
O O20 0.000000 0.563484 0.191395
#
# Coordination Sequence:
#
# PCOD9484783 Si02
#       7
#    16   8  16  16  16  16  16
#     4   9  18  31  47  68  93 123 157 190 228 276
#     4   9  17  29  45  63  86 121 160 193 229 275
#     4  10  20  34  52  73  97 124 155 192 235 282
#     4  10  20  34  50  69  95 125 159 196 234 278
#     4  10  19  29  43  66  96 125 154 192 233 272
#     4  11  21  32  49  72  99 128 157 191 232 280
#     4   9  18  33  51  70  95 127 162 198 233 273
#
# _framework density 15.507088
#
# number of rings (size 3 to 8) (size 9 to 14) (size 15 to 20)
#    0.000    2.231    0.000    4.846    0.000    6.769 
#    0.000    0.000    0.000    0.462    0.000    3.769 
#    0.000    0.000    0.000    0.000    0.000    0.000 
#
# Total GULP energy -290153.912060 kJ/mol
# GULP energy per Si atom -5579.882924 kJ/mol
# Density = 1.547179 g / cm^3
# Si number density = 15.507088 Si / 1000 Ang^3
#
#
#
# Elastic Constant Matrix: (Units=GPa)
#
#
# Indices 1 2 3 4 5 6 
#
# 1 93.3942 61.3329 73.7074 0.0000 0.0000 0.0000
# 2 61.3329 94.6139 64.6625 0.0000 0.0000 0.0000
# 3 73.7074 64.6625 115.0658 0.0000 0.0000 0.0000
# 4 0.0000 0.0000 0.0000 19.4362 0.0000 0.0000
# 5 0.0000 0.0000 0.0000 0.0000 22.8937 0.0000
# 6 0.0000 0.0000 0.0000 0.0000 0.0000 26.6926
#
#
#
# Elastic Compliance Matrix: (Units=1/GPa)
#
#
# Indices 1 2 3 4 5 6 
#
# 1 0.025396 -0.008678 -0.011392 0.000000 0.000000 0.000000
# 2 -0.008678 0.020125 -0.005751 0.000000 0.000000 0.000000
# 3 -0.011392 -0.005751 0.019219 0.000000 0.000000 0.000000
# 4 0.000000 0.000000 0.000000 0.051450 0.000000 0.000000
# 5 0.000000 0.000000 0.000000 0.000000 0.043680 0.000000
# 6 0.000000 0.000000 0.000000 0.000000 0.000000 0.037464
#
#
# Mechanical properties :
#
#
# Convention : Reuss Voigt Hill
#
# Bulk Modulus (GPa) = 76.33199 78.05328 77.19263
# Shear Modulus (GPa) = 19.73624 20.69591 20.21608
#
# Velocity S-wave (km/s) = 3.57140 3.65719 3.61455
# Velocity P-wave (km/s) = 8.14477 8.26297 8.20408
#
# Compressibility (1/GPa) = 0.01310067
#
# Stress axis : x y z
#
# Youngs Moduli (GPa) = 39.37591 49.69014 52.03076
#
# Poissons Ratio (x) = 0.43119 0.59271
# Poissons Ratio (y) = 0.34169 0.29921
# Poissons Ratio (z) = 0.44855 0.28575
#
# Static dielectric constant tensor:
#      x y z
#    x 1.517300 0.000000 0.000000 
#    y 0.000000 1.503670 0.000000 
#    z 0.000000 0.000000 1.497950 
# 
# From -- ./inp_files/68236.got.cif
#   From: 2010.05.17/outbox.cif.g08.bks.cpg/sg65_35_cif.got.tgz:68236.got - 2010.06.03 17:01:31.
