data_PCOD9484681
_publ_section_title
;
Structure prediction by ZEFSAII (Michael W. Deem and Ramdas Pophale) SiO2 
 PCOD9484681
Probable space group: C M M M
;
_chemical_formula_sum "Si O2"
_cell_formula_units_Z 96
_cell_length_a 13.360287
_cell_length_b 34.107708
_cell_length_c 13.155567
_cell_angle_alpha 90.000000
_cell_angle_beta 90.000000
_cell_angle_gamma 90.000000
_cell_volume 5994.844116
_symmetry_space_group_name_H-M "C M M M"
_symmetry_group_IT_number 65
_symmetry_cell_setting 'orthorhombic'
loop_
_space_group_symop_operation_xyz
x,y,z
-x,-y,z
x,-y,-z
-x,y,-z
-x,-y,-z
x,y,-z
-x,y,z
x,-y,z
1/2+x,1/2+y,z
1/2-x,1/2-y,z
1/2+x,1/2-y,-z
1/2-x,1/2+y,-z
1/2-x,1/2-y,-z
1/2+x,1/2+y,-z
1/2-x,1/2+y,z
1/2+x,1/2-y,z
loop_
_atom_site_type_symbol
_atom_site_label
_atom_site_fract_x
_atom_site_fract_y
_atom_site_fract_z
Si Si1 0.120715 0.270976 0.109278
Si Si2 0.617966 0.314008 0.822655
Si Si3 0.241677 0.614738 0.880583
Si Si4 0.887267 0.955021 0.123159
Si Si5 0.381972 0.162097 0.728320
Si Si6 0.280308 0.703886 0.384907
O O1 0.153981 0.226657 0.127003
O O2 0.141075 0.300510 0.199289
O O3 0.000000 0.268574 0.107540
O O4 0.152890 0.286578 0.000000
O O5 0.500000 0.318680 0.839398
O O6 0.677279 0.350420 0.868290
O O7 0.642277 0.308157 0.703242
O O8 0.300494 0.575280 0.849638
O O9 0.156552 0.626254 0.798608
O O10 0.210054 0.612488 0.000000
O O11 0.000000 0.943411 0.156941
O O12 0.869380 0.000000 0.155294
O O13 0.889610 0.954877 0.000000
O O14 0.500000 0.159634 0.707596
O O15 0.313531 0.174217 0.632980
O O16 0.318019 0.699944 0.500000
O O17 0.250000 0.750000 0.372209
#
# Coordination Sequence:
#
# PCOD9484681 Si02
#       6
#    16  16  16  16  16  16
#     4   9  16  26  40  57  81 116 150 178 212 256
#     4  10  19  30  43  64  90 115 147 186 226 271
#     4  10  19  28  44  68  93 122 153 186 219 258
#     4   8  14  26  44  66  93 123 152 180 214 262
#     4  10  20  33  45  62  87 118 157 195 230 270
#     4  10  20  33  47  63  81 108 152 199 238 274
#
# _framework density 16.013760000000001
#
# number of rings (size 3 to 8) (size 9 to 14) (size 15 to 20)
#    0.000    2.500    1.667    2.000    0.000    3.333 
#    0.000    4.167    0.000    0.500    0.000    2.333 
#    0.000   10.667    0.000   42.667    0.000    2.667 
#
# Total GULP energy -267446.049684 kJ/mol
# GULP energy per Si atom -5571.792702 kJ/mol
# Density = 1.597731 g / cm^3
# Si number density = 16.013760 Si / 1000 Ang^3
#
#
#
# Elastic Constant Matrix: (Units=GPa)
#
#
# Indices 1 2 3 4 5 6 
#
# 1 49.3043 9.0661 -12.9898 0.0000 0.0000 0.0000
# 2 9.0661 53.4510 -3.6358 0.0000 0.0000 0.0000
# 3 -12.9898 -3.6358 47.0835 0.0000 0.0000 0.0000
# 4 0.0000 0.0000 0.0000 2.7752 0.0000 0.0000
# 5 0.0000 0.0000 0.0000 0.0000 14.6396 0.0000
# 6 0.0000 0.0000 0.0000 0.0000 0.0000 25.9439
#
#
#
# Elastic Compliance Matrix: (Units=1/GPa)
#
#
# Indices 1 2 3 4 5 6 
#
# 1 0.022473 -0.003408 0.005937 0.000000 0.000000 0.000000
# 2 -0.003408 0.019324 0.000552 0.000000 0.000000 0.000000
# 3 0.005937 0.000552 0.022919 0.000000 0.000000 0.000000
# 4 0.000000 0.000000 0.000000 0.360339 0.000000 0.000000
# 5 0.000000 0.000000 0.000000 0.000000 0.068308 0.000000
# 6 0.000000 0.000000 0.000000 0.000000 0.000000 0.038545
#
#
# Mechanical properties :
#
#
# Convention : Reuss Voigt Hill
#
# Bulk Modulus (GPa) = 14.10863 14.96888 14.53876
# Shear Modulus (GPa) = 9.10130 19.16495 14.13312
#
# Velocity S-wave (km/s) = 2.38658 3.46320 2.97402
# Velocity P-wave (km/s) = 4.05263 5.03582 4.57074
#
# Compressibility (1/GPa) = 0.07087859
#
# Stress axis : x y z
#
# Youngs Moduli (GPa) = 44.49786 51.74826 43.63116
#
# Poissons Ratio (x) = 0.17636 -0.25903
# Poissons Ratio (y) = 0.15165 -0.02409
# Poissons Ratio (z) = -0.26418 -0.02857
#
# Static dielectric constant tensor:
#      x y z
#    x 1.585040 0.000000 0.000000 
#    y 0.000000 1.533770 0.000000 
#    z 0.000000 0.000000 1.537850 
# 
# From -- ./inp_files/41256.got.cif
#   From: 2010.05.17/outbox.cif.g08.bks.cpg/sg65_21_cif.got.tgz:41256.got - 2010.06.03 17:01:31.
