data_PCOD9484247
_publ_section_title
;
Structure prediction by ZEFSAII (Michael W. Deem and Ramdas Pophale) SiO2 
 PCOD9484247
Probable space group: C M M M
;
_chemical_formula_sum "Si O2"
_cell_formula_units_Z 80
_cell_length_a 17.187087
_cell_length_b 15.226608
_cell_length_c 18.029437
_cell_angle_alpha 90.000000
_cell_angle_beta 90.000000
_cell_angle_gamma 90.000000
_cell_volume 4718.322349
_symmetry_space_group_name_H-M "C M M M"
_symmetry_group_IT_number 65
_symmetry_cell_setting 'orthorhombic'
loop_
_space_group_symop_operation_xyz
x,y,z
-x,-y,z
x,-y,-z
-x,y,-z
-x,-y,-z
x,y,-z
-x,y,z
x,-y,z
1/2+x,1/2+y,z
1/2-x,1/2-y,z
1/2+x,1/2-y,-z
1/2-x,1/2+y,-z
1/2-x,1/2-y,-z
1/2+x,1/2+y,-z
1/2-x,1/2+y,z
1/2+x,1/2-y,z
loop_
_atom_site_type_symbol
_atom_site_label
_atom_site_fract_x
_atom_site_fract_y
_atom_site_fract_z
Si Si1 0.210098 0.663656 0.162606
Si Si2 0.174259 0.140155 0.301376
Si Si3 0.411217 0.000000 0.360454
Si Si4 0.275127 0.500000 0.085830
Si Si5 0.090025 0.686366 0.276470
Si Si6 0.411343 0.500000 0.792476
Si Si7 0.260137 0.500000 0.414860
O O1 0.250000 0.750000 0.130213
O O2 0.257918 0.644937 0.239232
O O3 0.223971 0.583705 0.108705
O O4 0.124183 0.680863 0.193116
O O5 0.140763 0.237156 0.316148
O O6 0.108313 0.083464 0.259443
O O7 0.206679 0.084528 0.370199
O O8 0.404330 0.089461 0.312324
O O9 0.500000 0.000000 0.392402
O O10 0.333995 0.000000 0.410482
O O11 0.351002 0.500000 0.139081
O O12 0.295833 0.500000 0.000000
O O13 0.000000 0.711713 0.277866
O O14 0.500000 0.500000 0.816723
O O15 0.284954 0.500000 0.500000
#
# Coordination Sequence:
#
# PCOD9484247 Si02
#       7
#    16  16   8   8  16   8   8
#     4   9  17  31  53  74  98 134 175 220 257 306
#     4   9  18  33  53  78 104 130 180 223 262 314
#     4  10  20  32  49  77 107 137 174 219 266 306
#     4  10  20  32  48  75 111 143 172 210 261 317
#     4  10  18  31  56  80 101 130 174 229 269 303
#     4   9  17  31  53  76 102 137 177 225 266 304
#     4  11  21  35  55  77 107 143 174 213 268 329
#
# _framework density 16.955179999999999
#
# number of rings (size 3 to 8) (size 9 to 14) (size 15 to 20)
#    0.000    2.400    2.000    1.800    0.000    0.800 
#    0.000    2.000    0.000   13.200    0.000    0.000 
#    0.000    0.000    0.000    0.000    0.000    0.000 
#
# Total GULP energy -222785.977355 kJ/mol
# GULP energy per Si atom -5569.649434 kJ/mol
# Density = 1.691659 g / cm^3
# Si number density = 16.955180 Si / 1000 Ang^3
#
#
#
# Elastic Constant Matrix: (Units=GPa)
#
#
# Indices 1 2 3 4 5 6 
#
# 1 77.5796 23.4151 22.5392 0.0000 0.0000 0.0000
# 2 23.4151 126.0585 40.8121 0.0000 0.0000 0.0000
# 3 22.5392 40.8121 68.9533 0.0000 0.0000 0.0000
# 4 0.0000 0.0000 0.0000 -5.2895 0.0000 0.0000
# 5 0.0000 0.0000 0.0000 0.0000 12.4322 0.0000
# 6 0.0000 0.0000 0.0000 0.0000 0.0000 22.8819
#
#
#
# Elastic Compliance Matrix: (Units=1/GPa)
#
#
# Indices 1 2 3 4 5 6 
#
# 1 0.014448 -0.001428 -0.003877 0.000000 0.000000 0.000000
# 2 -0.001428 0.009954 -0.005425 0.000000 0.000000 0.000000
# 3 -0.003877 -0.005425 0.018981 0.000000 0.000000 0.000000
# 4 0.000000 0.000000 0.000000 -0.189052 0.000000 0.000000
# 5 0.000000 0.000000 0.000000 0.000000 0.080436 0.000000
# 6 0.000000 0.000000 0.000000 0.000000 0.000000 0.043703
#
#
# Mechanical properties :
#
#
# Convention : Reuss Voigt Hill
#
# Bulk Modulus (GPa) = 45.61641 49.56935 47.59288
# Shear Modulus (GPa) = 690.82064 18.39324 354.60694
#
# Velocity S-wave (km/s) = 20.20702 3.29723 14.47749
# Velocity P-wave (km/s) = 23.90385 6.61775 17.53837
#
# Compressibility (1/GPa) = 0.02192194
#
# Stress axis : x y z
#
# Youngs Moduli (GPa) = 69.21610 100.45708 52.68469
#
# Poissons Ratio (x) = 0.14349 0.20427
# Poissons Ratio (y) = 0.09886 0.28581
# Poissons Ratio (z) = 0.26836 0.54498
#
# Static dielectric constant tensor:
#      x y z
#    x 1.605450 0.000000 0.000000 
#    y 0.000000 1.616060 0.000000 
#    z 0.000000 0.000000 1.534370 
# 
# From -- ./inp_files/54255.got.cif
#   From: 2010.05.17/outbox.cif.g08.bks.cpg/sg65_28_cif.got.tgz:54255.got - 2010.06.03 17:01:31.
