data_PCOD9484015
_publ_section_title
;
Structure prediction by ZEFSAII (Michael W. Deem and Ramdas Pophale) SiO2 
 PCOD9484015
Probable space group: C M M M
;
_chemical_formula_sum "Si O2"
_cell_formula_units_Z 80
_cell_length_a 20.058005
_cell_length_b 19.341940
_cell_length_c 12.114169
_cell_angle_alpha 90.000000
_cell_angle_beta 90.000000
_cell_angle_gamma 90.000000
_cell_volume 4699.821839
_symmetry_space_group_name_H-M "C M M M"
_symmetry_group_IT_number 65
_symmetry_cell_setting 'orthorhombic'
loop_
_space_group_symop_operation_xyz
x,y,z
-x,-y,z
x,-y,-z
-x,y,-z
-x,-y,-z
x,y,-z
-x,y,z
x,-y,z
1/2+x,1/2+y,z
1/2-x,1/2-y,z
1/2+x,1/2-y,-z
1/2-x,1/2+y,-z
1/2-x,1/2-y,-z
1/2+x,1/2+y,-z
1/2-x,1/2+y,z
1/2+x,1/2-y,z
loop_
_atom_site_type_symbol
_atom_site_label
_atom_site_fract_x
_atom_site_fract_y
_atom_site_fract_z
Si Si1 0.620239 0.924387 0.500000
Si Si2 0.921418 0.785432 0.272084
Si Si3 0.817484 0.294695 0.871373
Si Si4 0.284518 0.078617 0.712906
Si Si5 0.424884 0.224676 0.500000
Si Si6 0.867192 0.080878 0.631448
O O1 0.666995 0.919598 0.607419
O O2 0.574507 0.857662 0.500000
O O3 0.587547 0.000000 0.500000
O O4 0.877700 0.751640 0.176279
O O5 0.894441 0.750798 0.386094
O O6 0.909764 0.866464 0.295024
O O7 0.000000 0.770725 0.258079
O O8 0.750000 0.250000 0.860710
O O9 0.806951 0.363893 0.799819
O O10 0.828001 0.310710 0.000000
O O11 0.209737 0.091061 0.667651
O O12 0.286352 0.000000 0.758047
O O13 0.500000 0.253354 0.500000
O O14 0.874798 0.095366 0.500000
O O15 0.883776 0.000000 0.647791
#
# Coordination Sequence:
#
# PCOD9484015 Si02
#       6
#     8  16  16  16   8  16
#     4  10  18  30  53  82 109 141 177 218 276 336
#     4  11  22  36  55  81 114 147 182 226 275 326
#     4  11  23  38  58  81 103 141 195 236 271 319
#     4  10  19  33  55  84 113 142 179 225 278 330
#     4  10  20  32  50  79 107 143 187 219 265 332
#     4  10  19  32  53  84 120 151 179 215 269 336
#
# _framework density 17.021922
#
# number of rings (size 3 to 8) (size 9 to 14) (size 15 to 20)
#    0.000    1.600    6.000    0.000    0.000    1.400 
#    0.000    4.000    0.000    1.200    0.000    2.800 
#    0.000    0.000    0.000    0.000    0.000    0.000 
#
# Total GULP energy -223041.144421 kJ/mol
# GULP energy per Si atom -5576.028611 kJ/mol
# Density = 1.698318 g / cm^3
# Si number density = 17.021922 Si / 1000 Ang^3
#
#
#
# Elastic Constant Matrix: (Units=GPa)
#
#
# Indices 1 2 3 4 5 6 
#
# 1 58.1099 19.5136 27.6871 0.0000 0.0000 0.0000
# 2 19.5136 98.1700 53.4673 0.0000 0.0000 0.0000
# 3 27.6871 53.4673 108.4275 0.0000 0.0000 0.0000
# 4 0.0000 0.0000 0.0000 8.8145 0.0000 0.0000
# 5 0.0000 0.0000 0.0000 0.0000 9.9025 0.0000
# 6 0.0000 0.0000 0.0000 0.0000 0.0000 22.2381
#
#
#
# Elastic Compliance Matrix: (Units=1/GPa)
#
#
# Indices 1 2 3 4 5 6 
#
# 1 0.019778 -0.001614 -0.004254 0.000000 0.000000 0.000000
# 2 -0.001614 0.014058 -0.006520 0.000000 0.000000 0.000000
# 3 -0.004254 -0.006520 0.013524 0.000000 0.000000 0.000000
# 4 0.000000 0.000000 0.000000 0.113450 0.000000 0.000000
# 5 0.000000 0.000000 0.000000 0.000000 0.100985 0.000000
# 6 0.000000 0.000000 0.000000 0.000000 0.000000 0.044968
#
#
# Mechanical properties :
#
#
# Convention : Reuss Voigt Hill
#
# Bulk Modulus (GPa) = 44.28099 51.78260 48.03179
# Shear Modulus (GPa) = 14.74629 19.12698 16.93664
#
# Velocity S-wave (km/s) = 2.94651 3.35575 3.15777
# Velocity P-wave (km/s) = 6.13567 6.74551 6.44781
#
# Compressibility (1/GPa) = 0.02258306
#
# Stress axis : x y z
#
# Youngs Moduli (GPa) = 50.56167 71.13156 73.94095
#
# Poissons Ratio (x) = 0.11483 0.31456
# Poissons Ratio (y) = 0.08162 0.48211
# Poissons Ratio (z) = 0.21510 0.46379
#
# Static dielectric constant tensor:
#      x y z
#    x 1.567530 0.000000 0.000000 
#    y 0.000000 1.598350 0.000000 
#    z 0.000000 0.000000 1.560520 
# 
# From -- ./inp_files/26682.got.cif
#   From: 2010.05.17/outbox.cif.g08.bks.cpg/sg65_14_cif.got.tgz:26682.got - 2010.06.03 17:01:31.
