data_PCOD9484394
_publ_section_title
;
Structure prediction by ZEFSAII (Michael W. Deem and Ramdas Pophale) SiO2 
 PCOD9484394
Probable space group: C M M M
;
_chemical_formula_sum "Si O2"
_cell_formula_units_Z 56
_cell_length_a 27.918254
_cell_length_b 7.936115
_cell_length_c 11.242428
_cell_angle_alpha 90.000000
_cell_angle_beta 90.000000
_cell_angle_gamma 90.000000
_cell_volume 2490.900165
_symmetry_space_group_name_H-M "C M M M"
_symmetry_group_IT_number 65
_symmetry_cell_setting 'orthorhombic'
loop_
_space_group_symop_operation_xyz
x,y,z
-x,-y,z
x,-y,-z
-x,y,-z
-x,-y,-z
x,y,-z
-x,y,z
x,-y,z
1/2+x,1/2+y,z
1/2-x,1/2-y,z
1/2+x,1/2-y,-z
1/2-x,1/2+y,-z
1/2-x,1/2-y,-z
1/2+x,1/2+y,-z
1/2-x,1/2+y,z
1/2+x,1/2-y,z
loop_
_atom_site_type_symbol
_atom_site_label
_atom_site_fract_x
_atom_site_fract_y
_atom_site_fract_z
Si Si1 0.693915 0.200518 0.000000
Si Si2 0.942638 0.297913 0.129646
Si Si3 0.601699 0.196967 0.628944
Si Si4 0.805482 0.196780 0.737772
O O1 0.750000 0.250000 0.000000
O O2 0.676821 0.267564 0.126920
O O3 0.688638 0.000000 0.000000
O O4 0.932006 0.500000 0.128288
O O5 0.921589 0.226756 0.252079
O O6 0.000000 0.280475 0.133516
O O7 0.926233 0.231883 0.000000
O O8 0.589243 0.270891 0.500000
O O9 0.658589 0.208671 0.650598
O O10 0.587692 0.000000 0.626044
O O11 0.750000 0.250000 0.729216
O O12 0.808650 0.000000 0.713885
#
# Coordination Sequence:
#
# PCOD9484394 Si02
#       4
#     8  16  16  16
#     4  10  18  32  54  80 109 140 181 232 284 331
#     4   8  15  30  54  84 114 145 185 234 287 340
#     4  10  21  35  53  82 116 152 194 238 287 340
#     4  11  22  37  56  80 112 151 195 238 287 340
#
# _framework density 22.481831
#
# number of rings (size 3 to 8) (size 9 to 14) (size 15 to 20)
#    0.000    2.286    0.000    6.429    2.000    1.714 
#    0.000    2.857    0.000    0.857    0.000    4.000 
#    0.000    0.000    0.000    0.000    0.000    0.000 
#
# Total GULP energy -156301.214445 kJ/mol
# GULP energy per Si atom -5582.186230 kJ/mol
# Density = 2.243066 g / cm^3
# Si number density = 22.481831 Si / 1000 Ang^3
#
#
#
# Elastic Constant Matrix: (Units=GPa)
#
#
# Indices 1 2 3 4 5 6 
#
# 1 48.7270 -9.5700 60.3322 0.0000 0.0000 0.0000
# 2 -9.5700 39.2644 -2.3385 0.0000 0.0000 0.0000
# 3 60.3322 -2.3385 224.5497 0.0000 0.0000 0.0000
# 4 0.0000 0.0000 0.0000 8.6803 0.0000 0.0000
# 5 0.0000 0.0000 0.0000 0.0000 -98.4223 0.0000
# 6 0.0000 0.0000 0.0000 0.0000 0.0000 7.9855
#
#
#
# Elastic Compliance Matrix: (Units=1/GPa)
#
#
# Indices 1 2 3 4 5 6 
#
# 1 0.032809 0.007476 -0.008737 0.000000 0.000000 0.000000
# 2 0.007476 0.027188 -0.001726 0.000000 0.000000 0.000000
# 3 -0.008737 -0.001726 0.006783 0.000000 0.000000 0.000000
# 4 0.000000 0.000000 0.000000 0.115203 0.000000 0.000000
# 5 0.000000 0.000000 0.000000 0.000000 -0.010160 0.000000
# 6 0.000000 0.000000 0.000000 0.000000 0.000000 0.125227
#
#
# Mechanical properties :
#
#
# Convention : Reuss Voigt Hill
#
# Bulk Modulus (GPa) = 16.44561 45.48761 30.96661
# Shear Modulus (GPa) = 15.46590 1.25653 8.36121
#
# Velocity S-wave (km/s) = 2.62568 0.74841 1.93059
# Velocity P-wave (km/s) = 4.06488 4.58517 4.33284
#
# Compressibility (1/GPa) = 0.06080652
#
# Stress axis : x y z
#
# Youngs Moduli (GPa) = 30.47933 36.78125 147.42869
#
# Poissons Ratio (x) = -0.27499 1.28813
# Poissons Ratio (y) = -0.22787 0.25440
# Poissons Ratio (z) = 0.26631 0.06347
#
# Static dielectric constant tensor:
#      x y z
#    x 1.841810 0.000000 0.000000 
#    y 0.000000 1.774350 0.000000 
#    z 0.000000 0.000000 1.885900 
# 
# From -- ./inp_files/31750.got.cif
#   From: 2010.05.17/outbox.cif.g08.bks.cpg/sg65_16_cif.got.tgz:31750.got - 2010.06.03 17:01:31.
