data_PCOD9484573
_publ_section_title
;
Structure prediction by ZEFSAII (Michael W. Deem and Ramdas Pophale) SiO2 
 PCOD9484573
Probable space group: C M M M
;
_chemical_formula_sum "Si O2"
_cell_formula_units_Z 116
_cell_length_a 26.047130
_cell_length_b 7.624529
_cell_length_c 27.901247
_cell_angle_alpha 90.000000
_cell_angle_beta 90.000000
_cell_angle_gamma 90.000000
_cell_volume 5541.106686
_symmetry_space_group_name_H-M "C M M M"
_symmetry_group_IT_number 65
_symmetry_cell_setting 'orthorhombic'
loop_
_space_group_symop_operation_xyz
x,y,z
-x,-y,z
x,-y,-z
-x,y,-z
-x,-y,-z
x,y,-z
-x,y,z
x,-y,z
1/2+x,1/2+y,z
1/2-x,1/2-y,z
1/2+x,1/2-y,-z
1/2-x,1/2+y,-z
1/2-x,1/2-y,-z
1/2+x,1/2+y,-z
1/2-x,1/2+y,z
1/2+x,1/2-y,z
loop_
_atom_site_type_symbol
_atom_site_label
_atom_site_fract_x
_atom_site_fract_y
_atom_site_fract_z
Si Si1 0.500000 0.000000 0.588376
Si Si2 0.695165 0.209429 0.845901
Si Si3 0.586275 0.787082 0.811857
Si Si4 0.331861 0.203924 0.948456
Si Si5 0.944264 0.794686 0.918371
Si Si6 0.413264 0.303931 0.394811
Si Si7 0.192810 0.290824 0.555011
Si Si8 0.441126 0.788733 0.705926
O O1 0.545800 0.154498 0.589889
O O2 0.750000 0.250000 0.824394
O O3 0.645517 0.268358 0.817228
O O4 0.691478 0.283941 0.900112
O O5 0.690042 0.000000 0.849761
O O6 0.559711 0.723309 0.860573
O O7 0.566689 0.727576 0.760329
O O8 0.581948 0.000000 0.812997
O O9 0.393434 0.209624 0.940257
O O10 0.316572 0.000000 0.950040
O O11 0.319030 0.284119 0.000000
O O12 0.000000 0.725272 0.933592
O O13 0.941887 0.000000 0.930614
O O14 0.431700 0.500000 0.406545
O O15 0.357062 0.278438 0.417598
O O16 0.408180 0.287642 0.336947
O O17 0.191662 0.224419 0.500000
O O18 0.187927 0.500000 0.554155
O O19 0.250000 0.250000 0.574539
O O20 0.500000 0.754162 0.692476
O O21 0.434306 0.000000 0.705855
#
# Coordination Sequence:
#
# PCOD9484573 Si02
#       8
#     4  16  16  16  16  16  16  16
#     4  12  22  44  61  92 140 174 218 270 325 400
#     4   9  18  33  51  73  98 128 165 209 265 319
#     4   9  19  34  55  77 101 139 180 219 263 317
#     4   9  19  35  52  69  90 120 164 208 249 312
#     4  10  20  32  46  70 104 131 159 203 251 307
#     4  12  23  39  65  95 131 175 218 268 329 388
#     4  10  21  41  68  97 131 172 223 279 329 385
#     4  10  18  34  57  83 116 153 194 240 291 351
#
# _framework density 20.934446000000001
#
# number of rings (size 3 to 8) (size 9 to 14) (size 15 to 20)
#    0.000    2.069    2.069    2.276    0.000    6.069 
#    0.000    2.759    0.000    2.483    0.000    0.000 
#    0.000    0.000    0.000    0.000    0.000    0.000 
#
# Total GULP energy -323139.627707 kJ/mol
# GULP energy per Si atom -5571.372892 kJ/mol
# Density = 2.088680 g / cm^3
# Si number density = 20.934446 Si / 1000 Ang^3
#
#
#
# Elastic Constant Matrix: (Units=GPa)
#
#
# Indices 1 2 3 4 5 6 
#
# 1 95.6730 24.8169 17.7873 0.0000 0.0000 0.0000
# 2 24.8169 83.0053 18.2574 0.0000 0.0000 0.0000
# 3 17.7873 18.2574 61.2711 0.0000 0.0000 0.0000
# 4 0.0000 0.0000 0.0000 308.6895 0.0000 0.0000
# 5 0.0000 0.0000 0.0000 0.0000 -88.9623 0.0000
# 6 0.0000 0.0000 0.0000 0.0000 0.0000 24.9250
#
#
#
# Elastic Compliance Matrix: (Units=1/GPa)
#
#
# Indices 1 2 3 4 5 6 
#
# 1 0.011682 -0.002940 -0.002516 0.000000 0.000000 0.000000
# 2 -0.002940 0.013632 -0.003209 0.000000 0.000000 0.000000
# 3 -0.002516 -0.003209 0.018007 0.000000 0.000000 0.000000
# 4 0.000000 0.000000 0.000000 0.003240 0.000000 0.000000
# 5 0.000000 0.000000 0.000000 0.000000 -0.011241 0.000000
# 6 0.000000 0.000000 0.000000 0.000000 0.000000 0.040120
#
#
# Mechanical properties :
#
#
# Convention : Reuss Voigt Hill
#
# Bulk Modulus (GPa) = 38.46999 40.18583 39.32791
# Shear Modulus (GPa) = 49.29355 60.86964 55.08160
#
# Velocity S-wave (km/s) = 4.85775 5.39810 5.13504
# Velocity P-wave (km/s) = 7.06257 7.62170 7.34746
#
# Compressibility (1/GPa) = 0.02599429
#
# Stress axis : x y z
#
# Youngs Moduli (GPa) = 85.59852 73.35666 55.53309
#
# Poissons Ratio (x) = 0.21563 0.13970
# Poissons Ratio (y) = 0.25162 0.17819
# Poissons Ratio (z) = 0.21533 0.23538
#
# Static dielectric constant tensor:
#      x y z
#    x 1.752430 0.000000 0.000000 
#    y 0.000000 1.805080 0.000000 
#    z 0.000000 0.000000 1.766700 
# 
# From -- ./inp_files/75895.got.cif
#   From: 2010.05.17/outbox.cif.g08.bks.cpg/sg65_38_cif.got.tgz:75895.got - 2010.06.03 17:01:31.
