data_PCOD9484985
_publ_section_title
;
Structure prediction by ZEFSAII (Michael W. Deem and Ramdas Pophale) SiO2 
 PCOD9484985
Probable space group: C M M M
;
_chemical_formula_sum "Si O2"
_cell_formula_units_Z 72
_cell_length_a 38.440893
_cell_length_b 14.848644
_cell_length_c 7.596763
_cell_angle_alpha 90.000000
_cell_angle_beta 90.000000
_cell_angle_gamma 90.000000
_cell_volume 4336.195364
_symmetry_space_group_name_H-M "C M M M"
_symmetry_group_IT_number 65
_symmetry_cell_setting 'orthorhombic'
loop_
_space_group_symop_operation_xyz
x,y,z
-x,-y,z
x,-y,-z
-x,y,-z
-x,-y,-z
x,y,-z
-x,y,z
x,-y,z
1/2+x,1/2+y,z
1/2-x,1/2-y,z
1/2+x,1/2-y,-z
1/2-x,1/2+y,-z
1/2-x,1/2-y,-z
1/2+x,1/2+y,-z
1/2-x,1/2+y,z
1/2+x,1/2-y,z
loop_
_atom_site_type_symbol
_atom_site_label
_atom_site_fract_x
_atom_site_fract_y
_atom_site_fract_z
Si Si1 0.404720 0.606442 0.211082
Si Si2 0.039366 0.891198 0.500000
Si Si3 0.803379 0.397753 0.787693
Si Si4 0.340176 0.725851 0.796196
Si Si5 0.223940 0.896897 0.709342
O O1 0.397152 0.500000 0.241529
O O2 0.438219 0.632023 0.326803
O O3 0.372123 0.666774 0.272943
O O4 0.410087 0.616507 0.000000
O O5 0.000000 0.855736 0.500000
O O6 0.037176 0.000000 0.500000
O O7 0.808490 0.500000 0.722678
O O8 0.829899 0.322664 0.717945
O O9 0.763705 0.370069 0.745989
O O10 0.806032 0.399690 0.000000
O O11 0.305158 0.666741 0.788796
O O12 0.348981 0.741726 0.000000
O O13 0.218879 0.895976 0.500000
O O14 0.219940 0.000000 0.773169
#
# Coordination Sequence:
#
# PCOD9484985 Si02
#       5
#    16   8  16  16  16
#     4   9  18  31  47  70  98 124 152 186 222 266
#     4   9  18  32  50  72  98 127 153 175 210 266
#     4   9  18  32  46  59  81 115 154 195 234 272
#     4  10  19  30  45  64  86 115 151 189 231 274
#     4  10  20  30  41  60  85 115 152 192 232 273
#
# _framework density 16.604417999999999
#
# number of rings (size 3 to 8) (size 9 to 14) (size 15 to 20)
#    0.000    2.556    0.000    2.000    1.556    6.222 
#    0.000    2.222    0.000    0.000    0.000    0.000 
#    0.000    1.778    0.000    8.667    0.000    0.222 
#
# Total GULP energy -200698.930897 kJ/mol
# GULP energy per Si atom -5574.970303 kJ/mol
# Density = 1.656663 g / cm^3
# Si number density = 16.604418 Si / 1000 Ang^3
#
#
#
# Elastic Constant Matrix: (Units=GPa)
#
#
# Indices 1 2 3 4 5 6 
#
# 1 122.5338 68.6695 24.4209 0.0000 0.0000 0.0000
# 2 68.6695 66.6111 15.3964 0.0000 0.0000 0.0000
# 3 24.4209 15.3964 47.0258 0.0000 0.0000 0.0000
# 4 0.0000 0.0000 0.0000 2.7483 0.0000 0.0000
# 5 0.0000 0.0000 0.0000 0.0000 22.4065 0.0000
# 6 0.0000 0.0000 0.0000 0.0000 0.0000 16.8649
#
#
#
# Elastic Compliance Matrix: (Units=1/GPa)
#
#
# Indices 1 2 3 4 5 6 
#
# 1 0.019976 -0.019685 -0.003929 0.000000 0.000000 0.000000
# 2 -0.019685 0.035640 -0.001446 0.000000 0.000000 0.000000
# 3 -0.003929 -0.001446 0.023779 0.000000 0.000000 0.000000
# 4 0.000000 0.000000 0.000000 0.363859 0.000000 0.000000
# 5 0.000000 0.000000 0.000000 0.000000 0.044630 0.000000
# 6 0.000000 0.000000 0.000000 0.000000 0.000000 0.059295
#
#
# Mechanical properties :
#
#
# Convention : Reuss Voigt Hill
#
# Bulk Modulus (GPa) = 34.15892 50.34934 42.25413
# Shear Modulus (GPa) = 8.23649 16.91621 12.57635
#
# Velocity S-wave (km/s) = 2.22962 3.19529 2.75509
# Velocity P-wave (km/s) = 5.21968 6.63339 5.96854
#
# Compressibility (1/GPa) = 0.02927493
#
# Stress axis : x y z
#
# Youngs Moduli (GPa) = 50.06108 28.05847 42.05469
#
# Poissons Ratio (x) = 0.55233 0.16522
# Poissons Ratio (y) = 0.98544 0.06082
# Poissons Ratio (z) = 0.19667 0.04058
#
# Static dielectric constant tensor:
#      x y z
#    x 1.536060 0.000000 0.000000 
#    y 0.000000 1.591040 0.000000 
#    z 0.000000 0.000000 1.602470 
# 
# From -- ./inp_files/7649.got.cif
#   From: 2010.05.17/outbox.cif.g08.bks.cpg/sg65_4_cif.got.tgz:7649.got - 2010.06.03 17:01:31.
