data_PCOD9484922
_publ_section_title
;
Structure prediction by ZEFSAII (Michael W. Deem and Ramdas Pophale) SiO2 
 PCOD9484922
Probable space group: C M M M
;
_chemical_formula_sum "Si O2"
_cell_formula_units_Z 88
_cell_length_a 7.273423
_cell_length_b 37.166538
_cell_length_c 14.937476
_cell_angle_alpha 90.000000
_cell_angle_beta 90.000000
_cell_angle_gamma 90.000000
_cell_volume 4038.017300
_symmetry_space_group_name_H-M "C M M M"
_symmetry_group_IT_number 65
_symmetry_cell_setting 'orthorhombic'
loop_
_space_group_symop_operation_xyz
x,y,z
-x,-y,z
x,-y,-z
-x,y,-z
-x,-y,-z
x,y,-z
-x,y,z
x,-y,z
1/2+x,1/2+y,z
1/2-x,1/2-y,z
1/2+x,1/2-y,-z
1/2-x,1/2+y,-z
1/2-x,1/2-y,-z
1/2+x,1/2+y,-z
1/2-x,1/2+y,z
1/2+x,1/2-y,z
loop_
_atom_site_type_symbol
_atom_site_label
_atom_site_fract_x
_atom_site_fract_y
_atom_site_fract_z
Si Si1 0.776663 0.818654 0.598800
Si Si2 0.775656 0.141464 0.897434
Si Si3 0.724313 0.500000 0.103792
Si Si4 0.776757 0.902851 0.400565
Si Si5 0.218545 0.790390 0.214555
Si Si6 0.275999 0.429326 0.788392
O O1 0.714816 0.806900 0.500000
O O2 0.726732 0.860740 0.611354
O O3 0.711717 0.796323 0.684152
O O4 0.000000 0.817584 0.597623
O O5 0.713243 0.178053 0.849729
O O6 0.720187 0.106704 0.840690
O O7 0.000000 0.141525 0.897636
O O8 0.716846 0.139153 0.000000
O O9 0.500000 0.500000 0.102592
O O10 0.782618 0.464518 0.157671
O O11 0.782313 0.500000 0.000000
O O12 0.716734 0.914287 0.500000
O O13 0.716564 0.925576 0.314815
O O14 0.000000 0.903576 0.400824
O O15 0.250000 0.750000 0.182859
O O16 0.000000 0.795404 0.219126
O O17 0.500000 0.429823 0.787788
#
# Coordination Sequence:
#
# PCOD9484922 Si02
#       6
#    16  16   8  16  16  16
#     4   8  13  23  39  57  76  99 130 167 203 241
#     4   9  16  26  40  55  72  99 135 169 201 243
#     4   9  16  22  29  45  69  97 129 167 207 240
#     4   8  12  19  33  50  67  91 125 162 196 234
#     4  10  19  30  43  61  83 107 138 175 212 248
#     4   9  14  22  34  49  70  97 129 164 200 241
#
# _framework density 21.792874000000001
#
# number of rings (size 3 to 8) (size 9 to 14) (size 15 to 20)
#    0.000    3.182    1.818    1.636    0.000    2.909 
#    0.000    0.455    0.000    2.727    0.000    0.000 
#    0.000    0.000    0.000    0.818    0.000    5.000 
#
# Total GULP energy -245671.795974 kJ/mol
# GULP energy per Si atom -5583.449909 kJ/mol
# Density = 2.174327 g / cm^3
# Si number density = 21.792874 Si / 1000 Ang^3
#
#
#
# Elastic Constant Matrix: (Units=GPa)
#
#
# Indices 1 2 3 4 5 6 
#
# 1 94.3916 -0.3923 4.4465 0.0000 0.0000 0.0000
# 2 -0.3923 162.2418 109.9740 0.0000 0.0000 0.0000
# 3 4.4465 109.9740 194.6246 0.0000 0.0000 0.0000
# 4 0.0000 0.0000 0.0000 15.6760 0.0000 0.0000
# 5 0.0000 0.0000 0.0000 0.0000 -22.1945 0.0000
# 6 0.0000 0.0000 0.0000 0.0000 0.0000 -6.8963
#
#
#
# Elastic Compliance Matrix: (Units=1/GPa)
#
#
# Indices 1 2 3 4 5 6 
#
# 1 0.010615 0.000308 -0.000417 0.000000 0.000000 0.000000
# 2 0.000308 0.009999 -0.005657 0.000000 0.000000 0.000000
# 3 -0.000417 -0.005657 0.008344 0.000000 0.000000 0.000000
# 4 0.000000 0.000000 0.000000 0.063792 0.000000 0.000000
# 5 0.000000 0.000000 0.000000 0.000000 -0.045056 0.000000
# 6 0.000000 0.000000 0.000000 0.000000 0.000000 -0.145006
#
#
# Mechanical properties :
#
#
# Convention : Reuss Voigt Hill
#
# Bulk Modulus (GPa) = 57.38203 75.47938 66.43071
# Shear Modulus (GPa) = -62.52196 19.79902 -21.36147
#
# Velocity S-wave (km/s) = -5.36204 3.01742 -3.13422
# Velocity P-wave (km/s) = 3.45651 6.84469 4.17746
#
# Compressibility (1/GPa) = 0.01742706
#
# Stress axis : x y z
#
# Youngs Moduli (GPa) = 94.20570 100.01066 119.84452
#
# Poissons Ratio (x) = -0.03081 0.04992
# Poissons Ratio (y) = -0.02902 0.67796
# Poissons Ratio (z) = 0.03924 0.56576
#
# Static dielectric constant tensor:
#      x y z
#    x 1.811670 0.000000 0.000000 
#    y 0.000000 1.739490 0.000000 
#    z 0.000000 0.000000 1.776900 
# 
# From -- ./inp_files/38815.got.cif
#   From: 2010.05.17/outbox.cif.g08.bks.cpg/sg65_20_cif.got.tgz:38815.got - 2010.06.03 17:01:31.
