data_PCOD9484351
_publ_section_title
;
Structure prediction by ZEFSAII (Michael W. Deem and Ramdas Pophale) SiO2 
 PCOD9484351
Probable space group: C M M M
;
_chemical_formula_sum "Si O2"
_cell_formula_units_Z 64
_cell_length_a 8.773241
_cell_length_b 19.211155
_cell_length_c 21.023334
_cell_angle_alpha 90.000000
_cell_angle_beta 90.000000
_cell_angle_gamma 90.000000
_cell_volume 3543.358755
_symmetry_space_group_name_H-M "C M M M"
_symmetry_group_IT_number 65
_symmetry_cell_setting 'orthorhombic'
loop_
_space_group_symop_operation_xyz
x,y,z
-x,-y,z
x,-y,-z
-x,y,-z
-x,-y,-z
x,y,-z
-x,y,z
x,-y,z
1/2+x,1/2+y,z
1/2-x,1/2-y,z
1/2+x,1/2-y,-z
1/2-x,1/2+y,-z
1/2-x,1/2-y,-z
1/2+x,1/2+y,-z
1/2-x,1/2+y,z
1/2+x,1/2-y,z
loop_
_atom_site_type_symbol
_atom_site_label
_atom_site_fract_x
_atom_site_fract_y
_atom_site_fract_z
Si Si1 0.316565 0.918892 0.388135
Si Si2 0.682413 0.171471 0.000000
Si Si3 0.180996 0.827415 0.130405
Si Si4 0.680988 0.326951 0.500000
Si Si5 0.319014 0.082636 0.241363
O O1 0.500000 0.913746 0.394852
O O2 0.237894 0.869169 0.438400
O O3 0.279229 0.901561 0.314811
O O4 0.276009 0.000000 0.399429
O O5 0.750000 0.250000 0.000000
O O6 0.745221 0.141035 0.065962
O O7 0.500000 0.173052 0.000000
O O8 0.250000 0.750000 0.138835
O O9 0.225607 0.873292 0.190865
O O10 0.000000 0.822104 0.122415
O O11 0.500000 0.322710 0.500000
O O12 0.750000 0.250000 0.500000
O O13 0.500000 0.096584 0.233146
O O14 0.296078 0.000000 0.232255
#
# Coordination Sequence:
#
# PCOD9484351 Si02
#       5
#    16   8  16   8  16
#     4   9  19  38  62  83 107 142 180 218 265 324
#     4  10  18  32  53  76 105 140 181 225 269 321
#     4  11  21  34  54  80 110 143 181 224 270 320
#     4  12  25  38  55  81 113 145 179 224 271 316
#     4   9  19  37  59  82 109 142 179 219 267 322
#
# _framework density 18.061958000000001
#
# number of rings (size 3 to 8) (size 9 to 14) (size 15 to 20)
#    0.000    2.000    0.000    7.875    0.000    4.500 
#    0.000    3.125    0.000    3.750    0.000    0.000 
#    0.000    0.000    0.000    0.000    0.000    0.000 
#
# Total GULP energy -178682.556506 kJ/mol
# GULP energy per Si atom -5583.829891 kJ/mol
# Density = 1.802085 g / cm^3
# Si number density = 18.061958 Si / 1000 Ang^3
#
#
#
# Elastic Constant Matrix: (Units=GPa)
#
#
# Indices 1 2 3 4 5 6 
#
# 1 133.0213 58.4708 92.3681 0.0000 0.0000 0.0000
# 2 58.4708 67.1339 83.8633 0.0000 0.0000 0.0000
# 3 92.3681 83.8633 154.4723 0.0000 0.0000 0.0000
# 4 0.0000 0.0000 0.0000 32.6865 0.0000 0.0000
# 5 0.0000 0.0000 0.0000 0.0000 35.9670 0.0000
# 6 0.0000 0.0000 0.0000 0.0000 0.0000 28.6023
#
#
#
# Elastic Compliance Matrix: (Units=1/GPa)
#
#
# Indices 1 2 3 4 5 6 
#
# 1 0.013408 -0.005166 -0.005213 0.000000 0.000000 0.000000
# 2 -0.005166 0.048277 -0.023121 0.000000 0.000000 0.000000
# 3 -0.005213 -0.023121 0.022143 0.000000 0.000000 0.000000
# 4 0.000000 0.000000 0.000000 0.030594 0.000000 0.000000
# 5 0.000000 0.000000 0.000000 0.000000 0.027803 0.000000
# 6 0.000000 0.000000 0.000000 0.000000 0.000000 0.034962
#
#
# Mechanical properties :
#
#
# Convention : Reuss Voigt Hill
#
# Bulk Modulus (GPa) = 59.42069 91.55910 75.48989
# Shear Modulus (GPa) = 20.01629 27.44618 23.73123
#
# Velocity S-wave (km/s) = 3.33258 3.90238 3.62868
# Velocity P-wave (km/s) = 6.91215 8.43247 7.70987
#
# Compressibility (1/GPa) = 0.01682916
#
# Stress axis : x y z
#
# Youngs Moduli (GPa) = 74.58180 20.71367 45.16098
#
# Poissons Ratio (x) = 0.10701 0.23542
# Poissons Ratio (y) = 0.38529 1.04416
# Poissons Ratio (z) = 0.38878 0.47892
#
# Static dielectric constant tensor:
#      x y z
#    x 1.603920 0.000000 0.000000 
#    y 0.000000 1.596790 0.000000 
#    z 0.000000 0.000000 1.634060 
# 
# From -- ./inp_files/58897.got.cif
#   From: 2010.05.17/outbox.cif.g08.bks.cpg/sg65_30_cif.got.tgz:58897.got - 2010.06.03 17:01:31.
