data_PCOD9484042
_publ_section_title
;
Structure prediction by ZEFSAII (Michael W. Deem and Ramdas Pophale) SiO2 
 PCOD9484042
Probable space group: C M M M
;
_chemical_formula_sum "Si O2"
_cell_formula_units_Z 88
_cell_length_a 31.581658
_cell_length_b 20.717546
_cell_length_c 7.650094
_cell_angle_alpha 90.000000
_cell_angle_beta 90.000000
_cell_angle_gamma 90.000000
_cell_volume 5005.414064
_symmetry_space_group_name_H-M "C M M M"
_symmetry_group_IT_number 65
_symmetry_cell_setting 'orthorhombic'
loop_
_space_group_symop_operation_xyz
x,y,z
-x,-y,z
x,-y,-z
-x,y,-z
-x,-y,-z
x,y,-z
-x,y,z
x,-y,z
1/2+x,1/2+y,z
1/2-x,1/2-y,z
1/2+x,1/2-y,-z
1/2-x,1/2+y,-z
1/2-x,1/2-y,-z
1/2+x,1/2+y,-z
1/2-x,1/2+y,z
1/2+x,1/2-y,z
loop_
_atom_site_type_symbol
_atom_site_label
_atom_site_fract_x
_atom_site_fract_y
_atom_site_fract_z
Si Si1 0.951044 0.500000 0.708327
Si Si2 0.369502 0.797336 0.785157
Si Si3 0.707674 0.287286 0.208367
Si Si4 0.266951 0.429652 0.290770
Si Si5 0.452244 0.143153 0.792223
Si Si6 0.668526 0.069045 0.204916
O O1 0.950870 0.500000 0.500000
O O2 0.934581 0.569971 0.766513
O O3 0.000000 0.500000 0.773038
O O4 0.336510 0.742918 0.726067
O O5 0.418314 0.804236 0.728085
O O6 0.349416 0.864954 0.723510
O O7 0.369898 0.795713 0.000000
O O8 0.750000 0.250000 0.276753
O O9 0.710521 0.363641 0.238302
O O10 0.708098 0.276285 0.000000
O O11 0.264054 0.429663 0.500000
O O12 0.284971 0.500000 0.236439
O O13 0.219255 0.426881 0.218363
O O14 0.500000 0.146478 0.717828
O O15 0.455584 0.151574 0.000000
O O16 0.655440 0.000000 0.284020
O O17 0.657344 0.067638 0.000000
#
# Coordination Sequence:
#
# PCOD9484042 Si02
#       6
#     8  16  16  16  16  16
#     4   9  17  29  43  59  83 115 149 187 225 255
#     4   9  17  28  44  65  85 109 145 185 217 252
#     4  10  18  31  48  65  86 115 148 180 214 256
#     4  10  20  32  45  63  89 117 144 180 220 257
#     4   9  17  29  45  63  83 110 145 183 222 261
#     4   9  16  27  43  60  81 115 153 184 213 248
#
# _framework density 17.580962
#
# number of rings (size 3 to 8) (size 9 to 14) (size 15 to 20)
#    0.000    2.636    1.818    0.818    1.273    2.545 
#    0.000    1.818    0.000    0.000    0.000    0.000 
#    0.000    0.727    0.000    9.091    0.000    1.455 
#
# Total GULP energy -245149.922535 kJ/mol
# GULP energy per Si atom -5571.589149 kJ/mol
# Density = 1.754095 g / cm^3
# Si number density = 17.580962 Si / 1000 Ang^3
#
#
#
# Elastic Constant Matrix: (Units=GPa)
#
#
# Indices 1 2 3 4 5 6 
#
# 1 102.8139 71.0696 6.6671 0.0000 0.0000 0.0000
# 2 71.0696 109.6227 -6.4487 0.0000 0.0000 0.0000
# 3 6.6671 -6.4487 33.3077 0.0000 0.0000 0.0000
# 4 0.0000 0.0000 0.0000 328.1193 0.0000 0.0000
# 5 0.0000 0.0000 0.0000 0.0000 -24.2724 0.0000
# 6 0.0000 0.0000 0.0000 0.0000 0.0000 42.4469
#
#
#
# Elastic Compliance Matrix: (Units=1/GPa)
#
#
# Indices 1 2 3 4 5 6 
#
# 1 0.018809 -0.012559 -0.006197 0.000000 0.000000 0.000000
# 2 -0.012559 0.017613 0.005924 0.000000 0.000000 0.000000
# 3 -0.006197 0.005924 0.032410 0.000000 0.000000 0.000000
# 4 0.000000 0.000000 0.000000 0.003048 0.000000 0.000000
# 5 0.000000 0.000000 0.000000 0.000000 -0.041199 0.000000
# 6 0.000000 0.000000 0.000000 0.000000 0.000000 0.023559
#
#
# Mechanical properties :
#
#
# Convention : Reuss Voigt Hill
#
# Bulk Modulus (GPa) = 23.16454 43.14672 33.15563
# Shear Modulus (GPa) = 53.02629 80.88917 66.95773
#
# Velocity S-wave (km/s) = 5.49788 6.79039 6.17803
# Velocity P-wave (km/s) = 7.31483 9.27762 8.35407
#
# Compressibility (1/GPa) = 0.04316943
#
# Stress axis : x y z
#
# Youngs Moduli (GPa) = 53.16497 56.77713 30.85430
#
# Poissons Ratio (x) = 0.71306 0.19119
# Poissons Ratio (y) = 0.66769 -0.18278
# Poissons Ratio (z) = 0.32944 -0.33634
#
# Static dielectric constant tensor:
#      x y z
#    x 1.651880 0.000000 0.000000 
#    y 0.000000 1.572200 0.000000 
#    z 0.000000 0.000000 1.643260 
# 
# From -- ./inp_files/18514.got.cif
#   From: 2010.05.17/outbox.cif.g08.bks.cpg/sg65_10_cif.got.tgz:18514.got - 2010.06.03 17:01:31.
