data_PCOD9484137
_publ_section_title
;
Structure prediction by ZEFSAII (Michael W. Deem and Ramdas Pophale) SiO2 
 PCOD9484137
Probable space group: C M M M
;
_chemical_formula_sum "Si O2"
_cell_formula_units_Z 116
_cell_length_a 26.247555
_cell_length_b 29.269276
_cell_length_c 8.928037
_cell_angle_alpha 90.000000
_cell_angle_beta 90.000000
_cell_angle_gamma 90.000000
_cell_volume 6858.937031
_symmetry_space_group_name_H-M "C M M M"
_symmetry_group_IT_number 65
_symmetry_cell_setting 'orthorhombic'
loop_
_space_group_symop_operation_xyz
x,y,z
-x,-y,z
x,-y,-z
-x,y,-z
-x,-y,-z
x,y,-z
-x,y,z
x,-y,z
1/2+x,1/2+y,z
1/2-x,1/2-y,z
1/2+x,1/2-y,-z
1/2-x,1/2+y,-z
1/2-x,1/2-y,-z
1/2+x,1/2+y,-z
1/2-x,1/2+y,z
1/2+x,1/2-y,z
loop_
_atom_site_type_symbol
_atom_site_label
_atom_site_fract_x
_atom_site_fract_y
_atom_site_fract_z
Si Si1 0.000000 0.173564 0.500000
Si Si2 0.882763 0.291092 0.681981
Si Si3 0.686451 0.630672 0.823180
Si Si4 0.441302 0.119506 0.681389
Si Si5 0.643019 0.945838 0.178533
Si Si6 0.266891 0.802805 0.325117
Si Si7 0.751368 0.946290 0.678098
Si Si8 0.603580 0.687830 0.666447
O O1 0.954438 0.175967 0.372158
O O2 0.884997 0.289484 0.500000
O O3 0.922655 0.329798 0.728185
O O4 0.825662 0.305735 0.723503
O O5 0.892986 0.239173 0.730983
O O6 0.729465 0.666990 0.772851
O O7 0.703555 0.583860 0.745085
O O8 0.633609 0.651380 0.763730
O O9 0.685849 0.625225 0.000000
O O10 0.437904 0.117015 0.500000
O O11 0.500000 0.111715 0.723757
O O12 0.402560 0.083239 0.751256
O O13 0.697290 0.932115 0.249752
O O14 0.635940 0.000000 0.209346
O O15 0.644911 0.939520 0.000000
O O16 0.263874 0.817158 0.500000
O O17 0.250000 0.750000 0.317690
O O18 0.748378 0.940198 0.500000
O O19 0.758401 0.000000 0.710424
O O20 0.629943 0.689096 0.500000
#
# Coordination Sequence:
#
# PCOD9484137 Si02
#       8
#     4  16  16  16  16  16  16  16
#     4   8  20  32  66  78 101 142 195 248 262 314
#     4   9  17  30  51  75 105 138 184 235 278 324
#     4  12  23  34  53  84 123 154 181 222 277 346
#     4  10  21  33  51  77 103 140 193 247 289 328
#     4  10  21  38  57  77 105 141 181 227 289 353
#     4  10  18  31  51  77 107 151 191 231 276 325
#     4  10  21  38  62  88 113 144 182 224 272 330
#     4   9  18  35  56  81 100 145 192 229 271 315
#
# _framework density 16.912241999999999
#
# number of rings (size 3 to 8) (size 9 to 14) (size 15 to 20)
#    0.414    1.655    1.379    2.897    0.966    3.586 
#    0.000    2.414    0.000    0.000    0.000    0.966 
#    0.000    1.103    0.000    0.000    0.000    0.000 
#
# Total GULP energy -323019.092603 kJ/mol
# GULP energy per Si atom -5569.294700 kJ/mol
# Density = 1.687375 g / cm^3
# Si number density = 16.912242 Si / 1000 Ang^3
#
#
#
# Elastic Constant Matrix: (Units=GPa)
#
#
# Indices 1 2 3 4 5 6 
#
# 1 134.6424 61.0760 40.9395 0.0000 0.0000 0.0000
# 2 61.0760 78.7283 35.2433 0.0000 0.0000 0.0000
# 3 40.9395 35.2433 46.0020 0.0000 0.0000 0.0000
# 4 0.0000 0.0000 0.0000 12.2372 0.0000 0.0000
# 5 0.0000 0.0000 0.0000 0.0000 6.0026 0.0000
# 6 0.0000 0.0000 0.0000 0.0000 0.0000 19.6881
#
#
#
# Elastic Compliance Matrix: (Units=1/GPa)
#
#
# Indices 1 2 3 4 5 6 
#
# 1 0.012324 -0.007079 -0.005545 0.000000 0.000000 0.000000
# 2 -0.007079 0.023398 -0.011626 0.000000 0.000000 0.000000
# 3 -0.005545 -0.011626 0.035580 0.000000 0.000000 0.000000
# 4 0.000000 0.000000 0.000000 0.081718 0.000000 0.000000
# 5 0.000000 0.000000 0.000000 0.000000 0.166595 0.000000
# 6 0.000000 0.000000 0.000000 0.000000 0.000000 0.050792
#
#
# Mechanical properties :
#
#
# Convention : Reuss Voigt Hill
#
# Bulk Modulus (GPa) = 43.85412 59.32113 51.58762
# Shear Modulus (GPa) = 11.72315 15.72650 13.72483
#
# Velocity S-wave (km/s) = 2.63568 3.05272 2.85183
# Velocity P-wave (km/s) = 5.93709 6.89764 6.43531
#
# Compressibility (1/GPa) = 0.02280288
#
# Stress axis : x y z
#
# Youngs Moduli (GPa) = 81.14278 42.73892 28.10598
#
# Poissons Ratio (x) = 0.30253 0.15584
# Poissons Ratio (y) = 0.57438 0.32676
# Poissons Ratio (z) = 0.44990 0.49689
#
# Static dielectric constant tensor:
#      x y z
#    x 1.551550 0.000000 0.000000 
#    y 0.000000 1.584860 0.000000 
#    z 0.000000 0.000000 1.574270 
# 
# From -- ./inp_files/17299.got.cif
#   From: 2010.05.17/outbox.cif.g08.bks.cpg/sg65_9_cif.got.tgz:17299.got - 2010.06.03 17:01:31.
