data_PCOD9484126
_publ_section_title
;
Structure prediction by ZEFSAII (Michael W. Deem and Ramdas Pophale) SiO2 
 PCOD9484126
Probable space group: C M M M
;
_chemical_formula_sum "Si O2"
_cell_formula_units_Z 104
_cell_length_a 29.842378
_cell_length_b 9.172859
_cell_length_c 23.365294
_cell_angle_alpha 90.000000
_cell_angle_beta 90.000000
_cell_angle_gamma 90.000000
_cell_volume 6396.013842
_symmetry_space_group_name_H-M "C M M M"
_symmetry_group_IT_number 65
_symmetry_cell_setting 'orthorhombic'
loop_
_space_group_symop_operation_xyz
x,y,z
-x,-y,z
x,-y,-z
-x,y,-z
-x,-y,-z
x,y,-z
-x,y,z
x,-y,z
1/2+x,1/2+y,z
1/2-x,1/2-y,z
1/2+x,1/2-y,-z
1/2-x,1/2+y,-z
1/2-x,1/2-y,-z
1/2+x,1/2+y,-z
1/2-x,1/2+y,z
1/2+x,1/2-y,z
loop_
_atom_site_type_symbol
_atom_site_label
_atom_site_fract_x
_atom_site_fract_y
_atom_site_fract_z
Si Si1 0.893242 0.323392 0.113315
Si Si2 0.203581 0.674772 0.067476
Si Si3 0.946310 0.668078 0.665697
Si Si4 0.448617 0.176888 0.000000
Si Si5 0.293431 0.333952 0.569552
Si Si6 0.606580 0.676569 0.433095
Si Si7 0.446931 0.325519 0.215414
O O1 0.895734 0.500000 0.119244
O O2 0.841237 0.284316 0.102038
O O3 0.921572 0.281240 0.056777
O O4 0.916291 0.246570 0.166963
O O5 0.208486 0.500000 0.071327
O O6 0.250000 0.750000 0.085502
O O7 0.196196 0.709883 0.000000
O O8 0.931243 0.500000 0.669508
O O9 0.926566 0.746708 0.610248
O O10 0.934844 0.756288 0.723235
O O11 0.000000 0.668385 0.661589
O O12 0.500000 0.229140 0.000000
O O13 0.449822 0.000000 0.000000
O O14 0.291809 0.335349 0.500000
O O15 0.290958 0.500000 0.589160
O O16 0.250000 0.250000 0.590589
O O17 0.342749 0.275880 0.583052
O O18 0.598558 0.711995 0.500000
O O19 0.604583 0.500000 0.428508
O O20 0.500000 0.293556 0.204596
O O21 0.441805 0.500000 0.216631
#
# Coordination Sequence:
#
# PCOD9484126 Si02
#       7
#    16  16  16   8  16  16  16
#     4  10  18  31  51  75 101 131 169 208 246 291
#     4   9  17  30  48  72 102 134 170 209 248 295
#     4  10  21  36  53  73  97 128 169 212 250 293
#     4   9  16  26  44  71 101 131 161 197 242 289
#     4   8  14  25  42  66  96 128 160 192 229 279
#     4   9  18  32  50  74 104 135 165 200 248 303
#     4  10  21  36  53  73  98 130 167 205 249 304
#
# _framework density 16.260127000000001
#
# number of rings (size 3 to 8) (size 9 to 14) (size 15 to 20)
#    0.000    2.692    0.769    2.308    0.000    4.308 
#    0.000    3.462    0.000    2.308    0.000    6.462 
#    0.000    0.000    0.000    0.000    0.000    0.000 
#
# Total GULP energy -289735.230597 kJ/mol
# GULP energy per Si atom -5571.831358 kJ/mol
# Density = 1.622312 g / cm^3
# Si number density = 16.260127 Si / 1000 Ang^3
#
#
#
# Elastic Constant Matrix: (Units=GPa)
#
#
# Indices 1 2 3 4 5 6 
#
# 1 101.1871 48.3627 68.0011 0.0000 0.0000 0.0000
# 2 48.3627 49.2922 49.8250 0.0000 0.0000 0.0000
# 3 68.0011 49.8250 105.8573 0.0000 0.0000 0.0000
# 4 0.0000 0.0000 0.0000 23.7252 0.0000 0.0000
# 5 0.0000 0.0000 0.0000 0.0000 3.8060 0.0000
# 6 0.0000 0.0000 0.0000 0.0000 0.0000 29.6142
#
#
#
# Elastic Compliance Matrix: (Units=1/GPa)
#
#
# Indices 1 2 3 4 5 6 
#
# 1 0.021208 -0.013424 -0.007305 0.000000 0.000000 0.000000
# 2 -0.013424 0.047196 -0.013591 0.000000 0.000000 0.000000
# 3 -0.007305 -0.013591 0.020536 0.000000 0.000000 0.000000
# 4 0.000000 0.000000 0.000000 0.042149 0.000000 0.000000
# 5 0.000000 0.000000 0.000000 0.000000 0.262740 0.000000
# 6 0.000000 0.000000 0.000000 0.000000 0.000000 0.033768
#
#
# Mechanical properties :
#
#
# Convention : Reuss Voigt Hill
#
# Bulk Modulus (GPa) = 49.26083 65.41268 57.33675
# Shear Modulus (GPa) = 9.94028 17.43896 13.68962
#
# Velocity S-wave (km/s) = 2.47519 3.27846 2.90472
# Velocity P-wave (km/s) = 6.20725 7.39238 6.82559
#
# Compressibility (1/GPa) = 0.02030011
#
# Stress axis : x y z
#
# Youngs Moduli (GPa) = 47.15176 21.18846 48.69381
#
# Poissons Ratio (x) = 0.28443 0.35573
# Poissons Ratio (y) = 0.63295 0.66179
# Poissons Ratio (z) = 0.34446 0.28797
#
# Static dielectric constant tensor:
#      x y z
#    x 1.552680 0.000000 0.000000 
#    y 0.000000 1.548700 0.000000 
#    z 0.000000 0.000000 1.515200 
# 
# From -- ./inp_files/66392.got.cif
#   From: 2010.05.17/outbox.cif.g08.bks.cpg/sg65_34_cif.got.tgz:66392.got - 2010.06.03 17:01:31.
