data_PCOD9484294
_publ_section_title
;
Structure prediction by ZEFSAII (Michael W. Deem and Ramdas Pophale) SiO2 
 PCOD9484294
Probable space group: C M M M
;
_chemical_formula_sum "Si O2"
_cell_formula_units_Z 72
_cell_length_a 34.546191
_cell_length_b 8.672838
_cell_length_c 15.916733
_cell_angle_alpha 90.000000
_cell_angle_beta 90.000000
_cell_angle_gamma 90.000000
_cell_volume 4768.868370
_symmetry_space_group_name_H-M "C M M M"
_symmetry_group_IT_number 65
_symmetry_cell_setting 'orthorhombic'
loop_
_space_group_symop_operation_xyz
x,y,z
-x,-y,z
x,-y,-z
-x,y,-z
-x,-y,-z
x,y,-z
-x,y,z
x,-y,z
1/2+x,1/2+y,z
1/2-x,1/2-y,z
1/2+x,1/2-y,-z
1/2-x,1/2+y,-z
1/2-x,1/2-y,-z
1/2+x,1/2+y,-z
1/2-x,1/2+y,z
1/2+x,1/2-y,z
loop_
_atom_site_type_symbol
_atom_site_label
_atom_site_fract_x
_atom_site_fract_y
_atom_site_fract_z
Si Si1 0.206927 0.185523 0.000000
Si Si2 0.839719 0.814943 0.167111
Si Si3 0.293684 0.184248 0.324640
Si Si4 0.500000 0.677970 0.898085
Si Si5 0.206203 0.184601 0.500000
Si Si6 0.917756 0.684246 0.900861
O O1 0.250000 0.250000 0.000000
O O2 0.184070 0.233325 0.916334
O O3 0.208504 0.000000 0.000000
O O4 0.819902 0.737925 0.247388
O O5 0.883602 0.762670 0.151246
O O6 0.837629 0.000000 0.174752
O O7 0.250000 0.250000 0.312975
O O8 0.310063 0.251543 0.412432
O O9 0.291335 0.000000 0.329626
O O10 0.500000 0.500000 0.871502
O O11 0.539725 0.760754 0.872844
O O12 0.500000 0.681298 0.000000
O O13 0.250000 0.250000 0.500000
O O14 0.206575 0.000000 0.500000
O O15 0.914999 0.500000 0.895109
O O16 0.913109 0.727126 0.000000
#
# Coordination Sequence:
#
# PCOD9484294 Si02
#       6
#     8  16  16   8   8  16
#     4  10  22  34  46  61  86 123 164 202 235 272
#     4  11  21  34  48  67  93 127 164 201 239 283
#     4  11  21  34  50  71  95 124 159 200 244 289
#     4   9  17  29  47  67  89 120 155 194 237 285
#     4  10  18  32  52  72  92 119 152 195 244 292
#     4  10  19  31  47  68  93 123 158 198 240 284
#
# _framework density 15.097920999999999
#
# number of rings (size 3 to 8) (size 9 to 14) (size 15 to 20)
#    0.000    1.667    1.111    6.667    0.000    5.778 
#    0.000    0.000    0.000    0.000    0.000    0.000 
#    0.000    0.889    0.000    8.889    0.000    5.333 
#
# Total GULP energy -200946.561826 kJ/mol
# GULP energy per Si atom -5581.848940 kJ/mol
# Density = 1.506356 g / cm^3
# Si number density = 15.097921 Si / 1000 Ang^3
#
#
#
# Elastic Constant Matrix: (Units=GPa)
#
#
# Indices 1 2 3 4 5 6 
#
# 1 104.6542 39.0168 53.2181 0.0000 0.0000 0.0000
# 2 39.0168 103.1163 51.5918 0.0000 0.0000 0.0000
# 3 53.2181 51.5918 118.3899 0.0000 0.0000 0.0000
# 4 0.0000 0.0000 0.0000 22.1687 0.0000 0.0000
# 5 0.0000 0.0000 0.0000 0.0000 4.4273 0.0000
# 6 0.0000 0.0000 0.0000 0.0000 0.0000 28.6144
#
#
#
# Elastic Compliance Matrix: (Units=1/GPa)
#
#
# Indices 1 2 3 4 5 6 
#
# 1 0.012882 -0.002528 -0.004689 0.000000 0.000000 0.000000
# 2 -0.002528 0.012898 -0.004484 0.000000 0.000000 0.000000
# 3 -0.004689 -0.004484 0.012509 0.000000 0.000000 0.000000
# 4 0.000000 0.000000 0.000000 0.045109 0.000000 0.000000
# 5 0.000000 0.000000 0.000000 0.000000 0.225872 0.000000
# 6 0.000000 0.000000 0.000000 0.000000 0.000000 0.034947
#
#
# Mechanical properties :
#
#
# Convention : Reuss Voigt Hill
#
# Bulk Modulus (GPa) = 67.17778 68.20153 67.68966
# Shear Modulus (GPa) = 13.41989 23.19766 18.30877
#
# Velocity S-wave (km/s) = 2.98460 3.92405 3.48612
# Velocity P-wave (km/s) = 7.51455 8.11183 7.81889
#
# Compressibility (1/GPa) = 0.01488587
#
# Stress axis : x y z
#
# Youngs Moduli (GPa) = 77.62583 77.53152 79.94542
#
# Poissons Ratio (x) = 0.19603 0.37486
# Poissons Ratio (y) = 0.19626 0.35849
# Poissons Ratio (z) = 0.36399 0.34766
#
# Static dielectric constant tensor:
#      x y z
#    x 1.488840 0.000000 0.000000 
#    y 0.000000 1.505530 0.000000 
#    z 0.000000 0.000000 1.506340 
# 
# From -- ./inp_files/47538.got.cif
#   From: 2010.05.17/outbox.cif.g08.bks.cpg/sg65_24_cif.got.tgz:47538.got - 2010.06.03 17:01:31.
