data_PCOD9484700
_publ_section_title
;
Structure prediction by ZEFSAII (Michael W. Deem and Ramdas Pophale) SiO2 
 PCOD9484700
Probable space group: C M M M
;
_chemical_formula_sum "Si O2"
_cell_formula_units_Z 88
_cell_length_a 8.983193
_cell_length_b 36.975534
_cell_length_c 20.093289
_cell_angle_alpha 90.000000
_cell_angle_beta 90.000000
_cell_angle_gamma 90.000000
_cell_volume 6674.153885
_symmetry_space_group_name_H-M "C M M M"
_symmetry_group_IT_number 65
_symmetry_cell_setting 'orthorhombic'
loop_
_space_group_symop_operation_xyz
x,y,z
-x,-y,z
x,-y,-z
-x,y,-z
-x,-y,-z
x,y,-z
-x,y,z
x,-y,z
1/2+x,1/2+y,z
1/2-x,1/2-y,z
1/2+x,1/2-y,-z
1/2-x,1/2+y,-z
1/2-x,1/2-y,-z
1/2+x,1/2+y,-z
1/2-x,1/2+y,z
1/2+x,1/2-y,z
loop_
_atom_site_type_symbol
_atom_site_label
_atom_site_fract_x
_atom_site_fract_y
_atom_site_fract_z
Si Si1 0.173837 0.043840 0.426327
Si Si2 0.171249 0.786836 0.080861
Si Si3 0.177091 0.543033 0.710567
Si Si4 0.322018 0.862559 0.078679
Si Si5 0.680789 0.500000 0.075929
Si Si6 0.679100 0.571371 0.157591
O O1 0.223127 0.056268 0.500000
O O2 0.268450 0.055008 0.362528
O O3 0.000000 0.053572 0.417672
O O4 0.180045 0.000000 0.427591
O O5 0.250000 0.750000 0.103950
O O6 0.259628 0.823176 0.098352
O O7 0.000000 0.788622 0.102845
O O8 0.170469 0.785518 0.000000
O O9 0.213311 0.500000 0.717817
O O10 0.259648 0.564627 0.768564
O O11 0.000000 0.546836 0.716606
O O12 0.500000 0.863441 0.085616
O O13 0.246487 0.893554 0.122335
O O14 0.286534 0.868198 0.000000
O O15 0.500000 0.500000 0.074535
O O16 0.725824 0.536062 0.114791
O O17 0.734239 0.500000 0.000000
O O18 0.500000 0.573302 0.158058
#
# Coordination Sequence:
#
# PCOD9484700 Si02
#       6
#    16  16  16  16   8  16
#     4   8  14  25  41  59  77  97 124 158 195 237
#     4   9  16  27  44  64  83 103 127 157 196 243
#     4  10  19  29  41  57  79 103 130 165 205 248
#     4  10  20  32  44  60  82 105 131 168 211 252
#     4   9  18  30  43  57  70  91 130 177 217 250
#     4  11  20  31  45  58  76 103 137 175 211 249
#
# _framework density 13.185192000000001
#
# number of rings (size 3 to 8) (size 9 to 14) (size 15 to 20)
#    0.000    2.455    0.909    3.273    0.000    5.091 
#    0.000    1.818    0.000    2.182    0.000    0.000 
#    0.000    0.000    0.000    0.000    0.000    0.909 
#
# Total GULP energy -245216.856254 kJ/mol
# GULP energy per Si atom -5573.110369 kJ/mol
# Density = 1.315518 g / cm^3
# Si number density = 13.185192 Si / 1000 Ang^3
#
#
#
# Elastic Constant Matrix: (Units=GPa)
#
#
# Indices 1 2 3 4 5 6 
#
# 1 66.7866 44.4204 45.4621 0.0000 0.0000 0.0000
# 2 44.4204 91.3436 47.2478 0.0000 0.0000 0.0000
# 3 45.4621 47.2478 92.0731 0.0000 0.0000 0.0000
# 4 0.0000 0.0000 0.0000 2.1351 0.0000 0.0000
# 5 0.0000 0.0000 0.0000 0.0000 18.3854 0.0000
# 6 0.0000 0.0000 0.0000 0.0000 0.0000 20.8117
#
#
#
# Elastic Compliance Matrix: (Units=1/GPa)
#
#
# Indices 1 2 3 4 5 6 
#
# 1 0.026519 -0.008336 -0.008816 0.000000 0.000000 0.000000
# 2 -0.008336 0.017524 -0.004877 0.000000 0.000000 0.000000
# 3 -0.008816 -0.004877 0.017716 0.000000 0.000000 0.000000
# 4 0.000000 0.000000 0.000000 0.468365 0.000000 0.000000
# 5 0.000000 0.000000 0.000000 0.000000 0.054391 0.000000
# 6 0.000000 0.000000 0.000000 0.000000 0.000000 0.048050
#
#
# Mechanical properties :
#
#
# Convention : Reuss Voigt Hill
#
# Bulk Modulus (GPa) = 56.49188 58.27378 57.38283
# Shear Modulus (GPa) = 7.32577 15.80464 11.56520
#
# Velocity S-wave (km/s) = 2.35969 3.46593 2.96486
# Velocity P-wave (km/s) = 7.09663 7.76590 7.43880
#
# Compressibility (1/GPa) = 0.01770166
#
# Stress axis : x y z
#
# Youngs Moduli (GPa) = 37.70951 57.06544 56.44456
#
# Poissons Ratio (x) = 0.47568 0.49763
# Poissons Ratio (y) = 0.31434 0.27526
# Poissons Ratio (z) = 0.33246 0.27828
#
# Static dielectric constant tensor:
#      x y z
#    x 1.437280 0.000000 0.000000 
#    y 0.000000 1.408650 0.000000 
#    z 0.000000 0.000000 1.426860 
# 
# From -- ./inp_files/60660.got.cif
#   From: 2010.05.17/outbox.cif.g08.bks.cpg/sg65_31_cif.got.tgz:60660.got - 2010.06.03 17:01:31.
