data_PCOD9484707
_publ_section_title
;
Structure prediction by ZEFSAII (Michael W. Deem and Ramdas Pophale) SiO2 
 PCOD9484707
Probable space group: C M M M
;
_chemical_formula_sum "Si O2"
_cell_formula_units_Z 96
_cell_length_a 9.238737
_cell_length_b 26.083662
_cell_length_c 28.120265
_cell_angle_alpha 90.000000
_cell_angle_beta 90.000000
_cell_angle_gamma 90.000000
_cell_volume 6776.424081
_symmetry_space_group_name_H-M "C M M M"
_symmetry_group_IT_number 65
_symmetry_cell_setting 'orthorhombic'
loop_
_space_group_symop_operation_xyz
x,y,z
-x,-y,z
x,-y,-z
-x,y,-z
-x,-y,-z
x,y,-z
-x,y,z
x,-y,z
1/2+x,1/2+y,z
1/2-x,1/2-y,z
1/2+x,1/2-y,-z
1/2-x,1/2+y,-z
1/2-x,1/2-y,-z
1/2+x,1/2+y,-z
1/2-x,1/2+y,z
1/2+x,1/2-y,z
loop_
_atom_site_type_symbol
_atom_site_label
_atom_site_fract_x
_atom_site_fract_y
_atom_site_fract_z
Si Si1 0.825927 0.906719 0.109870
Si Si2 0.832971 0.437439 0.500000
Si Si3 0.327037 0.697505 0.055298
Si Si4 0.668433 0.562258 0.699848
Si Si5 0.670060 0.062021 0.795265
Si Si6 0.830721 0.937819 0.405731
Si Si7 0.670149 0.000000 0.057000
O O1 0.791389 0.851504 0.087250
O O2 0.761927 0.913107 0.162522
O O3 0.000000 0.913611 0.109729
O O4 0.749843 0.950520 0.078379
O O5 0.824746 0.500000 0.500000
O O6 0.756518 0.419570 0.548442
O O7 0.000000 0.423158 0.500000
O O8 0.500000 0.704695 0.056998
O O9 0.250000 0.750000 0.070057
O O10 0.287277 0.687213 0.000000
O O11 0.500000 0.577102 0.706714
O O12 0.670465 0.500000 0.699239
O O13 0.766918 0.577970 0.743999
O O14 0.716892 0.579226 0.647056
O O15 0.500000 0.073672 0.799451
O O16 0.685961 0.000000 0.799400
O O17 0.000000 0.925187 0.410941
O O18 0.820993 0.000000 0.405725
O O19 0.500000 0.000000 0.070876
O O20 0.679049 0.000000 0.000000
#
# Coordination Sequence:
#
# PCOD9484707 Si02
#       7
#    16   8  16  16  16  16   8
#     4  11  21  33  50  68  89 116 144 173 205 250
#     4   9  15  19  25  39  59  81 109 151 200 245
#     4   9  19  35  53  72  90 110 139 172 208 249
#     4   8  14  24  37  50  66  92 128 163 200 245
#     4  10  19  29  41  59  84 109 136 170 208 249
#     4   8  13  21  31  42  57  82 116 155 196 241
#     4  11  23  35  47  67  93 117 141 170 209 252
#
# _framework density 14.166763
#
# number of rings (size 3 to 8) (size 9 to 14) (size 15 to 20)
#    0.000    2.667    0.833    3.000    0.000    5.000 
#    0.000    5.000    0.000    0.000    0.000    0.000 
#    0.000    0.000    0.000    0.000    0.000    0.000 
#
# Total GULP energy -267355.433720 kJ/mol
# GULP energy per Si atom -5569.904869 kJ/mol
# Density = 1.413452 g / cm^3
# Si number density = 14.166763 Si / 1000 Ang^3
#
#
#
# Elastic Constant Matrix: (Units=GPa)
#
#
# Indices 1 2 3 4 5 6 
#
# 1 78.8531 40.2306 73.4886 0.0000 0.0000 0.0000
# 2 40.2306 55.5637 45.5886 0.0000 0.0000 0.0000
# 3 73.4886 45.5886 133.8219 0.0000 0.0000 0.0000
# 4 0.0000 0.0000 0.0000 6.5869 0.0000 0.0000
# 5 0.0000 0.0000 0.0000 0.0000 20.5454 0.0000
# 6 0.0000 0.0000 0.0000 0.0000 0.0000 15.0188
#
#
#
# Elastic Compliance Matrix: (Units=1/GPa)
#
#
# Indices 1 2 3 4 5 6 
#
# 1 0.030554 -0.011598 -0.012828 0.000000 0.000000 0.000000
# 2 -0.011598 0.029381 -0.003640 0.000000 0.000000 0.000000
# 3 -0.012828 -0.003640 0.015757 0.000000 0.000000 0.000000
# 4 0.000000 0.000000 0.000000 0.151816 0.000000 0.000000
# 5 0.000000 0.000000 0.000000 0.000000 0.048673 0.000000
# 6 0.000000 0.000000 0.000000 0.000000 0.000000 0.066583
#
#
# Mechanical properties :
#
#
# Convention : Reuss Voigt Hill
#
# Bulk Modulus (GPa) = 51.12231 65.20600 58.16416
# Shear Modulus (GPa) = 12.33299 15.69229 14.01264
#
# Velocity S-wave (km/s) = 2.95372 3.33180 3.14844
# Velocity P-wave (km/s) = 6.91354 7.80567 7.37311
#
# Compressibility (1/GPa) = 0.01956093
#
# Stress axis : x y z
#
# Youngs Moduli (GPa) = 32.72884 34.03514 63.46273
#
# Poissons Ratio (x) = 0.39472 0.81410
# Poissons Ratio (y) = 0.37957 0.23103
# Poissons Ratio (z) = 0.41984 0.12390
#
# Static dielectric constant tensor:
#      x y z
#    x 1.469490 0.000000 0.000000 
#    y 0.000000 1.428320 0.000000 
#    z 0.000000 0.000000 1.487040 
# 
# From -- ./inp_files/73523.got.cif
#   From: 2010.05.17/outbox.cif.g08.bks.cpg/sg65_37_cif.got.tgz:73523.got - 2010.06.03 17:01:31.
