data_PCOD9484279
_publ_section_title
;
Structure prediction by ZEFSAII (Michael W. Deem and Ramdas Pophale) SiO2 
 PCOD9484279
Probable space group: C M M M
;
_chemical_formula_sum "Si O2"
_cell_formula_units_Z 112
_cell_length_a 29.513140
_cell_length_b 14.361169
_cell_length_c 15.827440
_cell_angle_alpha 90.000000
_cell_angle_beta 90.000000
_cell_angle_gamma 90.000000
_cell_volume 6708.352679
_symmetry_space_group_name_H-M "C M M M"
_symmetry_group_IT_number 65
_symmetry_cell_setting 'orthorhombic'
loop_
_space_group_symop_operation_xyz
x,y,z
-x,-y,z
x,-y,-z
-x,y,-z
-x,-y,-z
x,y,-z
-x,y,z
x,-y,z
1/2+x,1/2+y,z
1/2-x,1/2-y,z
1/2+x,1/2-y,-z
1/2-x,1/2+y,-z
1/2-x,1/2-y,-z
1/2+x,1/2+y,-z
1/2-x,1/2+y,z
1/2+x,1/2-y,z
loop_
_atom_site_type_symbol
_atom_site_label
_atom_site_fract_x
_atom_site_fract_y
_atom_site_fract_z
Si Si1 0.302476 0.278533 0.591253
Si Si2 0.448464 0.208610 0.094682
Si Si3 0.203279 0.889454 0.763616
Si Si4 0.305033 0.106018 0.172702
Si Si5 0.858303 0.606942 0.350144
Si Si6 0.549767 0.888654 0.271920
Si Si7 0.850636 0.784629 0.095173
O O1 0.312275 0.324045 0.500000
O O2 0.250000 0.250000 0.591870
O O3 0.308211 0.340021 0.675059
O O4 0.331319 0.183868 0.598439
O O5 0.500000 0.248001 0.100115
O O6 0.443587 0.140855 0.174570
O O7 0.405101 0.275589 0.101393
O O8 0.445107 0.165700 0.000000
O O9 0.254275 0.867612 0.797136
O O10 0.169350 0.852312 0.834634
O O11 0.201251 0.000000 0.753185
O O12 0.334641 0.104271 0.258113
O O13 0.327722 0.183539 0.113569
O O14 0.304288 0.000000 0.138119
O O15 0.857523 0.500000 0.382903
O O16 0.909290 0.640795 0.331719
O O17 0.500000 0.854951 0.298353
O O18 0.550310 0.000000 0.274400
O O19 0.838915 0.813676 0.000000
#
# Coordination Sequence:
#
# PCOD9484279 Si02
#       7
#    16  16  16  16  16  16  16
#     4  11  21  34  54  78 102 131 169 207 251 306
#     4   9  17  28  43  66  96 127 162 209 259 302
#     4  11  22  37  53  71 102 135 170 216 259 297
#     4  10  19  32  50  72 102 140 170 200 244 294
#     4  10  18  32  51  73 105 137 165 200 245 296
#     4   9  16  26  44  69  97 133 172 203 236 288
#     4  11  21  34  53  74 100 136 176 213 253 298
#
# _framework density 16.695603999999999
#
# number of rings (size 3 to 8) (size 9 to 14) (size 15 to 20)
#    0.000    1.857    4.286    0.429    0.000    2.571 
#    0.000    5.714    0.000    0.857    0.000    4.000 
#    0.000    0.000    0.000    6.000    0.000    0.143 
#
# Total GULP energy -311955.459670 kJ/mol
# GULP energy per Si atom -5570.633208 kJ/mol
# Density = 1.665760 g / cm^3
# Si number density = 16.695604 Si / 1000 Ang^3
#
#
#
# Elastic Constant Matrix: (Units=GPa)
#
#
# Indices 1 2 3 4 5 6 
#
# 1 114.6682 33.3842 42.5368 0.0000 0.0000 0.0000
# 2 33.3842 54.5048 32.2288 0.0000 0.0000 0.0000
# 3 42.5368 32.2288 94.8576 0.0000 0.0000 0.0000
# 4 0.0000 0.0000 0.0000 13.0181 0.0000 0.0000
# 5 0.0000 0.0000 0.0000 0.0000 55.2984 0.0000
# 6 0.0000 0.0000 0.0000 0.0000 0.0000 17.7038
#
#
#
# Elastic Compliance Matrix: (Units=1/GPa)
#
#
# Indices 1 2 3 4 5 6 
#
# 1 0.011446 -0.004975 -0.003442 0.000000 0.000000 0.000000
# 2 -0.004975 0.025122 -0.006304 0.000000 0.000000 0.000000
# 3 -0.003442 -0.006304 0.014228 0.000000 0.000000 0.000000
# 4 0.000000 0.000000 0.000000 0.076816 0.000000 0.000000
# 5 0.000000 0.000000 0.000000 0.000000 0.018084 0.000000
# 6 0.000000 0.000000 0.000000 0.000000 0.000000 0.056485
#
#
# Mechanical properties :
#
#
# Convention : Reuss Voigt Hill
#
# Bulk Modulus (GPa) = 46.83420 53.37002 50.10211
# Shear Modulus (GPa) = 20.94304 27.59613 24.26958
#
# Velocity S-wave (km/s) = 3.54560 4.07000 3.81681
# Velocity P-wave (km/s) = 6.69884 7.35679 7.03551
#
# Compressibility (1/GPa) = 0.02135192
#
# Stress axis : x y z
#
# Youngs Moduli (GPa) = 87.36438 39.80539 70.28505
#
# Poissons Ratio (x) = 0.19805 0.24195
# Poissons Ratio (y) = 0.43467 0.44311
# Poissons Ratio (z) = 0.30075 0.25095
#
# Static dielectric constant tensor:
#      x y z
#    x 1.601630 0.000000 0.000000 
#    y 0.000000 1.551950 0.000000 
#    z 0.000000 0.000000 1.567330 
# 
# From -- ./inp_files/41055.got.cif
#   From: 2010.05.17/outbox.cif.g08.bks.cpg/sg65_21_cif.got.tgz:41055.got - 2010.06.03 17:01:31.
