data_PCOD9484626
_publ_section_title
;
Structure prediction by ZEFSAII (Michael W. Deem and Ramdas Pophale) SiO2 
 PCOD9484626
Probable space group: C M M M
;
_chemical_formula_sum "Si O2"
_cell_formula_units_Z 96
_cell_length_a 17.700163
_cell_length_b 27.608430
_cell_length_c 14.550799
_cell_angle_alpha 90.000000
_cell_angle_beta 90.000000
_cell_angle_gamma 90.000000
_cell_volume 7110.592948
_symmetry_space_group_name_H-M "C M M M"
_symmetry_group_IT_number 65
_symmetry_cell_setting 'orthorhombic'
loop_
_space_group_symop_operation_xyz
x,y,z
-x,-y,z
x,-y,-z
-x,y,-z
-x,-y,-z
x,y,-z
-x,y,z
x,-y,z
1/2+x,1/2+y,z
1/2-x,1/2-y,z
1/2+x,1/2-y,-z
1/2-x,1/2+y,-z
1/2-x,1/2-y,-z
1/2+x,1/2+y,-z
1/2-x,1/2+y,z
1/2+x,1/2-y,z
loop_
_atom_site_type_symbol
_atom_site_label
_atom_site_fract_x
_atom_site_fract_y
_atom_site_fract_z
Si Si1 0.587966 0.556937 0.109509
Si Si2 0.588611 0.330515 0.395082
Si Si3 0.912240 0.286429 0.394077
Si Si4 0.337018 0.643183 0.790683
Si Si5 0.088200 0.765545 0.109496
Si Si6 0.695595 0.796041 0.767456
O O1 0.500000 0.568192 0.131899
O O2 0.600139 0.500000 0.127859
O O3 0.642352 0.592219 0.164885
O O4 0.596857 0.564530 0.000000
O O5 0.610210 0.342642 0.500000
O O6 0.500000 0.342703 0.382816
O O7 0.594220 0.272113 0.385515
O O8 0.637627 0.354211 0.315484
O O9 0.895434 0.298772 0.500000
O O10 0.854686 0.308051 0.321043
O O11 0.000000 0.298531 0.375530
O O12 0.385728 0.684232 0.844153
O O13 0.250804 0.661004 0.797279
O O14 0.139870 0.723915 0.153937
O O15 0.000000 0.757382 0.130125
O O16 0.098206 0.768169 0.000000
O O17 0.750000 0.750000 0.744772
#
# Coordination Sequence:
#
# PCOD9484626 Si02
#       6
#    16  16  16  16  16  16
#     4   9  18  32  49  66  81 102 138 180 214 245
#     4   9  16  25  39  58  80 110 145 172 195 232
#     4   9  16  27  41  55  79 116 150 176 198 227
#     4  11  19  27  42  63  83 109 135 171 214 249
#     4  10  19  29  40  54  78 113 144 167 195 241
#     4  10  19  26  36  58  85 111 137 169 205 243
#
# _framework density 13.500984000000001
#
# number of rings (size 3 to 8) (size 9 to 14) (size 15 to 20)
#    0.000    2.333    3.333    4.000    0.000    6.000 
#    0.000    0.000    0.000    0.500    0.000    2.333 
#    0.000    2.667    0.000   11.000    0.000    0.000 
#
# Total GULP energy -267554.394552 kJ/mol
# GULP energy per Si atom -5574.049887 kJ/mol
# Density = 1.347026 g / cm^3
# Si number density = 13.500984 Si / 1000 Ang^3
#
#
#
# Elastic Constant Matrix: (Units=GPa)
#
#
# Indices 1 2 3 4 5 6 
#
# 1 79.9063 32.0506 52.7219 0.0000 0.0000 0.0000
# 2 32.0506 46.7174 28.8096 0.0000 0.0000 0.0000
# 3 52.7219 28.8096 71.9977 0.0000 0.0000 0.0000
# 4 0.0000 0.0000 0.0000 13.8075 0.0000 0.0000
# 5 0.0000 0.0000 0.0000 0.0000 -22.3606 0.0000
# 6 0.0000 0.0000 0.0000 0.0000 0.0000 10.5764
#
#
#
# Elastic Compliance Matrix: (Units=1/GPa)
#
#
# Indices 1 2 3 4 5 6 
#
# 1 0.026392 -0.008216 -0.016039 0.000000 0.000000 0.000000
# 2 -0.008216 0.030975 -0.006378 0.000000 0.000000 0.000000
# 3 -0.016039 -0.006378 0.028186 0.000000 0.000000 0.000000
# 4 0.000000 0.000000 0.000000 0.072424 0.000000 0.000000
# 5 0.000000 0.000000 0.000000 0.000000 -0.044722 0.000000
# 6 0.000000 0.000000 0.000000 0.000000 0.000000 0.094550
#
#
# Mechanical properties :
#
#
# Convention : Reuss Voigt Hill
#
# Bulk Modulus (GPa) = 41.17281 47.30951 44.24116
# Shear Modulus (GPa) = 18.03950 6.07395 12.05673
#
# Velocity S-wave (km/s) = 3.65932 2.12336 2.99160
# Velocity P-wave (km/s) = 6.95820 6.41320 6.69125
#
# Compressibility (1/GPa) = 0.02428788
#
# Stress axis : x y z
#
# Youngs Moduli (GPa) = 37.88966 32.28390 35.47801
#
# Poissons Ratio (x) = 0.26524 0.56903
# Poissons Ratio (y) = 0.31129 0.22629
# Poissons Ratio (z) = 0.60771 0.20592
#
# Static dielectric constant tensor:
#      x y z
#    x 1.452270 0.000000 0.000000 
#    y 0.000000 1.412330 0.000000 
#    z 0.000000 0.000000 1.458550 
# 
# From -- ./inp_files/41229.got.cif
#   From: 2010.05.17/outbox.cif.g08.bks.cpg/sg65_21_cif.got.tgz:41229.got - 2010.06.03 17:01:31.
