data_PCOD9484283
_publ_section_title
;
Structure prediction by ZEFSAII (Michael W. Deem and Ramdas Pophale) SiO2 
 PCOD9484283
Probable space group: C M M M
;
_chemical_formula_sum "Si O2"
_cell_formula_units_Z 48
_cell_length_a 14.238161
_cell_length_b 14.038270
_cell_length_c 11.447663
_cell_angle_alpha 90.000000
_cell_angle_beta 90.000000
_cell_angle_gamma 90.000000
_cell_volume 2288.149132
_symmetry_space_group_name_H-M "C M M M"
_symmetry_group_IT_number 65
_symmetry_cell_setting 'orthorhombic'
loop_
_space_group_symop_operation_xyz
x,y,z
-x,-y,z
x,-y,-z
-x,y,-z
-x,-y,-z
x,y,-z
-x,y,z
x,-y,z
1/2+x,1/2+y,z
1/2-x,1/2-y,z
1/2+x,1/2-y,-z
1/2-x,1/2+y,-z
1/2-x,1/2-y,-z
1/2+x,1/2+y,-z
1/2-x,1/2+y,z
1/2+x,1/2-y,z
loop_
_atom_site_type_symbol
_atom_site_label
_atom_site_fract_x
_atom_site_fract_y
_atom_site_fract_z
Si Si1 0.144742 0.792968 0.632029
Si Si2 0.610369 0.000000 0.194521
Si Si3 0.215378 0.000000 0.363960
Si Si4 0.642173 0.212606 0.873664
O O1 0.105200 0.780371 0.500000
O O2 0.250000 0.750000 0.624232
O O3 0.102136 0.746176 0.748331
O O4 0.156789 0.904718 0.658927
O O5 0.632431 0.901554 0.128606
O O6 0.500000 0.000000 0.226339
O O7 0.685848 0.000000 0.298484
O O8 0.237548 0.000000 0.500000
O O9 0.750000 0.250000 0.871554
O O10 0.604531 0.246111 0.000000
#
# Coordination Sequence:
#
# PCOD9484283 Si02
#       4
#    16   8   8  16
#     4   9  16  29  52  74 101 138 182 227 269 313
#     4  12  23  35  52  83 122 150 176 224 290 332
#     4  10  18  32  51  80 114 145 180 228 279 326
#     4  10  20  34  52  75 104 143 188 224 261 323
#
# _framework density 20.977654999999999
#
# number of rings (size 3 to 8) (size 9 to 14) (size 15 to 20)
#    0.000    2.000    6.667    0.500    0.000    1.667 
#    0.000    0.833    0.000    0.000    0.000    4.667 
#    0.000   17.333    0.000    0.000    0.000    0.000 
#
# Total GULP energy -133622.014630 kJ/mol
# GULP energy per Si atom -5567.583943 kJ/mol
# Density = 2.092991 g / cm^3
# Si number density = 20.977655 Si / 1000 Ang^3
#
#
#
# Elastic Constant Matrix: (Units=GPa)
#
#
# Indices 1 2 3 4 5 6 
#
# 1 91.7514 14.3020 38.5988 0.0000 0.0000 0.0000
# 2 14.3020 134.8288 75.0653 0.0000 0.0000 0.0000
# 3 38.5988 75.0653 221.5465 0.0000 0.0000 0.0000
# 4 0.0000 0.0000 0.0000 53.0807 0.0000 0.0000
# 5 0.0000 0.0000 0.0000 0.0000 -35.7178 0.0000
# 6 0.0000 0.0000 0.0000 0.0000 0.0000 -41.8938
#
#
#
# Elastic Compliance Matrix: (Units=1/GPa)
#
#
# Indices 1 2 3 4 5 6 
#
# 1 0.011763 -0.000132 -0.002005 0.000000 0.000000 0.000000
# 2 -0.000132 0.009143 -0.003075 0.000000 0.000000 0.000000
# 3 -0.002005 -0.003075 0.005905 0.000000 0.000000 0.000000
# 4 0.000000 0.000000 0.000000 0.018839 0.000000 0.000000
# 5 0.000000 0.000000 0.000000 0.000000 -0.027997 0.000000
# 6 0.000000 0.000000 0.000000 0.000000 0.000000 -0.023870
#
#
# Mechanical properties :
#
#
# Convention : Reuss Voigt Hill
#
# Bulk Modulus (GPa) = 61.02032 78.22875 69.62454
# Shear Modulus (GPa) = 517.18857 16.43786 266.81321
#
# Velocity S-wave (km/s) = 15.71871 2.80230 11.29006
# Velocity P-wave (km/s) = 18.93643 6.91686 14.25538
#
# Compressibility (1/GPa) = 0.01638798
#
# Stress axis : x y z
#
# Youngs Moduli (GPa) = 85.01291 109.37730 169.35273
#
# Poissons Ratio (x) = 0.01439 0.33952
# Poissons Ratio (y) = 0.01119 0.52073
# Poissons Ratio (z) = 0.17043 0.33632
#
# Static dielectric constant tensor:
#      x y z
#    x 1.717610 0.000000 0.000000 
#    y 0.000000 1.810410 0.000000 
#    z 0.000000 0.000000 1.814940 
# 
# From -- ./inp_files/23425.got.cif
#   From: 2010.05.17/outbox.cif.g08.bks.cpg/sg65_12_cif.got.tgz:23425.got - 2010.06.03 17:01:31.
