data_PCOD9484364
_publ_section_title
;
Structure prediction by ZEFSAII (Michael W. Deem and Ramdas Pophale) SiO2 
 PCOD9484364
Probable space group: C M M M
;
_chemical_formula_sum "Si O2"
_cell_formula_units_Z 64
_cell_length_a 15.944904
_cell_length_b 8.723350
_cell_length_c 22.396496
_cell_angle_alpha 90.000000
_cell_angle_beta 90.000000
_cell_angle_gamma 90.000000
_cell_volume 3115.195332
_symmetry_space_group_name_H-M "C M M M"
_symmetry_group_IT_number 65
_symmetry_cell_setting 'orthorhombic'
loop_
_space_group_symop_operation_xyz
x,y,z
-x,-y,z
x,-y,-z
-x,y,-z
-x,-y,-z
x,y,-z
-x,y,z
x,-y,z
1/2+x,1/2+y,z
1/2-x,1/2-y,z
1/2+x,1/2-y,-z
1/2-x,1/2+y,-z
1/2-x,1/2-y,-z
1/2+x,1/2+y,-z
1/2-x,1/2+y,z
1/2+x,1/2-y,z
loop_
_atom_site_type_symbol
_atom_site_label
_atom_site_fract_x
_atom_site_fract_y
_atom_site_fract_z
Si Si1 0.845398 0.816300 0.500000
Si Si2 0.837629 0.682374 0.134763
Si Si3 0.844397 0.316794 0.377399
Si Si4 0.902006 0.821896 0.745048
Si Si5 0.000000 0.820635 0.928594
O O1 0.750000 0.750000 0.500000
O O2 0.882713 0.753128 0.561744
O O3 0.843626 0.000000 0.500000
O O4 0.835239 0.500000 0.133817
O O5 0.750000 0.750000 0.111823
O O6 0.851025 0.741406 0.202422
O O7 0.916883 0.743122 0.097756
O O8 0.841637 0.500000 0.381707
O O9 0.750000 0.250000 0.372508
O O10 0.890195 0.261808 0.317869
O O11 0.000000 0.816963 0.761762
O O12 0.876551 0.000000 0.739357
O O13 0.000000 0.000000 0.911297
O O14 0.000000 0.809411 0.000000
#
# Coordination Sequence:
#
# PCOD9484364 Si02
#       5
#     8  16  16  16   8
#     4  10  18  32  53  78 111 150 199 253 317 382
#     4  12  25  43  70 101 137 178 225 273 328 390
#     4  11  21  35  56  83 116 153 203 257 317 384
#     4  11  23  40  62  88 124 164 209 265 327 386
#     4  11  25  47  73 103 141 180 221 272 327 385
#
# _framework density 20.544457999999999
#
# number of rings (size 3 to 8) (size 9 to 14) (size 15 to 20)
#    0.000    0.875    1.250    9.000    0.000    3.000 
#    0.000    0.625    0.000    3.750    0.000    0.000 
#    0.000    0.000    0.000    0.000    0.000    0.000 
#
# Total GULP energy -179092.053845 kJ/mol
# GULP energy per Si atom -5596.626683 kJ/mol
# Density = 2.049770 g / cm^3
# Si number density = 20.544458 Si / 1000 Ang^3
#
#
#
# Elastic Constant Matrix: (Units=GPa)
#
#
# Indices 1 2 3 4 5 6 
#
# 1 111.8980 61.5528 44.0431 0.0000 0.0000 0.0000
# 2 61.5528 237.2718 59.7362 0.0000 0.0000 0.0000
# 3 44.0431 59.7362 93.0683 0.0000 0.0000 0.0000
# 4 0.0000 0.0000 0.0000 33.3870 0.0000 0.0000
# 5 0.0000 0.0000 0.0000 0.0000 40.3083 0.0000
# 6 0.0000 0.0000 0.0000 0.0000 0.0000 29.7404
#
#
#
# Elastic Compliance Matrix: (Units=1/GPa)
#
#
# Indices 1 2 3 4 5 6 
#
# 1 0.011698 -0.001957 -0.004280 0.000000 0.000000 0.000000
# 2 -0.001957 0.005354 -0.002511 0.000000 0.000000 0.000000
# 3 -0.004280 -0.002511 0.014381 0.000000 0.000000 0.000000
# 4 0.000000 0.000000 0.000000 0.029952 0.000000 0.000000
# 5 0.000000 0.000000 0.000000 0.000000 0.024809 0.000000
# 6 0.000000 0.000000 0.000000 0.000000 0.000000 0.033624
#
#
# Mechanical properties :
#
#
# Convention : Reuss Voigt Hill
#
# Bulk Modulus (GPa) = 71.74103 85.87806 78.80954
# Shear Modulus (GPa) = 35.22141 39.14756 37.18448
#
# Velocity S-wave (km/s) = 4.14502 4.36994 4.25897
# Velocity P-wave (km/s) = 7.60947 8.20693 7.91384
#
# Compressibility (1/GPa) = 0.01393903
#
# Stress axis : x y z
#
# Youngs Moduli (GPa) = 85.48647 186.76362 69.53423
#
# Poissons Ratio (x) = 0.36553 0.29758
# Poissons Ratio (y) = 0.16731 0.17457
# Poissons Ratio (z) = 0.36584 0.46887
#
# Static dielectric constant tensor:
#      x y z
#    x 1.754710 0.000000 0.000000 
#    y 0.000000 1.681040 0.000000 
#    z 0.000000 0.000000 1.740370 
# 
# From -- ./inp_files/69531.got.cif
#   From: 2010.05.17/outbox.cif.g08.bks.cpg/sg65_35_cif.got.tgz:69531.got - 2010.06.03 17:01:31.
