data_PCOD9484800
_publ_section_title
;
Structure prediction by ZEFSAII (Michael W. Deem and Ramdas Pophale) SiO2 
 PCOD9484800
Probable space group: C M M M
;
_chemical_formula_sum "Si O2"
_cell_formula_units_Z 96
_cell_length_a 22.667298
_cell_length_b 22.846171
_cell_length_c 7.408672
_cell_angle_alpha 90.000000
_cell_angle_beta 90.000000
_cell_angle_gamma 90.000000
_cell_volume 3836.662040
_symmetry_space_group_name_H-M "C M M M"
_symmetry_group_IT_number 65
_symmetry_cell_setting 'orthorhombic'
loop_
_space_group_symop_operation_xyz
x,y,z
-x,-y,z
x,-y,-z
-x,y,-z
-x,-y,-z
x,y,-z
-x,y,z
x,-y,z
1/2+x,1/2+y,z
1/2-x,1/2-y,z
1/2+x,1/2-y,-z
1/2-x,1/2+y,-z
1/2-x,1/2-y,-z
1/2+x,1/2+y,-z
1/2-x,1/2+y,z
1/2+x,1/2-y,z
loop_
_atom_site_type_symbol
_atom_site_label
_atom_site_fract_x
_atom_site_fract_y
_atom_site_fract_z
Si Si1 0.092173 0.062671 0.209553
Si Si2 0.252735 0.686395 0.700861
Si Si3 0.428156 0.063196 0.284923
Si Si4 0.384176 0.683223 0.212501
Si Si5 0.232954 0.063257 0.280656
Si Si6 0.567636 0.188916 0.282340
O O1 0.076266 0.127949 0.276355
O O2 0.164093 0.062448 0.222149
O O3 0.073192 0.000000 0.290670
O O4 0.074568 0.060751 0.000000
O O5 0.224893 0.692001 0.500000
O O6 0.250000 0.750000 0.792629
O O7 0.322785 0.679187 0.685791
O O8 0.236006 0.623352 0.781567
O O9 0.415522 0.062122 0.500000
O O10 0.500000 0.064505 0.267667
O O11 0.406814 0.126562 0.217472
O O12 0.408497 0.000000 0.211799
O O13 0.405354 0.749371 0.229941
O O14 0.373297 0.673143 0.000000
O O15 0.234075 0.065658 0.500000
O O16 0.258131 0.000000 0.226452
O O17 0.568536 0.186770 0.500000
O O18 0.500000 0.190977 0.222512
#
# Coordination Sequence:
#
# PCOD9484800 Si02
#       6
#    16  16  16  16  16  16
#     4   8  14  25  40  58  80 106 139 177 213 250
#     4   9  17  29  45  64  86 113 143 175 213 256
#     4   7  10  19  38  63  85 104 134 177 216 247
#     4  10  19  29  44  66  90 116 144 177 217 259
#     4   8  13  22  38  60  82 102 130 172 216 251
#     4   9  17  29  46  67  90 116 144 176 215 257
#
# _framework density 25.021750000000001
#
# number of rings (size 3 to 8) (size 9 to 14) (size 15 to 20)
#    0.000    3.500    0.000    2.000    0.000    1.333 
#    0.000    0.000    0.000    2.000    0.000   10.500 
#    0.000    0.000    0.000    0.000    0.000    0.000 
#
# Total GULP energy -267209.860183 kJ/mol
# GULP energy per Si atom -5566.872087 kJ/mol
# Density = 2.496480 g / cm^3
# Si number density = 25.021750 Si / 1000 Ang^3
#
#
#
# Elastic Constant Matrix: (Units=GPa)
#
#
# Indices 1 2 3 4 5 6 
#
# 1 48.4985 17.4489 -1.8689 0.0000 0.0000 0.0000
# 2 17.4489 342.4752 13.6975 0.0000 0.0000 0.0000
# 3 -1.8689 13.6975 93.2103 0.0000 0.0000 0.0000
# 4 0.0000 0.0000 0.0000 -13.8766 0.0000 0.0000
# 5 0.0000 0.0000 0.0000 0.0000 2.8165 0.0000
# 6 0.0000 0.0000 0.0000 0.0000 0.0000 17.7195
#
#
#
# Elastic Compliance Matrix: (Units=1/GPa)
#
#
# Indices 1 2 3 4 5 6 
#
# 1 0.021036 -0.001095 0.000583 0.000000 0.000000 0.000000
# 2 -0.001095 0.002994 -0.000462 0.000000 0.000000 0.000000
# 3 0.000583 -0.000462 0.010808 0.000000 0.000000 0.000000
# 4 0.000000 0.000000 0.000000 -0.072064 0.000000 0.000000
# 5 0.000000 0.000000 0.000000 0.000000 0.355053 0.000000
# 6 0.000000 0.000000 0.000000 0.000000 0.000000 0.056435
#
#
# Mechanical properties :
#
#
# Convention : Reuss Voigt Hill
#
# Bulk Modulus (GPa) = 30.40513 60.30433 45.35473
# Shear Modulus (GPa) = 12.91412 31.65898 22.28655
#
# Velocity S-wave (km/s) = 2.27428 3.56091 2.98768
# Velocity P-wave (km/s) = 4.36742 6.40779 5.48335
#
# Compressibility (1/GPa) = 0.03288919
#
# Stress axis : x y z
#
# Youngs Moduli (GPa) = 47.53836 333.98030 92.52403
#
# Poissons Ratio (x) = 0.36573 -0.05391
# Poissons Ratio (y) = 0.05206 0.04274
# Poissons Ratio (z) = -0.02770 0.15429
#
# Static dielectric constant tensor:
#      x y z
#    x 1.976190 0.000000 0.000000 
#    y 0.000000 2.150760 0.000000 
#    z 0.000000 0.000000 2.032190 
# 
# From -- ./inp_files/16675.got.cif
#   From: 2010.05.17/outbox.cif.g08.bks.cpg/sg65_9_cif.got.tgz:16675.got - 2010.06.03 17:01:31.
