data_PCOD9484420
_publ_section_title
;
Structure prediction by ZEFSAII (Michael W. Deem and Ramdas Pophale) SiO2 
 PCOD9484420
Probable space group: C M M M
;
_chemical_formula_sum "Si O2"
_cell_formula_units_Z 66
_cell_length_a 9.117168
_cell_length_b 15.844456
_cell_length_c 22.486037
_cell_angle_alpha 90.000000
_cell_angle_beta 90.000000
_cell_angle_gamma 90.000000
_cell_volume 3248.255715
_symmetry_space_group_name_H-M "C M M M"
_symmetry_group_IT_number 65
_symmetry_cell_setting 'orthorhombic'
loop_
_space_group_symop_operation_xyz
x,y,z
-x,-y,z
x,-y,-z
-x,y,-z
-x,-y,-z
x,y,-z
-x,y,z
x,-y,z
1/2+x,1/2+y,z
1/2-x,1/2-y,z
1/2+x,1/2-y,-z
1/2-x,1/2+y,-z
1/2-x,1/2-y,-z
1/2+x,1/2+y,-z
1/2-x,1/2+y,z
1/2+x,1/2-y,z
loop_
_atom_site_type_symbol
_atom_site_label
_atom_site_fract_x
_atom_site_fract_y
_atom_site_fract_z
Si Si1 0.204768 0.000000 0.066457
Si Si2 0.178534 0.155316 0.500000
Si Si3 0.832263 0.170286 0.859602
Si Si4 0.000000 0.500000 0.000000
Si Si5 0.323246 0.157114 0.381118
Si Si6 0.671018 0.401687 0.735551
O O1 0.170645 0.915220 0.102382
O O2 0.374707 0.000000 0.051460
O O3 0.140598 0.000000 0.000000
O O4 0.250000 0.250000 0.500000
O O5 0.245497 0.117313 0.439505
O O6 0.000000 0.157730 0.500000
O O7 0.750000 0.250000 0.887036
O O8 0.775992 0.149279 0.793244
O O9 0.000000 0.195661 0.852570
O O10 0.500000 0.161611 0.387815
O O11 0.250000 0.250000 0.375515
O O12 0.273126 0.111344 0.321222
O O13 0.500000 0.378335 0.721703
O O14 0.669419 0.500000 0.752271
#
# Coordination Sequence:
#
# PCOD9484420 Si02
#       6
#     8   8  16   2  16  16
#     4  10  23  46  68  95 137 171 213 260 323 370
#     4  10  18  32  55  80 111 154 197 253 315 372
#     4  11  24  41  68  98 130 172 217 264 318 380
#     4   8  24  44  70 100 132 174 210 270 320 356
#     4  11  21  35  55  85 117 154 202 254 311 374
#     4  10  21  40  61  86 122 161 204 255 316 378
#
# _framework density 20.318597
#
# number of rings (size 3 to 8) (size 9 to 14) (size 15 to 20)
#    0.364    1.212    1.212    5.818    1.697    4.848 
#    0.000    0.606    0.000    3.636    0.000    0.000 
#    0.000    0.000    0.000    0.000    0.000    0.000 
#
# Total GULP energy -183767.485186 kJ/mol
# GULP energy per Si atom -5568.711672 kJ/mol
# Density = 2.027235 g / cm^3
# Si number density = 20.318597 Si / 1000 Ang^3
#
#
#
# Elastic Constant Matrix: (Units=GPa)
#
#
# Indices 1 2 3 4 5 6 
#
# 1 149.2916 19.3140 34.8278 0.0000 0.0000 0.0000
# 2 19.3140 90.9599 36.6765 0.0000 0.0000 0.0000
# 3 34.8278 36.6765 122.6952 0.0000 0.0000 0.0000
# 4 0.0000 0.0000 0.0000 34.9769 0.0000 0.0000
# 5 0.0000 0.0000 0.0000 0.0000 31.6730 0.0000
# 6 0.0000 0.0000 0.0000 0.0000 0.0000 81.2310
#
#
#
# Elastic Compliance Matrix: (Units=1/GPa)
#
#
# Indices 1 2 3 4 5 6 
#
# 1 0.007225 -0.000804 -0.001810 0.000000 0.000000 0.000000
# 2 -0.000804 0.012590 -0.003535 0.000000 0.000000 0.000000
# 3 -0.001810 -0.003535 0.009721 0.000000 0.000000 0.000000
# 4 0.000000 0.000000 0.000000 0.028590 0.000000 0.000000
# 5 0.000000 0.000000 0.000000 0.000000 0.031573 0.000000
# 6 0.000000 0.000000 0.000000 0.000000 0.000000 0.012311
#
#
# Mechanical properties :
#
#
# Convention : Reuss Voigt Hill
#
# Bulk Modulus (GPa) = 58.01726 60.50925 59.26325
# Shear Modulus (GPa) = 41.64794 47.71807 44.68301
#
# Velocity S-wave (km/s) = 4.53232 4.85138 4.69456
# Velocity P-wave (km/s) = 7.48365 7.82471 7.65608
#
# Compressibility (1/GPa) = 0.01723625
#
# Stress axis : x y z
#
# Youngs Moduli (GPa) = 138.41468 79.42785 102.87076
#
# Poissons Ratio (x) = 0.06386 0.18624
# Poissons Ratio (y) = 0.11129 0.36367
# Poissons Ratio (z) = 0.25059 0.28080
#
# Static dielectric constant tensor:
#      x y z
#    x 1.692880 0.000000 0.000000 
#    y 0.000000 1.763430 0.000000 
#    z 0.000000 0.000000 1.762630 
# 
# From -- ./inp_files/59015.got.cif
#   From: 2010.05.17/outbox.cif.g08.bks.cpg/sg65_30_cif.got.tgz:59015.got - 2010.06.03 17:01:31.
