data_PCOD9484058
_publ_section_title
;
Structure prediction by ZEFSAII (Michael W. Deem and Ramdas Pophale) SiO2 
 PCOD9484058
Probable space group: C M M M
;
_chemical_formula_sum "Si O2"
_cell_formula_units_Z 88
_cell_length_a 31.103987
_cell_length_b 20.829714
_cell_length_c 7.942750
_cell_angle_alpha 90.000000
_cell_angle_beta 90.000000
_cell_angle_gamma 90.000000
_cell_volume 5146.005688
_symmetry_space_group_name_H-M "C M M M"
_symmetry_group_IT_number 65
_symmetry_cell_setting 'orthorhombic'
loop_
_space_group_symop_operation_xyz
x,y,z
-x,-y,z
x,-y,-z
-x,y,-z
-x,-y,-z
x,y,-z
-x,y,z
x,-y,z
1/2+x,1/2+y,z
1/2-x,1/2-y,z
1/2+x,1/2-y,-z
1/2-x,1/2+y,-z
1/2-x,1/2-y,-z
1/2+x,1/2+y,-z
1/2-x,1/2+y,z
1/2+x,1/2-y,z
loop_
_atom_site_type_symbol
_atom_site_label
_atom_site_fract_x
_atom_site_fract_y
_atom_site_fract_z
Si Si1 0.827016 0.571145 0.299505
Si Si2 0.223856 0.930410 0.701808
Si Si3 0.552152 0.000000 0.307898
Si Si4 0.209140 0.209511 0.300470
Si Si5 0.048624 0.642229 0.201155
Si Si6 0.132454 0.702138 0.805475
O O1 0.835360 0.578224 0.500000
O O2 0.842098 0.500000 0.247147
O O3 0.775492 0.572799 0.278306
O O4 0.846779 0.631354 0.206420
O O5 0.215547 0.932190 0.500000
O O6 0.206350 0.862863 0.769711
O O7 0.209443 0.000000 0.770511
O O8 0.563581 0.068682 0.230643
O O9 0.500000 0.000000 0.303033
O O10 0.566870 0.000000 0.500000
O O11 0.217621 0.202325 0.500000
O O12 0.250000 0.250000 0.231193
O O13 0.165606 0.249386 0.279040
O O14 0.084666 0.691001 0.267796
O O15 0.000000 0.649576 0.268746
O O16 0.046778 0.650761 0.000000
O O17 0.128940 0.721308 0.000000
#
# Coordination Sequence:
#
# PCOD9484058 Si02
#       6
#    16  16   8  16  16  16
#     4   9  17  30  46  63  86 119 157 191 223 263
#     4   8  14  27  47  66  85 115 154 185 209 255
#     4   9  17  29  47  69  87 107 145 199 243 267
#     4  10  18  31  49  67  91 122 153 181 220 271
#     4   9  19  35  48  58  82 121 156 185 227 282
#     4  11  22  31  44  66  90 117 152 194 233 269
#
# _framework density 17.100642000000001
#
# number of rings (size 3 to 8) (size 9 to 14) (size 15 to 20)
#    0.000    2.636    1.818    1.909    1.273    3.273 
#    0.000    0.000    0.000    0.545    0.000    0.000 
#    0.000    0.727    0.000    9.091    0.000    0.000 
#
# Total GULP energy -245202.681523 kJ/mol
# GULP energy per Si atom -5572.788216 kJ/mol
# Density = 1.706172 g / cm^3
# Si number density = 17.100642 Si / 1000 Ang^3
#
#
#
# Elastic Constant Matrix: (Units=GPa)
#
#
# Indices 1 2 3 4 5 6 
#
# 1 71.6322 55.4328 -1.2326 0.0000 0.0000 0.0000
# 2 55.4328 130.2272 5.8281 0.0000 0.0000 0.0000
# 3 -1.2326 5.8281 11.0702 0.0000 0.0000 0.0000
# 4 0.0000 0.0000 0.0000 4.0540 0.0000 0.0000
# 5 0.0000 0.0000 0.0000 0.0000 15.1891 0.0000
# 6 0.0000 0.0000 0.0000 0.0000 0.0000 25.9212
#
#
#
# Elastic Compliance Matrix: (Units=1/GPa)
#
#
# Indices 1 2 3 4 5 6 
#
# 1 0.021385 -0.009432 0.007347 0.000000 0.000000 0.000000
# 2 -0.009432 0.012024 -0.007380 0.000000 0.000000 0.000000
# 3 0.007347 -0.007380 0.095036 0.000000 0.000000 0.000000
# 4 0.000000 0.000000 0.000000 0.246668 0.000000 0.000000
# 5 0.000000 0.000000 0.000000 0.000000 0.065837 0.000000
# 6 0.000000 0.000000 0.000000 0.000000 0.000000 0.038579
#
#
# Mechanical properties :
#
#
# Convention : Reuss Voigt Hill
#
# Bulk Modulus (GPa) = 9.13120 36.99846 23.06483
# Shear Modulus (GPa) = 9.34641 19.22628 14.28635
#
# Velocity S-wave (km/s) = 2.34038 3.35670 2.89351
# Velocity P-wave (km/s) = 3.55731 6.05854 4.96792
#
# Compressibility (1/GPa) = 0.10951465
#
# Stress axis : x y z
#
# Youngs Moduli (GPa) = 46.76087 83.16760 10.52230
#
# Poissons Ratio (x) = 0.78442 -0.07730
# Poissons Ratio (y) = 0.44104 0.07766
# Poissons Ratio (z) = -0.34353 0.61380
#
# Static dielectric constant tensor:
#      x y z
#    x 1.617620 0.000000 0.000000 
#    y 0.000000 1.597630 0.000000 
#    z 0.000000 0.000000 1.603560 
# 
# From -- ./inp_files/12619.got.cif
#   From: 2010.05.17/outbox.cif.g08.bks.cpg/sg65_7_cif.got.tgz:12619.got - 2010.06.03 17:01:31.
