data_PCOD9484174
_publ_section_title
;
Structure prediction by ZEFSAII (Michael W. Deem and Ramdas Pophale) SiO2 
 PCOD9484174
Probable space group: C M M M
;
_chemical_formula_sum "Si O2"
_cell_formula_units_Z 120
_cell_length_a 18.399225
_cell_length_b 19.834447
_cell_length_c 18.907549
_cell_angle_alpha 90.000000
_cell_angle_beta 90.000000
_cell_angle_gamma 90.000000
_cell_volume 6900.091684
_symmetry_space_group_name_H-M "C M M M"
_symmetry_group_IT_number 65
_symmetry_cell_setting 'orthorhombic'
loop_
_space_group_symop_operation_xyz
x,y,z
-x,-y,z
x,-y,-z
-x,y,-z
-x,-y,-z
x,y,-z
-x,y,z
x,-y,z
1/2+x,1/2+y,z
1/2-x,1/2-y,z
1/2+x,1/2-y,-z
1/2-x,1/2+y,-z
1/2-x,1/2-y,-z
1/2+x,1/2+y,-z
1/2-x,1/2+y,z
1/2+x,1/2-y,z
loop_
_atom_site_type_symbol
_atom_site_label
_atom_site_fract_x
_atom_site_fract_y
_atom_site_fract_z
Si Si1 0.585864 0.080001 0.301200
Si Si2 0.328421 0.666703 0.581813
Si Si3 0.713576 0.921723 0.193838
Si Si4 0.141771 0.921430 0.288468
Si Si5 0.082575 0.862339 0.844323
Si Si6 0.412232 0.500000 0.920780
Si Si7 0.216418 0.823408 0.919255
Si Si8 0.153346 0.321358 0.417313
O O1 0.500000 0.089945 0.287349
O O2 0.638282 0.094364 0.234097
O O3 0.612209 0.128092 0.365008
O O4 0.596698 0.000000 0.318312
O O5 0.346454 0.654254 0.500000
O O6 0.356732 0.610142 0.634367
O O7 0.240450 0.667474 0.587651
O O8 0.356468 0.741996 0.600426
O O9 0.778151 0.916199 0.252408
O O10 0.735403 0.873007 0.129544
O O11 0.711782 0.000000 0.170804
O O12 0.091626 0.875619 0.238320
O O13 0.120276 0.000000 0.287275
O O14 0.107440 0.933677 0.878547
O O15 0.139868 0.813292 0.879001
O O16 0.000000 0.848261 0.863470
O O17 0.500000 0.500000 0.924131
O O18 0.383660 0.500000 0.000000
O O19 0.250000 0.750000 0.922767
O O20 0.206675 0.848558 0.000000
O O21 0.133070 0.331305 0.500000
#
# Coordination Sequence:
#
# PCOD9484174 Si02
#       8
#    16  16  16  16  16   8  16  16
#     4  10  20  34  54  80 110 142 177 224 280 328
#     4   9  18  32  51  74 101 140 186 228 270 317
#     4   9  19  35  53  77 107 141 181 219 264 322
#     4  10  18  31  52  77 109 141 176 224 267 315
#     4  10  20  35  55  81 112 143 173 214 272 326
#     4   9  16  28  50  80 109 135 164 204 260 327
#     4  10  22  38  56  81 113 144 178 222 266 313
#     4   9  18  33  51  73 104 139 180 230 278 326
#
# _framework density 17.391072999999999
#
# number of rings (size 3 to 8) (size 9 to 14) (size 15 to 20)
#    0.000    2.467    2.000    1.200    0.933    4.000 
#    0.000    4.667    0.000    2.400    0.000    2.800 
#    0.000    0.000    0.000    0.000    0.000    0.000 
#
# Total GULP energy -334404.237147 kJ/mol
# GULP energy per Si atom -5573.403952 kJ/mol
# Density = 1.735149 g / cm^3
# Si number density = 17.391073 Si / 1000 Ang^3
#
#
#
# Elastic Constant Matrix: (Units=GPa)
#
#
# Indices 1 2 3 4 5 6 
#
# 1 86.2292 35.8794 35.2057 0.0000 0.0000 0.0000
# 2 35.8794 58.6550 51.5384 0.0000 0.0000 0.0000
# 3 35.2057 51.5384 104.4591 0.0000 0.0000 0.0000
# 4 0.0000 0.0000 0.0000 29.1742 0.0000 0.0000
# 5 0.0000 0.0000 0.0000 0.0000 14.9862 0.0000
# 6 0.0000 0.0000 0.0000 0.0000 0.0000 21.8797
#
#
#
# Elastic Compliance Matrix: (Units=1/GPa)
#
#
# Indices 1 2 3 4 5 6 
#
# 1 0.015612 -0.008697 -0.000971 0.000000 0.000000 0.000000
# 2 -0.008697 0.034941 -0.014308 0.000000 0.000000 0.000000
# 3 -0.000971 -0.014308 0.016960 0.000000 0.000000 0.000000
# 4 0.000000 0.000000 0.000000 0.034277 0.000000 0.000000
# 5 0.000000 0.000000 0.000000 0.000000 0.066728 0.000000
# 6 0.000000 0.000000 0.000000 0.000000 0.000000 0.045704
#
#
# Mechanical properties :
#
#
# Convention : Reuss Voigt Hill
#
# Bulk Modulus (GPa) = 51.12228 54.95449 53.03839
# Shear Modulus (GPa) = 18.60851 21.65600 20.13225
#
# Velocity S-wave (km/s) = 3.27464 3.53262 3.40607
# Velocity P-wave (km/s) = 6.61492 6.95033 6.78470
#
# Compressibility (1/GPa) = 0.01956094
#
# Stress axis : x y z
#
# Youngs Moduli (GPa) = 64.05287 28.61974 58.96332
#
# Poissons Ratio (x) = 0.24890 0.05724
# Poissons Ratio (y) = 0.55707 0.84365
# Poissons Ratio (z) = 0.06218 0.40949
#
# Static dielectric constant tensor:
#      x y z
#    x 1.599900 0.000000 0.000000 
#    y 0.000000 1.596770 0.000000 
#    z 0.000000 0.000000 1.594720 
# 
# From -- ./inp_files/54981.got.cif
#   From: 2010.05.17/outbox.cif.g08.bks.cpg/sg65_28_cif.got.tgz:54981.got - 2010.06.03 17:01:31.
