data_PCOD9484237
_publ_section_title
;
Structure prediction by ZEFSAII (Michael W. Deem and Ramdas Pophale) SiO2 
 PCOD9484237
Probable space group: C M M M
;
_chemical_formula_sum "Si O2"
_cell_formula_units_Z 64
_cell_length_a 8.616845
_cell_length_b 15.537285
_cell_length_c 24.772650
_cell_angle_alpha 90.000000
_cell_angle_beta 90.000000
_cell_angle_gamma 90.000000
_cell_volume 3316.621256
_symmetry_space_group_name_H-M "C M M M"
_symmetry_group_IT_number 65
_symmetry_cell_setting 'orthorhombic'
loop_
_space_group_symop_operation_xyz
x,y,z
-x,-y,z
x,-y,-z
-x,y,-z
-x,-y,-z
x,y,-z
-x,y,z
x,-y,z
1/2+x,1/2+y,z
1/2-x,1/2-y,z
1/2+x,1/2-y,-z
1/2-x,1/2+y,-z
1/2-x,1/2-y,-z
1/2+x,1/2+y,-z
1/2-x,1/2+y,z
1/2+x,1/2-y,z
loop_
_atom_site_type_symbol
_atom_site_label
_atom_site_fract_x
_atom_site_fract_y
_atom_site_fract_z
Si Si1 0.688622 0.099899 0.000000
Si Si2 0.815549 0.000000 0.185321
Si Si3 0.813772 0.347214 0.613419
Si Si4 0.685461 0.652306 0.500000
Si Si5 0.186256 0.658846 0.882387
Si Si6 0.312916 0.000000 0.694394
O O1 0.740396 0.142873 0.055715
O O2 0.500000 0.101561 0.000000
O O3 0.735871 0.000000 0.000000
O O4 0.747446 0.082717 0.154806
O O5 0.764488 0.000000 0.247401
O O6 0.000000 0.000000 0.181000
O O7 0.750000 0.250000 0.621986
O O8 0.748876 0.383024 0.556454
O O9 0.771708 0.414502 0.660252
O O10 0.000000 0.341980 0.609626
O O11 0.500000 0.651803 0.500000
O O12 0.750000 0.750000 0.500000
O O13 0.250000 0.750000 0.863573
O O14 0.000000 0.658233 0.881943
O O15 0.500000 0.000000 0.700746
#
# Coordination Sequence:
#
# PCOD9484237 Si02
#       6
#     8   8  16   8  16   8
#     4   9  17  34  62  93 124 162 196 239 300 355
#     4  12  26  43  62  87 119 158 206 254 303 356
#     4  10  20  37  60  86 116 151 192 238 292 351
#     4  10  18  31  54  85 120 154 188 231 287 347
#     4  11  22  40  65  92 125 160 201 247 299 359
#     4  10  24  43  62  83 113 156 200 246 301 356
#
# _framework density 19.296745000000001
#
# number of rings (size 3 to 8) (size 9 to 14) (size 15 to 20)
#    0.000    1.625    1.250    5.625    0.000    3.500 
#    0.000    7.500    0.000    0.000    0.000    0.000 
#    0.000    0.000    0.000    0.000    0.000    0.000 
#
# Total GULP energy -178806.249875 kJ/mol
# GULP energy per Si atom -5587.695309 kJ/mol
# Density = 1.925282 g / cm^3
# Si number density = 19.296745 Si / 1000 Ang^3
#
#
#
# Elastic Constant Matrix: (Units=GPa)
#
#
# Indices 1 2 3 4 5 6 
#
# 1 87.5411 52.0447 67.2208 0.0000 0.0000 0.0000
# 2 52.0447 155.3871 86.0131 0.0000 0.0000 0.0000
# 3 67.2208 86.0131 165.6896 0.0000 0.0000 0.0000
# 4 0.0000 0.0000 0.0000 -189.7838 0.0000 0.0000
# 5 0.0000 0.0000 0.0000 0.0000 23.0604 0.0000
# 6 0.0000 0.0000 0.0000 0.0000 0.0000 24.3964
#
#
#
# Elastic Compliance Matrix: (Units=1/GPa)
#
#
# Indices 1 2 3 4 5 6 
#
# 1 0.017357 -0.002688 -0.005646 0.000000 0.000000 0.000000
# 2 -0.002688 0.009447 -0.003814 0.000000 0.000000 0.000000
# 3 -0.005646 -0.003814 0.010306 0.000000 0.000000 0.000000
# 4 0.000000 0.000000 0.000000 -0.005269 0.000000 0.000000
# 5 0.000000 0.000000 0.000000 0.000000 0.043364 0.000000
# 6 0.000000 0.000000 0.000000 0.000000 0.000000 0.040990
#
#
# Mechanical properties :
#
#
# Convention : Reuss Voigt Hill
#
# Bulk Modulus (GPa) = 78.04071 91.01945 84.53008
# Shear Modulus (GPa) = 34.53955 -14.90946 9.81504
#
# Velocity S-wave (km/s) = 4.23533 -2.78266 2.25775
# Velocity P-wave (km/s) = 8.02792 6.07836 7.12018
#
# Compressibility (1/GPa) = 0.01281383
#
# Stress axis : x y z
#
# Youngs Moduli (GPa) = 57.61370 105.85631 97.03257
#
# Poissons Ratio (x) = 0.28454 0.54788
# Poissons Ratio (y) = 0.15486 0.37003
# Poissons Ratio (z) = 0.32531 0.40368
#
# Static dielectric constant tensor:
#      x y z
#    x 1.645670 0.000000 0.000000 
#    y 0.000000 1.645360 0.000000 
#    z 0.000000 0.000000 1.674220 
# 
# From -- ./inp_files/66908.got.cif
#   From: 2010.05.17/outbox.cif.g08.bks.cpg/sg65_34_cif.got.tgz:66908.got - 2010.06.03 17:01:31.
