data_PCOD9484300
_publ_section_title
;
Structure prediction by ZEFSAII (Michael W. Deem and Ramdas Pophale) SiO2 
 PCOD9484300
Probable space group: C M M M
;
_chemical_formula_sum "Si O2"
_cell_formula_units_Z 88
_cell_length_a 8.046350
_cell_length_b 29.174610
_cell_length_c 18.519810
_cell_angle_alpha 90.000000
_cell_angle_beta 90.000000
_cell_angle_gamma 90.000000
_cell_volume 4347.509159
_symmetry_space_group_name_H-M "C M M M"
_symmetry_group_IT_number 65
_symmetry_cell_setting 'orthorhombic'
loop_
_space_group_symop_operation_xyz
x,y,z
-x,-y,z
x,-y,-z
-x,y,-z
-x,-y,-z
x,y,-z
-x,y,z
x,-y,z
1/2+x,1/2+y,z
1/2-x,1/2-y,z
1/2+x,1/2-y,-z
1/2-x,1/2+y,-z
1/2-x,1/2-y,-z
1/2+x,1/2+y,-z
1/2-x,1/2+y,z
1/2+x,1/2-y,z
loop_
_atom_site_type_symbol
_atom_site_label
_atom_site_fract_x
_atom_site_fract_y
_atom_site_fract_z
Si Si1 0.701868 0.945535 0.581737
Si Si2 0.796364 0.051227 0.000000
Si Si3 0.198398 0.122826 0.883842
Si Si4 0.306881 0.302704 0.654660
Si Si5 0.200850 0.196800 0.000000
Si Si6 0.300393 0.196495 0.500000
Si Si7 0.188511 0.610156 0.278064
O O1 0.758403 0.931608 0.500000
O O2 0.500000 0.939985 0.580548
O O3 0.762545 0.917915 0.652996
O O4 0.736641 0.000000 0.589497
O O5 0.742552 0.080044 0.068935
O O6 0.000000 0.050367 0.000000
O O7 0.735296 0.000000 0.000000
O O8 0.258395 0.168308 0.928075
O O9 0.235194 0.111027 0.801247
O O10 0.000000 0.125770 0.889264
O O11 0.500000 0.305913 0.673893
O O12 0.250000 0.250000 0.658456
O O13 0.277316 0.320809 0.573428
O O14 0.197580 0.336305 0.701544
O O15 0.250000 0.250000 0.000000
O O16 0.000000 0.195768 0.000000
O O17 0.500000 0.191590 0.500000
O O18 0.250000 0.250000 0.500000
O O19 0.000000 0.593973 0.271265
#
# Coordination Sequence:
#
# PCOD9484300 Si02
#       7
#    16   8  16  16   8   8  16
#     4   8  16  33  55  78 106 144 191 238 283 335
#     4   8  15  32  60  85 105 140 185 223 274 345
#     4   9  19  36  54  79 114 144 178 227 277 334
#     4  11  22  37  54  76 107 145 187 232 279 328
#     4   9  19  36  59  81 105 144 184 220 268 324
#     4  10  18  32  52  74 101 134 177 226 274 323
#     4  11  22  34  54  84 114 149 189 234 286 338
#
# _framework density 20.241475999999999
#
# number of rings (size 3 to 8) (size 9 to 14) (size 15 to 20)
#    0.000    2.455    0.000    5.727    1.273    2.182 
#    0.000    3.182    0.000    2.182    0.000    5.091 
#    0.000    0.000    0.000    0.000    0.000    0.000 
#
# Total GULP energy -245058.362947 kJ/mol
# GULP energy per Si atom -5569.508249 kJ/mol
# Density = 2.019541 g / cm^3
# Si number density = 20.241476 Si / 1000 Ang^3
#
#
#
# Elastic Constant Matrix: (Units=GPa)
#
#
# Indices 1 2 3 4 5 6 
#
# 1 30.2561 2.8792 2.3834 0.0000 0.0000 0.0000
# 2 2.8792 125.6283 90.5196 0.0000 0.0000 0.0000
# 3 2.3834 90.5196 182.4553 0.0000 0.0000 0.0000
# 4 0.0000 0.0000 0.0000 5.0988 0.0000 0.0000
# 5 0.0000 0.0000 0.0000 0.0000 21.9979 0.0000
# 6 0.0000 0.0000 0.0000 0.0000 0.0000 11.5687
#
#
#
# Elastic Compliance Matrix: (Units=1/GPa)
#
#
# Indices 1 2 3 4 5 6 
#
# 1 0.033124 -0.000696 -0.000087 0.000000 0.000000 0.000000
# 2 -0.000696 0.012403 -0.006144 0.000000 0.000000 0.000000
# 3 -0.000087 -0.006144 0.008530 0.000000 0.000000 0.000000
# 4 0.000000 0.000000 0.000000 0.196126 0.000000 0.000000
# 5 0.000000 0.000000 0.000000 0.000000 0.045459 0.000000
# 6 0.000000 0.000000 0.000000 0.000000 0.000000 0.086440
#
#
# Mechanical properties :
#
#
# Convention : Reuss Voigt Hill
#
# Bulk Modulus (GPa) = 24.87441 58.87824 41.87633
# Shear Modulus (GPa) = 12.21482 23.90359 18.05920
#
# Velocity S-wave (km/s) = 2.45920 3.44018 2.99019
# Velocity P-wave (km/s) = 4.51432 6.70305 5.71445
#
# Compressibility (1/GPa) = 0.04020196
#
# Stress axis : x y z
#
# Youngs Moduli (GPa) = 30.18929 80.62453 117.22957
#
# Poissons Ratio (x) = 0.05614 0.01023
# Poissons Ratio (y) = 0.02102 0.72030
# Poissons Ratio (z) = 0.00263 0.49539
#
# Static dielectric constant tensor:
#      x y z
#    x 1.743440 0.000000 0.000000 
#    y 0.000000 1.706220 0.000000 
#    z 0.000000 0.000000 1.856270 
# 
# From -- ./inp_files/50514.got.cif
#   From: 2010.05.17/outbox.cif.g08.bks.cpg/sg65_26_cif.got.tgz:50514.got - 2010.06.03 17:01:31.
