data_PCOD9484360
_publ_section_title
;
Structure prediction by ZEFSAII (Michael W. Deem and Ramdas Pophale) SiO2 
 PCOD9484360
Probable space group: C M M M
;
_chemical_formula_sum "Si O2"
_cell_formula_units_Z 72
_cell_length_a 19.417583
_cell_length_b 8.721008
_cell_length_c 23.754148
_cell_angle_alpha 90.000000
_cell_angle_beta 90.000000
_cell_angle_gamma 90.000000
_cell_volume 4022.548722
_symmetry_space_group_name_H-M "C M M M"
_symmetry_group_IT_number 65
_symmetry_cell_setting 'orthorhombic'
loop_
_space_group_symop_operation_xyz
x,y,z
-x,-y,z
x,-y,-z
-x,y,-z
-x,-y,-z
x,y,-z
-x,y,z
x,-y,z
1/2+x,1/2+y,z
1/2-x,1/2-y,z
1/2+x,1/2-y,-z
1/2-x,1/2+y,-z
1/2-x,1/2-y,-z
1/2+x,1/2+y,-z
1/2-x,1/2+y,z
1/2+x,1/2-y,z
loop_
_atom_site_type_symbol
_atom_site_label
_atom_site_fract_x
_atom_site_fract_y
_atom_site_fract_z
Si Si1 0.172767 0.182878 0.116547
Si Si2 0.418695 0.682232 0.336995
Si Si3 0.418463 0.817387 0.215718
Si Si4 0.827831 0.683595 0.000000
Si Si5 0.673435 0.183651 0.435864
O O1 0.250000 0.250000 0.123876
O O2 0.126179 0.232733 0.168783
O O3 0.142514 0.253155 0.058491
O O4 0.177197 0.000000 0.111517
O O5 0.500000 0.711534 0.345591
O O6 0.408491 0.500000 0.331981
O O7 0.398650 0.761752 0.278213
O O8 0.376172 0.747001 0.389097
O O9 0.500000 0.783887 0.208565
O O10 0.408705 0.000000 0.210955
O O11 0.750000 0.750000 0.000000
O O12 0.826810 0.500000 0.000000
O O13 0.651573 0.222187 0.500000
O O14 0.750000 0.250000 0.428141
O O15 0.675347 0.000000 0.430846
#
# Coordination Sequence:
#
# PCOD9484360 Si02
#       5
#    16  16  16   8  16
#     4  11  21  35  56  82 111 142 181 224 268 319
#     4  10  21  37  57  81 109 142 180 221 266 318
#     4  10  21  38  58  80 109 143 179 222 272 322
#     4  10  18  32  53  78 109 142 179 221 269 319
#     4  10  21  37  57  81 110 143 179 221 269 319
#
# _framework density 17.899099
#
# number of rings (size 3 to 8) (size 9 to 14) (size 15 to 20)
#    0.000    1.778    0.000    6.333    0.000    5.333 
#    0.000    7.222    0.000    3.333    0.000    0.000 
#    0.000    0.000    0.000    0.000    0.000    0.000 
#
# Total GULP energy -201064.933697 kJ/mol
# GULP energy per Si atom -5585.137047 kJ/mol
# Density = 1.785836 g / cm^3
# Si number density = 17.899099 Si / 1000 Ang^3
#
#
#
# Elastic Constant Matrix: (Units=GPa)
#
#
# Indices 1 2 3 4 5 6 
#
# 1 46.7516 49.7360 71.2209 0.0000 0.0000 0.0000
# 2 49.7360 127.0497 82.8874 0.0000 0.0000 0.0000
# 3 71.2209 82.8874 170.3888 0.0000 0.0000 0.0000
# 4 0.0000 0.0000 0.0000 37.4120 0.0000 0.0000
# 5 0.0000 0.0000 0.0000 0.0000 46.6268 0.0000
# 6 0.0000 0.0000 0.0000 0.0000 0.0000 27.5765
#
#
#
# Elastic Compliance Matrix: (Units=1/GPa)
#
#
# Indices 1 2 3 4 5 6 
#
# 1 0.069655 -0.012119 -0.023220 0.000000 0.000000 0.000000
# 2 -0.012119 0.013639 -0.001569 0.000000 0.000000 0.000000
# 3 -0.023220 -0.001569 0.016338 0.000000 0.000000 0.000000
# 4 0.000000 0.000000 0.000000 0.026729 0.000000 0.000000
# 5 0.000000 0.000000 0.000000 0.000000 0.021447 0.000000
# 6 0.000000 0.000000 0.000000 0.000000 0.000000 0.036263
#
#
# Mechanical properties :
#
#
# Convention : Reuss Voigt Hill
#
# Bulk Modulus (GPa) = 38.73586 83.54207 61.13897
# Shear Modulus (GPa) = 18.76231 31.67945 25.22088
#
# Velocity S-wave (km/s) = 3.24114 4.21157 3.75782
# Velocity P-wave (km/s) = 5.97452 8.39196 7.28423
#
# Compressibility (1/GPa) = 0.02581587
#
# Stress axis : x y z
#
# Youngs Moduli (GPa) = 14.35648 73.31977 61.20778
#
# Poissons Ratio (x) = 0.88858 1.42122
# Poissons Ratio (y) = 0.17399 0.09604
# Poissons Ratio (z) = 0.33335 0.11504
#
# Static dielectric constant tensor:
#      x y z
#    x 1.589120 0.000000 0.000000 
#    y 0.000000 1.597310 0.000000 
#    z 0.000000 0.000000 1.612740 
# 
# From -- ./inp_files/59285.got.cif
#   From: 2010.05.17/outbox.cif.g08.bks.cpg/sg65_30_cif.got.tgz:59285.got - 2010.06.03 17:01:31.
