data_PCOD9484475
_publ_section_title
;
Structure prediction by ZEFSAII (Michael W. Deem and Ramdas Pophale) SiO2 
 PCOD9484475
Probable space group: C M M M
;
_chemical_formula_sum "Si O2"
_cell_formula_units_Z 104
_cell_length_a 22.160654
_cell_length_b 15.627161
_cell_length_c 17.164373
_cell_angle_alpha 90.000000
_cell_angle_beta 90.000000
_cell_angle_gamma 90.000000
_cell_volume 5944.161537
_symmetry_space_group_name_H-M "C M M M"
_symmetry_group_IT_number 65
_symmetry_cell_setting 'orthorhombic'
loop_
_space_group_symop_operation_xyz
x,y,z
-x,-y,z
x,-y,-z
-x,y,-z
-x,-y,-z
x,y,-z
-x,y,z
x,-y,z
1/2+x,1/2+y,z
1/2-x,1/2-y,z
1/2+x,1/2-y,-z
1/2-x,1/2+y,-z
1/2-x,1/2-y,-z
1/2+x,1/2+y,-z
1/2-x,1/2+y,z
1/2+x,1/2-y,z
loop_
_atom_site_type_symbol
_atom_site_label
_atom_site_fract_x
_atom_site_fract_y
_atom_site_fract_z
Si Si1 0.234985 0.097752 0.335565
Si Si2 0.641046 0.404232 0.809036
Si Si3 0.432992 0.500000 0.593174
Si Si4 0.842237 0.599241 0.223782
Si Si5 0.631977 0.679422 0.590422
Si Si6 0.749175 0.352935 0.910484
Si Si7 0.071777 0.747889 0.260830
O O1 0.189811 0.097751 0.261414
O O2 0.299110 0.120436 0.298139
O O3 0.202880 0.162850 0.394025
O O4 0.237591 0.000000 0.366362
O O5 0.615262 0.500000 0.812457
O O6 0.683341 0.384944 0.883118
O O7 0.593980 0.330065 0.789081
O O8 0.500000 0.500000 0.628211
O O9 0.438700 0.500000 0.500000
O O10 0.397645 0.413539 0.610430
O O11 0.859530 0.500000 0.229619
O O12 0.799747 0.611399 0.148148
O O13 0.897383 0.664336 0.223949
O O14 0.620522 0.699511 0.500000
O O15 0.600430 0.740678 0.652678
O O16 0.750000 0.250000 0.902488
O O17 0.760807 0.375757 0.000000
O O18 0.000000 0.743755 0.264800
#
# Coordination Sequence:
#
# PCOD9484475 Si02
#       7
#    16  16   8  16  16  16  16
#     4   8  15  29  50  75 104 135 166 213 275 330
#     4   9  18  32  51  79 113 144 175 213 265 333
#     4   9  16  26  42  70 108 144 172 206 260 325
#     4  10  21  38  58  80 108 142 187 234 272 320
#     4  10  19  31  51  78 108 140 177 228 281 334
#     4  10  18  32  60  93 120 142 169 217 278 333
#     4  11  23  37  54  75 106 149 194 234 275 323
#
# _framework density 17.496158999999999
#
# number of rings (size 3 to 8) (size 9 to 14) (size 15 to 20)
#    0.000    2.385    2.308    1.846    1.077    2.769 
#    0.000    1.538    0.000    3.231    0.000    3.231 
#    0.000    0.000    0.000    0.000    0.000    0.000 
#
# Total GULP energy -289917.120393 kJ/mol
# GULP energy per Si atom -5575.329238 kJ/mol
# Density = 1.745634 g / cm^3
# Si number density = 17.496159 Si / 1000 Ang^3
#
#
#
# Elastic Constant Matrix: (Units=GPa)
#
#
# Indices 1 2 3 4 5 6 
#
# 1 94.9961 63.8257 35.4227 0.0000 0.0000 0.0000
# 2 63.8257 94.1331 33.5111 0.0000 0.0000 0.0000
# 3 35.4227 33.5111 74.3476 0.0000 0.0000 0.0000
# 4 0.0000 0.0000 0.0000 18.6567 0.0000 0.0000
# 5 0.0000 0.0000 0.0000 0.0000 11.4058 0.0000
# 6 0.0000 0.0000 0.0000 0.0000 0.0000 1.0754
#
#
#
# Elastic Compliance Matrix: (Units=1/GPa)
#
#
# Indices 1 2 3 4 5 6 
#
# 1 0.020352 -0.012325 -0.004141 0.000000 0.000000 0.000000
# 2 -0.012325 0.020118 -0.003196 0.000000 0.000000 0.000000
# 3 -0.004141 -0.003196 0.016864 0.000000 0.000000 0.000000
# 4 0.000000 0.000000 0.000000 0.053600 0.000000 0.000000
# 5 0.000000 0.000000 0.000000 0.000000 0.087675 0.000000
# 6 0.000000 0.000000 0.000000 0.000000 0.000000 0.929862
#
#
# Mechanical properties :
#
#
# Convention : Reuss Voigt Hill
#
# Bulk Modulus (GPa) = 55.52570 58.77729 57.15150
# Shear Modulus (GPa) = 4.25968 14.94208 9.60088
#
# Velocity S-wave (km/s) = 1.56202 2.92553 2.34507
# Velocity P-wave (km/s) = 5.92098 6.71409 6.32997
#
# Compressibility (1/GPa) = 0.01800968
#
# Stress axis : x y z
#
# Youngs Moduli (GPa) = 49.13559 49.70755 59.29878
#
# Poissons Ratio (x) = 0.61265 0.24557
# Poissons Ratio (y) = 0.60560 0.18949
# Poissons Ratio (z) = 0.20348 0.15884
#
# Static dielectric constant tensor:
#      x y z
#    x 1.604750 0.000000 0.000000 
#    y 0.000000 1.628190 0.000000 
#    z 0.000000 0.000000 1.608480 
# 
# From -- ./inp_files/55841.got.cif
#   From: 2010.05.17/outbox.cif.g08.bks.cpg/sg65_28_cif.got.tgz:55841.got - 2010.06.03 17:01:31.
