data_PCOD9484631
_publ_section_title
;
Structure prediction by ZEFSAII (Michael W. Deem and Ramdas Pophale) SiO2 
 PCOD9484631
Probable space group: C M M M
;
_chemical_formula_sum "Si O2"
_cell_formula_units_Z 96
_cell_length_a 9.296747
_cell_length_b 27.204957
_cell_length_c 24.235404
_cell_angle_alpha 90.000000
_cell_angle_beta 90.000000
_cell_angle_gamma 90.000000
_cell_volume 6129.560272
_symmetry_space_group_name_H-M "C M M M"
_symmetry_group_IT_number 65
_symmetry_cell_setting 'orthorhombic'
loop_
_space_group_symop_operation_xyz
x,y,z
-x,-y,z
x,-y,-z
-x,y,-z
-x,-y,-z
x,y,-z
-x,y,z
x,-y,z
1/2+x,1/2+y,z
1/2-x,1/2-y,z
1/2+x,1/2-y,-z
1/2-x,1/2+y,-z
1/2-x,1/2-y,-z
1/2+x,1/2+y,-z
1/2-x,1/2+y,z
1/2+x,1/2-y,z
loop_
_atom_site_type_symbol
_atom_site_label
_atom_site_fract_x
_atom_site_fract_y
_atom_site_fract_z
Si Si1 0.831995 0.440358 0.561123
Si Si2 0.828939 0.443443 0.104454
Si Si3 0.829880 0.058651 0.670901
Si Si4 0.670331 0.650947 0.936536
Si Si5 0.332007 0.901180 0.775914
Si Si6 0.670359 0.798688 0.836509
O O1 0.783332 0.423864 0.500000
O O2 0.824499 0.500000 0.560659
O O3 0.741903 0.423766 0.613779
O O4 0.000000 0.427429 0.567547
O O5 0.799906 0.500000 0.090197
O O6 0.734863 0.403715 0.072210
O O7 0.801653 0.433902 0.169598
O O8 0.000000 0.433689 0.095626
O O9 0.762735 0.084358 0.724106
O O10 0.000000 0.065847 0.668715
O O11 0.801712 0.000000 0.675909
O O12 0.500000 0.651403 0.923942
O O13 0.756433 0.685070 0.894039
O O14 0.690160 0.665792 0.000000
O O15 0.500000 0.908308 0.761995
O O16 0.311053 0.845199 0.796015
O O17 0.500000 0.790700 0.843918
O O18 0.750000 0.750000 0.816386
#
# Coordination Sequence:
#
# PCOD9484631 Si02
#       6
#    16  16  16  16  16  16
#     4   8  14  25  40  57  81 119 163 198 227 261
#     4   9  18  32  49  68  91 122 157 191 228 267
#     4  10  19  27  39  64  95 126 158 191 227 262
#     4  10  21  35  50  70  95 121 150 184 222 268
#     4   9  18  32  48  66  89 117 150 185 221 268
#     4  10  21  37  56  74  91 114 144 182 231 280
#
# _framework density 15.661808000000001
#
# number of rings (size 3 to 8) (size 9 to 14) (size 15 to 20)
#    0.000    2.667    0.000    3.500    0.000    7.667 
#    0.000    3.333    0.000    0.000    0.000    0.000 
#    0.000    0.667    0.000    2.167    0.000    2.667 
#
# Total GULP energy -267608.723429 kJ/mol
# GULP energy per Si atom -5575.181738 kJ/mol
# Density = 1.562616 g / cm^3
# Si number density = 15.661808 Si / 1000 Ang^3
#
#
#
# Elastic Constant Matrix: (Units=GPa)
#
#
# Indices 1 2 3 4 5 6 
#
# 1 73.4800 26.5091 56.4752 0.0000 0.0000 0.0000
# 2 26.5091 30.4942 4.4802 0.0000 0.0000 0.0000
# 3 56.4752 4.4802 82.9312 0.0000 0.0000 0.0000
# 4 0.0000 0.0000 0.0000 5.3150 0.0000 0.0000
# 5 0.0000 0.0000 0.0000 0.0000 12.8783 0.0000
# 6 0.0000 0.0000 0.0000 0.0000 0.0000 24.3277
#
#
#
# Elastic Compliance Matrix: (Units=1/GPa)
#
#
# Indices 1 2 3 4 5 6 
#
# 1 0.059413 -0.046070 -0.037971 0.000000 0.000000 0.000000
# 2 -0.046070 0.068779 0.027657 0.000000 0.000000 0.000000
# 3 -0.037971 0.027657 0.036422 0.000000 0.000000 0.000000
# 4 0.000000 0.000000 0.000000 0.188148 0.000000 0.000000
# 5 0.000000 0.000000 0.000000 0.000000 0.077650 0.000000
# 6 0.000000 0.000000 0.000000 0.000000 0.000000 0.041105
#
#
# Mechanical properties :
#
#
# Convention : Reuss Voigt Hill
#
# Bulk Modulus (GPa) = 19.28749 40.20383 29.74566
# Shear Modulus (GPa) = 8.31163 15.13358 11.72261
#
# Velocity S-wave (km/s) = 2.30618 3.11187 2.73881
# Velocity P-wave (km/s) = 4.40829 6.21589 5.38843
#
# Compressibility (1/GPa) = 0.05184708
#
# Stress axis : x y z
#
# Youngs Moduli (GPa) = 16.83129 14.53933 27.45618
#
# Poissons Ratio (x) = 0.66983 1.04253
# Poissons Ratio (y) = 0.77542 -0.75937
# Poissons Ratio (z) = 0.63910 -0.40212
#
# Static dielectric constant tensor:
#      x y z
#    x 1.518330 0.000000 0.000000 
#    y 0.000000 1.515980 0.000000 
#    z 0.000000 0.000000 1.517970 
# 
# From -- ./inp_files/68023.got.cif
#   From: 2010.05.17/outbox.cif.g08.bks.cpg/sg65_35_cif.got.tgz:68023.got - 2010.06.03 17:01:31.
