data_PCOD9484031
_publ_section_title
;
Structure prediction by ZEFSAII (Michael W. Deem and Ramdas Pophale) SiO2 
 PCOD9484031
Probable space group: C M M M
;
_chemical_formula_sum "Si O2"
_cell_formula_units_Z 88
_cell_length_a 10.297244
_cell_length_b 31.082630
_cell_length_c 17.785904
_cell_angle_alpha 90.000000
_cell_angle_beta 90.000000
_cell_angle_gamma 90.000000
_cell_volume 5692.652928
_symmetry_space_group_name_H-M "C M M M"
_symmetry_group_IT_number 65
_symmetry_cell_setting 'orthorhombic'
loop_
_space_group_symop_operation_xyz
x,y,z
-x,-y,z
x,-y,-z
-x,y,-z
-x,-y,-z
x,y,-z
-x,y,z
x,-y,z
1/2+x,1/2+y,z
1/2-x,1/2-y,z
1/2+x,1/2-y,-z
1/2-x,1/2+y,-z
1/2-x,1/2-y,-z
1/2+x,1/2+y,-z
1/2-x,1/2+y,z
1/2+x,1/2-y,z
loop_
_atom_site_type_symbol
_atom_site_label
_atom_site_fract_x
_atom_site_fract_y
_atom_site_fract_z
Si Si1 0.252640 0.155933 0.280891
Si Si2 0.845760 0.290285 0.589786
Si Si3 0.737056 0.590568 0.842414
Si Si4 0.000000 0.695943 0.197883
Si Si5 0.500000 0.356461 0.088046
Si Si6 0.500000 0.873135 0.911640
Si Si7 0.000000 0.796565 0.220762
Si Si8 0.157114 0.000000 0.909833
O O1 0.293732 0.167610 0.365917
O O2 0.233865 0.108325 0.244243
O O3 0.371987 0.176128 0.234940
O O4 0.124686 0.183090 0.261171
O O5 0.837367 0.295778 0.500000
O O6 0.750000 0.250000 0.609795
O O7 0.000000 0.282470 0.607682
O O8 0.625648 0.617288 0.885278
O O9 0.874496 0.604144 0.876586
O O10 0.708224 0.541611 0.864768
O O11 0.000000 0.676913 0.113855
O O12 0.000000 0.745834 0.215076
O O13 0.500000 0.313096 0.135259
O O14 0.500000 0.350513 0.000000
O O15 0.500000 0.877346 0.000000
O O16 0.000000 0.000000 0.908315
O O17 0.193397 0.000000 0.000000
#
# Coordination Sequence:
#
# PCOD9484031 Si02
#       8
#    16  16  16   8   8   8   8   8
#     4  10  20  33  48  69 101 133 168 206 244 297
#     4  10  20  33  52  79 108 139 174 211 251 294
#     4  10  21  34  50  73  97 128 165 204 257 309
#     4  10  18  31  46  63  92 132 171 202 239 287
#     4  10  18  32  48  67  96 126 167 214 250 288
#     4  10  20  32  46  65  96 128 159 204 252 298
#     4  10  20  29  46  69  92 132 175 210 241 281
#     4  11  20  33  57  79  98 123 164 216 265 317
#
# _framework density 15.458523
#
# number of rings (size 3 to 8) (size 9 to 14) (size 15 to 20)
#    0.000    1.909    1.818    3.273    1.273    0.727 
#    0.000    0.909    0.000    6.545    0.000    0.636 
#    0.000    2.182    0.000    0.000    0.000    0.000 
#
# Total GULP energy -245009.717625 kJ/mol
# GULP energy per Si atom -5568.402673 kJ/mol
# Density = 1.542334 g / cm^3
# Si number density = 15.458523 Si / 1000 Ang^3
#
#
#
# Elastic Constant Matrix: (Units=GPa)
#
#
# Indices 1 2 3 4 5 6 
#
# 1 117.0007 25.0819 24.5209 0.0000 0.0000 0.0000
# 2 25.0819 100.0141 41.5293 0.0000 0.0000 0.0000
# 3 24.5209 41.5293 86.6789 0.0000 0.0000 0.0000
# 4 0.0000 0.0000 0.0000 19.5635 0.0000 0.0000
# 5 0.0000 0.0000 0.0000 0.0000 22.1845 0.0000
# 6 0.0000 0.0000 0.0000 0.0000 0.0000 19.7602
#
#
#
# Elastic Compliance Matrix: (Units=1/GPa)
#
#
# Indices 1 2 3 4 5 6 
#
# 1 0.009273 -0.001543 -0.001884 0.000000 0.000000 0.000000
# 2 -0.001543 0.012739 -0.005667 0.000000 0.000000 0.000000
# 3 -0.001884 -0.005667 0.014785 0.000000 0.000000 0.000000
# 4 0.000000 0.000000 0.000000 0.051116 0.000000 0.000000
# 5 0.000000 0.000000 0.000000 0.000000 0.045076 0.000000
# 6 0.000000 0.000000 0.000000 0.000000 0.000000 0.050607
#
#
# Mechanical properties :
#
#
# Convention : Reuss Voigt Hill
#
# Bulk Modulus (GPa) = 53.73873 53.99533 53.86703
# Shear Modulus (GPa) = 24.04020 26.47242 25.25631
#
# Velocity S-wave (km/s) = 3.94781 4.14270 4.04643
# Velocity P-wave (km/s) = 7.45781 7.60839 7.53348
#
# Compressibility (1/GPa) = 0.01860855
#
# Stress axis : x y z
#
# Youngs Moduli (GPa) = 107.84480 78.50150 67.63722
#
# Poissons Ratio (x) = 0.12114 0.12741
# Poissons Ratio (y) = 0.16643 0.38328
# Poissons Ratio (z) = 0.20316 0.44485
#
# Static dielectric constant tensor:
#      x y z
#    x 1.514930 0.000000 0.000000 
#    y 0.000000 1.524270 0.000000 
#    z 0.000000 0.000000 1.541390 
# 
# From -- ./inp_files/50575.got.cif
#   From: 2010.05.17/outbox.cif.g08.bks.cpg/sg65_26_cif.got.tgz:50575.got - 2010.06.03 17:01:31.
