data_PCOD9484347
_publ_section_title
;
Structure prediction by ZEFSAII (Michael W. Deem and Ramdas Pophale) SiO2 
 PCOD9484347
Probable space group: C M M M
;
_chemical_formula_sum "Si O2"
_cell_formula_units_Z 80
_cell_length_a 8.706132
_cell_length_b 19.449569
_cell_length_c 26.823176
_cell_angle_alpha 90.000000
_cell_angle_beta 90.000000
_cell_angle_gamma 90.000000
_cell_volume 4541.982208
_symmetry_space_group_name_H-M "C M M M"
_symmetry_group_IT_number 65
_symmetry_cell_setting 'orthorhombic'
loop_
_space_group_symop_operation_xyz
x,y,z
-x,-y,z
x,-y,-z
-x,y,-z
-x,-y,-z
x,y,-z
-x,y,z
x,-y,z
1/2+x,1/2+y,z
1/2-x,1/2-y,z
1/2+x,1/2-y,-z
1/2-x,1/2+y,-z
1/2-x,1/2-y,-z
1/2+x,1/2+y,-z
1/2-x,1/2+y,z
1/2+x,1/2-y,z
loop_
_atom_site_type_symbol
_atom_site_label
_atom_site_fract_x
_atom_site_fract_y
_atom_site_fract_z
Si Si1 0.815943 0.581507 0.690292
Si Si2 0.684241 0.327185 0.891113
Si Si3 0.815077 0.827247 0.000000
Si Si4 0.682613 0.673040 0.603040
Si Si5 0.314873 0.079680 0.196176
Si Si6 0.683588 0.827729 0.500000
O O1 0.787009 0.500000 0.683730
O O2 0.730036 0.626609 0.649624
O O3 0.771520 0.599684 0.747202
O O4 0.000000 0.591902 0.685350
O O5 0.500000 0.323876 0.889284
O O6 0.750000 0.250000 0.887241
O O7 0.730947 0.356611 0.945992
O O8 0.744766 0.372857 0.846097
O O9 0.750000 0.750000 0.000000
O O10 0.000000 0.824574 0.000000
O O11 0.500000 0.677884 0.597793
O O12 0.750000 0.750000 0.609703
O O13 0.753860 0.642550 0.551859
O O14 0.500000 0.083057 0.193670
O O15 0.270064 0.000000 0.188863
O O16 0.500000 0.826550 0.500000
O O17 0.750000 0.750000 0.500000
#
# Coordination Sequence:
#
# PCOD9484347 Si02
#       6
#    16  16   8  16  16   8
#     4   9  19  37  57  75 100 135 171 209 257 307
#     4  10  19  32  52  76 102 132 168 210 253 301
#     4   8  16  30  47  70  99 131 165 203 251 300
#     4  11  21  34  54  80 108 136 171 212 252 298
#     4   9  19  36  55  74 100 134 170 209 254 304
#     4  10  18  32  53  76 105 138 171 207 253 303
#
# _framework density 17.613454000000001
#
# number of rings (size 3 to 8) (size 9 to 14) (size 15 to 20)
#    0.000    2.400    0.000    5.700    0.000    3.200 
#    0.000    3.000    0.000    6.000    0.000    0.000 
#    0.000    0.000    0.000    0.000    0.000    0.000 
#
# Total GULP energy -223010.591138 kJ/mol
# GULP energy per Si atom -5575.264778 kJ/mol
# Density = 1.757337 g / cm^3
# Si number density = 17.613454 Si / 1000 Ang^3
#
#
#
# Elastic Constant Matrix: (Units=GPa)
#
#
# Indices 1 2 3 4 5 6 
#
# 1 86.1583 36.2061 72.8065 0.0000 0.0000 0.0000
# 2 36.2061 47.7041 77.7804 0.0000 0.0000 0.0000
# 3 72.8065 77.7804 201.0406 0.0000 0.0000 0.0000
# 4 0.0000 0.0000 0.0000 -101.8453 0.0000 0.0000
# 5 0.0000 0.0000 0.0000 0.0000 29.4969 0.0000
# 6 0.0000 0.0000 0.0000 0.0000 0.0000 25.7040
#
#
#
# Elastic Compliance Matrix: (Units=1/GPa)
#
#
# Indices 1 2 3 4 5 6 
#
# 1 0.017818 -0.008132 -0.003306 0.000000 0.000000 0.000000
# 2 -0.008132 0.060492 -0.020459 0.000000 0.000000 0.000000
# 3 -0.003306 -0.020459 0.014087 0.000000 0.000000 0.000000
# 4 0.000000 0.000000 0.000000 -0.009819 0.000000 0.000000
# 5 0.000000 0.000000 0.000000 0.000000 0.033902 0.000000
# 6 0.000000 0.000000 0.000000 0.000000 0.000000 0.038904
#
#
# Mechanical properties :
#
#
# Convention : Reuss Voigt Hill
#
# Bulk Modulus (GPa) = 34.96244 78.72100 56.84172
# Shear Modulus (GPa) = 21.86145 0.54511 11.20328
#
# Velocity S-wave (km/s) = 3.52686 0.55692 2.52477
# Velocity P-wave (km/s) = 6.03970 6.72341 6.39070
#
# Compressibility (1/GPa) = 0.02860212
#
# Stress axis : x y z
#
# Youngs Moduli (GPa) = 56.12293 16.53111 70.98855
#
# Poissons Ratio (x) = 0.13443 0.23472
# Poissons Ratio (y) = 0.45640 1.45233
# Poissons Ratio (z) = 0.18557 0.33820
#
# Static dielectric constant tensor:
#      x y z
#    x 1.596040 0.000000 0.000000 
#    y 0.000000 1.567090 0.000000 
#    z 0.000000 0.000000 1.635770 
# 
# From -- ./inp_files/67301.got.cif
#   From: 2010.05.17/outbox.cif.g08.bks.cpg/sg65_34_cif.got.tgz:67301.got - 2010.06.03 17:01:31.
