data_PCOD9484005
_publ_section_title
;
Structure prediction by ZEFSAII (Michael W. Deem and Ramdas Pophale) SiO2 
 PCOD9484005
Probable space group: C M M M
;
_chemical_formula_sum "Si O2"
_cell_formula_units_Z 92
_cell_length_a 27.721271
_cell_length_b 22.431144
_cell_length_c 7.437843
_cell_angle_alpha 90.000000
_cell_angle_beta 90.000000
_cell_angle_gamma 90.000000
_cell_volume 4624.998208
_symmetry_space_group_name_H-M "C M M M"
_symmetry_group_IT_number 65
_symmetry_cell_setting 'orthorhombic'
loop_
_space_group_symop_operation_xyz
x,y,z
-x,-y,z
x,-y,-z
-x,y,-z
-x,-y,-z
x,y,-z
-x,y,z
x,-y,z
1/2+x,1/2+y,z
1/2-x,1/2-y,z
1/2+x,1/2-y,-z
1/2-x,1/2+y,-z
1/2-x,1/2-y,-z
1/2+x,1/2+y,-z
1/2-x,1/2+y,z
1/2+x,1/2-y,z
loop_
_atom_site_type_symbol
_atom_site_label
_atom_site_fract_x
_atom_site_fract_y
_atom_site_fract_z
Si Si1 0.906136 0.000000 0.500000
Si Si2 0.000000 0.431478 0.279734
Si Si3 0.880878 0.902629 0.794921
Si Si4 0.418384 0.158943 0.288559
Si Si5 0.294183 0.672996 0.218812
Si Si6 0.186215 0.306883 0.783735
Si Si7 0.444405 0.709440 0.717007
O O1 0.903942 0.948300 0.657576
O O2 0.952667 0.393925 0.220683
O O3 0.000000 0.500000 0.219348
O O4 0.000000 0.433484 0.500000
O O5 0.827957 0.881567 0.728393
O O6 0.910953 0.841397 0.795703
O O7 0.877786 0.924941 0.000000
O O8 0.429254 0.161706 0.500000
O O9 0.360705 0.155786 0.269034
O O10 0.432316 0.224172 0.215586
O O11 0.238482 0.669277 0.275590
O O12 0.315168 0.737507 0.278029
O O13 0.294860 0.674201 0.000000
O O14 0.186818 0.305459 0.000000
O O15 0.438150 0.708639 0.500000
O O16 0.500000 0.696497 0.756109
#
# Coordination Sequence:
#
# PCOD9484005 Si02
#       7
#     4   8  16  16  16  16  16
#     4  12  26  44  61  86 116 158 198 253 298 350
#     4   9  18  34  55  77 115 163 202 235 284 350
#     4  11  22  40  63  86 115 158 205 243 298 367
#     4  10  18  30  52  85 114 152 196 242 298 348
#     4   8  16  31  54  81 112 147 182 231 296 355
#     4   9  16  30  52  82 116 144 178 236 300 346
#     4  10  19  34  56  85 119 148 189 253 310 351
#
# _framework density 19.891898999999999
#
# number of rings (size 3 to 8) (size 9 to 14) (size 15 to 20)
#    0.000    2.348    3.478    1.304    0.000    0.348 
#    1.565    2.174    1.913    2.087    0.000    0.000 
#    0.000    0.000    0.000    0.000    0.000    0.000 
#
# Total GULP energy -256148.661374 kJ/mol
# GULP energy per Si atom -5568.449160 kJ/mol
# Density = 1.984662 g / cm^3
# Si number density = 19.891899 Si / 1000 Ang^3
#
#
#
# Elastic Constant Matrix: (Units=GPa)
#
#
# Indices 1 2 3 4 5 6 
#
# 1 108.0442 50.2746 2.2286 0.0000 0.0000 0.0000
# 2 50.2746 119.3843 20.0667 0.0000 0.0000 0.0000
# 3 2.2286 20.0667 81.4360 0.0000 0.0000 0.0000
# 4 0.0000 0.0000 0.0000 43.2432 0.0000 0.0000
# 5 0.0000 0.0000 0.0000 0.0000 16.6142 0.0000
# 6 0.0000 0.0000 0.0000 0.0000 0.0000 -6.0285
#
#
#
# Elastic Compliance Matrix: (Units=1/GPa)
#
#
# Indices 1 2 3 4 5 6 
#
# 1 0.011577 -0.005030 0.000923 0.000000 0.000000 0.000000
# 2 -0.005030 0.010924 -0.002554 0.000000 0.000000 0.000000
# 3 0.000923 -0.002554 0.012884 0.000000 0.000000 0.000000
# 4 0.000000 0.000000 0.000000 0.023125 0.000000 0.000000
# 5 0.000000 0.000000 0.000000 0.000000 0.060190 0.000000
# 6 0.000000 0.000000 0.000000 0.000000 0.000000 -0.165880
#
#
# Mechanical properties :
#
#
# Convention : Reuss Voigt Hill
#
# Bulk Modulus (GPa) = 45.32839 50.44492 47.88665
# Shear Modulus (GPa) = -188.65710 26.51875 -81.06918
#
# Velocity S-wave (km/s) = -9.74921 3.65518 -6.39088
# Velocity P-wave (km/s) = 10.19277 6.57483 5.50746
#
# Compressibility (1/GPa) = 0.02206123
#
# Stress axis : x y z
#
# Youngs Moduli (GPa) = 86.37685 91.54144 77.61745
#
# Poissons Ratio (x) = 0.46049 -0.07162
# Poissons Ratio (y) = 0.43451 0.19825
# Poissons Ratio (z) = -0.07970 0.23381
#
# Static dielectric constant tensor:
#      x y z
#    x 1.737560 0.000000 0.000000 
#    y 0.000000 1.666670 0.000000 
#    z 0.000000 0.000000 1.751470 
# 
# From -- ./inp_files/16367.got.cif
#   From: 2010.05.17/outbox.cif.g08.bks.cpg/sg65_9_cif.got.tgz:16367.got - 2010.06.03 17:01:31.
