data_PCOD9484582
_publ_section_title
;
Structure prediction by ZEFSAII (Michael W. Deem and Ramdas Pophale) SiO2 
 PCOD9484582
Probable space group: C M M M
;
_chemical_formula_sum "Si O2"
_cell_formula_units_Z 80
_cell_length_a 24.139913
_cell_length_b 13.626131
_cell_length_c 11.661465
_cell_angle_alpha 90.000000
_cell_angle_beta 90.000000
_cell_angle_gamma 90.000000
_cell_volume 3835.847860
_symmetry_space_group_name_H-M "C M M M"
_symmetry_group_IT_number 65
_symmetry_cell_setting 'orthorhombic'
loop_
_space_group_symop_operation_xyz
x,y,z
-x,-y,z
x,-y,-z
-x,y,-z
-x,-y,-z
x,y,-z
-x,y,z
x,-y,z
1/2+x,1/2+y,z
1/2-x,1/2-y,z
1/2+x,1/2-y,-z
1/2-x,1/2+y,-z
1/2-x,1/2-y,-z
1/2+x,1/2+y,-z
1/2-x,1/2+y,z
1/2+x,1/2-y,z
loop_
_atom_site_type_symbol
_atom_site_label
_atom_site_fract_x
_atom_site_fract_y
_atom_site_fract_z
Si Si1 0.170438 0.382142 0.869807
Si Si2 0.219911 0.118924 0.256822
Si Si3 0.327133 0.381535 0.500000
Si Si4 0.063136 0.241427 0.500000
Si Si5 0.604728 0.614424 0.135800
Si Si6 0.061525 0.698021 0.246897
O O1 0.174421 0.500000 0.874296
O O2 0.221494 0.346269 0.792181
O O3 0.111429 0.354969 0.817024
O O4 0.175318 0.344920 0.000000
O O5 0.203359 0.152255 0.384121
O O6 0.168065 0.137286 0.172499
O O7 0.223941 0.000000 0.263578
O O8 0.329004 0.500000 0.500000
O O9 0.389158 0.339706 0.500000
O O10 0.069324 0.303578 0.616319
O O11 0.000000 0.202067 0.500000
O O12 0.594348 0.500000 0.162720
O O13 0.567039 0.688696 0.206711
O O14 0.597331 0.628355 0.000000
O O15 0.000000 0.661386 0.218277
#
# Coordination Sequence:
#
# PCOD9484582 Si02
#       6
#    16  16   8   8  16  16
#     4  10  22  41  64  88 117 156 199 248 307 361
#     4   9  18  34  57  88 121 150 192 244 293 354
#     4  10  18  34  61  90 121 161 203 246 292 343
#     4  10  22  40  58  81 121 163 199 246 297 349
#     4  10  20  35  57  85 121 160 192 236 299 360
#     4  11  24  41  60  86 118 155 205 255 296 351
#
# _framework density 20.855885000000001
#
# number of rings (size 3 to 8) (size 9 to 14) (size 15 to 20)
#    0.000    2.000    2.000    1.200    0.000    6.600 
#    0.000    8.500    0.000    1.800    0.000    0.000 
#    0.000    0.000    0.000    0.000    0.000    0.000 
#
# Total GULP energy -223572.767291 kJ/mol
# GULP energy per Si atom -5589.319182 kJ/mol
# Density = 2.080842 g / cm^3
# Si number density = 20.855885 Si / 1000 Ang^3
#
#
#
# Elastic Constant Matrix: (Units=GPa)
#
#
# Indices 1 2 3 4 5 6 
#
# 1 149.9890 8.3356 68.5873 0.0000 0.0000 0.0000
# 2 8.3356 30.3921 6.6279 0.0000 0.0000 0.0000
# 3 68.5873 6.6279 140.8418 0.0000 0.0000 0.0000
# 4 0.0000 0.0000 0.0000 19.2237 0.0000 0.0000
# 5 0.0000 0.0000 0.0000 0.0000 -105.0801 0.0000
# 6 0.0000 0.0000 0.0000 0.0000 0.0000 27.7903
#
#
#
# Elastic Compliance Matrix: (Units=1/GPa)
#
#
# Indices 1 2 3 4 5 6 
#
# 1 0.008641 -0.001467 -0.004139 0.000000 0.000000 0.000000
# 2 -0.001467 0.033494 -0.000862 0.000000 0.000000 0.000000
# 3 -0.004139 -0.000862 0.009156 0.000000 0.000000 0.000000
# 4 0.000000 0.000000 0.000000 0.052019 0.000000 0.000000
# 5 0.000000 0.000000 0.000000 0.000000 -0.009517 0.000000
# 6 0.000000 0.000000 0.000000 0.000000 0.000000 0.035984
#
#
# Mechanical properties :
#
#
# Convention : Reuss Voigt Hill
#
# Bulk Modulus (GPa) = 26.07211 54.25829 40.16520
# Shear Modulus (GPa) = 32.15450 4.23159 18.19305
#
# Velocity S-wave (km/s) = 3.93077 1.42596 2.95671
# Velocity P-wave (km/s) = 5.75582 5.36502 5.56385
#
# Compressibility (1/GPa) = 0.03835516
#
# Stress axis : x y z
#
# Youngs Moduli (GPa) = 115.72093 29.85643 109.21311
#
# Poissons Ratio (x) = 0.04381 0.45205
# Poissons Ratio (y) = 0.16981 0.09410
# Poissons Ratio (z) = 0.47899 0.02572
#
# Static dielectric constant tensor:
#      x y z
#    x 1.713760 0.000000 0.000000 
#    y 0.000000 1.793510 0.000000 
#    z 0.000000 0.000000 1.725130 
# 
# From -- ./inp_files/30421.got.cif
#   From: 2010.05.17/outbox.cif.g08.bks.cpg/sg65_16_cif.got.tgz:30421.got - 2010.06.03 17:01:31.
