data_PCOD9484768
_publ_section_title
;
Structure prediction by ZEFSAII (Michael W. Deem and Ramdas Pophale) SiO2 
 PCOD9484768
Probable space group: C M M M
;
_chemical_formula_sum "Si O2"
_cell_formula_units_Z 104
_cell_length_a 18.698835
_cell_length_b 7.346046
_cell_length_c 35.122067
_cell_angle_alpha 90.000000
_cell_angle_beta 90.000000
_cell_angle_gamma 90.000000
_cell_volume 4824.455001
_symmetry_space_group_name_H-M "C M M M"
_symmetry_group_IT_number 65
_symmetry_cell_setting 'orthorhombic'
loop_
_space_group_symop_operation_xyz
x,y,z
-x,-y,z
x,-y,-z
-x,y,-z
-x,-y,-z
x,y,-z
-x,y,z
x,-y,z
1/2+x,1/2+y,z
1/2-x,1/2-y,z
1/2+x,1/2-y,-z
1/2-x,1/2+y,-z
1/2-x,1/2-y,-z
1/2+x,1/2+y,-z
1/2-x,1/2+y,z
1/2+x,1/2-y,z
loop_
_atom_site_type_symbol
_atom_site_label
_atom_site_fract_x
_atom_site_fract_y
_atom_site_fract_z
Si Si1 0.834705 0.717122 0.500000
Si Si2 0.917028 0.278441 0.190393
Si Si3 0.082966 0.277363 0.424600
Si Si4 0.583129 0.778385 0.042254
Si Si5 0.083086 0.721688 0.724690
Si Si6 0.833909 0.717143 0.883615
Si Si7 0.165740 0.282821 0.349383
O O1 0.844305 0.500000 0.500000
O O2 0.750000 0.750000 0.500000
O O3 0.873547 0.784128 0.461806
O O4 0.914797 0.500000 0.190588
O O5 0.894651 0.219664 0.232833
O O6 0.870021 0.213337 0.155159
O O7 0.000000 0.227800 0.184930
O O8 0.083711 0.500000 0.424557
O O9 0.122750 0.215792 0.386268
O O10 0.000000 0.222800 0.425682
O O11 0.500000 0.727532 0.047078
O O12 0.629325 0.713308 0.077793
O O13 0.585179 0.000000 0.042163
O O14 0.606969 0.719823 0.000000
O O15 0.084501 0.500000 0.724821
O O16 0.132313 0.785985 0.690177
O O17 0.000000 0.773107 0.718728
O O18 0.845784 0.500000 0.883588
O O19 0.750000 0.750000 0.883815
O O20 0.155549 0.500000 0.348966
O O21 0.250000 0.250000 0.352444
#
# Coordination Sequence:
#
# PCOD9484768 Si02
#       7
#     8  16  16  16  16  16  16
#     4  10  19  31  49  71  95 120 146 182 226 268
#     4   8  14  26  45  66  85 109 147 189 218 245
#     4   9  17  30  49  70  89 115 155 193 218 249
#     4   8  14  26  45  66  84 106 143 186 217 244
#     4   8  14  26  45  67  87 110 146 188 221 250
#     4  10  19  29  43  65  91 116 141 173 216 261
#     4  10  19  30  46  68  93 119 146 180 222 265
#
# _framework density 21.556837999999999
#
# number of rings (size 3 to 8) (size 9 to 14) (size 15 to 20)
#    0.000    3.077    0.000    3.000    0.000    5.538 
#    0.000    0.000    0.000    5.538    0.000    3.231 
#    0.000    0.000    0.000    0.000    0.000    0.000 
#
# Total GULP energy -290376.720344 kJ/mol
# GULP energy per Si atom -5584.167699 kJ/mol
# Density = 2.150777 g / cm^3
# Si number density = 21.556838 Si / 1000 Ang^3
#
#
#
# Elastic Constant Matrix: (Units=GPa)
#
#
# Indices 1 2 3 4 5 6 
#
# 1 169.0119 -2.3853 162.1951 0.0000 0.0000 0.0000
# 2 -2.3853 81.3264 11.1233 0.0000 0.0000 0.0000
# 3 162.1951 11.1233 277.1041 0.0000 0.0000 0.0000
# 4 0.0000 0.0000 0.0000 -13.5276 0.0000 0.0000
# 5 0.0000 0.0000 0.0000 0.0000 0.9511 0.0000
# 6 0.0000 0.0000 0.0000 0.0000 0.0000 19.0904
#
#
#
# Elastic Compliance Matrix: (Units=1/GPa)
#
#
# Indices 1 2 3 4 5 6 
#
# 1 0.013680 0.001505 -0.008068 0.000000 0.000000 0.000000
# 2 0.001505 0.012530 -0.001384 0.000000 0.000000 0.000000
# 3 -0.008068 -0.001384 0.008387 0.000000 0.000000 0.000000
# 4 0.000000 0.000000 0.000000 -0.073923 0.000000 0.000000
# 5 0.000000 0.000000 0.000000 0.000000 1.051418 0.000000
# 6 0.000000 0.000000 0.000000 0.000000 0.000000 0.052382
#
#
# Mechanical properties :
#
#
# Convention : Reuss Voigt Hill
#
# Bulk Modulus (GPa) = 53.46770 96.58983 75.02876
# Shear Modulus (GPa) = 4.60150 25.07007 14.83579
#
# Velocity S-wave (km/s) = 1.46261 3.41394 2.62624
# Velocity P-wave (km/s) = 5.26396 7.77459 6.63904
#
# Compressibility (1/GPa) = 0.01870288
#
# Stress axis : x y z
#
# Youngs Moduli (GPa) = 73.09709 79.81149 119.23795
#
# Poissons Ratio (x) = -0.12009 0.96200
# Poissons Ratio (y) = -0.10999 0.16499
# Poissons Ratio (z) = 0.58974 0.11044
#
# Static dielectric constant tensor:
#      x y z
#    x 1.708420 0.000000 0.000000 
#    y 0.000000 1.871660 0.000000 
#    z 0.000000 0.000000 1.774210 
# 
# From -- ./inp_files/78051.got.cif
#   From: 2010.05.17/outbox.cif.g08.bks.cpg/sg65_40_cif.got.tgz:78051.got - 2010.06.03 17:01:31.
