data_PCOD9484281
_publ_section_title
;
Structure prediction by ZEFSAII (Michael W. Deem and Ramdas Pophale) SiO2 
 PCOD9484281
Probable space group: C M M M
;
_chemical_formula_sum "Si O2"
_cell_formula_units_Z 112
_cell_length_a 15.711279
_cell_length_b 25.220885
_cell_length_c 15.588883
_cell_angle_alpha 90.000000
_cell_angle_beta 90.000000
_cell_angle_gamma 90.000000
_cell_volume 6177.131692
_symmetry_space_group_name_H-M "C M M M"
_symmetry_group_IT_number 65
_symmetry_cell_setting 'orthorhombic'
loop_
_space_group_symop_operation_xyz
x,y,z
-x,-y,z
x,-y,-z
-x,y,-z
-x,-y,-z
x,y,-z
-x,y,z
x,-y,z
1/2+x,1/2+y,z
1/2-x,1/2-y,z
1/2+x,1/2-y,-z
1/2-x,1/2+y,-z
1/2-x,1/2-y,-z
1/2+x,1/2+y,-z
1/2-x,1/2+y,z
1/2+x,1/2-y,z
loop_
_atom_site_type_symbol
_atom_site_label
_atom_site_fract_x
_atom_site_fract_y
_atom_site_fract_z
Si Si1 0.399480 0.232674 0.095891
Si Si2 0.695577 0.295091 0.753701
Si Si3 0.335588 0.563661 0.096724
Si Si4 0.763665 0.063549 0.403976
Si Si5 0.324370 0.874225 0.845666
Si Si6 0.597267 0.391759 0.275143
Si Si7 0.404688 0.936313 0.304943
O O1 0.500000 0.238793 0.111823
O O2 0.345272 0.265314 0.164553
O O3 0.374602 0.170691 0.102584
O O4 0.379888 0.251871 0.000000
O O5 0.750000 0.250000 0.705189
O O6 0.762516 0.339276 0.784659
O O7 0.620437 0.329611 0.713528
O O8 0.334613 0.500000 0.108643
O O9 0.240278 0.587701 0.103786
O O10 0.386243 0.590201 0.176027
O O11 0.368296 0.574836 0.000000
O O12 0.779507 0.084152 0.500000
O O13 0.836158 0.078772 0.336435
O O14 0.671075 0.080310 0.368689
O O15 0.761714 0.000000 0.407914
O O16 0.385146 0.908677 0.785530
O O17 0.500000 0.402957 0.296798
O O18 0.500000 0.923059 0.334598
O O19 0.399594 0.000000 0.295111
#
# Coordination Sequence:
#
# PCOD9484281 Si02
#       7
#    16  16  16  16  16  16  16
#     4  10  20  32  47  73 107 140 184 241 290 333
#     4   9  19  33  53  74 100 138 183 226 279 330
#     4  10  20  33  51  76 110 153 196 235 276 328
#     4  10  21  38  60  88 120 150 185 229 281 343
#     4  10  18  32  51  74 106 145 186 223 276 334
#     4  11  22  37  58  84 115 152 192 234 284 341
#     4  10  19  33  57  86 114 146 186 232 283 338
#
# _framework density 18.131392999999999
#
# number of rings (size 3 to 8) (size 9 to 14) (size 15 to 20)
#    0.000    2.000    2.857    2.143    0.000    6.857 
#    0.000    2.857    0.000    0.429    0.000    6.000 
#    0.000    0.000    0.000    0.000    0.000    0.000 
#
# Total GULP energy -312043.984400 kJ/mol
# GULP energy per Si atom -5572.214007 kJ/mol
# Density = 1.809013 g / cm^3
# Si number density = 18.131393 Si / 1000 Ang^3
#
#
#
# Elastic Constant Matrix: (Units=GPa)
#
#
# Indices 1 2 3 4 5 6 
#
# 1 118.4335 16.5912 39.0134 0.0000 0.0000 0.0000
# 2 16.5912 45.4953 11.2426 0.0000 0.0000 0.0000
# 3 39.0134 11.2426 72.9002 0.0000 0.0000 0.0000
# 4 0.0000 0.0000 0.0000 9.2213 0.0000 0.0000
# 5 0.0000 0.0000 0.0000 0.0000 8.3235 0.0000
# 6 0.0000 0.0000 0.0000 0.0000 0.0000 24.3985
#
#
#
# Elastic Compliance Matrix: (Units=1/GPa)
#
#
# Indices 1 2 3 4 5 6 
#
# 1 0.010526 -0.002544 -0.005241 0.000000 0.000000 0.000000
# 2 -0.002544 0.023466 -0.002258 0.000000 0.000000 0.000000
# 3 -0.005241 -0.002258 0.016870 0.000000 0.000000 0.000000
# 4 0.000000 0.000000 0.000000 0.108444 0.000000 0.000000
# 5 0.000000 0.000000 0.000000 0.000000 0.120141 0.000000
# 6 0.000000 0.000000 0.000000 0.000000 0.000000 0.040986
#
#
# Mechanical properties :
#
#
# Convention : Reuss Voigt Hill
#
# Bulk Modulus (GPa) = 32.49079 41.16927 36.83003
# Shear Modulus (GPa) = 14.25401 19.72078 16.98740
#
# Velocity S-wave (km/s) = 2.80688 3.30155 3.06421
# Velocity P-wave (km/s) = 5.33510 6.10647 5.73377
#
# Compressibility (1/GPa) = 0.03077796
#
# Stress axis : x y z
#
# Youngs Moduli (GPa) = 94.99976 42.61523 59.27560
#
# Poissons Ratio (x) = 0.10840 0.31066
# Poissons Ratio (y) = 0.24164 0.13382
# Poissons Ratio (z) = 0.49790 0.09621
#
# Static dielectric constant tensor:
#      x y z
#    x 1.641310 0.000000 0.000000 
#    y 0.000000 1.641360 0.000000 
#    z 0.000000 0.000000 1.625240 
# 
# From -- ./inp_files/40788.got.cif
#   From: 2010.05.17/outbox.cif.g08.bks.cpg/sg65_21_cif.got.tgz:40788.got - 2010.06.03 17:01:31.
