data_PCOD9484199
_publ_section_title
;
Structure prediction by ZEFSAII (Michael W. Deem and Ramdas Pophale) SiO2 
 PCOD9484199
Probable space group: C M M M
;
_chemical_formula_sum "Si O2"
_cell_formula_units_Z 104
_cell_length_a 22.647980
_cell_length_b 28.286619
_cell_length_c 7.473793
_cell_angle_alpha 90.000000
_cell_angle_beta 90.000000
_cell_angle_gamma 90.000000
_cell_volume 4787.971745
_symmetry_space_group_name_H-M "C M M M"
_symmetry_group_IT_number 65
_symmetry_cell_setting 'orthorhombic'
loop_
_space_group_symop_operation_xyz
x,y,z
-x,-y,z
x,-y,-z
-x,y,-z
-x,-y,-z
x,y,-z
-x,y,z
x,-y,z
1/2+x,1/2+y,z
1/2-x,1/2-y,z
1/2+x,1/2-y,-z
1/2-x,1/2+y,-z
1/2-x,1/2-y,-z
1/2+x,1/2+y,-z
1/2-x,1/2+y,z
1/2+x,1/2-y,z
loop_
_atom_site_type_symbol
_atom_site_label
_atom_site_fract_x
_atom_site_fract_y
_atom_site_fract_z
Si Si1 0.500000 0.555785 0.286079
Si Si2 0.842791 0.370360 0.699625
Si Si3 0.066697 0.296835 0.287334
Si Si4 0.930892 0.551901 0.785032
Si Si5 0.377408 0.406647 0.291891
Si Si6 0.066507 0.186347 0.786448
Si Si7 0.752344 0.945562 0.719650
O O1 0.500000 0.500000 0.266303
O O2 0.500000 0.566719 0.500000
O O3 0.561158 0.575392 0.210235
O O4 0.822164 0.356256 0.500000
O O5 0.877010 0.325871 0.785799
O O6 0.896159 0.407465 0.690350
O O7 0.791901 0.403780 0.781227
O O8 0.065367 0.306550 0.500000
O O9 0.075423 0.240927 0.262626
O O10 0.000000 0.308644 0.217769
O O11 0.908688 0.500000 0.733138
O O12 0.000000 0.554190 0.745812
O O13 0.924274 0.556581 0.000000
O O14 0.377594 0.420901 0.500000
O O15 0.384427 0.350056 0.281574
O O16 0.317734 0.429623 0.221058
O O17 0.000000 0.173268 0.720537
O O18 0.066065 0.183230 0.000000
O O19 0.749333 0.945392 0.500000
O O20 0.739705 0.000000 0.774626
#
# Coordination Sequence:
#
# PCOD9484199 Si02
#       7
#     8  16  16  16  16  16  16
#     4   9  16  26  47  79 105 127 165 211 250 297
#     4  10  19  32  51  75 102 134 172 216 262 303
#     4   9  18  32  51  75 102 131 169 214 258 308
#     4   9  18  31  46  67  97 132 170 213 260 310
#     4  10  18  31  53  78 104 136 172 210 253 303
#     4  10  20  34  53  77 104 132 165 210 265 316
#     4   9  18  32  51  77 108 139 172 211 254 303
#
# _framework density 21.721095999999999
#
# number of rings (size 3 to 8) (size 9 to 14) (size 15 to 20)
#    0.000    2.538    0.769    2.308    0.000    4.923 
#    0.000    3.846    0.000    7.846    0.000    0.000 
#    0.000    0.000    0.000    0.000    0.000    0.000 
#
# Total GULP energy -289993.252932 kJ/mol
# GULP energy per Si atom -5576.793326 kJ/mol
# Density = 2.167166 g / cm^3
# Si number density = 21.721096 Si / 1000 Ang^3
#
#
#
# Elastic Constant Matrix: (Units=GPa)
#
#
# Indices 1 2 3 4 5 6 
#
# 1 123.4017 62.2727 6.0736 0.0000 0.0000 0.0000
# 2 62.2727 76.4292 -3.8015 0.0000 0.0000 0.0000
# 3 6.0736 -3.8015 61.2920 0.0000 0.0000 0.0000
# 4 0.0000 0.0000 0.0000 16.6604 0.0000 0.0000
# 5 0.0000 0.0000 0.0000 0.0000 -11.3232 0.0000
# 6 0.0000 0.0000 0.0000 0.0000 0.0000 45.9886
#
#
#
# Elastic Compliance Matrix: (Units=1/GPa)
#
#
# Indices 1 2 3 4 5 6 
#
# 1 0.014028 -0.011534 -0.002105 0.000000 0.000000 0.000000
# 2 -0.011534 0.022608 0.002545 0.000000 0.000000 0.000000
# 3 -0.002105 0.002545 0.016682 0.000000 0.000000 0.000000
# 4 0.000000 0.000000 0.000000 0.060023 0.000000 0.000000
# 5 0.000000 0.000000 0.000000 0.000000 -0.088314 0.000000
# 6 0.000000 0.000000 0.000000 0.000000 0.000000 0.021745
#
#
# Mechanical properties :
#
#
# Convention : Reuss Voigt Hill
#
# Bulk Modulus (GPa) = 32.12426 43.35692 37.74059
# Shear Modulus (GPa) = 63.02273 23.37037 43.19655
#
# Velocity S-wave (km/s) = 5.39236 3.28369 4.46431
# Velocity P-wave (km/s) = 7.32063 5.86353 6.63221
#
# Compressibility (1/GPa) = 0.03112912
#
# Stress axis : x y z
#
# Youngs Moduli (GPa) = 71.28683 44.23122 59.94542
#
# Poissons Ratio (x) = 0.51018 0.12621
# Poissons Ratio (y) = 0.82224 -0.15257
# Poissons Ratio (z) = 0.15009 -0.11258
#
# Static dielectric constant tensor:
#      x y z
#    x 1.814320 0.000000 0.000000 
#    y 0.000000 1.801340 0.000000 
#    z 0.000000 0.000000 1.815490 
# 
# From -- ./inp_files/12815.got.cif
#   From: 2010.05.17/outbox.cif.g08.bks.cpg/sg65_7_cif.got.tgz:12815.got - 2010.06.03 17:01:31.
