data_PCOD9484314
_publ_section_title
;
Structure prediction by ZEFSAII (Michael W. Deem and Ramdas Pophale) SiO2 
 PCOD9484314
Probable space group: C M M M
;
_chemical_formula_sum "Si O2"
_cell_formula_units_Z 104
_cell_length_a 8.493053
_cell_length_b 29.573337
_cell_length_c 24.076445
_cell_angle_alpha 90.000000
_cell_angle_beta 90.000000
_cell_angle_gamma 90.000000
_cell_volume 6047.230576
_symmetry_space_group_name_H-M "C M M M"
_symmetry_group_IT_number 65
_symmetry_cell_setting 'orthorhombic'
loop_
_space_group_symop_operation_xyz
x,y,z
-x,-y,z
x,-y,-z
-x,y,-z
-x,-y,-z
x,y,-z
-x,y,z
x,-y,z
1/2+x,1/2+y,z
1/2-x,1/2-y,z
1/2+x,1/2-y,-z
1/2-x,1/2+y,-z
1/2-x,1/2-y,-z
1/2+x,1/2+y,-z
1/2-x,1/2+y,z
1/2+x,1/2-y,z
loop_
_atom_site_type_symbol
_atom_site_label
_atom_site_fract_x
_atom_site_fract_y
_atom_site_fract_z
Si Si1 0.310749 0.855978 0.439254
Si Si2 0.687263 0.801436 0.883020
Si Si3 0.810038 0.050714 0.396637
Si Si4 0.808656 0.950028 0.266505
Si Si5 0.187431 0.198444 0.000000
Si Si6 0.810524 0.145280 0.776825
Si Si7 0.810044 0.698849 0.669150
O O1 0.253727 0.840631 0.500000
O O2 0.500000 0.853455 0.439044
O O3 0.261880 0.907822 0.429669
O O4 0.254919 0.826436 0.387037
O O5 0.500000 0.799258 0.885189
O O6 0.750000 0.750000 0.876172
O O7 0.750556 0.820564 0.941733
O O8 0.743127 0.831256 0.831482
O O9 0.765875 0.055820 0.331470
O O10 0.000000 0.053185 0.400008
O O11 0.763198 0.000000 0.414495
O O12 0.756768 0.906649 0.231795
O O13 0.000000 0.950370 0.265220
O O14 0.754701 0.000000 0.248453
O O15 0.250000 0.250000 0.000000
O O16 0.000000 0.198562 0.000000
O O17 0.500000 0.353708 0.779308
O O18 0.755434 0.172682 0.722611
O O19 0.750000 0.750000 0.669569
O O20 0.000000 0.698225 0.671145
#
# Coordination Sequence:
#
# PCOD9484314 Si02
#       7
#    16  16  16  16   8  16  16
#     4  10  22  38  53  71  98 130 165 207 258 315
#     4  11  21  34  51  76 111 147 183 217 256 299
#     4   9  17  32  54  78 101 127 162 204 250 304
#     4   8  15  29  51  77 103 130 162 204 253 303
#     4  10  18  32  52  76 107 144 185 220 258 299
#     4  11  20  33  55  80 106 135 171 211 256 304
#     4  11  23  38  54  72  97 128 167 212 261 309
#
# _framework density 17.197956000000001
#
# number of rings (size 3 to 8) (size 9 to 14) (size 15 to 20)
#    0.000    2.000    1.538    5.308    0.000    1.846 
#    0.000    1.538    0.000    1.846    0.000    0.538 
#    0.000    4.308    0.000    0.000    0.000    0.000 
#
# Total GULP energy -290186.335312 kJ/mol
# GULP energy per Si atom -5580.506448 kJ/mol
# Density = 1.715881 g / cm^3
# Si number density = 17.197956 Si / 1000 Ang^3
#
#
#
# Elastic Constant Matrix: (Units=GPa)
#
#
# Indices 1 2 3 4 5 6 
#
# 1 65.1964 22.8262 38.3622 0.0000 0.0000 0.0000
# 2 22.8262 110.2135 72.1252 0.0000 0.0000 0.0000
# 3 38.3622 72.1252 153.6318 0.0000 0.0000 0.0000
# 4 0.0000 0.0000 0.0000 21.5128 0.0000 0.0000
# 5 0.0000 0.0000 0.0000 0.0000 16.4654 0.0000
# 6 0.0000 0.0000 0.0000 0.0000 0.0000 18.2469
#
#
#
# Elastic Compliance Matrix: (Units=1/GPa)
#
#
# Indices 1 2 3 4 5 6 
#
# 1 0.018079 -0.001140 -0.003979 0.000000 0.000000 0.000000
# 2 -0.001140 0.013169 -0.005898 0.000000 0.000000 0.000000
# 3 -0.003979 -0.005898 0.010271 0.000000 0.000000 0.000000
# 4 0.000000 0.000000 0.000000 0.046484 0.000000 0.000000
# 5 0.000000 0.000000 0.000000 0.000000 0.060733 0.000000
# 6 0.000000 0.000000 0.000000 0.000000 0.000000 0.054804
#
#
# Mechanical properties :
#
#
# Convention : Reuss Voigt Hill
#
# Bulk Modulus (GPa) = 51.32112 66.18545 58.75328
# Shear Modulus (GPa) = 21.54529 24.29357 22.91943
#
# Velocity S-wave (km/s) = 3.54331 3.76251 3.65455
# Velocity P-wave (km/s) = 6.82980 7.57914 7.21421
#
# Compressibility (1/GPa) = 0.01948516
#
# Stress axis : x y z
#
# Youngs Moduli (GPa) = 55.31344 75.93594 97.35799
#
# Poissons Ratio (x) = 0.08660 0.38738
# Poissons Ratio (y) = 0.06308 0.57418
# Poissons Ratio (z) = 0.22009 0.44784
#
# Static dielectric constant tensor:
#      x y z
#    x 1.588710 0.000000 0.000000 
#    y 0.000000 1.581570 0.000000 
#    z 0.000000 0.000000 1.591580 
# 
# From -- ./inp_files/68168.got.cif
#   From: 2010.05.17/outbox.cif.g08.bks.cpg/sg65_35_cif.got.tgz:68168.got - 2010.06.03 17:01:31.
