data_PCOD9484508
_publ_section_title
;
Structure prediction by ZEFSAII (Michael W. Deem and Ramdas Pophale) SiO2 
 PCOD9484508
Probable space group: C M M M
;
_chemical_formula_sum "Si O2"
_cell_formula_units_Z 64
_cell_length_a 32.185924
_cell_length_b 12.239257
_cell_length_c 7.461065
_cell_angle_alpha 90.000000
_cell_angle_beta 90.000000
_cell_angle_gamma 90.000000
_cell_volume 2939.150733
_symmetry_space_group_name_H-M "C M M M"
_symmetry_group_IT_number 65
_symmetry_cell_setting 'orthorhombic'
loop_
_space_group_symop_operation_xyz
x,y,z
-x,-y,z
x,-y,-z
-x,y,-z
-x,-y,-z
x,y,-z
-x,y,z
x,-y,z
1/2+x,1/2+y,z
1/2-x,1/2-y,z
1/2+x,1/2-y,-z
1/2-x,1/2+y,-z
1/2-x,1/2-y,-z
1/2+x,1/2+y,-z
1/2-x,1/2+y,z
1/2+x,1/2-y,z
loop_
_atom_site_type_symbol
_atom_site_label
_atom_site_fract_x
_atom_site_fract_y
_atom_site_fract_z
Si Si1 0.663437 0.000000 0.217366
Si Si2 0.796820 0.728368 0.781167
Si Si3 0.066545 0.500000 0.704665
Si Si4 0.545195 0.755462 0.791468
Si Si5 0.125919 0.873922 0.780759
O O1 0.687045 0.890764 0.273043
O O2 0.616382 0.000000 0.283552
O O3 0.661090 0.000000 0.000000
O O4 0.750000 0.750000 0.720653
O O5 0.831270 0.816359 0.724017
O O6 0.796225 0.730061 0.000000
O O7 0.052880 0.500000 0.500000
O O8 0.051336 0.386088 0.785540
O O9 0.500000 0.728499 0.712003
O O10 0.585923 0.695242 0.717377
O O11 0.543740 0.723472 0.000000
O O12 0.123434 0.000000 0.726990
O O13 0.126051 0.870731 0.000000
#
# Coordination Sequence:
#
# PCOD9484508 Si02
#       5
#     8  16   8  16  16
#     4  10  18  33  55  78 110 143 175 214 267 322
#     4   9  17  27  46  77 108 136 168 213 264 310
#     4  12  23  35  54  79 108 138 178 223 265 308
#     4  10  20  35  55  78 105 138 173 213 268 325
#     4   9  17  29  47  75 109 137 168 213 260 312
#
# _framework density 21.774999999999999
#
# number of rings (size 3 to 8) (size 9 to 14) (size 15 to 20)
#    0.000    2.250    2.500    1.500    1.750    2.500 
#    0.000    2.500    0.000    1.500    0.000    1.750 
#    0.000    0.000    0.000    0.000    0.000    0.000 
#
# Total GULP energy -178786.382311 kJ/mol
# GULP energy per Si atom -5587.074447 kJ/mol
# Density = 2.172544 g / cm^3
# Si number density = 21.775000 Si / 1000 Ang^3
#
#
#
# Elastic Constant Matrix: (Units=GPa)
#
#
# Indices 1 2 3 4 5 6 
#
# 1 239.9298 100.4196 3.7762 0.0000 0.0000 0.0000
# 2 100.4196 154.6171 -4.3058 0.0000 0.0000 0.0000
# 3 3.7762 -4.3058 63.9029 0.0000 0.0000 0.0000
# 4 0.0000 0.0000 0.0000 -29.9658 0.0000 0.0000
# 5 0.0000 0.0000 0.0000 0.0000 -28.0349 0.0000
# 6 0.0000 0.0000 0.0000 0.0000 0.0000 -5.7526
#
#
#
# Elastic Compliance Matrix: (Units=1/GPa)
#
#
# Indices 1 2 3 4 5 6 
#
# 1 0.005746 -0.003748 -0.000592 0.000000 0.000000 0.000000
# 2 -0.003748 0.008925 0.000823 0.000000 0.000000 0.000000
# 3 -0.000592 0.000823 0.015739 0.000000 0.000000 0.000000
# 4 0.000000 0.000000 0.000000 -0.033371 0.000000 0.000000
# 5 0.000000 0.000000 0.000000 0.000000 -0.035670 0.000000
# 6 0.000000 0.000000 0.000000 0.000000 0.000000 -0.173834
#
#
# Mechanical properties :
#
#
# Convention : Reuss Voigt Hill
#
# Bulk Modulus (GPa) = 42.78086 73.13665 57.95875
# Shear Modulus (GPa) = -25.29871 11.15333 -7.07269
#
# Velocity S-wave (km/s) = -3.41225 2.26566 -1.80420
# Velocity P-wave (km/s) = 2.04079 6.36432 4.72596
#
# Compressibility (1/GPa) = 0.02337494
#
# Stress axis : x y z
#
# Youngs Moduli (GPa) = 174.03267 112.04501 63.53571
#
# Poissons Ratio (x) = 0.41999 0.03762
# Poissons Ratio (y) = 0.65234 -0.05228
# Poissons Ratio (z) = 0.10305 -0.09220
#
# Static dielectric constant tensor:
#      x y z
#    x 1.773230 0.000000 0.000000 
#    y 0.000000 1.735250 0.000000 
#    z 0.000000 0.000000 1.816180 
# 
# From -- ./inp_files/4910.got.cif
#   From: 2010.05.17/outbox.cif.g08.bks.cpg/sg65_3_cif.got.tgz:4910.got - 2010.06.03 17:01:31.
