data_PCOD9484596
_publ_section_title
;
Structure prediction by ZEFSAII (Michael W. Deem and Ramdas Pophale) SiO2 
 PCOD9484596
Probable space group: C M M M
;
_chemical_formula_sum "Si O2"
_cell_formula_units_Z 88
_cell_length_a 29.495082
_cell_length_b 14.461525
_cell_length_c 11.903339
_cell_angle_alpha 90.000000
_cell_angle_beta 90.000000
_cell_angle_gamma 90.000000
_cell_volume 5077.296232
_symmetry_space_group_name_H-M "C M M M"
_symmetry_group_IT_number 65
_symmetry_cell_setting 'orthorhombic'
loop_
_space_group_symop_operation_xyz
x,y,z
-x,-y,z
x,-y,-z
-x,y,-z
-x,-y,-z
x,y,-z
-x,y,z
x,-y,z
1/2+x,1/2+y,z
1/2-x,1/2-y,z
1/2+x,1/2-y,-z
1/2-x,1/2+y,-z
1/2-x,1/2-y,-z
1/2+x,1/2+y,-z
1/2-x,1/2+y,z
1/2+x,1/2-y,z
loop_
_atom_site_type_symbol
_atom_site_label
_atom_site_fract_x
_atom_site_fract_y
_atom_site_fract_z
Si Si1 0.204724 0.388305 0.745309
Si Si2 0.680947 0.890546 0.500000
Si Si3 0.297283 0.607584 0.131693
Si Si4 0.368694 0.233189 0.867149
Si Si5 0.447731 0.749205 0.308803
Si Si6 0.444896 0.394066 0.500000
Si Si7 0.427965 0.891968 0.500000
O O1 0.200739 0.500000 0.746123
O O2 0.199487 0.353119 0.617558
O O3 0.253542 0.364790 0.796485
O O4 0.164473 0.345989 0.819385
O O5 0.626608 0.882302 0.500000
O O6 0.691790 0.000000 0.500000
O O7 0.307629 0.500000 0.153879
O O8 0.340011 0.672817 0.151288
O O9 0.284807 0.616319 0.000000
O O10 0.414335 0.237346 0.794942
O O11 0.376596 0.221824 0.000000
O O12 0.500000 0.733407 0.275824
O O13 0.431930 0.664472 0.389521
O O14 0.445577 0.838236 0.390681
O O15 0.429114 0.500000 0.500000
O O16 0.500000 0.394379 0.500000
O O17 0.439428 0.000000 0.500000
#
# Coordination Sequence:
#
# PCOD9484596 Si02
#       7
#    16   8  16  16  16   8   8
#     4  10  19  34  55  79 107 137 174 218 264 317
#     4   9  17  30  52  78 105 137 168 206 261 315
#     4   9  19  36  56  76 100 135 179 221 259 308
#     4  11  22  35  53  76 106 144 183 220 260 309
#     4  10  21  35  54  81 108 137 177 220 266 318
#     4   8  16  34  58  79  99 126 166 219 271 316
#     4  10  18  35  58  79 105 139 177 217 263 317
#
# _framework density 17.332059000000001
#
# number of rings (size 3 to 8) (size 9 to 14) (size 15 to 20)
#    0.000    2.273    1.818    1.909    0.000    4.364 
#    0.000    3.636    0.000    1.091    0.000    7.636 
#    0.000    0.000    0.000    0.000    0.000    0.000 
#
# Total GULP energy -245448.234794 kJ/mol
# GULP energy per Si atom -5578.368973 kJ/mol
# Density = 1.729261 g / cm^3
# Si number density = 17.332059 Si / 1000 Ang^3
#
#
#
# Elastic Constant Matrix: (Units=GPa)
#
#
# Indices 1 2 3 4 5 6 
#
# 1 91.3104 26.5925 78.0560 0.0000 0.0000 0.0000
# 2 26.5925 77.6804 40.8557 0.0000 0.0000 0.0000
# 3 78.0560 40.8557 130.5030 0.0000 0.0000 0.0000
# 4 0.0000 0.0000 0.0000 14.4246 0.0000 0.0000
# 5 0.0000 0.0000 0.0000 0.0000 19.6602 0.0000
# 6 0.0000 0.0000 0.0000 0.0000 0.0000 19.9095
#
#
#
# Elastic Compliance Matrix: (Units=1/GPa)
#
#
# Indices 1 2 3 4 5 6 
#
# 1 0.022446 -0.000746 -0.013192 0.000000 0.000000 0.000000
# 2 -0.000746 0.015435 -0.004386 0.000000 0.000000 0.000000
# 3 -0.013192 -0.004386 0.016926 0.000000 0.000000 0.000000
# 4 0.000000 0.000000 0.000000 0.069326 0.000000 0.000000
# 5 0.000000 0.000000 0.000000 0.000000 0.050864 0.000000
# 6 0.000000 0.000000 0.000000 0.000000 0.000000 0.050227
#
#
# Mechanical properties :
#
#
# Convention : Reuss Voigt Hill
#
# Bulk Modulus (GPa) = 55.06666 65.61134 60.33900
# Shear Modulus (GPa) = 18.66194 21.06483 19.86339
#
# Velocity S-wave (km/s) = 3.28492 3.49000 3.38901
# Velocity P-wave (km/s) = 6.79912 7.36055 7.08540
#
# Compressibility (1/GPa) = 0.01815981
#
# Stress axis : x y z
#
# Youngs Moduli (GPa) = 44.55227 64.78581 59.08102
#
# Poissons Ratio (x) = 0.04832 0.77937
# Poissons Ratio (y) = 0.03323 0.25914
# Poissons Ratio (z) = 0.58771 0.28416
#
# Static dielectric constant tensor:
#      x y z
#    x 1.567080 0.000000 0.000000 
#    y 0.000000 1.606210 0.000000 
#    z 0.000000 0.000000 1.582080 
# 
# From -- ./inp_files/32255.got.cif
#   From: 2010.05.17/outbox.cif.g08.bks.cpg/sg65_17_cif.got.tgz:32255.got - 2010.06.03 17:01:31.
