data_PCOD9484720
_publ_section_title
;
Structure prediction by ZEFSAII (Michael W. Deem and Ramdas Pophale) SiO2 
 PCOD9484720
Probable space group: C M M M
;
_chemical_formula_sum "Si O2"
_cell_formula_units_Z 96
_cell_length_a 27.262344
_cell_length_b 29.372917
_cell_length_c 8.925995
_cell_angle_alpha 90.000000
_cell_angle_beta 90.000000
_cell_angle_gamma 90.000000
_cell_volume 7147.709786
_symmetry_space_group_name_H-M "C M M M"
_symmetry_group_IT_number 65
_symmetry_cell_setting 'orthorhombic'
loop_
_space_group_symop_operation_xyz
x,y,z
-x,-y,z
x,-y,-z
-x,y,-z
-x,-y,-z
x,y,-z
-x,y,z
x,-y,z
1/2+x,1/2+y,z
1/2-x,1/2-y,z
1/2+x,1/2-y,-z
1/2-x,1/2+y,-z
1/2-x,1/2-y,-z
1/2+x,1/2+y,-z
1/2-x,1/2+y,z
1/2+x,1/2-y,z
loop_
_atom_site_type_symbol
_atom_site_label
_atom_site_fract_x
_atom_site_fract_y
_atom_site_fract_z
Si Si1 0.147390 0.305312 0.319825
Si Si2 0.759856 0.642116 0.822349
Si Si3 0.286846 0.051821 0.321451
Si Si4 0.394311 0.949052 0.821251
Si Si5 0.943997 0.645036 0.180326
Si Si6 0.298464 0.717804 0.327659
O O1 0.150730 0.309040 0.500000
O O2 0.190700 0.335855 0.248398
O O3 0.095917 0.323421 0.260022
O O4 0.158939 0.252634 0.279984
O O5 0.756393 0.591353 0.758005
O O6 0.715350 0.674693 0.771830
O O7 0.764770 0.641584 0.000000
O O8 0.285608 0.057926 0.500000
O O9 0.342942 0.056373 0.264398
O O10 0.271376 0.000000 0.286013
O O11 0.429855 0.907407 0.784278
O O12 0.413663 0.000000 0.789756
O O13 0.384238 0.946618 0.000000
O O14 0.000000 0.654462 0.223322
O O15 0.939661 0.650199 0.000000
O O16 0.306136 0.703580 0.500000
O O17 0.250000 0.750000 0.326012
#
# Coordination Sequence:
#
# PCOD9484720 Si02
#       6
#    16  16  16  16  16  16
#     4  10  19  31  45  59  78 104 132 165 204 244
#     4  11  19  27  43  64  83 103 128 161 202 245
#     4  10  19  29  42  59  80 107 136 166 201 240
#     4   9  17  29  43  57  74  99 132 170 212 253
#     4  10  20  31  43  60  80 104 134 170 214 256
#     4   8  16  29  43  60  80 101 127 159 197 241
#
# _framework density 13.430875
#
# number of rings (size 3 to 8) (size 9 to 14) (size 15 to 20)
#    0.000    2.333    1.667    3.500    0.000    5.333 
#    0.000    1.667    0.000    0.000    0.000    3.500 
#    0.000    0.000    0.000    0.000    0.000    0.833 
#
# Total GULP energy -267524.425263 kJ/mol
# GULP energy per Si atom -5573.425526 kJ/mol
# Density = 1.340031 g / cm^3
# Si number density = 13.430875 Si / 1000 Ang^3
#
#
#
# Elastic Constant Matrix: (Units=GPa)
#
#
# Indices 1 2 3 4 5 6 
#
# 1 55.7719 55.7467 29.7796 0.0000 0.0000 0.0000
# 2 55.7467 103.5909 53.6225 0.0000 0.0000 0.0000
# 3 29.7796 53.6225 54.2380 0.0000 0.0000 0.0000
# 4 0.0000 0.0000 0.0000 19.0867 0.0000 0.0000
# 5 0.0000 0.0000 0.0000 0.0000 10.7575 0.0000
# 6 0.0000 0.0000 0.0000 0.0000 0.0000 17.7999
#
#
#
# Elastic Compliance Matrix: (Units=1/GPa)
#
#
# Indices 1 2 3 4 5 6 
#
# 1 0.038850 -0.020206 -0.001354 0.000000 0.000000 0.000000
# 2 -0.020206 0.030281 -0.018843 0.000000 0.000000 0.000000
# 3 -0.001354 -0.018843 0.037810 0.000000 0.000000 0.000000
# 4 0.000000 0.000000 0.000000 0.052392 0.000000 0.000000
# 5 0.000000 0.000000 0.000000 0.000000 0.092958 0.000000
# 6 0.000000 0.000000 0.000000 0.000000 0.000000 0.056180
#
#
# Mechanical properties :
#
#
# Convention : Reuss Voigt Hill
#
# Bulk Modulus (GPa) = 38.26356 54.65540 46.45948
# Shear Modulus (GPa) = 12.56315 14.49230 13.52773
#
# Velocity S-wave (km/s) = 3.06174 3.28842 3.17710
# Velocity P-wave (km/s) = 6.40703 7.42970 6.93724
#
# Compressibility (1/GPa) = 0.02613453
#
# Stress axis : x y z
#
# Youngs Moduli (GPa) = 25.74012 33.02418 26.44795
#
# Poissons Ratio (x) = 0.66728 0.03582
# Poissons Ratio (y) = 0.52010 0.49836
# Poissons Ratio (z) = 0.03486 0.62228
#
# Static dielectric constant tensor:
#      x y z
#    x 1.413000 0.000000 0.000000 
#    y 0.000000 1.465880 0.000000 
#    z 0.000000 0.000000 1.448090 
# 
# From -- ./inp_files/16914.got.cif
#   From: 2010.05.17/outbox.cif.g08.bks.cpg/sg65_9_cif.got.tgz:16914.got - 2010.06.03 17:01:31.
