data_PCOD9484561
_publ_section_title
;
Structure prediction by ZEFSAII (Michael W. Deem and Ramdas Pophale) SiO2 
 PCOD9484561
Probable space group: C M M M
;
_chemical_formula_sum "Si O2"
_cell_formula_units_Z 96
_cell_length_a 8.458021
_cell_length_b 24.389209
_cell_length_c 26.014239
_cell_angle_alpha 90.000000
_cell_angle_beta 90.000000
_cell_angle_gamma 90.000000
_cell_volume 5366.332773
_symmetry_space_group_name_H-M "C M M M"
_symmetry_group_IT_number 65
_symmetry_cell_setting 'orthorhombic'
loop_
_space_group_symop_operation_xyz
x,y,z
-x,-y,z
x,-y,-z
-x,y,-z
-x,-y,-z
x,y,-z
-x,y,z
x,-y,z
1/2+x,1/2+y,z
1/2-x,1/2-y,z
1/2+x,1/2-y,-z
1/2-x,1/2+y,-z
1/2-x,1/2-y,-z
1/2+x,1/2+y,-z
1/2-x,1/2+y,z
1/2+x,1/2-y,z
loop_
_atom_site_type_symbol
_atom_site_label
_atom_site_fract_x
_atom_site_fract_y
_atom_site_fract_z
Si Si1 0.689163 0.189946 0.059112
Si Si2 0.808475 0.500000 0.307377
Si Si3 0.810672 0.117818 0.849722
Si Si4 0.807231 0.382171 0.345906
Si Si5 0.691202 0.811022 0.441438
Si Si6 0.189753 0.311963 0.246446
Si Si7 0.691280 0.500000 0.809922
O O1 0.500000 0.190916 0.060037
O O2 0.750000 0.250000 0.075787
O O3 0.749381 0.143712 0.097540
O O4 0.742113 0.181511 0.000000
O O5 0.755064 0.444270 0.335213
O O6 0.752162 0.500000 0.248498
O O7 0.000000 0.500000 0.306834
O O8 0.752401 0.155830 0.803048
O O9 0.756738 0.055713 0.838118
O O10 0.000000 0.118315 0.850446
O O11 0.754188 0.354527 0.398991
O O12 0.759201 0.344387 0.297765
O O13 0.000000 0.382676 0.346650
O O14 0.742442 0.823229 0.500000
O O15 0.500000 0.810319 0.440899
O O16 0.750000 0.750000 0.428217
O O17 0.250000 0.250000 0.247170
O O18 0.000000 0.311894 0.244842
O O19 0.500000 0.500000 0.808388
#
# Coordination Sequence:
#
# PCOD9484561 Si02
#       7
#    16   8  16  16  16  16   8
#     4  10  21  38  60  85 112 143 179 218 262 312
#     4  10  18  34  55  73  99 138 178 216 262 319
#     4  11  22  37  56  79 108 140 177 219 264 315
#     4   9  18  31  50  75 101 133 174 217 262 314
#     4   9  17  31  50  73 102 135 172 215 263 316
#     4  11  21  33  50  75 106 137 172 216 267 318
#     4  10  22  38  55  78 107 140 180 221 264 311
#
# _framework density 17.889313000000001
#
# number of rings (size 3 to 8) (size 9 to 14) (size 15 to 20)
#    0.000    2.000    1.667    2.500    0.000    1.667 
#    0.000    2.500    0.000    5.000    0.000    0.000 
#    0.000    3.333    0.000    0.000    0.000    0.000 
#
# Total GULP energy -267990.034998 kJ/mol
# GULP energy per Si atom -5583.125729 kJ/mol
# Density = 1.784860 g / cm^3
# Si number density = 17.889313 Si / 1000 Ang^3
#
#
#
# Elastic Constant Matrix: (Units=GPa)
#
#
# Indices 1 2 3 4 5 6 
#
# 1 22.6306 25.1632 19.7676 0.0000 0.0000 0.0000
# 2 25.1632 195.6088 105.5522 0.0000 0.0000 0.0000
# 3 19.7676 105.5522 126.4026 0.0000 0.0000 0.0000
# 4 0.0000 0.0000 0.0000 24.4414 0.0000 0.0000
# 5 0.0000 0.0000 0.0000 0.0000 4.8025 0.0000
# 6 0.0000 0.0000 0.0000 0.0000 0.0000 11.4123
#
#
#
# Elastic Compliance Matrix: (Units=1/GPa)
#
#
# Indices 1 2 3 4 5 6 
#
# 1 0.053073 -0.004275 -0.004730 0.000000 0.000000 0.000000
# 2 -0.004275 0.009649 -0.007389 0.000000 0.000000 0.000000
# 3 -0.004730 -0.007389 0.014821 0.000000 0.000000 0.000000
# 4 0.000000 0.000000 0.000000 0.040914 0.000000 0.000000
# 5 0.000000 0.000000 0.000000 0.000000 0.208227 0.000000
# 6 0.000000 0.000000 0.000000 0.000000 0.000000 0.087624
#
#
# Mechanical properties :
#
#
# Convention : Reuss Voigt Hill
#
# Bulk Modulus (GPa) = 22.34376 71.73422 47.03899
# Shear Modulus (GPa) = 10.82214 21.07517 15.94865
#
# Velocity S-wave (km/s) = 2.46224 3.43605 2.98907
# Velocity P-wave (km/s) = 4.53879 7.47850 6.18581
#
# Compressibility (1/GPa) = 0.04475522
#
# Stress axis : x y z
#
# Youngs Moduli (GPa) = 18.84201 103.63267 67.47044
#
# Poissons Ratio (x) = 0.44302 0.31914
# Poissons Ratio (y) = 0.08055 0.49855
# Poissons Ratio (z) = 0.08912 0.76577
#
# Static dielectric constant tensor:
#      x y z
#    x 1.622100 0.000000 0.000000 
#    y 0.000000 1.595260 0.000000 
#    z 0.000000 0.000000 1.600720 
# 
# From -- ./inp_files/67878.got.cif
#   From: 2010.05.17/outbox.cif.g08.bks.cpg/sg65_34_cif.got.tgz:67878.got - 2010.06.03 17:01:31.
