data_PCOD9484924
_publ_section_title
;
Structure prediction by ZEFSAII (Michael W. Deem and Ramdas Pophale) SiO2 
 PCOD9484924
Probable space group: C M M M
;
_chemical_formula_sum "Si O2"
_cell_formula_units_Z 80
_cell_length_a 26.254214
_cell_length_b 9.057061
_cell_length_c 22.585139
_cell_angle_alpha 90.000000
_cell_angle_beta 90.000000
_cell_angle_gamma 90.000000
_cell_volume 5370.430262
_symmetry_space_group_name_H-M "C M M M"
_symmetry_group_IT_number 65
_symmetry_cell_setting 'orthorhombic'
loop_
_space_group_symop_operation_xyz
x,y,z
-x,-y,z
x,-y,-z
-x,y,-z
-x,-y,-z
x,y,-z
-x,y,z
x,-y,z
1/2+x,1/2+y,z
1/2-x,1/2-y,z
1/2+x,1/2-y,-z
1/2-x,1/2+y,-z
1/2-x,1/2-y,-z
1/2+x,1/2+y,-z
1/2-x,1/2+y,z
1/2+x,1/2-y,z
loop_
_atom_site_type_symbol
_atom_site_label
_atom_site_fract_x
_atom_site_fract_y
_atom_site_fract_z
Si Si1 0.938716 0.174686 0.743011
Si Si2 0.803140 0.677127 0.068776
Si Si3 0.000000 0.174182 0.070871
Si Si4 0.594441 0.822378 0.137494
Si Si5 0.938056 0.329887 0.620613
Si Si6 0.062110 0.170776 0.500000
O O1 0.912119 0.259384 0.796660
O O2 0.923494 0.240795 0.679429
O O3 0.000000 0.195710 0.749603
O O4 0.928878 0.000000 0.745564
O O5 0.797869 0.500000 0.070694
O O6 0.750000 0.750000 0.087237
O O7 0.851348 0.717810 0.108688
O O8 0.812807 0.719226 0.000000
O O9 0.049495 0.251242 0.098542
O O10 0.000000 0.000000 0.086308
O O11 0.000000 0.188489 0.000000
O O12 0.589401 0.000000 0.137396
O O13 0.921607 0.500000 0.623558
O O14 0.921212 0.252764 0.559815
O O15 0.000000 0.329626 0.619442
O O16 0.000000 0.173120 0.500000
O O17 0.077610 0.000000 0.500000
#
# Coordination Sequence:
#
# PCOD9484924 Si02
#       6
#    16  16   8  16  16   8
#     4  10  19  30  43  61  88 119 153 188 226 272
#     4   9  19  35  53  72  91 114 147 187 232 280
#     4  11  23  35  47  67  93 120 151 186 227 273
#     4  11  21  33  50  69  92 120 152 188 229 276
#     4   9  16  25  38  55  78 110 150 189 226 265
#     4   9  15  23  35  53  77 107 146 189 230 263
#
# _framework density 14.896387000000001
#
# number of rings (size 3 to 8) (size 9 to 14) (size 15 to 20)
#    0.000    2.200    1.000    3.000    0.000    7.600 
#    0.000    2.000    0.000    0.000    0.000    0.000 
#    0.000    0.000    0.000    0.900    0.000   12.300 
#
# Total GULP energy -223112.590960 kJ/mol
# GULP energy per Si atom -5577.814774 kJ/mol
# Density = 1.486248 g / cm^3
# Si number density = 14.896387 Si / 1000 Ang^3
#
#
#
# Elastic Constant Matrix: (Units=GPa)
#
#
# Indices 1 2 3 4 5 6 
#
# 1 78.6014 48.4349 61.8326 0.0000 0.0000 0.0000
# 2 48.4349 96.2694 71.3358 0.0000 0.0000 0.0000
# 3 61.8326 71.3358 134.6812 0.0000 0.0000 0.0000
# 4 0.0000 0.0000 0.0000 30.2698 0.0000 0.0000
# 5 0.0000 0.0000 0.0000 0.0000 9.3169 0.0000
# 6 0.0000 0.0000 0.0000 0.0000 0.0000 18.5711
#
#
#
# Elastic Compliance Matrix: (Units=1/GPa)
#
#
# Indices 1 2 3 4 5 6 
#
# 1 0.021736 -0.005829 -0.006891 0.000000 0.000000 0.000000
# 2 -0.005829 0.018661 -0.007208 0.000000 0.000000 0.000000
# 3 -0.006891 -0.007208 0.014407 0.000000 0.000000 0.000000
# 4 0.000000 0.000000 0.000000 0.033036 0.000000 0.000000
# 5 0.000000 0.000000 0.000000 0.000000 0.107332 0.000000
# 6 0.000000 0.000000 0.000000 0.000000 0.000000 0.053847
#
#
# Mechanical properties :
#
#
# Convention : Reuss Voigt Hill
#
# Bulk Modulus (GPa) = 66.90537 74.75097 70.82817
# Shear Modulus (GPa) = 17.01500 20.16146 18.58823
#
# Velocity S-wave (km/s) = 3.38335 3.68291 3.53630
# Velocity P-wave (km/s) = 7.76364 8.26890 8.02025
#
# Compressibility (1/GPa) = 0.01494648
#
# Stress axis : x y z
#
# Youngs Moduli (GPa) = 46.00761 53.58634 69.41185
#
# Poissons Ratio (x) = 0.31235 0.47835
# Poissons Ratio (y) = 0.26818 0.50033
# Poissons Ratio (z) = 0.31706 0.38626
#
# Static dielectric constant tensor:
#      x y z
#    x 1.456220 0.000000 0.000000 
#    y 0.000000 1.497670 0.000000 
#    z 0.000000 0.000000 1.492320 
# 
# From -- ./inp_files/60059.got.cif
#   From: 2010.05.17/outbox.cif.g08.bks.cpg/sg65_31_cif.got.tgz:60059.got - 2010.06.03 17:01:31.
