data_PCOD9484490
_publ_section_title
;
Structure prediction by ZEFSAII (Michael W. Deem and Ramdas Pophale) SiO2 
 PCOD9484490
Probable space group: C M M M
;
_chemical_formula_sum "Si O2"
_cell_formula_units_Z 88
_cell_length_a 24.487866
_cell_length_b 7.727993
_cell_length_c 24.159047
_cell_angle_alpha 90.000000
_cell_angle_beta 90.000000
_cell_angle_gamma 90.000000
_cell_volume 4571.907750
_symmetry_space_group_name_H-M "C M M M"
_symmetry_group_IT_number 65
_symmetry_cell_setting 'orthorhombic'
loop_
_space_group_symop_operation_xyz
x,y,z
-x,-y,z
x,-y,-z
-x,y,-z
-x,-y,-z
x,y,-z
-x,y,z
x,-y,z
1/2+x,1/2+y,z
1/2-x,1/2-y,z
1/2+x,1/2-y,-z
1/2-x,1/2+y,-z
1/2-x,1/2-y,-z
1/2+x,1/2+y,-z
1/2-x,1/2+y,z
1/2+x,1/2-y,z
loop_
_atom_site_type_symbol
_atom_site_label
_atom_site_fract_x
_atom_site_fract_y
_atom_site_fract_z
Si Si1 0.185595 0.792177 0.500000
Si Si2 0.113442 0.707069 0.061818
Si Si3 0.119709 0.212966 0.727836
Si Si4 0.000000 0.709665 0.114287
Si Si5 0.814186 0.791568 0.379378
Si Si6 0.313456 0.295011 0.835000
Si Si7 0.500000 0.706234 0.244006
O O1 0.250000 0.750000 0.500000
O O2 0.166127 0.727262 0.560026
O O3 0.178725 0.000000 0.500000
O O4 0.108259 0.500000 0.058053
O O5 0.159562 0.740764 0.107255
O O6 0.055201 0.772665 0.084722
O O7 0.125041 0.773554 0.000000
O O8 0.150959 0.270766 0.672677
O O9 0.152045 0.273302 0.782638
O O10 0.057035 0.272003 0.731469
O O11 0.119941 0.000000 0.728115
O O12 0.000000 0.500000 0.112152
O O13 0.000000 0.761693 0.178277
O O14 0.750000 0.750000 0.372550
O O15 0.818287 0.000000 0.380140
O O16 0.318080 0.500000 0.832425
O O17 0.250000 0.250000 0.831030
O O18 0.500000 0.500000 0.252654
#
# Coordination Sequence:
#
# PCOD9484490 Si02
#       7
#     8  16  16   8  16  16   8
#     4   8  14  24  42  65  95 127 161 198 235 278
#     4  10  21  37  56  77 101 129 159 196 245 297
#     4   9  18  31  50  72  97 127 162 199 243 290
#     4  10  19  34  56  80 101 123 156 202 248 289
#     4   9  16  28  45  70  98 129 162 198 240 284
#     4  11  22  36  53  74  99 130 165 203 245 294
#     4  10  18  33  53  72  96 128 161 198 242 294
#
# _framework density 19.247983000000001
#
# number of rings (size 3 to 8) (size 9 to 14) (size 15 to 20)
#    0.000    2.364    1.818    1.364    0.000    1.818 
#    0.000    1.818    0.000    2.182    0.000    3.818 
#    0.000    0.000    0.000   14.182    0.000   10.182 
#
# Total GULP energy -245459.809502 kJ/mol
# GULP energy per Si atom -5578.632034 kJ/mol
# Density = 1.920417 g / cm^3
# Si number density = 19.247983 Si / 1000 Ang^3
#
#
#
# Elastic Constant Matrix: (Units=GPa)
#
#
# Indices 1 2 3 4 5 6 
#
# 1 150.7296 2.5425 102.6708 0.0000 0.0000 0.0000
# 2 2.5425 26.2460 1.3655 0.0000 0.0000 0.0000
# 3 102.6708 1.3655 201.4312 0.0000 0.0000 0.0000
# 4 0.0000 0.0000 0.0000 4.2164 0.0000 0.0000
# 5 0.0000 0.0000 0.0000 0.0000 17.4072 0.0000
# 6 0.0000 0.0000 0.0000 0.0000 0.0000 -11.7144
#
#
#
# Elastic Compliance Matrix: (Units=1/GPa)
#
#
# Indices 1 2 3 4 5 6 
#
# 1 0.010176 -0.000716 -0.005182 0.000000 0.000000 0.000000
# 2 -0.000716 0.038165 0.000106 0.000000 0.000000 0.000000
# 3 -0.005182 0.000106 0.007605 0.000000 0.000000 0.000000
# 4 0.000000 0.000000 0.000000 0.237171 0.000000 0.000000
# 5 0.000000 0.000000 0.000000 0.000000 0.057448 0.000000
# 6 0.000000 0.000000 0.000000 0.000000 0.000000 -0.085365
#
#
# Mechanical properties :
#
#
# Convention : Reuss Voigt Hill
#
# Bulk Modulus (GPa) = 22.54158 65.72937 44.13548
# Shear Modulus (GPa) = 17.14849 20.10370 18.62610
#
# Velocity S-wave (km/s) = 2.98807 3.23531 3.11415
# Velocity P-wave (km/s) = 4.86224 6.94112 5.99252
#
# Compressibility (1/GPa) = 0.04436246
#
# Stress axis : x y z
#
# Youngs Moduli (GPa) = 98.26765 26.20207 131.49094
#
# Poissons Ratio (x) = 0.01877 0.68139
# Poissons Ratio (y) = 0.07038 -0.01398
# Poissons Ratio (z) = 0.50923 -0.00279
#
# Static dielectric constant tensor:
#      x y z
#    x 1.613640 0.000000 0.000000 
#    y 0.000000 1.820740 0.000000 
#    z 0.000000 0.000000 1.698240 
# 
# From -- ./inp_files/65266.got.cif
#   From: 2010.05.17/outbox.cif.g08.bks.cpg/sg65_33_cif.got.tgz:65266.got - 2010.06.03 17:01:31.
