data_PCOD9484055
_publ_section_title
;
Structure prediction by ZEFSAII (Michael W. Deem and Ramdas Pophale) SiO2 
 PCOD9484055
Probable space group: C M M M
;
_chemical_formula_sum "Si O2"
_cell_formula_units_Z 72
_cell_length_a 7.523467
_cell_length_b 23.609633
_cell_length_c 23.618296
_cell_angle_alpha 90.000000
_cell_angle_beta 90.000000
_cell_angle_gamma 90.000000
_cell_volume 4195.230407
_symmetry_space_group_name_H-M "C M M M"
_symmetry_group_IT_number 65
_symmetry_cell_setting 'orthorhombic'
loop_
_space_group_symop_operation_xyz
x,y,z
-x,-y,z
x,-y,-z
-x,y,-z
-x,-y,-z
x,y,-z
-x,y,z
x,-y,z
1/2+x,1/2+y,z
1/2-x,1/2-y,z
1/2+x,1/2-y,-z
1/2-x,1/2+y,-z
1/2-x,1/2-y,-z
1/2+x,1/2+y,-z
1/2-x,1/2+y,z
1/2+x,1/2-y,z
loop_
_atom_site_type_symbol
_atom_site_label
_atom_site_fract_x
_atom_site_fract_y
_atom_site_fract_z
Si Si1 0.217667 0.934098 0.220824
Si Si2 0.707083 0.000000 0.067308
Si Si3 0.701417 0.620696 0.889368
Si Si4 0.797625 0.068797 0.348040
Si Si5 0.713589 0.683673 0.000000
Si Si6 0.500000 0.069162 0.564926
O O1 0.280959 0.890116 0.172966
O O2 0.267847 0.917438 0.284633
O O3 0.000000 0.934711 0.219058
O O4 0.272493 0.000000 0.210383
O O5 0.799989 0.943601 0.088290
O O6 0.500000 0.000000 0.085160
O O7 0.710605 0.000000 0.000000
O O8 0.500000 0.642294 0.881510
O O9 0.783414 0.656070 0.941371
O O10 0.670417 0.087240 0.398492
O O11 0.000000 0.088565 0.354917
O O12 0.801243 0.000000 0.348808
O O13 0.750000 0.750000 0.000000
O O14 0.500000 0.672950 0.000000
O O15 0.500000 0.088105 0.500000
O O16 0.500000 0.000000 0.564084
#
# Coordination Sequence:
#
# PCOD9484055 Si02
#       6
#    16   8  16  16   8   8
#     4   8  13  23  41  61  81 101 127 172 218 259
#     4  11  21  29  39  65  97 111 121 170 237 272
#     4  10  18  31  49  65  79 109 149 177 215 274
#     4   8  14  24  35  50  75 105 133 171 217 249
#     4  10  22  35  50  63  79 112 150 188 221 260
#     4   9  16  24  34  50  72 105 149 183 199 232
#
# _framework density 17.162347
#
# number of rings (size 3 to 8) (size 9 to 14) (size 15 to 20)
#    0.000    2.889    2.222    1.667    0.000    1.778 
#    2.000    2.222    0.000    0.000    0.000    0.000 
#    0.000    0.000    0.000    0.000    0.000    1.111 
#
# Total GULP energy -200407.121141 kJ/mol
# GULP energy per Si atom -5566.864476 kJ/mol
# Density = 1.712328 g / cm^3
# Si number density = 17.162347 Si / 1000 Ang^3
#
#
#
# Elastic Constant Matrix: (Units=GPa)
#
#
# Indices 1 2 3 4 5 6 
#
# 1 64.8192 -0.6063 46.8740 0.0000 0.0000 0.0000
# 2 -0.6063 43.0466 33.5006 0.0000 0.0000 0.0000
# 3 46.8740 33.5006 190.9544 0.0000 0.0000 0.0000
# 4 0.0000 0.0000 0.0000 4.1851 0.0000 0.0000
# 5 0.0000 0.0000 0.0000 0.0000 -105.4541 0.0000
# 6 0.0000 0.0000 0.0000 0.0000 0.0000 -22.5052
#
#
#
# Elastic Compliance Matrix: (Units=1/GPa)
#
#
# Indices 1 2 3 4 5 6 
#
# 1 0.019525 0.004638 -0.005607 0.000000 0.000000 0.000000
# 2 0.004638 0.028006 -0.006052 0.000000 0.000000 0.000000
# 3 -0.005607 -0.006052 0.007675 0.000000 0.000000 0.000000
# 4 0.000000 0.000000 0.000000 0.238944 0.000000 0.000000
# 5 0.000000 0.000000 0.000000 0.000000 -0.009483 0.000000
# 6 0.000000 0.000000 0.000000 0.000000 0.000000 -0.044434
#
#
# Mechanical properties :
#
#
# Convention : Reuss Voigt Hill
#
# Bulk Modulus (GPa) = 24.29212 50.92852 37.61032
# Shear Modulus (GPa) = 18.65702 -10.15139 4.25281
#
# Velocity S-wave (km/s) = 3.30068 -2.43470 1.57587
# Velocity P-wave (km/s) = 5.35827 4.67283 5.02724
#
# Compressibility (1/GPa) = 0.04116561
#
# Stress axis : x y z
#
# Youngs Moduli (GPa) = 51.21546 35.70695 130.29569
#
# Poissons Ratio (x) = -0.16562 0.73052
# Poissons Ratio (y) = -0.23755 0.78853
# Poissons Ratio (z) = 0.28715 0.21609
#
# Static dielectric constant tensor:
#      x y z
#    x 1.677220 0.000000 0.000000 
#    y 0.000000 1.550990 0.000000 
#    z 0.000000 0.000000 1.635790 
# 
# From -- ./inp_files/67750.got.cif
#   From: 2010.05.17/outbox.cif.g08.bks.cpg/sg65_34_cif.got.tgz:67750.got - 2010.06.03 17:01:31.
