data_PCOD9484711
_publ_section_title
;
Structure prediction by ZEFSAII (Michael W. Deem and Ramdas Pophale) SiO2 
 PCOD9484711
Probable space group: C M M M
;
_chemical_formula_sum "Si O2"
_cell_formula_units_Z 64
_cell_length_a 16.086431
_cell_length_b 7.314343
_cell_length_c 23.673603
_cell_angle_alpha 90.000000
_cell_angle_beta 90.000000
_cell_angle_gamma 90.000000
_cell_volume 2785.475758
_symmetry_space_group_name_H-M "C M M M"
_symmetry_group_IT_number 65
_symmetry_cell_setting 'orthorhombic'
loop_
_space_group_symop_operation_xyz
x,y,z
-x,-y,z
x,-y,-z
-x,y,-z
-x,-y,-z
x,y,-z
-x,y,z
x,-y,z
1/2+x,1/2+y,z
1/2-x,1/2-y,z
1/2+x,1/2-y,-z
1/2-x,1/2+y,-z
1/2-x,1/2-y,-z
1/2+x,1/2+y,-z
1/2-x,1/2+y,z
1/2+x,1/2-y,z
loop_
_atom_site_type_symbol
_atom_site_label
_atom_site_fract_x
_atom_site_fract_y
_atom_site_fract_z
Si Si1 0.156891 0.782548 0.138004
Si Si2 0.847417 0.782608 0.500000
Si Si3 0.000000 0.776290 0.064986
Si Si4 0.099813 0.789766 0.620684
Si Si5 0.902492 0.222917 0.257704
O O1 0.250000 0.750000 0.117071
O O2 0.145763 0.713853 0.202260
O O3 0.082618 0.715648 0.098205
O O4 0.145544 0.000000 0.141295
O O5 0.750000 0.750000 0.500000
O O6 0.879348 0.707730 0.440137
O O7 0.869222 0.000000 0.500000
O O8 0.000000 0.000000 0.065083
O O9 0.000000 0.718842 0.000000
O O10 0.128659 0.711588 0.680904
O O11 0.000000 0.793304 0.625035
O O12 0.130550 0.000000 0.618644
O O13 0.000000 0.271375 0.250498
O O14 0.900002 0.000000 0.260058
#
# Coordination Sequence:
#
# PCOD9484711 Si02
#       5
#    16   8   8  16  16
#     4  10  19  32  52  77 102 130 165 204 245 290
#     4  10  19  29  41  61  89 118 146 186 236 280
#     4   9  18  34  55  75  99 134 172 204 235 285
#     4   8  14  25  44  66  85 111 154 199 229 262
#     4   8  13  25  46  69  91 119 157 198 236 279
#
# _framework density 22.976327000000001
#
# number of rings (size 3 to 8) (size 9 to 14) (size 15 to 20)
#    0.000    3.125    1.250    1.875    0.000    3.000 
#    0.000    0.625    0.000    2.250    0.000    3.500 
#    0.000    0.000    0.000    0.000    0.000    0.000 
#
# Total GULP energy -178531.633723 kJ/mol
# GULP energy per Si atom -5579.113554 kJ/mol
# Density = 2.292403 g / cm^3
# Si number density = 22.976327 Si / 1000 Ang^3
#
#
#
# Elastic Constant Matrix: (Units=GPa)
#
#
# Indices 1 2 3 4 5 6 
#
# 1 109.8772 -5.1016 89.5685 0.0000 0.0000 0.0000
# 2 -5.1016 94.5336 14.0700 0.0000 0.0000 0.0000
# 3 89.5685 14.0700 229.9405 0.0000 0.0000 0.0000
# 4 0.0000 0.0000 0.0000 -20.9109 0.0000 0.0000
# 5 0.0000 0.0000 0.0000 0.0000 -3.9980 0.0000
# 6 0.0000 0.0000 0.0000 0.0000 0.0000 8.5600
#
#
#
# Elastic Compliance Matrix: (Units=1/GPa)
#
#
# Indices 1 2 3 4 5 6 
#
# 1 0.013552 0.001531 -0.005372 0.000000 0.000000 0.000000
# 2 0.001531 0.010848 -0.001260 0.000000 0.000000 0.000000
# 3 -0.005372 -0.001260 0.006519 0.000000 0.000000 0.000000
# 4 0.000000 0.000000 0.000000 -0.047822 0.000000 0.000000
# 5 0.000000 0.000000 0.000000 0.000000 -0.250127 0.000000
# 6 0.000000 0.000000 0.000000 0.000000 0.000000 0.116822
#
#
# Mechanical properties :
#
#
# Convention : Reuss Voigt Hill
#
# Bulk Modulus (GPa) = 48.27305 70.15834 59.21569
# Shear Modulus (GPa) = -37.56596 19.11786 -9.22405
#
# Velocity S-wave (km/s) = -4.04788 2.88769 -2.00582
# Velocity P-wave (km/s) = 0.88973 6.45908 4.52372
#
# Compressibility (1/GPa) = 0.02071549
#
# Stress axis : x y z
#
# Youngs Moduli (GPa) = 73.79220 92.17931 153.40325
#
# Poissons Ratio (x) = -0.14112 0.82414
# Poissons Ratio (y) = -0.11297 0.19331
# Poissons Ratio (z) = 0.39644 0.11616
#
# Static dielectric constant tensor:
#      x y z
#    x 1.805450 0.000000 0.000000 
#    y 0.000000 1.929510 0.000000 
#    z 0.000000 0.000000 1.886150 
# 
# From -- ./inp_files/68740.got.cif
#   From: 2010.05.17/outbox.cif.g08.bks.cpg/sg65_35_cif.got.tgz:68740.got - 2010.06.03 17:01:31.
