data_PCOD9484273
_publ_section_title
;
Structure prediction by ZEFSAII (Michael W. Deem and Ramdas Pophale) SiO2 
 PCOD9484273
Probable space group: C M M M
;
_chemical_formula_sum "Si O2"
_cell_formula_units_Z 96
_cell_length_a 24.472152
_cell_length_b 26.127675
_cell_length_c 7.494989
_cell_angle_alpha 90.000000
_cell_angle_beta 90.000000
_cell_angle_gamma 90.000000
_cell_volume 4792.299219
_symmetry_space_group_name_H-M "C M M M"
_symmetry_group_IT_number 65
_symmetry_cell_setting 'orthorhombic'
loop_
_space_group_symop_operation_xyz
x,y,z
-x,-y,z
x,-y,-z
-x,y,-z
-x,-y,-z
x,y,-z
-x,y,z
x,-y,z
1/2+x,1/2+y,z
1/2-x,1/2-y,z
1/2+x,1/2-y,-z
1/2-x,1/2+y,-z
1/2-x,1/2-y,-z
1/2+x,1/2+y,-z
1/2-x,1/2+y,z
1/2+x,1/2-y,z
loop_
_atom_site_type_symbol
_atom_site_label
_atom_site_fract_x
_atom_site_fract_y
_atom_site_fract_z
Si Si1 0.187507 0.748723 0.284336
Si Si2 0.182383 0.558016 0.214546
Si Si3 0.692082 0.442188 0.713363
Si Si4 0.887078 0.651722 0.210171
Si Si5 0.000000 0.699079 0.783430
Si Si6 0.000000 0.179978 0.710844
Si Si7 0.380740 0.651629 0.718974
O O1 0.188337 0.749367 0.500000
O O2 0.250000 0.750000 0.221840
O O3 0.156031 0.697677 0.229161
O O4 0.153682 0.798491 0.225737
O O5 0.174164 0.500000 0.281413
O O6 0.245035 0.573124 0.253352
O O7 0.140172 0.600171 0.284435
O O8 0.177436 0.556549 0.000000
O O9 0.685333 0.444526 0.500000
O O10 0.684480 0.500000 0.783830
O O11 0.650156 0.399505 0.779343
O O12 0.945058 0.671301 0.282308
O O13 0.895911 0.642706 0.000000
O O14 0.000000 0.758690 0.732531
O O15 0.000000 0.698264 0.000000
O O16 0.056946 0.157655 0.781341
O O17 0.000000 0.169204 0.500000
O O18 0.380966 0.651637 0.500000
#
# Coordination Sequence:
#
# PCOD9484273 Si02
#       7
#    16  16  16  16   8   8  16
#     4  10  19  30  47  71  98 126 157 196 240 289
#     4   9  18  33  51  71  96 126 158 193 238 291
#     4   9  17  31  51  73  97 125 157 196 240 283
#     4  10  20  33  49  70  97 126 159 200 242 284
#     4  10  20  34  49  69  97 127 162 203 242 280
#     4  10  18  32  51  67  91 131 168 195 234 288
#     4   9  17  29  46  70  96 123 159 197 234 281
#
# _framework density 20.032136999999999
#
# number of rings (size 3 to 8) (size 9 to 14) (size 15 to 20)
#    0.000    2.500    1.667    1.000    0.000    2.333 
#    0.000    2.500    0.000    5.000    0.000    0.000 
#    0.000    8.000    0.000    0.000    0.000    0.000 
#
# Total GULP energy -267974.234136 kJ/mol
# GULP energy per Si atom -5582.796544 kJ/mol
# Density = 1.998654 g / cm^3
# Si number density = 20.032137 Si / 1000 Ang^3
#
#
#
# Elastic Constant Matrix: (Units=GPa)
#
#
# Indices 1 2 3 4 5 6 
#
# 1 151.9983 74.2369 -10.7882 0.0000 0.0000 0.0000
# 2 74.2369 111.1788 -9.6565 0.0000 0.0000 0.0000
# 3 -10.7882 -9.6565 52.0637 0.0000 0.0000 0.0000
# 4 0.0000 0.0000 0.0000 14.4020 0.0000 0.0000
# 5 0.0000 0.0000 0.0000 0.0000 11.5278 0.0000
# 6 0.0000 0.0000 0.0000 0.0000 0.0000 20.1415
#
#
#
# Elastic Compliance Matrix: (Units=1/GPa)
#
#
# Indices 1 2 3 4 5 6 
#
# 1 0.009798 -0.006470 0.000830 0.000000 0.000000 0.000000
# 2 -0.006470 0.013415 0.001147 0.000000 0.000000 0.000000
# 3 0.000830 0.001147 0.019592 0.000000 0.000000 0.000000
# 4 0.000000 0.000000 0.000000 0.069435 0.000000 0.000000
# 5 0.000000 0.000000 0.000000 0.000000 0.086747 0.000000
# 6 0.000000 0.000000 0.000000 0.000000 0.000000 0.049649
#
#
# Mechanical properties :
#
#
# Convention : Reuss Voigt Hill
#
# Bulk Modulus (GPa) = 29.56901 46.98056 38.27478
# Shear Modulus (GPa) = 18.59474 26.64418 22.61946
#
# Velocity S-wave (km/s) = 3.05002 3.65097 3.36394
# Velocity P-wave (km/s) = 5.21501 6.42466 5.85118
#
# Compressibility (1/GPa) = 0.03381919
#
# Stress axis : x y z
#
# Youngs Moduli (GPa) = 102.06063 74.54579 51.04101
#
# Poissons Ratio (x) = 0.48234 -0.04237
# Poissons Ratio (y) = 0.66037 -0.05856
# Poissons Ratio (z) = -0.08473 -0.08553
#
# Static dielectric constant tensor:
#      x y z
#    x 1.686990 0.000000 0.000000 
#    y 0.000000 1.686750 0.000000 
#    z 0.000000 0.000000 1.758750 
# 
# From -- ./inp_files/29262.got.cif
#   From: 2010.05.17/outbox.cif.g08.bks.cpg/sg65_15_cif.got.tgz:29262.got - 2010.06.03 17:01:31.
