data_PCOD9484828
_publ_section_title
;
Structure prediction by ZEFSAII (Michael W. Deem and Ramdas Pophale) SiO2 
 PCOD9484828
Probable space group: C M M M
;
_chemical_formula_sum "Si O2"
_cell_formula_units_Z 72
_cell_length_a 14.597018
_cell_length_b 8.240632
_cell_length_c 26.219078
_cell_angle_alpha 90.000000
_cell_angle_beta 90.000000
_cell_angle_gamma 90.000000
_cell_volume 3153.857592
_symmetry_space_group_name_H-M "C M M M"
_symmetry_group_IT_number 65
_symmetry_cell_setting 'orthorhombic'
loop_
_space_group_symop_operation_xyz
x,y,z
-x,-y,z
x,-y,-z
-x,y,-z
-x,-y,-z
x,y,-z
-x,y,z
x,-y,z
1/2+x,1/2+y,z
1/2-x,1/2-y,z
1/2+x,1/2-y,-z
1/2-x,1/2+y,-z
1/2-x,1/2-y,-z
1/2+x,1/2+y,-z
1/2-x,1/2+y,z
1/2+x,1/2-y,z
loop_
_atom_site_type_symbol
_atom_site_label
_atom_site_fract_x
_atom_site_fract_y
_atom_site_fract_z
Si Si1 0.612142 0.678166 0.380654
Si Si2 0.143657 0.194014 0.944970
Si Si3 0.354474 0.806596 0.837594
Si Si4 0.892133 0.316051 0.275290
Si Si5 0.112160 0.500000 0.558772
O O1 0.500000 0.675903 0.382529
O O2 0.642900 0.500000 0.398318
O O3 0.641742 0.708374 0.322018
O O4 0.641359 0.835266 0.412704
O O5 0.250000 0.250000 0.945252
O O6 0.103047 0.251196 0.891217
O O7 0.140864 0.000000 0.944442
O O8 0.105571 0.249946 0.000000
O O9 0.250000 0.750000 0.840331
O O10 0.384965 0.747054 0.781889
O O11 0.363187 0.000000 0.836368
O O12 0.852593 0.500000 0.276659
O O13 0.000000 0.333194 0.284804
O O14 0.140619 0.500000 0.500000
O O15 0.000000 0.500000 0.560066
#
# Coordination Sequence:
#
# PCOD9484828 Si02
#       5
#    16  16  16  16   8
#     4   9  16  26  42  63  87 121 159 191 230 279
#     4   9  16  26  41  60  84 114 147 183 227 278
#     4  10  19  29  45  68  93 119 146 190 238 276
#     4   9  17  31  48  64  88 124 160 191 228 278
#     4   9  16  26  40  60  92 126 153 193 236 272
#
# _framework density 22.829187000000001
#
# number of rings (size 3 to 8) (size 9 to 14) (size 15 to 20)
#    0.000    2.778    1.111    2.667    0.000    3.556 
#    0.000    2.222    0.000    0.667    0.000    4.667 
#    0.000    0.889    0.444    0.000    0.000    0.000 
#
# Total GULP energy -200756.710828 kJ/mol
# GULP energy per Si atom -5576.575301 kJ/mol
# Density = 2.277723 g / cm^3
# Si number density = 22.829187 Si / 1000 Ang^3
#
#
#
# Elastic Constant Matrix: (Units=GPa)
#
#
# Indices 1 2 3 4 5 6 
#
# 1 53.3287 5.4742 1.5686 0.0000 0.0000 0.0000
# 2 5.4742 133.0360 104.0254 0.0000 0.0000 0.0000
# 3 1.5686 104.0254 210.4707 0.0000 0.0000 0.0000
# 4 0.0000 0.0000 0.0000 12.2054 0.0000 0.0000
# 5 0.0000 0.0000 0.0000 0.0000 15.8532 0.0000
# 6 0.0000 0.0000 0.0000 0.0000 0.0000 3.4951
#
#
#
# Elastic Compliance Matrix: (Units=1/GPa)
#
#
# Indices 1 2 3 4 5 6 
#
# 1 0.018851 -0.001085 0.000396 0.000000 0.000000 0.000000
# 2 -0.001085 0.012314 -0.006078 0.000000 0.000000 0.000000
# 3 0.000396 -0.006078 0.007752 0.000000 0.000000 0.000000
# 4 0.000000 0.000000 0.000000 0.081931 0.000000 0.000000
# 5 0.000000 0.000000 0.000000 0.000000 0.063079 0.000000
# 6 0.000000 0.000000 0.000000 0.000000 0.000000 0.286111
#
#
# Mechanical properties :
#
#
# Convention : Reuss Voigt Hill
#
# Bulk Modulus (GPa) = 39.39665 68.77464 54.08564
# Shear Modulus (GPa) = 10.16188 25.36189 17.76188
#
# Velocity S-wave (km/s) = 2.11209 3.33670 2.79235
# Velocity P-wave (km/s) = 4.82105 6.71088 5.84287
#
# Compressibility (1/GPa) = 0.02538287
#
# Stress axis : x y z
#
# Youngs Moduli (GPa) = 53.04651 81.20723 128.99121
#
# Poissons Ratio (x) = 0.08813 -0.05107
# Poissons Ratio (y) = 0.05757 0.78404
# Poissons Ratio (z) = -0.02100 0.49359
#
# Static dielectric constant tensor:
#      x y z
#    x 1.897130 0.000000 0.000000 
#    y 0.000000 1.815990 0.000000 
#    z 0.000000 0.000000 1.894870 
# 
# From -- ./inp_files/70737.got.cif
#   From: 2010.05.17/outbox.cif.g08.bks.cpg/sg65_36_cif.got.tgz:70737.got - 2010.06.03 17:01:31.
