data_PCOD9484831
_publ_section_title
;
Structure prediction by ZEFSAII (Michael W. Deem and Ramdas Pophale) SiO2 
 PCOD9484831
Probable space group: C M M M
;
_chemical_formula_sum "Si O2"
_cell_formula_units_Z 64
_cell_length_a 14.644353
_cell_length_b 8.345506
_cell_length_c 23.386734
_cell_angle_alpha 90.000000
_cell_angle_beta 90.000000
_cell_angle_gamma 90.000000
_cell_volume 2858.198840
_symmetry_space_group_name_H-M "C M M M"
_symmetry_group_IT_number 65
_symmetry_cell_setting 'orthorhombic'
loop_
_space_group_symop_operation_xyz
x,y,z
-x,-y,z
x,-y,-z
-x,y,-z
-x,-y,-z
x,y,-z
-x,y,z
x,-y,z
1/2+x,1/2+y,z
1/2-x,1/2-y,z
1/2+x,1/2-y,-z
1/2-x,1/2+y,-z
1/2-x,1/2-y,-z
1/2+x,1/2+y,-z
1/2-x,1/2+y,z
1/2+x,1/2-y,z
loop_
_atom_site_type_symbol
_atom_site_label
_atom_site_fract_x
_atom_site_fract_y
_atom_site_fract_z
Si Si1 0.355332 0.191113 0.123156
Si Si2 0.353673 0.689254 0.242183
Si Si3 0.111764 0.500000 0.433164
Si Si4 0.144277 0.694324 0.000000
Si Si5 0.894715 0.818411 0.371646
O O1 0.250000 0.250000 0.124267
O O2 0.395683 0.242570 0.183872
O O3 0.393668 0.248201 0.061699
O O4 0.356186 0.000000 0.122273
O O5 0.353622 0.500000 0.234976
O O6 0.250000 0.750000 0.245972
O O7 0.395293 0.722812 0.304099
O O8 0.133488 0.500000 0.500000
O O9 0.145786 0.335148 0.404034
O O10 0.000000 0.500000 0.427201
O O11 0.250000 0.750000 0.000000
O O12 0.140272 0.500000 0.000000
O O13 0.000000 0.830081 0.390811
O O14 0.855466 0.000000 0.378257
#
# Coordination Sequence:
#
# PCOD9484831 Si02
#       5
#    16  16   8   8  16
#     4   9  15  23  36  55  84 115 152 191 232 279
#     4  10  19  29  45  69  94 125 158 194 236 284
#     4   9  18  32  54  80 100 123 156 194 236 281
#     4   8  14  22  32  50  77 114 147 187 234 274
#     4   9  19  34  51  74 101 127 158 196 236 279
#
# _framework density 22.391724
#
# number of rings (size 3 to 8) (size 9 to 14) (size 15 to 20)
#    0.000    2.875    0.000    3.000    3.500    1.500 
#    0.000    2.500    0.000    0.750    0.000    0.875 
#    0.000    7.000    0.000    0.000    0.000    0.000 
#
# Total GULP energy -178331.747593 kJ/mol
# GULP energy per Si atom -5572.867112 kJ/mol
# Density = 2.234076 g / cm^3
# Si number density = 22.391724 Si / 1000 Ang^3
#
#
#
# Elastic Constant Matrix: (Units=GPa)
#
#
# Indices 1 2 3 4 5 6 
#
# 1 60.0940 10.3461 6.0060 0.0000 0.0000 0.0000
# 2 10.3461 115.0665 127.7145 0.0000 0.0000 0.0000
# 3 6.0060 127.7145 172.6018 0.0000 0.0000 0.0000
# 4 0.0000 0.0000 0.0000 28.9324 0.0000 0.0000
# 5 0.0000 0.0000 0.0000 0.0000 25.5971 0.0000
# 6 0.0000 0.0000 0.0000 0.0000 0.0000 1.8804
#
#
#
# Elastic Compliance Matrix: (Units=1/GPa)
#
#
# Indices 1 2 3 4 5 6 
#
# 1 0.017185 -0.004932 0.003051 0.000000 0.000000 0.000000
# 2 -0.004932 0.050040 -0.036855 0.000000 0.000000 0.000000
# 3 0.003051 -0.036855 0.032958 0.000000 0.000000 0.000000
# 4 0.000000 0.000000 0.000000 0.034563 0.000000 0.000000
# 5 0.000000 0.000000 0.000000 0.000000 0.039067 0.000000
# 6 0.000000 0.000000 0.000000 0.000000 0.000000 0.531798
#
#
# Mechanical properties :
#
#
# Convention : Reuss Voigt Hill
#
# Bulk Modulus (GPa) = 44.03014 70.65507 57.34260
# Shear Modulus (GPa) = 6.32390 24.86169 15.59279
#
# Velocity S-wave (km/s) = 1.68236 3.33574 2.64173
# Velocity P-wave (km/s) = 4.84562 6.81607 5.91350
#
# Compressibility (1/GPa) = 0.02271172
#
# Stress axis : x y z
#
# Youngs Moduli (GPa) = 58.19120 19.98404 30.34187
#
# Poissons Ratio (x) = 0.09856 -0.09258
# Poissons Ratio (y) = 0.28699 1.11824
# Poissons Ratio (z) = -0.17755 0.73651
#
# Static dielectric constant tensor:
#      x y z
#    x 1.833560 0.000000 0.000000 
#    y 0.000000 1.799710 0.000000 
#    z 0.000000 0.000000 1.867750 
# 
# From -- ./inp_files/64255.got.cif
#   From: 2010.05.17/outbox.cif.g08.bks.cpg/sg65_33_cif.got.tgz:64255.got - 2010.06.03 17:01:31.
