data_PCOD9484108
_publ_section_title
;
Structure prediction by ZEFSAII (Michael W. Deem and Ramdas Pophale) SiO2 
 PCOD9484108
Probable space group: C M M M
;
_chemical_formula_sum "Si O2"
_cell_formula_units_Z 104
_cell_length_a 8.788384
_cell_length_b 26.321154
_cell_length_c 26.757769
_cell_angle_alpha 90.000000
_cell_angle_beta 90.000000
_cell_angle_gamma 90.000000
_cell_volume 6189.618060
_symmetry_space_group_name_H-M "C M M M"
_symmetry_group_IT_number 65
_symmetry_cell_setting 'orthorhombic'
loop_
_space_group_symop_operation_xyz
x,y,z
-x,-y,z
x,-y,-z
-x,y,-z
-x,-y,-z
x,y,-z
-x,y,z
x,-y,z
1/2+x,1/2+y,z
1/2-x,1/2-y,z
1/2+x,1/2-y,-z
1/2-x,1/2+y,-z
1/2-x,1/2-y,-z
1/2+x,1/2+y,-z
1/2-x,1/2+y,z
1/2+x,1/2-y,z
loop_
_atom_site_type_symbol
_atom_site_label
_atom_site_fract_x
_atom_site_fract_y
_atom_site_fract_z
Si Si1 0.318129 0.559718 0.394939
Si Si2 0.184291 0.598235 0.293731
Si Si3 0.682096 0.597858 0.058922
Si Si4 0.182857 0.695557 0.230644
Si Si5 0.824167 0.438332 0.500000
Si Si6 0.816573 0.500000 0.885501
Si Si7 0.817173 0.694866 0.885932
Si Si8 0.184890 0.500000 0.230204
O O1 0.500000 0.562228 0.394586
O O2 0.273726 0.500000 0.388578
O O3 0.249505 0.590469 0.348834
O O4 0.256445 0.577471 0.448693
O O5 0.232845 0.649836 0.266283
O O6 0.233382 0.550234 0.259908
O O7 0.000000 0.597695 0.296109
O O8 0.500000 0.597143 0.065236
O O9 0.754318 0.550059 0.087402
O O10 0.748907 0.649801 0.081267
O O11 0.715953 0.594225 0.000000
O O12 0.250000 0.750000 0.244848
O O13 0.223209 0.685490 0.172543
O O14 0.000000 0.698236 0.232684
O O15 0.818128 0.500000 0.500000
O O16 0.000000 0.422942 0.500000
O O17 0.767523 0.500000 0.827410
O O18 0.000000 0.500000 0.887171
O O19 0.750000 0.750000 0.899552
O O20 0.000000 0.695669 0.890162
O O21 0.000000 0.500000 0.230067
#
# Coordination Sequence:
#
# PCOD9484108 Si02
#       8
#    16  16  16  16   8   8  16   8
#     4  10  19  30  44  69 105 137 170 213 259 299
#     4  10  18  31  51  73 101 137 173 207 248 302
#     4  11  24  40  56  77 106 138 173 214 260 312
#     4   9  19  34  53  77 103 134 172 212 255 305
#     4   9  17  29  47  67  92 135 182 213 249 302
#     4  11  22  38  59  80 103 137 178 217 260 310
#     4  10  20  37  60  83 107 134 170 214 265 318
#     4   9  18  32  52  76 103 132 166 209 253 304
#
# _framework density 16.802329
#
# number of rings (size 3 to 8) (size 9 to 14) (size 15 to 20)
#    0.000    2.077    0.769    3.000    0.000    7.692 
#    0.000    3.077    0.000    0.000    0.000    0.538 
#    0.000    0.000    0.000    0.000    0.000    0.000 
#
# Total GULP energy -290294.514871 kJ/mol
# GULP energy per Si atom -5582.586824 kJ/mol
# Density = 1.676409 g / cm^3
# Si number density = 16.802329 Si / 1000 Ang^3
#
#
#
# Elastic Constant Matrix: (Units=GPa)
#
#
# Indices 1 2 3 4 5 6 
#
# 1 39.0084 34.3054 48.5143 0.0000 0.0000 0.0000
# 2 34.3054 109.8068 85.4697 0.0000 0.0000 0.0000
# 3 48.5143 85.4697 149.5803 0.0000 0.0000 0.0000
# 4 0.0000 0.0000 0.0000 -18.9724 0.0000 0.0000
# 5 0.0000 0.0000 0.0000 0.0000 20.4493 0.0000
# 6 0.0000 0.0000 0.0000 0.0000 0.0000 28.5939
#
#
#
# Elastic Compliance Matrix: (Units=1/GPa)
#
#
# Indices 1 2 3 4 5 6 
#
# 1 0.044322 -0.004787 -0.011640 0.000000 0.000000 0.000000
# 2 -0.004787 0.016919 -0.008115 0.000000 0.000000 0.000000
# 3 -0.011640 -0.008115 0.015097 0.000000 0.000000 0.000000
# 4 0.000000 0.000000 0.000000 -0.052708 0.000000 0.000000
# 5 0.000000 0.000000 0.000000 0.000000 0.048901 0.000000
# 6 0.000000 0.000000 0.000000 0.000000 0.000000 0.034973
#
#
# Mechanical properties :
#
#
# Convention : Reuss Voigt Hill
#
# Bulk Modulus (GPa) = 36.69083 70.55270 53.62176
# Shear Modulus (GPa) = 30.18034 14.68790 22.43412
#
# Velocity S-wave (km/s) = 4.24276 2.95983 3.65797
# Velocity P-wave (km/s) = 6.77388 7.33224 7.05858
#
# Compressibility (1/GPa) = 0.02725477
#
# Stress axis : x y z
#
# Youngs Moduli (GPa) = 22.56241 59.10683 66.23655
#
# Poissons Ratio (x) = 0.28292 0.77100
# Poissons Ratio (y) = 0.10800 0.53749
# Poissons Ratio (z) = 0.26263 0.47964
#
# Static dielectric constant tensor:
#      x y z
#    x 1.564910 0.000000 0.000000 
#    y 0.000000 1.539370 0.000000 
#    z 0.000000 0.000000 1.553480 
# 
# From -- ./inp_files/73650.got.cif
#   From: 2010.05.17/outbox.cif.g08.bks.cpg/sg65_37_cif.got.tgz:73650.got - 2010.06.03 17:01:31.
