data_PCOD9484730
_publ_section_title
;
Structure prediction by ZEFSAII (Michael W. Deem and Ramdas Pophale) SiO2 
 PCOD9484730
Probable space group: C M M M
;
_chemical_formula_sum "Si O2"
_cell_formula_units_Z 88
_cell_length_a 19.191986
_cell_length_b 7.341198
_cell_length_c 29.969899
_cell_angle_alpha 90.000000
_cell_angle_beta 90.000000
_cell_angle_gamma 90.000000
_cell_volume 4222.524082
_symmetry_space_group_name_H-M "C M M M"
_symmetry_group_IT_number 65
_symmetry_cell_setting 'orthorhombic'
loop_
_space_group_symop_operation_xyz
x,y,z
-x,-y,z
x,-y,-z
-x,y,-z
-x,-y,-z
x,y,-z
-x,y,z
x,-y,z
1/2+x,1/2+y,z
1/2-x,1/2-y,z
1/2+x,1/2-y,-z
1/2-x,1/2+y,-z
1/2-x,1/2-y,-z
1/2+x,1/2+y,-z
1/2-x,1/2+y,z
1/2+x,1/2-y,z
loop_
_atom_site_type_symbol
_atom_site_label
_atom_site_fract_x
_atom_site_fract_y
_atom_site_fract_z
Si Si1 0.419264 0.778253 0.366711
Si Si2 0.667810 0.217492 0.450774
Si Si3 0.919024 0.722926 0.902482
Si Si4 0.584680 0.211554 0.000000
Si Si5 0.419162 0.778060 0.732888
Si Si6 0.832142 0.282681 0.182529
O O1 0.500000 0.727728 0.372533
O O2 0.373713 0.712167 0.408072
O O3 0.397263 0.720225 0.316942
O O4 0.416534 0.000000 0.366683
O O5 0.647054 0.287343 0.500000
O O6 0.750000 0.250000 0.445545
O O7 0.656986 0.000000 0.451735
O O8 0.918371 0.500000 0.903755
O O9 0.895033 0.786947 0.951654
O O10 0.870695 0.784601 0.862033
O O11 0.000000 0.774380 0.895393
O O12 0.500000 0.215740 0.000000
O O13 0.606253 0.000000 0.000000
O O14 0.500000 0.725548 0.740048
O O15 0.369910 0.714159 0.772708
O O16 0.418311 0.000000 0.732885
O O17 0.842376 0.500000 0.182494
O O18 0.750000 0.250000 0.182327
#
# Coordination Sequence:
#
# PCOD9484730 Si02
#       6
#    16  16  16   8  16  16
#     4   8  14  25  42  64  85 103 131 174 214 241
#     4   9  17  28  42  61  85 112 139 166 199 241
#     4   8  13  23  41  62  81 104 137 174 206 236
#     4   7  10  18  35  60  83  99 126 173 214 234
#     4   8  14  26  44  63  81 104 137 174 207 239
#     4  10  19  29  42  62  87 111 136 167 203 244
#
# _framework density 20.840616000000001
#
# number of rings (size 3 to 8) (size 9 to 14) (size 15 to 20)
#    0.000    3.545    0.000    2.727    0.000    3.273 
#    0.000    2.273    0.000    2.727    0.000    5.091 
#    0.000    2.182    0.000    0.000    0.000    0.000 
#
# Total GULP energy -245342.093990 kJ/mol
# GULP energy per Si atom -5575.956682 kJ/mol
# Density = 2.079318 g / cm^3
# Si number density = 20.840616 Si / 1000 Ang^3
#
#
#
# Elastic Constant Matrix: (Units=GPa)
#
#
# Indices 1 2 3 4 5 6 
#
# 1 101.3047 -0.2928 137.2171 0.0000 0.0000 0.0000
# 2 -0.2928 79.7037 12.7920 0.0000 0.0000 0.0000
# 3 137.2171 12.7920 285.9223 0.0000 0.0000 0.0000
# 4 0.0000 0.0000 0.0000 -10.5537 0.0000 0.0000
# 5 0.0000 0.0000 0.0000 0.0000 3.8843 0.0000
# 6 0.0000 0.0000 0.0000 0.0000 0.0000 13.0959
#
#
#
# Elastic Compliance Matrix: (Units=1/GPa)
#
#
# Indices 1 2 3 4 5 6 
#
# 1 0.028629 0.002327 -0.013843 0.000000 0.000000 0.000000
# 2 0.002327 0.012826 -0.001691 0.000000 0.000000 0.000000
# 3 -0.013843 -0.001691 0.010217 0.000000 0.000000 0.000000
# 4 0.000000 0.000000 0.000000 -0.094753 0.000000 0.000000
# 5 0.000000 0.000000 0.000000 0.000000 0.257448 0.000000
# 6 0.000000 0.000000 0.000000 0.000000 0.000000 0.076360
#
#
# Mechanical properties :
#
#
# Convention : Reuss Voigt Hill
#
# Bulk Modulus (GPa) = 39.59172 85.15149 62.37161
# Shear Modulus (GPa) = 15.35815 22.43291 18.89553
#
# Velocity S-wave (km/s) = 2.71760 3.28442 3.01436
# Velocity P-wave (km/s) = 5.37455 7.43844 6.48907
#
# Compressibility (1/GPa) = 0.02525781
#
# Stress axis : x y z
#
# Youngs Moduli (GPa) = 34.92995 77.96457 97.87942
#
# Poissons Ratio (x) = -0.18142 1.35498
# Poissons Ratio (y) = -0.08128 0.16547
# Poissons Ratio (z) = 0.48355 0.13180
#
# Static dielectric constant tensor:
#      x y z
#    x 1.677720 0.000000 0.000000 
#    y 0.000000 1.762690 0.000000 
#    z 0.000000 0.000000 1.770450 
# 
# From -- ./inp_files/77480.got.cif
#   From: 2010.05.17/outbox.cif.g08.bks.cpg/sg65_39_cif.got.tgz:77480.got - 2010.06.03 17:01:31.
