data_PCOD9484578
_publ_section_title
;
Structure prediction by ZEFSAII (Michael W. Deem and Ramdas Pophale) SiO2 
 PCOD9484578
Probable space group: C M M M
;
_chemical_formula_sum "Si O2"
_cell_formula_units_Z 76
_cell_length_a 12.848524
_cell_length_b 14.373375
_cell_length_c 18.421557
_cell_angle_alpha 90.000000
_cell_angle_beta 90.000000
_cell_angle_gamma 90.000000
_cell_volume 3402.031502
_symmetry_space_group_name_H-M "C M M M"
_symmetry_group_IT_number 65
_symmetry_cell_setting 'orthorhombic'
loop_
_space_group_symop_operation_xyz
x,y,z
-x,-y,z
x,-y,-z
-x,y,-z
-x,-y,-z
x,y,-z
-x,y,z
x,-y,z
1/2+x,1/2+y,z
1/2-x,1/2-y,z
1/2+x,1/2-y,-z
1/2-x,1/2+y,-z
1/2-x,1/2-y,-z
1/2+x,1/2+y,-z
1/2-x,1/2+y,z
1/2+x,1/2-y,z
loop_
_atom_site_type_symbol
_atom_site_label
_atom_site_fract_x
_atom_site_fract_y
_atom_site_fract_z
Si Si1 0.309227 0.000000 0.500000
Si Si2 0.776566 0.143747 0.608999
Si Si3 0.000000 0.894343 0.636023
Si Si4 0.500000 0.243313 0.763870
Si Si5 0.500000 0.228886 0.077802
Si Si6 0.800402 0.608934 0.233923
Si Si7 0.787477 0.611274 0.922544
O O1 0.300201 0.919831 0.563350
O O2 0.750000 0.250000 0.596616
O O3 0.895243 0.119837 0.590060
O O4 0.767313 0.122601 0.694687
O O5 0.000000 0.819113 0.700776
O O6 0.000000 0.000000 0.664198
O O7 0.500000 0.282648 0.846224
O O8 0.600682 0.176300 0.757515
O O9 0.601100 0.162099 0.078622
O O10 0.500000 0.279462 0.000000
O O11 0.832138 0.500000 0.230514
O O12 0.742928 0.632182 0.157479
O O13 0.800480 0.500000 0.924767
O O14 0.735942 0.638226 0.000000
#
# Coordination Sequence:
#
# PCOD9484578 Si02
#       7
#     4  16   8   8   8  16  16
#     4  12  26  49  72  99 126 164 204 265 328 381
#     4  12  25  44  70  96 128 164 211 265 320 384
#     4  12  24  43  69  95 124 170 218 260 305 383
#     4  10  19  32  60  90 130 170 214 263 318 376
#     4   8  13  22  40  75 119 165 210 257 308 365
#     4  10  18  34  59  91 129 170 208 261 322 385
#     4   8  13  21  41  77 120 162 206 253 308 369
#
# _framework density 22.339594999999999
#
# number of rings (size 3 to 8) (size 9 to 14) (size 15 to 20)
#    0.000    1.895    4.211    0.947    0.000    4.632 
#    0.000    0.000    0.000    5.368    0.000    0.000 
#    0.000    0.000    0.000    0.000    0.000    0.000 
#
# Total GULP energy -211642.922235 kJ/mol
# GULP energy per Si atom -5569.550585 kJ/mol
# Density = 2.228875 g / cm^3
# Si number density = 22.339595 Si / 1000 Ang^3
#
#
#
# Elastic Constant Matrix: (Units=GPa)
#
#
# Indices 1 2 3 4 5 6 
#
# 1 49.9101 0.5841 1.5293 0.0000 0.0000 0.0000
# 2 0.5841 147.8960 18.7000 0.0000 0.0000 0.0000
# 3 1.5293 18.7000 140.1976 0.0000 0.0000 0.0000
# 4 0.0000 0.0000 0.0000 130.0198 0.0000 0.0000
# 5 0.0000 0.0000 0.0000 0.0000 -33.6280 0.0000
# 6 0.0000 0.0000 0.0000 0.0000 0.0000 -10.5432
#
#
#
# Elastic Compliance Matrix: (Units=1/GPa)
#
#
# Indices 1 2 3 4 5 6 
#
# 1 0.020043 -0.000052 -0.000212 0.000000 0.000000 0.000000
# 2 -0.000052 0.006878 -0.000917 0.000000 0.000000 0.000000
# 3 -0.000212 -0.000917 0.007257 0.000000 0.000000 0.000000
# 4 0.000000 0.000000 0.000000 0.007691 0.000000 0.000000
# 5 0.000000 0.000000 0.000000 0.000000 -0.029737 0.000000
# 6 0.000000 0.000000 0.000000 0.000000 0.000000 -0.094848
#
#
# Mechanical properties :
#
#
# Convention : Reuss Voigt Hill
#
# Bulk Modulus (GPa) = 31.43027 42.18117 36.80572
# Shear Modulus (GPa) = -71.68625 38.31574 -16.68525
#
# Velocity S-wave (km/s) = -5.67089 4.14593 -2.73590
# Velocity P-wave (km/s) = 5.36459 6.46847 2.55561
#
# Compressibility (1/GPa) = 0.03181646
#
# Stress axis : x y z
#
# Youngs Moduli (GPa) = 49.89245 145.39886 137.79074
#
# Poissons Ratio (x) = 0.00762 0.02916
# Poissons Ratio (y) = 0.00261 0.12632
# Poissons Ratio (z) = 0.01056 0.13330
#
# Static dielectric constant tensor:
#      x y z
#    x 1.823730 0.000000 0.000000 
#    y 0.000000 1.805070 0.000000 
#    z 0.000000 0.000000 1.896570 
# 
# From -- ./inp_files/62438.got.cif
#   From: 2010.05.17/outbox.cif.g08.bks.cpg/sg65_32_cif.got.tgz:62438.got - 2010.06.03 17:01:31.
