data_PCOD9484049
_publ_section_title
;
Structure prediction by ZEFSAII (Michael W. Deem and Ramdas Pophale) SiO2 
 PCOD9484049
Probable space group: C M M M
;
_chemical_formula_sum "Si O2"
_cell_formula_units_Z 128
_cell_length_a 18.065115
_cell_length_b 16.916208
_cell_length_c 21.963363
_cell_angle_alpha 90.000000
_cell_angle_beta 90.000000
_cell_angle_gamma 90.000000
_cell_volume 6711.855324
_symmetry_space_group_name_H-M "C M M M"
_symmetry_group_IT_number 65
_symmetry_cell_setting 'orthorhombic'
loop_
_space_group_symop_operation_xyz
x,y,z
-x,-y,z
x,-y,-z
-x,y,-z
-x,-y,-z
x,y,-z
-x,y,z
x,-y,z
1/2+x,1/2+y,z
1/2-x,1/2-y,z
1/2+x,1/2-y,-z
1/2-x,1/2+y,-z
1/2-x,1/2-y,-z
1/2+x,1/2+y,-z
1/2-x,1/2+y,z
1/2+x,1/2-y,z
loop_
_atom_site_type_symbol
_atom_site_label
_atom_site_fract_x
_atom_site_fract_y
_atom_site_fract_z
Si Si1 0.312673 0.091492 0.690421
Si Si2 0.414415 0.214346 0.753554
Si Si3 0.240641 0.096822 0.432073
Si Si4 0.148075 0.881250 0.263773
Si Si5 0.774023 0.662627 0.929899
Si Si6 0.416987 0.238623 0.101332
Si Si7 0.918868 0.090420 0.391010
Si Si8 0.141148 0.912232 0.123566
O O1 0.375052 0.138371 0.726175
O O2 0.294032 0.123006 0.622506
O O3 0.233140 0.097436 0.724057
O O4 0.333225 0.000000 0.686030
O O5 0.500000 0.222779 0.734111
O O6 0.364713 0.287853 0.733021
O O7 0.414012 0.219083 0.826729
O O8 0.263698 0.118580 0.500000
O O9 0.156341 0.125225 0.419396
O O10 0.238452 0.000000 0.428105
O O11 0.098110 0.913137 0.318721
O O12 0.126660 0.907719 0.195911
O O13 0.750000 0.750000 0.907161
O O14 0.861511 0.674996 0.927641
O O15 0.728883 0.600545 0.889969
O O16 0.750391 0.652681 0.000000
O O17 0.500000 0.230108 0.078964
O O18 0.394397 0.332074 0.095030
O O19 0.000000 0.126782 0.402022
O O20 0.922351 0.000000 0.413544
O O21 0.118654 0.000000 0.101722
#
# Coordination Sequence:
#
# PCOD9484049 Si02
#       8
#    16  16  16  16  16  16  16  16
#     4  10  19  31  51  75  96 125 168 214 255 295
#     4  10  20  33  50  72 101 134 164 202 252 305
#     4   8  15  28  45  67  95 126 164 211 258 300
#     4  10  18  31  48  71 100 132 165 198 246 305
#     4   9  18  33  52  72  97 134 176 211 244 289
#     4   9  19  34  51  75 104 134 170 207 249 304
#     4   9  16  25  41  68 100 132 166 204 244 292
#     4  10  19  31  51  78 106 134 165 207 256 300
#
# _framework density 19.070732
#
# number of rings (size 3 to 8) (size 9 to 14) (size 15 to 20)
#    0.000    2.625    0.000    3.375    0.000    3.750 
#    0.000    1.250    0.000    7.500    0.000    6.125 
#    0.000    0.000    0.000    0.000    0.000    0.000 
#
# Total GULP energy -356415.942330 kJ/mol
# GULP energy per Si atom -5568.999099 kJ/mol
# Density = 1.902733 g / cm^3
# Si number density = 19.070732 Si / 1000 Ang^3
#
#
#
# Elastic Constant Matrix: (Units=GPa)
#
#
# Indices 1 2 3 4 5 6 
#
# 1 65.1007 20.9896 13.1198 0.0000 0.0000 0.0000
# 2 20.9896 55.7465 17.8186 0.0000 0.0000 0.0000
# 3 13.1198 17.8186 35.3318 0.0000 0.0000 0.0000
# 4 0.0000 0.0000 0.0000 18.1027 0.0000 0.0000
# 5 0.0000 0.0000 0.0000 0.0000 12.5137 0.0000
# 6 0.0000 0.0000 0.0000 0.0000 0.0000 -16.4957
#
#
#
# Elastic Compliance Matrix: (Units=1/GPa)
#
#
# Indices 1 2 3 4 5 6 
#
# 1 0.017918 -0.005507 -0.003876 0.000000 0.000000 0.000000
# 2 -0.005507 0.023079 -0.009594 0.000000 0.000000 0.000000
# 3 -0.003876 -0.009594 0.034581 0.000000 0.000000 0.000000
# 4 0.000000 0.000000 0.000000 0.055240 0.000000 0.000000
# 5 0.000000 0.000000 0.000000 0.000000 0.079912 0.000000
# 6 0.000000 0.000000 0.000000 0.000000 0.000000 -0.060622
#
#
# Mechanical properties :
#
#
# Convention : Reuss Voigt Hill
#
# Bulk Modulus (GPa) = 26.57987 28.89280 27.73634
# Shear Modulus (GPa) = 24.92484 9.77421 17.34953
#
# Velocity S-wave (km/s) = 3.61912 2.26636 3.01947
# Velocity P-wave (km/s) = 5.60641 4.69380 5.17028
#
# Compressibility (1/GPa) = 0.03762245
#
# Stress axis : x y z
#
# Youngs Moduli (GPa) = 55.81099 43.33018 28.91782
#
# Poissons Ratio (x) = 0.23864 0.11208
# Poissons Ratio (y) = 0.30738 0.27744
# Poissons Ratio (z) = 0.21631 0.41571
#
# Static dielectric constant tensor:
#      x y z
#    x 1.701370 0.000000 0.000000 
#    y 0.000000 1.868470 0.000000 
#    z 0.000000 0.000000 1.687240 
# 
# From -- ./inp_files/70684.got.cif
#   From: 2010.05.17/outbox.cif.g08.bks.cpg/sg65_36_cif.got.tgz:70684.got - 2010.06.03 17:01:31.
