data_PCOD9484625
_publ_section_title
;
Structure prediction by ZEFSAII (Michael W. Deem and Ramdas Pophale) SiO2 
 PCOD9484625
Probable space group: C M M M
;
_chemical_formula_sum "Si O2"
_cell_formula_units_Z 56
_cell_length_a 12.794627
_cell_length_b 18.460466
_cell_length_c 12.771304
_cell_angle_alpha 90.000000
_cell_angle_beta 90.000000
_cell_angle_gamma 90.000000
_cell_volume 3016.515297
_symmetry_space_group_name_H-M "C M M M"
_symmetry_group_IT_number 65
_symmetry_cell_setting 'orthorhombic'
loop_
_space_group_symop_operation_xyz
x,y,z
-x,-y,z
x,-y,-z
-x,y,-z
-x,-y,-z
x,y,-z
-x,y,z
x,-y,z
1/2+x,1/2+y,z
1/2-x,1/2-y,z
1/2+x,1/2-y,-z
1/2-x,1/2+y,-z
1/2-x,1/2-y,-z
1/2+x,1/2+y,-z
1/2-x,1/2+y,z
1/2+x,1/2-y,z
loop_
_atom_site_type_symbol
_atom_site_label
_atom_site_fract_x
_atom_site_fract_y
_atom_site_fract_z
Si Si1 0.000000 0.368431 0.673007
Si Si2 0.500000 0.000000 0.500000
Si Si3 0.674329 0.627887 0.500000
Si Si4 0.000000 0.247533 0.500000
Si Si5 0.726596 0.836108 0.717206
Si Si6 0.120636 0.913738 0.123442
Si Si7 0.000000 0.000000 0.500000
O O1 0.000000 0.436328 0.593454
O O2 0.000000 0.297193 0.600805
O O3 0.892668 0.360128 0.737317
O O4 0.603180 0.699377 0.500000
O O5 0.743824 0.630219 0.603977
O O6 0.592230 0.562662 0.500000
O O7 0.750000 0.750000 0.713382
O O8 0.802114 0.870153 0.803620
O O9 0.000000 0.896535 0.150376
O O10 0.133920 0.000000 0.139645
O O11 0.135505 0.899286 0.000000
#
# Coordination Sequence:
#
# PCOD9484625 Si02
#       7
#     8   2   8   4  16  16   2
#     4  11  24  40  59  89 124 179 213 241 306 377
#     4  10  24  40  60  74 140 182 210 242 280 394
#     4  11  23  38  59  98 128 164 200 266 322 363
#     4  10  18  40  56  78 134 164 200 238 310 376
#     4  12  25  39  66  91 131 171 209 258 308 382
#     4   9  22  45  71  95 121 158 207 269 330 371
#     4  10  28  36  64  96 126 154 230 274 314 352
#
# _framework density 18.564468000000002
#
# number of rings (size 3 to 8) (size 9 to 14) (size 15 to 20)
#    0.000    1.429    2.857    3.000   10.000    1.714 
#    0.000    0.714    0.000    1.714    0.000    0.000 
#    0.000    0.000    0.000    0.000    0.000    0.000 
#
# Total GULP energy -155893.119617 kJ/mol
# GULP energy per Si atom -5567.611415 kJ/mol
# Density = 1.852221 g / cm^3
# Si number density = 18.564468 Si / 1000 Ang^3
#
#
#
# Elastic Constant Matrix: (Units=GPa)
#
#
# Indices 1 2 3 4 5 6 
#
# 1 163.3989 69.1579 82.2108 0.0000 0.0000 0.0000
# 2 69.1579 105.5649 48.7420 0.0000 0.0000 0.0000
# 3 82.2108 48.7420 73.7449 0.0000 0.0000 0.0000
# 4 0.0000 0.0000 0.0000 0.5933 0.0000 0.0000
# 5 0.0000 0.0000 0.0000 0.0000 19.3158 0.0000
# 6 0.0000 0.0000 0.0000 0.0000 0.0000 -652.7975
#
#
#
# Elastic Compliance Matrix: (Units=1/GPa)
#
#
# Indices 1 2 3 4 5 6 
#
# 1 0.014544 -0.002939 -0.014272 0.000000 0.000000 0.000000
# 2 -0.002939 0.014227 -0.006128 0.000000 0.000000 0.000000
# 3 -0.014272 -0.006128 0.033520 0.000000 0.000000 0.000000
# 4 0.000000 0.000000 0.000000 1.685416 0.000000 0.000000
# 5 0.000000 0.000000 0.000000 0.000000 0.051771 0.000000
# 6 0.000000 0.000000 0.000000 0.000000 0.000000 -0.001532
#
#
# Mechanical properties :
#
#
# Convention : Reuss Voigt Hill
#
# Bulk Modulus (GPa) = 64.03621 82.54778 73.29200
# Shear Modulus (GPa) = 2.70295 -117.07115 -57.18410
#
# Velocity S-wave (km/s) = 1.20795 -7.94977 -5.55606
# Velocity P-wave (km/s) = 6.04271 6.30104 1.26269
#
# Compressibility (1/GPa) = 0.01561616
#
# Stress axis : x y z
#
# Youngs Moduli (GPa) = 68.75583 70.28744 29.83277
#
# Poissons Ratio (x) = 0.20655 0.42576
# Poissons Ratio (y) = 0.20205 0.18280
# Poissons Ratio (z) = 0.98125 0.43069
#
# Static dielectric constant tensor:
#      x y z
#    x 1.696340 0.000000 0.000000 
#    y 0.000000 1.632740 0.000000 
#    z 0.000000 0.000000 1.612960 
# 
# From -- ./inp_files/37724.got.cif
#   From: 2010.05.17/outbox.cif.g08.bks.cpg/sg65_19_cif.got.tgz:37724.got - 2010.06.03 17:01:31.
