data_PCOD9484551
_publ_section_title
;
Structure prediction by ZEFSAII (Michael W. Deem and Ramdas Pophale) SiO2 
 PCOD9484551
Probable space group: C M M M
;
_chemical_formula_sum "Si O2"
_cell_formula_units_Z 72
_cell_length_a 31.145517
_cell_length_b 14.968338
_cell_length_c 7.539715
_cell_angle_alpha 90.000000
_cell_angle_beta 90.000000
_cell_angle_gamma 90.000000
_cell_volume 3514.989691
_symmetry_space_group_name_H-M "C M M M"
_symmetry_group_IT_number 65
_symmetry_cell_setting 'orthorhombic'
loop_
_space_group_symop_operation_xyz
x,y,z
-x,-y,z
x,-y,-z
-x,y,-z
-x,-y,-z
x,y,-z
-x,y,z
x,-y,z
1/2+x,1/2+y,z
1/2-x,1/2-y,z
1/2+x,1/2-y,-z
1/2-x,1/2+y,-z
1/2-x,1/2-y,-z
1/2+x,1/2+y,-z
1/2-x,1/2+y,z
1/2+x,1/2-y,z
loop_
_atom_site_type_symbol
_atom_site_label
_atom_site_fract_x
_atom_site_fract_y
_atom_site_fract_z
Si Si1 0.743680 0.000000 0.203543
Si Si2 0.447747 0.000000 0.296355
Si Si3 0.841428 0.000000 0.296325
Si Si4 0.950800 0.304331 0.717354
Si Si5 0.370804 0.307960 0.282522
Si Si6 0.209485 0.308055 0.286608
O O1 0.789607 0.000000 0.300415
O O2 0.716982 0.910878 0.241257
O O3 0.756199 0.000000 0.000000
O O4 0.436191 0.096641 0.220036
O O5 0.500000 0.000000 0.300434
O O6 0.432086 0.000000 0.500000
O O7 0.858412 0.906889 0.218985
O O8 0.856457 0.000000 0.500000
O O9 0.951072 0.308065 0.500000
O O10 0.917072 0.229337 0.771003
O O11 0.000000 0.288801 0.772379
O O12 0.369848 0.309129 0.500000
O O13 0.334175 0.238149 0.224967
O O14 0.209546 0.302496 0.500000
O O15 0.250000 0.250000 0.221868
#
# Coordination Sequence:
#
# PCOD9484551 Si02
#       6
#     8   8   8  16  16  16
#     4  12  24  35  51  76 105 133 165 211 266 305
#     4   7  10  17  30  48  79 120 150 180 232 291
#     4  10  18  34  52  69  96 134 177 207 247 306
#     4   8  13  22  37  63  97 128 159 200 251 299
#     4   9  17  28  47  69  93 132 173 206 244 300
#     4  10  19  34  54  74  98 133 172 208 246 297
#
# _framework density 20.483701
#
# number of rings (size 3 to 8) (size 9 to 14) (size 15 to 20)
#    0.000    2.778    2.222    2.333    0.000    1.333 
#    0.000    3.889    0.000    3.333    0.000    0.000 
#    0.000    5.333    0.000    0.000    0.000    0.000 
#
# Total GULP energy -200803.973221 kJ/mol
# GULP energy per Si atom -5577.888145 kJ/mol
# Density = 2.043708 g / cm^3
# Si number density = 20.483701 Si / 1000 Ang^3
#
#
#
# Elastic Constant Matrix: (Units=GPa)
#
#
# Indices 1 2 3 4 5 6 
#
# 1 123.0303 103.9637 3.3144 0.0000 0.0000 0.0000
# 2 103.9637 219.4102 1.1497 0.0000 0.0000 0.0000
# 3 3.3144 1.1497 49.8679 0.0000 0.0000 0.0000
# 4 0.0000 0.0000 0.0000 -64.0342 0.0000 0.0000
# 5 0.0000 0.0000 0.0000 0.0000 -18.2425 0.0000
# 6 0.0000 0.0000 0.0000 0.0000 0.0000 29.0774
#
#
#
# Elastic Compliance Matrix: (Units=1/GPa)
#
#
# Indices 1 2 3 4 5 6 
#
# 1 0.013584 -0.006433 -0.000755 0.000000 0.000000 0.000000
# 2 -0.006433 0.007604 0.000252 0.000000 0.000000 0.000000
# 3 -0.000755 0.000252 0.020097 0.000000 0.000000 0.000000
# 4 0.000000 0.000000 0.000000 -0.015617 0.000000 0.000000
# 5 0.000000 0.000000 0.000000 0.000000 -0.054817 0.000000
# 6 0.000000 0.000000 0.000000 0.000000 0.000000 0.034391
#
#
# Mechanical properties :
#
#
# Convention : Reuss Voigt Hill
#
# Bulk Modulus (GPa) = 36.47521 67.68486 52.08004
# Shear Modulus (GPa) = 176.97950 8.28550 92.63250
#
# Velocity S-wave (km/s) = 9.30525 2.01338 6.73207
# Velocity P-wave (km/s) = 11.54538 6.20644 9.26865
#
# Compressibility (1/GPa) = 0.02741588
#
# Stress axis : x y z
#
# Youngs Moduli (GPa) = 73.61515 131.50356 49.75785
#
# Poissons Ratio (x) = 0.84592 0.03754
# Poissons Ratio (y) = 0.47354 -0.01255
# Poissons Ratio (z) = 0.05555 -0.03317
#
# Static dielectric constant tensor:
#      x y z
#    x 1.693810 0.000000 0.000000 
#    y 0.000000 1.731910 0.000000 
#    z 0.000000 0.000000 1.766100 
# 
# From -- ./inp_files/18063.got.cif
#   From: 2010.05.17/outbox.cif.g08.bks.cpg/sg65_10_cif.got.tgz:18063.got - 2010.06.03 17:01:31.
