data_PCOD9484921
_publ_section_title
;
Structure prediction by ZEFSAII (Michael W. Deem and Ramdas Pophale) SiO2 
 PCOD9484921
Probable space group: C M M M
;
_chemical_formula_sum "Si O2"
_cell_formula_units_Z 96
_cell_length_a 28.154477
_cell_length_b 11.729730
_cell_length_c 21.329223
_cell_angle_alpha 90.000000
_cell_angle_beta 90.000000
_cell_angle_gamma 90.000000
_cell_volume 7043.856740
_symmetry_space_group_name_H-M "C M M M"
_symmetry_group_IT_number 65
_symmetry_cell_setting 'orthorhombic'
loop_
_space_group_symop_operation_xyz
x,y,z
-x,-y,z
x,-y,-z
-x,y,-z
-x,-y,-z
x,y,-z
-x,y,z
x,-y,z
1/2+x,1/2+y,z
1/2-x,1/2-y,z
1/2+x,1/2-y,-z
1/2-x,1/2+y,-z
1/2-x,1/2-y,-z
1/2+x,1/2+y,-z
1/2-x,1/2+y,z
1/2+x,1/2-y,z
loop_
_atom_site_type_symbol
_atom_site_label
_atom_site_fract_x
_atom_site_fract_y
_atom_site_fract_z
Si Si1 0.194656 0.762905 0.074236
Si Si2 0.890461 0.364561 0.875601
Si Si3 0.554490 0.860942 0.000000
Si Si4 0.443771 0.255576 0.236776
Si Si5 0.554536 0.138492 0.500000
Si Si6 0.055554 0.000000 0.823472
Si Si7 0.057820 0.632219 0.363046
Si Si8 0.360865 0.500000 0.926561
O O1 0.250000 0.750000 0.089600
O O2 0.162802 0.677473 0.114310
O O3 0.171869 0.888149 0.083484
O O4 0.189777 0.735202 0.000000
O O5 0.893129 0.500000 0.874382
O O6 0.919101 0.322209 0.937268
O O7 0.914696 0.314285 0.814490
O O8 0.500000 0.824247 0.000000
O O9 0.555247 0.000000 0.000000
O O10 0.500000 0.229076 0.230222
O O11 0.437622 0.387692 0.219012
O O12 0.429146 0.214835 0.306082
O O13 0.500000 0.180224 0.500000
O O14 0.575636 0.169040 0.432179
O O15 0.552822 0.000000 0.500000
O O16 0.093904 0.000000 0.879943
O O17 0.000000 0.000000 0.845337
O O18 0.071730 0.500000 0.350779
O O19 0.000000 0.631555 0.366764
O O20 0.375800 0.500000 0.000000
#
# Coordination Sequence:
#
# PCOD9484921 Si02
#       8
#    16  16   8  16   8   8  16   8
#     4  10  21  35  51  66  82 105 138 184 231 273
#     4  11  20  30  45  64  84 107 139 177 221 267
#     4   9  18  30  41  57  83 111 133 166 213 260
#     4  10  19  30  43  60  86 118 150 181 215 260
#     4   7  10  18  34  57  83 109 140 178 214 251
#     4  10  20  33  46  61  86 122 157 185 218 262
#     4   8  13  22  38  60  84 111 144 180 218 254
#     4  10  20  37  52  66  83 109 152 192 229 273
#
# _framework density 13.628898
#
# number of rings (size 3 to 8) (size 9 to 14) (size 15 to 20)
#    0.000    2.500    2.500    2.000    1.167    1.833 
#    0.000    0.000    0.000    0.500    0.000    3.500 
#    0.000    0.000    0.000    0.750    0.000    4.417 
#
# Total GULP energy -267289.406331 kJ/mol
# GULP energy per Si atom -5568.529299 kJ/mol
# Density = 1.359788 g / cm^3
# Si number density = 13.628898 Si / 1000 Ang^3
#
#
#
# Elastic Constant Matrix: (Units=GPa)
#
#
# Indices 1 2 3 4 5 6 
#
# 1 67.2016 30.9274 50.9247 0.0000 0.0000 0.0000
# 2 30.9274 64.9161 47.9978 0.0000 0.0000 0.0000
# 3 50.9247 47.9978 124.5835 0.0000 0.0000 0.0000
# 4 0.0000 0.0000 0.0000 12.7583 0.0000 0.0000
# 5 0.0000 0.0000 0.0000 0.0000 2.1065 0.0000
# 6 0.0000 0.0000 0.0000 0.0000 0.0000 12.9255
#
#
#
# Elastic Compliance Matrix: (Units=1/GPa)
#
#
# Indices 1 2 3 4 5 6 
#
# 1 0.022919 -0.005583 -0.007218 0.000000 0.000000 0.000000
# 2 -0.005583 0.022900 -0.006541 0.000000 0.000000 0.000000
# 3 -0.007218 -0.006541 0.013497 0.000000 0.000000 0.000000
# 4 0.000000 0.000000 0.000000 0.078380 0.000000 0.000000
# 5 0.000000 0.000000 0.000000 0.000000 0.474721 0.000000
# 6 0.000000 0.000000 0.000000 0.000000 0.000000 0.077367
#
#
# Mechanical properties :
#
#
# Convention : Reuss Voigt Hill
#
# Bulk Modulus (GPa) = 48.46266 57.37790 52.92028
# Shear Modulus (GPa) = 6.79953 14.01481 10.40717
#
# Velocity S-wave (km/s) = 2.23604 3.21022 2.76635
# Velocity P-wave (km/s) = 6.50403 7.47878 7.00838
#
# Compressibility (1/GPa) = 0.02063444
#
# Stress axis : x y z
#
# Youngs Moduli (GPa) = 43.63127 43.66755 74.09064
#
# Poissons Ratio (x) = 0.24378 0.53476
# Poissons Ratio (y) = 0.24358 0.48461
# Poissons Ratio (z) = 0.31492 0.28562
#
# Static dielectric constant tensor:
#      x y z
#    x 1.430620 0.000000 0.000000 
#    y 0.000000 1.458110 0.000000 
#    z 0.000000 0.000000 1.454570 
# 
# From -- ./inp_files/66029.got.cif
#   From: 2010.05.17/outbox.cif.g08.bks.cpg/sg65_34_cif.got.tgz:66029.got - 2010.06.03 17:01:31.
