data_PCOD9484027
_publ_section_title
;
Structure prediction by ZEFSAII (Michael W. Deem and Ramdas Pophale) SiO2 
 PCOD9484027
Probable space group: C M M M
;
_chemical_formula_sum "Si O2"
_cell_formula_units_Z 88
_cell_length_a 12.935432
_cell_length_b 25.437258
_cell_length_c 15.310610
_cell_angle_alpha 90.000000
_cell_angle_beta 90.000000
_cell_angle_gamma 90.000000
_cell_volume 5037.832528
_symmetry_space_group_name_H-M "C M M M"
_symmetry_group_IT_number 65
_symmetry_cell_setting 'orthorhombic'
loop_
_space_group_symop_operation_xyz
x,y,z
-x,-y,z
x,-y,-z
-x,y,-z
-x,-y,-z
x,y,-z
-x,y,z
x,-y,z
1/2+x,1/2+y,z
1/2-x,1/2-y,z
1/2+x,1/2-y,-z
1/2-x,1/2+y,-z
1/2-x,1/2-y,-z
1/2+x,1/2+y,-z
1/2-x,1/2+y,z
1/2+x,1/2-y,z
loop_
_atom_site_type_symbol
_atom_site_label
_atom_site_fract_x
_atom_site_fract_y
_atom_site_fract_z
Si Si1 0.384488 0.500000 0.396345
Si Si2 0.793541 0.436253 0.140597
Si Si3 0.000000 0.627128 0.096678
Si Si4 0.000000 0.315390 0.722056
Si Si5 0.000000 0.580247 0.397550
Si Si6 0.173854 0.298746 0.598217
Si Si7 0.720880 0.915107 0.343293
Si Si8 0.880121 0.063516 0.000000
O O1 0.500000 0.500000 0.358156
O O2 0.391911 0.500000 0.500000
O O3 0.318539 0.449354 0.369820
O O4 0.803897 0.500000 0.140815
O O5 0.898110 0.409368 0.105318
O O6 0.782449 0.415466 0.238797
O O7 0.692409 0.422475 0.082999
O O8 0.000000 0.668621 0.177077
O O9 0.000000 0.651500 0.000000
O O10 0.901062 0.287903 0.680159
O O11 0.000000 0.369762 0.666644
O O12 0.113296 0.558004 0.375886
O O13 0.000000 0.590870 0.500000
O O14 0.125957 0.302053 0.500000
O O15 0.250000 0.250000 0.595179
O O16 0.222457 0.356320 0.617211
O O17 0.000000 0.082640 0.000000
O O18 0.886237 0.000000 0.000000
#
# Coordination Sequence:
#
# PCOD9484027 Si02
#       8
#     8  16   8   8   8  16  16   8
#     4  11  24  39  53  72 113 165 206 237 275 347
#     4  11  20  33  53  81 117 153 190 238 287 348
#     4  12  21  33  57  88 122 154 189 234 304 355
#     4  10  18  35  57  84 119 145 183 237 298 354
#     4  10  18  30  56  83 112 146 183 237 288 343
#     4  10  20  36  61  88 114 147 192 247 298 348
#     4  11  20  37  56  83 116 152 193 236 295 355
#     4   9  20  35  53  77 106 150 202 245 286 336
#
# _framework density 17.467829999999999
#
# number of rings (size 3 to 8) (size 9 to 14) (size 15 to 20)
#    0.000    1.455    5.455    3.818    0.000    1.455 
#    1.636    0.909    0.000    0.545    0.000    0.000 
#    0.000    0.000    0.000    0.000    0.000    0.000 
#
# Total GULP energy -245013.989669 kJ/mol
# GULP energy per Si atom -5568.499765 kJ/mol
# Density = 1.742807 g / cm^3
# Si number density = 17.467830 Si / 1000 Ang^3
#
#
#
# Elastic Constant Matrix: (Units=GPa)
#
#
# Indices 1 2 3 4 5 6 
#
# 1 154.4702 43.6696 52.3704 0.0000 0.0000 0.0000
# 2 43.6696 70.7346 26.5908 0.0000 0.0000 0.0000
# 3 52.3704 26.5908 161.5437 0.0000 0.0000 0.0000
# 4 0.0000 0.0000 0.0000 54.3781 0.0000 0.0000
# 5 0.0000 0.0000 0.0000 0.0000 35.2426 0.0000
# 6 0.0000 0.0000 0.0000 0.0000 0.0000 24.1656
#
#
#
# Elastic Compliance Matrix: (Units=1/GPa)
#
#
# Indices 1 2 3 4 5 6 
#
# 1 0.008405 -0.004439 -0.001994 0.000000 0.000000 0.000000
# 2 -0.004439 0.017415 -0.001427 0.000000 0.000000 0.000000
# 3 -0.001994 -0.001427 0.007072 0.000000 0.000000 0.000000
# 4 0.000000 0.000000 0.000000 0.018390 0.000000 0.000000
# 5 0.000000 0.000000 0.000000 0.000000 0.028375 0.000000
# 6 0.000000 0.000000 0.000000 0.000000 0.000000 0.041381
#
#
# Mechanical properties :
#
#
# Convention : Reuss Voigt Hill
#
# Bulk Modulus (GPa) = 58.24191 70.22335 64.23263
# Shear Modulus (GPa) = 35.09235 40.36512 37.72873
#
# Velocity S-wave (km/s) = 4.48702 4.81232 4.65251
# Velocity P-wave (km/s) = 7.76268 8.43604 8.10635
#
# Compressibility (1/GPa) = 0.01716977
#
# Stress axis : x y z
#
# Youngs Moduli (GPa) = 118.97983 57.42295 141.40963
#
# Poissons Ratio (x) = 0.25492 0.28197
# Poissons Ratio (y) = 0.52819 0.20184
# Poissons Ratio (z) = 0.23725 0.08196
#
# Static dielectric constant tensor:
#      x y z
#    x 1.658720 0.000000 0.000000 
#    y 0.000000 1.609070 0.000000 
#    z 0.000000 0.000000 1.610630 
# 
# From -- ./inp_files/38737.got.cif
#   From: 2010.05.17/outbox.cif.g08.bks.cpg/sg65_20_cif.got.tgz:38737.got - 2010.06.03 17:01:31.
