data_PCOD9484834
_publ_section_title
;
Structure prediction by ZEFSAII (Michael W. Deem and Ramdas Pophale) SiO2 
 PCOD9484834
Probable space group: C M M M
;
_chemical_formula_sum "Si O2"
_cell_formula_units_Z 80
_cell_length_a 7.295310
_cell_length_b 28.457988
_cell_length_c 17.592296
_cell_angle_alpha 90.000000
_cell_angle_beta 90.000000
_cell_angle_gamma 90.000000
_cell_volume 3652.333836
_symmetry_space_group_name_H-M "C M M M"
_symmetry_group_IT_number 65
_symmetry_cell_setting 'orthorhombic'
loop_
_space_group_symop_operation_xyz
x,y,z
-x,-y,z
x,-y,-z
-x,y,-z
-x,-y,-z
x,y,-z
-x,y,z
x,-y,z
1/2+x,1/2+y,z
1/2-x,1/2-y,z
1/2+x,1/2-y,-z
1/2-x,1/2+y,-z
1/2-x,1/2-y,-z
1/2+x,1/2+y,-z
1/2-x,1/2+y,z
1/2+x,1/2-y,z
loop_
_atom_site_type_symbol
_atom_site_label
_atom_site_fract_x
_atom_site_fract_y
_atom_site_fract_z
Si Si1 0.781916 0.693732 0.000000
Si Si2 0.287362 0.442832 0.000000
Si Si3 0.776888 0.447579 0.588817
Si Si4 0.205320 0.625734 0.707315
Si Si5 0.222631 0.054543 0.163447
Si Si6 0.780964 0.694329 0.832850
O O1 0.750000 0.750000 0.000000
O O2 0.710778 0.678319 0.916683
O O3 0.000000 0.685182 0.000000
O O4 0.209742 0.428661 0.919231
O O5 0.284846 0.500000 0.000000
O O6 0.500000 0.428739 0.000000
O O7 0.729268 0.444142 0.500000
O O8 0.718726 0.500000 0.616178
O O9 0.710697 0.402584 0.636448
O O10 0.000000 0.447190 0.593970
O O11 0.197393 0.584735 0.769924
O O12 0.290826 0.667357 0.758219
O O13 0.000000 0.641030 0.684389
O O14 0.000000 0.058026 0.164878
O O15 0.268724 0.000000 0.171990
O O16 0.750000 0.750000 0.826874
O O17 0.000000 0.686220 0.833580
#
# Coordination Sequence:
#
# PCOD9484834 Si02
#       6
#     8   8  16  16  16  16
#     4   8  14  27  44  60  82 112 145 182 224 268
#     4   7  12  25  41  55  79 119 158 182 202 246
#     4   8  14  26  45  68  93 120 148 178 215 265
#     4  10  19  29  45  70  93 113 144 189 236 272
#     4   9  17  29  44  62  87 120 154 183 214 259
#     4   9  18  31  46  64  87 116 149 186 227 269
#
# _framework density 21.903803
#
# number of rings (size 3 to 8) (size 9 to 14) (size 15 to 20)
#    0.000    3.300    0.000    2.400    0.000    2.800 
#    0.000    1.500    0.000    6.600    0.000    2.800 
#    0.000    0.000    0.000    0.000    0.000    0.000 
#
# Total GULP energy -222994.202412 kJ/mol
# GULP energy per Si atom -5574.855060 kJ/mol
# Density = 2.185395 g / cm^3
# Si number density = 21.903803 Si / 1000 Ang^3
#
#
#
# Elastic Constant Matrix: (Units=GPa)
#
#
# Indices 1 2 3 4 5 6 
#
# 1 96.0312 -1.3262 1.3738 0.0000 0.0000 0.0000
# 2 -1.3262 117.1710 53.0930 0.0000 0.0000 0.0000
# 3 1.3738 53.0930 116.1368 0.0000 0.0000 0.0000
# 4 0.0000 0.0000 0.0000 60.4508 0.0000 0.0000
# 5 0.0000 0.0000 0.0000 0.0000 -5.0418 0.0000
# 6 0.0000 0.0000 0.0000 0.0000 0.0000 5.7220
#
#
#
# Elastic Compliance Matrix: (Units=1/GPa)
#
#
# Indices 1 2 3 4 5 6 
#
# 1 0.010420 0.000219 -0.000223 0.000000 0.000000 0.000000
# 2 0.000219 0.010769 -0.004926 0.000000 0.000000 0.000000
# 3 -0.000223 -0.004926 0.010865 0.000000 0.000000 0.000000
# 4 0.000000 0.000000 0.000000 0.016542 0.000000 0.000000
# 5 0.000000 0.000000 0.000000 0.000000 -0.198342 0.000000
# 6 0.000000 0.000000 0.000000 0.000000 0.000000 0.174763
#
#
# Mechanical properties :
#
#
# Convention : Reuss Voigt Hill
#
# Bulk Modulus (GPa) = 45.05821 48.40224 46.73022
# Shear Modulus (GPa) = 118.27565 30.63943 74.45754
#
# Velocity S-wave (km/s) = 7.35629 3.74413 5.83667
# Velocity P-wave (km/s) = 9.63166 6.39038 8.17331
#
# Compressibility (1/GPa) = 0.02219351
#
# Stress axis : x y z
#
# Youngs Moduli (GPa) = 95.97381 92.85923 92.03842
#
# Poissons Ratio (x) = -0.02035 0.02057
# Poissons Ratio (y) = -0.02104 0.45336
# Poissons Ratio (z) = 0.02145 0.45740
#
# Static dielectric constant tensor:
#      x y z
#    x 1.840410 0.000000 0.000000 
#    y 0.000000 1.811870 0.000000 
#    z 0.000000 0.000000 1.828400 
# 
# From -- ./inp_files/50182.got.cif
#   From: 2010.05.17/outbox.cif.g08.bks.cpg/sg65_26_cif.got.tgz:50182.got - 2010.06.03 17:01:31.
