data_PCOD9484555
_publ_section_title
;
Structure prediction by ZEFSAII (Michael W. Deem and Ramdas Pophale) SiO2 
 PCOD9484555
Probable space group: C M M M
;
_chemical_formula_sum "Si O2"
_cell_formula_units_Z 90
_cell_length_a 14.767967
_cell_length_b 15.566677
_cell_length_c 19.061549
_cell_angle_alpha 90.000000
_cell_angle_beta 90.000000
_cell_angle_gamma 90.000000
_cell_volume 4382.024660
_symmetry_space_group_name_H-M "C M M M"
_symmetry_group_IT_number 65
_symmetry_cell_setting 'orthorhombic'
loop_
_space_group_symop_operation_xyz
x,y,z
-x,-y,z
x,-y,-z
-x,y,-z
-x,-y,-z
x,y,-z
-x,y,z
x,-y,z
1/2+x,1/2+y,z
1/2-x,1/2-y,z
1/2+x,1/2-y,-z
1/2-x,1/2+y,-z
1/2-x,1/2-y,-z
1/2+x,1/2+y,-z
1/2-x,1/2+y,z
1/2+x,1/2-y,z
loop_
_atom_site_type_symbol
_atom_site_label
_atom_site_fract_x
_atom_site_fract_y
_atom_site_fract_z
Si Si1 0.862266 0.853219 0.185865
Si Si2 0.894659 0.905777 0.655575
Si Si3 0.889366 0.599084 0.500000
Si Si4 0.389944 0.783642 0.630227
Si Si5 0.647837 0.832239 0.211529
Si Si6 0.630822 0.000000 0.868076
Si Si7 0.342304 0.500000 0.916104
Si Si8 0.000000 0.500000 0.000000
O O1 0.893072 0.893096 0.259943
O O2 0.754107 0.841688 0.194249
O O3 0.893493 0.755036 0.179740
O O4 0.883050 0.915733 0.121701
O O5 0.856519 0.815672 0.625742
O O6 0.000000 0.908964 0.633686
O O7 0.853739 0.000000 0.639151
O O8 0.858617 0.500000 0.500000
O O9 0.861478 0.653726 0.432013
O O10 0.000000 0.597006 0.500000
O O11 0.500000 0.779558 0.629975
O O12 0.361876 0.821734 0.705214
O O13 0.608000 0.917204 0.178330
O O14 0.737056 0.000000 0.890841
O O15 0.577103 0.000000 0.939079
O O16 0.350071 0.500000 0.000000
#
# Coordination Sequence:
#
# PCOD9484555 Si02
#       8
#    16  16   8  16  16   8   8   2
#     4   9  17  33  53  75 101 126 167 217 259 296
#     4   9  16  29  52  76  98 128 162 207 259 303
#     4   9  18  32  47  70 107 145 171 209 258 291
#     4   9  18  31  50  76 104 131 172 211 250 303
#     4   9  19  33  53  77  95 134 179 213 248 305
#     4  10  22  36  50  70 103 138 178 206 260 300
#     4  10  18  34  53  78  99 130 168 208 261 324
#     4  12  24  40  48  68 112 148 162 228 260 296
#
# _framework density 20.538450999999998
#
# number of rings (size 3 to 8) (size 9 to 14) (size 15 to 20)
#    0.000    2.756    1.333    0.000    2.489    0.000 
#    1.600    2.222    0.000   12.267    0.000    0.000 
#    0.000    0.000    0.000    0.000    0.000    0.000 
#
# Total GULP energy -250691.842026 kJ/mol
# GULP energy per Si atom -5570.929823 kJ/mol
# Density = 2.049170 g / cm^3
# Si number density = 20.538451 Si / 1000 Ang^3
#
#
#
# Elastic Constant Matrix: (Units=GPa)
#
#
# Indices 1 2 3 4 5 6 
#
# 1 43.5308 14.1071 1.8944 0.0000 0.0000 0.0000
# 2 14.1071 246.4205 126.8381 0.0000 0.0000 0.0000
# 3 1.8944 126.8381 131.4645 0.0000 0.0000 0.0000
# 4 0.0000 0.0000 0.0000 38.0801 0.0000 0.0000
# 5 0.0000 0.0000 0.0000 0.0000 20.5380 0.0000
# 6 0.0000 0.0000 0.0000 0.0000 0.0000 4.8803
#
#
#
# Elastic Compliance Matrix: (Units=1/GPa)
#
#
# Indices 1 2 3 4 5 6 
#
# 1 0.023647 -0.002341 0.001918 0.000000 0.000000 0.000000
# 2 -0.002341 0.008293 -0.007968 0.000000 0.000000 0.000000
# 3 0.001918 -0.007968 0.015266 0.000000 0.000000 0.000000
# 4 0.000000 0.000000 0.000000 0.026260 0.000000 0.000000
# 5 0.000000 0.000000 0.000000 0.000000 0.048690 0.000000
# 6 0.000000 0.000000 0.000000 0.000000 0.000000 0.204905
#
#
# Mechanical properties :
#
#
# Convention : Reuss Voigt Hill
#
# Bulk Modulus (GPa) = 32.86737 78.56611 55.71674
# Shear Modulus (GPa) = 14.12484 31.27143 22.69814
#
# Velocity S-wave (km/s) = 2.62530 3.90626 3.32799
# Velocity P-wave (km/s) = 5.02267 7.66038 6.47721
#
# Compressibility (1/GPa) = 0.03042531
#
# Stress axis : x y z
#
# Youngs Moduli (GPa) = 42.28792 120.57993 65.50391
#
# Poissons Ratio (x) = 0.28226 -0.12562
# Poissons Ratio (y) = 0.09899 0.52191
# Poissons Ratio (z) = -0.08110 0.96074
#
# Static dielectric constant tensor:
#      x y z
#    x 1.790720 0.000000 0.000000 
#    y 0.000000 1.787170 0.000000 
#    z 0.000000 0.000000 1.660460 
# 
# From -- ./inp_files/55832.got.cif
#   From: 2010.05.17/outbox.cif.g08.bks.cpg/sg65_28_cif.got.tgz:55832.got - 2010.06.03 17:01:31.
