data_PCOD9484344
_publ_section_title
;
Structure prediction by ZEFSAII (Michael W. Deem and Ramdas Pophale) SiO2 
 PCOD9484344
Probable space group: C M M M
;
_chemical_formula_sum "Si O2"
_cell_formula_units_Z 88
_cell_length_a 19.374982
_cell_length_b 8.662353
_cell_length_c 29.023241
_cell_angle_alpha 90.000000
_cell_angle_beta 90.000000
_cell_angle_gamma 90.000000
_cell_volume 4871.055675
_symmetry_space_group_name_H-M "C M M M"
_symmetry_group_IT_number 65
_symmetry_cell_setting 'orthorhombic'
loop_
_space_group_symop_operation_xyz
x,y,z
-x,-y,z
x,-y,-z
-x,y,-z
-x,-y,-z
x,y,-z
-x,y,z
x,-y,z
1/2+x,1/2+y,z
1/2-x,1/2-y,z
1/2+x,1/2-y,-z
1/2-x,1/2+y,-z
1/2-x,1/2-y,-z
1/2+x,1/2+y,-z
1/2-x,1/2+y,z
1/2+x,1/2-y,z
loop_
_atom_site_type_symbol
_atom_site_label
_atom_site_fract_x
_atom_site_fract_y
_atom_site_fract_z
Si Si1 0.672667 0.683136 0.595320
Si Si2 0.326873 0.185000 0.133982
Si Si3 0.421016 0.812019 0.781292
Si Si4 0.081882 0.684593 0.323309
Si Si5 0.828172 0.315868 0.500000
Si Si6 0.920307 0.186075 0.053202
O O1 0.677445 0.500000 0.590287
O O2 0.750000 0.750000 0.601346
O O3 0.626619 0.729934 0.638695
O O4 0.641887 0.754102 0.548015
O O5 0.250000 0.250000 0.133741
O O6 0.369146 0.239773 0.179121
O O7 0.368823 0.238583 0.089158
O O8 0.324339 0.000000 0.134962
O O9 0.500000 0.761992 0.790474
O O10 0.401443 0.766682 0.729230
O O11 0.421801 0.000000 0.781529
O O12 0.093894 0.500000 0.327107
O O13 0.000000 0.710411 0.329855
O O14 0.826927 0.500000 0.500000
O O15 0.750000 0.250000 0.500000
O O16 0.584283 0.500000 0.056437
O O17 0.000000 0.229428 0.063220
O O18 0.905682 0.228269 0.000000
#
# Coordination Sequence:
#
# PCOD9484344 Si02
#       6
#    16  16  16  16   8  16
#     4  11  21  34  53  78 108 139 176 219 262 309
#     4  11  22  35  53  79 111 143 177 218 264 312
#     4   8  16  33  56  78 101 134 175 217 261 312
#     4   9  18  35  57  79 106 139 173 212 263 318
#     4  10  18  32  53  76 103 136 177 217 261 315
#     4   9  19  37  59  81 106 137 174 217 265 317
#
# _framework density 18.065898000000001
#
# number of rings (size 3 to 8) (size 9 to 14) (size 15 to 20)
#    0.000    2.364    0.000    6.273    0.000    2.909 
#    0.000    5.000    0.000    4.909    0.000    0.000 
#    0.000    0.000    0.000    0.000    0.000    0.000 
#
# Total GULP energy -245537.951967 kJ/mol
# GULP energy per Si atom -5580.407999 kJ/mol
# Density = 1.802478 g / cm^3
# Si number density = 18.065898 Si / 1000 Ang^3
#
#
#
# Elastic Constant Matrix: (Units=GPa)
#
#
# Indices 1 2 3 4 5 6 
#
# 1 96.9926 48.0629 106.5226 0.0000 0.0000 0.0000
# 2 48.0629 80.7547 59.8714 0.0000 0.0000 0.0000
# 3 106.5226 59.8714 171.4693 0.0000 0.0000 0.0000
# 4 0.0000 0.0000 0.0000 25.2021 0.0000 0.0000
# 5 0.0000 0.0000 0.0000 0.0000 36.0137 0.0000
# 6 0.0000 0.0000 0.0000 0.0000 0.0000 13.2109
#
#
#
# Elastic Compliance Matrix: (Units=1/GPa)
#
#
# Indices 1 2 3 4 5 6 
#
# 1 0.034670 -0.006296 -0.019340 0.000000 0.000000 0.000000
# 2 -0.006296 0.017852 -0.002322 0.000000 0.000000 0.000000
# 3 -0.019340 -0.002322 0.018657 0.000000 0.000000 0.000000
# 4 0.000000 0.000000 0.000000 0.039679 0.000000 0.000000
# 5 0.000000 0.000000 0.000000 0.000000 0.027767 0.000000
# 6 0.000000 0.000000 0.000000 0.000000 0.000000 0.075695
#
#
# Mechanical properties :
#
#
# Convention : Reuss Voigt Hill
#
# Bulk Modulus (GPa) = 65.51590 86.45894 75.98742
# Shear Modulus (GPa) = 18.16041 23.86932 21.01486
#
# Velocity S-wave (km/s) = 3.17398 3.63882 3.41432
# Velocity P-wave (km/s) = 7.05520 8.10038 7.59579
#
# Compressibility (1/GPa) = 0.01526347
#
# Stress axis : x y z
#
# Youngs Moduli (GPa) = 28.84331 56.01630 53.59844
#
# Poissons Ratio (x) = 0.35269 1.03659
# Poissons Ratio (y) = 0.18160 0.12445
# Poissons Ratio (z) = 0.55782 0.13007
#
# Static dielectric constant tensor:
#      x y z
#    x 1.598580 0.000000 0.000000 
#    y 0.000000 1.609140 0.000000 
#    z 0.000000 0.000000 1.629240 
# 
# From -- ./inp_files/67559.got.cif
#   From: 2010.05.17/outbox.cif.g08.bks.cpg/sg65_34_cif.got.tgz:67559.got - 2010.06.03 17:01:31.
