data_PCOD9484653
_publ_section_title
;
Structure prediction by ZEFSAII (Michael W. Deem and Ramdas Pophale) SiO2 
 PCOD9484653
Probable space group: C M M M
;
_chemical_formula_sum "Si O2"
_cell_formula_units_Z 104
_cell_length_a 27.838130
_cell_length_b 9.004230
_cell_length_c 27.095442
_cell_angle_alpha 90.000000
_cell_angle_beta 90.000000
_cell_angle_gamma 90.000000
_cell_volume 6791.768563
_symmetry_space_group_name_H-M "C M M M"
_symmetry_group_IT_number 65
_symmetry_cell_setting 'orthorhombic'
loop_
_space_group_symop_operation_xyz
x,y,z
-x,-y,z
x,-y,-z
-x,y,-z
-x,-y,-z
x,y,-z
-x,y,z
x,-y,z
1/2+x,1/2+y,z
1/2-x,1/2-y,z
1/2+x,1/2-y,-z
1/2-x,1/2+y,-z
1/2-x,1/2-y,-z
1/2+x,1/2+y,-z
1/2-x,1/2+y,z
1/2+x,1/2-y,z
loop_
_atom_site_type_symbol
_atom_site_label
_atom_site_fract_x
_atom_site_fract_y
_atom_site_fract_z
Si Si1 0.198226 0.822013 0.297940
Si Si2 0.355603 0.322109 0.399527
Si Si3 0.554725 0.821634 0.649052
Si Si4 0.892302 0.322245 0.248980
Si Si5 0.057339 0.175988 0.844154
Si Si6 0.941756 0.326516 0.054651
Si Si7 0.802629 0.820262 0.500000
O O1 0.250000 0.750000 0.290295
O O2 0.179128 0.786183 0.353289
O O3 0.158358 0.753981 0.261588
O O4 0.200308 0.000000 0.293047
O O5 0.361589 0.500000 0.400289
O O6 0.406704 0.248620 0.387863
O O7 0.331484 0.275854 0.450782
O O8 0.500000 0.771309 0.641756
O O9 0.572888 0.786095 0.704523
O O10 0.556068 0.000000 0.644246
O O11 0.887047 0.500000 0.246925
O O12 0.915258 0.260746 0.199124
O O13 0.073524 0.232496 0.898116
O O14 0.000000 0.205832 0.839792
O O15 0.064482 0.000000 0.839722
O O16 0.928867 0.500000 0.060933
O O17 0.000000 0.320077 0.053843
O O18 0.925339 0.277182 0.000000
O O19 0.750000 0.750000 0.500000
O O20 0.798354 0.000000 0.500000
#
# Coordination Sequence:
#
# PCOD9484653 Si02
#       7
#    16  16  16  16  16  16   8
#     4  10  19  32  49  69  92 117 146 180 223 272
#     4   9  19  33  49  70  94 119 148 182 219 266
#     4   9  18  32  49  68  90 118 153 189 223 263
#     4  10  19  31  47  66  89 118 152 189 227 268
#     4  10  19  28  40  62  92 123 154 190 230 270
#     4   8  14  25  40  57  80 115 157 194 227 266
#     4  10  20  34  51  72  95 117 146 183 225 270
#
# _framework density 15.312652999999999
#
# number of rings (size 3 to 8) (size 9 to 14) (size 15 to 20)
#    0.000    2.615    0.000    2.769    0.000    4.000 
#    0.000    1.923    0.000    2.308    0.000    0.000 
#    0.000    0.615    0.000    2.308    0.000    3.538 
#
# Total GULP energy -289895.799320 kJ/mol
# GULP energy per Si atom -5574.919218 kJ/mol
# Density = 1.527780 g / cm^3
# Si number density = 15.312653 Si / 1000 Ang^3
#
#
#
# Elastic Constant Matrix: (Units=GPa)
#
#
# Indices 1 2 3 4 5 6 
#
# 1 114.5182 47.5463 61.0800 0.0000 0.0000 0.0000
# 2 47.5463 46.5584 49.9641 0.0000 0.0000 0.0000
# 3 61.0800 49.9641 123.0642 0.0000 0.0000 0.0000
# 4 0.0000 0.0000 0.0000 24.0388 0.0000 0.0000
# 5 0.0000 0.0000 0.0000 0.0000 15.6844 0.0000
# 6 0.0000 0.0000 0.0000 0.0000 0.0000 26.8625
#
#
#
# Elastic Compliance Matrix: (Units=1/GPa)
#
#
# Indices 1 2 3 4 5 6 
#
# 1 0.015502 -0.013422 -0.002245 0.000000 0.000000 0.000000
# 2 -0.013422 0.049683 -0.013510 0.000000 0.000000 0.000000
# 3 -0.002245 -0.013510 0.014725 0.000000 0.000000 0.000000
# 4 0.000000 0.000000 0.000000 0.041599 0.000000 0.000000
# 5 0.000000 0.000000 0.000000 0.000000 0.063758 0.000000
# 6 0.000000 0.000000 0.000000 0.000000 0.000000 0.037227
#
#
# Mechanical properties :
#
#
# Convention : Reuss Voigt Hill
#
# Bulk Modulus (GPa) = 46.38824 66.81352 56.60088
# Shear Modulus (GPa) = 17.35913 21.68716 19.52314
#
# Velocity S-wave (km/s) = 3.37062 3.76745 3.57454
# Velocity P-wave (km/s) = 6.74596 7.91533 7.35392
#
# Compressibility (1/GPa) = 0.02155719
#
# Stress axis : x y z
#
# Youngs Moduli (GPa) = 64.50694 20.12751 67.91234
#
# Poissons Ratio (x) = 0.27016 0.15244
# Poissons Ratio (y) = 0.86583 0.91747
# Poissons Ratio (z) = 0.14480 0.27192
#
# Static dielectric constant tensor:
#      x y z
#    x 1.481660 0.000000 0.000000 
#    y 0.000000 1.509110 0.000000 
#    z 0.000000 0.000000 1.507680 
# 
# From -- ./inp_files/71802.got.cif
#   From: 2010.05.17/outbox.cif.g08.bks.cpg/sg65_36_cif.got.tgz:71802.got - 2010.06.03 17:01:31.
