data_PCOD9484620
_publ_section_title
;
Structure prediction by ZEFSAII (Michael W. Deem and Ramdas Pophale) SiO2 
 PCOD9484620
Probable space group: C M M M
;
_chemical_formula_sum "Si O2"
_cell_formula_units_Z 120
_cell_length_a 17.955008
_cell_length_b 16.701554
_cell_length_c 20.786618
_cell_angle_alpha 90.000000
_cell_angle_beta 90.000000
_cell_angle_gamma 90.000000
_cell_volume 6233.418994
_symmetry_space_group_name_H-M "C M M M"
_symmetry_group_IT_number 65
_symmetry_cell_setting 'orthorhombic'
loop_
_space_group_symop_operation_xyz
x,y,z
-x,-y,z
x,-y,-z
-x,y,-z
-x,-y,-z
x,y,-z
-x,y,z
x,-y,z
1/2+x,1/2+y,z
1/2-x,1/2-y,z
1/2+x,1/2-y,-z
1/2-x,1/2+y,-z
1/2-x,1/2-y,-z
1/2+x,1/2+y,-z
1/2-x,1/2+y,z
1/2+x,1/2-y,z
loop_
_atom_site_type_symbol
_atom_site_label
_atom_site_fract_x
_atom_site_fract_y
_atom_site_fract_z
Si Si1 0.836247 0.404302 0.334314
Si Si2 0.328001 0.637940 0.631939
Si Si3 0.415120 0.363360 0.756288
Si Si4 0.419345 0.500000 0.574033
Si Si5 0.661426 0.240770 0.069172
Si Si6 0.832366 0.293672 0.211128
Si Si7 0.086685 0.288840 0.423174
Si Si8 0.087772 0.911584 0.901373
O O1 0.837765 0.500000 0.330642
O O2 0.759505 0.374198 0.367289
O O3 0.836277 0.364499 0.262929
O O4 0.899684 0.368387 0.380932
O O5 0.356977 0.612545 0.702520
O O6 0.370690 0.576762 0.587714
O O7 0.358964 0.723974 0.610546
O O8 0.500000 0.372163 0.734391
O O9 0.394310 0.271118 0.768854
O O10 0.406266 0.407719 0.823878
O O11 0.500000 0.500000 0.608218
O O12 0.432246 0.500000 0.500000
O O13 0.750000 0.250000 0.066096
O O14 0.650177 0.191851 0.135531
O O15 0.627982 0.330778 0.075791
O O16 0.635236 0.207375 0.000000
O O17 0.750000 0.250000 0.215280
O O18 0.102353 0.297294 0.500000
O O19 0.000000 0.263261 0.417290
O O20 0.000000 0.905682 0.917545
O O21 0.114370 0.000000 0.922811
#
# Coordination Sequence:
#
# PCOD9484620 Si02
#       8
#    16  16  16   8  16  16  16  16
#     4  12  25  41  61  92 123 156 201 254 312 362
#     4  12  22  39  61  88 121 156 198 246 299 360
#     4  10  19  32  56  85 114 150 194 239 287 349
#     4  11  24  38  54  84 125 163 196 238 297 362
#     4   9  19  35  55  80 115 161 206 242 282 347
#     4  10  18  37  59  80 114 153 197 245 292 349
#     4  11  25  45  68  90 116 157 205 252 305 364
#     4   9  19  33  53  87 125 156 188 235 300 361
#
# _framework density 19.251072000000001
#
# number of rings (size 3 to 8) (size 9 to 14) (size 15 to 20)
#    0.000    1.533    3.333    2.000    0.933    3.733 
#    0.000    1.333    0.000    1.200    0.000    0.000 
#    0.000    0.533    0.000   14.400    0.000    0.000 
#
# Total GULP energy -334478.220177 kJ/mol
# GULP energy per Si atom -5574.637003 kJ/mol
# Density = 1.920726 g / cm^3
# Si number density = 19.251072 Si / 1000 Ang^3
#
#
#
# Elastic Constant Matrix: (Units=GPa)
#
#
# Indices 1 2 3 4 5 6 
#
# 1 40.9766 24.5919 4.5784 0.0000 0.0000 0.0000
# 2 24.5919 111.1164 38.9412 0.0000 0.0000 0.0000
# 3 4.5784 38.9412 109.5779 0.0000 0.0000 0.0000
# 4 0.0000 0.0000 0.0000 5.7800 0.0000 0.0000
# 5 0.0000 0.0000 0.0000 0.0000 27.4378 0.0000
# 6 0.0000 0.0000 0.0000 0.0000 0.0000 45.3901
#
#
#
# Elastic Compliance Matrix: (Units=1/GPa)
#
#
# Indices 1 2 3 4 5 6 
#
# 1 0.028277 -0.006676 0.001191 0.000000 0.000000 0.000000
# 2 -0.006676 0.011856 -0.003934 0.000000 0.000000 0.000000
# 3 0.001191 -0.003934 0.010474 0.000000 0.000000 0.000000
# 4 0.000000 0.000000 0.000000 0.173009 0.000000 0.000000
# 5 0.000000 0.000000 0.000000 0.000000 0.036446 0.000000
# 6 0.000000 0.000000 0.000000 0.000000 0.000000 0.022031
#
#
# Mechanical properties :
#
#
# Convention : Reuss Voigt Hill
#
# Bulk Modulus (GPa) = 31.47685 44.21045 37.84365
# Shear Modulus (GPa) = 16.05023 28.62553 22.33788
#
# Velocity S-wave (km/s) = 2.89057 3.86029 3.41008
# Velocity P-wave (km/s) = 5.24659 6.54860 5.93342
#
# Compressibility (1/GPa) = 0.03176938
#
# Stress axis : x y z
#
# Youngs Moduli (GPa) = 35.36387 84.34695 95.47146
#
# Poissons Ratio (x) = 0.56307 -0.11369
# Poissons Ratio (y) = 0.23608 0.37562
# Poissons Ratio (z) = -0.04211 0.33185
#
# Static dielectric constant tensor:
#      x y z
#    x 1.706010 0.000000 0.000000 
#    y 0.000000 1.578820 0.000000 
#    z 0.000000 0.000000 1.745100 
# 
# From -- ./inp_files/64762.got.cif
#   From: 2010.05.17/outbox.cif.g08.bks.cpg/sg65_33_cif.got.tgz:64762.got - 2010.06.03 17:01:31.
