data_PCOD9484537
_publ_section_title
;
Structure prediction by ZEFSAII (Michael W. Deem and Ramdas Pophale) SiO2 
 PCOD9484537
Probable space group: C M M M
;
_chemical_formula_sum "Si O2"
_cell_formula_units_Z 56
_cell_length_a 8.620983
_cell_length_b 15.100243
_cell_length_c 22.451000
_cell_angle_alpha 90.000000
_cell_angle_beta 90.000000
_cell_angle_gamma 90.000000
_cell_volume 2922.647342
_symmetry_space_group_name_H-M "C M M M"
_symmetry_group_IT_number 65
_symmetry_cell_setting 'orthorhombic'
loop_
_space_group_symop_operation_xyz
x,y,z
-x,-y,z
x,-y,-z
-x,y,-z
-x,-y,-z
x,y,-z
-x,y,z
x,-y,z
1/2+x,1/2+y,z
1/2-x,1/2-y,z
1/2+x,1/2-y,-z
1/2-x,1/2+y,-z
1/2-x,1/2-y,-z
1/2+x,1/2+y,-z
1/2-x,1/2+y,z
1/2+x,1/2-y,z
loop_
_atom_site_type_symbol
_atom_site_label
_atom_site_fract_x
_atom_site_fract_y
_atom_site_fract_z
Si Si1 0.185842 0.350210 0.625237
Si Si2 0.686045 0.350719 0.500000
Si Si3 0.314601 0.500000 0.848839
Si Si4 0.685777 0.848518 0.932312
Si Si5 0.686961 0.500000 0.289713
O O1 0.250000 0.250000 0.632472
O O2 0.249568 0.387358 0.562063
O O3 0.246005 0.413994 0.676997
O O4 0.000000 0.347493 0.623422
O O5 0.500000 0.351996 0.500000
O O6 0.750000 0.250000 0.500000
O O7 0.500000 0.500000 0.851287
O O8 0.251721 0.415105 0.883914
O O9 0.268410 0.500000 0.779671
O O10 0.500000 0.847579 0.929087
O O11 0.750000 0.750000 0.923259
O O12 0.729458 0.876199 0.000000
O O13 0.500000 0.500000 0.294385
#
# Coordination Sequence:
#
# PCOD9484537 Si02
#       5
#    16   8   8  16   8
#     4  11  22  39  62  88 117 152 193 241 294 348
#     4  10  18  33  58  87 117 150 188 237 293 347
#     4  11  24  40  60  85 118 157 196 240 289 344
#     4  10  21  38  62  91 121 153 192 238 288 342
#     4  11  25  43  59  83 116 155 201 242 287 345
#
# _framework density 19.160712
#
# number of rings (size 3 to 8) (size 9 to 14) (size 15 to 20)
#    0.000    1.429    0.000    7.714    0.000    7.429 
#    0.000    2.857    0.000    0.000    0.000    0.000 
#    0.000    0.000    0.000    0.000    0.000    0.000 
#
# Total GULP energy -156546.041221 kJ/mol
# GULP energy per Si atom -5590.930044 kJ/mol
# Density = 1.911710 g / cm^3
# Si number density = 19.160712 Si / 1000 Ang^3
#
#
#
# Elastic Constant Matrix: (Units=GPa)
#
#
# Indices 1 2 3 4 5 6 
#
# 1 138.3476 52.6394 88.4320 0.0000 0.0000 0.0000
# 2 52.6394 115.9558 107.4111 0.0000 0.0000 0.0000
# 3 88.4320 107.4111 217.4634 0.0000 0.0000 0.0000
# 4 0.0000 0.0000 0.0000 120.2777 0.0000 0.0000
# 5 0.0000 0.0000 0.0000 0.0000 33.7215 0.0000
# 6 0.0000 0.0000 0.0000 0.0000 0.0000 33.6166
#
#
#
# Elastic Compliance Matrix: (Units=1/GPa)
#
#
# Indices 1 2 3 4 5 6 
#
# 1 0.009890 -0.001409 -0.003326 0.000000 0.000000 0.000000
# 2 -0.001409 0.016098 -0.007378 0.000000 0.000000 0.000000
# 3 -0.003326 -0.007378 0.009595 0.000000 0.000000 0.000000
# 4 0.000000 0.000000 0.000000 0.008314 0.000000 0.000000
# 5 0.000000 0.000000 0.000000 0.000000 0.029655 0.000000
# 6 0.000000 0.000000 0.000000 0.000000 0.000000 0.029747
#
#
# Mechanical properties :
#
#
# Convention : Reuss Voigt Hill
#
# Bulk Modulus (GPa) = 88.04926 107.63684 97.84305
# Shear Modulus (GPa) = 38.07715 52.40879 45.24297
#
# Velocity S-wave (km/s) = 4.46270 5.23561 4.86453
# Velocity P-wave (km/s) = 8.52097 9.63569 9.09543
#
# Compressibility (1/GPa) = 0.01135728
#
# Stress axis : x y z
#
# Youngs Moduli (GPa) = 101.11009 62.11832 104.21617
#
# Poissons Ratio (x) = 0.08752 0.34662
# Poissons Ratio (y) = 0.14245 0.76896
# Poissons Ratio (z) = 0.33629 0.45834
#
# Static dielectric constant tensor:
#      x y z
#    x 1.637390 0.000000 0.000000 
#    y 0.000000 1.627160 0.000000 
#    z 0.000000 0.000000 1.667860 
# 
# From -- ./inp_files/58605.got.cif
#   From: 2010.05.17/outbox.cif.g08.bks.cpg/sg65_30_cif.got.tgz:58605.got - 2010.06.03 17:01:31.
