data_PCOD9484923
_publ_section_title
;
Structure prediction by ZEFSAII (Michael W. Deem and Ramdas Pophale) SiO2 
 PCOD9484923
Probable space group: C M M M
;
_chemical_formula_sum "Si O2"
_cell_formula_units_Z 104
_cell_length_a 7.702084
_cell_length_b 28.232430
_cell_length_c 29.369520
_cell_angle_alpha 90.000000
_cell_angle_beta 90.000000
_cell_angle_gamma 90.000000
_cell_volume 6386.359461
_symmetry_space_group_name_H-M "C M M M"
_symmetry_group_IT_number 65
_symmetry_cell_setting 'orthorhombic'
loop_
_space_group_symop_operation_xyz
x,y,z
-x,-y,z
x,-y,-z
-x,y,-z
-x,-y,-z
x,y,-z
-x,y,z
x,-y,z
1/2+x,1/2+y,z
1/2-x,1/2-y,z
1/2+x,1/2-y,-z
1/2-x,1/2+y,-z
1/2-x,1/2-y,-z
1/2+x,1/2+y,-z
1/2-x,1/2+y,z
1/2+x,1/2-y,z
loop_
_atom_site_type_symbol
_atom_site_label
_atom_site_fract_x
_atom_site_fract_y
_atom_site_fract_z
Si Si1 0.793383 0.696151 0.767970
Si Si2 0.791408 0.947433 0.809064
Si Si3 0.791246 0.396047 0.283352
Si Si4 0.000000 0.057364 0.448260
Si Si5 0.294155 0.056702 0.622671
Si Si6 0.206365 0.144773 0.859530
Si Si7 0.290745 0.305232 0.050693
O O1 0.750000 0.750000 0.756272
O O2 0.726840 0.655631 0.733244
O O3 0.729714 0.682029 0.818399
O O4 0.000000 0.691871 0.769145
O O5 0.755481 0.931834 0.757296
O O6 0.722349 0.905210 0.841039
O O7 0.000000 0.948488 0.814340
O O8 0.723654 0.000000 0.818292
O O9 0.734443 0.415463 0.332139
O O10 0.000000 0.394141 0.285699
O O11 0.171385 0.070245 0.419447
O O12 0.000000 0.075319 0.500000
O O13 0.000000 0.000000 0.450491
O O14 0.500000 0.065365 0.614571
O O15 0.275240 0.000000 0.630603
O O16 0.277662 0.164296 0.907032
O O17 0.000000 0.138702 0.865586
O O18 0.500000 0.309557 0.050128
O O19 0.250000 0.250000 0.058244
O O20 0.226674 0.318179 0.000000
#
# Coordination Sequence:
#
# PCOD9484923 Si02
#       7
#    16  16  16   8  16  16  16
#     4  10  19  30  43  61  87 116 142 172 211 258
#     4   9  17  27  41  61  83 109 141 175 209 248
#     4   9  18  30  43  61  86 116 146 179 212 254
#     4   9  18  30  44  66  94 124 158 190 223 269
#     4   9  17  29  45  65  91 123 154 188 227 264
#     4   9  17  29  43  59  81 109 140 170 210 257
#     4   9  17  28  42  59  78 101 131 171 214 257
#
# _framework density 16.284708999999999
#
# number of rings (size 3 to 8) (size 9 to 14) (size 15 to 20)
#    0.000    2.846    0.000    1.385    1.077    3.692 
#    0.000    1.538    0.000    0.462    0.000    3.231 
#    0.000    0.615    0.308   11.538    0.000   12.000 
#
# Total GULP energy -289727.669859 kJ/mol
# GULP energy per Si atom -5571.685959 kJ/mol
# Density = 1.624764 g / cm^3
# Si number density = 16.284709 Si / 1000 Ang^3
#
#
#
# Elastic Constant Matrix: (Units=GPa)
#
#
# Indices 1 2 3 4 5 6 
#
# 1 37.5512 16.2774 35.2216 0.0000 0.0000 0.0000
# 2 16.2774 88.7278 63.5425 0.0000 0.0000 0.0000
# 3 35.2216 63.5425 155.1360 0.0000 0.0000 0.0000
# 4 0.0000 0.0000 0.0000 24.5986 0.0000 0.0000
# 5 0.0000 0.0000 0.0000 0.0000 -2.1368 0.0000
# 6 0.0000 0.0000 0.0000 0.0000 0.0000 6.2958
#
#
#
# Elastic Compliance Matrix: (Units=1/GPa)
#
#
# Indices 1 2 3 4 5 6 
#
# 1 0.033898 -0.001001 -0.007286 0.000000 0.000000 0.000000
# 2 -0.001001 0.015978 -0.006317 0.000000 0.000000 0.000000
# 3 -0.007286 -0.006317 0.010688 0.000000 0.000000 0.000000
# 4 0.000000 0.000000 0.000000 0.040653 0.000000 0.000000
# 5 0.000000 0.000000 0.000000 0.000000 -0.467998 0.000000
# 6 0.000000 0.000000 0.000000 0.000000 0.000000 0.158835
#
#
# Mechanical properties :
#
#
# Convention : Reuss Voigt Hill
#
# Bulk Modulus (GPa) = 31.89222 56.83310 44.36266
# Shear Modulus (GPa) = -29.71141 16.84311 -6.43415
#
# Velocity S-wave (km/s) = -4.27605 3.21953 -1.98988
# Velocity P-wave (km/s) = 2.18009 6.98541 4.69271
#
# Compressibility (1/GPa) = 0.03135561
#
# Stress axis : x y z
#
# Youngs Moduli (GPa) = 29.50000 62.58534 93.56509
#
# Poissons Ratio (x) = 0.06263 0.68174
# Poissons Ratio (y) = 0.02952 0.59108
# Poissons Ratio (z) = 0.21495 0.39537
#
# Static dielectric constant tensor:
#      x y z
#    x 1.591440 0.000000 0.000000 
#    y 0.000000 1.535390 0.000000 
#    z 0.000000 0.000000 1.542980 
# 
# From -- ./inp_files/68537.got.cif
#   From: 2010.05.17/outbox.cif.g08.bks.cpg/sg65_35_cif.got.tgz:68537.got - 2010.06.03 17:01:31.
