data_PCOD9484731
_publ_section_title
;
Structure prediction by ZEFSAII (Michael W. Deem and Ramdas Pophale) SiO2 
 PCOD9484731
Probable space group: C M M M
;
_chemical_formula_sum "Si O2"
_cell_formula_units_Z 64
_cell_length_a 11.119304
_cell_length_b 14.425496
_cell_length_c 18.217227
_cell_angle_alpha 90.000000
_cell_angle_beta 90.000000
_cell_angle_gamma 90.000000
_cell_volume 2922.070088
_symmetry_space_group_name_H-M "C M M M"
_symmetry_group_IT_number 65
_symmetry_cell_setting 'orthorhombic'
loop_
_space_group_symop_operation_xyz
x,y,z
-x,-y,z
x,-y,-z
-x,y,-z
-x,-y,-z
x,y,-z
-x,y,z
x,-y,z
1/2+x,1/2+y,z
1/2-x,1/2-y,z
1/2+x,1/2-y,-z
1/2-x,1/2+y,-z
1/2-x,1/2-y,-z
1/2+x,1/2+y,-z
1/2-x,1/2+y,z
1/2+x,1/2-y,z
loop_
_atom_site_type_symbol
_atom_site_label
_atom_site_fract_x
_atom_site_fract_y
_atom_site_fract_z
Si Si1 0.740509 0.607008 0.338699
Si Si2 0.000000 0.142273 0.085888
Si Si3 0.241489 0.862218 0.165208
Si Si4 0.500000 0.613472 0.414639
Si Si5 0.500000 0.885654 0.684317
Si Si6 0.500000 0.850079 0.145424
O O1 0.743086 0.500000 0.361445
O O2 0.728963 0.611925 0.250491
O O3 0.621902 0.647368 0.375609
O O4 0.875603 0.641291 0.354196
O O5 0.877225 0.107621 0.122726
O O6 0.000000 0.253022 0.102693
O O7 0.000000 0.124721 0.000000
O O8 0.250000 0.750000 0.162299
O O9 0.369642 0.895484 0.133091
O O10 0.500000 0.500000 0.408539
O O11 0.500000 0.636942 0.500000
O O12 0.500000 0.839472 0.765318
O O13 0.500000 0.000000 0.695025
#
# Coordination Sequence:
#
# PCOD9484731 Si02
#       6
#    16   8  16   8   8   8
#     4   9  16  28  47  67  88 114 144 180 217 254
#     4  10  19  29  42  62  88 115 143 176 216 261
#     4   9  17  29  45  66  87 110 144 181 216 254
#     4   9  17  28  43  66  93 119 147 176 209 253
#     4   8  14  26  44  65  85 107 141 183 222 255
#     4   8  16  27  41  62  84 107 139 179 218 253
#
# _framework density 21.902280999999999
#
# number of rings (size 3 to 8) (size 9 to 14) (size 15 to 20)
#    0.000    3.125    0.000    0.750    0.000    4.500 
#    0.000    0.625    0.000    6.375    0.000   10.500 
#    0.000    0.000    0.000    0.000    0.000    0.000 
#
# Total GULP energy -178402.235413 kJ/mol
# GULP energy per Si atom -5575.069857 kJ/mol
# Density = 2.185243 g / cm^3
# Si number density = 21.902281 Si / 1000 Ang^3
#
#
#
# Elastic Constant Matrix: (Units=GPa)
#
#
# Indices 1 2 3 4 5 6 
#
# 1 308.5859 4.8373 91.8412 0.0000 0.0000 0.0000
# 2 4.8373 87.5531 -0.6761 0.0000 0.0000 0.0000
# 3 91.8412 -0.6761 55.8182 0.0000 0.0000 0.0000
# 4 0.0000 0.0000 0.0000 16.0777 0.0000 0.0000
# 5 0.0000 0.0000 0.0000 0.0000 -4.9699 0.0000
# 6 0.0000 0.0000 0.0000 0.0000 0.0000 -55.5516
#
#
#
# Elastic Compliance Matrix: (Units=1/GPa)
#
#
# Indices 1 2 3 4 5 6 
#
# 1 0.006367 -0.000433 -0.010481 0.000000 0.000000 0.000000
# 2 -0.000433 0.011452 0.000851 0.000000 0.000000 0.000000
# 3 -0.010481 0.000851 0.035170 0.000000 0.000000 0.000000
# 4 0.000000 0.000000 0.000000 0.062198 0.000000 0.000000
# 5 0.000000 0.000000 0.000000 0.000000 -0.201212 0.000000
# 6 0.000000 0.000000 0.000000 0.000000 0.000000 -0.018001
#
#
# Mechanical properties :
#
#
# Convention : Reuss Voigt Hill
#
# Bulk Modulus (GPa) = 30.42896 71.55131 50.99013
# Shear Modulus (GPa) = -68.54272 14.84158 -26.85057
#
# Velocity S-wave (km/s) = -5.60024 2.60595 -3.50512
# Velocity P-wave (km/s) = 5.28145 6.46483 2.63631
#
# Compressibility (1/GPa) = 0.03286344
#
# Stress axis : x y z
#
# Youngs Moduli (GPa) = 157.06940 87.32010 28.43327
#
# Poissons Ratio (x) = 0.03778 0.29800
# Poissons Ratio (y) = 0.06796 -0.02419
# Poissons Ratio (z) = 1.64619 -0.07428
#
# Static dielectric constant tensor:
#      x y z
#    x 1.869180 0.000000 0.000000 
#    y 0.000000 1.824890 0.000000 
#    z 0.000000 0.000000 1.705320 
# 
# From -- ./inp_files/37824.got.cif
#   From: 2010.05.17/outbox.cif.g08.bks.cpg/sg65_19_cif.got.tgz:37824.got - 2010.06.03 17:01:31.
