data_PCOD9484891
_publ_section_title
;
Structure prediction by ZEFSAII (Michael W. Deem and Ramdas Pophale) SiO2 
 PCOD9484891
Probable space group: C M M M
;
_chemical_formula_sum "Si O2"
_cell_formula_units_Z 80
_cell_length_a 31.574381
_cell_length_b 14.495948
_cell_length_c 8.117999
_cell_angle_alpha 90.000000
_cell_angle_beta 90.000000
_cell_angle_gamma 90.000000
_cell_volume 3715.612892
_symmetry_space_group_name_H-M "C M M M"
_symmetry_group_IT_number 65
_symmetry_cell_setting 'orthorhombic'
loop_
_space_group_symop_operation_xyz
x,y,z
-x,-y,z
x,-y,-z
-x,y,-z
-x,-y,-z
x,y,-z
-x,y,z
x,-y,z
1/2+x,1/2+y,z
1/2-x,1/2-y,z
1/2+x,1/2-y,-z
1/2-x,1/2+y,-z
1/2-x,1/2-y,-z
1/2+x,1/2+y,-z
1/2-x,1/2+y,z
1/2+x,1/2-y,z
loop_
_atom_site_type_symbol
_atom_site_label
_atom_site_fract_x
_atom_site_fract_y
_atom_site_fract_z
Si Si1 0.282787 0.893131 0.698051
Si Si2 0.311393 0.613402 0.687415
Si Si3 0.126215 0.610562 0.808145
Si Si4 0.953123 0.284166 0.682768
Si Si5 0.360380 0.396422 0.000000
Si Si6 0.954084 0.847515 0.000000
O O1 0.285020 0.892686 0.500000
O O2 0.236094 0.855991 0.737568
O O3 0.326810 0.853703 0.763197
O O4 0.281926 0.000000 0.755216
O O5 0.320396 0.645148 0.500000
O O6 0.311297 0.500000 0.678285
O O7 0.343584 0.644449 0.828722
O O8 0.126805 0.500000 0.784296
O O9 0.087415 0.651348 0.706088
O O10 0.118151 0.630369 0.000000
O O11 0.950645 0.240952 0.500000
O O12 0.000000 0.330585 0.692289
O O13 0.952409 0.213847 0.834556
O O14 0.342419 0.500000 0.000000
O O15 0.410535 0.401168 0.000000
O O16 0.000000 0.894671 0.000000
#
# Coordination Sequence:
#
# PCOD9484891 Si02
#       6
#    16  16  16  16   8   8
#     4   8  14  25  42  68 105 144 176 208 248 296
#     4   8  15  28  47  75 109 139 168 204 248 304
#     4  10  19  29  48  80 112 141 177 224 265 294
#     4  10  21  38  58  75  98 140 184 219 261 310
#     4  10  20  33  57  86 106 131 162 206 266 316
#     4  10  22  41  58  77 105 132 170 214 256 321
#
# _framework density 21.530767999999998
#
# number of rings (size 3 to 8) (size 9 to 14) (size 15 to 20)
#    0.000    2.800    1.000    1.800    1.400    2.600 
#    0.000    2.000    0.000    2.400    0.000    9.800 
#    0.000    0.000    0.000    0.000    0.000    0.000 
#
# Total GULP energy -223041.224954 kJ/mol
# GULP energy per Si atom -5576.030624 kJ/mol
# Density = 2.148176 g / cm^3
# Si number density = 21.530768 Si / 1000 Ang^3
#
#
#
# Elastic Constant Matrix: (Units=GPa)
#
#
# Indices 1 2 3 4 5 6 
#
# 1 168.2303 21.9738 77.7262 0.0000 0.0000 0.0000
# 2 21.9738 26.7244 28.7729 0.0000 0.0000 0.0000
# 3 77.7262 28.7729 129.0790 0.0000 0.0000 0.0000
# 4 0.0000 0.0000 0.0000 -4.4270 0.0000 0.0000
# 5 0.0000 0.0000 0.0000 0.0000 42.1014 0.0000
# 6 0.0000 0.0000 0.0000 0.0000 0.0000 41.8588
#
#
#
# Elastic Compliance Matrix: (Units=1/GPa)
#
#
# Indices 1 2 3 4 5 6 
#
# 1 0.008308 -0.001901 -0.004579 0.000000 0.000000 0.000000
# 2 -0.001901 0.049670 -0.009927 0.000000 0.000000 0.000000
# 3 -0.004579 -0.009927 0.012717 0.000000 0.000000 0.000000
# 4 0.000000 0.000000 0.000000 -0.225888 0.000000 0.000000
# 5 0.000000 0.000000 0.000000 0.000000 0.023752 0.000000
# 6 0.000000 0.000000 0.000000 0.000000 0.000000 0.023890
#
#
# Mechanical properties :
#
#
# Convention : Reuss Voigt Hill
#
# Bulk Modulus (GPa) = 26.39840 64.55326 45.47583
# Shear Modulus (GPa) = -80.50504 28.94401 -25.78051
#
# Velocity S-wave (km/s) = -6.12143 3.67046 -3.46407
# Velocity P-wave (km/s) = 6.13800 6.92892 2.27320
#
# Compressibility (1/GPa) = 0.03788108
#
# Stress axis : x y z
#
# Youngs Moduli (GPa) = 120.36313 20.13271 78.63264
#
# Poissons Ratio (x) = 0.03828 0.36006
# Poissons Ratio (y) = 0.22884 0.78060
# Poissons Ratio (z) = 0.55115 0.19986
#
# Static dielectric constant tensor:
#      x y z
#    x 1.797500 0.000000 0.000000 
#    y 0.000000 1.833800 0.000000 
#    z 0.000000 0.000000 1.799490 
# 
# From -- ./inp_files/16111.got.cif
#   From: 2010.05.17/outbox.cif.g08.bks.cpg/sg65_9_cif.got.tgz:16111.got - 2010.06.03 17:01:31.
