data_PCOD9484211
_publ_section_title
;
Structure prediction by ZEFSAII (Michael W. Deem and Ramdas Pophale) SiO2 
 PCOD9484211
Probable space group: C M M M
;
_chemical_formula_sum "Si O2"
_cell_formula_units_Z 64
_cell_length_a 8.341016
_cell_length_b 33.993181
_cell_length_c 11.452897
_cell_angle_alpha 90.000000
_cell_angle_beta 90.000000
_cell_angle_gamma 90.000000
_cell_volume 3247.327691
_symmetry_space_group_name_H-M "C M M M"
_symmetry_group_IT_number 65
_symmetry_cell_setting 'orthorhombic'
loop_
_space_group_symop_operation_xyz
x,y,z
-x,-y,z
x,-y,-z
-x,y,-z
-x,-y,-z
x,y,-z
-x,y,z
x,-y,z
1/2+x,1/2+y,z
1/2-x,1/2-y,z
1/2+x,1/2-y,-z
1/2-x,1/2+y,-z
1/2-x,1/2-y,-z
1/2+x,1/2+y,-z
1/2-x,1/2+y,z
1/2+x,1/2-y,z
loop_
_atom_site_type_symbol
_atom_site_label
_atom_site_fract_x
_atom_site_fract_y
_atom_site_fract_z
Si Si1 0.695588 0.664046 0.258500
Si Si2 0.179889 0.500000 0.362700
Si Si3 0.810510 0.073127 0.235232
Si Si4 0.694028 0.294728 0.500000
Si Si5 0.686349 0.328979 0.000000
Si Si6 0.817588 0.414770 0.000000
O O1 0.500000 0.665764 0.255126
O O2 0.740634 0.617816 0.266060
O O3 0.748458 0.685235 0.377796
O O4 0.751640 0.681012 0.130971
O O5 0.168412 0.500000 0.500000
O O6 0.268921 0.539649 0.325892
O O7 0.000000 0.500000 0.312343
O O8 0.721416 0.062102 0.116141
O O9 0.000000 0.074225 0.215327
O O10 0.500000 0.296809 0.500000
O O11 0.750000 0.250000 0.500000
O O12 0.702807 0.376461 0.000000
O O13 0.500000 0.317124 0.000000
O O14 0.000000 0.400582 0.000000
#
# Coordination Sequence:
#
# PCOD9484211 Si02
#       6
#    16   8  16   8   8   8
#     4   8  16  31  56  79 103 135 179 225 267 310
#     4  11  25  40  51  74 115 149 177 225 284 331
#     4  10  20  36  58  81 103 140 190 231 263 316
#     4  10  20  36  54  79 108 139 173 218 269 324
#     4   8  14  30  52  78 103 137 182 225 261 316
#     4  10  18  31  53  81 113 141 170 221 285 333
#
# _framework density 19.708511999999999
#
# number of rings (size 3 to 8) (size 9 to 14) (size 15 to 20)
#    0.000    2.625    0.000    3.750    1.750    1.500 
#    0.000    9.375    0.000    0.000    0.000    0.000 
#    0.000    0.000    0.000    0.000    0.000    0.000 
#
# Total GULP energy -178187.328079 kJ/mol
# GULP energy per Si atom -5568.354002 kJ/mol
# Density = 1.966365 g / cm^3
# Si number density = 19.708512 Si / 1000 Ang^3
#
#
#
# Elastic Constant Matrix: (Units=GPa)
#
#
# Indices 1 2 3 4 5 6 
#
# 1 30.4233 14.1217 14.0893 0.0000 0.0000 0.0000
# 2 14.1217 78.9443 76.0852 0.0000 0.0000 0.0000
# 3 14.0893 76.0852 191.2426 0.0000 0.0000 0.0000
# 4 0.0000 0.0000 0.0000 39.0231 0.0000 0.0000
# 5 0.0000 0.0000 0.0000 0.0000 17.8052 0.0000
# 6 0.0000 0.0000 0.0000 0.0000 0.0000 18.0601
#
#
#
# Elastic Compliance Matrix: (Units=1/GPa)
#
#
# Indices 1 2 3 4 5 6 
#
# 1 0.035848 -0.006272 -0.000146 0.000000 0.000000 0.000000
# 2 -0.006272 0.021642 -0.008148 0.000000 0.000000 0.000000
# 3 -0.000146 -0.008148 0.008481 0.000000 0.000000 0.000000
# 4 0.000000 0.000000 0.000000 0.025626 0.000000 0.000000
# 5 0.000000 0.000000 0.000000 0.000000 0.056163 0.000000
# 6 0.000000 0.000000 0.000000 0.000000 0.000000 0.055371
#
#
# Mechanical properties :
#
#
# Convention : Reuss Voigt Hill
#
# Bulk Modulus (GPa) = 27.14447 56.57805 41.86126
# Shear Modulus (GPa) = 20.44621 28.06530 24.25575
#
# Velocity S-wave (km/s) = 3.22441 3.77771 3.51197
# Velocity P-wave (km/s) = 5.25978 6.91360 6.14260
#
# Compressibility (1/GPa) = 0.03683991
#
# Stress axis : x y z
#
# Youngs Moduli (GPa) = 27.89518 46.20592 117.90479
#
# Poissons Ratio (x) = 0.28982 0.01717
# Poissons Ratio (y) = 0.17497 0.96071
# Poissons Ratio (z) = 0.00406 0.37649
#
# Static dielectric constant tensor:
#      x y z
#    x 1.693090 0.000000 0.000000 
#    y 0.000000 1.651910 0.000000 
#    z 0.000000 0.000000 1.758280 
# 
# From -- ./inp_files/21058.got.cif
#   From: 2010.05.17/outbox.cif.g08.bks.cpg/sg65_11_cif.got.tgz:21058.got - 2010.06.03 17:01:31.
