data_PCOD9484195
_publ_section_title
;
Structure prediction by ZEFSAII (Michael W. Deem and Ramdas Pophale) SiO2 
 PCOD9484195
Probable space group: C M M M
;
_chemical_formula_sum "Si O2"
_cell_formula_units_Z 96
_cell_length_a 24.157228
_cell_length_b 26.333791
_cell_length_c 7.869347
_cell_angle_alpha 90.000000
_cell_angle_beta 90.000000
_cell_angle_gamma 90.000000
_cell_volume 5006.096058
_symmetry_space_group_name_H-M "C M M M"
_symmetry_group_IT_number 65
_symmetry_cell_setting 'orthorhombic'
loop_
_space_group_symop_operation_xyz
x,y,z
-x,-y,z
x,-y,-z
-x,y,-z
-x,-y,-z
x,y,-z
-x,y,z
x,-y,z
1/2+x,1/2+y,z
1/2-x,1/2-y,z
1/2+x,1/2-y,-z
1/2-x,1/2+y,-z
1/2-x,1/2-y,-z
1/2+x,1/2+y,-z
1/2-x,1/2+y,z
1/2+x,1/2-y,z
loop_
_atom_site_type_symbol
_atom_site_label
_atom_site_fract_x
_atom_site_fract_y
_atom_site_fract_z
Si Si1 0.244562 0.192263 0.300872
Si Si2 0.638128 0.151462 0.798304
Si Si3 0.127207 0.845344 0.201098
Si Si4 0.563580 0.754551 0.208233
Si Si5 0.935938 0.943082 0.792534
Si Si6 0.562643 0.058291 0.294870
O O1 0.232805 0.197217 0.500000
O O2 0.250000 0.250000 0.230269
O O3 0.301433 0.161890 0.276560
O O4 0.192054 0.163805 0.223849
O O5 0.597376 0.196081 0.735261
O O6 0.608613 0.098070 0.762572
O O7 0.643979 0.157112 0.000000
O O8 0.094454 0.796217 0.268382
O O9 0.103438 0.898183 0.270089
O O10 0.115678 0.846231 0.000000
O O11 0.500000 0.755841 0.262299
O O12 0.563934 0.754717 0.000000
O O13 0.000000 0.932777 0.747168
O O14 0.921375 0.000000 0.734784
O O15 0.933991 0.944045 0.000000
O O16 0.562207 0.058428 0.500000
O O17 0.500000 0.072732 0.238059
O O18 0.572745 0.000000 0.239974
#
# Coordination Sequence:
#
# PCOD9484195 Si02
#       6
#    16  16  16  16  16  16
#     4  11  23  38  54  72 102 143 185 225 272 328
#     4  11  21  34  55  81 109 138 179 229 273 319
#     4  10  18  31  53  77 104 138 177 218 263 313
#     4   9  17  28  46  76 108 133 162 209 270 327
#     4   8  14  26  48  80 112 138 167 207 256 309
#     4   9  19  37  59  82 112 149 182 214 262 324
#
# _framework density 19.176618999999999
#
# number of rings (size 3 to 8) (size 9 to 14) (size 15 to 20)
#    0.000    2.333    1.667    3.000    0.000    4.000 
#    0.000    1.667    0.000    6.500    0.000    1.167 
#    0.000    0.000    0.000    0.000    0.000    0.000 
#
# Total GULP energy -267889.083960 kJ/mol
# GULP energy per Si atom -5581.022583 kJ/mol
# Density = 1.913297 g / cm^3
# Si number density = 19.176619 Si / 1000 Ang^3
#
#
#
# Elastic Constant Matrix: (Units=GPa)
#
#
# Indices 1 2 3 4 5 6 
#
# 1 113.1107 73.4512 -19.3903 0.0000 0.0000 0.0000
# 2 73.4512 137.4079 -4.3883 0.0000 0.0000 0.0000
# 3 -19.3903 -4.3883 14.8966 0.0000 0.0000 0.0000
# 4 0.0000 0.0000 0.0000 12.0329 0.0000 0.0000
# 5 0.0000 0.0000 0.0000 0.0000 -37.9708 0.0000
# 6 0.0000 0.0000 0.0000 0.0000 0.0000 21.8556
#
#
#
# Elastic Compliance Matrix: (Units=1/GPa)
#
#
# Indices 1 2 3 4 5 6 
#
# 1 0.018464 -0.009189 0.021327 0.000000 0.000000 0.000000
# 2 -0.009189 0.011920 -0.008449 0.000000 0.000000 0.000000
# 3 0.021327 -0.008449 0.092401 0.000000 0.000000 0.000000
# 4 0.000000 0.000000 0.000000 0.083105 0.000000 0.000000
# 5 0.000000 0.000000 0.000000 0.000000 -0.026336 0.000000
# 6 0.000000 0.000000 0.000000 0.000000 0.000000 0.045755
#
#
# Mechanical properties :
#
#
# Convention : Reuss Voigt Hill
#
# Bulk Modulus (GPa) = 7.68276 40.52895 24.10585
# Shear Modulus (GPa) = 19.13379 13.56638 16.35008
#
# Velocity S-wave (km/s) = 3.16217 2.66267 2.92311
# Velocity P-wave (km/s) = 4.16503 5.53475 4.89801
#
# Compressibility (1/GPa) = 0.13016157
#
# Stress axis : x y z
#
# Youngs Moduli (GPa) = 54.15989 83.89549 10.82244
#
# Poissons Ratio (x) = 0.77089 -0.23081
# Poissons Ratio (y) = 0.49766 0.09144
# Poissons Ratio (z) = -1.15506 0.70886
#
# Static dielectric constant tensor:
#      x y z
#    x 1.630050 0.000000 0.000000 
#    y 0.000000 1.673830 0.000000 
#    z 0.000000 0.000000 1.704750 
# 
# From -- ./inp_files/14308.got.cif
#   From: 2010.05.17/outbox.cif.g08.bks.cpg/sg65_8_cif.got.tgz:14308.got - 2010.06.03 17:01:31.
