data_PCOD9484184
_publ_section_title
;
Structure prediction by ZEFSAII (Michael W. Deem and Ramdas Pophale) SiO2 
 PCOD9484184
Probable space group: C M M M
;
_chemical_formula_sum "Si O2"
_cell_formula_units_Z 72
_cell_length_a 15.737249
_cell_length_b 23.991847
_cell_length_c 11.270740
_cell_angle_alpha 90.000000
_cell_angle_beta 90.000000
_cell_angle_gamma 90.000000
_cell_volume 4255.444502
_symmetry_space_group_name_H-M "C M M M"
_symmetry_group_IT_number 65
_symmetry_cell_setting 'orthorhombic'
loop_
_space_group_symop_operation_xyz
x,y,z
-x,-y,z
x,-y,-z
-x,y,-z
-x,-y,-z
x,y,-z
-x,y,z
x,-y,z
1/2+x,1/2+y,z
1/2-x,1/2-y,z
1/2+x,1/2-y,-z
1/2-x,1/2+y,-z
1/2-x,1/2-y,-z
1/2+x,1/2+y,-z
1/2-x,1/2+y,z
1/2+x,1/2-y,z
loop_
_atom_site_type_symbol
_atom_site_label
_atom_site_fract_x
_atom_site_fract_y
_atom_site_fract_z
Si Si1 0.406907 0.358428 0.644228
Si Si2 0.399324 0.879666 0.750223
Si Si3 0.649641 0.763579 0.639733
Si Si4 0.243792 0.937762 0.641573
Si Si5 0.397566 0.064454 0.000000
O O1 0.404072 0.359520 0.500000
O O2 0.500000 0.379149 0.680961
O O3 0.396025 0.293647 0.675357
O O4 0.327993 0.395214 0.687651
O O5 0.500000 0.888722 0.732001
O O6 0.377466 0.815721 0.719124
O O7 0.337694 0.915681 0.667373
O O8 0.375881 0.900815 0.882182
O O9 0.631046 0.776075 0.500000
O O10 0.750000 0.750000 0.646827
O O11 0.233102 0.939768 0.500000
O O12 0.232323 0.000000 0.689491
O O13 0.500000 0.060416 0.000000
O O14 0.365679 0.000000 0.000000
#
# Coordination Sequence:
#
# PCOD9484184 Si02
#       5
#    16  16  16  16   8
#     4   9  17  30  48  70 100 138 173 204 245 303
#     4  11  21  34  54  77 102 135 174 215 260 314
#     4  10  18  31  52  78 109 139 166 206 261 317
#     4  10  20  32  48  74 105 135 170 213 260 311
#     4   9  20  38  55  72  99 139 183 220 257 307
#
# _framework density 16.919502000000001
#
# number of rings (size 3 to 8) (size 9 to 14) (size 15 to 20)
#    0.000    2.111    2.222    2.000    0.000    4.444 
#    0.000    3.889    0.000    0.000    0.000    0.778 
#    0.000    2.667    0.000    0.000    0.000    0.000 
#
# Total GULP energy -200575.377657 kJ/mol
# GULP energy per Si atom -5571.538268 kJ/mol
# Density = 1.688099 g / cm^3
# Si number density = 16.919502 Si / 1000 Ang^3
#
#
#
# Elastic Constant Matrix: (Units=GPa)
#
#
# Indices 1 2 3 4 5 6 
#
# 1 86.2749 52.7774 17.7504 0.0000 0.0000 0.0000
# 2 52.7774 146.2265 45.2311 0.0000 0.0000 0.0000
# 3 17.7504 45.2311 30.7421 0.0000 0.0000 0.0000
# 4 0.0000 0.0000 0.0000 11.6307 0.0000 0.0000
# 5 0.0000 0.0000 0.0000 0.0000 2.8145 0.0000
# 6 0.0000 0.0000 0.0000 0.0000 0.0000 17.1290
#
#
#
# Elastic Compliance Matrix: (Units=1/GPa)
#
#
# Indices 1 2 3 4 5 6 
#
# 1 0.014902 -0.004986 -0.001268 0.000000 0.000000 0.000000
# 2 -0.004986 0.014219 -0.018042 0.000000 0.000000 0.000000
# 3 -0.001268 -0.018042 0.059805 0.000000 0.000000 0.000000
# 4 0.000000 0.000000 0.000000 0.085980 0.000000 0.000000
# 5 0.000000 0.000000 0.000000 0.000000 0.355301 0.000000
# 6 0.000000 0.000000 0.000000 0.000000 0.000000 0.058381
#
#
# Mechanical properties :
#
#
# Convention : Reuss Voigt Hill
#
# Bulk Modulus (GPa) = 24.79241 54.97349 39.88295
# Shear Modulus (GPa) = 7.68493 16.14714 11.91603
#
# Velocity S-wave (km/s) = 2.13352 3.09261 2.65670
# Velocity P-wave (km/s) = 4.55568 6.73157 5.74753
#
# Compressibility (1/GPa) = 0.04033493
#
# Stress axis : x y z
#
# Youngs Moduli (GPa) = 67.10469 70.32796 16.72092
#
# Poissons Ratio (x) = 0.35069 0.02120
# Poissons Ratio (y) = 0.33461 0.30167
# Poissons Ratio (z) = 0.08508 1.26882
#
# Static dielectric constant tensor:
#      x y z
#    x 1.595350 0.000000 0.000000 
#    y 0.000000 1.589430 0.000000 
#    z 0.000000 0.000000 1.565710 
# 
# From -- ./inp_files/24480.got.cif
#   From: 2010.05.17/outbox.cif.g08.bks.cpg/sg65_13_cif.got.tgz:24480.got - 2010.06.03 17:01:31.
