data_PCOD9484770
_publ_section_title
;
Structure prediction by ZEFSAII (Michael W. Deem and Ramdas Pophale) SiO2 
 PCOD9484770
Probable space group: C M M M
;
_chemical_formula_sum "Si O2"
_cell_formula_units_Z 80
_cell_length_a 18.616012
_cell_length_b 7.350236
_cell_length_c 27.016318
_cell_angle_alpha 90.000000
_cell_angle_beta 90.000000
_cell_angle_gamma 90.000000
_cell_volume 3696.699029
_symmetry_space_group_name_H-M "C M M M"
_symmetry_group_IT_number 65
_symmetry_cell_setting 'orthorhombic'
loop_
_space_group_symop_operation_xyz
x,y,z
-x,-y,z
x,-y,-z
-x,y,-z
-x,-y,-z
x,y,-z
-x,y,z
x,-y,z
1/2+x,1/2+y,z
1/2-x,1/2-y,z
1/2+x,1/2-y,-z
1/2-x,1/2+y,-z
1/2-x,1/2-y,-z
1/2+x,1/2+y,-z
1/2-x,1/2+y,z
1/2+x,1/2-y,z
loop_
_atom_site_type_symbol
_atom_site_label
_atom_site_fract_x
_atom_site_fract_y
_atom_site_fract_z
Si Si1 0.583435 0.278583 0.903318
Si Si2 0.334218 0.717015 0.000000
Si Si3 0.665425 0.717054 0.696416
Si Si4 0.416725 0.722509 0.401691
Si Si5 0.916456 0.778439 0.793192
Si Si6 0.165020 0.783010 0.500000
O O1 0.500000 0.228271 0.909839
O O2 0.585864 0.500000 0.903103
O O3 0.606613 0.219746 0.848281
O O4 0.629619 0.213291 0.949590
O O5 0.250000 0.750000 0.000000
O O6 0.346375 0.500000 0.000000
O O7 0.654965 0.500000 0.696973
O O8 0.750000 0.750000 0.692560
O O9 0.622848 0.784267 0.648248
O O10 0.632069 0.786017 0.747881
O O11 0.500000 0.776809 0.403082
O O12 0.415742 0.500000 0.401621
O O13 0.373515 0.784210 0.450212
O O14 0.000000 0.727242 0.785950
O O15 0.914919 0.000000 0.793356
O O16 0.250000 0.750000 0.500000
O O17 0.155103 0.000000 0.500000
#
# Coordination Sequence:
#
# PCOD9484770 Si02
#       6
#    16   8  16  16  16   8
#     4   8  14  26  45  66  85 109 147 189 219 248
#     4  10  19  29  43  65  91 116 142 176 220 264
#     4  10  19  30  46  68  93 119 146 180 222 265
#     4   9  17  30  49  70  89 115 155 193 218 249
#     4   8  14  26  45  67  87 110 146 188 221 251
#     4  10  19  31  49  71  95 120 146 182 226 268
#
# _framework density 21.640929
#
# number of rings (size 3 to 8) (size 9 to 14) (size 15 to 20)
#    0.000    3.000    0.000    3.000    0.000    5.600 
#    0.000    0.000    0.000    6.000    0.000    2.800 
#    0.000    0.000    0.000    0.000    0.000    0.000 
#
# Total GULP energy -223404.113345 kJ/mol
# GULP energy per Si atom -5585.102834 kJ/mol
# Density = 2.159167 g / cm^3
# Si number density = 21.640929 Si / 1000 Ang^3
#
#
#
# Elastic Constant Matrix: (Units=GPa)
#
#
# Indices 1 2 3 4 5 6 
#
# 1 178.8334 -2.9244 163.2604 0.0000 0.0000 0.0000
# 2 -2.9244 81.0481 11.4160 0.0000 0.0000 0.0000
# 3 163.2604 11.4160 278.2538 0.0000 0.0000 0.0000
# 4 0.0000 0.0000 0.0000 -20.6648 0.0000 0.0000
# 5 0.0000 0.0000 0.0000 0.0000 3.5944 0.0000
# 6 0.0000 0.0000 0.0000 0.0000 0.0000 19.5253
#
#
#
# Elastic Compliance Matrix: (Units=1/GPa)
#
#
# Indices 1 2 3 4 5 6 
#
# 1 0.012211 0.001458 -0.007224 0.000000 0.000000 0.000000
# 2 0.001458 0.012584 -0.001372 0.000000 0.000000 0.000000
# 3 -0.007224 -0.001372 0.007889 0.000000 0.000000 0.000000
# 4 0.000000 0.000000 0.000000 -0.048391 0.000000 0.000000
# 5 0.000000 0.000000 0.000000 0.000000 0.278209 0.000000
# 6 0.000000 0.000000 0.000000 0.000000 0.000000 0.051216
#
#
# Mechanical properties :
#
#
# Convention : Reuss Voigt Hill
#
# Bulk Modulus (GPa) = 54.32443 97.95993 76.14218
# Shear Modulus (GPa) = 14.96428 24.91654 19.94041
#
# Velocity S-wave (km/s) = 2.63245 3.39685 3.03879
# Velocity P-wave (km/s) = 5.86489 7.79417 6.89732
#
# Compressibility (1/GPa) = 0.01840792
#
# Stress axis : x y z
#
# Youngs Moduli (GPa) = 81.89418 79.46471 126.76073
#
# Poissons Ratio (x) = -0.11587 0.91576
# Poissons Ratio (y) = -0.11942 0.17390
# Poissons Ratio (z) = 0.59163 0.10901
#
# Static dielectric constant tensor:
#      x y z
#    x 1.712070 0.000000 0.000000 
#    y 0.000000 1.847720 0.000000 
#    z 0.000000 0.000000 1.775590 
# 
# From -- ./inp_files/74191.got.cif
#   From: 2010.05.17/outbox.cif.g08.bks.cpg/sg65_38_cif.got.tgz:74191.got - 2010.06.03 17:01:31.
