data_PCOD9484884
_publ_section_title
;
Structure prediction by ZEFSAII (Michael W. Deem and Ramdas Pophale) SiO2 
 PCOD9484884
Probable space group: C M M M
;
_chemical_formula_sum "Si O2"
_cell_formula_units_Z 72
_cell_length_a 7.587275
_cell_length_b 29.635823
_cell_length_c 16.214367
_cell_angle_alpha 90.000000
_cell_angle_beta 90.000000
_cell_angle_gamma 90.000000
_cell_volume 3645.883745
_symmetry_space_group_name_H-M "C M M M"
_symmetry_group_IT_number 65
_symmetry_cell_setting 'orthorhombic'
loop_
_space_group_symop_operation_xyz
x,y,z
-x,-y,z
x,-y,-z
-x,y,-z
-x,-y,-z
x,y,-z
-x,y,z
x,-y,z
1/2+x,1/2+y,z
1/2-x,1/2-y,z
1/2+x,1/2-y,-z
1/2-x,1/2+y,-z
1/2-x,1/2-y,-z
1/2+x,1/2+y,-z
1/2-x,1/2+y,z
1/2+x,1/2-y,z
loop_
_atom_site_type_symbol
_atom_site_label
_atom_site_fract_x
_atom_site_fract_y
_atom_site_fract_z
Si Si1 0.712019 0.197464 0.092031
Si Si2 0.790254 0.196764 0.591814
Si Si3 0.207924 0.359236 0.754990
Si Si4 0.283056 0.051532 0.320322
Si Si5 0.200394 0.554826 0.500000
O O1 0.500000 0.192948 0.090296
O O2 0.750000 0.250000 0.107329
O O3 0.782892 0.167825 0.167376
O O4 0.778052 0.185978 0.000000
O O5 0.722585 0.183473 0.500000
O O6 0.750000 0.250000 0.602681
O O7 0.724358 0.168530 0.669727
O O8 0.000000 0.191607 0.590659
O O9 0.277019 0.409753 0.741247
O O10 0.000000 0.364122 0.770332
O O11 0.500000 0.051253 0.323651
O O12 0.219546 0.066034 0.411908
O O13 0.229850 0.000000 0.303451
O O14 0.191397 0.500000 0.500000
O O15 0.000000 0.572304 0.500000
#
# Coordination Sequence:
#
# PCOD9484884 Si02
#       5
#    16  16  16  16   8
#     4   9  18  32  48  68  94 120 149 189 238 287
#     4  10  21  35  48  65  94 128 157 188 229 279
#     4  10  19  29  48  73  93 121 158 197 236 274
#     4   8  14  24  39  63  93 121 153 193 231 268
#     4   7  10  18  32  52  80 111 142 181 222 253
#
# _framework density 19.748297999999998
#
# number of rings (size 3 to 8) (size 9 to 14) (size 15 to 20)
#    0.000    3.000    0.000    2.667    1.556    4.000 
#    0.000    0.000    0.000    1.333    0.000    6.222 
#    0.000    0.000    0.000    7.556    0.000    8.000 
#
# Total GULP energy -200733.032928 kJ/mol
# GULP energy per Si atom -5575.917581 kJ/mol
# Density = 1.970335 g / cm^3
# Si number density = 19.748298 Si / 1000 Ang^3
#
#
#
# Elastic Constant Matrix: (Units=GPa)
#
#
# Indices 1 2 3 4 5 6 
#
# 1 46.5820 -0.1891 4.2979 0.0000 0.0000 0.0000
# 2 -0.1891 123.3439 111.2732 0.0000 0.0000 0.0000
# 3 4.2979 111.2732 159.6984 0.0000 0.0000 0.0000
# 4 0.0000 0.0000 0.0000 23.7898 0.0000 0.0000
# 5 0.0000 0.0000 0.0000 0.0000 12.7287 0.0000
# 6 0.0000 0.0000 0.0000 0.0000 0.0000 4.2817
#
#
#
# Elastic Compliance Matrix: (Units=1/GPa)
#
#
# Indices 1 2 3 4 5 6 
#
# 1 0.021624 0.001503 -0.001629 0.000000 0.000000 0.000000
# 2 0.001503 0.021933 -0.015323 0.000000 0.000000 0.000000
# 3 -0.001629 -0.015323 0.016982 0.000000 0.000000 0.000000
# 4 0.000000 0.000000 0.000000 0.042035 0.000000 0.000000
# 5 0.000000 0.000000 0.000000 0.000000 0.078563 0.000000
# 6 0.000000 0.000000 0.000000 0.000000 0.000000 0.233553
#
#
# Mechanical properties :
#
#
# Convention : Reuss Voigt Hill
#
# Bulk Modulus (GPa) = 33.73703 62.26536 48.00119
# Shear Modulus (GPa) = 10.97774 22.44286 16.71030
#
# Velocity S-wave (km/s) = 2.36027 3.37478 2.91205
# Velocity P-wave (km/s) = 4.95464 6.83984 5.97210
#
# Compressibility (1/GPa) = 0.02964102
#
# Stress axis : x y z
#
# Youngs Moduli (GPa) = 46.24505 45.59375 58.88586
#
# Poissons Ratio (x) = -0.06852 0.09593
# Poissons Ratio (y) = -0.06950 0.90229
# Poissons Ratio (z) = 0.07534 0.69862
#
# Static dielectric constant tensor:
#      x y z
#    x 1.807360 0.000000 0.000000 
#    y 0.000000 1.695550 0.000000 
#    z 0.000000 0.000000 1.717650 
# 
# From -- ./inp_files/37005.got.cif
#   From: 2010.05.17/outbox.cif.g08.bks.cpg/sg65_19_cif.got.tgz:37005.got - 2010.06.03 17:01:31.
