data_PCOD9484931
_publ_section_title
;
Structure prediction by ZEFSAII (Michael W. Deem and Ramdas Pophale) SiO2 
 PCOD9484931
Probable space group: C M M M
;
_chemical_formula_sum "Si O2"
_cell_formula_units_Z 128
_cell_length_a 24.937324
_cell_length_b 21.320579
_cell_length_c 13.840867
_cell_angle_alpha 90.000000
_cell_angle_beta 90.000000
_cell_angle_gamma 90.000000
_cell_volume 7358.887065
_symmetry_space_group_name_H-M "C M M M"
_symmetry_group_IT_number 65
_symmetry_cell_setting 'orthorhombic'
loop_
_space_group_symop_operation_xyz
x,y,z
-x,-y,z
x,-y,-z
-x,y,-z
-x,-y,-z
x,y,-z
-x,y,z
x,-y,z
1/2+x,1/2+y,z
1/2-x,1/2-y,z
1/2+x,1/2-y,-z
1/2-x,1/2+y,-z
1/2-x,1/2-y,-z
1/2+x,1/2+y,-z
1/2-x,1/2+y,z
1/2+x,1/2-y,z
loop_
_atom_site_type_symbol
_atom_site_label
_atom_site_fract_x
_atom_site_fract_y
_atom_site_fract_z
Si Si1 0.713138 0.075744 0.389433
Si Si2 0.060118 0.574786 0.884730
Si Si3 0.326091 0.573230 0.312209
Si Si4 0.334318 0.740018 0.110248
Si Si5 0.332882 0.869658 0.798296
Si Si6 0.059447 0.839753 0.890714
Si Si7 0.277873 0.391265 0.110752
Si Si8 0.058537 0.924439 0.293416
O O1 0.699364 0.088325 0.500000
O O2 0.773857 0.098709 0.366269
O O3 0.676017 0.108451 0.310772
O O4 0.711514 0.000000 0.374530
O O5 0.065147 0.500000 0.867874
O O6 0.109254 0.609771 0.835730
O O7 0.000000 0.594003 0.853422
O O8 0.063299 0.584719 0.000000
O O9 0.327540 0.500000 0.336501
O O10 0.313415 0.579715 0.197255
O O11 0.385088 0.598386 0.338187
O O12 0.326191 0.795710 0.184440
O O13 0.392482 0.708459 0.125939
O O14 0.292474 0.682807 0.115146
O O15 0.332423 0.765515 0.000000
O O16 0.284091 0.900781 0.860024
O O17 0.060371 0.895096 0.813453
O O18 0.000000 0.810200 0.884598
O O19 0.066521 0.863807 0.000000
O O20 0.288349 0.411678 0.000000
O O21 0.000000 0.906927 0.335927
O O22 0.060178 0.000000 0.289596
#
# Coordination Sequence:
#
# PCOD9484931 Si02
#       8
#    16  16  16  16  16  16  16  16
#     4   9  19  36  56  76  97 120 150 198 256 306
#     4   9  18  32  49  72 103 131 153 186 234 286
#     4   9  17  29  47  70  95 128 165 201 249 298
#     4  10  19  30  43  65  99 138 170 201 236 275
#     4  11  20  31  51  72  92 124 165 198 235 292
#     4   9  17  28  41  61  93 135 178 210 235 270
#     4  10  19  30  43  66 100 135 167 201 240 282
#     4   9  16  26  42  65  92 125 167 210 248 286
#
# _framework density 17.393934000000002
#
# number of rings (size 3 to 8) (size 9 to 14) (size 15 to 20)
#    0.000    2.500    1.250    2.250    0.000    2.500 
#    0.000    3.750    0.000    6.750    0.000    4.375 
#    0.000    0.000    0.000    0.000    0.000    0.000 
#
# Total GULP energy -356453.592949 kJ/mol
# GULP energy per Si atom -5569.587390 kJ/mol
# Density = 1.735434 g / cm^3
# Si number density = 17.393934 Si / 1000 Ang^3
#
#
#
# Elastic Constant Matrix: (Units=GPa)
#
#
# Indices 1 2 3 4 5 6 
#
# 1 118.9393 12.9980 15.3023 0.0000 0.0000 0.0000
# 2 12.9980 19.7487 18.0363 0.0000 0.0000 0.0000
# 3 15.3023 18.0363 50.2366 0.0000 0.0000 0.0000
# 4 0.0000 0.0000 0.0000 17.5501 0.0000 0.0000
# 5 0.0000 0.0000 0.0000 0.0000 10.0468 0.0000
# 6 0.0000 0.0000 0.0000 0.0000 0.0000 14.8173
#
#
#
# Elastic Compliance Matrix: (Units=1/GPa)
#
#
# Indices 1 2 3 4 5 6 
#
# 1 0.009088 -0.005138 -0.000924 0.000000 0.000000 0.000000
# 2 -0.005138 0.078245 -0.026527 0.000000 0.000000 0.000000
# 3 -0.000924 -0.026527 0.029711 0.000000 0.000000 0.000000
# 4 0.000000 0.000000 0.000000 0.056980 0.000000 0.000000
# 5 0.000000 0.000000 0.000000 0.000000 0.099534 0.000000
# 6 0.000000 0.000000 0.000000 0.000000 0.000000 0.067489
#
#
# Mechanical properties :
#
#
# Convention : Reuss Voigt Hill
#
# Bulk Modulus (GPa) = 19.28013 31.28863 25.28438
# Shear Modulus (GPa) = 11.80604 17.98870 14.89737
#
# Velocity S-wave (km/s) = 2.60810 3.21938 2.92972
# Velocity P-wave (km/s) = 4.49200 5.64327 5.10022
#
# Compressibility (1/GPa) = 0.05186686
#
# Stress axis : x y z
#
# Youngs Moduli (GPa) = 110.03569 12.78041 33.65760
#
# Poissons Ratio (x) = 0.06567 0.03109
# Poissons Ratio (y) = 0.56536 0.89283
# Poissons Ratio (z) = 0.10163 0.33902
#
# Static dielectric constant tensor:
#      x y z
#    x 1.659790 0.000000 0.000000 
#    y 0.000000 1.584830 0.000000 
#    z 0.000000 0.000000 1.575910 
# 
# From -- ./inp_files/31299.got.cif
#   From: 2010.05.17/outbox.cif.g08.bks.cpg/sg65_16_cif.got.tgz:31299.got - 2010.06.03 17:01:31.
