data_PCOD9484650
_publ_section_title
;
Structure prediction by ZEFSAII (Michael W. Deem and Ramdas Pophale) SiO2 
 PCOD9484650
Probable space group: C M M M
;
_chemical_formula_sum "Si O2"
_cell_formula_units_Z 104
_cell_length_a 27.644888
_cell_length_b 8.899202
_cell_length_c 27.196249
_cell_angle_alpha 90.000000
_cell_angle_beta 90.000000
_cell_angle_gamma 90.000000
_cell_volume 6690.751627
_symmetry_space_group_name_H-M "C M M M"
_symmetry_group_IT_number 65
_symmetry_cell_setting 'orthorhombic'
loop_
_space_group_symop_operation_xyz
x,y,z
-x,-y,z
x,-y,-z
-x,y,-z
-x,-y,-z
x,y,-z
-x,y,z
x,-y,z
1/2+x,1/2+y,z
1/2-x,1/2-y,z
1/2+x,1/2-y,-z
1/2-x,1/2+y,-z
1/2-x,1/2-y,-z
1/2+x,1/2+y,-z
1/2-x,1/2+y,z
1/2+x,1/2-y,z
loop_
_atom_site_type_symbol
_atom_site_label
_atom_site_fract_x
_atom_site_fract_y
_atom_site_fract_z
Si Si1 0.945705 0.819691 0.848418
Si Si2 0.300322 0.820530 0.805724
Si Si3 0.399948 0.821620 0.752391
Si Si4 0.303773 0.819607 0.000000
Si Si5 0.556912 0.679142 0.655696
Si Si6 0.441440 0.823236 0.554037
Si Si7 0.652340 0.680742 0.901956
O O1 0.932354 0.745451 0.796425
O O2 0.903006 0.782200 0.886608
O O3 0.000000 0.777203 0.863745
O O4 0.944276 0.000000 0.841909
O O5 0.250000 0.750000 0.788806
O O6 0.344606 0.791758 0.768501
O O7 0.315256 0.742504 0.857071
O O8 0.296106 0.000000 0.812718
O O9 0.414370 0.749751 0.700867
O O10 0.407012 0.000000 0.750314
O O11 0.250000 0.750000 0.000000
O O12 0.331078 0.759207 0.951761
O O13 0.301169 0.000000 0.000000
O O14 0.500000 0.722096 0.660662
O O15 0.559721 0.500000 0.657653
O O16 0.574715 0.736510 0.602551
O O17 0.424408 0.770425 0.500000
O O18 0.500000 0.811106 0.553306
O O19 0.429997 0.000000 0.558610
O O20 0.657217 0.500000 0.905752
#
# Coordination Sequence:
#
# PCOD9484650 Si02
#       7
#    16  16  16   8  16  16  16
#     4   9  18  33  52  72  95 124 156 188 222 263
#     4  10  20  34  51  71  94 120 150 184 227 275
#     4  10  20  31  45  67  93 121 154 190 226 269
#     4  12  24  38  55  74  97 121 150 189 231 274
#     4  10  19  28  40  61  90 123 157 192 228 266
#     4   8  14  25  40  57  80 114 154 192 230 271
#     4  10  20  35  54  75  98 123 152 185 223 268
#
# _framework density 15.543844
#
# number of rings (size 3 to 8) (size 9 to 14) (size 15 to 20)
#    0.000    2.308    0.000    3.923    0.000    5.846 
#    0.000    1.923    0.000    2.308    0.000    0.000 
#    0.000    0.615    0.000    2.000    0.000    2.462 
#
# Total GULP energy -290015.443995 kJ/mol
# GULP energy per Si atom -5577.220077 kJ/mol
# Density = 1.550847 g / cm^3
# Si number density = 15.543844 Si / 1000 Ang^3
#
#
#
# Elastic Constant Matrix: (Units=GPa)
#
#
# Indices 1 2 3 4 5 6 
#
# 1 87.1921 43.1908 54.6508 0.0000 0.0000 0.0000
# 2 43.1908 60.9312 60.4788 0.0000 0.0000 0.0000
# 3 54.6508 60.4788 146.6318 0.0000 0.0000 0.0000
# 4 0.0000 0.0000 0.0000 27.1324 0.0000 0.0000
# 5 0.0000 0.0000 0.0000 0.0000 13.9169 0.0000
# 6 0.0000 0.0000 0.0000 0.0000 0.0000 20.7104
#
#
#
# Elastic Compliance Matrix: (Units=1/GPa)
#
#
# Indices 1 2 3 4 5 6 
#
# 1 0.018190 -0.010438 -0.002474 0.000000 0.000000 0.000000
# 2 -0.010438 0.033778 -0.010041 0.000000 0.000000 0.000000
# 3 -0.002474 -0.010041 0.011884 0.000000 0.000000 0.000000
# 4 0.000000 0.000000 0.000000 0.036856 0.000000 0.000000
# 5 0.000000 0.000000 0.000000 0.000000 0.071855 0.000000
# 6 0.000000 0.000000 0.000000 0.000000 0.000000 0.048285
#
#
# Mechanical properties :
#
#
# Convention : Reuss Voigt Hill
#
# Bulk Modulus (GPa) = 55.72915 67.93288 61.83101
# Shear Modulus (GPa) = 18.33266 21.44759 19.89012
#
# Velocity S-wave (km/s) = 3.43799 3.71861 3.58105
# Velocity P-wave (km/s) = 7.18960 7.88900 7.54741
#
# Compressibility (1/GPa) = 0.01794393
#
# Stress axis : x y z
#
# Youngs Moduli (GPa) = 54.97400 29.60528 84.14898
#
# Poissons Ratio (x) = 0.30902 0.20823
# Poissons Ratio (y) = 0.57382 0.84498
# Poissons Ratio (z) = 0.13603 0.29728
#
# Static dielectric constant tensor:
#      x y z
#    x 1.517610 0.000000 0.000000 
#    y 0.000000 1.517270 0.000000 
#    z 0.000000 0.000000 1.503930 
# 
# From -- ./inp_files/71776.got.cif
#   From: 2010.05.17/outbox.cif.g08.bks.cpg/sg65_36_cif.got.tgz:71776.got - 2010.06.03 17:01:31.
