data_PCOD9484643
_publ_section_title
;
Structure prediction by ZEFSAII (Michael W. Deem and Ramdas Pophale) SiO2 
 PCOD9484643
Probable space group: C M M M
;
_chemical_formula_sum "Si O2"
_cell_formula_units_Z 104
_cell_length_a 8.989910
_cell_length_b 27.792809
_cell_length_c 27.536994
_cell_angle_alpha 90.000000
_cell_angle_beta 90.000000
_cell_angle_gamma 90.000000
_cell_volume 6880.251548
_symmetry_space_group_name_H-M "C M M M"
_symmetry_group_IT_number 65
_symmetry_cell_setting 'orthorhombic'
loop_
_space_group_symop_operation_xyz
x,y,z
-x,-y,z
x,-y,-z
-x,y,-z
-x,-y,-z
x,y,-z
-x,y,z
x,-y,z
1/2+x,1/2+y,z
1/2-x,1/2-y,z
1/2+x,1/2-y,-z
1/2-x,1/2+y,-z
1/2-x,1/2-y,-z
1/2+x,1/2+y,-z
1/2-x,1/2+y,z
1/2+x,1/2-y,z
loop_
_atom_site_type_symbol
_atom_site_label
_atom_site_fract_x
_atom_site_fract_y
_atom_site_fract_z
Si Si1 0.181461 0.555695 0.000000
Si Si2 0.326958 0.058590 0.105639
Si Si3 0.675725 0.442457 0.794423
Si Si4 0.321920 0.900551 0.300542
Si Si5 0.677806 0.199633 0.650848
Si Si6 0.821886 0.944952 0.604892
Si Si7 0.179286 0.645012 0.445275
O O1 0.225450 0.576460 0.052457
O O2 0.231122 0.500000 0.000000
O O3 0.000000 0.555186 0.000000
O O4 0.500000 0.071989 0.112589
O O5 0.232189 0.072788 0.152293
O O6 0.323327 0.000000 0.103243
O O7 0.500000 0.434463 0.789577
O O8 0.703048 0.500000 0.789981
O O9 0.762842 0.415968 0.751684
O O10 0.500000 0.906187 0.303687
O O11 0.285233 0.845291 0.314299
O O12 0.245288 0.932747 0.342200
O O13 0.500000 0.204933 0.650846
O O14 0.750000 0.250000 0.664073
O O15 0.724465 0.182474 0.596670
O O16 0.751944 0.905895 0.568728
O O17 0.000000 0.939553 0.606380
O O18 0.786894 0.000000 0.591733
O O19 0.218612 0.659384 0.500000
O O20 0.000000 0.639952 0.442199
#
# Coordination Sequence:
#
# PCOD9484643 Si02
#       7
#     8  16  16  16  16  16  16
#     4   7  10  18  33  51  71 101 146 191 220 247
#     4   8  13  22  36  53  75 108 149 187 220 253
#     4  10  19  28  39  60  89 117 147 183 220 255
#     4  10  20  33  48  65  85 111 144 177 209 253
#     4   9  19  34  51  70  88 107 134 169 210 256
#     4  10  20  32  46  66  91 116 143 176 212 248
#     4   9  19  35  51  68  91 116 143 172 200 240
#
# _framework density 15.115726
#
# number of rings (size 3 to 8) (size 9 to 14) (size 15 to 20)
#    0.000    2.846    0.000    3.692    0.000    8.000 
#    0.000    1.923    0.000    2.308    0.000    0.000 
#    0.000    0.000    0.000    0.692    0.000    8.231 
#
# Total GULP energy -289661.010486 kJ/mol
# GULP energy per Si atom -5570.404048 kJ/mol
# Density = 1.508132 g / cm^3
# Si number density = 15.115726 Si / 1000 Ang^3
#
#
#
# Elastic Constant Matrix: (Units=GPa)
#
#
# Indices 1 2 3 4 5 6 
#
# 1 24.0432 16.2043 20.4873 0.0000 0.0000 0.0000
# 2 16.2043 38.5212 5.2840 0.0000 0.0000 0.0000
# 3 20.4873 5.2840 88.6848 0.0000 0.0000 0.0000
# 4 0.0000 0.0000 0.0000 8.1509 0.0000 0.0000
# 5 0.0000 0.0000 0.0000 0.0000 6.6161 0.0000
# 6 0.0000 0.0000 0.0000 0.0000 0.0000 21.2249
#
#
#
# Elastic Compliance Matrix: (Units=1/GPa)
#
#
# Indices 1 2 3 4 5 6 
#
# 1 0.074437 -0.029192 -0.015456 0.000000 0.000000 0.000000
# 2 -0.029192 0.037622 0.004502 0.000000 0.000000 0.000000
# 3 -0.015456 0.004502 0.014578 0.000000 0.000000 0.000000
# 4 0.000000 0.000000 0.000000 0.122686 0.000000 0.000000
# 5 0.000000 0.000000 0.000000 0.000000 0.151146 0.000000
# 6 0.000000 0.000000 0.000000 0.000000 0.000000 0.047115
#
#
# Mechanical properties :
#
#
# Convention : Reuss Voigt Hill
#
# Bulk Modulus (GPa) = 21.57774 26.13336 23.85555
# Shear Modulus (GPa) = 9.20260 14.48329 11.84294
#
# Velocity S-wave (km/s) = 2.47008 3.09877 2.80212
# Velocity P-wave (km/s) = 4.73720 5.48904 5.12692
#
# Compressibility (1/GPa) = 0.04634405
#
# Stress axis : x y z
#
# Youngs Moduli (GPa) = 13.43424 26.58014 68.59527
#
# Poissons Ratio (x) = 0.77593 1.06024
# Poissons Ratio (y) = 0.39217 -0.30883
# Poissons Ratio (z) = 0.20765 -0.11967
#
# Static dielectric constant tensor:
#      x y z
#    x 1.503320 0.000000 0.000000 
#    y 0.000000 1.474420 0.000000 
#    z 0.000000 0.000000 1.524180 
# 
# From -- ./inp_files/77010.got.cif
#   From: 2010.05.17/outbox.cif.g08.bks.cpg/sg65_39_cif.got.tgz:77010.got - 2010.06.03 17:01:31.
