data_PCOD9484119
_publ_section_title
;
Structure prediction by ZEFSAII (Michael W. Deem and Ramdas Pophale) SiO2 
 PCOD9484119
Probable space group: C M M M
;
_chemical_formula_sum "Si O2"
_cell_formula_units_Z 104
_cell_length_a 29.756754
_cell_length_b 7.677887
_cell_length_c 24.121985
_cell_angle_alpha 90.000000
_cell_angle_beta 90.000000
_cell_angle_gamma 90.000000
_cell_volume 5511.125663
_symmetry_space_group_name_H-M "C M M M"
_symmetry_group_IT_number 65
_symmetry_cell_setting 'orthorhombic'
loop_
_space_group_symop_operation_xyz
x,y,z
-x,-y,z
x,-y,-z
-x,y,-z
-x,-y,-z
x,y,-z
-x,y,z
x,-y,z
1/2+x,1/2+y,z
1/2-x,1/2-y,z
1/2+x,1/2-y,-z
1/2-x,1/2+y,-z
1/2-x,1/2-y,-z
1/2+x,1/2+y,-z
1/2-x,1/2+y,z
1/2+x,1/2-y,z
loop_
_atom_site_type_symbol
_atom_site_label
_atom_site_fract_x
_atom_site_fract_y
_atom_site_fract_z
Si Si1 0.302206 0.798906 0.672845
Si Si2 0.549448 0.287923 0.596402
Si Si3 0.853175 0.210978 0.560373
Si Si4 0.696951 0.708767 0.000000
Si Si5 0.640304 0.701568 0.776425
Si Si6 0.302832 0.710306 0.879013
Si Si7 0.950431 0.787300 0.273886
O O1 0.250000 0.750000 0.671594
O O2 0.324555 0.769361 0.612982
O O3 0.329531 0.702669 0.720986
O O4 0.305990 0.000000 0.687464
O O5 0.500000 0.229547 0.576611
O O6 0.549016 0.500000 0.593352
O O7 0.594939 0.230463 0.566851
O O8 0.553880 0.239689 0.661266
O O9 0.835847 0.266716 0.500000
O O10 0.853202 0.000000 0.561718
O O11 0.750000 0.750000 0.000000
O O12 0.681151 0.774073 0.939825
O O13 0.690931 0.500000 0.000000
O O14 0.631737 0.500000 0.791020
O O15 0.667984 0.778529 0.827723
O O16 0.592013 0.779168 0.760369
O O17 0.305652 0.500000 0.879424
O O18 0.250000 0.750000 0.871692
O O19 0.000000 0.733330 0.254568
O O20 0.949314 0.000000 0.273355
#
# Coordination Sequence:
#
# PCOD9484119 Si02
#       7
#    16  16  16   8  16  16  16
#     4  12  25  39  54  70  93 124 156 195 240 284
#     4   8  13  24  46  75 101 122 147 185 230 274
#     4  10  20  35  55  76  97 122 155 195 235 279
#     4   8  14  26  40  60  91 125 161 191 230 276
#     4  10  18  31  51  74  98 123 158 198 237 276
#     4   9  17  27  43  66  94 128 159 195 233 276
#     4   8  13  23  44  71  96 121 151 190 231 273
#
# _framework density 18.870918
#
# number of rings (size 3 to 8) (size 9 to 14) (size 15 to 20)
#    0.000    2.615    1.538    2.769    0.000    2.769 
#    0.000    1.538    0.000    1.846    0.000    1.615 
#    0.000    4.308    0.000    0.000    0.000   29.231 
#
# Total GULP energy -289926.784585 kJ/mol
# GULP energy per Si atom -5575.515088 kJ/mol
# Density = 1.882797 g / cm^3
# Si number density = 18.870918 Si / 1000 Ang^3
#
#
#
# Elastic Constant Matrix: (Units=GPa)
#
#
# Indices 1 2 3 4 5 6 
#
# 1 114.7311 -4.6461 60.2836 0.0000 0.0000 0.0000
# 2 -4.6461 37.8489 -5.6308 0.0000 0.0000 0.0000
# 3 60.2836 -5.6308 127.3979 0.0000 0.0000 0.0000
# 4 0.0000 0.0000 0.0000 -16.2190 0.0000 0.0000
# 5 0.0000 0.0000 0.0000 0.0000 23.4770 0.0000
# 6 0.0000 0.0000 0.0000 0.0000 0.0000 5.5435
#
#
#
# Elastic Compliance Matrix: (Units=1/GPa)
#
#
# Indices 1 2 3 4 5 6 
#
# 1 0.011614 0.000612 -0.005469 0.000000 0.000000 0.000000
# 2 0.000612 0.026628 0.000887 0.000000 0.000000 0.000000
# 3 -0.005469 0.000887 0.010476 0.000000 0.000000 0.000000
# 4 0.000000 0.000000 0.000000 -0.061656 0.000000 0.000000
# 5 0.000000 0.000000 0.000000 0.000000 0.042595 0.000000
# 6 0.000000 0.000000 0.000000 0.000000 0.000000 0.180391
#
#
# Mechanical properties :
#
#
# Convention : Reuss Voigt Hill
#
# Bulk Modulus (GPa) = 24.52186 42.22125 33.37155
# Shear Modulus (GPa) = 21.59078 17.89173 19.74125
#
# Velocity S-wave (km/s) = 3.38617 3.08248 3.23789
# Velocity P-wave (km/s) = 5.32080 5.92378 5.63037
#
# Compressibility (1/GPa) = 0.04077995
#
# Stress axis : x y z
#
# Youngs Moduli (GPa) = 86.10105 37.55452 95.45274
#
# Poissons Ratio (x) = -0.02299 0.52200
# Poissons Ratio (y) = -0.05270 -0.08469
# Poissons Ratio (z) = 0.47086 -0.03332
#
# Static dielectric constant tensor:
#      x y z
#    x 1.616530 0.000000 0.000000 
#    y 0.000000 1.731520 0.000000 
#    z 0.000000 0.000000 1.673670 
# 
# From -- ./inp_files/71803.got.cif
#   From: 2010.05.17/outbox.cif.g08.bks.cpg/sg65_36_cif.got.tgz:71803.got - 2010.06.03 17:01:31.
