data_PCOD9484104
_publ_section_title
;
Structure prediction by ZEFSAII (Michael W. Deem and Ramdas Pophale) SiO2 
 PCOD9484104
Probable space group: C M M M
;
_chemical_formula_sum "Si O2"
_cell_formula_units_Z 116
_cell_length_a 26.234975
_cell_length_b 29.019703
_cell_length_c 7.509904
_cell_angle_alpha 90.000000
_cell_angle_beta 90.000000
_cell_angle_gamma 90.000000
_cell_volume 5717.524094
_symmetry_space_group_name_H-M "C M M M"
_symmetry_group_IT_number 65
_symmetry_cell_setting 'orthorhombic'
loop_
_space_group_symop_operation_xyz
x,y,z
-x,-y,z
x,-y,-z
-x,y,-z
-x,-y,-z
x,y,-z
-x,y,z
x,-y,z
1/2+x,1/2+y,z
1/2-x,1/2-y,z
1/2+x,1/2-y,-z
1/2-x,1/2+y,-z
1/2-x,1/2-y,-z
1/2+x,1/2+y,-z
1/2-x,1/2+y,z
1/2+x,1/2-y,z
loop_
_atom_site_type_symbol
_atom_site_label
_atom_site_fract_x
_atom_site_fract_y
_atom_site_fract_z
Si Si1 0.869256 0.500000 0.000000
Si Si2 0.222483 0.923378 0.213912
Si Si3 0.162746 0.427375 0.705764
Si Si4 0.382290 0.732269 0.701079
Si Si5 0.940604 0.143399 0.282553
Si Si6 0.667078 0.180011 0.715052
Si Si7 0.889700 0.950667 0.289955
Si Si8 0.217394 0.817372 0.207865
O O1 0.865506 0.459928 0.156661
O O2 0.276770 0.939807 0.285571
O O3 0.171268 0.948620 0.269190
O O4 0.215132 0.870289 0.270926
O O5 0.226570 0.924972 0.000000
O O6 0.146097 0.431423 0.500000
O O7 0.159653 0.373452 0.763409
O O8 0.402012 0.738950 0.500000
O O9 0.415091 0.690862 0.782923
O O10 0.374256 0.782974 0.781718
O O11 0.324879 0.712086 0.694391
O O12 0.935465 0.143903 0.500000
O O13 0.912847 0.096901 0.217267
O O14 0.000000 0.141665 0.239461
O O15 0.666857 0.181456 0.500000
O O16 0.723548 0.195487 0.773725
O O17 0.901744 0.950801 0.500000
O O18 0.907867 0.000000 0.215943
O O19 0.203882 0.815802 0.000000
#
# Coordination Sequence:
#
# PCOD9484104 Si02
#       8
#     4  16  16  16  16  16  16  16
#     4  12  22  36  52  74 102 144 188 212 242 298
#     4  10  19  32  46  66  98 129 173 222 269 318
#     4  10  21  35  50  71 104 142 178 219 260 302
#     4  10  18  31  51  71  94 127 165 205 260 325
#     4   9  18  33  52  73  96 124 165 219 275 334
#     4   9  19  32  47  70  99 131 164 205 255 309
#     4  10  20  31  47  69  91 122 167 223 281 329
#     4  10  19  29  45  69  97 127 162 206 257 311
#
# _framework density 20.288502999999999
#
# number of rings (size 3 to 8) (size 9 to 14) (size 15 to 20)
#    0.000    2.207    2.069    1.448    1.931    3.862 
#    0.000    1.379    0.000    1.655    0.000    0.966 
#    0.000    0.000    0.000    1.241    0.000   17.655 
#
# Total GULP energy -323165.867379 kJ/mol
# GULP energy per Si atom -5571.825300 kJ/mol
# Density = 2.024233 g / cm^3
# Si number density = 20.288503 Si / 1000 Ang^3
#
#
#
# Elastic Constant Matrix: (Units=GPa)
#
#
# Indices 1 2 3 4 5 6 
#
# 1 42.0244 49.6900 -3.7139 0.0000 0.0000 0.0000
# 2 49.6900 132.9201 12.6935 0.0000 0.0000 0.0000
# 3 -3.7139 12.6935 75.1405 0.0000 0.0000 0.0000
# 4 0.0000 0.0000 0.0000 5.1056 0.0000 0.0000
# 5 0.0000 0.0000 0.0000 0.0000 184.7870 0.0000
# 6 0.0000 0.0000 0.0000 0.0000 0.0000 31.0748
#
#
#
# Elastic Compliance Matrix: (Units=1/GPa)
#
#
# Indices 1 2 3 4 5 6 
#
# 1 0.044483 -0.017115 0.005090 0.000000 0.000000 0.000000
# 2 -0.017115 0.014232 -0.003250 0.000000 0.000000 0.000000
# 3 0.005090 -0.003250 0.014109 0.000000 0.000000 0.000000
# 4 0.000000 0.000000 0.000000 0.195862 0.000000 0.000000
# 5 0.000000 0.000000 0.000000 0.000000 0.005412 0.000000
# 6 0.000000 0.000000 0.000000 0.000000 0.000000 0.032180
#
#
# Mechanical properties :
#
#
# Convention : Reuss Voigt Hill
#
# Bulk Modulus (GPa) = 23.65592 40.82491 32.24041
# Shear Modulus (GPa) = 14.24826 56.95450 35.60138
#
# Velocity S-wave (km/s) = 2.65294 5.30408 4.19353
# Velocity P-wave (km/s) = 4.59012 7.59453 6.27479
#
# Compressibility (1/GPa) = 0.04227271
#
# Stress axis : x y z
#
# Youngs Moduli (GPa) = 22.48063 70.26446 70.87664
#
# Poissons Ratio (x) = 1.20259 -0.36075
# Poissons Ratio (y) = 0.38476 0.23036
# Poissons Ratio (z) = -0.11442 0.22837
#
# Static dielectric constant tensor:
#      x y z
#    x 1.673240 0.000000 0.000000 
#    y 0.000000 1.770450 0.000000 
#    z 0.000000 0.000000 1.747530 
# 
# From -- ./inp_files/17326.got.cif
#   From: 2010.05.17/outbox.cif.g08.bks.cpg/sg65_9_cif.got.tgz:17326.got - 2010.06.03 17:01:31.
